data_PCOD9316496
_publ_section_title
;
Structure prediction by ZEFSAII (Michael W. Deem and Ramdas Pophale) SiO2 
 PCOD9316496
Probable space group: C 2 2 21
;
_chemical_formula_sum "Si O2"
_cell_formula_units_Z 52
_cell_length_a 14.853020
_cell_length_b 18.153851
_cell_length_c 8.315988
_cell_angle_alpha 90.000000
_cell_angle_beta 90.000000
_cell_angle_gamma 90.000000
_cell_volume 2242.318946
_symmetry_space_group_name_H-M "C 2 2 21"
_symmetry_group_IT_number 20
_symmetry_cell_setting 'orthorhombic'
loop_
_space_group_symop_operation_xyz
x,y,z
-x,-y,1/2+z
x,-y,-z
-x,y,1/2-z
1/2+x,1/2+y,z
1/2-x,1/2-y,1/2+z
1/2+x,1/2-y,-z
1/2-x,1/2+y,1/2-z
loop_
_atom_site_type_symbol
_atom_site_label
_atom_site_fract_x
_atom_site_fract_y
_atom_site_fract_z
Si Si1 0.360927 0.080989 0.458111
Si Si2 0.822909 0.730123 0.941491
Si Si3 0.657871 0.384251 0.480390
Si Si4 0.526889 0.500000 0.500000
Si Si5 0.873326 0.735958 0.566136
Si Si6 0.613776 0.392201 0.860612
Si Si7 0.682509 0.076294 0.418385
O O1 0.261847 0.091683 0.542552
O O2 0.410530 0.157054 0.508403
O O3 0.343178 0.078691 0.268284
O O4 0.398273 0.000000 0.500000
O O5 0.859415 0.798243 0.049218
O O6 0.845322 0.730608 0.753517
O O7 0.715975 0.746350 0.961244
O O8 0.853085 0.651434 0.004816
O O9 0.592765 0.444292 0.404194
O O10 0.637612 0.388405 0.672067
O O11 0.460109 0.549094 0.399092
O O12 0.923615 0.814207 0.571082
O O13 0.709376 0.414168 0.937515
O O14 0.654276 0.000000 0.500000
#
# Coordination Sequence:
#
# PCOD9316496 Si02
#       7
#     8   8   8   4   8   8   8
#     4  10  18  31  49  74  99 127 165 209 257 303
#     4   9  17  31  47  67  95 130 167 210 254 297
#     4   9  19  31  44  66  98 133 171 203 242 297
#     4  12  18  32  48  70 102 140 170 198 244 284
#     4   9  17  31  47  67  95 130 167 210 254 297
#     4   9  19  31  44  66  98 133 171 203 242 297
#     4  10  18  31  49  74  99 127 165 209 257 303
#
# _framework density 23.190277999999999
#
# number of rings (size 3 to 8) (size 9 to 14) (size 15 to 20)
#    0.000    2.462    1.538    4.154    0.000    0.000 
#    0.000    4.615    0.000    0.000    0.000    1.077 
#    0.000    0.000    0.000    0.000    0.000    0.000 
#
# Total GULP energy -145060.870596 kJ/mol
# GULP energy per Si atom -5579.264254 kJ/mol
# Density = 2.313750 g / cm^3
# Si number density = 23.190278 Si / 1000 Ang^3
#
#
#
# Elastic Constant Matrix: (Units=GPa)
#
#
# Indices 1 2 3 4 5 6 
#
# 1 28.6333 9.1663 2.2139 0.0000 0.0000 0.0000
# 2 9.1663 235.5080 49.8240 0.0000 0.0000 0.0000
# 3 2.2139 49.8240 48.1396 0.0000 0.0000 0.0000
# 4 0.0000 0.0000 0.0000 34.8503 0.0000 0.0000
# 5 0.0000 0.0000 0.0000 0.0000 9.0098 0.0000
# 6 0.0000 0.0000 0.0000 0.0000 0.0000 -8.1464
#
#
#
# Elastic Compliance Matrix: (Units=1/GPa)
#
#
# Indices 1 2 3 4 5 6 
#
# 1 0.035368 -0.001322 -0.000258 0.000000 0.000000 0.000000
# 2 -0.001322 0.005486 -0.005617 0.000000 0.000000 0.000000
# 3 -0.000258 -0.005617 0.026598 0.000000 0.000000 0.000000
# 4 0.000000 0.000000 0.000000 0.028694 0.000000 0.000000
# 5 0.000000 0.000000 0.000000 0.000000 0.110990 0.000000
# 6 0.000000 0.000000 0.000000 0.000000 0.000000 -0.122753
#
#
# Mechanical properties :
#
#
# Convention : Reuss Voigt Hill
#
# Bulk Modulus (GPa) = 18.84759 48.29880 33.57319
# Shear Modulus (GPa) = 42.93187 23.88118 33.40653
#
# Velocity S-wave (km/s) = 4.30733 3.21252 3.79956
# Velocity P-wave (km/s) = 5.73432 5.88496 5.81013
#
# Compressibility (1/GPa) = 0.05305717
#
# Stress axis : x y z
#
# Youngs Moduli (GPa) = 28.27452 182.28414 37.59618
#
# Poissons Ratio (x) = 0.24096 0.00971
# Poissons Ratio (y) = 0.03738 0.21118
# Poissons Ratio (z) = 0.00731 1.02391
#
# Static dielectric constant tensor:
#      x y z
#    x 1.924190 0.000000 0.000000 
#    y 0.000000 1.967710 0.000000 
#    z 0.000000 0.000000 1.873450 
# 
# From -- ./inp_files/9507.got.cif
#   From: 2010.05.17/outbox.cif.g08.bks.cpg/sg20_5_cif.got.tgz:9507.got - 2010.06.03 22:52:26.
