data_PCOD9316037
_publ_section_title
;
Structure prediction by ZEFSAII (Michael W. Deem and Ramdas Pophale) SiO2 
 PCOD9316037
Probable space group: P 21 21 21
;
_chemical_formula_sum "Si O2"
_cell_formula_units_Z 32
_cell_length_a 4.915541
_cell_length_b 12.122478
_cell_length_c 19.778082
_cell_angle_alpha 90.000000
_cell_angle_beta 90.000000
_cell_angle_gamma 90.000000
_cell_volume 1178.546984
_symmetry_space_group_name_H-M "P 21 21 21"
_symmetry_group_IT_number 19
_symmetry_cell_setting 'orthorhombic'
loop_
_space_group_symop_operation_xyz
x,y,z
1/2-x,-y,1/2+z
1/2+x,1/2-y,-z
-x,1/2+y,1/2-z
loop_
_atom_site_type_symbol
_atom_site_label
_atom_site_fract_x
_atom_site_fract_y
_atom_site_fract_z
Si Si1 0.738686 0.254518 0.259586
Si Si2 0.210168 0.270709 0.546422
Si Si3 0.562362 0.522165 0.803084
Si Si4 0.238749 0.796824 0.390909
Si Si5 0.989419 0.495726 0.585197
Si Si6 0.511024 0.945921 0.112329
Si Si7 0.839869 0.893731 0.502947
Si Si8 0.696050 0.364298 0.689465
O O1 0.731189 0.384905 0.272517
O O2 0.832129 0.242605 0.181175
O O3 0.472837 0.182562 0.276468
O O4 0.984457 0.232951 0.312054
O O5 0.996793 0.269695 0.483222
O O6 0.085492 0.178805 0.596893
O O7 0.199828 0.394069 0.577241
O O8 0.282689 0.546361 0.842157
O O9 0.528231 0.445127 0.738891
O O10 0.772265 0.476781 0.857872
O O11 0.342394 0.704029 0.442762
O O12 0.999459 0.857554 0.434561
O O13 0.458700 0.891884 0.370560
O O14 0.036075 0.564185 0.516244
O O15 0.756663 0.423484 0.619704
O O16 0.547750 0.998560 0.038827
#
# Coordination Sequence:
#
# PCOD9316037 Si02
#       8
#     4   4   4   4   4   4   4   4
#     4  12  28  51  78 112 151 200 264 314 387 449
#     4  12  25  46  71 107 146 192 246 307 368 447
#     4  12  25  49  73 108 149 197 255 314 369 453
#     4  12  27  48  78 111 159 203 253 322 383 477
#     4  12  27  48  75 110 154 198 253 315 387 460
#     4  12  27  48  77 110 155 199 258 315 383 457
#     4  12  27  47  76 114 158 205 252 317 397 460
#     4  12  28  49  76 110 146 200 251 316 380 449
#
# _framework density 27.152075
#
# number of rings (size 3 to 8) (size 9 to 14) (size 15 to 20)
#    0.000    0.000    3.750    6.000    5.250    2.000 
#    0.000    0.000    0.000    0.000    0.000    0.000 
#    0.000    0.000    0.000    0.000    0.000    0.000 
#
# Total GULP energy -178580.721806 kJ/mol
# GULP energy per Si atom -5580.647556 kJ/mol
# Density = 2.709028 g / cm^3
# Si number density = 27.152075 Si / 1000 Ang^3
#
#
#
# Elastic Constant Matrix: (Units=GPa)
#
#
# Indices 1 2 3 4 5 6 
#
# 1 153.9392 38.0733 59.9675 0.0000 0.0000 0.0000
# 2 38.0733 113.1851 38.0201 0.0000 0.0000 0.0000
# 3 59.9675 38.0201 112.0105 0.0000 0.0000 0.0000
# 4 0.0000 0.0000 0.0000 43.9809 0.0000 0.0000
# 5 0.0000 0.0000 0.0000 0.0000 51.5573 0.0000
# 6 0.0000 0.0000 0.0000 0.0000 0.0000 24.1323
#
#
#
# Elastic Compliance Matrix: (Units=1/GPa)
#
#
# Indices 1 2 3 4 5 6 
#
# 1 0.008424 -0.001488 -0.004005 0.000000 0.000000 0.000000
# 2 -0.001488 0.010235 -0.002677 0.000000 0.000000 0.000000
# 3 -0.004005 -0.002677 0.011981 0.000000 0.000000 0.000000
# 4 0.000000 0.000000 0.000000 0.022737 0.000000 0.000000
# 5 0.000000 0.000000 0.000000 0.000000 0.019396 0.000000
# 6 0.000000 0.000000 0.000000 0.000000 0.000000 0.041438
#
#
# Mechanical properties :
#
#
# Convention : Reuss Voigt Hill
#
# Bulk Modulus (GPa) = 69.93622 72.36186 71.14904
# Shear Modulus (GPa) = 36.94976 40.13904 38.54440
#
# Velocity S-wave (km/s) = 3.69297 3.84904 3.77181
# Velocity P-wave (km/s) = 6.63303 6.81630 6.72529
#
# Compressibility (1/GPa) = 0.01429874
#
# Stress axis : x y z
#
# Youngs Moduli (GPa) = 118.70353 97.70303 83.46817
#
# Poissons Ratio (x) = 0.14543 0.33428
# Poissons Ratio (y) = 0.17669 0.22346
# Poissons Ratio (z) = 0.47540 0.26157
#
# Static dielectric constant tensor:
#      x y z
#    x 2.225220 0.000000 0.000000 
#    y 0.000000 2.187020 0.000000 
#    z 0.000000 0.000000 2.243040 
# 
# From -- ./inp_files/6952.got.cif
#   From: 2010.05.17/outbox.cif.g08.bks.cpg/sg19_4_cif.got.tgz:6952.got - 2010.06.03 22:46:19.
