data_PCOD9316752
_publ_section_title
;
Structure prediction by ZEFSAII (Michael W. Deem and Ramdas Pophale) SiO2 
 PCOD9316752
Probable space group: C 2 2 21
;
_chemical_formula_sum "Si O2"
_cell_formula_units_Z 40
_cell_length_a 9.087802
_cell_length_b 17.369167
_cell_length_c 13.457367
_cell_angle_alpha 90.000000
_cell_angle_beta 90.000000
_cell_angle_gamma 90.000000
_cell_volume 2124.212418
_symmetry_space_group_name_H-M "C 2 2 21"
_symmetry_group_IT_number 20
_symmetry_cell_setting 'orthorhombic'
loop_
_space_group_symop_operation_xyz
x,y,z
-x,-y,1/2+z
x,-y,-z
-x,y,1/2-z
1/2+x,1/2+y,z
1/2-x,1/2-y,1/2+z
1/2+x,1/2-y,-z
1/2-x,1/2+y,1/2-z
loop_
_atom_site_type_symbol
_atom_site_label
_atom_site_fract_x
_atom_site_fract_y
_atom_site_fract_z
Si Si1 0.231262 0.157543 0.378222
Si Si2 0.267062 0.028387 0.782393
Si Si3 0.409064 0.180123 0.851673
Si Si4 0.000000 0.938207 0.750000
Si Si5 0.650466 0.924792 0.058235
Si Si6 0.000000 0.595693 0.250000
O O1 0.179612 0.245451 0.385669
O O2 0.107908 0.114194 0.313920
O O3 0.236235 0.115880 0.484248
O O4 0.388800 0.143734 0.321177
O O5 0.390908 0.964092 0.806445
O O6 0.110486 0.993611 0.808908
O O7 0.300069 0.109619 0.830548
O O8 0.285650 0.045342 0.663475
O O9 0.500000 0.197866 0.750000
O O10 0.529011 0.140801 0.922899
O O11 0.594213 0.000000 0.000000
#
# Coordination Sequence:
#
# PCOD9316752 Si02
#       6
#     8   8   8   4   8   4
#     4  11  22  39  61  93 123 158 202 261 303 355
#     4  10  19  39  64  86 115 165 202 241 306 372
#     4  10  21  40  60  86 122 159 195 248 311 365
#     4  10  20  34  66  90 118 154 204 248 298 358
#     4  11  19  39  64  83 119 161 207 243 299 369
#     4  10  18  36  66  82 112 168 202 228 312 374
#
# _framework density 18.830507999999998
#
# number of rings (size 3 to 8) (size 9 to 14) (size 15 to 20)
#    0.000    1.600    8.000    0.000    0.000    0.800 
#   10.800    2.000    8.800    0.000    0.000    0.000 
#    0.000    0.000    0.000    0.000    0.000    0.000 
#
# Total GULP energy -111450.180178 kJ/mol
# GULP energy per Si atom -5572.509009 kJ/mol
# Density = 1.878765 g / cm^3
# Si number density = 18.830508 Si / 1000 Ang^3
#
#
#
# Elastic Constant Matrix: (Units=GPa)
#
#
# Indices 1 2 3 4 5 6 
#
# 1 101.6680 41.2606 16.0413 0.0000 0.0000 0.0000
# 2 41.2606 125.2345 22.7011 0.0000 0.0000 0.0000
# 3 16.0413 22.7011 56.7887 0.0000 0.0000 0.0000
# 4 0.0000 0.0000 0.0000 13.3715 0.0000 0.0000
# 5 0.0000 0.0000 0.0000 0.0000 13.8754 0.0000
# 6 0.0000 0.0000 0.0000 0.0000 0.0000 31.5451
#
#
#
# Elastic Compliance Matrix: (Units=1/GPa)
#
#
# Indices 1 2 3 4 5 6 
#
# 1 0.011536 -0.003461 -0.001875 0.000000 0.000000 0.000000
# 2 -0.003461 0.009647 -0.002879 0.000000 0.000000 0.000000
# 3 -0.001875 -0.002879 0.019290 0.000000 0.000000 0.000000
# 4 0.000000 0.000000 0.000000 0.074786 0.000000 0.000000
# 5 0.000000 0.000000 0.000000 0.000000 0.072070 0.000000
# 6 0.000000 0.000000 0.000000 0.000000 0.000000 0.031701
#
#
# Mechanical properties :
#
#
# Convention : Reuss Voigt Hill
#
# Bulk Modulus (GPa) = 41.59171 49.29967 45.44569
# Shear Modulus (GPa) = 20.53608 25.33763 22.93685
#
# Velocity S-wave (km/s) = 3.30597 3.67217 3.49387
# Velocity P-wave (km/s) = 6.05871 6.64961 6.36103
#
# Compressibility (1/GPa) = 0.02404325
#
# Stress axis : x y z
#
# Youngs Moduli (GPa) = 86.68227 103.65800 51.84138
#
# Poissons Ratio (x) = 0.35875 0.09721
# Poissons Ratio (y) = 0.30000 0.14924
# Poissons Ratio (z) = 0.16255 0.29841
#
# Static dielectric constant tensor:
#      x y z
#    x 1.669500 0.000000 0.000000 
#    y 0.000000 1.649340 0.000000 
#    z 0.000000 0.000000 1.711420 
# 
# From -- ./inp_files/12779.got.cif
#   From: 2010.05.17/outbox.cif.g08.bks.cpg/sg20_7_cif.got.tgz:12779.got - 2010.06.03 22:52:26.
