data_PCOD9316191
_publ_section_title
;
Structure prediction by ZEFSAII (Michael W. Deem and Ramdas Pophale) SiO2 
 PCOD9316191
Probable space group: C 2 2 21
;
_chemical_formula_sum "Si O2"
_cell_formula_units_Z 32
_cell_length_a 7.153254
_cell_length_b 18.343855
_cell_length_c 11.272061
_cell_angle_alpha 90.000000
_cell_angle_beta 90.000000
_cell_angle_gamma 90.000000
_cell_volume 1479.100165
_symmetry_space_group_name_H-M "C 2 2 21"
_symmetry_group_IT_number 20
_symmetry_cell_setting 'orthorhombic'
loop_
_space_group_symop_operation_xyz
x,y,z
-x,-y,1/2+z
x,-y,-z
-x,y,1/2-z
1/2+x,1/2+y,z
1/2-x,1/2-y,1/2+z
1/2+x,1/2-y,-z
1/2-x,1/2+y,1/2-z
loop_
_atom_site_type_symbol
_atom_site_label
_atom_site_fract_x
_atom_site_fract_y
_atom_site_fract_z
Si Si1 0.795391 0.153332 0.191408
Si Si2 0.772971 0.010062 0.759771
Si Si3 0.679557 0.500000 0.000000
Si Si4 0.000000 0.231326 0.750000
Si Si5 0.386012 0.621808 0.943839
O O1 0.675309 0.215192 0.253095
O O2 0.000000 0.154639 0.250000
O O3 0.717849 0.070889 0.202813
O O4 0.792390 0.165367 0.050276
O O5 0.710498 0.015819 0.622116
O O6 0.749420 0.072902 0.859085
O O7 0.000000 0.011712 0.750000
O O8 0.535782 0.568144 0.008008
O O9 0.995868 0.177350 0.860968
#
# Coordination Sequence:
#
# PCOD9316191 Si02
#       5
#     8   8   4   4   8
#     4  11  23  41  64  91 129 172 209 270 331 383
#     4   9  16  33  66  88 114 171 216 248 311 378
#     4  10  14  32  66  96 110 168 232 246 304 394
#     4  12  28  38  64 100 134 160 218 270 338 382
#     4  11  19  38  63  94 126 171 220 266 314 395
#
# _framework density 21.634775000000001
#
# number of rings (size 3 to 8) (size 9 to 14) (size 15 to 20)
#    0.000    1.500   11.250    0.000    3.500    0.000 
#    0.000    0.000    8.250    0.000    0.000    0.000 
#    0.000    0.000    0.000    0.000    0.000    0.000 
#
# Total GULP energy -89180.528474 kJ/mol
# GULP energy per Si atom -5573.783030 kJ/mol
# Density = 2.158553 g / cm^3
# Si number density = 21.634775 Si / 1000 Ang^3
#
#
#
# Elastic Constant Matrix: (Units=GPa)
#
#
# Indices 1 2 3 4 5 6 
#
# 1 47.6653 26.2605 8.3952 0.0000 0.0000 0.0000
# 2 26.2605 89.6074 8.3775 0.0000 0.0000 0.0000
# 3 8.3952 8.3775 127.1522 0.0000 0.0000 0.0000
# 4 0.0000 0.0000 0.0000 32.1080 0.0000 0.0000
# 5 0.0000 0.0000 0.0000 0.0000 -2.2809 0.0000
# 6 0.0000 0.0000 0.0000 0.0000 0.0000 67.1907
#
#
#
# Elastic Compliance Matrix: (Units=1/GPa)
#
#
# Indices 1 2 3 4 5 6 
#
# 1 0.025195 -0.007273 -0.001184 0.000000 0.000000 0.000000
# 2 -0.007273 0.013328 -0.000398 0.000000 0.000000 0.000000
# 3 -0.001184 -0.000398 0.007969 0.000000 0.000000 0.000000
# 4 0.000000 0.000000 0.000000 0.031145 0.000000 0.000000
# 5 0.000000 0.000000 0.000000 0.000000 -0.438423 0.000000
# 6 0.000000 0.000000 0.000000 0.000000 0.000000 0.014883
#
#
# Mechanical properties :
#
#
# Convention : Reuss Voigt Hill
#
# Bulk Modulus (GPa) = 34.74388 38.94346 36.84367
# Shear Modulus (GPa) = -15.69378 34.16301 9.23461
#
# Velocity S-wave (km/s) = -2.69624 3.97807 2.06825
# Velocity P-wave (km/s) = 2.53006 6.25616 4.77183
#
# Compressibility (1/GPa) = 0.02878205
#
# Stress axis : x y z
#
# Youngs Moduli (GPa) = 39.69013 75.02752 125.48618
#
# Poissons Ratio (x) = 0.54568 0.14861
# Poissons Ratio (y) = 0.28867 0.04994
# Poissons Ratio (z) = 0.04701 0.02986
#
# Static dielectric constant tensor:
#      x y z
#    x 1.820430 0.000000 0.000000 
#    y 0.000000 1.740440 0.000000 
#    z 0.000000 0.000000 1.884130 
# 
# From -- ./inp_files/12526.got.cif
#   From: 2010.05.17/outbox.cif.g08.bks.cpg/sg20_7_cif.got.tgz:12526.got - 2010.06.03 22:52:26.
