data_PCOD9316270
_publ_section_title
;
Structure prediction by ZEFSAII (Michael W. Deem and Ramdas Pophale) SiO2 
 PCOD9316270
Probable space group: C 2 2 21
;
_chemical_formula_sum "Si O2"
_cell_formula_units_Z 52
_cell_length_a 7.342584
_cell_length_b 17.198616
_cell_length_c 16.508066
_cell_angle_alpha 90.000000
_cell_angle_beta 90.000000
_cell_angle_gamma 90.000000
_cell_volume 2084.676257
_symmetry_space_group_name_H-M "C 2 2 21"
_symmetry_group_IT_number 20
_symmetry_cell_setting 'orthorhombic'
loop_
_space_group_symop_operation_xyz
x,y,z
-x,-y,1/2+z
x,-y,-z
-x,y,1/2-z
1/2+x,1/2+y,z
1/2-x,1/2-y,1/2+z
1/2+x,1/2-y,-z
1/2-x,1/2+y,1/2-z
loop_
_atom_site_type_symbol
_atom_site_label
_atom_site_fract_x
_atom_site_fract_y
_atom_site_fract_z
Si Si1 0.698050 0.044104 0.330309
Si Si2 0.719082 0.500000 0.000000
Si Si3 0.386613 0.320212 0.907936
Si Si4 0.217955 0.710325 0.351168
Si Si5 0.690127 0.360642 0.418716
Si Si6 0.389670 0.835755 0.031412
Si Si7 0.274927 0.979911 0.655115
O O1 0.828088 0.035134 0.408927
O O2 0.666519 0.133957 0.302439
O O3 0.770569 0.005052 0.249200
O O4 0.494752 0.015473 0.351547
O O5 0.811968 0.421722 0.034754
O O6 0.564854 0.300998 0.856363
O O7 0.299327 0.233769 0.916224
O O8 0.281214 0.394037 0.873768
O O9 0.430582 0.343946 0.001680
O O10 0.163092 0.800414 0.344162
O O11 0.136304 0.690348 0.439319
O O12 0.688786 0.450750 0.396989
O O13 0.896566 0.341053 0.447966
#
# Coordination Sequence:
#
# PCOD9316270 Si02
#       7
#     8   4   8   8   8   8   8
#     4  10  22  39  62  82 112 160 202 245 294 352
#     4  10  16  36  62  82 106 144 206 242 272 334
#     4  10  20  34  58  91 123 153 188 243 306 349
#     4   9  20  37  58  85 122 155 196 237 302 359
#     4  10  19  37  60  91 117 156 202 244 280 354
#     4   9  18  34  61  88 110 158 199 234 280 353
#     4  11  22  38  58  90 118 152 203 248 296 347
#
# _framework density 24.943921
#
# number of rings (size 3 to 8) (size 9 to 14) (size 15 to 20)
#    0.000    2.154    1.538    2.308    0.000    1.846 
#   13.846    0.000    0.000    0.000    0.000    0.000 
#    0.000    0.000    0.000    0.000    0.000    0.000 
#
# Total GULP energy -144856.114260 kJ/mol
# GULP energy per Si atom -5571.389010 kJ/mol
# Density = 2.488715 g / cm^3
# Si number density = 24.943921 Si / 1000 Ang^3
#
#
#
# Elastic Constant Matrix: (Units=GPa)
#
#
# Indices 1 2 3 4 5 6 
#
# 1 52.7146 22.6991 1.2124 0.0000 0.0000 0.0000
# 2 22.6991 164.4652 25.4013 0.0000 0.0000 0.0000
# 3 1.2124 25.4013 68.9972 0.0000 0.0000 0.0000
# 4 0.0000 0.0000 0.0000 9.2860 0.0000 0.0000
# 5 0.0000 0.0000 0.0000 0.0000 15.5466 0.0000
# 6 0.0000 0.0000 0.0000 0.0000 0.0000 29.8380
#
#
#
# Elastic Compliance Matrix: (Units=1/GPa)
#
#
# Indices 1 2 3 4 5 6 
#
# 1 0.020202 -0.002898 0.000712 0.000000 0.000000 0.000000
# 2 -0.002898 0.006863 -0.002476 0.000000 0.000000 0.000000
# 3 0.000712 -0.002476 0.015392 0.000000 0.000000 0.000000
# 4 0.000000 0.000000 0.000000 0.107689 0.000000 0.000000
# 5 0.000000 0.000000 0.000000 0.000000 0.064323 0.000000
# 6 0.000000 0.000000 0.000000 0.000000 0.000000 0.033514
#
#
# Mechanical properties :
#
#
# Convention : Reuss Voigt Hill
#
# Bulk Modulus (GPa) = 30.18135 42.75586 36.46861
# Shear Modulus (GPa) = 18.63234 26.72508 22.67871
#
# Velocity S-wave (km/s) = 2.73604 3.27679 3.01855
# Velocity P-wave (km/s) = 4.70183 5.61199 5.17695
#
# Compressibility (1/GPa) = 0.03313304
#
# Stress axis : x y z
#
# Youngs Moduli (GPa) = 49.50092 145.71619 64.96795
#
# Poissons Ratio (x) = 0.42231 -0.04626
# Poissons Ratio (y) = 0.14346 0.16083
# Poissons Ratio (z) = -0.03524 0.36073
#
# Static dielectric constant tensor:
#      x y z
#    x 2.043090 0.000000 0.000000 
#    y 0.000000 2.072360 0.000000 
#    z 0.000000 0.000000 2.068730 
# 
# From -- ./inp_files/23687.got.cif
#   From: 2010.05.17/outbox.cif.g08.bks.cpg/sg20_12_cif.got.tgz:23687.got - 2010.06.03 22:52:26.
