data_PCOD9316718
_publ_section_title
;
Structure prediction by ZEFSAII (Michael W. Deem and Ramdas Pophale) SiO2 
 PCOD9316718
Probable space group: C 2 2 21
;
_chemical_formula_sum "Si O2"
_cell_formula_units_Z 52
_cell_length_a 23.992985
_cell_length_b 17.905441
_cell_length_c 5.438225
_cell_angle_alpha 90.000000
_cell_angle_beta 90.000000
_cell_angle_gamma 90.000000
_cell_volume 2336.288528
_symmetry_space_group_name_H-M "C 2 2 21"
_symmetry_group_IT_number 20
_symmetry_cell_setting 'orthorhombic'
loop_
_space_group_symop_operation_xyz
x,y,z
-x,-y,1/2+z
x,-y,-z
-x,y,1/2-z
1/2+x,1/2+y,z
1/2-x,1/2-y,1/2+z
1/2+x,1/2-y,-z
1/2-x,1/2+y,1/2-z
loop_
_atom_site_type_symbol
_atom_site_label
_atom_site_fract_x
_atom_site_fract_y
_atom_site_fract_z
Si Si1 0.277871 0.000000 0.500000
Si Si2 0.716196 0.742844 0.923538
Si Si3 0.228799 0.917088 0.120448
Si Si4 0.931819 0.959278 0.749506
Si Si5 0.566828 0.201793 0.254903
Si Si6 0.432778 0.711440 0.249437
Si Si7 0.835804 0.387202 0.817800
O O1 0.236897 0.064055 0.595241
O O2 0.318908 0.036220 0.307518
O O3 0.760686 0.744257 0.697339
O O4 0.693044 0.657289 0.921477
O O5 0.680378 0.814292 0.843128
O O6 0.291031 0.889875 0.037093
O O7 0.216977 0.000000 0.000000
O O8 0.913370 0.873806 0.741648
O O9 0.000000 0.960851 0.750000
O O10 0.913805 0.000000 0.500000
O O11 0.913476 0.000000 0.000000
O O12 0.500000 0.192875 0.250000
O O13 0.583596 0.254237 0.486492
O O14 0.598580 0.125534 0.328583
O O15 0.580955 0.239878 0.990839
O O16 0.500000 0.708287 0.250000
#
# Coordination Sequence:
#
# PCOD9316718 Si02
#       7
#     4   8   8   8   8   8   8
#     4  10  18  36  58  86 116 148 184 234 296 344
#     4  10  19  34  56  89 116 146 189 227 280 347
#     4   9  19  34  57  89 119 152 181 232 290 350
#     4   9  15  24  43  69  93 120 163 225 289 343
#     4  10  21  35  54  77 110 153 199 246 284 327
#     4   9  18  32  49  73 102 139 191 245 293 331
#     4  10  21  34  60  85 119 151 197 238 282 344
#
# _framework density 22.257525000000001
#
# number of rings (size 3 to 8) (size 9 to 14) (size 15 to 20)
#    0.000    2.462    1.538    0.923    2.154    3.692 
#    0.000    0.000    5.077    2.769    0.000    0.000 
#    0.000    0.000    0.000    0.000    0.000    0.000 
#
# Total GULP energy -144745.758480 kJ/mol
# GULP energy per Si atom -5567.144557 kJ/mol
# Density = 2.220687 g / cm^3
# Si number density = 22.257525 Si / 1000 Ang^3
#
#
#
# Elastic Constant Matrix: (Units=GPa)
#
#
# Indices 1 2 3 4 5 6 
#
# 1 44.1375 16.9592 12.0988 0.0000 0.0000 0.0000
# 2 16.9592 89.1111 14.9248 0.0000 0.0000 0.0000
# 3 12.0988 14.9248 109.0466 0.0000 0.0000 0.0000
# 4 0.0000 0.0000 0.0000 28.6617 0.0000 0.0000
# 5 0.0000 0.0000 0.0000 0.0000 -4.6390 0.0000
# 6 0.0000 0.0000 0.0000 0.0000 0.0000 3.3658
#
#
#
# Elastic Compliance Matrix: (Units=1/GPa)
#
#
# Indices 1 2 3 4 5 6 
#
# 1 0.024934 -0.004382 -0.002167 0.000000 0.000000 0.000000
# 2 -0.004382 0.012255 -0.001191 0.000000 0.000000 0.000000
# 3 -0.002167 -0.001191 0.009574 0.000000 0.000000 0.000000
# 4 0.000000 0.000000 0.000000 0.034890 0.000000 0.000000
# 5 0.000000 0.000000 0.000000 0.000000 -0.215563 0.000000
# 6 0.000000 0.000000 0.000000 0.000000 0.000000 0.297106
#
#
# Mechanical properties :
#
#
# Convention : Reuss Voigt Hill
#
# Bulk Modulus (GPa) = 31.96618 36.69564 34.33091
# Shear Modulus (GPa) = 26.44037 18.69853 22.56945
#
# Velocity S-wave (km/s) = 3.45037 2.90159 3.18781
# Velocity P-wave (km/s) = 5.50151 5.26766 5.38585
#
# Compressibility (1/GPa) = 0.03128306
#
# Stress axis : x y z
#
# Youngs Moduli (GPa) = 40.10537 81.59611 104.45168
#
# Poissons Ratio (x) = 0.35759 0.22631
# Poissons Ratio (y) = 0.17576 0.12441
# Poissons Ratio (z) = 0.08690 0.09719
#
# Static dielectric constant tensor:
#      x y z
#    x 1.955680 0.000000 0.000000 
#    y 0.000000 1.843480 0.000000 
#    z 0.000000 0.000000 1.876080 
# 
# From -- ./inp_files/4292.got.cif
#   From: 2010.05.17/outbox.cif.g08.bks.cpg/sg20_3_cif.got.tgz:4292.got - 2010.06.03 22:52:26.
