data_PCOD9316470
_publ_section_title
;
Structure prediction by ZEFSAII (Michael W. Deem and Ramdas Pophale) SiO2 
 PCOD9316470
Probable space group: C 2 2 21
;
_chemical_formula_sum "Si O2"
_cell_formula_units_Z 64
_cell_length_a 13.741061
_cell_length_b 15.192014
_cell_length_c 16.767914
_cell_angle_alpha 90.000000
_cell_angle_beta 90.000000
_cell_angle_gamma 90.000000
_cell_volume 3500.375677
_symmetry_space_group_name_H-M "C 2 2 21"
_symmetry_group_IT_number 20
_symmetry_cell_setting 'orthorhombic'
loop_
_space_group_symop_operation_xyz
x,y,z
-x,-y,1/2+z
x,-y,-z
-x,y,1/2-z
1/2+x,1/2+y,z
1/2-x,1/2-y,1/2+z
1/2+x,1/2-y,-z
1/2-x,1/2+y,1/2-z
loop_
_atom_site_type_symbol
_atom_site_label
_atom_site_fract_x
_atom_site_fract_y
_atom_site_fract_z
Si Si1 0.390218 0.450073 0.246425
Si Si2 0.068212 0.149103 0.070168
Si Si3 0.264146 0.687605 0.160522
Si Si4 0.158170 0.154176 0.900628
Si Si5 0.855231 0.462724 0.085984
Si Si6 0.541012 0.197795 0.661237
Si Si7 0.746548 0.599083 0.180337
Si Si8 0.881487 0.026990 0.089859
O O1 0.500000 0.483182 0.250000
O O2 0.379620 0.374420 0.312713
O O3 0.318218 0.525224 0.275998
O O4 0.373116 0.445023 0.151431
O O5 0.172471 0.135083 0.113168
O O6 0.025330 0.240188 0.105125
O O7 0.988401 0.074148 0.092363
O O8 0.085632 0.144727 0.975081
O O9 0.191542 0.745147 0.107816
O O10 0.358309 0.749321 0.171484
O O11 0.226356 0.665612 0.249218
O O12 0.303978 0.600706 0.117170
O O13 0.252122 0.091439 0.918097
O O14 0.932899 0.394930 0.121256
O O15 0.835109 0.547013 0.141382
O O16 0.880624 0.500000 0.000000
O O17 0.500000 0.187030 0.750000
O O18 0.863996 0.000000 0.000000
#
# Coordination Sequence:
#
# PCOD9316470 Si02
#       8
#     8   8   8   8   8   8   8   8
#     4  10  18  30  52  80 112 134 173 229 282 334
#     4  11  19  32  58  82 108 144 185 231 287 338
#     4   9  20  37  52  80 113 142 187 231 280 341
#     4  10  21  35  53  84 113 145 186 233 285 344
#     4  10  20  35  55  83 111 142 192 236 274 337
#     4  10  20  36  56  81 112 148 192 232 280 346
#     4  10  18  32  57  79 106 144 178 230 281 325
#     4  10  20  32  53  82 111 142 179 233 290 334
#
# _framework density 18.283750999999999
#
# number of rings (size 3 to 8) (size 9 to 14) (size 15 to 20)
#    0.000    2.000    3.750    0.750    1.750    0.000 
#    2.250    3.750    0.000    0.000    0.000    0.000 
#    0.000    0.000    0.000    0.000    0.000    0.000 
#
# Total GULP energy -178269.204360 kJ/mol
# GULP energy per Si atom -5570.912636 kJ/mol
# Density = 1.824214 g / cm^3
# Si number density = 18.283751 Si / 1000 Ang^3
#
#
#
# Elastic Constant Matrix: (Units=GPa)
#
#
# Indices 1 2 3 4 5 6 
#
# 1 24.3528 19.1908 30.2917 0.0000 0.0000 0.0000
# 2 19.1908 71.9638 56.6012 0.0000 0.0000 0.0000
# 3 30.2917 56.6012 147.9395 0.0000 0.0000 0.0000
# 4 0.0000 0.0000 0.0000 28.8603 0.0000 0.0000
# 5 0.0000 0.0000 0.0000 0.0000 17.6298 0.0000
# 6 0.0000 0.0000 0.0000 0.0000 0.0000 70.0015
#
#
#
# Elastic Compliance Matrix: (Units=1/GPa)
#
#
# Indices 1 2 3 4 5 6 
#
# 1 0.058817 -0.008887 -0.008643 0.000000 0.000000 0.000000
# 2 -0.008887 0.021220 -0.006299 0.000000 0.000000 0.000000
# 3 -0.008643 -0.006299 0.010939 0.000000 0.000000 0.000000
# 4 0.000000 0.000000 0.000000 0.034650 0.000000 0.000000
# 5 0.000000 0.000000 0.000000 0.000000 0.056722 0.000000
# 6 0.000000 0.000000 0.000000 0.000000 0.000000 0.014285
#
#
# Mechanical properties :
#
#
# Convention : Reuss Voigt Hill
#
# Bulk Modulus (GPa) = 23.08491 50.71372 36.89931
# Shear Modulus (GPa) = 19.32504 32.50980 25.91742
#
# Velocity S-wave (km/s) = 3.25461 4.22129 3.76907
# Velocity P-wave (km/s) = 5.17461 7.18027 6.25831
#
# Compressibility (1/GPa) = 0.04331834
#
# Stress axis : x y z
#
# Youngs Moduli (GPa) = 17.00182 47.12495 91.41353
#
# Poissons Ratio (x) = 0.41879 0.79010
# Poissons Ratio (y) = 0.15109 0.57583
# Poissons Ratio (z) = 0.14695 0.29685
#
# Static dielectric constant tensor:
#      x y z
#    x 1.627870 0.000000 0.000000 
#    y 0.000000 1.632720 0.000000 
#    z 0.000000 0.000000 1.495490 
# 
# From -- ./inp_files/20971.got.cif
#   From: 2010.05.17/outbox.cif.g08.bks.cpg/sg20_11_cif.got.tgz:20971.got - 2010.06.03 22:52:26.
