data_PCOD9316054
_publ_section_title
;
Structure prediction by ZEFSAII (Michael W. Deem and Ramdas Pophale) SiO2 
 PCOD9316054
Probable space group: P 21 21 21
;
_chemical_formula_sum "Si O2"
_cell_formula_units_Z 24
_cell_length_a 16.248597
_cell_length_b 9.466195
_cell_length_c 6.809949
_cell_angle_alpha 90.000000
_cell_angle_beta 90.000000
_cell_angle_gamma 90.000000
_cell_volume 1047.454516
_symmetry_space_group_name_H-M "P 21 21 21"
_symmetry_group_IT_number 19
_symmetry_cell_setting 'orthorhombic'
loop_
_space_group_symop_operation_xyz
x,y,z
1/2-x,-y,1/2+z
1/2+x,1/2-y,-z
-x,1/2+y,1/2-z
loop_
_atom_site_type_symbol
_atom_site_label
_atom_site_fract_x
_atom_site_fract_y
_atom_site_fract_z
Si Si1 0.512649 0.958705 0.068996
Si Si2 0.849906 0.122099 0.304620
Si Si3 0.357426 0.073392 0.859909
Si Si4 0.279808 0.651167 0.869291
Si Si5 0.416305 0.707797 0.193385
Si Si6 0.184907 0.130454 0.030378
O O1 0.495661 0.799864 0.137196
O O2 0.557572 0.055597 0.227186
O O3 0.568212 0.956921 0.874081
O O4 0.423868 0.021931 0.015739
O O5 0.868637 0.261668 0.183733
O O6 0.801570 0.166985 0.501548
O O7 0.792031 0.011490 0.192436
O O8 0.364941 0.981049 0.662080
O O9 0.264059 0.055263 0.935217
O O10 0.282489 0.749185 0.679017
O O11 0.355891 0.693793 0.008828
O O12 0.368704 0.792959 0.364546
#
# Coordination Sequence:
#
# PCOD9316054 Si02
#       6
#     4   4   4   4   4   4
#     4  12  30  46  74 114 148 190 240 316 374 428
#     4  12  27  46  79 109 147 195 243 304 371 439
#     4  12  27  46  79 109 147 195 243 304 371 439
#     4  12  25  53  76 109 148 196 256 296 364 452
#     4  12  28  52  74 112 148 196 246 308 370 442
#     4  12  25  53  76 109 148 196 256 296 364 452
#
# _framework density 22.912689
#
# number of rings (size 3 to 8) (size 9 to 14) (size 15 to 20)
#    0.000    0.000    5.000    4.000   11.667    0.000 
#    0.000    0.000    0.000    0.000    0.000    0.000 
#    0.000    0.000    0.000    0.000    0.000    0.000 
#
# Total GULP energy -134575.811361 kJ/mol
# GULP energy per Si atom -5607.325473 kJ/mol
# Density = 2.286054 g / cm^3
# Si number density = 22.912689 Si / 1000 Ang^3
#
#
#
# Elastic Constant Matrix: (Units=GPa)
#
#
# Indices 1 2 3 4 5 6 
#
# 1 52.6981 -17.0055 -5.5448 0.0000 0.0000 0.0000
# 2 -17.0055 71.3185 0.3044 0.0000 0.0000 0.0000
# 3 -5.5448 0.3044 66.9701 0.0000 0.0000 0.0000
# 4 0.0000 0.0000 0.0000 47.6747 0.0000 0.0000
# 5 0.0000 0.0000 0.0000 0.0000 10.2020 0.0000
# 6 0.0000 0.0000 0.0000 0.0000 0.0000 35.4125
#
#
#
# Elastic Compliance Matrix: (Units=1/GPa)
#
#
# Indices 1 2 3 4 5 6 
#
# 1 0.020749 0.004940 0.001695 0.000000 0.000000 0.000000
# 2 0.004940 0.015198 0.000340 0.000000 0.000000 0.000000
# 3 0.001695 0.000340 0.015071 0.000000 0.000000 0.000000
# 4 0.000000 0.000000 0.000000 0.020975 0.000000 0.000000
# 5 0.000000 0.000000 0.000000 0.000000 0.098020 0.000000
# 6 0.000000 0.000000 0.000000 0.000000 0.000000 0.028239
#
#
# Mechanical properties :
#
#
# Convention : Reuss Voigt Hill
#
# Bulk Modulus (GPa) = 15.39206 16.27721 15.83464
# Shear Modulus (GPa) = 24.27692 32.87334 28.57513
#
# Velocity S-wave (km/s) = 3.25859 3.79188 3.53531
# Velocity P-wave (km/s) = 4.57058 5.12744 4.85699
#
# Compressibility (1/GPa) = 0.06496856
#
# Stress axis : x y z
#
# Youngs Moduli (GPa) = 48.19611 65.79769 66.35315
#
# Poissons Ratio (x) = -0.32505 -0.11250
# Poissons Ratio (y) = -0.23810 -0.02256
# Poissons Ratio (z) = -0.08171 -0.02237
#
# Static dielectric constant tensor:
#      x y z
#    x 1.828200 0.000000 0.000000 
#    y 0.000000 1.838450 0.000000 
#    z 0.000000 0.000000 1.797320 
# 
# From -- ./inp_files/404.got.cif
#   From: 2010.05.17/outbox.cif.g08.bks.cpg/sg19_1_cif.got.tgz:404.got - 2010.06.03 22:46:19.
