data_PCOD9316152
_publ_section_title
;
Structure prediction by ZEFSAII (Michael W. Deem and Ramdas Pophale) SiO2 
 PCOD9316152
Probable space group: P 21 21 21
;
_chemical_formula_sum "Si O2"
_cell_formula_units_Z 28
_cell_length_a 9.000000
_cell_length_b 18.000000
_cell_length_c 9.000000
_cell_angle_alpha 90.000000
_cell_angle_beta 90.000000
_cell_angle_gamma 90.000000
_cell_volume 1458.000000
_symmetry_space_group_name_H-M "P 21 21 21"
_symmetry_group_IT_number 19
_symmetry_cell_setting 'orthorhombic'
loop_
_space_group_symop_operation_xyz
x,y,z
1/2-x,-y,1/2+z
1/2+x,1/2-y,-z
-x,1/2+y,1/2-z
loop_
_atom_site_type_symbol
_atom_site_label
_atom_site_fract_x
_atom_site_fract_y
_atom_site_fract_z
Si Si1 0.886810 0.788664 0.076839
Si Si2 0.726262 0.939589 0.025175
Si Si3 0.971056 0.715776 0.390831
Si Si4 0.608795 0.936868 0.708517
Si Si5 0.598067 0.481230 0.536079
Si Si6 0.216274 0.843567 0.078507
Si Si7 0.811600 0.348068 0.065412
O O1 0.777178 0.859619 0.086112
O O2 0.909174 0.748285 0.235233
O O3 0.048371 0.821166 0.031043
O O4 0.821516 0.725246 0.969385
O O5 0.831545 0.003945 0.089838
O O6 0.553410 0.961151 0.055566
O O7 0.725980 0.934066 0.845471
O O8 0.077555 0.645253 0.353956
O O9 0.060627 0.785429 0.461236
O O10 0.836571 0.682394 0.486755
O O11 0.460184 0.966457 0.794170
O O12 0.721080 0.419973 0.492459
O O13 0.644824 0.567393 0.518417
O O14 0.212584 0.850769 0.256662
#
# Coordination Sequence:
#
# PCOD9316152 Si02
#       7
#     4   4   4   4   4   4   4
#     4  11  22  44  71  96 133 181 223 280 327 411
#     4  10  23  41  72  92 137 173 224 273 336 394
#     4  11  25  45  68  95 142 171 223 279 336 392
#     4  10  22  44  65  99 133 172 225 275 327 395
#     4  10  24  44  64 100 134 172 221 281 328 399
#     4  11  23  44  69  97 134 176 229 270 341 400
#     4  11  27  42  67  97 137 173 225 278 339 397
#
# _framework density 19.20439
#
# number of rings (size 3 to 8) (size 9 to 14) (size 15 to 20)
#    0.857    0.571    1.429    4.286    6.000    3.429 
#    2.571    0.000    0.000    0.000    0.000    0.000 
#    0.000    0.000    0.000    0.000    0.000    0.000 
#
# Total GULP energy -156290.402175 kJ/mol
# GULP energy per Si atom -5581.800078 kJ/mol
# Density = 1.916068 g / cm^3
# Si number density = 19.204390 Si / 1000 Ang^3
#
#
#
# Elastic Constant Matrix: (Units=GPa)
#
#
# Indices 1 2 3 4 5 6 
#
# 1 106.7677 76.4136 45.9602 0.0000 0.0000 0.0000
# 2 76.4136 216.7424 45.0879 0.0000 0.0000 0.0000
# 3 45.9602 45.0879 37.6525 0.0000 0.0000 0.0000
# 4 0.0000 0.0000 0.0000 33.3261 0.0000 0.0000
# 5 0.0000 0.0000 0.0000 0.0000 37.9371 0.0000
# 6 0.0000 0.0000 0.0000 0.0000 0.0000 57.9811
#
#
#
# Elastic Compliance Matrix: (Units=1/GPa)
#
#
# Indices 1 2 3 4 5 6 
#
# 1 0.020895 -0.002745 -0.022219 0.000000 0.000000 0.000000
# 2 -0.002745 0.006505 -0.004439 0.000000 0.000000 0.000000
# 3 -0.022219 -0.004439 0.058995 0.000000 0.000000 0.000000
# 4 0.000000 0.000000 0.000000 0.030007 0.000000 0.000000
# 5 0.000000 0.000000 0.000000 0.000000 0.026359 0.000000
# 6 0.000000 0.000000 0.000000 0.000000 0.000000 0.017247
#
#
# Mechanical properties :
#
#
# Convention : Reuss Voigt Hill
#
# Bulk Modulus (GPa) = 36.24454 77.34289 56.79372
# Shear Modulus (GPa) = 21.92890 38.76224 30.34557
#
# Velocity S-wave (km/s) = 3.38282 4.49754 3.97941
# Velocity P-wave (km/s) = 5.84568 8.20558 7.12403
#
# Compressibility (1/GPa) = 0.02759036
#
# Stress axis : x y z
#
# Youngs Moduli (GPa) = 47.85883 153.73125 16.95046
#
# Poissons Ratio (x) = 0.42192 0.37661
# Poissons Ratio (y) = 0.13135 0.07525
# Poissons Ratio (z) = 1.06335 0.68246
#
# Static dielectric constant tensor:
#      x y z
#    x 1.689970 0.000000 0.000000 
#    y 0.000000 1.641690 0.000000 
#    z 0.000000 0.000000 1.673470 
# 
# From -- ./inp_files/2990.got.cif
#   From: 2010.05.17/outbox.ucp.g08.bks.cvg/sg19_2_cif.got.tgz:2990.got - 2010.06.11 13:13:52.
