data_PCOD9316792
_publ_section_title
;
Structure prediction by ZEFSAII (Michael W. Deem and Ramdas Pophale) SiO2 
 PCOD9316792
Probable space group: C 2 2 21
;
_chemical_formula_sum "Si O2"
_cell_formula_units_Z 32
_cell_length_a 7.229966
_cell_length_b 32.306756
_cell_length_c 5.684143
_cell_angle_alpha 90.000000
_cell_angle_beta 90.000000
_cell_angle_gamma 90.000000
_cell_volume 1327.683634
_symmetry_space_group_name_H-M "C 2 2 21"
_symmetry_group_IT_number 20
_symmetry_cell_setting 'orthorhombic'
loop_
_space_group_symop_operation_xyz
x,y,z
-x,-y,1/2+z
x,-y,-z
-x,y,1/2-z
1/2+x,1/2+y,z
1/2-x,1/2-y,1/2+z
1/2+x,1/2-y,-z
1/2-x,1/2+y,1/2-z
loop_
_atom_site_type_symbol
_atom_site_label
_atom_site_fract_x
_atom_site_fract_y
_atom_site_fract_z
Si Si1 0.725637 0.479323 0.250651
Si Si2 0.205562 0.888270 0.359280
Si Si3 0.500000 0.648194 0.250000
Si Si4 0.726174 0.806681 0.394030
Si Si5 0.500000 0.761911 0.750000
O O1 0.781394 0.500000 0.500000
O O2 0.500000 0.480169 0.250000
O O3 0.786351 0.431590 0.277459
O O4 0.781455 0.500000 0.000000
O O5 0.298726 0.847007 0.264785
O O6 0.000000 0.887790 0.250000
O O7 0.155258 0.881262 0.631809
O O8 0.384461 0.677854 0.421448
O O9 0.546541 0.790846 0.529835
O O10 0.823199 0.767879 0.269767
#
# Coordination Sequence:
#
# PCOD9316792 Si02
#       5
#     8   8   4   8   4
#     4   9  18  28  48  83 122 165 207 260 322 399
#     4   9  19  33  55  81 124 167 209 262 338 388
#     4  10  18  38  60  85 120 168 209 274 338 382
#     4  11  23  40  58  90 120 169 212 273 326 392
#     4  12  24  42  64  87 128 170 223 270 332 392
#
# _framework density 24.102126999999999
#
# number of rings (size 3 to 8) (size 9 to 14) (size 15 to 20)
#    0.000    2.000    3.750    1.500   12.250    0.000 
#    0.000    0.000    0.000    0.000    0.000    0.000 
#    7.500    0.000    0.000    0.000    0.000    0.000 
#
# Total GULP energy -89386.009281 kJ/mol
# GULP energy per Si atom -5586.625580 kJ/mol
# Density = 2.404727 g / cm^3
# Si number density = 24.102127 Si / 1000 Ang^3
#
#
#
# Elastic Constant Matrix: (Units=GPa)
#
#
# Indices 1 2 3 4 5 6 
#
# 1 95.0153 43.7864 20.6715 0.0000 0.0000 0.0000
# 2 43.7864 231.4733 107.0368 0.0000 0.0000 0.0000
# 3 20.6715 107.0368 134.7355 0.0000 0.0000 0.0000
# 4 0.0000 0.0000 0.0000 33.7475 0.0000 0.0000
# 5 0.0000 0.0000 0.0000 0.0000 25.3471 0.0000
# 6 0.0000 0.0000 0.0000 0.0000 0.0000 -17.3047
#
#
#
# Elastic Compliance Matrix: (Units=1/GPa)
#
#
# Indices 1 2 3 4 5 6 
#
# 1 0.011530 -0.002155 -0.000057 0.000000 0.000000 0.000000
# 2 -0.002155 0.007231 -0.005414 0.000000 0.000000 0.000000
# 3 -0.000057 -0.005414 0.011732 0.000000 0.000000 0.000000
# 4 0.000000 0.000000 0.000000 0.029632 0.000000 0.000000
# 5 0.000000 0.000000 0.000000 0.000000 0.039452 0.000000
# 6 0.000000 0.000000 0.000000 0.000000 0.000000 -0.057788
#
#
# Mechanical properties :
#
#
# Convention : Reuss Voigt Hill
#
# Bulk Modulus (GPa) = 65.61216 89.35707 77.48462
# Shear Modulus (GPa) = 80.48681 27.67327 54.08004
#
# Velocity S-wave (km/s) = 5.78503 3.39214 4.74200
# Velocity P-wave (km/s) = 8.47961 7.24548 7.88672
#
# Compressibility (1/GPa) = 0.01524108
#
# Stress axis : x y z
#
# Youngs Moduli (GPa) = 86.73040 138.28773 85.23794
#
# Poissons Ratio (x) = 0.29795 0.00489
# Poissons Ratio (y) = 0.18686 0.46149
# Poissons Ratio (z) = 0.00497 0.74871
#
# Static dielectric constant tensor:
#      x y z
#    x 1.942700 0.000000 0.000000 
#    y 0.000000 1.882780 0.000000 
#    z 0.000000 0.000000 2.169160 
# 
# From -- ./inp_files/580.got.cif
#   From: 2010.05.17/outbox.cif.g08.bks.cpg/sg20_1_cif.got.tgz:580.got - 2010.06.03 22:52:26.
