data_PCOD9316287
_publ_section_title
;
Structure prediction by ZEFSAII (Michael W. Deem and Ramdas Pophale) SiO2 
 PCOD9316287
Probable space group: C 2 2 21
;
_chemical_formula_sum "Si O2"
_cell_formula_units_Z 60
_cell_length_a 18.743955
_cell_length_b 23.492527
_cell_length_c 5.660687
_cell_angle_alpha 90.000000
_cell_angle_beta 90.000000
_cell_angle_gamma 90.000000
_cell_volume 2492.643154
_symmetry_space_group_name_H-M "C 2 2 21"
_symmetry_group_IT_number 20
_symmetry_cell_setting 'orthorhombic'
loop_
_space_group_symop_operation_xyz
x,y,z
-x,-y,1/2+z
x,-y,-z
-x,y,1/2-z
1/2+x,1/2+y,z
1/2-x,1/2-y,1/2+z
1/2+x,1/2-y,-z
1/2-x,1/2+y,1/2-z
loop_
_atom_site_type_symbol
_atom_site_label
_atom_site_fract_x
_atom_site_fract_y
_atom_site_fract_z
Si Si1 0.205614 0.545064 0.174082
Si Si2 0.258293 0.169433 0.961035
Si Si3 0.087597 0.500000 0.500000
Si Si4 0.734463 0.701376 0.462797
Si Si5 0.360200 0.435749 0.725557
Si Si6 0.084837 0.373543 0.445354
Si Si7 0.116629 0.343395 0.945732
Si Si8 0.914979 0.066327 0.763816
O O1 0.140949 0.510094 0.285262
O O2 0.275295 0.559789 0.322614
O O3 0.166153 0.599300 0.063387
O O4 0.240280 0.500000 0.000000
O O5 0.291923 0.234081 0.962089
O O6 0.218821 0.169559 0.708976
O O7 0.326692 0.127113 0.951575
O O8 0.217490 0.172029 0.212375
O O9 0.053086 0.437860 0.466237
O O10 0.821935 0.703847 0.458627
O O11 0.391553 0.500034 0.743495
O O12 0.389616 0.407572 0.486199
O O13 0.383642 0.412043 0.983916
O O14 0.074504 0.343216 0.698516
O O15 0.072093 0.347504 0.186192
O O16 0.000000 0.069409 0.750000
#
# Coordination Sequence:
#
# PCOD9316287 Si02
#       8
#     8   8   4   8   8   8   8   8
#     4  11  18  25  32  42  59  74  88 102 122 155
#     4   8  13  21  32  42  52  63  82 106 127 144
#     4  10  18  24  32  40  60  74  92 102 124 152
#     4   8  13  22  32  42  52  64  81 105 126 144
#     4  10  18  24  34  44  53  66  81 100 124 145
#     4   9  16  23  31  42  53  70  88 104 124 147
#     4   9  17  24  32  42  54  70  87 101 122 149
#     4  10  17  27  36  44  52  63  82 104 124 144
#
# _framework density 24.070834000000001
#
# number of rings (size 3 to 8) (size 9 to 14) (size 15 to 20)
#    0.000    2.667    2.667    2.800    0.000    0.000 
#    0.000    0.000    0.000    0.000    0.000    0.000 
#    0.000    0.000    0.000    0.000    0.000    0.000 
#
# Total GULP energy -167051.715042 kJ/mol
# GULP energy per Si atom -5568.390501 kJ/mol
# Density = 2.401605 g / cm^3
# Si number density = 24.070834 Si / 1000 Ang^3
#
#
#
# Elastic Constant Matrix: (Units=GPa)
#
#
# Indices 1 2 3 4 5 6 
#
# 1 72.6180 -5.5368 34.5219 0.0000 0.0000 0.0000
# 2 -5.5368 41.4232 5.2765 0.0000 0.0000 0.0000
# 3 34.5219 5.2765 253.0529 0.0000 0.0000 0.0000
# 4 0.0000 0.0000 0.0000 33.6160 0.0000 0.0000
# 5 0.0000 0.0000 0.0000 0.0000 -10.3893 0.0000
# 6 0.0000 0.0000 0.0000 0.0000 0.0000 1.8368
#
#
#
# Elastic Compliance Matrix: (Units=1/GPa)
#
#
# Indices 1 2 3 4 5 6 
#
# 1 0.014934 0.002262 -0.002084 0.000000 0.000000 0.000000
# 2 0.002262 0.024548 -0.000820 0.000000 0.000000 0.000000
# 3 -0.002084 -0.000820 0.004253 0.000000 0.000000 0.000000
# 4 0.000000 0.000000 0.000000 0.029748 0.000000 0.000000
# 5 0.000000 0.000000 0.000000 0.000000 -0.096253 0.000000
# 6 0.000000 0.000000 0.000000 0.000000 0.000000 0.544430
#
#
# Mechanical properties :
#
#
# Convention : Reuss Voigt Hill
#
# Bulk Modulus (GPa) = 23.55783 48.40191 35.97987
# Shear Modulus (GPa) = 9.30933 27.20153 18.25543
#
# Velocity S-wave (km/s) = 1.96872 3.36529 2.75690
# Velocity P-wave (km/s) = 3.86988 5.93734 5.01138
#
# Compressibility (1/GPa) = 0.04244872
#
# Stress axis : x y z
#
# Youngs Moduli (GPa) = 66.96091 40.73677 235.11608
#
# Poissons Ratio (x) = -0.09213 0.49010
# Poissons Ratio (y) = -0.15144 0.19289
# Poissons Ratio (z) = 0.13958 0.03342
#
# Static dielectric constant tensor:
#      x y z
#    x 1.882740 0.000000 0.000000 
#    y 0.000000 2.004640 0.000000 
#    z 0.000000 0.000000 2.151620 
# 
# From -- ./inp_files/3444.got.cif
#   From: 2010.05.17/outbox.cif.g08.bks.cpg/sg20_2_cif.got.tgz:3444.got - 2010.06.03 22:52:26.
