data_PCOD9316872
_publ_section_title
;
Structure prediction by ZEFSAII (Michael W. Deem and Ramdas Pophale) SiO2 
 PCOD9316872
Probable space group: C 2 2 21
;
_chemical_formula_sum "Si O2"
_cell_formula_units_Z 48
_cell_length_a 14.319924
_cell_length_b 9.222433
_cell_length_c 16.754009
_cell_angle_alpha 90.000000
_cell_angle_beta 90.000000
_cell_angle_gamma 90.000000
_cell_volume 2212.610486
_symmetry_space_group_name_H-M "C 2 2 21"
_symmetry_group_IT_number 20
_symmetry_cell_setting 'orthorhombic'
loop_
_space_group_symop_operation_xyz
x,y,z
-x,-y,1/2+z
x,-y,-z
-x,y,1/2-z
1/2+x,1/2+y,z
1/2-x,1/2-y,1/2+z
1/2+x,1/2-y,-z
1/2-x,1/2+y,1/2-z
loop_
_atom_site_type_symbol
_atom_site_label
_atom_site_fract_x
_atom_site_fract_y
_atom_site_fract_z
Si Si1 0.403169 0.056582 0.410505
Si Si2 0.305618 0.334598 0.440228
Si Si3 0.556916 0.764457 0.669215
Si Si4 0.932117 0.740148 0.675101
Si Si5 0.494758 0.495824 0.916633
Si Si6 0.752238 0.885573 0.625213
O O1 0.322035 0.176910 0.403804
O O2 0.498995 0.143646 0.395771
O O3 0.400115 0.000000 0.500000
O O4 0.401398 0.918680 0.352975
O O5 0.406168 0.419002 0.432122
O O6 0.274235 0.329770 0.533441
O O7 0.241200 0.442144 0.389199
O O8 0.500000 0.789824 0.750000
O O9 0.553418 0.593990 0.649504
O O10 0.661276 0.819177 0.664291
O O11 0.839582 0.839425 0.679978
O O12 0.000000 0.731892 0.750000
O O13 0.988460 0.831229 0.608130
O O14 0.441417 0.500000 0.000000
#
# Coordination Sequence:
#
# PCOD9316872 Si02
#       6
#     8   8   8   8   8   8
#     4  11  21  40  67  96 135 183 230 290 351 413
#     4   9  18  39  72  95 124 171 237 299 341 399
#     4  11  25  42  65 100 146 185 228 285 360 426
#     4  11  21  39  68  99 138 179 225 287 355 421
#     4  10  18  42  68  95 128 185 230 281 348 407
#     4  10  20  42  68  99 133 179 237 287 355 421
#
# _framework density 21.693832
#
# number of rings (size 3 to 8) (size 9 to 14) (size 15 to 20)
#    0.000    1.667    5.000    2.000    2.333    0.000 
#    3.000   14.167    0.000    0.000    0.000    0.000 
#    0.000    0.000    0.000    0.000    0.000    0.000 
#
# Total GULP energy -133918.559837 kJ/mol
# GULP energy per Si atom -5579.939993 kJ/mol
# Density = 2.164446 g / cm^3
# Si number density = 21.693832 Si / 1000 Ang^3
#
#
#
# Elastic Constant Matrix: (Units=GPa)
#
#
# Indices 1 2 3 4 5 6 
#
# 1 77.7151 26.2761 45.4416 0.0000 0.0000 0.0000
# 2 26.2761 140.3080 46.4956 0.0000 0.0000 0.0000
# 3 45.4416 46.4956 77.1855 0.0000 0.0000 0.0000
# 4 0.0000 0.0000 0.0000 20.1915 0.0000 0.0000
# 5 0.0000 0.0000 0.0000 0.0000 17.8331 0.0000
# 6 0.0000 0.0000 0.0000 0.0000 0.0000 25.0395
#
#
#
# Elastic Compliance Matrix: (Units=1/GPa)
#
#
# Indices 1 2 3 4 5 6 
#
# 1 0.019627 0.000192 -0.011670 0.000000 0.000000 0.000000
# 2 0.000192 0.008907 -0.005478 0.000000 0.000000 0.000000
# 3 -0.011670 -0.005478 0.023126 0.000000 0.000000 0.000000
# 4 0.000000 0.000000 0.000000 0.049526 0.000000 0.000000
# 5 0.000000 0.000000 0.000000 0.000000 0.056075 0.000000
# 6 0.000000 0.000000 0.000000 0.000000 0.000000 0.039937
#
#
# Mechanical properties :
#
#
# Convention : Reuss Voigt Hill
#
# Bulk Modulus (GPa) = 56.34985 59.07057 57.71021
# Shear Modulus (GPa) = 21.09469 24.41250 22.75359
#
# Velocity S-wave (km/s) = 3.12169 3.35822 3.24211
# Velocity P-wave (km/s) = 6.24697 6.50578 6.37769
#
# Compressibility (1/GPa) = 0.01774628
#
# Stress axis : x y z
#
# Youngs Moduli (GPa) = 50.95145 112.27597 43.24052
#
# Poissons Ratio (x) = -0.02153 0.50463
# Poissons Ratio (y) = -0.00977 0.23688
# Poissons Ratio (z) = 0.59462 0.61506
#
# Static dielectric constant tensor:
#      x y z
#    x 1.802150 0.000000 0.000000 
#    y 0.000000 1.832050 0.000000 
#    z 0.000000 0.000000 1.825090 
# 
# From -- ./inp_files/24788.got.cif
#   From: 2010.05.17/outbox.cif.g08.bks.cpg/sg20_13_cif.got.tgz:24788.got - 2010.06.03 22:52:26.
