data_PCOD9316093
_publ_section_title
;
Structure prediction by ZEFSAII (Michael W. Deem and Ramdas Pophale) SiO2 
 PCOD9316093
Probable space group: P 21 21 21
;
_chemical_formula_sum "Si O2"
_cell_formula_units_Z 24
_cell_length_a 4.982546
_cell_length_b 7.029237
_cell_length_c 25.202516
_cell_angle_alpha 90.000000
_cell_angle_beta 90.000000
_cell_angle_gamma 90.000000
_cell_volume 882.680236
_symmetry_space_group_name_H-M "P 21 21 21"
_symmetry_group_IT_number 19
_symmetry_cell_setting 'orthorhombic'
loop_
_space_group_symop_operation_xyz
x,y,z
1/2-x,-y,1/2+z
1/2+x,1/2-y,-z
-x,1/2+y,1/2-z
loop_
_atom_site_type_symbol
_atom_site_label
_atom_site_fract_x
_atom_site_fract_y
_atom_site_fract_z
Si Si1 0.894240 0.339898 0.450805
Si Si2 0.120434 0.420832 0.911822
Si Si3 0.524463 0.641771 0.771206
Si Si4 0.734751 0.504634 0.059833
Si Si5 0.107509 0.999139 0.333722
Si Si6 0.288380 0.218127 0.181951
O O1 0.123300 0.447007 0.417452
O O2 0.976652 0.116987 0.445004
O O3 0.624536 0.450189 0.433560
O O4 0.926704 0.395586 0.512822
O O5 0.032991 0.360620 0.852283
O O6 0.615106 0.144333 0.856474
O O7 0.187400 0.222958 0.943079
O O8 0.709340 0.610562 0.718823
O O9 0.242887 0.671589 0.739281
O O10 0.598365 0.460379 0.804661
O O11 0.540746 0.819424 0.809549
O O12 0.676437 0.546713 0.122124
#
# Coordination Sequence:
#
# PCOD9316093 Si02
#       6
#     4   4   4   4   4   4
#     4  12  29  50  77 122 168 219 298 369 429 533
#     4  12  27  49  81 118 166 225 288 360 442 527
#     4   8  17  37  73 113 167 205 282 350 427 532
#     4  12  27  49  80 119 167 230 288 363 447 524
#     4   9  18  38  75 111 159 214 273 350 433 518
#     4   9  18  37  72 111 157 211 273 342 432 512
#
# _framework density 27.189917000000001
#
# number of rings (size 3 to 8) (size 9 to 14) (size 15 to 20)
#    1.000    0.667    0.000    4.000    0.000    8.000 
#    0.000    0.000   36.667    0.000    0.000    0.000 
#    0.000    0.000    0.000    0.000    0.000    0.000 
#
# Total GULP energy -133759.481667 kJ/mol
# GULP energy per Si atom -5573.311736 kJ/mol
# Density = 2.712803 g / cm^3
# Si number density = 27.189917 Si / 1000 Ang^3
#
#
#
# Elastic Constant Matrix: (Units=GPa)
#
#
# Indices 1 2 3 4 5 6 
#
# 1 83.4981 34.9018 47.8168 0.0000 0.0000 0.0000
# 2 34.9018 147.8666 44.9511 0.0000 0.0000 0.0000
# 3 47.8168 44.9511 155.9639 0.0000 0.0000 0.0000
# 4 0.0000 0.0000 0.0000 54.4152 0.0000 0.0000
# 5 0.0000 0.0000 0.0000 0.0000 48.6399 0.0000
# 6 0.0000 0.0000 0.0000 0.0000 0.0000 35.5546
#
#
#
# Elastic Compliance Matrix: (Units=1/GPa)
#
#
# Indices 1 2 3 4 5 6 
#
# 1 0.015260 -0.002389 -0.003990 0.000000 0.000000 0.000000
# 2 -0.002389 0.007786 -0.001512 0.000000 0.000000 0.000000
# 3 -0.003990 -0.001512 0.008071 0.000000 0.000000 0.000000
# 4 0.000000 0.000000 0.000000 0.018377 0.000000 0.000000
# 5 0.000000 0.000000 0.000000 0.000000 0.020559 0.000000
# 6 0.000000 0.000000 0.000000 0.000000 0.000000 0.028126
#
#
# Mechanical properties :
#
#
# Convention : Reuss Voigt Hill
#
# Bulk Modulus (GPa) = 65.20767 71.40756 68.30761
# Shear Modulus (GPa) = 41.99138 45.03253 43.51195
#
# Velocity S-wave (km/s) = 3.93411 4.07409 4.00471
# Velocity P-wave (km/s) = 6.68361 6.96063 6.82353
#
# Compressibility (1/GPa) = 0.01533562
#
# Stress axis : x y z
#
# Youngs Moduli (GPa) = 65.53168 128.43109 123.90481
#
# Poissons Ratio (x) = 0.30681 0.49438
# Poissons Ratio (y) = 0.15655 0.18731
# Poissons Ratio (z) = 0.26147 0.19415
#
# Static dielectric constant tensor:
#      x y z
#    x 2.226910 0.000000 0.000000 
#    y 0.000000 2.168630 0.000000 
#    z 0.000000 0.000000 2.231180 
# 
# From -- ./inp_files/7351.got.cif
#   From: 2010.05.17/outbox.cif.g08.bks.cpg/sg19_4_cif.got.tgz:7351.got - 2010.06.03 22:46:19.
