data_PCOD9316455
_publ_section_title
;
Structure prediction by ZEFSAII (Michael W. Deem and Ramdas Pophale) SiO2 
 PCOD9316455
Probable space group: C 2 2 21
;
_chemical_formula_sum "Si O2"
_cell_formula_units_Z 52
_cell_length_a 19.270481
_cell_length_b 18.034630
_cell_length_c 5.597896
_cell_angle_alpha 90.000000
_cell_angle_beta 90.000000
_cell_angle_gamma 90.000000
_cell_volume 1945.470355
_symmetry_space_group_name_H-M "C 2 2 21"
_symmetry_group_IT_number 20
_symmetry_cell_setting 'orthorhombic'
loop_
_space_group_symop_operation_xyz
x,y,z
-x,-y,1/2+z
x,-y,-z
-x,y,1/2-z
1/2+x,1/2+y,z
1/2-x,1/2-y,1/2+z
1/2+x,1/2-y,-z
1/2-x,1/2+y,1/2-z
loop_
_atom_site_type_symbol
_atom_site_label
_atom_site_fract_x
_atom_site_fract_y
_atom_site_fract_z
Si Si1 0.914758 0.839397 0.993833
Si Si2 0.455977 0.500000 0.000000
Si Si3 0.249048 0.334699 0.656681
Si Si4 0.609567 0.922295 0.594173
Si Si5 0.576186 0.885029 0.099130
Si Si6 0.239408 0.344710 0.160158
Si Si7 0.570779 0.282515 0.007502
O O1 0.891959 0.806117 0.738590
O O2 0.909992 0.926764 0.010245
O O3 0.893212 0.798382 0.238625
O O4 0.998463 0.825833 0.000820
O O5 0.500000 0.502769 0.250000
O O6 0.167029 0.358517 0.637199
O O7 0.273771 0.368708 0.407193
O O8 0.258868 0.245656 0.654154
O O9 0.272333 0.367027 0.909434
O O10 0.556665 0.903680 0.376718
O O11 0.641166 0.000000 0.500000
O O12 0.574862 0.932711 0.854497
O O13 0.660426 0.873596 0.146995
O O14 0.553232 0.803350 0.018928
#
# Coordination Sequence:
#
# PCOD9316455 Si02
#       7
#     8   4   8   8   8   8   8
#     4  10  19  30  48  72  94 121 160 185 222 276
#     4  12  16  30  48  74  98 118 148 196 216 268
#     4   8  14  25  42  62  87 111 139 181 222 268
#     4  10  19  31  46  69  91 120 156 195 240 285
#     4  10  19  30  47  69  97 118 152 198 242 273
#     4   8  14  25  41  64  88 109 141 177 225 271
#     4  10  18  30  44  69  97 122 152 194 231 264
#
# _framework density 26.728755
#
# number of rings (size 3 to 8) (size 9 to 14) (size 15 to 20)
#    0.000    2.462    3.077    1.385    0.000    0.000 
#    0.000    0.000    0.000    0.000    6.000   43.077 
#    0.000    0.000    0.000    0.000    0.000    0.000 
#
# Total GULP energy -145210.511895 kJ/mol
# GULP energy per Si atom -5585.019688 kJ/mol
# Density = 2.666792 g / cm^3
# Si number density = 26.728755 Si / 1000 Ang^3
#
#
#
# Elastic Constant Matrix: (Units=GPa)
#
#
# Indices 1 2 3 4 5 6 
#
# 1 22.4452 -2.3043 6.9304 0.0000 0.0000 0.0000
# 2 -2.3043 103.8472 31.9614 0.0000 0.0000 0.0000
# 3 6.9304 31.9614 345.4353 0.0000 0.0000 0.0000
# 4 0.0000 0.0000 0.0000 40.3912 0.0000 0.0000
# 5 0.0000 0.0000 0.0000 0.0000 8.5498 0.0000
# 6 0.0000 0.0000 0.0000 0.0000 0.0000 34.8621
#
#
#
# Elastic Compliance Matrix: (Units=1/GPa)
#
#
# Indices 1 2 3 4 5 6 
#
# 1 0.045004 0.001314 -0.001024 0.000000 0.000000 0.000000
# 2 0.001314 0.009950 -0.000947 0.000000 0.000000 0.000000
# 3 -0.001024 -0.000947 0.003003 0.000000 0.000000 0.000000
# 4 0.000000 0.000000 0.000000 0.024758 0.000000 0.000000
# 5 0.000000 0.000000 0.000000 0.000000 0.116961 0.000000
# 6 0.000000 0.000000 0.000000 0.000000 0.000000 0.028684
#
#
# Mechanical properties :
#
#
# Convention : Reuss Voigt Hill
#
# Bulk Modulus (GPa) = 17.65465 60.54474 39.09970
# Shear Modulus (GPa) = 20.11611 45.76997 32.94304
#
# Velocity S-wave (km/s) = 2.74634 4.14259 3.51450
# Velocity P-wave (km/s) = 4.08362 6.75145 5.57934
#
# Compressibility (1/GPa) = 0.05664230
#
# Stress axis : x y z
#
# Youngs Moduli (GPa) = 22.22014 100.50104 332.99220
#
# Poissons Ratio (x) = -0.13205 0.34114
# Poissons Ratio (y) = -0.02920 0.31534
# Poissons Ratio (z) = 0.02276 0.09517
#
# Static dielectric constant tensor:
#      x y z
#    x 2.279760 0.000000 0.000000 
#    y 0.000000 2.005940 0.000000 
#    z 0.000000 0.000000 2.223050 
# 
# From -- ./inp_files/4758.got.cif
#   From: 2010.05.17/outbox.cif.g08.bks.cpg/sg20_3_cif.got.tgz:4758.got - 2010.06.03 22:52:26.
