data_PCOD9316012
_publ_section_title
;
Structure prediction by ZEFSAII (Michael W. Deem and Ramdas Pophale) SiO2 
 PCOD9316012
Probable space group: P 21 21 21
;
_chemical_formula_sum "Si O2"
_cell_formula_units_Z 28
_cell_length_a 23.388390
_cell_length_b 5.032325
_cell_length_c 9.338375
_cell_angle_alpha 90.000000
_cell_angle_beta 90.000000
_cell_angle_gamma 90.000000
_cell_volume 1099.107871
_symmetry_space_group_name_H-M "P 21 21 21"
_symmetry_group_IT_number 19
_symmetry_cell_setting 'orthorhombic'
loop_
_space_group_symop_operation_xyz
x,y,z
1/2-x,-y,1/2+z
1/2+x,1/2-y,-z
-x,1/2+y,1/2-z
loop_
_atom_site_type_symbol
_atom_site_label
_atom_site_fract_x
_atom_site_fract_y
_atom_site_fract_z
Si Si1 0.583563 0.260178 0.088702
Si Si2 0.611104 0.028359 0.545655
Si Si3 0.290283 0.727268 0.514843
Si Si4 0.718819 0.932694 0.699752
Si Si5 0.803239 0.573596 0.882429
Si Si6 0.466773 0.824996 0.725785
Si Si7 0.091865 0.761289 0.723500
O O1 0.563823 0.477770 0.205850
O O2 0.583509 0.973216 0.162786
O O3 0.649886 0.314422 0.048193
O O4 0.552887 0.275907 0.936463
O O5 0.656685 0.859389 0.637547
O O6 0.575075 0.851973 0.433058
O O7 0.650853 0.223413 0.449231
O O8 0.575370 0.206653 0.654462
O O9 0.262008 0.483393 0.427372
O O10 0.295591 0.649712 0.680165
O O11 0.238487 0.932237 0.506675
O O12 0.759314 0.721950 0.778736
O O13 0.842266 0.348518 0.806560
O O14 0.522111 0.636330 0.749936
#
# Coordination Sequence:
#
# PCOD9316012 Si02
#       7
#     4   4   4   4   4   4   4
#     4  12  27  50  80 114 160 206 265 339 394 476
#     4  12  27  50  78 114 163 218 266 334 400 485
#     4  12  25  38  67 108 160 206 262 300 390 476
#     4  12  24  41  64 113 158 210 255 304 383 489
#     4  12  25  40  72 111 161 212 257 303 388 491
#     4  12  31  58  88 118 151 206 282 357 421 471
#     4  12  25  49  75 112 163 206 257 313 398 478
#
# _framework density 25.475204000000002
#
# number of rings (size 3 to 8) (size 9 to 14) (size 15 to 20)
#    0.000    0.000    7.143    1.714    6.000    2.286 
#    0.000    2.857    0.000    0.000    0.000    0.000 
#    0.000    0.000    0.000    0.000    0.000    0.000 
#
# Total GULP energy -156708.061684 kJ/mol
# GULP energy per Si atom -5596.716489 kJ/mol
# Density = 2.541722 g / cm^3
# Si number density = 25.475204 Si / 1000 Ang^3
#
#
#
# Elastic Constant Matrix: (Units=GPa)
#
#
# Indices 1 2 3 4 5 6 
#
# 1 24.0064 -14.7771 23.7664 0.0000 0.0000 0.0000
# 2 -14.7771 95.7880 19.9964 0.0000 0.0000 0.0000
# 3 23.7664 19.9964 133.5633 0.0000 0.0000 0.0000
# 4 0.0000 0.0000 0.0000 43.2841 0.0000 0.0000
# 5 0.0000 0.0000 0.0000 0.0000 53.3003 0.0000
# 6 0.0000 0.0000 0.0000 0.0000 0.0000 22.1434
#
#
#
# Elastic Compliance Matrix: (Units=1/GPa)
#
#
# Indices 1 2 3 4 5 6 
#
# 1 0.061903 0.012231 -0.012846 0.000000 0.000000 0.000000
# 2 0.012231 0.013193 -0.004152 0.000000 0.000000 0.000000
# 3 -0.012846 -0.004152 0.010395 0.000000 0.000000 0.000000
# 4 0.000000 0.000000 0.000000 0.023103 0.000000 0.000000
# 5 0.000000 0.000000 0.000000 0.000000 0.018762 0.000000
# 6 0.000000 0.000000 0.000000 0.000000 0.000000 0.045160
#
#
# Mechanical properties :
#
#
# Convention : Reuss Voigt Hill
#
# Bulk Modulus (GPa) = 13.16529 34.59211 23.87870
# Shear Modulus (GPa) = 24.11177 38.70368 31.40773
#
# Velocity S-wave (km/s) = 3.07983 3.90201 3.51504
# Velocity P-wave (km/s) = 4.22211 5.82315 5.08603
#
# Compressibility (1/GPa) = 0.07595731
#
# Stress axis : x y z
#
# Youngs Moduli (GPa) = 16.15442 75.79577 96.20434
#
# Poissons Ratio (x) = -0.92709 1.23586
# Poissons Ratio (y) = -0.19759 0.39941
# Poissons Ratio (z) = 0.20752 0.31468
#
# Static dielectric constant tensor:
#      x y z
#    x 2.001690 0.000000 0.000000 
#    y 0.000000 2.059280 0.000000 
#    z 0.000000 0.000000 2.173930 
# 
# From -- ./inp_files/4354.got.cif
#   From: 2010.05.17/outbox.cif.g08.bks.cpg/sg19_3_cif.got.tgz:4354.got - 2010.06.03 22:46:19.
