data_PCOD9316832
_publ_section_title
;
Structure prediction by ZEFSAII (Michael W. Deem and Ramdas Pophale) SiO2 
 PCOD9316832
Probable space group: C 2 2 21
;
_chemical_formula_sum "Si O2"
_cell_formula_units_Z 64
_cell_length_a 15.953267
_cell_length_b 17.200186
_cell_length_c 12.102257
_cell_angle_alpha 90.000000
_cell_angle_beta 90.000000
_cell_angle_gamma 90.000000
_cell_volume 3320.849151
_symmetry_space_group_name_H-M "C 2 2 21"
_symmetry_group_IT_number 20
_symmetry_cell_setting 'orthorhombic'
loop_
_space_group_symop_operation_xyz
x,y,z
-x,-y,1/2+z
x,-y,-z
-x,y,1/2-z
1/2+x,1/2+y,z
1/2-x,1/2-y,1/2+z
1/2+x,1/2-y,-z
1/2-x,1/2+y,1/2-z
loop_
_atom_site_type_symbol
_atom_site_label
_atom_site_fract_x
_atom_site_fract_y
_atom_site_fract_z
Si Si1 0.802325 0.788837 0.342605
Si Si2 0.596427 0.486866 0.728015
Si Si3 0.739225 0.455600 0.113825
Si Si4 0.022312 0.560753 0.410512
Si Si5 0.131277 0.147464 0.611481
Si Si6 0.217022 0.867492 0.616488
Si Si7 0.361617 0.030985 0.280657
Si Si8 0.014692 0.731615 0.116976
O O1 0.768763 0.864111 0.405914
O O2 0.824525 0.815881 0.218702
O O3 0.737640 0.718405 0.341671
O O4 0.890426 0.761102 0.394711
O O5 0.500000 0.471144 0.750000
O O6 0.651883 0.511942 0.834479
O O7 0.600711 0.562016 0.647725
O O8 0.641212 0.412617 0.674773
O O9 0.806734 0.468458 0.213199
O O10 0.756832 0.500000 0.000000
O O11 0.054277 0.500000 0.500000
O O12 0.942430 0.515422 0.356610
O O13 0.994976 0.647880 0.441429
O O14 0.094374 0.576306 0.320221
O O15 0.195507 0.138074 0.511864
O O16 0.053537 0.204038 0.581391
O O17 0.297899 0.919091 0.646949
O O18 0.000000 0.721690 0.250000
#
# Coordination Sequence:
#
# PCOD9316832 Si02
#       8
#     8   8   8   8   8   8   8   8
#     4  10  21  39  58  93 124 163 213 271 314 381
#     4  10  22  40  61  91 126 164 209 271 319 388
#     4  10  22  38  63  86 121 170 215 262 319 392
#     4  11  21  36  66  91 121 166 212 266 324 391
#     4  10  21  37  66  90 121 166 221 260 314 393
#     4  11  22  38  64  94 130 170 207 264 331 383
#     4  10  21  40  58  90 124 161 208 264 320 381
#     4  10  18  39  63  87 122 161 213 266 317 377
#
# _framework density 19.272179000000001
#
# number of rings (size 3 to 8) (size 9 to 14) (size 15 to 20)
#    0.000    1.750    2.500    3.375    0.000    9.000 
#    0.000    0.000    2.750    0.000    0.000    0.000 
#    0.000    0.000    0.000    0.000    0.000    0.000 
#
# Total GULP energy -178465.345079 kJ/mol
# GULP energy per Si atom -5577.042034 kJ/mol
# Density = 1.922831 g / cm^3
# Si number density = 19.272179 Si / 1000 Ang^3
#
#
#
# Elastic Constant Matrix: (Units=GPa)
#
#
# Indices 1 2 3 4 5 6 
#
# 1 114.7954 43.2515 31.3517 0.0000 0.0000 0.0000
# 2 43.2515 112.2684 29.5686 0.0000 0.0000 0.0000
# 3 31.3517 29.5686 57.9790 0.0000 0.0000 0.0000
# 4 0.0000 0.0000 0.0000 17.4529 0.0000 0.0000
# 5 0.0000 0.0000 0.0000 0.0000 18.5963 0.0000
# 6 0.0000 0.0000 0.0000 0.0000 0.0000 18.8808
#
#
#
# Elastic Compliance Matrix: (Units=1/GPa)
#
#
# Indices 1 2 3 4 5 6 
#
# 1 0.011087 -0.003110 -0.004409 0.000000 0.000000 0.000000
# 2 -0.003110 0.011162 -0.004011 0.000000 0.000000 0.000000
# 3 -0.004409 -0.004011 0.021677 0.000000 0.000000 0.000000
# 4 0.000000 0.000000 0.000000 0.057297 0.000000 0.000000
# 5 0.000000 0.000000 0.000000 0.000000 0.053774 0.000000
# 6 0.000000 0.000000 0.000000 0.000000 0.000000 0.052964
#
#
# Mechanical properties :
#
#
# Convention : Reuss Voigt Hill
#
# Bulk Modulus (GPa) = 47.92406 54.82072 51.37239
# Shear Modulus (GPa) = 21.01052 23.04408 22.02730
#
# Velocity S-wave (km/s) = 3.30540 3.46167 3.38443
# Velocity P-wave (km/s) = 6.28399 6.66969 6.47971
#
# Compressibility (1/GPa) = 0.02086635
#
# Stress axis : x y z
#
# Youngs Moduli (GPa) = 90.19480 89.59250 46.13143
#
# Poissons Ratio (x) = 0.27864 0.20340
# Poissons Ratio (y) = 0.28051 0.18501
# Poissons Ratio (z) = 0.39769 0.35932
#
# Static dielectric constant tensor:
#      x y z
#    x 1.697940 0.000000 0.000000 
#    y 0.000000 1.677330 0.000000 
#    z 0.000000 0.000000 1.683260 
# 
# From -- ./inp_files/15332.got.cif
#   From: 2010.05.17/outbox.cif.g08.bks.cpg/sg20_8_cif.got.tgz:15332.got - 2010.06.03 22:52:26.
