data_PCOD9316721
_publ_section_title
;
Structure prediction by ZEFSAII (Michael W. Deem and Ramdas Pophale) SiO2 
 PCOD9316721
Probable space group: C 2 2 21
;
_chemical_formula_sum "Si O2"
_cell_formula_units_Z 48
_cell_length_a 26.292794
_cell_length_b 11.614075
_cell_length_c 7.786514
_cell_angle_alpha 90.000000
_cell_angle_beta 90.000000
_cell_angle_gamma 90.000000
_cell_volume 2377.740383
_symmetry_space_group_name_H-M "C 2 2 21"
_symmetry_group_IT_number 20
_symmetry_cell_setting 'orthorhombic'
loop_
_space_group_symop_operation_xyz
x,y,z
-x,-y,1/2+z
x,-y,-z
-x,y,1/2-z
1/2+x,1/2+y,z
1/2-x,1/2-y,1/2+z
1/2+x,1/2-y,-z
1/2-x,1/2+y,1/2-z
loop_
_atom_site_type_symbol
_atom_site_label
_atom_site_fract_x
_atom_site_fract_y
_atom_site_fract_z
Si Si1 0.500000 0.473281 0.250000
Si Si2 0.559206 0.689055 0.125942
Si Si3 0.364072 0.864908 0.970710
Si Si4 0.713892 0.000000 0.000000
Si Si5 0.538682 0.729544 0.526985
Si Si6 0.333229 0.774719 0.348963
Si Si7 0.243506 0.407053 0.653536
O O1 0.537281 0.560023 0.147876
O O2 0.465422 0.390069 0.131390
O O3 0.552892 0.726735 0.324755
O O4 0.617275 0.708700 0.080082
O O5 0.521641 0.757101 0.995397
O O6 0.345439 0.809638 0.151499
O O7 0.415732 0.806783 0.901668
O O8 0.314015 0.857945 0.853398
O O9 0.374590 0.000000 0.000000
O O10 0.747981 0.030682 0.164016
O O11 0.679346 0.892191 0.053355
O O12 0.284690 0.692429 0.361629
O O13 0.247763 0.500000 0.500000
#
# Coordination Sequence:
#
# PCOD9316721 Si02
#       7
#     4   8   8   4   8   8   8
#     4  10  18  36  58  94 130 160 214 278 332 406
#     4   9  19  38  59  87 131 164 208 270 328 390
#     4  10  20  44  63  88 135 174 217 283 330 393
#     4  12  24  42  70  96 132 184 224 270 336 406
#     4   9  19  35  61  87 124 173 210 266 333 389
#     4  11  23  43  68  95 133 179 220 281 341 396
#     4  11  24  45  67  98 139 171 226 285 332 405
#
# _framework density 20.187235000000001
#
# number of rings (size 3 to 8) (size 9 to 14) (size 15 to 20)
#    0.000    2.000    3.333    3.000    0.000    2.667 
#   10.500    1.667    0.000    0.000    0.000    0.000 
#    0.000    0.000    0.000    0.000    0.000    0.000 
#
# Total GULP energy -133635.629764 kJ/mol
# GULP energy per Si atom -5568.151240 kJ/mol
# Density = 2.014129 g / cm^3
# Si number density = 20.187235 Si / 1000 Ang^3
#
#
#
# Elastic Constant Matrix: (Units=GPa)
#
#
# Indices 1 2 3 4 5 6 
#
# 1 160.9491 97.6893 27.0935 0.0000 0.0000 0.0000
# 2 97.6893 108.8180 21.2619 0.0000 0.0000 0.0000
# 3 27.0935 21.2619 65.8153 0.0000 0.0000 0.0000
# 4 0.0000 0.0000 0.0000 18.5121 0.0000 0.0000
# 5 0.0000 0.0000 0.0000 0.0000 -10.3117 0.0000
# 6 0.0000 0.0000 0.0000 0.0000 0.0000 72.4205
#
#
#
# Elastic Compliance Matrix: (Units=1/GPa)
#
#
# Indices 1 2 3 4 5 6 
#
# 1 0.013848 -0.012081 -0.001798 0.000000 0.000000 0.000000
# 2 -0.012081 0.020348 -0.001600 0.000000 0.000000 0.000000
# 3 -0.001798 -0.001600 0.016451 0.000000 0.000000 0.000000
# 4 0.000000 0.000000 0.000000 0.054019 0.000000 0.000000
# 5 0.000000 0.000000 0.000000 0.000000 -0.096977 0.000000
# 6 0.000000 0.000000 0.000000 0.000000 0.000000 0.013808
#
#
# Mechanical properties :
#
#
# Convention : Reuss Voigt Hill
#
# Bulk Modulus (GPa) = 50.78967 69.74133 60.26550
# Shear Modulus (GPa) = 84.72063 28.76003 56.74033
#
# Velocity S-wave (km/s) = 6.48526 3.77857 5.30736
# Velocity P-wave (km/s) = 9.01621 7.32523 8.21435
#
# Compressibility (1/GPa) = 0.01968904
#
# Stress axis : x y z
#
# Youngs Moduli (GPa) = 72.21092 49.14592 60.78587
#
# Poissons Ratio (x) = 0.59372 0.10930
# Poissons Ratio (y) = 0.87236 0.09727
# Poissons Ratio (z) = 0.12984 0.07864
#
# Static dielectric constant tensor:
#      x y z
#    x 1.735940 0.000000 0.000000 
#    y 0.000000 1.725210 0.000000 
#    z 0.000000 0.000000 1.820100 
# 
# From -- ./inp_files/11059.got.cif
#   From: 2010.05.17/outbox.cif.g08.bks.cpg/sg20_6_cif.got.tgz:11059.got - 2010.06.03 22:52:26.
