data_PCOD9316632
_publ_section_title
;
Structure prediction by ZEFSAII (Michael W. Deem and Ramdas Pophale) SiO2 
 PCOD9316632
Probable space group: C 2 2 21
;
_chemical_formula_sum "Si O2"
_cell_formula_units_Z 48
_cell_length_a 9.006623
_cell_length_b 20.303828
_cell_length_c 13.957040
_cell_angle_alpha 90.000000
_cell_angle_beta 90.000000
_cell_angle_gamma 90.000000
_cell_volume 2552.308891
_symmetry_space_group_name_H-M "C 2 2 21"
_symmetry_group_IT_number 20
_symmetry_cell_setting 'orthorhombic'
loop_
_space_group_symop_operation_xyz
x,y,z
-x,-y,1/2+z
x,-y,-z
-x,y,1/2-z
1/2+x,1/2+y,z
1/2-x,1/2-y,1/2+z
1/2+x,1/2-y,-z
1/2-x,1/2+y,1/2-z
loop_
_atom_site_type_symbol
_atom_site_label
_atom_site_fract_x
_atom_site_fract_y
_atom_site_fract_z
Si Si1 0.717820 0.634300 0.609120
Si Si2 0.088846 0.269897 0.613837
Si Si3 0.836213 0.830111 0.326516
Si Si4 0.481034 0.812699 0.086608
Si Si5 0.106839 0.824713 0.840924
Si Si6 0.039772 0.924243 0.009822
O O1 0.670034 0.705815 0.567503
O O2 0.659271 0.641575 0.718575
O O3 0.632794 0.582566 0.543225
O O4 0.894547 0.633698 0.612409
O O5 0.051206 0.317160 0.526033
O O6 0.217780 0.306477 0.675814
O O7 0.940011 0.234901 0.656315
O O8 0.666236 0.815244 0.350527
O O9 0.882836 0.885061 0.403189
O O10 0.547709 0.740879 0.107200
O O11 0.000000 0.834749 0.750000
O O12 0.082459 0.884710 0.914101
O O13 0.081100 0.000000 0.000000
#
# Coordination Sequence:
#
# PCOD9316632 Si02
#       6
#     8   8   8   8   8   8
#     4  10  21  35  58  90 116 154 189 240 300 362
#     4  10  18  34  57  88 121 150 180 235 300 360
#     4  11  20  37  61  89 119 152 196 239 305 367
#     4  11  18  36  61  90 124 146 184 246 312 364
#     4  11  22  36  57  89 121 154 191 244 302 352
#     4  11  23  40  57  80 115 164 208 247 284 345
#
# _framework density 18.806501999999998
#
# number of rings (size 3 to 8) (size 9 to 14) (size 15 to 20)
#    0.000    1.333    5.000    5.500    0.000    1.333 
#    0.000    0.833    0.000    0.000    0.000    0.000 
#    0.000    0.000    0.000    0.000    0.000    0.000 
#
# Total GULP energy -133659.401701 kJ/mol
# GULP energy per Si atom -5569.141738 kJ/mol
# Density = 1.876370 g / cm^3
# Si number density = 18.806502 Si / 1000 Ang^3
#
#
#
# Elastic Constant Matrix: (Units=GPa)
#
#
# Indices 1 2 3 4 5 6 
#
# 1 123.2354 24.6988 32.7356 0.0000 0.0000 0.0000
# 2 24.6988 74.7623 26.5584 0.0000 0.0000 0.0000
# 3 32.7356 26.5584 91.1439 0.0000 0.0000 0.0000
# 4 0.0000 0.0000 0.0000 6.7135 0.0000 0.0000
# 5 0.0000 0.0000 0.0000 0.0000 29.4183 0.0000
# 6 0.0000 0.0000 0.0000 0.0000 0.0000 8.6515
#
#
#
# Elastic Compliance Matrix: (Units=1/GPa)
#
#
# Indices 1 2 3 4 5 6 
#
# 1 0.009255 -0.002093 -0.002714 0.000000 0.000000 0.000000
# 2 -0.002093 0.015394 -0.003734 0.000000 0.000000 0.000000
# 3 -0.002714 -0.003734 0.013034 0.000000 0.000000 0.000000
# 4 0.000000 0.000000 0.000000 0.148954 0.000000 0.000000
# 5 0.000000 0.000000 0.000000 0.000000 0.033992 0.000000
# 6 0.000000 0.000000 0.000000 0.000000 0.000000 0.115586
#
#
# Mechanical properties :
#
#
# Convention : Reuss Voigt Hill
#
# Bulk Modulus (GPa) = 48.54181 50.79193 49.66687
# Shear Modulus (GPa) = 13.88251 22.63325 18.25788
#
# Velocity S-wave (km/s) = 2.71989 3.47288 3.11919
# Velocity P-wave (km/s) = 5.97754 6.56868 6.28007
#
# Compressibility (1/GPa) = 0.02060080
#
# Stress axis : x y z
#
# Youngs Moduli (GPa) = 108.04897 64.96185 76.71993
#
# Poissons Ratio (x) = 0.13599 0.20823
# Poissons Ratio (y) = 0.22619 0.28645
# Poissons Ratio (z) = 0.29326 0.24255
#
# Static dielectric constant tensor:
#      x y z
#    x 1.782290 0.000000 0.000000 
#    y 0.000000 1.610360 0.000000 
#    z 0.000000 0.000000 1.709450 
# 
# From -- ./inp_files/19031.got.cif
#   From: 2010.05.17/outbox.cif.g08.bks.cpg/sg20_10_cif.got.tgz:19031.got - 2010.06.03 22:52:26.
