data_PCOD9316403
_publ_section_title
;
Structure prediction by ZEFSAII (Michael W. Deem and Ramdas Pophale) SiO2 
 PCOD9316403
Probable space group: C 2 2 21
;
_chemical_formula_sum "Si O2"
_cell_formula_units_Z 44
_cell_length_a 27.086232
_cell_length_b 8.794538
_cell_length_c 8.290459
_cell_angle_alpha 90.000000
_cell_angle_beta 90.000000
_cell_angle_gamma 90.000000
_cell_volume 1974.877672
_symmetry_space_group_name_H-M "C 2 2 21"
_symmetry_group_IT_number 20
_symmetry_cell_setting 'orthorhombic'
loop_
_space_group_symop_operation_xyz
x,y,z
-x,-y,1/2+z
x,-y,-z
-x,y,1/2-z
1/2+x,1/2+y,z
1/2-x,1/2-y,1/2+z
1/2+x,1/2-y,-z
1/2-x,1/2+y,1/2-z
loop_
_atom_site_type_symbol
_atom_site_label
_atom_site_fract_x
_atom_site_fract_y
_atom_site_fract_z
Si Si1 0.045068 0.668163 0.542273
Si Si2 0.859880 0.424374 0.181176
Si Si3 0.175747 0.271358 0.803783
Si Si4 0.230817 0.679009 0.525845
Si Si5 0.905829 0.088758 0.832769
Si Si6 0.500000 0.602956 0.250000
O O1 0.027593 0.500000 0.500000
O O2 0.086908 0.654414 0.683915
O O3 0.072758 0.750139 0.395548
O O4 0.003634 0.784673 0.597920
O O5 0.849964 0.563152 0.300856
O O6 0.811868 0.317133 0.164770
O O7 0.861734 0.500000 0.000000
O O8 0.205096 0.260030 0.633986
O O9 0.218417 0.259705 0.933998
O O10 0.136937 0.133952 0.790911
O O11 0.241993 0.500000 0.500000
O O12 0.950966 0.996837 0.757318
O O13 0.890692 0.000000 0.000000
#
# Coordination Sequence:
#
# PCOD9316403 Si02
#       6
#     8   8   8   8   8   4
#     4  10  17  39  65  80 112 166 222 255 314 392
#     4   8  15  33  58  83 104 155 221 248 295 395
#     4  10  18  36  62  88 124 167 213 265 326 388
#     4   9  19  34  56  93 122 162 216 262 309 396
#     4  10  20  36  60  89 123 162 214 268 331 396
#     4  10  24  34  56  98 116 152 226 268 316 382
#
# _framework density 22.279861
#
# number of rings (size 3 to 8) (size 9 to 14) (size 15 to 20)
#    0.000    2.909    5.455    0.000    0.000    3.636 
#    0.000    2.727    0.000    0.000    0.000    0.000 
#    0.000    0.000    0.000    0.000    0.000    0.000 
#
# Total GULP energy -122653.202226 kJ/mol
# GULP energy per Si atom -5575.145556 kJ/mol
# Density = 2.222915 g / cm^3
# Si number density = 22.279861 Si / 1000 Ang^3
#
#
#
# Elastic Constant Matrix: (Units=GPa)
#
#
# Indices 1 2 3 4 5 6 
#
# 1 91.9991 40.4014 25.5336 0.0000 0.0000 0.0000
# 2 40.4014 91.8372 12.1590 0.0000 0.0000 0.0000
# 3 25.5336 12.1590 18.2186 0.0000 0.0000 0.0000
# 4 0.0000 0.0000 0.0000 19.8392 0.0000 0.0000
# 5 0.0000 0.0000 0.0000 0.0000 34.9849 0.0000
# 6 0.0000 0.0000 0.0000 0.0000 0.0000 -33.0429
#
#
#
# Elastic Compliance Matrix: (Units=1/GPa)
#
#
# Indices 1 2 3 4 5 6 
#
# 1 0.020123 -0.005615 -0.024455 0.000000 0.000000 0.000000
# 2 -0.005615 0.013511 -0.001148 0.000000 0.000000 0.000000
# 3 -0.024455 -0.001148 0.089929 0.000000 0.000000 0.000000
# 4 0.000000 0.000000 0.000000 0.050405 0.000000 0.000000
# 5 0.000000 0.000000 0.000000 0.000000 0.028584 0.000000
# 6 0.000000 0.000000 0.000000 0.000000 0.000000 -0.030264
#
#
# Mechanical properties :
#
#
# Convention : Reuss Voigt Hill
#
# Bulk Modulus (GPa) = 16.35932 39.80474 28.08203
# Shear Modulus (GPa) = 19.60027 12.62030 16.11028
#
# Velocity S-wave (km/s) = 2.96924 2.38259 2.69195
# Velocity P-wave (km/s) = 4.37193 5.04713 4.72162
#
# Compressibility (1/GPa) = 0.06112725
#
# Stress axis : x y z
#
# Youngs Moduli (GPa) = 49.69536 74.01452 11.11990
#
# Poissons Ratio (x) = 0.41557 0.27194
# Poissons Ratio (y) = 0.27902 0.01277
# Poissons Ratio (z) = 1.21529 0.08497
#
# Static dielectric constant tensor:
#      x y z
#    x 1.939080 0.000000 0.000000 
#    y 0.000000 1.841260 0.000000 
#    z 0.000000 0.000000 1.895690 
# 
# From -- ./inp_files/16592.got.cif
#   From: 2010.05.17/outbox.cif.g08.bks.cpg/sg20_9_cif.got.tgz:16592.got - 2010.06.03 22:52:26.
