data_PCOD9316913
_publ_section_title
;
Structure prediction by ZEFSAII (Michael W. Deem and Ramdas Pophale) SiO2 
 PCOD9316913
Probable space group: C 2 2 21
;
_chemical_formula_sum "Si O2"
_cell_formula_units_Z 64
_cell_length_a 8.838231
_cell_length_b 30.149120
_cell_length_c 10.743866
_cell_angle_alpha 90.000000
_cell_angle_beta 90.000000
_cell_angle_gamma 90.000000
_cell_volume 2862.863040
_symmetry_space_group_name_H-M "C 2 2 21"
_symmetry_group_IT_number 20
_symmetry_cell_setting 'orthorhombic'
loop_
_space_group_symop_operation_xyz
x,y,z
-x,-y,1/2+z
x,-y,-z
-x,y,1/2-z
1/2+x,1/2+y,z
1/2-x,1/2-y,1/2+z
1/2+x,1/2-y,-z
1/2-x,1/2+y,1/2-z
loop_
_atom_site_type_symbol
_atom_site_label
_atom_site_fract_x
_atom_site_fract_y
_atom_site_fract_z
Si Si1 0.821618 0.474740 0.241543
Si Si2 0.173715 0.742709 0.787445
Si Si3 0.614009 0.407132 0.128812
Si Si4 0.795217 0.823019 0.013765
Si Si5 0.099657 0.806569 0.123841
Si Si6 0.318513 0.565688 0.257111
Si Si7 0.817676 0.162435 0.268109
Si Si8 0.180645 0.074283 0.527038
O O1 0.759066 0.436298 0.152884
O O2 0.755228 0.521139 0.193711
O O3 0.751850 0.459898 0.375801
O O4 0.000000 0.476273 0.250000
O O5 0.197264 0.707405 0.896794
O O6 0.270451 0.727331 0.665455
O O7 0.222308 0.791722 0.835603
O O8 0.000000 0.744604 0.750000
O O9 0.500000 0.409228 0.250000
O O10 0.657627 0.356481 0.104497
O O11 0.502538 0.428013 0.026737
O O12 0.794089 0.873809 0.064108
O O13 0.965856 0.802264 0.022348
O O14 0.753597 0.828660 0.870418
O O15 0.000000 0.807523 0.250000
O O16 0.500000 0.561194 0.250000
O O17 0.274325 0.613573 0.314424
O O18 0.264447 0.568032 0.112670
O O19 0.000000 0.159270 0.250000
#
# Coordination Sequence:
#
# PCOD9316913 Si02
#       8
#     8   8   8   8   8   8   8   8
#     4  11  21  32  51  82 117 143 167 215 280 333
#     4  10  19  30  49  80 111 139 173 218 274 330
#     4   8  15  30  52  78 101 131 178 225 260 307
#     4   9  18  34  55  78 106 140 180 226 268 311
#     4   8  15  29  50  75 103 134 175 220 264 311
#     4  10  20  38  59  75 100 145 191 227 261 307
#     4   9  20  36  55  77 104 141 187 229 264 312
#     4   9  18  35  58  79 102 139 187 226 262 313
#
# _framework density 22.355243000000002
#
# number of rings (size 3 to 8) (size 9 to 14) (size 15 to 20)
#    0.000    2.750    0.000    3.750    0.000    4.000 
#    0.000    4.375    0.000    7.500    0.000    0.000 
#    0.000    0.000    0.000    0.000    0.000    0.000 
#
# Total GULP energy -178499.546960 kJ/mol
# GULP energy per Si atom -5578.110842 kJ/mol
# Density = 2.230436 g / cm^3
# Si number density = 22.355243 Si / 1000 Ang^3
#
#
#
# Elastic Constant Matrix: (Units=GPa)
#
#
# Indices 1 2 3 4 5 6 
#
# 1 75.2937 64.7069 -8.7583 0.0000 0.0000 0.0000
# 2 64.7069 150.0886 -1.0147 0.0000 0.0000 0.0000
# 3 -8.7583 -1.0147 36.7344 0.0000 0.0000 0.0000
# 4 0.0000 0.0000 0.0000 20.5994 0.0000 0.0000
# 5 0.0000 0.0000 0.0000 0.0000 18.0216 0.0000
# 6 0.0000 0.0000 0.0000 0.0000 0.0000 26.1445
#
#
#
# Elastic Compliance Matrix: (Units=1/GPa)
#
#
# Indices 1 2 3 4 5 6 
#
# 1 0.021972 -0.009439 0.004978 0.000000 0.000000 0.000000
# 2 -0.009439 0.010719 -0.001954 0.000000 0.000000 0.000000
# 3 0.004978 -0.001954 0.028355 0.000000 0.000000 0.000000
# 4 0.000000 0.000000 0.000000 0.048545 0.000000 0.000000
# 5 0.000000 0.000000 0.000000 0.000000 0.055489 0.000000
# 6 0.000000 0.000000 0.000000 0.000000 0.000000 0.038249
#
#
# Mechanical properties :
#
#
# Convention : Reuss Voigt Hill
#
# Bulk Modulus (GPa) = 20.74027 41.33161 31.03594
# Shear Modulus (GPa) = 21.53016 26.76531 24.14773
#
# Velocity S-wave (km/s) = 3.10674 3.46392 3.29018
# Velocity P-wave (km/s) = 4.70817 5.87597 5.32418
#
# Compressibility (1/GPa) = 0.04821539
#
# Stress axis : x y z
#
# Youngs Moduli (GPa) = 45.51177 93.29243 35.26677
#
# Poissons Ratio (x) = 0.88060 -0.17556
# Poissons Ratio (y) = 0.42959 0.06893
# Poissons Ratio (z) = -0.22656 0.18233
#
# Static dielectric constant tensor:
#      x y z
#    x 1.791700 0.000000 0.000000 
#    y 0.000000 1.846300 0.000000 
#    z 0.000000 0.000000 1.982410 
# 
# From -- ./inp_files/13392.got.cif
#   From: 2010.05.17/outbox.cif.g08.bks.cpg/sg20_7_cif.got.tgz:13392.got - 2010.06.03 22:52:26.
