data_PCOD9316330
_publ_section_title
;
Structure prediction by ZEFSAII (Michael W. Deem and Ramdas Pophale) SiO2 
 PCOD9316330
Probable space group: C 2 2 21
;
_chemical_formula_sum "Si O2"
_cell_formula_units_Z 52
_cell_length_a 13.944394
_cell_length_b 7.970762
_cell_length_c 17.740830
_cell_angle_alpha 90.000000
_cell_angle_beta 90.000000
_cell_angle_gamma 90.000000
_cell_volume 1971.847941
_symmetry_space_group_name_H-M "C 2 2 21"
_symmetry_group_IT_number 20
_symmetry_cell_setting 'orthorhombic'
loop_
_space_group_symop_operation_xyz
x,y,z
-x,-y,1/2+z
x,-y,-z
-x,y,1/2-z
1/2+x,1/2+y,z
1/2-x,1/2-y,1/2+z
1/2+x,1/2-y,-z
1/2-x,1/2+y,1/2-z
loop_
_atom_site_type_symbol
_atom_site_label
_atom_site_fract_x
_atom_site_fract_y
_atom_site_fract_z
Si Si1 0.252351 0.103125 0.351684
Si Si2 0.673523 0.500000 0.500000
Si Si3 0.531420 0.136714 0.102851
Si Si4 0.464440 0.524580 0.670640
Si Si5 0.766445 0.532040 0.812715
Si Si6 0.744760 0.831303 0.548240
Si Si7 0.962542 0.724803 0.567930
O O1 0.190247 0.990861 0.407322
O O2 0.352215 0.138158 0.394469
O O3 0.203539 0.278108 0.328772
O O4 0.282556 0.016507 0.273331
O O5 0.684399 0.704756 0.497372
O O6 0.500597 0.285550 0.157651
O O7 0.506994 0.941407 0.113390
O O8 0.508047 0.193631 0.018015
O O9 0.500000 0.457100 0.750000
O O10 0.349157 0.528480 0.675202
O O11 0.493111 0.401735 0.602521
O O12 0.802754 0.400138 0.874941
O O13 0.846391 0.741384 0.566001
O O14 0.766092 0.000000 0.500000
#
# Coordination Sequence:
#
# PCOD9316330 Si02
#       7
#     8   4   8   8   8   8   8
#     4  11  19  33  52  85 114 146 178 237 292 347
#     4  12  18  30  54  76 116 142 180 228 286 342
#     4  10  18  33  56  84 108 136 184 238 283 325
#     4  10  22  36  53  80 113 148 188 231 279 334
#     4  10  22  33  54  81 117 147 184 232 293 337
#     4  11  17  30  48  80 111 141 184 226 276 339
#     4  10  17  31  57  85 101 137 186 238 283 315
#
# _framework density 26.371202
#
# number of rings (size 3 to 8) (size 9 to 14) (size 15 to 20)
#    0.000    1.538    4.615    3.231    2.154    0.615 
#    0.000    0.000    3.385    0.000    0.000    0.000 
#    0.000    0.000    0.000    0.000    0.000    0.000 
#
# Total GULP energy -145194.760580 kJ/mol
# GULP energy per Si atom -5584.413868 kJ/mol
# Density = 2.631118 g / cm^3
# Si number density = 26.371202 Si / 1000 Ang^3
#
#
#
# Elastic Constant Matrix: (Units=GPa)
#
#
# Indices 1 2 3 4 5 6 
#
# 1 81.3572 10.1578 -19.5930 0.0000 0.0000 0.0000
# 2 10.1578 154.3726 42.0086 0.0000 0.0000 0.0000
# 3 -19.5930 42.0086 125.7407 0.0000 0.0000 0.0000
# 4 0.0000 0.0000 0.0000 55.2592 0.0000 0.0000
# 5 0.0000 0.0000 0.0000 0.0000 9.4413 0.0000
# 6 0.0000 0.0000 0.0000 0.0000 0.0000 16.8253
#
#
#
# Elastic Compliance Matrix: (Units=1/GPa)
#
#
# Indices 1 2 3 4 5 6 
#
# 1 0.013103 -0.001560 0.002563 0.000000 0.000000 0.000000
# 2 -0.001560 0.007311 -0.002686 0.000000 0.000000 0.000000
# 3 0.002563 -0.002686 0.009249 0.000000 0.000000 0.000000
# 4 0.000000 0.000000 0.000000 0.018097 0.000000 0.000000
# 5 0.000000 0.000000 0.000000 0.000000 0.105918 0.000000
# 6 0.000000 0.000000 0.000000 0.000000 0.000000 0.059434
#
#
# Mechanical properties :
#
#
# Convention : Reuss Voigt Hill
#
# Bulk Modulus (GPa) = 38.02388 47.40195 42.71291
# Shear Modulus (GPa) = 22.19818 38.23164 30.21491
#
# Velocity S-wave (km/s) = 2.90445 3.81169 3.38857
# Velocity P-wave (km/s) = 5.06930 6.11440 5.61621
#
# Compressibility (1/GPa) = 0.02629926
#
# Stress axis : x y z
#
# Youngs Moduli (GPa) = 76.31612 136.77486 108.11444
#
# Poissons Ratio (x) = 0.21332 -0.27708
# Poissons Ratio (y) = 0.11902 0.29036
# Poissons Ratio (z) = -0.19559 0.36733
#
# Static dielectric constant tensor:
#      x y z
#    x 2.196890 0.000000 0.000000 
#    y 0.000000 2.058740 0.000000 
#    z 0.000000 0.000000 1.989540 
# 
# From -- ./inp_files/25227.got.cif
#   From: 2010.05.17/outbox.cif.g08.bks.cpg/sg20_13_cif.got.tgz:25227.got - 2010.06.03 22:52:26.
