data_PCOD9316826
_publ_section_title
;
Structure prediction by ZEFSAII (Michael W. Deem and Ramdas Pophale) SiO2 
 PCOD9316826
Probable space group: C 2 2 21
;
_chemical_formula_sum "Si O2"
_cell_formula_units_Z 44
_cell_length_a 16.915582
_cell_length_b 9.941478
_cell_length_c 9.787761
_cell_angle_alpha 90.000000
_cell_angle_beta 90.000000
_cell_angle_gamma 90.000000
_cell_volume 1645.967504
_symmetry_space_group_name_H-M "C 2 2 21"
_symmetry_group_IT_number 20
_symmetry_cell_setting 'orthorhombic'
loop_
_space_group_symop_operation_xyz
x,y,z
-x,-y,1/2+z
x,-y,-z
-x,y,1/2-z
1/2+x,1/2+y,z
1/2-x,1/2-y,1/2+z
1/2+x,1/2-y,-z
1/2-x,1/2+y,1/2-z
loop_
_atom_site_type_symbol
_atom_site_label
_atom_site_fract_x
_atom_site_fract_y
_atom_site_fract_z
Si Si1 0.887010 0.526055 0.777378
Si Si2 0.273339 0.414496 0.674512
Si Si3 0.206539 0.799604 0.517093
Si Si4 0.839059 0.500000 0.500000
Si Si5 0.936581 0.186219 0.343161
Si Si6 0.962045 0.737727 0.103688
O O1 0.793342 0.526663 0.806025
O O2 0.890835 0.458530 0.627568
O O3 0.915621 0.678006 0.748243
O O4 0.931887 0.418417 0.873006
O O5 0.233405 0.338498 0.548462
O O6 0.364640 0.415569 0.636226
O O7 0.281329 0.338716 0.823521
O O8 0.277894 0.887218 0.454804
O O9 0.118291 0.815755 0.452164
O O10 0.000000 0.112589 0.250000
O O11 0.974795 0.237109 0.483586
O O12 0.000000 0.777988 0.250000
#
# Coordination Sequence:
#
# PCOD9316826 Si02
#       6
#     8   8   8   4   8   8
#     4  10  22  38  63  97 124 171 220 265 322 411
#     4  10  22  41  61  92 130 175 218 262 332 404
#     4  10  21  40  63  90 125 179 218 269 324 411
#     4  10  18  38  70  82 124 176 230 256 330 390
#     4  12  23  42  65  98 136 172 211 284 346 381
#     4  11  24  39  63  97 136 163 220 282 343 390
#
# _framework density 26.731998999999998
#
# number of rings (size 3 to 8) (size 9 to 14) (size 15 to 20)
#    0.000    1.455    3.636    1.636    5.091    2.182 
#    0.000    0.000    8.000    0.000    0.000    0.000 
#    0.000    0.000    0.000    0.000    0.000    0.000 
#
# Total GULP energy -122604.236989 kJ/mol
# GULP energy per Si atom -5572.919863 kJ/mol
# Density = 2.667116 g / cm^3
# Si number density = 26.731999 Si / 1000 Ang^3
#
#
#
# Elastic Constant Matrix: (Units=GPa)
#
#
# Indices 1 2 3 4 5 6 
#
# 1 196.2955 18.7715 47.2167 0.0000 0.0000 0.0000
# 2 18.7715 37.0750 27.7246 0.0000 0.0000 0.0000
# 3 47.2167 27.7246 212.9066 0.0000 0.0000 0.0000
# 4 0.0000 0.0000 0.0000 32.2400 0.0000 0.0000
# 5 0.0000 0.0000 0.0000 0.0000 1164.4526 0.0000
# 6 0.0000 0.0000 0.0000 0.0000 0.0000 -13.4458
#
#
#
# Elastic Compliance Matrix: (Units=1/GPa)
#
#
# Indices 1 2 3 4 5 6 
#
# 1 0.005523 -0.002083 -0.000954 0.000000 0.000000 0.000000
# 2 -0.002083 0.030668 -0.003532 0.000000 0.000000 0.000000
# 3 -0.000954 -0.003532 0.005368 0.000000 0.000000 0.000000
# 4 0.000000 0.000000 0.000000 0.031017 0.000000 0.000000
# 5 0.000000 0.000000 0.000000 0.000000 0.000859 0.000000
# 6 0.000000 0.000000 0.000000 0.000000 0.000000 -0.074372
#
#
# Mechanical properties :
#
#
# Convention : Reuss Voigt Hill
#
# Bulk Modulus (GPa) = 35.18343 70.41140 52.79741
# Shear Modulus (GPa) = 230.69272 260.15365 245.42319
#
# Velocity S-wave (km/s) = 9.29977 9.87575 9.59208
# Velocity P-wave (km/s) = 11.33598 12.50750 11.93612
#
# Compressibility (1/GPa) = 0.02842247
#
# Stress axis : x y z
#
# Youngs Moduli (GPa) = 181.06279 32.60722 186.28068
#
# Poissons Ratio (x) = 0.06793 0.17763
# Poissons Ratio (y) = 0.37720 0.65786
# Poissons Ratio (z) = 0.17265 0.11515
#
# Static dielectric constant tensor:
#      x y z
#    x 2.178090 0.000000 0.000000 
#    y 0.000000 -16.337730 0.000000 
#    z 0.000000 0.000000 2.090750 
# 
# From -- ./inp_files/9293.got.cif
#   From: 2010.05.17/outbox.cif.g08.bks.cpg/sg20_5_cif.got.tgz:9293.got - 2010.06.03 22:52:26.
