data_PCOD9316981
_publ_section_title
;
Structure prediction by ZEFSAII (Michael W. Deem and Ramdas Pophale) SiO2 
 PCOD9316981
Probable space group: C 2 2 21
;
_chemical_formula_sum "Si O2"
_cell_formula_units_Z 36
_cell_length_a 16.063587
_cell_length_b 7.422108
_cell_length_c 14.074934
_cell_angle_alpha 90.000000
_cell_angle_beta 90.000000
_cell_angle_gamma 90.000000
_cell_volume 1678.093543
_symmetry_space_group_name_H-M "C 2 2 21"
_symmetry_group_IT_number 20
_symmetry_cell_setting 'orthorhombic'
loop_
_space_group_symop_operation_xyz
x,y,z
-x,-y,1/2+z
x,-y,-z
-x,y,1/2-z
1/2+x,1/2+y,z
1/2-x,1/2-y,1/2+z
1/2+x,1/2-y,-z
1/2-x,1/2+y,1/2-z
loop_
_atom_site_type_symbol
_atom_site_label
_atom_site_fract_x
_atom_site_fract_y
_atom_site_fract_z
Si Si1 0.279708 0.737378 0.101913
Si Si2 0.322948 0.482854 0.719130
Si Si3 0.456562 0.308825 0.947049
Si Si4 0.000000 0.014658 0.250000
Si Si5 0.363271 0.709182 0.463156
O O1 0.295976 0.576775 0.176323
O O2 0.367254 0.784852 0.051930
O O3 0.245220 0.897976 0.167215
O O4 0.208920 0.701454 0.024270
O O5 0.413310 0.583240 0.725066
O O6 0.340423 0.313887 0.648034
O O7 0.475800 0.361533 0.838426
O O8 0.543082 0.220646 0.980539
O O9 0.445915 0.500000 0.000000
O O10 0.366062 0.500000 0.500000
#
# Coordination Sequence:
#
# PCOD9316981 Si02
#       5
#     8   8   8   4   8
#     4  10  19  32  55  81 104 133 171 215 257 302
#     4   9  18  33  54  77 104 134 171 214 258 301
#     4   9  17  31  53  77 101 135 177 213 249 301
#     4   8  16  32  54  76  96 134 182 214 240 296
#     4   8  16  32  52  74 102 137 176 213 249 298
#
# _framework density 21.452918
#
# number of rings (size 3 to 8) (size 9 to 14) (size 15 to 20)
#    0.000    3.111    0.000    1.333    0.000    3.556 
#    0.000    0.000    0.000   62.667    0.000    0.000 
#    0.000    0.000    0.000    0.000    0.000    0.000 
#
# Total GULP energy -100249.133856 kJ/mol
# GULP energy per Si atom -5569.396325 kJ/mol
# Density = 2.140409 g / cm^3
# Si number density = 21.452918 Si / 1000 Ang^3
#
#
#
# Elastic Constant Matrix: (Units=GPa)
#
#
# Indices 1 2 3 4 5 6 
#
# 1 232.4024 34.7772 53.5529 0.0000 0.0000 0.0000
# 2 34.7772 33.4622 6.4584 0.0000 0.0000 0.0000
# 3 53.5529 6.4584 96.0923 0.0000 0.0000 0.0000
# 4 0.0000 0.0000 0.0000 18.5930 0.0000 0.0000
# 5 0.0000 0.0000 0.0000 0.0000 41.3823 0.0000
# 6 0.0000 0.0000 0.0000 0.0000 0.0000 24.6494
#
#
#
# Elastic Compliance Matrix: (Units=1/GPa)
#
#
# Indices 1 2 3 4 5 6 
#
# 1 0.005776 -0.005453 -0.002853 0.000000 0.000000 0.000000
# 2 -0.005453 0.035424 0.000658 0.000000 0.000000 0.000000
# 3 -0.002853 0.000658 0.011952 0.000000 0.000000 0.000000
# 4 0.000000 0.000000 0.000000 0.053784 0.000000 0.000000
# 5 0.000000 0.000000 0.000000 0.000000 0.024165 0.000000
# 6 0.000000 0.000000 0.000000 0.000000 0.000000 0.040569
#
#
# Mechanical properties :
#
#
# Convention : Reuss Voigt Hill
#
# Bulk Modulus (GPa) = 26.41441 61.28154 43.84798
# Shear Modulus (GPa) = 25.05207 34.73616 29.89411
#
# Velocity S-wave (km/s) = 3.42097 4.02827 3.73698
# Velocity P-wave (km/s) = 5.28616 7.08968 6.25328
#
# Compressibility (1/GPa) = 0.03785812
#
# Stress axis : x y z
#
# Youngs Moduli (GPa) = 173.12562 28.22914 83.66640
#
# Poissons Ratio (x) = 0.15392 0.23867
# Poissons Ratio (y) = 0.94398 -0.05504
# Poissons Ratio (z) = 0.49386 -0.01857
#
# Static dielectric constant tensor:
#      x y z
#    x 1.876640 0.000000 0.000000 
#    y 0.000000 1.797980 0.000000 
#    z 0.000000 0.000000 1.805720 
# 
# From -- ./inp_files/18402.got.cif
#   From: 2010.05.17/outbox.cif.g08.bks.cpg/sg20_10_cif.got.tgz:18402.got - 2010.06.03 22:52:26.
