data_PCOD9316680
_publ_section_title
;
Structure prediction by ZEFSAII (Michael W. Deem and Ramdas Pophale) SiO2 
 PCOD9316680
Probable space group: C 2 2 21
;
_chemical_formula_sum "Si O2"
_cell_formula_units_Z 60
_cell_length_a 24.813998
_cell_length_b 17.739600
_cell_length_c 6.227486
_cell_angle_alpha 90.000000
_cell_angle_beta 90.000000
_cell_angle_gamma 90.000000
_cell_volume 2741.279547
_symmetry_space_group_name_H-M "C 2 2 21"
_symmetry_group_IT_number 20
_symmetry_cell_setting 'orthorhombic'
loop_
_space_group_symop_operation_xyz
x,y,z
-x,-y,1/2+z
x,-y,-z
-x,y,1/2-z
1/2+x,1/2+y,z
1/2-x,1/2-y,1/2+z
1/2+x,1/2-y,-z
1/2-x,1/2+y,1/2-z
loop_
_atom_site_type_symbol
_atom_site_label
_atom_site_fract_x
_atom_site_fract_y
_atom_site_fract_z
Si Si1 0.195346 0.316844 0.916948
Si Si2 0.405048 0.316650 0.747725
Si Si3 0.915737 0.500000 0.500000
Si Si4 0.137619 0.074413 0.872709
Si Si5 0.537110 0.578672 0.572733
Si Si6 0.688747 0.312125 0.399438
Si Si7 0.656113 0.070183 0.378975
Si Si8 0.096876 0.645102 0.774646
O O1 0.171779 0.248852 0.777767
O O2 0.201115 0.381188 0.738114
O O3 0.251304 0.295567 0.023157
O O4 0.152391 0.345387 0.089491
O O5 0.387071 0.363896 0.538771
O O6 0.425317 0.230548 0.718782
O O7 0.447076 0.367138 0.880307
O O8 0.352267 0.310623 0.902120
O O9 0.881368 0.466367 0.696150
O O10 0.937968 0.422175 0.388447
O O11 0.091092 0.056158 0.700371
O O12 0.184867 0.109996 0.729942
O O13 0.152645 0.000000 0.000000
O O14 0.510513 0.500000 0.500000
O O15 0.500000 0.617854 0.750000
O O16 0.617781 0.117888 0.540371
O O17 0.681167 0.000000 0.500000
#
# Coordination Sequence:
#
# PCOD9316680 Si02
#       8
#     8   8   4   8   8   8   8   8
#     4  11  21  35  55  77 106 156 215 252 309 366
#     4  11  22  39  60  87 118 163 200 259 314 369
#     4   8  18  30  54  80 110 148 192 238 302 358
#     4  11  23  43  61  84 122 160 209 257 316 377
#     4  11  24  40  67  94 119 164 204 249 319 394
#     4  11  24  35  57  79 108 159 213 262 308 376
#     4   9  18  34  53  75 107 147 191 251 305 349
#     4  10  18  35  56  81 115 159 201 258 306 358
#
# _framework density 21.887588000000001
#
# number of rings (size 3 to 8) (size 9 to 14) (size 15 to 20)
#    0.000    1.600    4.000    1.200    0.000    0.000 
#    0.000   12.000    0.000    0.000    0.000    0.000 
#    0.000    0.000  102.000    0.000    0.533    0.800 
#
# Total GULP energy -167393.143664 kJ/mol
# GULP energy per Si atom -5579.771455 kJ/mol
# Density = 2.183777 g / cm^3
# Si number density = 21.887588 Si / 1000 Ang^3
#
#
#
# Elastic Constant Matrix: (Units=GPa)
#
#
# Indices 1 2 3 4 5 6 
#
# 1 19.9528 -4.2909 9.0951 0.0000 0.0000 0.0000
# 2 -4.2909 139.3088 40.8066 0.0000 0.0000 0.0000
# 3 9.0951 40.8066 102.7955 0.0000 0.0000 0.0000
# 4 0.0000 0.0000 0.0000 58.9518 0.0000 0.0000
# 5 0.0000 0.0000 0.0000 0.0000 31.4921 0.0000
# 6 0.0000 0.0000 0.0000 0.0000 0.0000 5.9191
#
#
#
# Elastic Compliance Matrix: (Units=1/GPa)
#
#
# Indices 1 2 3 4 5 6 
#
# 1 0.053645 0.003443 -0.006113 0.000000 0.000000 0.000000
# 2 0.003443 0.008344 -0.003617 0.000000 0.000000 0.000000
# 3 -0.006113 -0.003617 0.011705 0.000000 0.000000 0.000000
# 4 0.000000 0.000000 0.000000 0.016963 0.000000 0.000000
# 5 0.000000 0.000000 0.000000 0.000000 0.031754 0.000000
# 6 0.000000 0.000000 0.000000 0.000000 0.000000 0.168945
#
#
# Mechanical properties :
#
#
# Convention : Reuss Voigt Hill
#
# Bulk Modulus (GPa) = 16.36132 39.25320 27.80726
# Shear Modulus (GPa) = 15.41766 33.70235 24.56000
#
# Velocity S-wave (km/s) = 2.65694 3.92828 3.35341
# Velocity P-wave (km/s) = 4.11142 6.20871 5.26554
#
# Compressibility (1/GPa) = 0.06111978
#
# Stress axis : x y z
#
# Youngs Moduli (GPa) = 18.64097 119.84930 85.43564
#
# Poissons Ratio (x) = -0.41265 0.52229
# Poissons Ratio (y) = -0.06418 0.30901
# Poissons Ratio (z) = 0.11396 0.43348
#
# Static dielectric constant tensor:
#      x y z
#    x 1.756050 0.000000 0.000000 
#    y 0.000000 1.869680 0.000000 
#    z 0.000000 0.000000 1.802680 
# 
# From -- ./inp_files/4328.got.cif
#   From: 2010.05.17/outbox.cif.g08.bks.cpg/sg20_3_cif.got.tgz:4328.got - 2010.06.03 22:52:26.
