data_PCOD9316464
_publ_section_title
;
Structure prediction by ZEFSAII (Michael W. Deem and Ramdas Pophale) SiO2 
 PCOD9316464
Probable space group: C 2 2 21
;
_chemical_formula_sum "Si O2"
_cell_formula_units_Z 48
_cell_length_a 13.141423
_cell_length_b 22.121185
_cell_length_c 9.118451
_cell_angle_alpha 90.000000
_cell_angle_beta 90.000000
_cell_angle_gamma 90.000000
_cell_volume 2650.768806
_symmetry_space_group_name_H-M "C 2 2 21"
_symmetry_group_IT_number 20
_symmetry_cell_setting 'orthorhombic'
loop_
_space_group_symop_operation_xyz
x,y,z
-x,-y,1/2+z
x,-y,-z
-x,y,1/2-z
1/2+x,1/2+y,z
1/2-x,1/2-y,1/2+z
1/2+x,1/2-y,-z
1/2-x,1/2+y,1/2-z
loop_
_atom_site_type_symbol
_atom_site_label
_atom_site_fract_x
_atom_site_fract_y
_atom_site_fract_z
Si Si1 0.388170 0.388232 0.823126
Si Si2 0.219912 0.934637 0.944512
Si Si3 0.960313 0.737319 0.417411
Si Si4 0.982662 0.878071 0.422272
Si Si5 0.158830 0.317045 0.487366
Si Si6 0.751265 0.726922 0.288838
O O1 0.500000 0.387588 0.750000
O O2 0.315743 0.431044 0.725877
O O3 0.335139 0.323074 0.810515
O O4 0.418075 0.401305 0.990415
O O5 0.305484 0.884520 0.977260
O O6 0.117823 0.914059 0.030919
O O7 0.250371 0.000000 0.000000
O O8 0.964200 0.807462 0.465704
O O9 0.845759 0.714485 0.398528
O O10 0.000000 0.737348 0.250000
O O11 0.039027 0.696986 0.508119
O O12 0.000000 0.881126 0.250000
O O13 0.206845 0.278316 0.623652
O O14 0.207618 0.291311 0.338735
#
# Coordination Sequence:
#
# PCOD9316464 Si02
#       6
#     8   8   8   8   8   8
#     4   9  19  33  51  78 110 141 178 228 277 325
#     4  10  21  35  49  74 110 147 180 213 270 339
#     4   9  17  29  47  78 107 134 174 225 287 322
#     4  10  18  30  52  76 109 141 176 224 272 330
#     4  10  19  31  52  75 103 137 176 226 275 329
#     4  10  18  30  50  77 105 136 175 225 281 324
#
# _framework density 18.107952999999998
#
# number of rings (size 3 to 8) (size 9 to 14) (size 15 to 20)
#    0.000    2.333    3.333    0.000    0.000    2.000 
#    0.000    0.000    0.000    0.000    0.000   33.833 
#    0.000    0.000    0.000    0.000    0.000    0.000 
#
# Total GULP energy -133746.677525 kJ/mol
# GULP energy per Si atom -5572.778230 kJ/mol
# Density = 1.806674 g / cm^3
# Si number density = 18.107953 Si / 1000 Ang^3
#
#
#
# Elastic Constant Matrix: (Units=GPa)
#
#
# Indices 1 2 3 4 5 6 
#
# 1 38.6738 18.1808 -0.3792 0.0000 0.0000 0.0000
# 2 18.1808 79.3655 25.8704 0.0000 0.0000 0.0000
# 3 -0.3792 25.8704 65.2304 0.0000 0.0000 0.0000
# 4 0.0000 0.0000 0.0000 13.3976 0.0000 0.0000
# 5 0.0000 0.0000 0.0000 0.0000 12.2717 0.0000
# 6 0.0000 0.0000 0.0000 0.0000 0.0000 16.2733
#
#
#
# Elastic Compliance Matrix: (Units=1/GPa)
#
#
# Indices 1 2 3 4 5 6 
#
# 1 0.029578 -0.007846 0.003284 0.000000 0.000000 0.000000
# 2 -0.007846 0.016552 -0.006610 0.000000 0.000000 0.000000
# 3 0.003284 -0.006610 0.017971 0.000000 0.000000 0.000000
# 4 0.000000 0.000000 0.000000 0.074640 0.000000 0.000000
# 5 0.000000 0.000000 0.000000 0.000000 0.081488 0.000000
# 6 0.000000 0.000000 0.000000 0.000000 0.000000 0.061450
#
#
# Mechanical properties :
#
#
# Convention : Reuss Voigt Hill
#
# Bulk Modulus (GPa) = 23.94866 30.06818 27.00842
# Shear Modulus (GPa) = 15.72608 17.69504 16.71056
#
# Velocity S-wave (km/s) = 2.95017 3.12941 3.04111
# Velocity P-wave (km/s) = 4.98586 5.44964 5.22290
#
# Compressibility (1/GPa) = 0.04175598
#
# Stress axis : x y z
#
# Youngs Moduli (GPa) = 33.80896 60.41587 55.64538
#
# Poissons Ratio (x) = 0.47402 -0.18272
# Poissons Ratio (y) = 0.26526 0.36782
# Poissons Ratio (z) = -0.11102 0.39936
#
# Static dielectric constant tensor:
#      x y z
#    x 1.649080 0.000000 0.000000 
#    y 0.000000 1.609210 0.000000 
#    z 0.000000 0.000000 1.688090 
# 
# From -- ./inp_files/7370.got.cif
#   From: 2010.05.17/outbox.cif.g08.bks.cpg/sg20_4_cif.got.tgz:7370.got - 2010.06.03 22:52:26.
