data_PCOD9316560
_publ_section_title
;
Structure prediction by ZEFSAII (Michael W. Deem and Ramdas Pophale) SiO2 
 PCOD9316560
Probable space group: C 2 2 21
;
_chemical_formula_sum "Si O2"
_cell_formula_units_Z 60
_cell_length_a 29.587621
_cell_length_b 7.612595
_cell_length_c 11.773096
_cell_angle_alpha 90.000000
_cell_angle_beta 90.000000
_cell_angle_gamma 90.000000
_cell_volume 2651.755374
_symmetry_space_group_name_H-M "C 2 2 21"
_symmetry_group_IT_number 20
_symmetry_cell_setting 'orthorhombic'
loop_
_space_group_symop_operation_xyz
x,y,z
-x,-y,1/2+z
x,-y,-z
-x,y,1/2-z
1/2+x,1/2+y,z
1/2-x,1/2-y,1/2+z
1/2+x,1/2-y,-z
1/2-x,1/2+y,1/2-z
loop_
_atom_site_type_symbol
_atom_site_label
_atom_site_fract_x
_atom_site_fract_y
_atom_site_fract_z
Si Si1 0.688710 0.894666 0.754938
Si Si2 0.985126 0.770904 0.899298
Si Si3 0.093795 0.294130 0.531673
Si Si4 0.927001 0.121029 0.311976
Si Si5 0.720991 0.534759 0.635155
Si Si6 0.651760 0.246518 0.679465
Si Si7 0.403576 0.762396 0.707101
Si Si8 0.000000 0.440273 0.750000
O O1 0.707850 0.727809 0.683401
O O2 0.643717 0.849902 0.829898
O O3 0.728662 0.976492 0.830319
O O4 0.673839 0.055736 0.673694
O O5 0.037300 0.817624 0.905110
O O6 0.958024 0.882194 0.803444
O O7 0.983501 0.573962 0.848224
O O8 0.956795 0.777588 0.012621
O O9 0.094445 0.500000 0.500000
O O10 0.125929 0.211114 0.437435
O O11 0.106902 0.253426 0.658021
O O12 0.886581 0.249674 0.277166
O O13 0.907852 0.932350 0.339363
O O14 0.715772 0.500000 0.500000
O O15 0.687739 0.397878 0.697961
O O16 0.454291 0.845783 0.705587
#
# Coordination Sequence:
#
# PCOD9316560 Si02
#       8
#     8   8   8   8   8   8   8   4
#     4  12  24  46  69 103 137 181 229 291 360 420
#     4   9  18  34  50  82 130 163 199 258 331 379
#     4  11  20  34  61 101 123 163 221 287 339 391
#     4   9  19  34  55  88 123 173 206 260 327 398
#     4  12  27  44  71 105 139 179 236 290 365 425
#     4  11  22  40  66  98 136 170 220 287 348 417
#     4  12  21  35  65  94 128 167 228 270 335 408
#     4  10  18  32  56  86 118 170 202 254 318 398
#
# _framework density 22.626522000000001
#
# number of rings (size 3 to 8) (size 9 to 14) (size 15 to 20)
#    0.000    1.333    5.333    3.200    0.000    1.600 
#    0.000    0.000    5.867    0.000    3.467    0.000 
#    0.000    0.000    0.000    0.000    0.000    0.000 
#
# Total GULP energy -167529.549518 kJ/mol
# GULP energy per Si atom -5584.318317 kJ/mol
# Density = 2.257502 g / cm^3
# Si number density = 22.626522 Si / 1000 Ang^3
#
#
#
# Elastic Constant Matrix: (Units=GPa)
#
#
# Indices 1 2 3 4 5 6 
#
# 1 175.1720 52.8107 20.4274 0.0000 0.0000 0.0000
# 2 52.8107 123.2875 9.3252 0.0000 0.0000 0.0000
# 3 20.4274 9.3252 19.0486 0.0000 0.0000 0.0000
# 4 0.0000 0.0000 0.0000 17.7914 0.0000 0.0000
# 5 0.0000 0.0000 0.0000 0.0000 27.8070 0.0000
# 6 0.0000 0.0000 0.0000 0.0000 0.0000 46.4504
#
#
#
# Elastic Compliance Matrix: (Units=1/GPa)
#
#
# Indices 1 2 3 4 5 6 
#
# 1 0.007255 -0.002616 -0.006500 0.000000 0.000000 0.000000
# 2 -0.002616 0.009366 -0.001780 0.000000 0.000000 0.000000
# 3 -0.006500 -0.001780 0.060339 0.000000 0.000000 0.000000
# 4 0.000000 0.000000 0.000000 0.056207 0.000000 0.000000
# 5 0.000000 0.000000 0.000000 0.000000 0.035962 0.000000
# 6 0.000000 0.000000 0.000000 0.000000 0.000000 0.021528
#
#
# Mechanical properties :
#
#
# Convention : Reuss Voigt Hill
#
# Bulk Modulus (GPa) = 18.12607 53.62607 35.87607
# Shear Modulus (GPa) = 21.66010 34.07273 27.86642
#
# Velocity S-wave (km/s) = 3.09736 3.88477 3.51320
# Velocity P-wave (km/s) = 4.56289 6.62374 5.68744
#
# Compressibility (1/GPa) = 0.05516916
#
# Stress axis : x y z
#
# Youngs Moduli (GPa) = 137.82885 106.76448 16.57310
#
# Poissons Ratio (x) = 0.27932 0.10772
# Poissons Ratio (y) = 0.36059 0.02949
# Poissons Ratio (z) = 0.89585 0.19001
#
# Static dielectric constant tensor:
#      x y z
#    x 1.916800 0.000000 0.000000 
#    y 0.000000 1.870380 0.000000 
#    z 0.000000 0.000000 1.852730 
# 
# From -- ./inp_files/22219.got.cif
#   From: 2010.05.17/outbox.cif.g08.bks.cpg/sg20_12_cif.got.tgz:22219.got - 2010.06.03 22:52:26.
