data_PCOD9316583
_publ_section_title
;
Structure prediction by ZEFSAII (Michael W. Deem and Ramdas Pophale) SiO2 
 PCOD9316583
Probable space group: C 2 2 21
;
_chemical_formula_sum "Si O2"
_cell_formula_units_Z 44
_cell_length_a 11.669230
_cell_length_b 16.956641
_cell_length_c 11.456041
_cell_angle_alpha 90.000000
_cell_angle_beta 90.000000
_cell_angle_gamma 90.000000
_cell_volume 2266.817646
_symmetry_space_group_name_H-M "C 2 2 21"
_symmetry_group_IT_number 20
_symmetry_cell_setting 'orthorhombic'
loop_
_space_group_symop_operation_xyz
x,y,z
-x,-y,1/2+z
x,-y,-z
-x,y,1/2-z
1/2+x,1/2+y,z
1/2-x,1/2-y,1/2+z
1/2+x,1/2-y,-z
1/2-x,1/2+y,1/2-z
loop_
_atom_site_type_symbol
_atom_site_label
_atom_site_fract_x
_atom_site_fract_y
_atom_site_fract_z
Si Si1 0.832752 0.168325 0.292803
Si Si2 0.424906 0.150881 0.131628
Si Si3 0.345367 0.520403 0.676523
Si Si4 0.403138 0.433335 0.085088
Si Si5 0.953343 0.218794 0.060228
Si Si6 0.152254 0.500000 0.500000
O O1 0.702054 0.178296 0.329521
O O2 0.870545 0.212578 0.173926
O O3 0.921310 0.197990 0.390158
O O4 0.848376 0.072516 0.287737
O O5 0.500000 0.153805 0.250000
O O6 0.460068 0.205551 0.022583
O O7 0.416390 0.063155 0.076295
O O8 0.467204 0.540263 0.618563
O O9 0.335374 0.569090 0.794801
O O10 0.242010 0.539693 0.590089
O O11 0.354755 0.500000 0.000000
O O12 0.410399 0.351461 0.021411
#
# Coordination Sequence:
#
# PCOD9316583 Si02
#       6
#     8   8   8   8   8   4
#     4  10  21  42  64  92 129 165 206 259 323 375
#     4  11  27  44  66  91 126 167 224 267 307 378
#     4  10  18  32  64  92 126 167 205 252 320 377
#     4  11  16  29  57 101 131 154 199 256 323 386
#     4  11  22  38  64  97 132 162 199 269 328 379
#     4  10  22  48  60  76 124 180 218 262 302 362
#
# _framework density 19.410474000000001
#
# number of rings (size 3 to 8) (size 9 to 14) (size 15 to 20)
#    0.000    1.455    4.545    2.182    5.091    1.455 
#    3.273    3.636    0.000    0.000    0.000    0.000 
#    0.000    0.000    0.000    0.000    0.000    0.000 
#
# Total GULP energy -122766.750981 kJ/mol
# GULP energy per Si atom -5580.306863 kJ/mol
# Density = 1.936629 g / cm^3
# Si number density = 19.410474 Si / 1000 Ang^3
#
#
#
# Elastic Constant Matrix: (Units=GPa)
#
#
# Indices 1 2 3 4 5 6 
#
# 1 70.9422 22.1861 39.4467 0.0000 0.0000 0.0000
# 2 22.1861 46.5277 34.2662 0.0000 0.0000 0.0000
# 3 39.4467 34.2662 127.9616 0.0000 0.0000 0.0000
# 4 0.0000 0.0000 0.0000 55.6162 0.0000 0.0000
# 5 0.0000 0.0000 0.0000 0.0000 12.2342 0.0000
# 6 0.0000 0.0000 0.0000 0.0000 0.0000 11.9139
#
#
#
# Elastic Compliance Matrix: (Units=1/GPa)
#
#
# Indices 1 2 3 4 5 6 
#
# 1 0.018127 -0.005641 -0.004078 0.000000 0.000000 0.000000
# 2 -0.005641 0.028528 -0.005900 0.000000 0.000000 0.000000
# 3 -0.004078 -0.005900 0.010652 0.000000 0.000000 0.000000
# 4 0.000000 0.000000 0.000000 0.017980 0.000000 0.000000
# 5 0.000000 0.000000 0.000000 0.000000 0.081738 0.000000
# 6 0.000000 0.000000 0.000000 0.000000 0.000000 0.083935
#
#
# Mechanical properties :
#
#
# Convention : Reuss Voigt Hill
#
# Bulk Modulus (GPa) = 38.35910 48.58106 43.47008
# Shear Modulus (GPa) = 17.80067 25.92169 21.86118
#
# Velocity S-wave (km/s) = 3.03159 3.65834 3.35962
# Velocity P-wave (km/s) = 5.66207 6.55189 6.12316
#
# Compressibility (1/GPa) = 0.02606943
#
# Stress axis : x y z
#
# Youngs Moduli (GPa) = 55.16522 35.05355 93.87999
#
# Poissons Ratio (x) = 0.19773 0.38281
# Poissons Ratio (y) = 0.31117 0.55393
# Poissons Ratio (z) = 0.22494 0.20683
#
# Static dielectric constant tensor:
#      x y z
#    x 1.666980 0.000000 0.000000 
#    y 0.000000 1.705990 0.000000 
#    z 0.000000 0.000000 1.699080 
# 
# From -- ./inp_files/14041.got.cif
#   From: 2010.05.17/outbox.cif.g08.bks.cpg/sg20_8_cif.got.tgz:14041.got - 2010.06.03 22:52:26.
