data_PCOD9316141
_publ_section_title
;
Structure prediction by ZEFSAII (Michael W. Deem and Ramdas Pophale) SiO2 
 PCOD9316141
Probable space group: P 21 21 21
;
_chemical_formula_sum "Si O2"
_cell_formula_units_Z 32
_cell_length_a 9.000000
_cell_length_b 15.000000
_cell_length_c 12.000000
_cell_angle_alpha 90.000000
_cell_angle_beta 90.000000
_cell_angle_gamma 90.000000
_cell_volume 1620.000000
_symmetry_space_group_name_H-M "P 21 21 21"
_symmetry_group_IT_number 19
_symmetry_cell_setting 'orthorhombic'
loop_
_space_group_symop_operation_xyz
x,y,z
1/2-x,-y,1/2+z
1/2+x,1/2-y,-z
-x,1/2+y,1/2-z
loop_
_atom_site_type_symbol
_atom_site_label
_atom_site_fract_x
_atom_site_fract_y
_atom_site_fract_z
Si Si1 0.431521 0.134684 0.818037
Si Si2 0.967546 0.663409 0.296833
Si Si3 0.329443 0.480916 0.672447
Si Si4 0.527325 0.943065 0.249356
Si Si5 0.154556 0.090760 0.970227
Si Si6 0.751753 0.572571 0.895072
Si Si7 0.672751 0.858623 0.037880
Si Si8 0.894442 0.714792 0.060967
O O1 0.461780 0.239316 0.811221
O O2 0.355694 0.105297 0.702204
O O3 0.577995 0.073269 0.830761
O O4 0.313608 0.117139 0.917302
O O5 0.893621 0.641060 0.415999
O O6 0.867313 0.675207 0.184734
O O7 0.082653 0.586782 0.255441
O O8 0.161197 0.492286 0.714976
O O9 0.327512 0.441903 0.546453
O O10 0.459139 0.904211 0.364989
O O11 0.386601 0.975671 0.174540
O O12 0.606964 0.877533 0.160082
O O13 0.172414 0.991005 0.016818
O O14 0.821874 0.651420 0.967911
O O15 0.830890 0.813214 0.052313
O O16 0.566996 0.789914 0.971122
#
# Coordination Sequence:
#
# PCOD9316141 Si02
#       8
#     4   4   4   4   4   4   4   4
#     4  11  23  43  69  92 139 177 216 283 325 398
#     4  11  24  41  66  98 132 173 222 270 337 397
#     4  11  23  43  67  99 130 175 223 282 330 384
#     4  10  24  38  67  95 131 170 222 274 335 391
#     4  11  24  44  63  95 133 180 220 260 344 406
#     4  10  21  43  67  95 123 177 224 272 325 403
#     4  10  22  41  62  98 129 167 221 276 325 395
#     4  10  21  39  65  92 127 163 222 277 323 378
#
# _framework density 19.753086
#
# number of rings (size 3 to 8) (size 9 to 14) (size 15 to 20)
#    0.000    1.500    1.250    4.500    3.500    4.000 
#    2.250    0.000    0.000    0.000    0.000    0.000 
#    0.000    0.000    0.000    0.000    0.000    0.000 
#
# Total GULP energy -178482.894658 kJ/mol
# GULP energy per Si atom -5577.590458 kJ/mol
# Density = 1.970813 g / cm^3
# Si number density = 19.753086 Si / 1000 Ang^3
#
#
#
# Elastic Constant Matrix: (Units=GPa)
#
#
# Indices 1 2 3 4 5 6 
#
# 1 50.5666 27.6986 35.0549 0.0000 0.0000 0.0000
# 2 27.6986 52.5776 6.7585 0.0000 0.0000 0.0000
# 3 35.0549 6.7585 141.8837 0.0000 0.0000 0.0000
# 4 0.0000 0.0000 0.0000 29.9132 0.0000 0.0000
# 5 0.0000 0.0000 0.0000 0.0000 26.3279 0.0000
# 6 0.0000 0.0000 0.0000 0.0000 0.0000 36.7459
#
#
#
# Elastic Compliance Matrix: (Units=1/GPa)
#
#
# Indices 1 2 3 4 5 6 
#
# 1 0.034554 -0.017211 -0.007717 0.000000 0.000000 0.000000
# 2 -0.017211 0.027710 0.002932 0.000000 0.000000 0.000000
# 3 -0.007717 0.002932 0.008815 0.000000 0.000000 0.000000
# 4 0.000000 0.000000 0.000000 0.033430 0.000000 0.000000
# 5 0.000000 0.000000 0.000000 0.000000 0.037983 0.000000
# 6 0.000000 0.000000 0.000000 0.000000 0.000000 0.027214
#
#
# Mechanical properties :
#
#
# Convention : Reuss Voigt Hill
#
# Bulk Modulus (GPa) = 36.91929 42.67244 39.79586
# Shear Modulus (GPa) = 22.44914 30.29845 26.37379
#
# Velocity S-wave (km/s) = 3.37484 3.92070 3.65797
# Velocity P-wave (km/s) = 5.82383 6.49197 6.16696
#
# Compressibility (1/GPa) = 0.02708611
#
# Stress axis : x y z
#
# Youngs Moduli (GPa) = 28.94058 36.08844 113.44268
#
# Poissons Ratio (x) = 0.62113 0.87546
# Poissons Ratio (y) = 0.49810 -0.33266
# Poissons Ratio (z) = 0.22334 -0.10583
#
# Static dielectric constant tensor:
#      x y z
#    x 1.742800 0.000000 0.000000 
#    y 0.000000 1.707930 0.000000 
#    z 0.000000 0.000000 1.680030 
# 
# From -- ./inp_files/4712.got.cif
#   From: 2010.05.17/outbox.ucp.g08.bks.cvg/sg19_3_cif.got.tgz:4712.got - 2010.06.11 13:13:52.
