data_PCOD9316471
_publ_section_title
;
Structure prediction by ZEFSAII (Michael W. Deem and Ramdas Pophale) SiO2 
 PCOD9316471
Probable space group: C 2 2 21
;
_chemical_formula_sum "Si O2"
_cell_formula_units_Z 64
_cell_length_a 14.770402
_cell_length_b 14.770423
_cell_length_c 17.993402
_cell_angle_alpha 90.000000
_cell_angle_beta 90.000000
_cell_angle_gamma 90.000000
_cell_volume 3925.532084
_symmetry_space_group_name_H-M "C 2 2 21"
_symmetry_group_IT_number 20
_symmetry_cell_setting 'orthorhombic'
loop_
_space_group_symop_operation_xyz
x,y,z
-x,-y,1/2+z
x,-y,-z
-x,y,1/2-z
1/2+x,1/2+y,z
1/2-x,1/2-y,1/2+z
1/2+x,1/2-y,-z
1/2-x,1/2+y,1/2-z
loop_
_atom_site_type_symbol
_atom_site_label
_atom_site_fract_x
_atom_site_fract_y
_atom_site_fract_z
Si Si1 0.542878 0.828200 0.171226
Si Si2 0.297285 0.420353 0.822245
Si Si3 0.675313 0.303327 0.420906
Si Si4 0.571925 0.552045 0.073113
Si Si5 0.828200 0.457123 0.421226
Si Si6 0.803325 0.175314 0.329094
Si Si7 0.947958 0.071924 0.823113
Si Si8 0.920353 0.202715 0.072245
O O1 0.500000 0.856539 0.250000
O O2 0.594169 0.905831 0.125000
O O3 0.617312 0.749134 0.187392
O O4 0.467300 0.782282 0.118736
O O5 0.217718 0.467300 0.868736
O O6 0.270432 0.369108 0.747290
O O7 0.369540 0.499448 0.802269
O O8 0.350758 0.350758 0.875000
O O9 0.749133 0.382689 0.437392
O O10 0.726644 0.226647 0.374999
O O11 0.599427 0.349554 0.369641
O O12 0.630893 0.270431 0.497290
O O13 0.650450 0.599431 0.119638
O O14 0.517581 0.482423 0.125001
O O15 0.499448 0.630460 0.052268
O O16 0.603224 0.500000 0.000000
O O17 0.856539 0.500000 0.500000
O O18 0.000000 0.103224 0.750000
#
# Coordination Sequence:
#
# PCOD9316471 Si02
#       8
#     8   8   8   8   8   8   8   8
#     4  10  20  35  55  81 109 140 183 221 262 323
#     4  10  18  31  55  78 105 137 175 219 268 315
#     4  10  20  34  52  82 113 141 177 222 273 319
#     4  10  18  30  52  81 106 134 178 222 266 311
#     4  10  20  35  55  81 109 140 183 221 262 323
#     4  10  20  34  52  82 113 141 177 222 273 319
#     4  10  18  30  52  81 106 134 178 222 266 311
#     4  10  18  31  55  78 105 137 175 219 268 315
#
# _framework density 16.303522000000001
#
# number of rings (size 3 to 8) (size 9 to 14) (size 15 to 20)
#    0.000    2.000    5.000    0.000    0.000    0.000 
#    0.000    5.000    0.000    0.000    0.000    0.000 
#    0.000    0.000    0.000    0.000    0.000    0.000 
#
# Total GULP energy -178487.152273 kJ/mol
# GULP energy per Si atom -5577.723509 kJ/mol
# Density = 1.626641 g / cm^3
# Si number density = 16.303522 Si / 1000 Ang^3
#
#
#
# Elastic Constant Matrix: (Units=GPa)
#
#
# Indices 1 2 3 4 5 6 
#
# 1 73.0242 51.6374 63.3324 0.0000 0.0000 0.0000
# 2 51.6374 73.0317 63.3359 0.0000 0.0000 0.0000
# 3 63.3324 63.3359 145.2023 0.0000 0.0000 0.0000
# 4 0.0000 0.0000 0.0000 22.5507 0.0000 0.0000
# 5 0.0000 0.0000 0.0000 0.0000 22.5496 0.0000
# 6 0.0000 0.0000 0.0000 0.0000 0.0000 30.8107
#
#
#
# Elastic Compliance Matrix: (Units=1/GPa)
#
#
# Indices 1 2 3 4 5 6 
#
# 1 0.030579 -0.016172 -0.006284 0.000000 0.000000 0.000000
# 2 -0.016172 0.030576 -0.006284 0.000000 0.000000 0.000000
# 3 -0.006284 -0.006284 0.012369 0.000000 0.000000 0.000000
# 4 0.000000 0.000000 0.000000 0.044345 0.000000 0.000000
# 5 0.000000 0.000000 0.000000 0.000000 0.044347 0.000000
# 6 0.000000 0.000000 0.000000 0.000000 0.000000 0.032456
#
#
# Mechanical properties :
#
#
# Convention : Reuss Voigt Hill
#
# Bulk Modulus (GPa) = 62.32025 71.98550 67.15287
# Shear Modulus (GPa) = 19.41759 22.71235 21.06497
#
# Velocity S-wave (km/s) = 3.45484 3.73647 3.59841
# Velocity P-wave (km/s) = 7.36360 7.92869 7.65136
#
# Compressibility (1/GPa) = 0.01604615
#
# Stress axis : x y z
#
# Youngs Moduli (GPa) = 32.70181 32.70504 80.85051
#
# Poissons Ratio (x) = 0.52890 0.50804
# Poissons Ratio (y) = 0.52885 0.50803
# Poissons Ratio (z) = 0.20549 0.20550
#
# Static dielectric constant tensor:
#      x y z
#    x 1.534650 0.000000 0.000000 
#    y 0.000000 1.534650 0.000000 
#    z 0.000000 0.000000 1.532730 
# 
# From -- ./inp_files/20982.got.cif
#   From: 2010.05.17/outbox.cif.g08.bks.cpg/sg20_11_cif.got.tgz:20982.got - 2010.06.03 22:52:26.
