data_PCOD9316478
_publ_section_title
;
Structure prediction by ZEFSAII (Michael W. Deem and Ramdas Pophale) SiO2 
 PCOD9316478
Probable space group: C 2 2 21
;
_chemical_formula_sum "Si O2"
_cell_formula_units_Z 64
_cell_length_a 8.967878
_cell_length_b 18.068677
_cell_length_c 21.301414
_cell_angle_alpha 90.000000
_cell_angle_beta 90.000000
_cell_angle_gamma 90.000000
_cell_volume 3451.631939
_symmetry_space_group_name_H-M "C 2 2 21"
_symmetry_group_IT_number 20
_symmetry_cell_setting 'orthorhombic'
loop_
_space_group_symop_operation_xyz
x,y,z
-x,-y,1/2+z
x,-y,-z
-x,y,1/2-z
1/2+x,1/2+y,z
1/2-x,1/2-y,1/2+z
1/2+x,1/2-y,-z
1/2-x,1/2+y,1/2-z
loop_
_atom_site_type_symbol
_atom_site_label
_atom_site_fract_x
_atom_site_fract_y
_atom_site_fract_z
Si Si1 0.176792 0.169480 0.497529
Si Si2 0.327228 0.909448 0.111944
Si Si3 0.175693 0.412116 0.880078
Si Si4 0.676419 0.923559 0.250000
Si Si5 0.323294 0.582773 0.250000
Si Si6 0.324307 0.087884 0.119921
Si Si7 0.676792 0.669480 0.002471
Si Si8 0.827228 0.409449 0.388056
O O1 0.244630 0.125770 0.438508
O O2 0.250000 0.250000 0.500000
O O3 0.221705 0.126594 0.560952
O O4 0.000000 0.174920 0.491550
O O5 0.300815 0.883341 0.183758
O O6 0.500000 0.893467 0.095390
O O7 0.310141 0.998597 0.113329
O O8 0.221705 0.873405 0.060952
O O9 0.249565 0.388527 0.814210
O O10 0.189859 0.501403 0.886670
O O11 1.000000 0.395158 0.879775
O O12 0.500000 0.948160 0.250000
O O13 0.699186 0.883342 0.183757
O O14 0.780870 0.995422 0.250000
O O15 0.500000 0.593388 0.250000
O O16 0.249566 0.611473 0.314211
O O17 0.244630 0.125769 0.061492
#
# Coordination Sequence:
#
# PCOD9316478 Si02
#       8
#     8   8   8   8   8   8   8   8
#     4  12  25  39  55  78 110 147 188 232 279 330
#     4   9  18  35  59  85 112 144 181 222 272 327
#     4  10  20  37  60  84 112 146 183 224 273 328
#     4   8  16  32  55  82 113 146 177 217 271 327
#     4  10  18  30  53  86 117 142 177 225 271 319
#     4  10  20  37  60  84 112 146 183 224 273 328
#     4  12  25  39  55  78 110 147 188 232 279 330
#     4   9  18  35  59  85 112 144 181 222 272 327
#
# _framework density 18.541954
#
# number of rings (size 3 to 8) (size 9 to 14) (size 15 to 20)
#    0.000    2.000    0.000    6.375    0.000    8.000 
#    0.000    1.250    0.000    1.500    0.000    0.000 
#    0.000    0.000    0.000    0.000    0.000    0.000 
#
# Total GULP energy -178643.517697 kJ/mol
# GULP energy per Si atom -5582.609928 kJ/mol
# Density = 1.849975 g / cm^3
# Si number density = 18.541954 Si / 1000 Ang^3
#
#
#
# Elastic Constant Matrix: (Units=GPa)
#
#
# Indices 1 2 3 4 5 6 
#
# 1 168.6509 46.1900 103.4587 0.0000 0.0000 0.0000
# 2 46.1900 31.8920 45.8695 0.0000 0.0000 0.0000
# 3 103.4587 45.8695 172.4687 0.0000 0.0000 0.0000
# 4 0.0000 0.0000 0.0000 -13.7926 0.0000 0.0000
# 5 0.0000 0.0000 0.0000 0.0000 32.9217 0.0000
# 6 0.0000 0.0000 0.0000 0.0000 0.0000 27.0405
#
#
#
# Elastic Compliance Matrix: (Units=1/GPa)
#
#
# Indices 1 2 3 4 5 6 
#
# 1 0.011251 -0.010669 -0.003912 0.000000 0.000000 0.000000
# 2 -0.010669 0.060898 -0.009796 0.000000 0.000000 0.000000
# 3 -0.003912 -0.009796 0.010750 0.000000 0.000000 0.000000
# 4 0.000000 0.000000 0.000000 -0.072503 0.000000 0.000000
# 5 0.000000 0.000000 0.000000 0.000000 0.030375 0.000000
# 6 0.000000 0.000000 0.000000 0.000000 0.000000 0.036982
#
#
# Mechanical properties :
#
#
# Convention : Reuss Voigt Hill
#
# Bulk Modulus (GPa) = 29.28690 84.89423 57.09057
# Shear Modulus (GPa) = 36.26119 21.06682 28.66400
#
# Velocity S-wave (km/s) = 4.42705 3.37437 3.93606
# Velocity P-wave (km/s) = 6.47772 7.81448 7.17729
#
# Compressibility (1/GPa) = 0.03414495
#
# Stress axis : x y z
#
# Youngs Moduli (GPa) = 88.88057 16.42092 93.02342
#
# Poissons Ratio (x) = 0.17520 0.36387
# Poissons Ratio (y) = 0.94829 0.91128
# Poissons Ratio (z) = 0.34766 0.16086
#
# Static dielectric constant tensor:
#      x y z
#    x 1.617300 0.000000 0.000000 
#    y 0.000000 1.624440 0.000000 
#    z 0.000000 0.000000 1.658780 
# 
# From -- ./inp_files/26872.got.cif
#   From: 2010.05.17/outbox.cif.g08.bks.cpg/sg20_14_cif.got.tgz:26872.got - 2010.06.03 22:52:26.
