data_PCOD9316030
_publ_section_title
;
Structure prediction by ZEFSAII (Michael W. Deem and Ramdas Pophale) SiO2 
 PCOD9316030
Probable space group: P 21 21 21
;
_chemical_formula_sum "Si O2"
_cell_formula_units_Z 32
_cell_length_a 11.542939
_cell_length_b 8.613362
_cell_length_c 15.046091
_cell_angle_alpha 90.000000
_cell_angle_beta 90.000000
_cell_angle_gamma 90.000000
_cell_volume 1495.935211
_symmetry_space_group_name_H-M "P 21 21 21"
_symmetry_group_IT_number 19
_symmetry_cell_setting 'orthorhombic'
loop_
_space_group_symop_operation_xyz
x,y,z
1/2-x,-y,1/2+z
1/2+x,1/2-y,-z
-x,1/2+y,1/2-z
loop_
_atom_site_type_symbol
_atom_site_label
_atom_site_fract_x
_atom_site_fract_y
_atom_site_fract_z
Si Si1 0.738988 0.601355 0.842525
Si Si2 0.864120 0.919612 0.809998
Si Si3 0.255023 0.070675 0.973747
Si Si4 0.864120 0.419612 0.690001
Si Si5 1.000000 0.754186 0.226200
Si Si6 0.255024 0.570674 0.526254
Si Si7 0.238988 0.398644 0.342526
Si Si8 0.500000 0.553604 0.616460
O O1 0.826521 0.746694 0.837451
O O2 0.788556 0.473215 0.774545
O O3 0.615625 0.665665 0.810725
O O4 0.728919 0.532835 0.940559
O O5 0.000000 0.928444 0.790366
O O6 0.829457 0.030337 0.892147
O O7 0.788557 0.973215 0.725453
O O8 0.384677 0.035236 0.940154
O O9 0.170541 0.030337 0.892149
O O10 0.250000 0.250000 0.000000
O O11 0.826521 0.246694 0.662548
O O12 1.000000 0.782005 0.331990
O O13 0.884374 0.834335 0.189275
O O14 1.000000 0.578647 0.192113
O O15 0.228918 0.467164 0.440560
O O16 0.384678 0.535236 0.559846
#
# Coordination Sequence:
#
# PCOD9316030 Si02
#       8
#     4   4   4   4   4   4   4   4
#     4  12  26  47  73 106 145 193 242 307 367 435
#     4  12  27  48  71 105 146 194 238 297 370 440
#     4  12  29  46  72 109 146 189 248 299 371 435
#     4  12  27  48  71 105 146 194 238 297 370 440
#     4  12  24  48  78 103 147 186 256 304 364 432
#     4  12  29  46  72 109 146 189 248 299 371 435
#     4  12  26  47  73 106 145 193 242 307 367 435
#     4  12  28  48  76 107 145 194 248 302 368 440
#
# _framework density 21.391300999999999
#
# number of rings (size 3 to 8) (size 9 to 14) (size 15 to 20)
#    0.000    0.000    5.000    3.000   10.500    0.000 
#    0.000    0.000    0.000    0.000    0.000    0.000 
#    0.000    0.000    0.000    0.000    0.000    0.000 
#
# Total GULP energy -179356.532859 kJ/mol
# GULP energy per Si atom -5604.891652 kJ/mol
# Density = 2.134261 g / cm^3
# Si number density = 21.391301 Si / 1000 Ang^3
#
#
#
# Elastic Constant Matrix: (Units=GPa)
#
#
# Indices 1 2 3 4 5 6 
#
# 1 118.2588 -0.8911 1.8911 0.0000 0.0000 0.0000
# 2 -0.8911 47.2065 -18.5313 0.0000 0.0000 0.0000
# 3 1.8911 -18.5313 72.8990 0.0000 0.0000 0.0000
# 4 0.0000 0.0000 0.0000 44.3131 0.0000 0.0000
# 5 0.0000 0.0000 0.0000 0.0000 10.9568 0.0000
# 6 0.0000 0.0000 0.0000 0.0000 0.0000 21.9683
#
#
#
# Elastic Compliance Matrix: (Units=1/GPa)
#
#
# Indices 1 2 3 4 5 6 
#
# 1 0.008460 0.000082 -0.000199 0.000000 0.000000 0.000000
# 2 0.000082 0.023533 0.005980 0.000000 0.000000 0.000000
# 3 -0.000199 0.005980 0.015243 0.000000 0.000000 0.000000
# 4 0.000000 0.000000 0.000000 0.022567 0.000000 0.000000
# 5 0.000000 0.000000 0.000000 0.000000 0.091267 0.000000
# 6 0.000000 0.000000 0.000000 0.000000 0.000000 0.045520
#
#
# Mechanical properties :
#
#
# Convention : Reuss Voigt Hill
#
# Bulk Modulus (GPa) = 16.96027 22.58904 19.77465
# Shear Modulus (GPa) = 23.30814 32.50736 27.90775
#
# Velocity S-wave (km/s) = 3.30450 3.90250 3.61589
# Velocity P-wave (km/s) = 4.74399 5.55778 5.16693
#
# Compressibility (1/GPa) = 0.05896134
#
# Stress axis : x y z
#
# Youngs Moduli (GPa) = 118.20573 42.49428 65.60428
#
# Poissons Ratio (x) = -0.00347 0.01303
# Poissons Ratio (y) = -0.00966 -0.39231
# Poissons Ratio (z) = 0.02349 -0.25412
#
# Static dielectric constant tensor:
#      x y z
#    x 1.699200 0.000000 0.000000 
#    y 0.000000 1.792720 0.000000 
#    z 0.000000 0.000000 1.740390 
# 
# From -- ./inp_files/6153.got.cif
#   From: 2010.05.17/outbox.cif.g08.bks.cpg/sg19_4_cif.got.tgz:6153.got - 2010.06.03 22:46:19.
