data_PCOD9316719
_publ_section_title
;
Structure prediction by ZEFSAII (Michael W. Deem and Ramdas Pophale) SiO2 
 PCOD9316719
Probable space group: C 2 2 21
;
_chemical_formula_sum "Si O2"
_cell_formula_units_Z 52
_cell_length_a 8.092759
_cell_length_b 14.733289
_cell_length_c 20.434395
_cell_angle_alpha 90.000000
_cell_angle_beta 90.000000
_cell_angle_gamma 90.000000
_cell_volume 2436.453344
_symmetry_space_group_name_H-M "C 2 2 21"
_symmetry_group_IT_number 20
_symmetry_cell_setting 'orthorhombic'
loop_
_space_group_symop_operation_xyz
x,y,z
-x,-y,1/2+z
x,-y,-z
-x,y,1/2-z
1/2+x,1/2+y,z
1/2-x,1/2-y,1/2+z
1/2+x,1/2-y,-z
1/2-x,1/2+y,1/2-z
loop_
_atom_site_type_symbol
_atom_site_label
_atom_site_fract_x
_atom_site_fract_y
_atom_site_fract_z
Si Si1 0.533432 0.275318 0.548655
Si Si2 0.935662 0.432866 0.675083
Si Si3 0.507907 0.401330 0.174068
Si Si4 0.500000 0.241263 0.750000
Si Si5 0.636190 0.873152 0.141397
Si Si6 0.953417 0.095821 0.151289
Si Si7 0.408382 0.240316 0.407705
O O1 0.437724 0.193535 0.586188
O O2 0.482556 0.372026 0.580263
O O3 0.511456 0.263817 0.471958
O O4 0.726483 0.279655 0.565754
O O5 0.968558 0.533278 0.645969
O O6 0.736247 0.429971 0.667291
O O7 0.000000 0.426571 0.750000
O O8 0.985897 0.344051 0.632949
O O9 0.500000 0.377700 0.250000
O O10 0.331814 0.391180 0.136099
O O11 0.556638 0.507212 0.171034
O O12 0.617024 0.326630 0.138906
O O13 0.375950 0.174783 0.712740
O O14 0.538377 0.312284 0.693017
#
# Coordination Sequence:
#
# PCOD9316719 Si02
#       7
#     8   8   8   4   8   8   8
#     4  10  23  44  62  89 116 171 206 253 306 359
#     4  10  21  38  60  93 120 157 195 258 306 358
#     4  11  23  38  61  96 121 161 198 253 304 366
#     4  10  18  36  58  86 118 160 188 246 292 364
#     4  10  22  38  63  87 124 157 201 248 307 358
#     4   9  21  38  60  85 124 157 199 246 303 364
#     4  11  24  41  63  86 127 160 211 252 304 367
#
# _framework density 21.342497000000002
#
# number of rings (size 3 to 8) (size 9 to 14) (size 15 to 20)
#    0.000    1.846    1.538    1.385    8.615    1.231 
#    0.000    6.154    0.000    0.000    0.000    0.000 
#    0.000    0.000    0.000    0.000    0.000    0.000 
#
# Total GULP energy -144769.223930 kJ/mol
# GULP energy per Si atom -5568.047074 kJ/mol
# Density = 2.129392 g / cm^3
# Si number density = 21.342497 Si / 1000 Ang^3
#
#
#
# Elastic Constant Matrix: (Units=GPa)
#
#
# Indices 1 2 3 4 5 6 
#
# 1 12.0529 9.9561 2.5761 0.0000 0.0000 0.0000
# 2 9.9561 77.8093 45.3903 0.0000 0.0000 0.0000
# 3 2.5761 45.3903 122.1120 0.0000 0.0000 0.0000
# 4 0.0000 0.0000 0.0000 24.3951 0.0000 0.0000
# 5 0.0000 0.0000 0.0000 0.0000 29.4997 0.0000
# 6 0.0000 0.0000 0.0000 0.0000 0.0000 17.0289
#
#
#
# Elastic Compliance Matrix: (Units=1/GPa)
#
#
# Indices 1 2 3 4 5 6 
#
# 1 0.093723 -0.013840 0.003167 0.000000 0.000000 0.000000
# 2 -0.013840 0.018454 -0.006568 0.000000 0.000000 0.000000
# 3 0.003167 -0.006568 0.010564 0.000000 0.000000 0.000000
# 4 0.000000 0.000000 0.000000 0.040992 0.000000 0.000000
# 5 0.000000 0.000000 0.000000 0.000000 0.033899 0.000000
# 6 0.000000 0.000000 0.000000 0.000000 0.000000 0.058724
#
#
# Mechanical properties :
#
#
# Convention : Reuss Voigt Hill
#
# Bulk Modulus (GPa) = 11.33019 36.42436 23.87727
# Shear Modulus (GPa) = 15.61254 24.45484 20.03369
#
# Velocity S-wave (km/s) = 2.70760 3.38868 3.06711
# Velocity P-wave (km/s) = 3.88524 5.69337 4.87389
#
# Compressibility (1/GPa) = 0.08825980
#
# Stress axis : x y z
#
# Youngs Moduli (GPa) = 10.66977 54.18852 94.66433
#
# Poissons Ratio (x) = 0.74997 -0.29983
# Poissons Ratio (y) = 0.14767 0.62172
# Poissons Ratio (z) = -0.03379 0.35589
#
# Static dielectric constant tensor:
#      x y z
#    x 1.826650 0.000000 0.000000 
#    y 0.000000 1.880540 0.000000 
#    z 0.000000 0.000000 1.863910 
# 
# From -- ./inp_files/26635.got.cif
#   From: 2010.05.17/outbox.cif.g08.bks.cpg/sg20_14_cif.got.tgz:26635.got - 2010.06.03 22:52:26.
