data_PCOD9316758
_publ_section_title
;
Structure prediction by ZEFSAII (Michael W. Deem and Ramdas Pophale) SiO2 
 PCOD9316758
Probable space group: C 2 2 21
;
_chemical_formula_sum "Si O2"
_cell_formula_units_Z 64
_cell_length_a 10.062215
_cell_length_b 18.827534
_cell_length_c 14.116720
_cell_angle_alpha 90.000000
_cell_angle_beta 90.000000
_cell_angle_gamma 90.000000
_cell_volume 2674.365949
_symmetry_space_group_name_H-M "C 2 2 21"
_symmetry_group_IT_number 20
_symmetry_cell_setting 'orthorhombic'
loop_
_space_group_symop_operation_xyz
x,y,z
-x,-y,1/2+z
x,-y,-z
-x,y,1/2-z
1/2+x,1/2+y,z
1/2-x,1/2-y,1/2+z
1/2+x,1/2-y,-z
1/2-x,1/2+y,1/2-z
loop_
_atom_site_type_symbol
_atom_site_label
_atom_site_fract_x
_atom_site_fract_y
_atom_site_fract_z
Si Si1 0.403018 0.561878 0.661005
Si Si2 0.758016 0.304429 0.103711
Si Si3 0.282220 0.180359 0.123510
Si Si4 0.434158 0.570612 0.146335
Si Si5 0.151714 0.483298 0.614565
Si Si6 0.862287 0.541452 0.403871
Si Si7 0.492832 0.729674 0.391177
Si Si8 0.055724 0.298006 0.905565
O O1 0.500000 0.574307 0.750000
O O2 0.356740 0.637196 0.620536
O O3 0.482464 0.497890 0.607073
O O4 0.253407 0.531720 0.671956
O O5 0.688320 0.232436 0.137697
O O6 0.906430 0.290998 0.144571
O O7 0.783345 0.310453 0.990954
O O8 0.297023 0.096150 0.136575
O O9 0.148164 0.215950 0.159882
O O10 0.422348 0.212477 0.153823
O O11 0.500000 0.578567 0.250000
O O12 0.278693 0.550825 0.147180
O O13 0.450626 0.648612 0.100216
O O14 0.163980 0.500000 0.500000
O O15 0.996280 0.493364 0.639179
O O16 0.831841 0.500000 0.500000
O O17 0.919796 0.619603 0.425554
O O18 0.458598 0.756985 0.495871
#
# Coordination Sequence:
#
# PCOD9316758 Si02
#       8
#     8   8   8   8   8   8   8   8
#     4  11  24  41  62  92 133 184 234 277 337 426
#     4  10  19  36  61  89 135 168 214 277 344 403
#     4   9  17  31  59  97 124 162 205 274 349 393
#     4  11  24  44  64  94 142 192 241 276 350 443
#     4  10  18  36  66  99 129 167 223 285 354 400
#     4  10  22  39  69 106 136 173 232 302 356 415
#     4  10  19  35  64  94 127 173 219 282 340 408
#     4   9  19  35  60 103 136 159 215 295 355 402
#
# _framework density 23.930907000000001
#
# number of rings (size 3 to 8) (size 9 to 14) (size 15 to 20)
#    0.000    2.000    3.750    0.000    1.750    2.500 
#    0.000    3.750    2.750    0.000    0.000    0.000 
#    0.000    0.000    0.000    0.000    0.000    0.000 
#
# Total GULP energy -178178.397116 kJ/mol
# GULP energy per Si atom -5568.074910 kJ/mol
# Density = 2.387644 g / cm^3
# Si number density = 23.930907 Si / 1000 Ang^3
#
#
#
# Elastic Constant Matrix: (Units=GPa)
#
#
# Indices 1 2 3 4 5 6 
#
# 1 203.6185 33.8295 42.0136 0.0000 0.0000 0.0000
# 2 33.8295 66.4785 9.0391 0.0000 0.0000 0.0000
# 3 42.0136 9.0391 81.5424 0.0000 0.0000 0.0000
# 4 0.0000 0.0000 0.0000 12.0842 0.0000 0.0000
# 5 0.0000 0.0000 0.0000 0.0000 27.0432 0.0000
# 6 0.0000 0.0000 0.0000 0.0000 0.0000 60.6055
#
#
#
# Elastic Compliance Matrix: (Units=1/GPa)
#
#
# Indices 1 2 3 4 5 6 
#
# 1 0.005918 -0.002637 -0.002757 0.000000 0.000000 0.000000
# 2 -0.002637 0.016447 -0.000465 0.000000 0.000000 0.000000
# 3 -0.002757 -0.000465 0.013736 0.000000 0.000000 0.000000
# 4 0.000000 0.000000 0.000000 0.082752 0.000000 0.000000
# 5 0.000000 0.000000 0.000000 0.000000 0.036978 0.000000
# 6 0.000000 0.000000 0.000000 0.000000 0.000000 0.016500
#
#
# Mechanical properties :
#
#
# Convention : Reuss Voigt Hill
#
# Bulk Modulus (GPa) = 41.00989 57.93377 49.47183
# Shear Modulus (GPa) = 26.01779 37.73040 31.87409
#
# Velocity S-wave (km/s) = 3.30086 3.97500 3.65351
# Velocity P-wave (km/s) = 5.63041 6.73267 6.20606
#
# Compressibility (1/GPa) = 0.02438436
#
# Stress axis : x y z
#
# Youngs Moduli (GPa) = 168.97418 60.79987 72.80390
#
# Poissons Ratio (x) = 0.16031 0.20071
# Poissons Ratio (y) = 0.44554 0.03383
# Poissons Ratio (z) = 0.46585 0.02825
#
# Static dielectric constant tensor:
#      x y z
#    x 1.983210 0.000000 0.000000 
#    y 0.000000 1.982530 0.000000 
#    z 0.000000 0.000000 2.002670 
# 
# From -- ./inp_files/23928.got.cif
#   From: 2010.05.17/outbox.cif.g08.bks.cpg/sg20_12_cif.got.tgz:23928.got - 2010.06.03 22:52:26.
