data_PCOD9316053
_publ_section_title
;
Structure prediction by ZEFSAII (Michael W. Deem and Ramdas Pophale) SiO2 
 PCOD9316053
Probable space group: P 21 21 21
;
_chemical_formula_sum "Si O2"
_cell_formula_units_Z 24
_cell_length_a 13.240695
_cell_length_b 12.376306
_cell_length_c 5.322941
_cell_angle_alpha 90.000000
_cell_angle_beta 90.000000
_cell_angle_gamma 90.000000
_cell_volume 872.275095
_symmetry_space_group_name_H-M "P 21 21 21"
_symmetry_group_IT_number 19
_symmetry_cell_setting 'orthorhombic'
loop_
_space_group_symop_operation_xyz
x,y,z
1/2-x,-y,1/2+z
1/2+x,1/2-y,-z
-x,1/2+y,1/2-z
loop_
_atom_site_type_symbol
_atom_site_label
_atom_site_fract_x
_atom_site_fract_y
_atom_site_fract_z
Si Si1 0.537042 0.296040 0.108240
Si Si2 0.346760 0.605322 0.153458
Si Si3 0.775072 0.351457 0.653856
Si Si4 0.967405 0.365044 0.274102
Si Si5 0.614836 0.467377 0.392128
Si Si6 0.843855 0.137398 0.647495
O O1 0.612664 0.198503 0.164370
O O2 0.477106 0.249114 0.873144
O O3 0.457308 0.317266 0.336085
O O4 0.583986 0.415306 0.123745
O O5 0.229867 0.628109 0.089651
O O6 0.430223 0.613032 0.930168
O O7 0.347947 0.481616 0.241209
O O8 0.665851 0.368486 0.537538
O O9 0.796762 0.447127 0.843493
O O10 0.865694 0.361476 0.445994
O O11 0.958775 0.460540 0.062655
O O12 0.285732 0.264031 0.215426
#
# Coordination Sequence:
#
# PCOD9316053 Si02
#       6
#     4   4   4   4   4   4
#     4  12  27  49  79 114 161 208 273 327 406 485
#     4  12  30  51  78 118 166 220 265 333 413 480
#     4  12  25  51  82 117 155 208 266 343 395 477
#     4  12  26  50  80 116 161 212 260 336 406 472
#     4  12  26  49  81 121 151 206 278 324 403 486
#     4  12  28  54  76 118 164 206 276 331 403 494
#
# _framework density 27.514253
#
# number of rings (size 3 to 8) (size 9 to 14) (size 15 to 20)
#    0.000    0.000    6.667    2.000    4.667    6.667 
#    3.000    0.000    0.000    0.000    0.000    0.000 
#    0.000    0.000    0.000    0.000    0.000    0.000 
#
# Total GULP energy -134220.128253 kJ/mol
# GULP energy per Si atom -5592.505344 kJ/mol
# Density = 2.745163 g / cm^3
# Si number density = 27.514253 Si / 1000 Ang^3
#
#
#
# Elastic Constant Matrix: (Units=GPa)
#
#
# Indices 1 2 3 4 5 6 
#
# 1 138.8283 57.5436 49.4736 0.0000 0.0000 0.0000
# 2 57.5436 160.2491 26.5104 0.0000 0.0000 0.0000
# 3 49.4736 26.5104 83.0063 0.0000 0.0000 0.0000
# 4 0.0000 0.0000 0.0000 47.4520 0.0000 0.0000
# 5 0.0000 0.0000 0.0000 0.0000 64.5523 0.0000
# 6 0.0000 0.0000 0.0000 0.0000 0.0000 45.2694
#
#
#
# Elastic Compliance Matrix: (Units=1/GPa)
#
#
# Indices 1 2 3 4 5 6 
#
# 1 0.010219 -0.002810 -0.005193 0.000000 0.000000 0.000000
# 2 -0.002810 0.007361 -0.000676 0.000000 0.000000 0.000000
# 3 -0.005193 -0.000676 0.015358 0.000000 0.000000 0.000000
# 4 0.000000 0.000000 0.000000 0.021074 0.000000 0.000000
# 5 0.000000 0.000000 0.000000 0.000000 0.015491 0.000000
# 6 0.000000 0.000000 0.000000 0.000000 0.000000 0.022090
#
#
# Mechanical properties :
#
#
# Convention : Reuss Voigt Hill
#
# Bulk Modulus (GPa) = 64.18652 72.12655 68.15653
# Shear Modulus (GPa) = 43.80390 48.02516 45.91453
#
# Velocity S-wave (km/s) = 3.99437 4.18241 4.08947
# Velocity P-wave (km/s) = 6.68225 7.04234 6.86466
#
# Compressibility (1/GPa) = 0.01557960
#
# Stress axis : x y z
#
# Youngs Moduli (GPa) = 97.86095 135.84619 65.11135
#
# Poissons Ratio (x) = 0.38177 0.33812
# Poissons Ratio (y) = 0.27502 0.04402
# Poissons Ratio (z) = 0.50819 0.09184
#
# Static dielectric constant tensor:
#      x y z
#    x 2.156820 0.000000 0.000000 
#    y 0.000000 2.156300 0.000000 
#    z 0.000000 0.000000 2.174330 
# 
# From -- ./inp_files/1003.got.cif
#   From: 2010.05.17/outbox.cif.g08.bks.cpg/sg19_1_cif.got.tgz:1003.got - 2010.06.03 22:46:19.
