data_PCOD9316949
_publ_section_title
;
Structure prediction by ZEFSAII (Michael W. Deem and Ramdas Pophale) SiO2 
 PCOD9316949
Probable space group: C 2 2 21
;
_chemical_formula_sum "Si O2"
_cell_formula_units_Z 36
_cell_length_a 18.453708
_cell_length_b 13.699946
_cell_length_c 5.562518
_cell_angle_alpha 90.000000
_cell_angle_beta 90.000000
_cell_angle_gamma 90.000000
_cell_volume 1406.286893
_symmetry_space_group_name_H-M "C 2 2 21"
_symmetry_group_IT_number 20
_symmetry_cell_setting 'orthorhombic'
loop_
_space_group_symop_operation_xyz
x,y,z
-x,-y,1/2+z
x,-y,-z
-x,y,1/2-z
1/2+x,1/2+y,z
1/2-x,1/2-y,1/2+z
1/2+x,1/2-y,-z
1/2-x,1/2+y,1/2-z
loop_
_atom_site_type_symbol
_atom_site_label
_atom_site_fract_x
_atom_site_fract_y
_atom_site_fract_z
Si Si1 0.788616 0.693400 0.445909
Si Si2 0.000000 0.557137 0.750000
Si Si3 0.149987 0.612082 0.554098
Si Si4 0.874281 0.115709 0.520237
Si Si5 0.875032 0.884681 0.977085
O O1 0.816626 0.645138 0.691705
O O2 0.807339 0.808724 0.466683
O O3 0.703982 0.664377 0.447119
O O4 0.829746 0.660321 0.202767
O O5 0.934877 0.615763 0.874644
O O6 0.972421 0.500000 0.500000
O O7 0.168500 0.500000 0.500000
O O8 0.914339 0.136575 0.271779
O O9 0.854407 0.000000 0.500000
O O10 0.912706 0.137050 0.771499
O O11 0.861108 0.000000 0.000000
#
# Coordination Sequence:
#
# PCOD9316949 Si02
#       5
#     8   4   8   8   8
#     4  12  21  33  53  79 104 138 180 219 253 301
#     4  10  20  38  56  76 110 142 160 198 266 334
#     4  11  22  35  54  80 107 133 165 209 262 322
#     4  10  21  35  50  71 105 146 183 217 256 295
#     4  10  19  32  49  71 105 144 177 216 260 303
#
# _framework density 25.599326999999999
#
# number of rings (size 3 to 8) (size 9 to 14) (size 15 to 20)
#    0.000    1.333    0.000    8.667    0.000    1.778 
#    0.000    0.000    0.000    0.000    0.000    3.111 
#    0.000    1.778    0.000    0.000    0.000    0.000 
#
# Total GULP energy -100268.952723 kJ/mol
# GULP energy per Si atom -5570.497374 kJ/mol
# Density = 2.554106 g / cm^3
# Si number density = 25.599327 Si / 1000 Ang^3
#
#
#
# Elastic Constant Matrix: (Units=GPa)
#
#
# Indices 1 2 3 4 5 6 
#
# 1 99.5757 10.8490 70.6072 0.0000 0.0000 0.0000
# 2 10.8490 121.2339 43.5591 0.0000 0.0000 0.0000
# 3 70.6072 43.5591 384.3983 0.0000 0.0000 0.0000
# 4 0.0000 0.0000 0.0000 53.5839 0.0000 0.0000
# 5 0.0000 0.0000 0.0000 0.0000 15.4426 0.0000
# 6 0.0000 0.0000 0.0000 0.0000 0.0000 35.4900
#
#
#
# Elastic Compliance Matrix: (Units=1/GPa)
#
#
# Indices 1 2 3 4 5 6 
#
# 1 0.011556 -0.000283 -0.002091 0.000000 0.000000 0.000000
# 2 -0.000283 0.008606 -0.000923 0.000000 0.000000 0.000000
# 3 -0.002091 -0.000923 0.003090 0.000000 0.000000 0.000000
# 4 0.000000 0.000000 0.000000 0.018662 0.000000 0.000000
# 5 0.000000 0.000000 0.000000 0.000000 0.064756 0.000000
# 6 0.000000 0.000000 0.000000 0.000000 0.000000 0.028177
#
#
# Mechanical properties :
#
#
# Convention : Reuss Voigt Hill
#
# Bulk Modulus (GPa) = 60.03113 95.02651 77.52882
# Shear Modulus (GPa) = 34.01533 52.91614 43.46574
#
# Velocity S-wave (km/s) = 3.64917 4.55146 4.12506
# Velocity P-wave (km/s) = 6.42312 8.05123 7.28281
#
# Compressibility (1/GPa) = 0.01665802
#
# Stress axis : x y z
#
# Youngs Moduli (GPa) = 86.53661 116.20423 323.61675
#
# Poissons Ratio (x) = 0.03288 0.67653
# Poissons Ratio (y) = 0.02449 0.29876
# Poissons Ratio (z) = 0.18091 0.10728
#
# Static dielectric constant tensor:
#      x y z
#    x 1.993530 0.000000 0.000000 
#    y 0.000000 2.092130 0.000000 
#    z 0.000000 0.000000 2.092040 
# 
# From -- ./inp_files/3052.got.cif
#   From: 2010.05.17/outbox.cif.g08.bks.cpg/sg20_2_cif.got.tgz:3052.got - 2010.06.03 22:52:26.
