data_PCOD9316869
_publ_section_title
;
Structure prediction by ZEFSAII (Michael W. Deem and Ramdas Pophale) SiO2 
 PCOD9316869
Probable space group: C 2 2 21
;
_chemical_formula_sum "Si O2"
_cell_formula_units_Z 44
_cell_length_a 11.877056
_cell_length_b 8.924806
_cell_length_c 18.102336
_cell_angle_alpha 90.000000
_cell_angle_beta 90.000000
_cell_angle_gamma 90.000000
_cell_volume 1918.855231
_symmetry_space_group_name_H-M "C 2 2 21"
_symmetry_group_IT_number 20
_symmetry_cell_setting 'orthorhombic'
loop_
_space_group_symop_operation_xyz
x,y,z
-x,-y,1/2+z
x,-y,-z
-x,y,1/2-z
1/2+x,1/2+y,z
1/2-x,1/2-y,1/2+z
1/2+x,1/2-y,-z
1/2-x,1/2+y,1/2-z
loop_
_atom_site_type_symbol
_atom_site_label
_atom_site_fract_x
_atom_site_fract_y
_atom_site_fract_z
Si Si1 0.594684 0.255136 0.392980
Si Si2 0.818685 0.857234 0.811541
Si Si3 0.466496 0.000000 0.000000
Si Si4 0.691532 0.133413 0.807738
Si Si5 0.500000 0.405374 0.250000
Si Si6 0.519730 0.736604 0.097717
Si Si7 0.509251 0.500000 0.000000
O O1 0.718128 0.288740 0.361725
O O2 0.513319 0.298898 0.322786
O O3 0.562338 0.376011 0.456031
O O4 0.591509 0.093291 0.432815
O O5 0.787978 0.703085 0.772260
O O6 0.893231 0.816648 0.882732
O O7 0.708023 0.958125 0.820218
O O8 0.896543 0.976038 0.763911
O O9 0.533857 0.129665 0.959452
O O10 0.570899 0.197223 0.828716
O O11 0.576527 0.591029 0.061999
#
# Coordination Sequence:
#
# PCOD9316869 Si02
#       7
#     8   8   4   8   4   8   4
#     4  10  22  39  66  94 132 176 232 271 346 407
#     4  11  22  41  66 100 134 171 225 283 350 401
#     4  10  26  42  62  96 136 184 218 290 348 394
#     4  11  23  39  68 100 126 175 227 277 342 415
#     4  10  18  42  66  92 132 180 212 290 338 398
#     4  11  22  43  64  94 136 176 222 283 341 407
#     4  10  18  42  66  86 134 184 212 282 348 402
#
# _framework density 22.930339
#
# number of rings (size 3 to 8) (size 9 to 14) (size 15 to 20)
#    0.000    1.455    5.455    0.000    2.545    4.364 
#    0.000    0.000    0.000    0.000    0.000    0.000 
#    0.000    0.000    0.000    0.000    0.000    0.000 
#
# Total GULP energy -122469.496123 kJ/mol
# GULP energy per Si atom -5566.795278 kJ/mol
# Density = 2.287815 g / cm^3
# Si number density = 22.930339 Si / 1000 Ang^3
#
#
#
# Elastic Constant Matrix: (Units=GPa)
#
#
# Indices 1 2 3 4 5 6 
#
# 1 18.2744 13.5982 7.7141 0.0000 0.0000 0.0000
# 2 13.5982 101.9001 28.3349 0.0000 0.0000 0.0000
# 3 7.7141 28.3349 100.7360 0.0000 0.0000 0.0000
# 4 0.0000 0.0000 0.0000 54.0859 0.0000 0.0000
# 5 0.0000 0.0000 0.0000 0.0000 17.0742 0.0000
# 6 0.0000 0.0000 0.0000 0.0000 0.0000 15.8365
#
#
#
# Elastic Compliance Matrix: (Units=1/GPa)
#
#
# Indices 1 2 3 4 5 6 
#
# 1 0.061375 -0.007467 -0.002600 0.000000 0.000000 0.000000
# 2 -0.007467 0.011555 -0.002678 0.000000 0.000000 0.000000
# 3 -0.002600 -0.002678 0.010879 0.000000 0.000000 0.000000
# 4 0.000000 0.000000 0.000000 0.018489 0.000000 0.000000
# 5 0.000000 0.000000 0.000000 0.000000 0.058568 0.000000
# 6 0.000000 0.000000 0.000000 0.000000 0.000000 0.063145
#
#
# Mechanical properties :
#
#
# Convention : Reuss Voigt Hill
#
# Bulk Modulus (GPa) = 17.14709 35.57831 26.36270
# Shear Modulus (GPa) = 18.59138 28.81688 23.70413
#
# Velocity S-wave (km/s) = 2.85050 3.54886 3.21868
# Velocity P-wave (km/s) = 4.28112 5.68701 5.03339
#
# Compressibility (1/GPa) = 0.05831893
#
# Stress axis : x y z
#
# Youngs Moduli (GPa) = 16.29320 86.54439 91.91738
#
# Poissons Ratio (x) = 0.64627 0.23894
# Poissons Ratio (y) = 0.12167 0.24618
# Poissons Ratio (z) = 0.04235 0.23179
#
# Static dielectric constant tensor:
#      x y z
#    x 1.934830 0.000000 0.000000 
#    y 0.000000 1.869930 0.000000 
#    z 0.000000 0.000000 2.002070 
# 
# From -- ./inp_files/24769.got.cif
#   From: 2010.05.17/outbox.cif.g08.bks.cpg/sg20_13_cif.got.tgz:24769.got - 2010.06.03 22:52:26.
