data_PCOD9316534
_publ_section_title
;
Structure prediction by ZEFSAII (Michael W. Deem and Ramdas Pophale) SiO2 
 PCOD9316534
Probable space group: C 2 2 21
;
_chemical_formula_sum "Si O2"
_cell_formula_units_Z 64
_cell_length_a 21.188332
_cell_length_b 9.407652
_cell_length_c 17.675297
_cell_angle_alpha 90.000000
_cell_angle_beta 90.000000
_cell_angle_gamma 90.000000
_cell_volume 3523.260325
_symmetry_space_group_name_H-M "C 2 2 21"
_symmetry_group_IT_number 20
_symmetry_cell_setting 'orthorhombic'
loop_
_space_group_symop_operation_xyz
x,y,z
-x,-y,1/2+z
x,-y,-z
-x,y,1/2-z
1/2+x,1/2+y,z
1/2-x,1/2-y,1/2+z
1/2+x,1/2-y,-z
1/2-x,1/2+y,1/2-z
loop_
_atom_site_type_symbol
_atom_site_label
_atom_site_fract_x
_atom_site_fract_y
_atom_site_fract_z
Si Si1 0.359614 0.222119 0.161514
Si Si2 0.218011 0.793664 0.990828
Si Si3 0.174106 0.963640 0.124328
Si Si4 0.200582 0.557995 0.720845
Si Si5 0.248466 0.433335 0.120900
Si Si6 0.368878 0.163540 0.998224
Si Si7 0.148828 0.164456 0.356772
Si Si8 0.425476 0.548444 0.747983
O O1 0.294186 0.309739 0.155341
O O2 0.403180 0.297481 0.222315
O O3 0.342117 0.060986 0.180771
O O4 0.388340 0.232114 0.077577
O O5 0.218168 0.639116 0.952489
O O6 0.188621 0.902285 0.929502
O O7 0.183778 0.826646 0.069971
O O8 0.291753 0.835246 0.002417
O O9 0.228776 0.960970 0.187945
O O10 0.107974 0.973013 0.167045
O O11 0.201439 0.534017 0.810539
O O12 0.177891 0.713526 0.696486
O O13 0.294772 0.566876 0.109019
O O14 0.386167 0.255263 0.925254
O O15 0.389322 0.000000 0.000000
O O16 0.105374 0.062915 0.306824
O O17 0.500000 0.534860 0.750000
#
# Coordination Sequence:
#
# PCOD9316534 Si02
#       8
#     8   8   8   8   8   8   8   8
#     4  10  20  34  58  84 118 158 193 243 304 370
#     4  10  18  32  53  88 124 157 186 233 325 394
#     4  11  18  35  61  84 123 161 194 246 316 379
#     4  12  17  33  58  93 119 153 190 251 325 375
#     4  10  20  28  49  91 130 145 189 241 305 382
#     4  11  17  33  55  89 126 142 182 237 320 387
#     4  11  21  33  60  89 125 160 188 256 307 365
#     4  11  26  43  56  82 121 167 225 254 283 349
#
# _framework density 18.164994
#
# number of rings (size 3 to 8) (size 9 to 14) (size 15 to 20)
#    0.000    1.250    8.750    1.500    0.000    4.500 
#    0.000    3.125    0.000    0.000    0.000    0.000 
#    0.000    0.000    0.000    0.000    0.000    0.000 
#
# Total GULP energy -178609.943174 kJ/mol
# GULP energy per Si atom -5581.560724 kJ/mol
# Density = 1.812365 g / cm^3
# Si number density = 18.164994 Si / 1000 Ang^3
#
#
#
# Elastic Constant Matrix: (Units=GPa)
#
#
# Indices 1 2 3 4 5 6 
#
# 1 67.2303 22.9792 20.8153 0.0000 0.0000 0.0000
# 2 22.9792 93.0663 32.7418 0.0000 0.0000 0.0000
# 3 20.8153 32.7418 84.0863 0.0000 0.0000 0.0000
# 4 0.0000 0.0000 0.0000 41.3421 0.0000 0.0000
# 5 0.0000 0.0000 0.0000 0.0000 9.6012 0.0000
# 6 0.0000 0.0000 0.0000 0.0000 0.0000 5.2569
#
#
#
# Elastic Compliance Matrix: (Units=1/GPa)
#
#
# Indices 1 2 3 4 5 6 
#
# 1 0.016857 -0.003122 -0.002957 0.000000 0.000000 0.000000
# 2 -0.003122 0.013029 -0.004300 0.000000 0.000000 0.000000
# 3 -0.002957 -0.004300 0.014299 0.000000 0.000000 0.000000
# 4 0.000000 0.000000 0.000000 0.024188 0.000000 0.000000
# 5 0.000000 0.000000 0.000000 0.000000 0.104154 0.000000
# 6 0.000000 0.000000 0.000000 0.000000 0.000000 0.190227
#
#
# Mechanical properties :
#
#
# Convention : Reuss Voigt Hill
#
# Bulk Modulus (GPa) = 42.68790 44.16170 43.42480
# Shear Modulus (GPa) = 12.77720 22.42980 17.60350
#
# Velocity S-wave (km/s) = 2.65504 3.51776 3.11640
# Velocity P-wave (km/s) = 5.74022 6.39247 6.07510
#
# Compressibility (1/GPa) = 0.02342584
#
# Stress axis : x y z
#
# Youngs Moduli (GPa) = 59.32300 76.75330 69.93434
#
# Poissons Ratio (x) = 0.23960 0.20682
# Poissons Ratio (y) = 0.18519 0.30075
# Poissons Ratio (z) = 0.17544 0.33007
#
# Static dielectric constant tensor:
#      x y z
#    x 1.578650 0.000000 0.000000 
#    y 0.000000 1.661950 0.000000 
#    z 0.000000 0.000000 1.697610 
# 
# From -- ./inp_files/25492.got.cif
#   From: 2010.05.17/outbox.cif.g08.bks.cpg/sg20_13_cif.got.tgz:25492.got - 2010.06.03 22:52:26.
