data_PCOD9316242
_publ_section_title
;
Structure prediction by ZEFSAII (Michael W. Deem and Ramdas Pophale) SiO2 
 PCOD9316242
Probable space group: C 2 2 21
;
_chemical_formula_sum "Si O2"
_cell_formula_units_Z 52
_cell_length_a 9.063864
_cell_length_b 26.518089
_cell_length_c 11.718525
_cell_angle_alpha 90.000000
_cell_angle_beta 90.000000
_cell_angle_gamma 90.000000
_cell_volume 2816.621923
_symmetry_space_group_name_H-M "C 2 2 21"
_symmetry_group_IT_number 20
_symmetry_cell_setting 'orthorhombic'
loop_
_space_group_symop_operation_xyz
x,y,z
-x,-y,1/2+z
x,-y,-z
-x,y,1/2-z
1/2+x,1/2+y,z
1/2-x,1/2-y,1/2+z
1/2+x,1/2-y,-z
1/2-x,1/2+y,1/2-z
loop_
_atom_site_type_symbol
_atom_site_label
_atom_site_fract_x
_atom_site_fract_y
_atom_site_fract_z
Si Si1 0.500000 0.994972 0.750000
Si Si2 0.000000 0.771087 0.250000
Si Si3 0.500000 0.247582 0.750000
Si Si4 0.939491 0.004180 0.124368
Si Si5 0.771825 0.676855 0.625008
Si Si6 0.286547 0.082118 0.331054
Si Si7 0.151438 0.565407 0.913321
Si Si8 0.228952 0.305288 0.856561
O O1 0.638257 0.956922 0.744358
O O2 0.524005 0.032485 0.855843
O O3 0.880123 0.805265 0.184078
O O4 0.902450 0.733728 0.329115
O O5 0.403040 0.212321 0.668436
O O6 0.381250 0.281300 0.815121
O O7 0.876599 0.061013 0.142131
O O8 0.000000 0.989780 0.250000
O O9 0.798020 0.968240 0.103224
O O10 0.021474 0.000000 0.000000
O O11 0.816884 0.618919 0.645508
O O12 0.758364 0.683777 0.489988
O O13 0.370730 0.074986 0.452335
O O14 0.294379 0.140198 0.297553
#
# Coordination Sequence:
#
# PCOD9316242 Si02
#       8
#     4   4   4   8   8   8   8   8
#     4  10  16  32  54  74 100 134 178 216 258 334
#     4  10  21  34  56  82 108 142 193 228 280 330
#     4  10  21  34  56  82 108 142 193 228 280 330
#     4   9  18  33  52  74 103 138 177 219 271 329
#     4  10  20  36  55  79 111 146 184 232 284 335
#     4   9  19  33  52  74 103 141 174 218 278 328
#     4   9  19  33  52  74 103 141 174 218 278 328
#     4  10  20  36  55  79 111 146 184 232 284 335
#
# _framework density 18.461831
#
# number of rings (size 3 to 8) (size 9 to 14) (size 15 to 20)
#    0.000    2.462    0.000    3.231    2.154    0.000 
#    0.000    6.154    0.000    7.385    0.000    0.000 
#    0.000    0.000    0.000    0.000    0.000    0.000 
#
# Total GULP energy -144762.129463 kJ/mol
# GULP energy per Si atom -5567.774210 kJ/mol
# Density = 1.841981 g / cm^3
# Si number density = 18.461831 Si / 1000 Ang^3
#
#
#
# Elastic Constant Matrix: (Units=GPa)
#
#
# Indices 1 2 3 4 5 6 
#
# 1 69.7658 43.9611 29.5037 0.0000 0.0000 0.0000
# 2 43.9611 146.9363 34.0065 0.0000 0.0000 0.0000
# 3 29.5037 34.0065 74.8826 0.0000 0.0000 0.0000
# 4 0.0000 0.0000 0.0000 28.5850 0.0000 0.0000
# 5 0.0000 0.0000 0.0000 0.0000 19.1661 0.0000
# 6 0.0000 0.0000 0.0000 0.0000 0.0000 10.4326
#
#
#
# Elastic Compliance Matrix: (Units=1/GPa)
#
#
# Indices 1 2 3 4 5 6 
#
# 1 0.019593 -0.004554 -0.005652 0.000000 0.000000 0.000000
# 2 -0.004554 0.008663 -0.002140 0.000000 0.000000 0.000000
# 3 -0.005652 -0.002140 0.016553 0.000000 0.000000 0.000000
# 4 0.000000 0.000000 0.000000 0.034983 0.000000 0.000000
# 5 0.000000 0.000000 0.000000 0.000000 0.052176 0.000000
# 6 0.000000 0.000000 0.000000 0.000000 0.000000 0.095853
#
#
# Mechanical properties :
#
#
# Convention : Reuss Voigt Hill
#
# Bulk Modulus (GPa) = 49.70630 56.28082 52.99356
# Shear Modulus (GPa) = 19.28867 23.91095 21.59981
#
# Velocity S-wave (km/s) = 3.23582 3.60273 3.42420
# Velocity P-wave (km/s) = 6.39867 6.91790 6.66335
#
# Compressibility (1/GPa) = 0.02011818
#
# Stress axis : x y z
#
# Youngs Moduli (GPa) = 51.03782 115.42744 60.41253
#
# Poissons Ratio (x) = 0.52566 0.34143
# Poissons Ratio (y) = 0.23243 0.12929
# Poissons Ratio (z) = 0.28845 0.24702
#
# Static dielectric constant tensor:
#      x y z
#    x 1.648290 0.000000 0.000000 
#    y 0.000000 1.655940 0.000000 
#    z 0.000000 0.000000 1.657000 
# 
# From -- ./inp_files/13259.got.cif
#   From: 2010.05.17/outbox.cif.g08.bks.cpg/sg20_7_cif.got.tgz:13259.got - 2010.06.03 22:52:26.
