data_PCOD9316940
_publ_section_title
;
Structure prediction by ZEFSAII (Michael W. Deem and Ramdas Pophale) SiO2 
 PCOD9316940
Probable space group: C 2 2 21
;
_chemical_formula_sum "Si O2"
_cell_formula_units_Z 48
_cell_length_a 16.034666
_cell_length_b 7.426932
_cell_length_c 19.202497
_cell_angle_alpha 90.000000
_cell_angle_beta 90.000000
_cell_angle_gamma 90.000000
_cell_volume 2286.794145
_symmetry_space_group_name_H-M "C 2 2 21"
_symmetry_group_IT_number 20
_symmetry_cell_setting 'orthorhombic'
loop_
_space_group_symop_operation_xyz
x,y,z
-x,-y,1/2+z
x,-y,-z
-x,y,1/2-z
1/2+x,1/2+y,z
1/2-x,1/2-y,1/2+z
1/2+x,1/2-y,-z
1/2-x,1/2+y,1/2-z
loop_
_atom_site_type_symbol
_atom_site_label
_atom_site_fract_x
_atom_site_fract_y
_atom_site_fract_z
Si Si1 0.368764 0.329744 0.201080
Si Si2 0.457417 0.443869 0.343739
Si Si3 0.837682 0.584014 0.822644
Si Si4 0.195944 0.991045 0.079955
Si Si5 0.692306 0.143066 0.831747
Si Si6 0.016559 0.628597 0.829745
O O1 0.402862 0.383507 0.276850
O O2 0.452190 0.352277 0.155056
O O3 0.286186 0.434601 0.174199
O O4 0.337816 0.124566 0.201594
O O5 0.397497 0.418061 0.409254
O O6 0.472431 0.656415 0.332587
O O7 0.761890 0.618862 0.874083
O O8 0.828658 0.691013 0.749774
O O9 0.925846 0.600880 0.862163
O O10 0.196763 0.189014 0.115588
O O11 0.219360 0.000000 0.000000
O O12 0.605011 0.044987 0.853005
O O13 0.000000 0.567293 0.750000
#
# Coordination Sequence:
#
# PCOD9316940 Si02
#       6
#     8   8   8   8   8   8
#     4  10  19  31  53  87 115 140 199 238 287 334
#     4  10  19  33  51  85 114 153 189 243 283 356
#     4  10  20  34  57  90 111 155 190 254 283 353
#     4  10  21  40  60  84 118 162 194 240 310 362
#     4   9  19  33  54  82 113 149 195 241 288 348
#     4   9  17  31  51  79 115 140 192 236 301 328
#
# _framework density 20.990082999999998
#
# number of rings (size 3 to 8) (size 9 to 14) (size 15 to 20)
#    0.000    2.333    3.333    0.000    7.000    0.000 
#    0.000    6.667    0.000    1.000    0.000    0.000 
#    0.000    0.000    0.000    0.000    0.000    0.000 
#
# Total GULP energy -133602.000807 kJ/mol
# GULP energy per Si atom -5566.750034 kJ/mol
# Density = 2.094231 g / cm^3
# Si number density = 20.990083 Si / 1000 Ang^3
#
#
#
# Elastic Constant Matrix: (Units=GPa)
#
#
# Indices 1 2 3 4 5 6 
#
# 1 188.7204 -5.7776 21.4773 0.0000 0.0000 0.0000
# 2 -5.7776 45.3535 7.3930 0.0000 0.0000 0.0000
# 3 21.4773 7.3930 66.1735 0.0000 0.0000 0.0000
# 4 0.0000 0.0000 0.0000 15.7347 0.0000 0.0000
# 5 0.0000 0.0000 0.0000 0.0000 15.5521 0.0000
# 6 0.0000 0.0000 0.0000 0.0000 0.0000 27.0319
#
#
#
# Elastic Compliance Matrix: (Units=1/GPa)
#
#
# Indices 1 2 3 4 5 6 
#
# 1 0.005548 0.001019 -0.001914 0.000000 0.000000 0.000000
# 2 0.001019 0.022645 -0.002861 0.000000 0.000000 0.000000
# 3 -0.001914 -0.002861 0.016053 0.000000 0.000000 0.000000
# 4 0.000000 0.000000 0.000000 0.063554 0.000000 0.000000
# 5 0.000000 0.000000 0.000000 0.000000 0.064300 0.000000
# 6 0.000000 0.000000 0.000000 0.000000 0.000000 0.036993
#
#
# Mechanical properties :
#
#
# Convention : Reuss Voigt Hill
#
# Bulk Modulus (GPa) = 27.22330 38.49254 32.85792
# Shear Modulus (GPa) = 21.84841 30.14073 25.99457
#
# Velocity S-wave (km/s) = 3.22979 3.79351 3.52294
# Velocity P-wave (km/s) = 5.18714 6.12910 5.67769
#
# Compressibility (1/GPa) = 0.03673324
#
# Stress axis : x y z
#
# Youngs Moduli (GPa) = 180.24810 44.15970 62.29471
#
# Poissons Ratio (x) = -0.04499 0.11926
# Poissons Ratio (y) = -0.18364 0.17820
# Poissons Ratio (z) = 0.34508 0.12632
#
# Static dielectric constant tensor:
#      x y z
#    x 1.918600 0.000000 0.000000 
#    y 0.000000 1.828340 0.000000 
#    z 0.000000 0.000000 1.708000 
# 
# From -- ./inp_files/27450.got.cif
#   From: 2010.05.17/outbox.cif.g08.bks.cpg/sg20_14_cif.got.tgz:27450.got - 2010.06.03 22:52:26.
