data_PCOD9316267
_publ_section_title
;
Structure prediction by ZEFSAII (Michael W. Deem and Ramdas Pophale) SiO2 
 PCOD9316267
Probable space group: C 2 2 21
;
_chemical_formula_sum "Si O2"
_cell_formula_units_Z 48
_cell_length_a 21.806823
_cell_length_b 10.000494
_cell_length_c 12.207624
_cell_angle_alpha 90.000000
_cell_angle_beta 90.000000
_cell_angle_gamma 90.000000
_cell_volume 2662.226466
_symmetry_space_group_name_H-M "C 2 2 21"
_symmetry_group_IT_number 20
_symmetry_cell_setting 'orthorhombic'
loop_
_space_group_symop_operation_xyz
x,y,z
-x,-y,1/2+z
x,-y,-z
-x,y,1/2-z
1/2+x,1/2+y,z
1/2-x,1/2-y,1/2+z
1/2+x,1/2-y,-z
1/2-x,1/2+y,1/2-z
loop_
_atom_site_type_symbol
_atom_site_label
_atom_site_fract_x
_atom_site_fract_y
_atom_site_fract_z
Si Si1 0.677046 0.310150 0.236975
Si Si2 0.965786 0.347517 0.470930
Si Si3 0.254673 0.441272 0.681193
Si Si4 0.337058 0.000000 0.000000
Si Si5 0.500000 0.965466 0.250000
Si Si6 0.859052 0.146522 0.487630
Si Si7 0.925666 0.681100 0.132421
O O1 0.712081 0.450302 0.258273
O O2 0.717755 0.180159 0.264709
O O3 0.613462 0.292598 0.304223
O O4 0.664653 0.313168 0.107416
O O5 0.947609 0.500000 0.500000
O O6 0.997844 0.371552 0.355177
O O7 0.908102 0.254745 0.453783
O O8 0.011304 0.292839 0.565856
O O9 0.207161 0.522937 0.603647
O O10 0.304678 0.376063 0.599152
O O11 0.380986 0.881753 0.959581
O O12 0.443876 0.067059 0.222037
O O13 0.888921 0.000000 0.500000
#
# Coordination Sequence:
#
# PCOD9316267 Si02
#       7
#     8   8   8   4   4   8   8
#     4  10  20  36  61  84 111 158 196 238 302 355
#     4  10  20  36  58  88 113 147 201 246 285 345
#     4  10  21  37  59  86 112 157 196 239 299 354
#     4  10  16  36  58  76 120 150 186 238 296 346
#     4  10  18  34  54  96 110 150 200 236 306 338
#     4  10  21  40  56  79 122 154 187 238 306 359
#     4  10  19  33  60  87 117 149 195 250 291 347
#
# _framework density 18.03002
#
# number of rings (size 3 to 8) (size 9 to 14) (size 15 to 20)
#    0.000    2.000    5.000    2.000    0.000    4.000 
#    0.000    3.333    0.000    0.000    0.000    0.000 
#    0.000    0.000    0.000    0.000    0.000    0.000 
#
# Total GULP energy -133612.096323 kJ/mol
# GULP energy per Si atom -5567.170680 kJ/mol
# Density = 1.798898 g / cm^3
# Si number density = 18.030020 Si / 1000 Ang^3
#
#
#
# Elastic Constant Matrix: (Units=GPa)
#
#
# Indices 1 2 3 4 5 6 
#
# 1 78.4587 39.9674 19.6423 0.0000 0.0000 0.0000
# 2 39.9674 74.7539 39.5188 0.0000 0.0000 0.0000
# 3 19.6423 39.5188 69.6005 0.0000 0.0000 0.0000
# 4 0.0000 0.0000 0.0000 22.8294 0.0000 0.0000
# 5 0.0000 0.0000 0.0000 0.0000 2.5747 0.0000
# 6 0.0000 0.0000 0.0000 0.0000 0.0000 23.5014
#
#
#
# Elastic Compliance Matrix: (Units=1/GPa)
#
#
# Indices 1 2 3 4 5 6 
#
# 1 0.017530 -0.009655 0.000535 0.000000 0.000000 0.000000
# 2 -0.009655 0.024433 -0.011148 0.000000 0.000000 0.000000
# 3 0.000535 -0.011148 0.020547 0.000000 0.000000 0.000000
# 4 0.000000 0.000000 0.000000 0.043803 0.000000 0.000000
# 5 0.000000 0.000000 0.000000 0.000000 0.388402 0.000000
# 6 0.000000 0.000000 0.000000 0.000000 0.000000 0.042551
#
#
# Mechanical properties :
#
#
# Convention : Reuss Voigt Hill
#
# Bulk Modulus (GPa) = 45.51074 46.78556 46.14815
# Shear Modulus (GPa) = 8.54517 18.02672 13.28594
#
# Velocity S-wave (km/s) = 2.17938 3.16542 2.71750
# Velocity P-wave (km/s) = 5.62400 6.27414 5.95795
#
# Compressibility (1/GPa) = 0.02197284
#
# Stress axis : x y z
#
# Youngs Moduli (GPa) = 57.04469 40.92843 48.67004
#
# Poissons Ratio (x) = 0.39518 -0.02604
# Poissons Ratio (y) = 0.55079 0.54257
# Poissons Ratio (z) = -0.03052 0.45627
#
# Static dielectric constant tensor:
#      x y z
#    x 1.683660 0.000000 0.000000 
#    y 0.000000 1.619340 0.000000 
#    z 0.000000 0.000000 1.652320 
# 
# From -- ./inp_files/16981.got.cif
#   From: 2010.05.17/outbox.cif.g08.bks.cpg/sg20_9_cif.got.tgz:16981.got - 2010.06.03 22:52:26.
