data_PCOD9316630
_publ_section_title
;
Structure prediction by ZEFSAII (Michael W. Deem and Ramdas Pophale) SiO2 
 PCOD9316630
Probable space group: C 2 2 21
;
_chemical_formula_sum "Si O2"
_cell_formula_units_Z 52
_cell_length_a 14.402929
_cell_length_b 8.445250
_cell_length_c 18.358846
_cell_angle_alpha 90.000000
_cell_angle_beta 90.000000
_cell_angle_gamma 90.000000
_cell_volume 2233.102763
_symmetry_space_group_name_H-M "C 2 2 21"
_symmetry_group_IT_number 20
_symmetry_cell_setting 'orthorhombic'
loop_
_space_group_symop_operation_xyz
x,y,z
-x,-y,1/2+z
x,-y,-z
-x,y,1/2-z
1/2+x,1/2+y,z
1/2-x,1/2-y,1/2+z
1/2+x,1/2-y,-z
1/2-x,1/2+y,1/2-z
loop_
_atom_site_type_symbol
_atom_site_label
_atom_site_fract_x
_atom_site_fract_y
_atom_site_fract_z
Si Si1 0.658626 0.937421 0.331848
Si Si2 0.828947 0.214697 0.879238
Si Si3 0.000000 0.269767 0.250000
Si Si4 0.562659 0.230915 0.531672
Si Si5 0.151522 0.248059 0.042788
Si Si6 0.474496 0.495786 0.862187
Si Si7 0.340800 0.614600 0.607329
O O1 0.588938 0.872335 0.271417
O O2 0.616530 0.879088 0.410266
O O3 0.762889 0.870564 0.331962
O O4 0.669470 0.125026 0.333411
O O5 0.727304 0.165693 0.907773
O O6 0.881703 0.078733 0.835177
O O7 0.888183 0.258540 0.953313
O O8 0.015405 0.147214 0.184683
O O9 0.452945 0.186703 0.535730
O O10 0.558028 0.407203 0.565148
O O11 0.156114 0.066603 0.074655
O O12 0.183409 0.228399 0.959476
O O13 0.552880 0.629079 0.869160
#
# Coordination Sequence:
#
# PCOD9316630 Si02
#       7
#     8   8   4   8   8   8   8
#     4  10  21  37  59  80 117 149 192 233 289 333
#     4  11  19  33  59  90 113 147 188 240 289 349
#     4  10  24  44  54  74 112 164 198 244 276 328
#     4  10  18  34  56  87 122 151 174 229 298 353
#     4   9  17  29  54  88 124 139 177 224 298 356
#     4  10  21  37  59  81 116 154 197 229 285 346
#     4   9  16  33  57  84 107 153 181 231 287 345
#
# _framework density 23.285986000000001
#
# number of rings (size 3 to 8) (size 9 to 14) (size 15 to 20)
#    0.000    2.154    3.077    0.923    0.000    0.615 
#    0.000   13.846    0.000    0.000    0.000    0.000 
#    0.000    0.000    0.000    0.000    0.000    0.000 
#
# Total GULP energy -145045.179641 kJ/mol
# GULP energy per Si atom -5578.660755 kJ/mol
# Density = 2.323299 g / cm^3
# Si number density = 23.285986 Si / 1000 Ang^3
#
#
#
# Elastic Constant Matrix: (Units=GPa)
#
#
# Indices 1 2 3 4 5 6 
#
# 1 90.1160 2.5001 -15.8722 0.0000 0.0000 0.0000
# 2 2.5001 35.2579 1.8578 0.0000 0.0000 0.0000
# 3 -15.8722 1.8578 36.0132 0.0000 0.0000 0.0000
# 4 0.0000 0.0000 0.0000 23.5024 0.0000 0.0000
# 5 0.0000 0.0000 0.0000 0.0000 24.5946 0.0000
# 6 0.0000 0.0000 0.0000 0.0000 0.0000 20.8709
#
#
#
# Elastic Compliance Matrix: (Units=1/GPa)
#
#
# Indices 1 2 3 4 5 6 
#
# 1 0.012076 -0.001140 0.005381 0.000000 0.000000 0.000000
# 2 -0.001140 0.028547 -0.001975 0.000000 0.000000 0.000000
# 3 0.005381 -0.001975 0.030241 0.000000 0.000000 0.000000
# 4 0.000000 0.000000 0.000000 0.042549 0.000000 0.000000
# 5 0.000000 0.000000 0.000000 0.000000 0.040659 0.000000
# 6 0.000000 0.000000 0.000000 0.000000 0.000000 0.047914
#
#
# Mechanical properties :
#
#
# Convention : Reuss Voigt Hill
#
# Bulk Modulus (GPa) = 13.26309 15.37318 14.31814
# Shear Modulus (GPa) = 22.46319 25.32034 23.89176
#
# Velocity S-wave (km/s) = 3.10928 3.30110 3.20662
# Velocity P-wave (km/s) = 4.31257 4.59847 4.45781
#
# Compressibility (1/GPa) = 0.07539722
#
# Stress axis : x y z
#
# Youngs Moduli (GPa) = 82.80734 35.02953 33.06755
#
# Poissons Ratio (x) = 0.03993 -0.17794
# Poissons Ratio (y) = 0.09439 0.06531
# Poissons Ratio (z) = -0.44560 0.06919
#
# Static dielectric constant tensor:
#      x y z
#    x 1.934980 0.000000 0.000000 
#    y 0.000000 1.883980 0.000000 
#    z 0.000000 0.000000 1.959860 
# 
# From -- ./inp_files/27509.got.cif
#   From: 2010.05.17/outbox.cif.g08.bks.cpg/sg20_14_cif.got.tgz:27509.got - 2010.06.03 22:52:26.
