data_PCOD9316343
_publ_section_title
;
Structure prediction by ZEFSAII (Michael W. Deem and Ramdas Pophale) SiO2 
 PCOD9316343
Probable space group: C 2 2 21
;
_chemical_formula_sum "Si O2"
_cell_formula_units_Z 64
_cell_length_a 17.700057
_cell_length_b 12.589817
_cell_length_c 15.634878
_cell_angle_alpha 90.000000
_cell_angle_beta 90.000000
_cell_angle_gamma 90.000000
_cell_volume 3484.083695
_symmetry_space_group_name_H-M "C 2 2 21"
_symmetry_group_IT_number 20
_symmetry_cell_setting 'orthorhombic'
loop_
_space_group_symop_operation_xyz
x,y,z
-x,-y,1/2+z
x,-y,-z
-x,y,1/2-z
1/2+x,1/2+y,z
1/2-x,1/2-y,1/2+z
1/2+x,1/2-y,-z
1/2-x,1/2+y,1/2-z
loop_
_atom_site_type_symbol
_atom_site_label
_atom_site_fract_x
_atom_site_fract_y
_atom_site_fract_z
Si Si1 0.117161 0.331588 0.039646
Si Si2 0.848834 0.472704 0.812988
Si Si3 0.277847 0.656211 0.688669
Si Si4 0.293884 0.890262 0.633553
Si Si5 0.156007 0.117751 0.974639
Si Si6 0.324537 0.190557 0.030333
Si Si7 0.770514 0.888783 0.119279
Si Si8 0.952206 0.411467 0.073226
O O1 0.182670 0.354924 0.107633
O O2 0.037991 0.375670 0.069823
O O3 0.151738 0.376422 0.949380
O O4 0.109454 0.206594 0.023227
O O5 0.783320 0.562106 0.824347
O O6 0.840195 0.428048 0.717508
O O7 0.839245 0.378562 0.883153
O O8 0.924518 0.535326 0.839031
O O9 0.257505 0.776943 0.660435
O O10 0.347868 0.630851 0.626975
O O11 0.296964 0.648313 0.787854
O O12 0.233987 0.983860 0.613106
O O13 0.243985 0.145127 0.997183
O O14 0.137936 0.000000 0.000000
O O15 0.313402 0.314499 0.051933
O O16 0.390445 0.172715 0.961438
O O17 0.945286 0.500000 0.000000
#
# Coordination Sequence:
#
# PCOD9316343 Si02
#       8
#     8   8   8   8   8   8   8   8
#     4  10  22  35  52  78 117 151 178 230 284 347
#     4  10  18  32  56  81 107 139 186 234 267 332
#     4  10  18  31  54  84 111 135 185 237 267 329
#     4  10  20  34  53  82 115 142 184 224 297 322
#     4  10  17  32  59  79 104 140 191 235 270 319
#     4  10  17  32  55  81 102 137 187 226 270 315
#     4  10  20  32  53  79 115 138 180 229 282 326
#     4  10  19  34  55  73 110 144 183 224 271 332
#
# _framework density 18.369249
#
# number of rings (size 3 to 8) (size 9 to 14) (size 15 to 20)
#    0.000    2.000    3.750    1.500    0.000    0.000 
#    0.000   10.000    2.750    0.000    0.000    0.000 
#    0.000    0.000    0.000    0.000    0.000    0.000 
#
# Total GULP energy -178295.317126 kJ/mol
# GULP energy per Si atom -5571.728660 kJ/mol
# Density = 1.832744 g / cm^3
# Si number density = 18.369249 Si / 1000 Ang^3
#
#
#
# Elastic Constant Matrix: (Units=GPa)
#
#
# Indices 1 2 3 4 5 6 
#
# 1 35.2776 5.6429 2.2056 0.0000 0.0000 0.0000
# 2 5.6429 132.4190 19.5567 0.0000 0.0000 0.0000
# 3 2.2056 19.5567 65.7765 0.0000 0.0000 0.0000
# 4 0.0000 0.0000 0.0000 27.7218 0.0000 0.0000
# 5 0.0000 0.0000 0.0000 0.0000 13.7685 0.0000
# 6 0.0000 0.0000 0.0000 0.0000 0.0000 23.1103
#
#
#
# Elastic Compliance Matrix: (Units=1/GPa)
#
#
# Indices 1 2 3 4 5 6 
#
# 1 0.028566 -0.001125 -0.000623 0.000000 0.000000 0.000000
# 2 -0.001125 0.007943 -0.002324 0.000000 0.000000 0.000000
# 3 -0.000623 -0.002324 0.015915 0.000000 0.000000 0.000000
# 4 0.000000 0.000000 0.000000 0.036073 0.000000 0.000000
# 5 0.000000 0.000000 0.000000 0.000000 0.072630 0.000000
# 6 0.000000 0.000000 0.000000 0.000000 0.000000 0.043271
#
#
# Mechanical properties :
#
#
# Convention : Reuss Voigt Hill
#
# Bulk Modulus (GPa) = 22.58430 32.03150 27.30790
# Shear Modulus (GPa) = 21.99729 26.65798 24.32764
#
# Velocity S-wave (km/s) = 3.46425 3.81363 3.64313
# Velocity P-wave (km/s) = 5.32191 6.07183 5.70920
#
# Compressibility (1/GPa) = 0.04427856
#
# Stress axis : x y z
#
# Youngs Moduli (GPa) = 35.00715 125.89792 62.83448
#
# Poissons Ratio (x) = 0.14167 0.03916
# Poissons Ratio (y) = 0.03939 0.14602
# Poissons Ratio (z) = 0.02182 0.29257
#
# Static dielectric constant tensor:
#      x y z
#    x 1.616860 0.000000 0.000000 
#    y 0.000000 1.683750 0.000000 
#    z 0.000000 0.000000 1.681600 
# 
# From -- ./inp_files/25364.got.cif
#   From: 2010.05.17/outbox.cif.g08.bks.cpg/sg20_13_cif.got.tgz:25364.got - 2010.06.03 22:52:26.
