data_PCOD9316565
_publ_section_title
;
Structure prediction by ZEFSAII (Michael W. Deem and Ramdas Pophale) SiO2 
 PCOD9316565
Probable space group: C 2 2 21
;
_chemical_formula_sum "Si O2"
_cell_formula_units_Z 56
_cell_length_a 7.533015
_cell_length_b 13.644874
_cell_length_c 22.842213
_cell_angle_alpha 90.000000
_cell_angle_beta 90.000000
_cell_angle_gamma 90.000000
_cell_volume 2347.883473
_symmetry_space_group_name_H-M "C 2 2 21"
_symmetry_group_IT_number 20
_symmetry_cell_setting 'orthorhombic'
loop_
_space_group_symop_operation_xyz
x,y,z
-x,-y,1/2+z
x,-y,-z
-x,y,1/2-z
1/2+x,1/2+y,z
1/2-x,1/2-y,1/2+z
1/2+x,1/2-y,-z
1/2-x,1/2+y,1/2-z
loop_
_atom_site_type_symbol
_atom_site_label
_atom_site_fract_x
_atom_site_fract_y
_atom_site_fract_z
Si Si1 0.918899 0.229625 0.577343
Si Si2 0.319880 0.169332 0.724132
Si Si3 0.129816 0.392757 0.842041
Si Si4 0.130075 0.622065 0.499923
Si Si5 0.157413 0.915453 0.165100
Si Si6 0.259654 0.607765 0.283760
Si Si7 0.444186 0.912046 0.390587
O O1 0.807643 0.295412 0.624785
O O2 0.801036 0.178185 0.527018
O O3 0.969185 0.138497 0.619433
O O4 0.063610 0.308200 0.553710
O O5 0.500000 0.122819 0.750000
O O6 0.176663 0.138997 0.772467
O O7 0.334338 0.285019 0.721538
O O8 0.324083 0.139199 0.657236
O O9 0.232018 0.425431 0.783514
O O10 0.122922 0.477210 0.890108
O O11 0.930730 0.380028 0.815886
O O12 0.159176 0.500000 0.500000
O O13 0.966595 0.631510 0.545744
O O14 0.352845 0.912927 0.134427
O O15 0.128141 0.028696 0.180543
#
# Coordination Sequence:
#
# PCOD9316565 Si02
#       7
#     8   8   8   8   8   8   8
#     4  11  23  42  69  96 128 170 232 280 322 400
#     4  10  18  32  57  88 126 166 208 258 327 403
#     4  10  18  34  63  90 122 161 214 264 316 410
#     4  11  24  44  71  93 127 181 228 277 336 383
#     4   9  18  34  59  88 123 162 208 265 317 399
#     4  10  19  32  58  94 126 168 202 257 349 400
#     4   9  18  35  59  87 115 164 217 256 321 393
#
# _framework density 23.851267
#
# number of rings (size 3 to 8) (size 9 to 14) (size 15 to 20)
#    0.000    2.000    4.286    0.000    0.000    1.143 
#    0.000    2.143   12.571    0.000    0.000    0.000 
#    0.000    0.000    0.000    0.000    0.000    0.000 
#
# Total GULP energy -156063.907858 kJ/mol
# GULP energy per Si atom -5573.710995 kJ/mol
# Density = 2.379698 g / cm^3
# Si number density = 23.851267 Si / 1000 Ang^3
#
#
#
# Elastic Constant Matrix: (Units=GPa)
#
#
# Indices 1 2 3 4 5 6 
#
# 1 -15.3919 30.6968 91.7410 0.0000 0.0000 0.0000
# 2 30.6968 112.4394 5.8235 0.0000 0.0000 0.0000
# 3 91.7410 5.8235 12.5871 0.0000 0.0000 0.0000
# 4 0.0000 0.0000 0.0000 50.6513 0.0000 0.0000
# 5 0.0000 0.0000 0.0000 0.0000 -0.9016 0.0000
# 6 0.0000 0.0000 0.0000 0.0000 0.0000 19.2543
#
#
#
# Elastic Compliance Matrix: (Units=1/GPa)
#
#
# Indices 1 2 3 4 5 6 
#
# 1 -0.001459 -0.000156 0.010708 0.000000 0.000000 0.000000
# 2 -0.000156 0.009095 -0.003070 0.000000 0.000000 0.000000
# 3 0.010708 -0.003070 0.002824 0.000000 0.000000 0.000000
# 4 0.000000 0.000000 0.000000 0.019743 0.000000 0.000000
# 5 0.000000 0.000000 0.000000 0.000000 -1.109198 0.000000
# 6 0.000000 0.000000 0.000000 0.000000 0.000000 0.051936
#
#
# Mechanical properties :
#
#
# Convention : Reuss Voigt Hill
#
# Bulk Modulus (GPa) = 39.33353 40.68415 40.00884
# Shear Modulus (GPa) = -4.83770 12.55904 3.86067
#
# Velocity S-wave (km/s) = -1.42572 2.29717 1.27364
# Velocity P-wave (km/s) = 3.71709 4.91228 4.35587
#
# Compressibility (1/GPa) = 0.02542360
#
# Stress axis : x y z
#
# Youngs Moduli (GPa) = -685.30551 109.94687 354.16191
#
# Poissons Ratio (x) = 0.01717 -3.79226
# Poissons Ratio (y) = -0.10705 1.08711
# Poissons Ratio (z) = 7.33805 0.33748
#
# Static dielectric constant tensor:
#      x y z
#    x 1.942270 0.000000 0.000000 
#    y 0.000000 2.065230 0.000000 
#    z 0.000000 0.000000 1.956570 
# 
# From -- ./inp_files/29136.got.cif
#   From: 2010.05.17/outbox.cif.g08.bks.cpg/sg20_15_cif.got.tgz:29136.got - 2010.06.03 22:52:26.
