data_PCOD9316541
_publ_section_title
;
Structure prediction by ZEFSAII (Michael W. Deem and Ramdas Pophale) SiO2 
 PCOD9316541
Probable space group: C 2 2 21
;
_chemical_formula_sum "Si O2"
_cell_formula_units_Z 32
_cell_length_a 37.213460
_cell_length_b 5.078513
_cell_length_c 7.314610
_cell_angle_alpha 90.000000
_cell_angle_beta 90.000000
_cell_angle_gamma 90.000000
_cell_volume 1382.381125
_symmetry_space_group_name_H-M "C 2 2 21"
_symmetry_group_IT_number 20
_symmetry_cell_setting 'orthorhombic'
loop_
_space_group_symop_operation_xyz
x,y,z
-x,-y,1/2+z
x,-y,-z
-x,y,1/2-z
1/2+x,1/2+y,z
1/2-x,1/2-y,1/2+z
1/2+x,1/2-y,-z
1/2-x,1/2+y,1/2-z
loop_
_atom_site_type_symbol
_atom_site_label
_atom_site_fract_x
_atom_site_fract_y
_atom_site_fract_z
Si Si1 0.959113 0.527071 0.282098
Si Si2 0.728356 0.116055 0.798047
Si Si3 0.920683 0.970589 0.721928
Si Si4 0.652809 0.251714 0.867966
O O1 0.954556 0.500000 0.500000
O O2 0.950017 0.237842 0.210386
O O3 0.000000 0.608084 0.250000
O O4 0.930936 0.741530 0.210022
O O5 0.751875 0.379826 0.804919
O O6 0.687489 0.183944 0.746069
O O7 0.724710 0.000000 0.000000
O O8 0.881410 0.847446 0.747746
O O9 0.922635 0.000000 0.500000
O O10 0.662321 0.500000 0.000000
O O11 0.643752 0.000000 0.000000
#
# Coordination Sequence:
#
# PCOD9316541 Si02
#       4
#     8   8   8   8
#     4  10  19  31  49  74 102 132 166 210 261 312
#     4  11  22  37  58  86 117 150 187 233 286 340
#     4   9  17  30  50  75 100 129 173 220 256 298
#     4  10  18  32  54  81 107 137 181 231 271 314
#
# _framework density 23.148465000000002
#
# number of rings (size 3 to 8) (size 9 to 14) (size 15 to 20)
#    0.000    2.000    0.000    8.250    0.000    0.000 
#    0.000    0.000    0.000    6.000    0.000    8.750 
#    0.000    0.000    0.000    0.000    0.000    0.000 
#
# Total GULP energy -89348.466474 kJ/mol
# GULP energy per Si atom -5584.279155 kJ/mol
# Density = 2.309578 g / cm^3
# Si number density = 23.148465 Si / 1000 Ang^3
#
#
#
# Elastic Constant Matrix: (Units=GPa)
#
#
# Indices 1 2 3 4 5 6 
#
# 1 170.2887 69.0877 -6.8019 0.0000 0.0000 0.0000
# 2 69.0877 161.6693 0.3289 0.0000 0.0000 0.0000
# 3 -6.8019 0.3289 32.6894 0.0000 0.0000 0.0000
# 4 0.0000 0.0000 0.0000 12.4716 0.0000 0.0000
# 5 0.0000 0.0000 0.0000 0.0000 20.0694 0.0000
# 6 0.0000 0.0000 0.0000 0.0000 0.0000 42.0162
#
#
#
# Elastic Compliance Matrix: (Units=1/GPa)
#
#
# Indices 1 2 3 4 5 6 
#
# 1 0.007179 -0.003071 0.001525 0.000000 0.000000 0.000000
# 2 -0.003071 0.007499 -0.000714 0.000000 0.000000 0.000000
# 3 0.001525 -0.000714 0.030915 0.000000 0.000000 0.000000
# 4 0.000000 0.000000 0.000000 0.080182 0.000000 0.000000
# 5 0.000000 0.000000 0.000000 0.000000 0.049827 0.000000
# 6 0.000000 0.000000 0.000000 0.000000 0.000000 0.023800
#
#
# Mechanical properties :
#
#
# Convention : Reuss Voigt Hill
#
# Bulk Modulus (GPa) = 24.34730 54.43075 39.38903
# Shear Modulus (GPa) = 22.97625 35.04696 29.01160
#
# Velocity S-wave (km/s) = 3.15391 3.89525 3.54402
# Velocity P-wave (km/s) = 4.87889 6.61781 5.81373
#
# Compressibility (1/GPa) = 0.04107231
#
# Stress axis : x y z
#
# Youngs Moduli (GPa) = 139.29040 133.34557 32.34635
#
# Poissons Ratio (x) = 0.40951 -0.04932
# Poissons Ratio (y) = 0.42777 0.02311
# Poissons Ratio (z) = -0.21238 0.09527
#
# Static dielectric constant tensor:
#      x y z
#    x 1.899520 0.000000 0.000000 
#    y 0.000000 1.870550 0.000000 
#    z 0.000000 0.000000 1.903140 
# 
# From -- ./inp_files/11238.got.cif
#   From: 2010.05.17/outbox.cif.g08.bks.cpg/sg20_6_cif.got.tgz:11238.got - 2010.06.03 22:52:26.
