data_PCOD9316609
_publ_section_title
;
Structure prediction by ZEFSAII (Michael W. Deem and Ramdas Pophale) SiO2 
 PCOD9316609
Probable space group: C 2 2 21
;
_chemical_formula_sum "Si O2"
_cell_formula_units_Z 44
_cell_length_a 17.660903
_cell_length_b 10.921889
_cell_length_c 12.367732
_cell_angle_alpha 90.000000
_cell_angle_beta 90.000000
_cell_angle_gamma 90.000000
_cell_volume 2385.617047
_symmetry_space_group_name_H-M "C 2 2 21"
_symmetry_group_IT_number 20
_symmetry_cell_setting 'orthorhombic'
loop_
_space_group_symop_operation_xyz
x,y,z
-x,-y,1/2+z
x,-y,-z
-x,y,1/2-z
1/2+x,1/2+y,z
1/2-x,1/2-y,1/2+z
1/2+x,1/2-y,-z
1/2-x,1/2+y,1/2-z
loop_
_atom_site_type_symbol
_atom_site_label
_atom_site_fract_x
_atom_site_fract_y
_atom_site_fract_z
Si Si1 0.652298 0.796707 0.619761
Si Si2 0.794254 0.121002 0.068872
Si Si3 0.256527 0.000000 0.000000
Si Si4 0.329791 0.706090 0.644347
Si Si5 0.047402 0.910617 0.648473
Si Si6 0.495718 0.314673 0.083510
O O1 0.672971 0.717857 0.515372
O O2 0.678601 0.720247 0.725563
O O3 0.560911 0.792015 0.622390
O O4 0.692431 0.924407 0.587688
O O5 0.715429 0.173032 0.108295
O O6 0.861900 0.105448 0.155592
O O7 0.785487 0.000000 0.000000
O O8 0.206871 0.093268 0.924684
O O9 0.418118 0.707065 0.615467
O O10 0.000000 0.867676 0.750000
O O11 0.015320 0.840242 0.543872
O O12 0.032029 0.055454 0.633015
#
# Coordination Sequence:
#
# PCOD9316609 Si02
#       6
#     8   8   4   8   8   8
#     4  10  21  39  61  81 123 160 192 252 308 350
#     4  10  21  38  55  90 119 151 198 253 303 362
#     4  10  24  40  58  94 116 156 214 244 296 378
#     4  11  23  36  64  87 121 156 198 253 303 356
#     4  10  18  33  63  82 116 154 205 255 297 349
#     4  10  20  35  55  90 112 152 206 243 296 370
#
# _framework density 18.443864000000001
#
# number of rings (size 3 to 8) (size 9 to 14) (size 15 to 20)
#    0.000    1.818    3.636    2.727    2.545    2.909 
#    1.636    0.000    0.000    0.000    0.000    0.000 
#    0.000    0.000    0.000    0.000    0.000    0.000 
#
# Total GULP energy -122482.001899 kJ/mol
# GULP energy per Si atom -5567.363723 kJ/mol
# Density = 1.840188 g / cm^3
# Si number density = 18.443864 Si / 1000 Ang^3
#
#
#
# Elastic Constant Matrix: (Units=GPa)
#
#
# Indices 1 2 3 4 5 6 
#
# 1 120.1700 47.0327 6.9535 0.0000 0.0000 0.0000
# 2 47.0327 48.1319 6.6572 0.0000 0.0000 0.0000
# 3 6.9535 6.6572 66.5970 0.0000 0.0000 0.0000
# 4 0.0000 0.0000 0.0000 16.3797 0.0000 0.0000
# 5 0.0000 0.0000 0.0000 0.0000 15.2274 0.0000
# 6 0.0000 0.0000 0.0000 0.0000 0.0000 17.6566
#
#
#
# Elastic Compliance Matrix: (Units=1/GPa)
#
#
# Indices 1 2 3 4 5 6 
#
# 1 0.013476 -0.013155 -0.000092 0.000000 0.000000 0.000000
# 2 -0.013155 0.033910 -0.002016 0.000000 0.000000 0.000000
# 3 -0.000092 -0.002016 0.015227 0.000000 0.000000 0.000000
# 4 0.000000 0.000000 0.000000 0.061051 0.000000 0.000000
# 5 0.000000 0.000000 0.000000 0.000000 0.065671 0.000000
# 6 0.000000 0.000000 0.000000 0.000000 0.000000 0.056636
#
#
# Mechanical properties :
#
#
# Convention : Reuss Voigt Hill
#
# Bulk Modulus (GPa) = 31.16655 39.57620 35.37138
# Shear Modulus (GPa) = 17.40995 21.46978 19.43986
#
# Velocity S-wave (km/s) = 3.07570 3.41553 3.25006
# Velocity P-wave (km/s) = 5.43580 6.08759 5.77091
#
# Compressibility (1/GPa) = 0.03208568
#
# Stress axis : x y z
#
# Youngs Moduli (GPa) = 74.20831 29.49000 65.67352
#
# Poissons Ratio (x) = 0.38794 0.00604
# Poissons Ratio (y) = 0.97622 0.13241
# Poissons Ratio (z) = 0.00683 0.05946
#
# Static dielectric constant tensor:
#      x y z
#    x 1.679760 0.000000 0.000000 
#    y 0.000000 1.718010 0.000000 
#    z 0.000000 0.000000 1.679520 
# 
# From -- ./inp_files/15653.got.cif
#   From: 2010.05.17/outbox.cif.g08.bks.cpg/sg20_8_cif.got.tgz:15653.got - 2010.06.03 22:52:26.
