data_PCOD9316621
_publ_section_title
;
Structure prediction by ZEFSAII (Michael W. Deem and Ramdas Pophale) SiO2 
 PCOD9316621
Probable space group: C 2 2 21
;
_chemical_formula_sum "Si O2"
_cell_formula_units_Z 52
_cell_length_a 16.558560
_cell_length_b 8.365142
_cell_length_c 19.635532
_cell_angle_alpha 90.000000
_cell_angle_beta 90.000000
_cell_angle_gamma 90.000000
_cell_volume 2719.809937
_symmetry_space_group_name_H-M "C 2 2 21"
_symmetry_group_IT_number 20
_symmetry_cell_setting 'orthorhombic'
loop_
_space_group_symop_operation_xyz
x,y,z
-x,-y,1/2+z
x,-y,-z
-x,y,1/2-z
1/2+x,1/2+y,z
1/2-x,1/2-y,1/2+z
1/2+x,1/2-y,-z
1/2-x,1/2+y,1/2-z
loop_
_atom_site_type_symbol
_atom_site_label
_atom_site_fract_x
_atom_site_fract_y
_atom_site_fract_z
Si Si1 0.302822 0.339803 0.655575
Si Si2 0.225406 0.970553 0.289720
Si Si3 0.913736 0.037167 0.580076
Si Si4 0.314785 0.500000 0.000000
Si Si5 0.757716 0.739270 0.395010
Si Si6 0.156642 0.469377 0.579584
Si Si7 0.915383 0.834990 0.119461
O O1 0.286874 0.172027 0.691843
O O2 0.285196 0.475619 0.712304
O O3 0.387275 0.377002 0.620333
O O4 0.237170 0.364272 0.595385
O O5 0.139403 0.907641 0.319796
O O6 0.257101 0.126610 0.329458
O O7 0.838326 0.159352 0.590170
O O8 0.993455 0.107144 0.614533
O O9 0.924687 0.000000 0.500000
O O10 0.260269 0.620708 0.042710
O O11 0.371360 0.403426 0.051918
O O12 0.680885 0.858841 0.390963
O O13 0.142262 0.500000 0.500000
O O14 0.090337 0.357920 0.614993
#
# Coordination Sequence:
#
# PCOD9316621 Si02
#       7
#     8   8   8   4   8   8   8
#     4  10  20  37  61  86 116 149 208 246 296 349
#     4  10  22  39  64  86 110 161 204 250 293 362
#     4  11  23  37  57  90 126 157 190 249 304 350
#     4  10  18  34  54  80 114 152 194 234 280 360
#     4  10  20  34  59  84 116 148 205 242 292 340
#     4  10  18  34  58  84 114 158 195 242 288 354
#     4  10  21  37  57  84 121 160 193 240 305 356
#
# _framework density 19.118981999999999
#
# number of rings (size 3 to 8) (size 9 to 14) (size 15 to 20)
#    0.000    1.846    2.308    3.692    4.308    0.615 
#    1.385    3.077    0.000    3.692    0.000    0.000 
#    0.000    0.000    0.000    0.000    0.000    0.000 
#
# Total GULP energy -144960.774473 kJ/mol
# GULP energy per Si atom -5575.414403 kJ/mol
# Density = 1.907547 g / cm^3
# Si number density = 19.118982 Si / 1000 Ang^3
#
#
#
# Elastic Constant Matrix: (Units=GPa)
#
#
# Indices 1 2 3 4 5 6 
#
# 1 89.1843 30.8682 13.4262 0.0000 0.0000 0.0000
# 2 30.8682 99.9942 18.1888 0.0000 0.0000 0.0000
# 3 13.4262 18.1888 56.3653 0.0000 0.0000 0.0000
# 4 0.0000 0.0000 0.0000 34.7925 0.0000 0.0000
# 5 0.0000 0.0000 0.0000 0.0000 10.9033 0.0000
# 6 0.0000 0.0000 0.0000 0.0000 0.0000 29.9856
#
#
#
# Elastic Compliance Matrix: (Units=1/GPa)
#
#
# Indices 1 2 3 4 5 6 
#
# 1 0.012738 -0.003591 -0.001875 0.000000 0.000000 0.000000
# 2 -0.003591 0.011637 -0.002900 0.000000 0.000000 0.000000
# 3 -0.001875 -0.002900 0.019124 0.000000 0.000000 0.000000
# 4 0.000000 0.000000 0.000000 0.028742 0.000000 0.000000
# 5 0.000000 0.000000 0.000000 0.000000 0.091715 0.000000
# 6 0.000000 0.000000 0.000000 0.000000 0.000000 0.033349
#
#
# Mechanical properties :
#
#
# Convention : Reuss Voigt Hill
#
# Bulk Modulus (GPa) = 37.36059 41.16780 39.26419
# Shear Modulus (GPa) = 22.42562 27.34032 24.88297
#
# Velocity S-wave (km/s) = 3.42855 3.78565 3.61152
# Velocity P-wave (km/s) = 5.93774 6.37866 6.16215
#
# Compressibility (1/GPa) = 0.02676617
#
# Stress axis : x y z
#
# Youngs Moduli (GPa) = 78.50528 85.93578 52.29077
#
# Poissons Ratio (x) = 0.30860 0.09806
# Poissons Ratio (y) = 0.28192 0.15163
# Poissons Ratio (z) = 0.14723 0.24919
#
# Static dielectric constant tensor:
#      x y z
#    x 1.658660 0.000000 0.000000 
#    y 0.000000 1.730700 0.000000 
#    z 0.000000 0.000000 1.683220 
# 
# From -- ./inp_files/25215.got.cif
#   From: 2010.05.17/outbox.cif.g08.bks.cpg/sg20_13_cif.got.tgz:25215.got - 2010.06.03 22:52:26.
