data_PCOD9316014
_publ_section_title
;
Structure prediction by ZEFSAII (Michael W. Deem and Ramdas Pophale) SiO2 
 PCOD9316014
Probable space group: P 21 21 21
;
_chemical_formula_sum "Si O2"
_cell_formula_units_Z 20
_cell_length_a 4.904108
_cell_length_b 26.083080
_cell_length_c 6.249719
_cell_angle_alpha 90.000000
_cell_angle_beta 90.000000
_cell_angle_gamma 90.000000
_cell_volume 799.428064
_symmetry_space_group_name_H-M "P 21 21 21"
_symmetry_group_IT_number 19
_symmetry_cell_setting 'orthorhombic'
loop_
_space_group_symop_operation_xyz
x,y,z
1/2-x,-y,1/2+z
1/2+x,1/2-y,-z
-x,1/2+y,1/2-z
loop_
_atom_site_type_symbol
_atom_site_label
_atom_site_fract_x
_atom_site_fract_y
_atom_site_fract_z
Si Si1 0.927084 0.040957 0.090539
Si Si2 0.487988 0.356041 0.712870
Si Si3 0.923194 0.440105 0.173063
Si Si4 0.207076 0.719747 0.560880
Si Si5 0.019156 0.835946 0.076083
O O1 0.049310 0.084126 0.249205
O O2 0.115287 0.045794 0.882420
O O3 0.956700 0.983795 0.174042
O O4 0.620232 0.056370 0.032772
O O5 0.207914 0.353418 0.588550
O O6 0.710764 0.327786 0.564990
O O7 0.432872 0.328381 0.940064
O O8 0.925848 0.383621 0.267301
O O9 0.947028 0.756900 0.589120
O O10 0.375055 0.706466 0.774606
#
# Coordination Sequence:
#
# PCOD9316014 Si02
#       5
#     4   4   4   4   4
#     4  12  24  43  71 108 152 193 241 299 366 444
#     4  12  26  47  77 109 148 195 247 309 374 445
#     4  12  24  43  71 108 152 193 241 299 366 444
#     4  12  28  50  78 108 150 198 252 320 378 438
#     4  12  26  47  77 109 148 195 247 309 374 445
#
# _framework density 25.017886000000001
#
# number of rings (size 3 to 8) (size 9 to 14) (size 15 to 20)
#    0.000    0.000    2.000    8.400    2.800    3.200 
#    0.000    0.000    0.000    0.000    0.000    0.000 
#    0.000    0.000    0.000    0.000    0.000    0.000 
#
# Total GULP energy -112071.216660 kJ/mol
# GULP energy per Si atom -5603.560833 kJ/mol
# Density = 2.496094 g / cm^3
# Si number density = 25.017886 Si / 1000 Ang^3
#
#
#
# Elastic Constant Matrix: (Units=GPa)
#
#
# Indices 1 2 3 4 5 6 
#
# 1 116.5184 28.2689 9.0961 0.0000 0.0000 0.0000
# 2 28.2689 76.8392 5.9683 0.0000 0.0000 0.0000
# 3 9.0961 5.9683 31.9989 0.0000 0.0000 0.0000
# 4 0.0000 0.0000 0.0000 35.5511 0.0000 0.0000
# 5 0.0000 0.0000 0.0000 0.0000 50.4021 0.0000
# 6 0.0000 0.0000 0.0000 0.0000 0.0000 34.7913
#
#
#
# Elastic Compliance Matrix: (Units=1/GPa)
#
#
# Indices 1 2 3 4 5 6 
#
# 1 0.009559 -0.003354 -0.002092 0.000000 0.000000 0.000000
# 2 -0.003354 0.014383 -0.001729 0.000000 0.000000 0.000000
# 3 -0.002092 -0.001729 0.032168 0.000000 0.000000 0.000000
# 4 0.000000 0.000000 0.000000 0.028129 0.000000 0.000000
# 5 0.000000 0.000000 0.000000 0.000000 0.019840 0.000000
# 6 0.000000 0.000000 0.000000 0.000000 0.000000 0.028743
#
#
# Mechanical properties :
#
#
# Convention : Reuss Voigt Hill
#
# Bulk Modulus (GPa) = 23.94648 34.66923 29.30786
# Shear Modulus (GPa) = 31.03810 36.28379 33.66094
#
# Velocity S-wave (km/s) = 3.52609 3.81243 3.67205
# Velocity P-wave (km/s) = 5.11569 5.76779 5.45150
#
# Compressibility (1/GPa) = 0.04175978
#
# Stress axis : x y z
#
# Youngs Moduli (GPa) = 104.60850 69.52858 31.08663
#
# Poissons Ratio (x) = 0.23323 0.06502
# Poissons Ratio (y) = 0.35090 0.05375
# Poissons Ratio (z) = 0.21881 0.12022
#
# Static dielectric constant tensor:
#      x y z
#    x 1.897910 0.000000 0.000000 
#    y 0.000000 2.023240 0.000000 
#    z 0.000000 0.000000 2.062490 
# 
# From -- ./inp_files/181.got.cif
#   From: 2010.05.17/outbox.cif.g08.bks.cpg/sg19_1_cif.got.tgz:181.got - 2010.06.03 22:46:19.
