data_PCOD9316734
_publ_section_title
;
Structure prediction by ZEFSAII (Michael W. Deem and Ramdas Pophale) SiO2 
 PCOD9316734
Probable space group: C 2 2 21
;
_chemical_formula_sum "Si O2"
_cell_formula_units_Z 48
_cell_length_a 18.633693
_cell_length_b 23.150484
_cell_length_c 5.098474
_cell_angle_alpha 90.000000
_cell_angle_beta 90.000000
_cell_angle_gamma 90.000000
_cell_volume 2199.374675
_symmetry_space_group_name_H-M "C 2 2 21"
_symmetry_group_IT_number 20
_symmetry_cell_setting 'orthorhombic'
loop_
_space_group_symop_operation_xyz
x,y,z
-x,-y,1/2+z
x,-y,-z
-x,y,1/2-z
1/2+x,1/2+y,z
1/2-x,1/2-y,1/2+z
1/2+x,1/2-y,-z
1/2-x,1/2+y,1/2-z
loop_
_atom_site_type_symbol
_atom_site_label
_atom_site_fract_x
_atom_site_fract_y
_atom_site_fract_z
Si Si1 0.500000 0.542258 0.250000
Si Si2 0.279736 0.895470 0.271625
Si Si3 0.924166 0.328391 0.325790
Si Si4 0.074125 0.752556 0.316953
Si Si5 0.346621 0.564512 0.127485
Si Si6 0.745580 0.500000 0.000000
Si Si7 0.275689 0.716291 0.609953
O O1 0.483655 0.500000 0.500000
O O2 0.429390 0.579743 0.177530
O O3 0.356553 0.870258 0.350105
O O4 0.210735 0.897834 0.467042
O O5 0.256866 0.846543 0.061159
O O6 0.291096 0.962420 0.198628
O O7 0.930125 0.299388 0.608408
O O8 0.000000 0.357144 0.250000
O O9 0.917718 0.276792 0.103814
O O10 0.144240 0.786602 0.224502
O O11 0.000000 0.785652 0.250000
O O12 0.306970 0.549275 0.395218
O O13 0.351014 0.500000 0.000000
O O14 0.268392 0.753412 0.346823
#
# Coordination Sequence:
#
# PCOD9316734 Si02
#       7
#     4   8   8   8   8   4   8
#     4  10  18  36  62  84 118 166 220 262 310 380
#     4  11  23  38  66  92 130 166 221 265 332 389
#     4  10  21  38  66  92 122 169 214 263 329 392
#     4  10  20  39  61  92 129 164 209 265 325 388
#     4   9  20  37  59  88 117 168 213 267 313 379
#     4  10  22  40  60  90 126 170 216 268 314 380
#     4  12  23  39  64  97 125 166 213 263 325 388
#
# _framework density 21.824387000000002
#
# number of rings (size 3 to 8) (size 9 to 14) (size 15 to 20)
#    0.000    1.667    4.167    0.000    4.667    0.000 
#    0.000    1.667    7.333    0.000    0.000    0.000 
#    0.000    0.000    0.000    0.000    0.000    0.000 
#
# Total GULP energy -133653.777681 kJ/mol
# GULP energy per Si atom -5568.907403 kJ/mol
# Density = 2.177471 g / cm^3
# Si number density = 21.824387 Si / 1000 Ang^3
#
#
#
# Elastic Constant Matrix: (Units=GPa)
#
#
# Indices 1 2 3 4 5 6 
#
# 1 142.4859 29.1986 1.6570 0.0000 0.0000 0.0000
# 2 29.1986 46.8452 12.1379 0.0000 0.0000 0.0000
# 3 1.6570 12.1379 88.5451 0.0000 0.0000 0.0000
# 4 0.0000 0.0000 0.0000 24.3980 0.0000 0.0000
# 5 0.0000 0.0000 0.0000 0.0000 23.8082 0.0000
# 6 0.0000 0.0000 0.0000 0.0000 0.0000 24.1836
#
#
#
# Elastic Compliance Matrix: (Units=1/GPa)
#
#
# Indices 1 2 3 4 5 6 
#
# 1 0.008072 -0.005176 0.000559 0.000000 0.000000 0.000000
# 2 -0.005176 0.025452 -0.003392 0.000000 0.000000 0.000000
# 3 0.000559 -0.003392 0.011748 0.000000 0.000000 0.000000
# 4 0.000000 0.000000 0.000000 0.040987 0.000000 0.000000
# 5 0.000000 0.000000 0.000000 0.000000 0.042002 0.000000
# 6 0.000000 0.000000 0.000000 0.000000 0.000000 0.041350
#
#
# Mechanical properties :
#
#
# Convention : Reuss Voigt Hill
#
# Bulk Modulus (GPa) = 34.18447 40.42925 37.30686
# Shear Modulus (GPa) = 25.59069 30.13680 27.86374
#
# Velocity S-wave (km/s) = 3.42800 3.72005 3.57701
# Velocity P-wave (km/s) = 5.60051 6.08413 5.84732
#
# Compressibility (1/GPa) = 0.02925305
#
# Stress axis : x y z
#
# Youngs Moduli (GPa) = 123.87766 39.28928 85.11919
#
# Poissons Ratio (x) = 0.20337 -0.04754
# Poissons Ratio (y) = 0.64123 0.28874
# Poissons Ratio (z) = -0.06919 0.13328
#
# Static dielectric constant tensor:
#      x y z
#    x 1.907190 0.000000 0.000000 
#    y 0.000000 1.830350 0.000000 
#    z 0.000000 0.000000 1.935140 
# 
# From -- ./inp_files/2740.got.cif
#   From: 2010.05.17/outbox.cif.g08.bks.cpg/sg20_2_cif.got.tgz:2740.got - 2010.06.03 22:52:26.
