data_PCOD9316591
_publ_section_title
;
Structure prediction by ZEFSAII (Michael W. Deem and Ramdas Pophale) SiO2 
 PCOD9316591
Probable space group: C 2 2 21
;
_chemical_formula_sum "Si O2"
_cell_formula_units_Z 56
_cell_length_a 32.306079
_cell_length_b 5.526880
_cell_length_c 12.740074
_cell_angle_alpha 90.000000
_cell_angle_beta 90.000000
_cell_angle_gamma 90.000000
_cell_volume 2274.763424
_symmetry_space_group_name_H-M "C 2 2 21"
_symmetry_group_IT_number 20
_symmetry_cell_setting 'orthorhombic'
loop_
_space_group_symop_operation_xyz
x,y,z
-x,-y,1/2+z
x,-y,-z
-x,y,1/2-z
1/2+x,1/2+y,z
1/2-x,1/2-y,1/2+z
1/2+x,1/2-y,-z
1/2-x,1/2+y,1/2-z
loop_
_atom_site_type_symbol
_atom_site_label
_atom_site_fract_x
_atom_site_fract_y
_atom_site_fract_z
Si Si1 0.368074 0.648929 0.842435
Si Si2 0.151704 0.354821 0.235382
Si Si3 0.720903 0.650484 0.617203
Si Si4 0.046261 0.258630 0.871615
Si Si5 0.257357 0.146580 0.835368
Si Si6 0.919681 0.755113 0.613084
Si Si7 0.042971 0.246568 0.561827
O O1 0.365800 0.368124 0.806507
O O2 0.326784 0.679503 0.914056
O O3 0.411353 0.706938 0.895048
O O4 0.362005 0.870380 0.760381
O O5 0.200064 0.353938 0.265890
O O6 0.129979 0.281389 0.124915
O O7 0.739633 0.386988 0.595094
O O8 0.722129 0.644892 0.747238
O O9 0.744312 0.899721 0.601082
O O10 0.061371 0.518425 0.831088
O O11 0.997015 0.258515 0.864489
O O12 0.065624 0.005570 0.833615
O O13 0.062429 0.252037 0.994564
O O14 0.042330 0.500000 0.500000
O O15 0.033709 0.000000 0.500000
#
# Coordination Sequence:
#
# PCOD9316591 Si02
#       7
#     8   8   8   8   8   8   8
#     4  10  21  33  50  78 105 127 160 212 256 296
#     4  10  19  33  49  80 110 124 156 207 266 295
#     4   8  14  27  44  69  98 127 158 185 228 291
#     4  10  19  35  53  69  89 131 184 200 224 300
#     4   8  14  25  46  68  99 132 152 182 231 298
#     4  10  18  33  54  72  96 128 163 212 238 290
#     4  12  21  38  57  70  92 132 182 210 237 297
#
# _framework density 24.617943
#
# number of rings (size 3 to 8) (size 9 to 14) (size 15 to 20)
#    0.000    2.286    2.857    1.714    0.000    0.000 
#    0.000    4.286    0.000    0.000    7.429    0.000 
#    0.000    0.000    0.000    0.000    0.000    0.000 
#
# Total GULP energy -156070.228115 kJ/mol
# GULP energy per Si atom -5573.936718 kJ/mol
# Density = 2.456191 g / cm^3
# Si number density = 24.617943 Si / 1000 Ang^3
#
#
#
# Elastic Constant Matrix: (Units=GPa)
#
#
# Indices 1 2 3 4 5 6 
#
# 1 97.1548 36.0349 21.0764 0.0000 0.0000 0.0000
# 2 36.0349 254.1185 26.4168 0.0000 0.0000 0.0000
# 3 21.0764 26.4168 42.7400 0.0000 0.0000 0.0000
# 4 0.0000 0.0000 0.0000 35.6677 0.0000 0.0000
# 5 0.0000 0.0000 0.0000 0.0000 18.3818 0.0000
# 6 0.0000 0.0000 0.0000 0.0000 0.0000 36.6788
#
#
#
# Elastic Compliance Matrix: (Units=1/GPa)
#
#
# Indices 1 2 3 4 5 6 
#
# 1 0.011829 -0.001145 -0.005126 0.000000 0.000000 0.000000
# 2 -0.001145 0.004316 -0.002103 0.000000 0.000000 0.000000
# 3 -0.005126 -0.002103 0.027225 0.000000 0.000000 0.000000
# 4 0.000000 0.000000 0.000000 0.028037 0.000000 0.000000
# 5 0.000000 0.000000 0.000000 0.000000 0.054402 0.000000
# 6 0.000000 0.000000 0.000000 0.000000 0.000000 0.027264
#
#
# Mechanical properties :
#
#
# Convention : Reuss Voigt Hill
#
# Bulk Modulus (GPa) = 37.56171 62.34106 49.95138
# Shear Modulus (GPa) = 27.98072 38.84467 33.41270
#
# Velocity S-wave (km/s) = 3.37501 3.97659 3.68808
# Velocity P-wave (km/s) = 5.52074 6.81636 6.20247
#
# Compressibility (1/GPa) = 0.02662286
#
# Stress axis : x y z
#
# Youngs Moduli (GPa) = 84.53514 231.68929 36.73087
#
# Poissons Ratio (x) = 0.26519 0.18828
# Poissons Ratio (y) = 0.09676 0.07726
# Poissons Ratio (z) = 0.43333 0.48731
#
# Static dielectric constant tensor:
#      x y z
#    x 1.931120 0.000000 0.000000 
#    y 0.000000 1.999640 0.000000 
#    z 0.000000 0.000000 2.018380 
# 
# From -- ./inp_files/22302.got.cif
#   From: 2010.05.17/outbox.cif.g08.bks.cpg/sg20_12_cif.got.tgz:22302.got - 2010.06.03 22:52:26.
