data_PCOD9316723
_publ_section_title
;
Structure prediction by ZEFSAII (Michael W. Deem and Ramdas Pophale) SiO2 
 PCOD9316723
Probable space group: C 2 2 21
;
_chemical_formula_sum "Si O2"
_cell_formula_units_Z 52
_cell_length_a 8.777272
_cell_length_b 19.114280
_cell_length_c 16.581490
_cell_angle_alpha 90.000000
_cell_angle_beta 90.000000
_cell_angle_gamma 90.000000
_cell_volume 2781.897050
_symmetry_space_group_name_H-M "C 2 2 21"
_symmetry_group_IT_number 20
_symmetry_cell_setting 'orthorhombic'
loop_
_space_group_symop_operation_xyz
x,y,z
-x,-y,1/2+z
x,-y,-z
-x,y,1/2-z
1/2+x,1/2+y,z
1/2-x,1/2-y,1/2+z
1/2+x,1/2-y,-z
1/2-x,1/2+y,1/2-z
loop_
_atom_site_type_symbol
_atom_site_label
_atom_site_fract_x
_atom_site_fract_y
_atom_site_fract_z
Si Si1 0.521838 0.875048 0.940374
Si Si2 0.581871 0.390859 0.416472
Si Si3 0.500000 0.761786 0.250000
Si Si4 0.803902 0.500000 0.500000
Si Si5 0.000000 0.152178 0.750000
Si Si6 0.649472 0.796734 0.093081
Si Si7 0.712724 0.241448 0.151408
Si Si8 0.700880 0.663580 0.006020
O O1 0.592172 0.952404 0.941541
O O2 0.605830 0.823453 0.876576
O O3 0.566642 0.843588 0.027597
O O4 0.339707 0.871971 0.946464
O O5 0.694052 0.448472 0.450941
O O6 0.553436 0.397327 0.322114
O O7 0.672571 0.316311 0.418244
O O8 0.427889 0.385663 0.467772
O O9 0.586108 0.807369 0.182120
O O10 0.365744 0.722239 0.200724
O O11 0.879073 0.204650 0.708363
O O12 0.625951 0.716677 0.069335
O O13 0.749480 0.285711 0.069542
#
# Coordination Sequence:
#
# PCOD9316723 Si02
#       8
#     8   8   4   4   4   8   8   8
#     4  10  21  38  57  80 118 155 201 241 288 359
#     4  10  21  36  59  82 118 152 205 238 297 359
#     4  12  20  30  55  97 128 148 178 238 334 356
#     4  10  24  40  56  76 116 166 200 238 282 358
#     4  10  18  36  59  91 116 144 184 266 308 344
#     4  10  19  33  55  92 120 146 186 247 306 354
#     4  10  21  33  59  93 121 147 191 247 320 354
#     4  10  19  35  61  86 111 153 200 259 297 352
#
# _framework density 18.692281000000001
#
# number of rings (size 3 to 8) (size 9 to 14) (size 15 to 20)
#    0.000    1.846    3.077    2.769    4.308    0.615 
#    0.000    0.769    0.000    7.385    0.000    0.000 
#    0.000    0.000    0.000    0.000    0.000    0.000 
#
# Total GULP energy -144787.537223 kJ/mol
# GULP energy per Si atom -5568.751432 kJ/mol
# Density = 1.864974 g / cm^3
# Si number density = 18.692281 Si / 1000 Ang^3
#
#
#
# Elastic Constant Matrix: (Units=GPa)
#
#
# Indices 1 2 3 4 5 6 
#
# 1 97.8684 31.1425 37.0436 0.0000 0.0000 0.0000
# 2 31.1425 64.6610 17.6091 0.0000 0.0000 0.0000
# 3 37.0436 17.6091 75.1069 0.0000 0.0000 0.0000
# 4 0.0000 0.0000 0.0000 13.8896 0.0000 0.0000
# 5 0.0000 0.0000 0.0000 0.0000 42.0669 0.0000
# 6 0.0000 0.0000 0.0000 0.0000 0.0000 17.4273
#
#
#
# Elastic Compliance Matrix: (Units=1/GPa)
#
#
# Indices 1 2 3 4 5 6 
#
# 1 0.014032 -0.005206 -0.005700 0.000000 0.000000 0.000000
# 2 -0.005206 0.018451 -0.001758 0.000000 0.000000 0.000000
# 3 -0.005700 -0.001758 0.016538 0.000000 0.000000 0.000000
# 4 0.000000 0.000000 0.000000 0.071996 0.000000 0.000000
# 5 0.000000 0.000000 0.000000 0.000000 0.023772 0.000000
# 6 0.000000 0.000000 0.000000 0.000000 0.000000 0.057381
#
#
# Mechanical properties :
#
#
# Convention : Reuss Voigt Hill
#
# Bulk Modulus (GPa) = 42.20750 45.46964 43.83857
# Shear Modulus (GPa) = 21.24073 24.79949 23.02011
#
# Velocity S-wave (km/s) = 3.37462 3.64637 3.51312
# Velocity P-wave (km/s) = 6.14925 6.48893 6.32137
#
# Compressibility (1/GPa) = 0.02369247
#
# Stress axis : x y z
#
# Youngs Moduli (GPa) = 71.26642 54.19638 60.46680
#
# Poissons Ratio (x) = 0.28214 0.34467
# Poissons Ratio (y) = 0.37100 0.10633
# Poissons Ratio (z) = 0.40623 0.09530
#
# Static dielectric constant tensor:
#      x y z
#    x 1.755080 0.000000 0.000000 
#    y 0.000000 1.640500 0.000000 
#    z 0.000000 0.000000 1.677600 
# 
# From -- ./inp_files/23738.got.cif
#   From: 2010.05.17/outbox.cif.g08.bks.cpg/sg20_12_cif.got.tgz:23738.got - 2010.06.03 22:52:26.
