data_PCOD9316070
_publ_section_title
;
Structure prediction by ZEFSAII (Michael W. Deem and Ramdas Pophale) SiO2 
 PCOD9316070
Probable space group: P 21 21 21
;
_chemical_formula_sum "Si O2"
_cell_formula_units_Z 12
_cell_length_a 4.819300
_cell_length_b 16.126806
_cell_length_c 6.123520
_cell_angle_alpha 90.000000
_cell_angle_beta 90.000000
_cell_angle_gamma 90.000000
_cell_volume 475.919461
_symmetry_space_group_name_H-M "P 21 21 21"
_symmetry_group_IT_number 19
_symmetry_cell_setting 'orthorhombic'
loop_
_space_group_symop_operation_xyz
x,y,z
1/2-x,-y,1/2+z
1/2+x,1/2-y,-z
-x,1/2+y,1/2-z
loop_
_atom_site_type_symbol
_atom_site_label
_atom_site_fract_x
_atom_site_fract_y
_atom_site_fract_z
Si Si1 0.991641 0.427822 0.210556
Si Si2 0.278005 0.198626 0.443318
Si Si3 0.473732 0.402945 0.915393
O O1 0.918380 0.376868 0.426470
O O2 0.108035 0.518786 0.264093
O O3 0.709698 0.436614 0.076651
O O4 0.209347 0.379558 0.058623
O O5 0.534518 0.260808 0.409577
O O6 0.116474 0.166976 0.231071
#
# Coordination Sequence:
#
# PCOD9316070 Si02
#       3
#     4   4   4
#     4  12  26  47  81 113 147 201 258 305 374 453
#     4  12  28  50  76 114 158 194 248 320 380 442
#     4  12  26  47  81 113 147 201 258 305 374 453
#
# _framework density 25.214351000000001
#
# number of rings (size 3 to 8) (size 9 to 14) (size 15 to 20)
#    0.000    0.000    3.333    6.000    4.667    5.333 
#    0.000    0.000    0.000    0.000    0.000    0.000 
#    0.000    0.000    0.000    0.000    0.000    0.000 
#
# Total GULP energy -67322.108678 kJ/mol
# GULP energy per Si atom -5610.175723 kJ/mol
# Density = 2.515696 g / cm^3
# Si number density = 25.214351 Si / 1000 Ang^3
#
#
#
# Elastic Constant Matrix: (Units=GPa)
#
#
# Indices 1 2 3 4 5 6 
#
# 1 148.5460 18.5613 19.8035 0.0000 0.0000 0.0000
# 2 18.5613 67.2484 -10.5891 0.0000 0.0000 0.0000
# 3 19.8035 -10.5891 22.5770 0.0000 0.0000 0.0000
# 4 0.0000 0.0000 0.0000 28.5687 0.0000 0.0000
# 5 0.0000 0.0000 0.0000 0.0000 64.4247 0.0000
# 6 0.0000 0.0000 0.0000 0.0000 0.0000 38.8953
#
#
#
# Elastic Compliance Matrix: (Units=1/GPa)
#
#
# Indices 1 2 3 4 5 6 
#
# 1 0.008423 -0.003766 -0.009155 0.000000 0.000000 0.000000
# 2 -0.003766 0.017740 0.011624 0.000000 0.000000 0.000000
# 3 -0.009155 0.011624 0.057775 0.000000 0.000000 0.000000
# 4 0.000000 0.000000 0.000000 0.035003 0.000000 0.000000
# 5 0.000000 0.000000 0.000000 0.000000 0.015522 0.000000
# 6 0.000000 0.000000 0.000000 0.000000 0.000000 0.025710
#
#
# Mechanical properties :
#
#
# Convention : Reuss Voigt Hill
#
# Bulk Modulus (GPa) = 12.29337 32.65806 22.47572
# Shear Modulus (GPa) = 26.33205 40.41743 33.37474
#
# Velocity S-wave (km/s) = 3.23511 4.00803 3.64213
# Velocity P-wave (km/s) = 4.34059 5.86510 5.15946
#
# Compressibility (1/GPa) = 0.08134463
#
# Stress axis : x y z
#
# Youngs Moduli (GPa) = 118.72213 56.36910 17.30845
#
# Poissons Ratio (x) = 0.21231 0.15846
# Poissons Ratio (y) = 0.44715 -0.20120
# Poissons Ratio (z) = 1.08688 -0.65525
#
# Static dielectric constant tensor:
#      x y z
#    x 1.916760 0.000000 0.000000 
#    y 0.000000 2.040070 0.000000 
#    z 0.000000 0.000000 2.015280 
# 
# From -- ./inp_files/4.got.cif
#   From: 2010.05.17/outbox.cif.g08.bks.cpg/sg19_1_cif.got.tgz:4.got - 2010.06.03 22:46:19.
