data_PCOD9316663
_publ_section_title
;
Structure prediction by ZEFSAII (Michael W. Deem and Ramdas Pophale) SiO2 
 PCOD9316663
Probable space group: C 2 2 21
;
_chemical_formula_sum "Si O2"
_cell_formula_units_Z 36
_cell_length_a 11.427994
_cell_length_b 15.011655
_cell_length_c 10.816747
_cell_angle_alpha 90.000000
_cell_angle_beta 90.000000
_cell_angle_gamma 90.000000
_cell_volume 1855.646515
_symmetry_space_group_name_H-M "C 2 2 21"
_symmetry_group_IT_number 20
_symmetry_cell_setting 'orthorhombic'
loop_
_space_group_symop_operation_xyz
x,y,z
-x,-y,1/2+z
x,-y,-z
-x,y,1/2-z
1/2+x,1/2+y,z
1/2-x,1/2-y,1/2+z
1/2+x,1/2-y,-z
1/2-x,1/2+y,1/2-z
loop_
_atom_site_type_symbol
_atom_site_label
_atom_site_fract_x
_atom_site_fract_y
_atom_site_fract_z
Si Si1 0.500000 0.574997 0.250000
Si Si2 0.826241 0.897532 0.536665
Si Si3 0.861713 0.800096 0.279428
Si Si4 0.789604 0.966867 0.137775
Si Si5 0.636911 0.104039 0.277976
O O1 0.582703 0.624245 0.148972
O O2 0.412708 0.511722 0.174423
O O3 0.844484 0.841125 0.414299
O O4 0.692784 0.889903 0.585468
O O5 0.848054 0.000000 0.500000
O O6 0.800228 0.863609 0.176741
O O7 0.821187 0.697843 0.280162
O O8 0.000000 0.799970 0.250000
O O9 0.695415 0.016355 0.222474
O O10 0.764121 0.000000 0.000000
O O11 0.500000 0.099049 0.250000
#
# Coordination Sequence:
#
# PCOD9316663 Si02
#       5
#     4   8   8   8   8
#     4  10  18  34  62  98 112 154 208 268 318 356
#     4  11  20  39  66  90 129 164 212 264 320 381
#     4  11  21  40  65  92 120 165 209 269 321 367
#     4  11  21  37  62  88 122 157 208 254 312 368
#     4  10  25  41  59  89 126 169 204 247 316 380
#
# _framework density 19.400247
#
# number of rings (size 3 to 8) (size 9 to 14) (size 15 to 20)
#    0.000    1.333    5.556    2.000    3.111    0.889 
#    4.000    0.000    9.778    0.000    0.000    0.000 
#    0.000    0.000    0.000    0.000    0.000    0.000 
#
# Total GULP energy -100329.814511 kJ/mol
# GULP energy per Si atom -5573.878584 kJ/mol
# Density = 1.935609 g / cm^3
# Si number density = 19.400247 Si / 1000 Ang^3
#
#
#
# Elastic Constant Matrix: (Units=GPa)
#
#
# Indices 1 2 3 4 5 6 
#
# 1 91.5445 9.6341 13.3192 0.0000 0.0000 0.0000
# 2 9.6341 59.5131 -18.4652 0.0000 0.0000 0.0000
# 3 13.3192 -18.4652 67.8663 0.0000 0.0000 0.0000
# 4 0.0000 0.0000 0.0000 25.4533 0.0000 0.0000
# 5 0.0000 0.0000 0.0000 0.0000 27.6306 0.0000
# 6 0.0000 0.0000 0.0000 0.0000 0.0000 10.9036
#
#
#
# Elastic Compliance Matrix: (Units=1/GPa)
#
#
# Indices 1 2 3 4 5 6 
#
# 1 0.011668 -0.002839 -0.003062 0.000000 0.000000 0.000000
# 2 -0.002839 0.019043 0.005738 0.000000 0.000000 0.000000
# 3 -0.003062 0.005738 0.016897 0.000000 0.000000 0.000000
# 4 0.000000 0.000000 0.000000 0.039288 0.000000 0.000000
# 5 0.000000 0.000000 0.000000 0.000000 0.036192 0.000000
# 6 0.000000 0.000000 0.000000 0.000000 0.000000 0.091713
#
#
# Mechanical properties :
#
#
# Convention : Reuss Voigt Hill
#
# Bulk Modulus (GPa) = 21.14947 25.32220 23.23584
# Shear Modulus (GPa) = 21.65561 27.09323 24.37442
#
# Velocity S-wave (km/s) = 3.34466 3.74109 3.54842
# Velocity P-wave (km/s) = 5.08341 5.63399 5.36576
#
# Compressibility (1/GPa) = 0.04728251
#
# Stress axis : x y z
#
# Youngs Moduli (GPa) = 85.70464 52.51248 59.18140
#
# Poissons Ratio (x) = 0.14908 0.18123
# Poissons Ratio (y) = 0.24331 -0.33961
# Poissons Ratio (z) = 0.26246 -0.30134
#
# Static dielectric constant tensor:
#      x y z
#    x 1.707580 0.000000 0.000000 
#    y 0.000000 1.681650 0.000000 
#    z 0.000000 0.000000 1.740260 
# 
# From -- ./inp_files/13649.got.cif
#   From: 2010.05.17/outbox.cif.g08.bks.cpg/sg20_7_cif.got.tgz:13649.got - 2010.06.03 22:52:26.
