data_PCOD9316717
_publ_section_title
;
Structure prediction by ZEFSAII (Michael W. Deem and Ramdas Pophale) SiO2 
 PCOD9316717
Probable space group: C 2 2 21
;
_chemical_formula_sum "Si O2"
_cell_formula_units_Z 56
_cell_length_a 20.415795
_cell_length_b 12.891796
_cell_length_c 11.388568
_cell_angle_alpha 90.000000
_cell_angle_beta 90.000000
_cell_angle_gamma 90.000000
_cell_volume 2997.428554
_symmetry_space_group_name_H-M "C 2 2 21"
_symmetry_group_IT_number 20
_symmetry_cell_setting 'orthorhombic'
loop_
_space_group_symop_operation_xyz
x,y,z
-x,-y,1/2+z
x,-y,-z
-x,y,1/2-z
1/2+x,1/2+y,z
1/2-x,1/2-y,1/2+z
1/2+x,1/2-y,-z
1/2-x,1/2+y,1/2-z
loop_
_atom_site_type_symbol
_atom_site_label
_atom_site_fract_x
_atom_site_fract_y
_atom_site_fract_z
Si Si1 0.000000 0.267127 0.250000
Si Si2 0.845604 0.315443 0.653558
Si Si3 0.869651 0.188437 0.139127
Si Si4 0.259132 0.851467 0.180122
Si Si5 0.537450 0.124157 0.991334
Si Si6 0.323095 0.000000 0.000000
Si Si7 0.235866 0.016176 0.362639
Si Si8 0.903693 0.303894 0.907237
O O1 0.939897 0.199374 0.200364
O O2 0.974398 0.337703 0.358121
O O3 0.797329 0.220352 0.627231
O O4 0.893952 0.341669 0.547499
O O5 0.797493 0.413066 0.677230
O O6 0.885051 0.288032 0.772271
O O7 0.822770 0.278607 0.191701
O O8 0.830408 0.082144 0.157276
O O9 0.878859 0.217665 0.000940
O O10 0.278284 0.944422 0.094963
O O11 0.237127 0.905959 0.299192
O O12 0.480012 0.176720 0.068335
O O13 0.532202 0.000000 0.000000
O O14 0.368117 0.089408 0.054370
O O15 0.243504 0.000000 0.500000
#
# Coordination Sequence:
#
# PCOD9316717 Si02
#       8
#     4   8   8   8   8   4   8   8
#     4  10  24  42  62  86 124 162 198 250 300 354
#     4  11  23  36  58  94 124 153 206 247 296 360
#     4   9  22  39  62  86 120 160 201 246 304 361
#     4  10  22  37  59  90 120 160 196 255 295 355
#     4  11  24  35  60  92 124 157 195 245 307 368
#     4  10  18  36  58  78 116 162 202 226 312 352
#     4  11  22  38  61  89 122 160 201 251 304 358
#     4  10  19  38  57  84 120 158 194 246 300 361
#
# _framework density 18.682680999999999
#
# number of rings (size 3 to 8) (size 9 to 14) (size 15 to 20)
#    0.000    1.714    2.143    1.714    6.000    1.143 
#    0.000    0.000    9.429    0.000    0.000    0.000 
#    0.000    0.000    0.000    0.000    0.000    0.000 
#
# Total GULP energy -156346.999444 kJ/mol
# GULP energy per Si atom -5583.821409 kJ/mol
# Density = 1.864016 g / cm^3
# Si number density = 18.682681 Si / 1000 Ang^3
#
#
#
# Elastic Constant Matrix: (Units=GPa)
#
#
# Indices 1 2 3 4 5 6 
#
# 1 114.3171 22.5654 39.1668 0.0000 0.0000 0.0000
# 2 22.5654 27.8468 11.2149 0.0000 0.0000 0.0000
# 3 39.1668 11.2149 69.7116 0.0000 0.0000 0.0000
# 4 0.0000 0.0000 0.0000 15.8842 0.0000 0.0000
# 5 0.0000 0.0000 0.0000 0.0000 25.4760 0.0000
# 6 0.0000 0.0000 0.0000 0.0000 0.0000 8.2771
#
#
#
# Elastic Compliance Matrix: (Units=1/GPa)
#
#
# Indices 1 2 3 4 5 6 
#
# 1 0.012172 -0.007602 -0.005616 0.000000 0.000000 0.000000
# 2 -0.007602 0.043146 -0.002670 0.000000 0.000000 0.000000
# 3 -0.005616 -0.002670 0.017930 0.000000 0.000000 0.000000
# 4 0.000000 0.000000 0.000000 0.062956 0.000000 0.000000
# 5 0.000000 0.000000 0.000000 0.000000 0.039253 0.000000
# 6 0.000000 0.000000 0.000000 0.000000 0.000000 0.120815
#
#
# Mechanical properties :
#
#
# Convention : Reuss Voigt Hill
#
# Bulk Modulus (GPa) = 24.11252 39.75218 31.93235
# Shear Modulus (GPa) = 14.62538 19.18935 16.90737
#
# Velocity S-wave (km/s) = 2.80095 3.20835 3.01154
# Velocity P-wave (km/s) = 4.83681 5.92017 5.40570
#
# Compressibility (1/GPa) = 0.04147223
#
# Stress axis : x y z
#
# Youngs Moduli (GPa) = 82.15395 23.17700 55.77373
#
# Poissons Ratio (x) = 0.17619 0.31322
# Poissons Ratio (y) = 0.62453 0.14892
# Poissons Ratio (z) = 0.46137 0.06188
#
# Static dielectric constant tensor:
#      x y z
#    x 1.647590 0.000000 0.000000 
#    y 0.000000 1.634340 0.000000 
#    z 0.000000 0.000000 1.660080 
# 
# From -- ./inp_files/14341.got.cif
#   From: 2010.05.17/outbox.cif.g08.bks.cpg/sg20_8_cif.got.tgz:14341.got - 2010.06.03 22:52:26.
