data_PCOD9316088
_publ_section_title
;
Structure prediction by ZEFSAII (Michael W. Deem and Ramdas Pophale) SiO2 
 PCOD9316088
Probable space group: P 21 21 21
;
_chemical_formula_sum "Si O2"
_cell_formula_units_Z 28
_cell_length_a 11.471595
_cell_length_b 13.639085
_cell_length_c 7.126161
_cell_angle_alpha 90.000000
_cell_angle_beta 90.000000
_cell_angle_gamma 90.000000
_cell_volume 1114.973825
_symmetry_space_group_name_H-M "P 21 21 21"
_symmetry_group_IT_number 19
_symmetry_cell_setting 'orthorhombic'
loop_
_space_group_symop_operation_xyz
x,y,z
1/2-x,-y,1/2+z
1/2+x,1/2-y,-z
-x,1/2+y,1/2-z
loop_
_atom_site_type_symbol
_atom_site_label
_atom_site_fract_x
_atom_site_fract_y
_atom_site_fract_z
Si Si1 0.357253 0.879740 0.139547
Si Si2 0.040400 0.382634 0.213392
Si Si3 0.129852 0.802444 0.982652
Si Si4 0.616999 0.911056 0.101099
Si Si5 0.283368 0.741982 0.468094
Si Si6 0.330830 0.457561 0.972354
Si Si7 0.616516 0.595057 0.361197
O O1 0.249486 0.861846 0.004119
O O2 0.484612 0.882786 0.048616
O O3 0.349149 0.795939 0.297931
O O4 0.340578 0.990519 0.212701
O O5 0.092101 0.470103 0.343532
O O6 0.947924 0.321045 0.335601
O O7 0.134505 0.309607 0.121683
O O8 0.384794 0.441401 0.178917
O O9 0.172715 0.694320 0.935143
O O10 0.058095 0.847408 0.809683
O O11 0.712155 0.670150 0.437198
O O12 0.705041 0.988619 0.009517
O O13 0.529379 0.577545 0.533114
O O14 0.300862 0.347593 0.900027
#
# Coordination Sequence:
#
# PCOD9316088 Si02
#       7
#     4   4   4   4   4   4   4
#     4  12  29  50  83 121 172 221 287 361 436 521
#     4  12  28  54  90 121 178 229 288 363 444 526
#     4  12  28  53  86 127 171 229 291 358 444 525
#     4  12  29  51  84 123 168 229 289 362 431 523
#     4  12  27  53  82 123 173 221 295 360 435 526
#     4  12  27  55  83 122 166 232 294 354 439 532
#     4  12  26  56  76 125 166 227 282 354 439 519
#
# _framework density 25.112697000000001
#
# number of rings (size 3 to 8) (size 9 to 14) (size 15 to 20)
#    0.000    0.000    4.286    3.429    6.000    0.000 
#    0.000    0.000    0.000    0.000    0.000    0.000 
#    0.000    0.000    0.000    0.000    0.000    0.000 
#
# Total GULP energy -156752.356226 kJ/mol
# GULP energy per Si atom -5598.298437 kJ/mol
# Density = 2.505554 g / cm^3
# Si number density = 25.112697 Si / 1000 Ang^3
#
#
#
# Elastic Constant Matrix: (Units=GPa)
#
#
# Indices 1 2 3 4 5 6 
#
# 1 111.3021 40.4636 29.2761 0.0000 0.0000 0.0000
# 2 40.4636 122.3021 -11.1989 0.0000 0.0000 0.0000
# 3 29.2761 -11.1989 78.1081 0.0000 0.0000 0.0000
# 4 0.0000 0.0000 0.0000 56.2480 0.0000 0.0000
# 5 0.0000 0.0000 0.0000 0.0000 -8.6103 0.0000
# 6 0.0000 0.0000 0.0000 0.0000 0.0000 30.3775
#
#
#
# Elastic Compliance Matrix: (Units=1/GPa)
#
#
# Indices 1 2 3 4 5 6 
#
# 1 0.011933 -0.004415 -0.005106 0.000000 0.000000 0.000000
# 2 -0.004415 0.009919 0.003077 0.000000 0.000000 0.000000
# 3 -0.005106 0.003077 0.015158 0.000000 0.000000 0.000000
# 4 0.000000 0.000000 0.000000 0.017778 0.000000 0.000000
# 5 0.000000 0.000000 0.000000 0.000000 -0.116140 0.000000
# 6 0.000000 0.000000 0.000000 0.000000 0.000000 0.032919
#
#
# Mechanical properties :
#
#
# Convention : Reuss Voigt Hill
#
# Bulk Modulus (GPa) = 41.45669 47.64379 44.55024
# Shear Modulus (GPa) = -666.26375 32.48112 -316.89131
#
# Velocity S-wave (km/s) = -16.30600 3.60031 -11.24552
# Velocity P-wave (km/s) = 18.38396 6.02463 12.28157
#
# Compressibility (1/GPa) = 0.02412156
#
# Stress axis : x y z
#
# Youngs Moduli (GPa) = 83.80305 100.81566 65.97333
#
# Poissons Ratio (x) = 0.44515 0.33684
# Poissons Ratio (y) = 0.37003 -0.20301
# Poissons Ratio (z) = 0.42787 -0.31022
#
# Static dielectric constant tensor:
#      x y z
#    x 2.014960 0.000000 0.000000 
#    y 0.000000 1.984250 0.000000 
#    z 0.000000 0.000000 2.021080 
# 
# From -- ./inp_files/3522.got.cif
#   From: 2010.05.17/outbox.cif.g08.bks.cpg/sg19_2_cif.got.tgz:3522.got - 2010.06.03 22:46:19.
