data_PCOD9316036
_publ_section_title
;
Structure prediction by ZEFSAII (Michael W. Deem and Ramdas Pophale) SiO2 
 PCOD9316036
Probable space group: P 21 21 21
;
_chemical_formula_sum "Si O2"
_cell_formula_units_Z 28
_cell_length_a 18.857710
_cell_length_b 5.526069
_cell_length_c 10.808918
_cell_angle_alpha 90.000000
_cell_angle_beta 90.000000
_cell_angle_gamma 90.000000
_cell_volume 1126.386608
_symmetry_space_group_name_H-M "P 21 21 21"
_symmetry_group_IT_number 19
_symmetry_cell_setting 'orthorhombic'
loop_
_space_group_symop_operation_xyz
x,y,z
1/2-x,-y,1/2+z
1/2+x,1/2-y,-z
-x,1/2+y,1/2-z
loop_
_atom_site_type_symbol
_atom_site_label
_atom_site_fract_x
_atom_site_fract_y
_atom_site_fract_z
Si Si1 0.917843 0.916066 0.990945
Si Si2 0.957683 0.197365 0.766383
Si Si3 0.252796 0.091022 0.781383
Si Si4 0.145099 0.444019 0.912223
Si Si5 0.518812 0.974569 0.942680
Si Si6 0.590260 0.784824 0.713876
Si Si7 0.760519 0.735400 0.983616
O O1 0.931928 0.152210 0.907911
O O2 0.839122 0.831884 0.962780
O O3 0.975474 0.707790 0.970184
O O4 0.921821 0.971725 0.136224
O O5 0.890663 0.146528 0.676759
O O6 0.008838 0.961051 0.750161
O O7 0.186688 0.254112 0.827223
O O8 0.327781 0.223631 0.802514
O O9 0.251187 0.055454 0.632882
O O10 0.255966 0.875085 0.879148
O O11 0.075369 0.353805 0.986954
O O12 0.201952 0.553682 0.008157
O O13 0.462078 0.099188 0.853782
O O14 0.568622 0.812790 0.854658
#
# Coordination Sequence:
#
# PCOD9316036 Si02
#       7
#     4   4   4   4   4   4   4
#     4  12  25  45  73 107 149 202 260 326 403 483
#     4  12  28  49  78 115 158 206 267 337 408 482
#     4  12  28  48  77 114 157 205 267 341 410 495
#     4  12  27  47  77 110 153 202 269 329 401 487
#     4  12  25  45  73 111 146 198 264 323 400 480
#     4  12  25  44  75 107 149 202 258 331 401 485
#     4  12  28  48  77 112 154 207 267 333 421 482
#
# _framework density 24.858249000000001
#
# number of rings (size 3 to 8) (size 9 to 14) (size 15 to 20)
#    0.000    0.000    8.571    0.857    2.000    5.714 
#    0.000    0.000    0.000    0.000    0.000    0.000 
#    0.000    0.000    0.000    0.000    0.000    0.000 
#
# Total GULP energy -156641.764496 kJ/mol
# GULP energy per Si atom -5594.348732 kJ/mol
# Density = 2.480167 g / cm^3
# Si number density = 24.858249 Si / 1000 Ang^3
#
#
#
# Elastic Constant Matrix: (Units=GPa)
#
#
# Indices 1 2 3 4 5 6 
#
# 1 135.6853 26.4768 12.0147 0.0000 0.0000 0.0000
# 2 26.4768 49.7832 1.3492 0.0000 0.0000 0.0000
# 3 12.0147 1.3492 83.2377 0.0000 0.0000 0.0000
# 4 0.0000 0.0000 0.0000 46.1104 0.0000 0.0000
# 5 0.0000 0.0000 0.0000 0.0000 35.9513 0.0000
# 6 0.0000 0.0000 0.0000 0.0000 0.0000 33.0876
#
#
#
# Elastic Compliance Matrix: (Units=1/GPa)
#
#
# Indices 1 2 3 4 5 6 
#
# 1 0.008328 -0.004399 -0.001131 0.000000 0.000000 0.000000
# 2 -0.004399 0.022419 0.000272 0.000000 0.000000 0.000000
# 3 -0.001131 0.000272 0.012173 0.000000 0.000000 0.000000
# 4 0.000000 0.000000 0.000000 0.021687 0.000000 0.000000
# 5 0.000000 0.000000 0.000000 0.000000 0.027815 0.000000
# 6 0.000000 0.000000 0.000000 0.000000 0.000000 0.030223
#
#
# Mechanical properties :
#
#
# Convention : Reuss Voigt Hill
#
# Bulk Modulus (GPa) = 30.86029 38.70973 34.78501
# Shear Modulus (GPa) = 34.73111 38.28757 36.50934
#
# Velocity S-wave (km/s) = 3.74192 3.92884 3.83652
# Velocity P-wave (km/s) = 5.57770 6.01557 5.80077
#
# Compressibility (1/GPa) = 0.03240410
#
# Stress axis : x y z
#
# Youngs Moduli (GPa) = 120.06981 44.60462 82.15163
#
# Poissons Ratio (x) = 0.19621 0.09290
# Poissons Ratio (y) = 0.52816 -0.02231
# Poissons Ratio (z) = 0.13578 -0.01211
#
# Static dielectric constant tensor:
#      x y z
#    x 1.950600 0.000000 0.000000 
#    y 0.000000 1.952440 0.000000 
#    z 0.000000 0.000000 2.031340 
# 
# From -- ./inp_files/1060.got.cif
#   From: 2010.05.17/outbox.cif.g08.bks.cpg/sg19_1_cif.got.tgz:1060.got - 2010.06.03 22:46:19.
