data_PCOD9316488
_publ_section_title
;
Structure prediction by ZEFSAII (Michael W. Deem and Ramdas Pophale) SiO2 
 PCOD9316488
Probable space group: C 2 2 21
;
_chemical_formula_sum "Si O2"
_cell_formula_units_Z 56
_cell_length_a 22.076859
_cell_length_b 7.908571
_cell_length_c 14.532313
_cell_angle_alpha 90.000000
_cell_angle_beta 90.000000
_cell_angle_gamma 90.000000
_cell_volume 2537.289633
_symmetry_space_group_name_H-M "C 2 2 21"
_symmetry_group_IT_number 20
_symmetry_cell_setting 'orthorhombic'
loop_
_space_group_symop_operation_xyz
x,y,z
-x,-y,1/2+z
x,-y,-z
-x,y,1/2-z
1/2+x,1/2+y,z
1/2-x,1/2-y,1/2+z
1/2+x,1/2-y,-z
1/2-x,1/2+y,1/2-z
loop_
_atom_site_type_symbol
_atom_site_label
_atom_site_fract_x
_atom_site_fract_y
_atom_site_fract_z
Si Si1 0.599998 0.250158 0.050983
Si Si2 0.327982 0.087233 0.293886
Si Si3 0.500000 0.631792 0.250000
Si Si4 0.419648 0.565040 0.898419
Si Si5 0.888855 0.887242 0.641882
Si Si6 0.995049 0.500000 0.000000
Si Si7 0.057023 0.559544 0.321640
Si Si8 0.804860 0.041783 0.788514
O O1 0.642545 0.127413 0.108233
O O2 0.590386 0.421969 0.110413
O O3 0.627768 0.299149 0.953062
O O4 0.538161 0.151989 0.032577
O O5 0.381777 0.011217 0.231661
O O6 0.313281 0.269510 0.249666
O O7 0.265435 0.990644 0.302223
O O8 0.538938 0.526846 0.323127
O O9 0.554530 0.708210 0.189279
O O10 0.429450 0.761077 0.871891
O O11 0.349448 0.523620 0.875448
O O12 0.435333 0.500000 0.000000
O O13 0.833951 0.917339 0.711452
O O14 0.958079 0.556057 0.909636
O O15 0.000000 0.571469 0.250000
#
# Coordination Sequence:
#
# PCOD9316488 Si02
#       8
#     8   8   4   8   8   4   8   8
#     4  10  21  38  63  90 124 168 210 263 309 393
#     4  10  21  44  69  85 128 173 210 258 325 381
#     4  10  18  30  62  92 120 156 202 266 304 362
#     4  10  21  38  66  96 125 165 218 260 314 386
#     4   9  20  39  61  92 124 168 217 256 320 374
#     4  12  24  38  60 100 124 160 222 254 336 386
#     4  11  22  44  63  89 136 175 202 263 341 386
#     4   9  21  42  63  93 125 173 210 262 316 377
#
# _framework density 22.070795
#
# number of rings (size 3 to 8) (size 9 to 14) (size 15 to 20)
#    0.000    2.000    2.143    1.714    4.000    1.143 
#   10.286    1.429    0.000    0.000    0.000    0.000 
#    0.000    0.000    0.000    0.000    0.000    0.000 
#
# Total GULP energy -156492.345649 kJ/mol
# GULP energy per Si atom -5589.012345 kJ/mol
# Density = 2.202056 g / cm^3
# Si number density = 22.070795 Si / 1000 Ang^3
#
#
#
# Elastic Constant Matrix: (Units=GPa)
#
#
# Indices 1 2 3 4 5 6 
#
# 1 175.6443 38.6024 70.0557 0.0000 0.0000 0.0000
# 2 38.6024 58.9333 26.5258 0.0000 0.0000 0.0000
# 3 70.0557 26.5258 143.1545 0.0000 0.0000 0.0000
# 4 0.0000 0.0000 0.0000 19.9425 0.0000 0.0000
# 5 0.0000 0.0000 0.0000 0.0000 22.0318 0.0000
# 6 0.0000 0.0000 0.0000 0.0000 0.0000 16.8254
#
#
#
# Elastic Compliance Matrix: (Units=1/GPa)
#
#
# Indices 1 2 3 4 5 6 
#
# 1 0.007739 -0.003671 -0.003107 0.000000 0.000000 0.000000
# 2 -0.003671 0.020253 -0.001956 0.000000 0.000000 0.000000
# 3 -0.003107 -0.001956 0.008869 0.000000 0.000000 0.000000
# 4 0.000000 0.000000 0.000000 0.050144 0.000000 0.000000
# 5 0.000000 0.000000 0.000000 0.000000 0.045389 0.000000
# 6 0.000000 0.000000 0.000000 0.000000 0.000000 0.059434
#
#
# Mechanical properties :
#
#
# Convention : Reuss Voigt Hill
#
# Bulk Modulus (GPa) = 51.56693 72.01110 61.78901
# Shear Modulus (GPa) = 23.17372 27.92982 25.55177
#
# Velocity S-wave (km/s) = 3.24384 3.56120 3.40622
# Velocity P-wave (km/s) = 6.11924 7.04327 6.59745
#
# Compressibility (1/GPa) = 0.01939227
#
# Stress axis : x y z
#
# Youngs Moduli (GPa) = 129.20847 49.37441 112.75768
#
# Poissons Ratio (x) = 0.18125 0.35037
# Poissons Ratio (y) = 0.47431 0.22060
# Poissons Ratio (z) = 0.40148 0.09660
#
# Static dielectric constant tensor:
#      x y z
#    x 1.793120 0.000000 0.000000 
#    y 0.000000 1.899420 0.000000 
#    z 0.000000 0.000000 1.822970 
# 
# From -- ./inp_files/21801.got.cif
#   From: 2010.05.17/outbox.cif.g08.bks.cpg/sg20_11_cif.got.tgz:21801.got - 2010.06.03 22:52:26.
