data_PCOD9316473
_publ_section_title
;
Structure prediction by ZEFSAII (Michael W. Deem and Ramdas Pophale) SiO2 
 PCOD9316473
Probable space group: C 2 2 21
;
_chemical_formula_sum "Si O2"
_cell_formula_units_Z 48
_cell_length_a 32.050720
_cell_length_b 8.316852
_cell_length_c 8.696829
_cell_angle_alpha 90.000000
_cell_angle_beta 90.000000
_cell_angle_gamma 90.000000
_cell_volume 2318.236259
_symmetry_space_group_name_H-M "C 2 2 21"
_symmetry_group_IT_number 20
_symmetry_cell_setting 'orthorhombic'
loop_
_space_group_symop_operation_xyz
x,y,z
-x,-y,1/2+z
x,-y,-z
-x,y,1/2-z
1/2+x,1/2+y,z
1/2-x,1/2-y,1/2+z
1/2+x,1/2-y,-z
1/2-x,1/2+y,1/2-z
loop_
_atom_site_type_symbol
_atom_site_label
_atom_site_fract_x
_atom_site_fract_y
_atom_site_fract_z
Si Si1 0.406532 0.890950 0.272863
Si Si2 0.080557 0.750692 0.093927
Si Si3 0.689873 0.841172 0.196897
Si Si4 0.540868 0.000000 0.500000
Si Si5 0.000000 0.270126 0.750000
Si Si6 0.229359 0.988553 0.681588
Si Si7 0.326914 0.659385 0.600073
O O1 0.421210 0.769585 0.408425
O O2 0.357150 0.869744 0.248088
O O3 0.414441 0.069556 0.340170
O O4 0.431287 0.889982 0.113290
O O5 0.040051 0.820666 0.179588
O O6 0.124029 0.835069 0.134147
O O7 0.709620 0.679413 0.267123
O O8 0.723191 0.978713 0.233643
O O9 0.684670 0.805450 0.013508
O O10 0.513917 0.114163 0.390238
O O11 0.228260 0.000000 0.500000
O O12 0.201474 0.131960 0.753124
O O13 0.319059 0.500000 0.500000
#
# Coordination Sequence:
#
# PCOD9316473 Si02
#       7
#     8   8   8   4   4   8   8
#     4   9  19  32  52  79 110 148 179 224 287 341
#     4   9  18  33  57  76 106 146 183 230 281 344
#     4  10  22  38  56  81 112 152 194 228 287 331
#     4  10  18  32  50  82 116 140 178 236 280 342
#     4  10  18  30  52  82 106 138 182 228 286 334
#     4  11  23  36  57  83 110 149 195 243 275 334
#     4   9  20  39  55  75 109 151 188 225 290 343
#
# _framework density 20.705397000000001
#
# number of rings (size 3 to 8) (size 9 to 14) (size 15 to 20)
#    0.000    2.333    0.000    3.000    7.000    2.667 
#    4.500    0.000    0.000    7.000    0.000    0.000 
#    0.000    0.000    0.000    0.000    0.000    0.000 
#
# Total GULP energy -133940.741711 kJ/mol
# GULP energy per Si atom -5580.864238 kJ/mol
# Density = 2.065827 g / cm^3
# Si number density = 20.705397 Si / 1000 Ang^3
#
#
#
# Elastic Constant Matrix: (Units=GPa)
#
#
# Indices 1 2 3 4 5 6 
#
# 1 133.3678 13.3847 58.0020 0.0000 0.0000 0.0000
# 2 13.3847 30.6523 4.2080 0.0000 0.0000 0.0000
# 3 58.0020 4.2080 88.1084 0.0000 0.0000 0.0000
# 4 0.0000 0.0000 0.0000 17.0443 0.0000 0.0000
# 5 0.0000 0.0000 0.0000 0.0000 32.5424 0.0000
# 6 0.0000 0.0000 0.0000 0.0000 0.0000 29.0991
#
#
#
# Elastic Compliance Matrix: (Units=1/GPa)
#
#
# Indices 1 2 3 4 5 6 
#
# 1 0.010931 -0.003810 -0.007014 0.000000 0.000000 0.000000
# 2 -0.003810 0.034167 0.000876 0.000000 0.000000 0.000000
# 3 -0.007014 0.000876 0.015925 0.000000 0.000000 0.000000
# 4 0.000000 0.000000 0.000000 0.058671 0.000000 0.000000
# 5 0.000000 0.000000 0.000000 0.000000 0.030729 0.000000
# 6 0.000000 0.000000 0.000000 0.000000 0.000000 0.034365
#
#
# Mechanical properties :
#
#
# Convention : Reuss Voigt Hill
#
# Bulk Modulus (GPa) = 24.31431 44.81312 34.56371
# Shear Modulus (GPa) = 22.89456 27.50608 25.20032
#
# Velocity S-wave (km/s) = 3.32886 3.64874 3.49247
# Velocity P-wave (km/s) = 5.15204 6.28023 5.74390
#
# Compressibility (1/GPa) = 0.04112805
#
# Stress axis : x y z
#
# Youngs Moduli (GPa) = 91.48507 29.26769 62.79449
#
# Poissons Ratio (x) = 0.11151 0.44043
# Poissons Ratio (y) = 0.34857 -0.05503
# Poissons Ratio (z) = 0.64165 -0.02565
#
# Static dielectric constant tensor:
#      x y z
#    x 1.766240 0.000000 0.000000 
#    y 0.000000 1.779640 0.000000 
#    z 0.000000 0.000000 1.750480 
# 
# From -- ./inp_files/11489.got.cif
#   From: 2010.05.17/outbox.cif.g08.bks.cpg/sg20_6_cif.got.tgz:11489.got - 2010.06.03 22:52:26.
