data_PCOD9316173
_publ_section_title
;
Structure prediction by ZEFSAII (Michael W. Deem and Ramdas Pophale) SiO2 
 PCOD9316173
Probable space group: P 21 21 21
;
_chemical_formula_sum "Si O2"
_cell_formula_units_Z 20
_cell_length_a 12.000000
_cell_length_b 6.000000
_cell_length_c 12.000000
_cell_angle_alpha 90.000000
_cell_angle_beta 90.000000
_cell_angle_gamma 90.000000
_cell_volume 864.000000
_symmetry_space_group_name_H-M "P 21 21 21"
_symmetry_group_IT_number 19
_symmetry_cell_setting 'orthorhombic'
loop_
_space_group_symop_operation_xyz
x,y,z
1/2-x,-y,1/2+z
1/2+x,1/2-y,-z
-x,1/2+y,1/2-z
loop_
_atom_site_type_symbol
_atom_site_label
_atom_site_fract_x
_atom_site_fract_y
_atom_site_fract_z
Si Si1 0.063618 0.458813 0.575249
Si Si2 0.878782 0.288262 0.741865
Si Si3 0.282490 0.514073 0.453904
Si Si4 0.323182 0.107602 0.808322
Si Si5 0.962292 0.170729 0.389819
O O1 0.089307 0.695997 0.635942
O O2 0.185943 0.394233 0.527888
O O3 0.993611 0.345806 0.676410
O O4 0.987828 0.389046 0.467926
O O5 0.785317 0.482898 0.743466
O O6 0.818600 0.108326 0.660580
O O7 0.227228 0.743161 0.409411
O O8 0.391094 0.502498 0.533666
O O9 0.387320 0.257780 0.715986
O O10 0.420721 0.939500 0.851133
#
# Coordination Sequence:
#
# PCOD9316173 Si02
#       5
#     4   4   4   4   4
#     4  11  26  49  76 114 155 207 264 323 396 462
#     4  11  28  48  76 116 160 206 266 330 390 482
#     4  11  26  49  77 112 157 208 264 326 402 468
#     4  12  27  52  80 116 159 212 267 331 395 485
#     4  11  27  50  81 116 161 213 265 332 399 467
#
# _framework density 23.148147999999999
#
# number of rings (size 3 to 8) (size 9 to 14) (size 15 to 20)
#    0.000    0.800    2.000    2.400   11.200    4.800 
#    0.000    0.000    0.000    0.000    0.000    0.000 
#    0.000    0.000    0.000    0.000    0.000    0.000 
#
# Total GULP energy -111778.521033 kJ/mol
# GULP energy per Si atom -5588.926052 kJ/mol
# Density = 2.309546 g / cm^3
# Si number density = 23.148148 Si / 1000 Ang^3
#
#
#
# Elastic Constant Matrix: (Units=GPa)
#
#
# Indices 1 2 3 4 5 6 
#
# 1 141.2342 50.1504 45.2224 0.0000 0.0000 0.0000
# 2 50.1504 82.5447 51.4884 0.0000 0.0000 0.0000
# 3 45.2224 51.4884 119.5558 0.0000 0.0000 0.0000
# 4 0.0000 0.0000 0.0000 43.8128 0.0000 0.0000
# 5 0.0000 0.0000 0.0000 0.0000 45.4235 0.0000
# 6 0.0000 0.0000 0.0000 0.0000 0.0000 56.1014
#
#
#
# Elastic Compliance Matrix: (Units=1/GPa)
#
#
# Indices 1 2 3 4 5 6 
#
# 1 0.009213 -0.004681 -0.001469 0.000000 0.000000 0.000000
# 2 -0.004681 0.018943 -0.006387 0.000000 0.000000 0.000000
# 3 -0.001469 -0.006387 0.011671 0.000000 0.000000 0.000000
# 4 0.000000 0.000000 0.000000 0.022824 0.000000 0.000000
# 5 0.000000 0.000000 0.000000 0.000000 0.022015 0.000000
# 6 0.000000 0.000000 0.000000 0.000000 0.000000 0.017825
#
#
# Mechanical properties :
#
#
# Convention : Reuss Voigt Hill
#
# Bulk Modulus (GPa) = 67.78809 70.78411 69.28610
# Shear Modulus (GPa) = 37.74070 42.16577 39.95324
#
# Velocity S-wave (km/s) = 4.04220 4.27261 4.15900
# Velocity P-wave (km/s) = 7.15079 7.41521 7.28420
#
# Compressibility (1/GPa) = 0.01475185
#
# Stress axis : x y z
#
# Youngs Moduli (GPa) = 108.54256 52.79010 85.68470
#
# Poissons Ratio (x) = 0.24712 0.12586
# Poissons Ratio (y) = 0.50811 0.54730
# Poissons Ratio (z) = 0.15943 0.33719
#
# Static dielectric constant tensor:
#      x y z
#    x 1.839450 0.000000 0.000000 
#    y 0.000000 1.946350 0.000000 
#    z 0.000000 0.000000 1.830690 
# 
# From -- ./inp_files/4874.got.cif
#   From: 2010.05.17/outbox.ucp.g08.bks.cvg/sg19_3_cif.got.tgz:4874.got - 2010.06.11 13:13:52.
