data_PCOD9316815
_publ_section_title
;
Structure prediction by ZEFSAII (Michael W. Deem and Ramdas Pophale) SiO2 
 PCOD9316815
Probable space group: C 2 2 21
;
_chemical_formula_sum "Si O2"
_cell_formula_units_Z 60
_cell_length_a 10.890959
_cell_length_b 11.863126
_cell_length_c 20.156825
_cell_angle_alpha 90.000000
_cell_angle_beta 90.000000
_cell_angle_gamma 90.000000
_cell_volume 2604.278296
_symmetry_space_group_name_H-M "C 2 2 21"
_symmetry_group_IT_number 20
_symmetry_cell_setting 'orthorhombic'
loop_
_space_group_symop_operation_xyz
x,y,z
-x,-y,1/2+z
x,-y,-z
-x,y,1/2-z
1/2+x,1/2+y,z
1/2-x,1/2-y,1/2+z
1/2+x,1/2-y,-z
1/2-x,1/2+y,1/2-z
loop_
_atom_site_type_symbol
_atom_site_label
_atom_site_fract_x
_atom_site_fract_y
_atom_site_fract_z
Si Si1 0.007753 0.821331 0.489267
Si Si2 0.658811 0.761672 0.764332
Si Si3 0.844248 0.500000 0.500000
Si Si4 0.748803 0.242276 0.968489
Si Si5 0.850075 0.462522 0.645471
Si Si6 0.433879 0.388975 0.866422
Si Si7 0.506866 0.622381 0.839859
Si Si8 0.364865 0.773256 0.328196
O O1 0.865830 0.787965 0.490598
O O2 0.028422 0.865402 0.415772
O O3 0.115723 0.726371 0.493070
O O4 0.028212 0.891995 0.555802
O O5 0.606316 0.875019 0.798242
O O6 0.640646 0.670182 0.822677
O O7 0.584959 0.699723 0.704028
O O8 0.794360 0.774712 0.735481
O O9 0.764505 0.392683 0.478180
O O10 0.907264 0.464907 0.570498
O O11 0.713633 0.267096 0.892651
O O12 0.710678 0.415619 0.635759
O O13 0.858442 0.590742 0.671183
O O14 0.495143 0.491250 0.826369
O O15 0.498998 0.275220 0.840115
#
# Coordination Sequence:
#
# PCOD9316815 Si02
#       8
#     8   8   4   8   8   8   8   8
#     4  11  21  39  70 106 137 184 240 308 369 445
#     4  11  24  39  64  96 143 198 236 295 382 446
#     4  10  18  38  66  96 132 192 242 300 368 454
#     4  10  20  36  67  97 140 179 241 301 370 436
#     4  11  22  41  69 100 139 189 245 307 377 447
#     4  11  23  40  76 103 135 189 251 309 370 444
#     4  11  23  41  66 100 138 193 240 300 368 453
#     4  10  23  41  64 103 140 184 244 306 363 446
#
# _framework density 23.039010999999999
#
# number of rings (size 3 to 8) (size 9 to 14) (size 15 to 20)
#    0.000    1.333    4.000    2.000    1.867    0.533 
#    0.000    2.667    5.867    0.000    0.000    0.000 
#    0.000    0.000    0.000    0.000    0.000    0.000 
#
# Total GULP energy -167139.360711 kJ/mol
# GULP energy per Si atom -5571.312024 kJ/mol
# Density = 2.298657 g / cm^3
# Si number density = 23.039011 Si / 1000 Ang^3
#
#
#
# Elastic Constant Matrix: (Units=GPa)
#
#
# Indices 1 2 3 4 5 6 
#
# 1 75.1535 24.1748 35.3161 0.0000 0.0000 0.0000
# 2 24.1748 90.5610 57.9351 0.0000 0.0000 0.0000
# 3 35.3161 57.9351 143.2522 0.0000 0.0000 0.0000
# 4 0.0000 0.0000 0.0000 25.9851 0.0000 0.0000
# 5 0.0000 0.0000 0.0000 0.0000 40.1630 0.0000
# 6 0.0000 0.0000 0.0000 0.0000 0.0000 22.7892
#
#
#
# Elastic Compliance Matrix: (Units=1/GPa)
#
#
# Indices 1 2 3 4 5 6 
#
# 1 0.015387 -0.002267 -0.002876 0.000000 0.000000 0.000000
# 2 -0.002267 0.015230 -0.005601 0.000000 0.000000 0.000000
# 3 -0.002876 -0.005601 0.009955 0.000000 0.000000 0.000000
# 4 0.000000 0.000000 0.000000 0.038484 0.000000 0.000000
# 5 0.000000 0.000000 0.000000 0.000000 0.024899 0.000000
# 6 0.000000 0.000000 0.000000 0.000000 0.000000 0.043880
#
#
# Mechanical properties :
#
#
# Convention : Reuss Voigt Hill
#
# Bulk Modulus (GPa) = 52.40096 60.42430 56.41263
# Shear Modulus (GPa) = 28.46002 30.55685 29.50844
#
# Velocity S-wave (km/s) = 3.51849 3.64580 3.58271
# Velocity P-wave (km/s) = 6.26899 6.63373 6.45394
#
# Compressibility (1/GPa) = 0.01908362
#
# Stress axis : x y z
#
# Youngs Moduli (GPa) = 64.98940 65.65783 100.45334
#
# Poissons Ratio (x) = 0.14887 0.28895
# Poissons Ratio (y) = 0.14736 0.56260
# Poissons Ratio (z) = 0.18694 0.36773
#
# Static dielectric constant tensor:
#      x y z
#    x 2.006220 0.000000 0.000000 
#    y 0.000000 1.882220 0.000000 
#    z 0.000000 0.000000 1.919230 
# 
# From -- ./inp_files/27283.got.cif
#   From: 2010.05.17/outbox.cif.g08.bks.cpg/sg20_14_cif.got.tgz:27283.got - 2010.06.03 22:52:26.
