data_PCOD9316787
_publ_section_title
;
Structure prediction by ZEFSAII (Michael W. Deem and Ramdas Pophale) SiO2 
 PCOD9316787
Probable space group: C 2 2 21
;
_chemical_formula_sum "Si O2"
_cell_formula_units_Z 36
_cell_length_a 8.821333
_cell_length_b 12.417321
_cell_length_c 12.741250
_cell_angle_alpha 90.000000
_cell_angle_beta 90.000000
_cell_angle_gamma 90.000000
_cell_volume 1395.642423
_symmetry_space_group_name_H-M "C 2 2 21"
_symmetry_group_IT_number 20
_symmetry_cell_setting 'orthorhombic'
loop_
_space_group_symop_operation_xyz
x,y,z
-x,-y,1/2+z
x,-y,-z
-x,y,1/2-z
1/2+x,1/2+y,z
1/2-x,1/2-y,1/2+z
1/2+x,1/2-y,-z
1/2-x,1/2+y,1/2-z
loop_
_atom_site_type_symbol
_atom_site_label
_atom_site_fract_x
_atom_site_fract_y
_atom_site_fract_z
Si Si1 0.554178 0.171689 0.130937
Si Si2 0.471490 0.500000 0.500000
Si Si3 0.481016 0.941545 0.401200
Si Si4 0.683035 0.672173 0.578774
Si Si5 0.706224 0.613298 0.821050
O O1 0.500000 0.173922 0.250000
O O2 0.613921 0.049095 0.126934
O O3 0.396438 0.211736 0.075534
O O4 0.670144 0.271403 0.124455
O O5 0.585514 0.601203 0.498611
O O6 0.374993 0.476134 0.394235
O O7 0.561584 0.000000 0.500000
O O8 0.362852 0.848602 0.434511
O O9 0.614324 0.906007 0.326020
O O10 0.659266 0.625845 0.698791
#
# Coordination Sequence:
#
# PCOD9316787 Si02
#       5
#     8   4   8   8   8
#     4   9  21  41  64  89 124 168 208 260 318 371
#     4  10  18  38  58  92 122 158 210 258 308 366
#     4  12  23  40  65  95 128 166 207 267 318 370
#     4  10  21  40  63  90 128 168 211 261 313 374
#     4  10  21  40  63  90 128 168 211 261 313 374
#
# _framework density 25.794573
#
# number of rings (size 3 to 8) (size 9 to 14) (size 15 to 20)
#    0.000    1.778    2.222    4.000    0.000    1.778 
#    0.000    2.222    0.000   10.667    0.000    0.000 
#    0.000    0.000    0.000    0.000    0.000    0.000 
#
# Total GULP energy -100299.774791 kJ/mol
# GULP energy per Si atom -5572.209711 kJ/mol
# Density = 2.573586 g / cm^3
# Si number density = 25.794573 Si / 1000 Ang^3
#
#
#
# Elastic Constant Matrix: (Units=GPa)
#
#
# Indices 1 2 3 4 5 6 
#
# 1 153.8574 51.2278 32.0101 0.0000 0.0000 0.0000
# 2 51.2278 152.4082 37.8679 0.0000 0.0000 0.0000
# 3 32.0101 37.8679 61.8747 0.0000 0.0000 0.0000
# 4 0.0000 0.0000 0.0000 25.5122 0.0000 0.0000
# 5 0.0000 0.0000 0.0000 0.0000 52.5498 0.0000
# 6 0.0000 0.0000 0.0000 0.0000 0.0000 28.0241
#
#
#
# Elastic Compliance Matrix: (Units=1/GPa)
#
#
# Indices 1 2 3 4 5 6 
#
# 1 0.007719 -0.001890 -0.002837 0.000000 0.000000 0.000000
# 2 -0.001890 0.008201 -0.004041 0.000000 0.000000 0.000000
# 3 -0.002837 -0.004041 0.020103 0.000000 0.000000 0.000000
# 4 0.000000 0.000000 0.000000 0.039197 0.000000 0.000000
# 5 0.000000 0.000000 0.000000 0.000000 0.019030 0.000000
# 6 0.000000 0.000000 0.000000 0.000000 0.000000 0.035684
#
#
# Mechanical properties :
#
#
# Convention : Reuss Voigt Hill
#
# Bulk Modulus (GPa) = 54.09310 67.81689 60.95499
# Shear Modulus (GPa) = 32.54580 37.68619 35.11599
#
# Velocity S-wave (km/s) = 3.55594 3.82647 3.69368
# Velocity P-wave (km/s) = 6.15434 6.77279 6.47096
#
# Compressibility (1/GPa) = 0.01848665
#
# Stress axis : x y z
#
# Youngs Moduli (GPa) = 129.55222 121.94258 49.74495
#
# Poissons Ratio (x) = 0.23043 0.14112
# Poissons Ratio (y) = 0.24481 0.20103
# Poissons Ratio (z) = 0.36751 0.49280
#
# Static dielectric constant tensor:
#      x y z
#    x 2.090840 0.000000 0.000000 
#    y 0.000000 1.954830 0.000000 
#    z 0.000000 0.000000 2.392910 
# 
# From -- ./inp_files/18422.got.cif
#   From: 2010.05.17/outbox.cif.g08.bks.cpg/sg20_10_cif.got.tgz:18422.got - 2010.06.03 22:52:26.
