data_PCOD9316119
_publ_section_title
;
Structure prediction by ZEFSAII (Michael W. Deem and Ramdas Pophale) SiO2 
 PCOD9316119
Probable space group: P 21 21 21
;
_chemical_formula_sum "Si O2"
_cell_formula_units_Z 32
_cell_length_a 15.000000
_cell_length_b 12.000000
_cell_length_c 9.000000
_cell_angle_alpha 90.000000
_cell_angle_beta 90.000000
_cell_angle_gamma 90.000000
_cell_volume 1620.000000
_symmetry_space_group_name_H-M "P 21 21 21"
_symmetry_group_IT_number 19
_symmetry_cell_setting 'orthorhombic'
loop_
_space_group_symop_operation_xyz
x,y,z
1/2-x,-y,1/2+z
1/2+x,1/2-y,-z
-x,1/2+y,1/2-z
loop_
_atom_site_type_symbol
_atom_site_label
_atom_site_fract_x
_atom_site_fract_y
_atom_site_fract_z
Si Si1 0.140914 0.712531 0.383962
Si Si2 0.518556 0.464760 0.861612
Si Si3 0.567167 0.880164 0.109389
Si Si4 0.379737 0.757871 0.683063
Si Si5 0.987968 0.409328 0.048616
Si Si6 0.737409 0.864098 0.884928
Si Si7 0.714985 0.886508 0.335476
Si Si8 0.059031 0.315818 0.501734
O O1 0.096588 0.823800 0.455643
O O2 0.198249 0.724156 0.233931
O O3 0.204970 0.646394 0.494138
O O4 0.060600 0.626007 0.354815
O O5 0.605038 0.383476 0.876636
O O6 0.524122 0.524620 0.702848
O O7 0.490699 0.564485 0.974915
O O8 0.615723 0.883532 0.268160
O O9 0.502604 0.772648 0.090955
O O10 0.656612 0.872239 0.005036
O O11 0.512662 0.993710 0.069596
O O12 0.426495 0.671762 0.568761
O O13 0.282070 0.709648 0.720041
O O14 0.431338 0.741116 0.839084
O O15 0.839063 0.835478 0.938152
O O16 0.745273 0.989722 0.817272
#
# Coordination Sequence:
#
# PCOD9316119 Si02
#       8
#     4   4   4   4   4   4   4   4
#     4  11  23  40  62  98 129 167 217 271 329 392
#     4  10  18  39  64  92 122 170 216 264 318 395
#     4  12  23  41  68  97 131 168 218 282 322 392
#     4  10  19  36  65  93 126 165 219 265 321 393
#     4  10  20  38  66  90 128 168 214 263 336 388
#     4  12  21  42  68  94 129 173 223 273 315 396
#     4  12  24  39  64 100 131 165 222 274 329 385
#     4  11  22  39  67 100 128 172 225 268 328 393
#
# _framework density 19.753086
#
# number of rings (size 3 to 8) (size 9 to 14) (size 15 to 20)
#    0.000    1.000    6.250    3.000    0.000    1.000 
#    2.250    3.750    0.000    0.000    0.000    0.000 
#    0.000    0.000    0.000    0.000    0.000    0.000 
#
# Total GULP energy -178425.776913 kJ/mol
# GULP energy per Si atom -5575.805529 kJ/mol
# Density = 1.970813 g / cm^3
# Si number density = 19.753086 Si / 1000 Ang^3
#
#
#
# Elastic Constant Matrix: (Units=GPa)
#
#
# Indices 1 2 3 4 5 6 
#
# 1 82.9324 42.4069 1.5168 0.0000 0.0000 0.0000
# 2 42.4069 119.6552 6.9731 0.0000 0.0000 0.0000
# 3 1.5168 6.9731 28.2767 0.0000 0.0000 0.0000
# 4 0.0000 0.0000 0.0000 20.4591 0.0000 0.0000
# 5 0.0000 0.0000 0.0000 0.0000 37.7729 0.0000
# 6 0.0000 0.0000 0.0000 0.0000 0.0000 43.1044
#
#
#
# Elastic Compliance Matrix: (Units=1/GPa)
#
#
# Indices 1 2 3 4 5 6 
#
# 1 0.014734 -0.005251 0.000505 0.000000 0.000000 0.000000
# 2 -0.005251 0.010351 -0.002271 0.000000 0.000000 0.000000
# 3 0.000505 -0.002271 0.035898 0.000000 0.000000 0.000000
# 4 0.000000 0.000000 0.000000 0.048878 0.000000 0.000000
# 5 0.000000 0.000000 0.000000 0.000000 0.026474 0.000000
# 6 0.000000 0.000000 0.000000 0.000000 0.000000 0.023200
#
#
# Mechanical properties :
#
#
# Convention : Reuss Voigt Hill
#
# Bulk Modulus (GPa) = 21.30037 36.96200 29.13118
# Shear Modulus (GPa) = 26.42451 32.26510 29.34481
#
# Velocity S-wave (km/s) = 3.66148 4.04594 3.85850
# Velocity P-wave (km/s) = 5.35556 6.37015 5.88476
#
# Compressibility (1/GPa) = 0.04694754
#
# Stress axis : x y z
#
# Youngs Moduli (GPa) = 67.87030 96.61109 27.85688
#
# Poissons Ratio (x) = 0.50733 -0.01406
# Poissons Ratio (y) = 0.35641 0.06326
# Poissons Ratio (z) = -0.03425 0.21939
#
# Static dielectric constant tensor:
#      x y z
#    x 1.728220 0.000000 0.000000 
#    y 0.000000 1.688640 0.000000 
#    z 0.000000 0.000000 1.759880 
# 
# From -- ./inp_files/4001.got.cif
#   From: 2010.05.17/outbox.ucp.g08.bks.cvg/sg19_3_cif.got.tgz:4001.got - 2010.06.11 13:13:52.
