data_PCOD9316644
_publ_section_title
;
Structure prediction by ZEFSAII (Michael W. Deem and Ramdas Pophale) SiO2 
 PCOD9316644
Probable space group: C 2 2 21
;
_chemical_formula_sum "Si O2"
_cell_formula_units_Z 64
_cell_length_a 14.628934
_cell_length_b 17.171677
_cell_length_c 11.283495
_cell_angle_alpha 90.000000
_cell_angle_beta 90.000000
_cell_angle_gamma 90.000000
_cell_volume 2834.451512
_symmetry_space_group_name_H-M "C 2 2 21"
_symmetry_group_IT_number 20
_symmetry_cell_setting 'orthorhombic'
loop_
_space_group_symop_operation_xyz
x,y,z
-x,-y,1/2+z
x,-y,-z
-x,y,1/2-z
1/2+x,1/2+y,z
1/2-x,1/2-y,1/2+z
1/2+x,1/2-y,-z
1/2-x,1/2+y,1/2-z
loop_
_atom_site_type_symbol
_atom_site_label
_atom_site_fract_x
_atom_site_fract_y
_atom_site_fract_z
Si Si1 0.579684 0.299829 0.624237
Si Si2 0.255058 0.399932 0.204595
Si Si3 0.125582 0.768849 0.887925
Si Si4 0.176255 0.263166 0.609082
Si Si5 0.161746 0.041601 0.373179
Si Si6 0.417849 0.071341 0.839464
Si Si7 0.659032 0.114115 0.036617
Si Si8 0.043333 0.395852 0.605051
O O1 0.605900 0.255371 0.746437
O O2 0.475628 0.295719 0.578707
O O3 0.644259 0.270364 0.518249
O O4 0.591872 0.390786 0.654379
O O5 0.301233 0.316375 0.181972
O O6 0.326265 0.469869 0.215090
O O7 0.181976 0.400300 0.306548
O O8 0.191049 0.425135 0.089304
O O9 0.226033 0.808572 0.892383
O O10 0.144421 0.699530 0.981674
O O11 0.096235 0.320487 0.654333
O O12 0.255565 0.091957 0.382797
O O13 0.141993 0.000000 0.500000
O O14 0.500000 0.091376 0.750000
O O15 0.417059 0.977829 0.852045
O O16 0.441679 0.108211 0.964395
O O17 0.566402 0.095516 0.106077
#
# Coordination Sequence:
#
# PCOD9316644 Si02
#       8
#     8   8   8   8   8   8   8   8
#     4  11  21  38  66  91 127 170 224 278 325 401
#     4  10  21  37  61  91 126 172 225 270 323 402
#     4  10  23  37  60  99 124 167 222 269 331 402
#     4  11  23  40  62  94 131 171 217 275 333 395
#     4  10  19  36  63  91 116 168 223 275 319 397
#     4  11  23  39  65  96 135 174 211 276 348 414
#     4  10  18  34  59  92 131 156 214 266 334 406
#     4  11  24  37  63 101 136 170 212 274 352 399
#
# _framework density 22.579324
#
# number of rings (size 3 to 8) (size 9 to 14) (size 15 to 20)
#    0.000    1.500    6.250    0.750    8.750    0.000 
#    0.000    0.000    2.750    0.000    3.250    0.000 
#    0.000    0.000    0.000    0.000    0.000    0.000 
#
# Total GULP energy -178359.533394 kJ/mol
# GULP energy per Si atom -5573.735419 kJ/mol
# Density = 2.252793 g / cm^3
# Si number density = 22.579324 Si / 1000 Ang^3
#
#
#
# Elastic Constant Matrix: (Units=GPa)
#
#
# Indices 1 2 3 4 5 6 
#
# 1 83.6405 26.0147 9.6938 0.0000 0.0000 0.0000
# 2 26.0147 121.4606 2.8079 0.0000 0.0000 0.0000
# 3 9.6938 2.8079 54.1376 0.0000 0.0000 0.0000
# 4 0.0000 0.0000 0.0000 14.2587 0.0000 0.0000
# 5 0.0000 0.0000 0.0000 0.0000 34.2081 0.0000
# 6 0.0000 0.0000 0.0000 0.0000 0.0000 35.1497
#
#
#
# Elastic Compliance Matrix: (Units=1/GPa)
#
#
# Indices 1 2 3 4 5 6 
#
# 1 0.013065 -0.002748 -0.002197 0.000000 0.000000 0.000000
# 2 -0.002748 0.008821 0.000034 0.000000 0.000000 0.000000
# 3 -0.002197 0.000034 0.018863 0.000000 0.000000 0.000000
# 4 0.000000 0.000000 0.000000 0.070133 0.000000 0.000000
# 5 0.000000 0.000000 0.000000 0.000000 0.029233 0.000000
# 6 0.000000 0.000000 0.000000 0.000000 0.000000 0.028450
#
#
# Mechanical properties :
#
#
# Convention : Reuss Voigt Hill
#
# Bulk Modulus (GPa) = 32.33213 37.36351 34.84782
# Shear Modulus (GPa) = 26.49795 31.43812 28.96804
#
# Velocity S-wave (km/s) = 3.42943 3.73546 3.58571
# Velocity P-wave (km/s) = 5.48012 5.93198 5.71052
#
# Compressibility (1/GPa) = 0.03092899
#
# Stress axis : x y z
#
# Youngs Moduli (GPa) = 76.53971 113.36841 53.01370
#
# Poissons Ratio (x) = 0.31148 0.11647
# Poissons Ratio (y) = 0.21029 -0.00183
# Poissons Ratio (z) = 0.16815 -0.00391
#
# Static dielectric constant tensor:
#      x y z
#    x 1.902050 0.000000 0.000000 
#    y 0.000000 1.910160 0.000000 
#    z 0.000000 0.000000 1.883220 
# 
# From -- ./inp_files/15330.got.cif
#   From: 2010.05.17/outbox.cif.g08.bks.cpg/sg20_8_cif.got.tgz:15330.got - 2010.06.03 22:52:26.
