data_PCOD9316211
_publ_section_title
;
Structure prediction by ZEFSAII (Michael W. Deem and Ramdas Pophale) SiO2 
 PCOD9316211
Probable space group: C 2 2 21
;
_chemical_formula_sum "Si O2"
_cell_formula_units_Z 28
_cell_length_a 32.563998
_cell_length_b 7.533763
_cell_length_c 5.290885
_cell_angle_alpha 90.000000
_cell_angle_beta 90.000000
_cell_angle_gamma 90.000000
_cell_volume 1298.009871
_symmetry_space_group_name_H-M "C 2 2 21"
_symmetry_group_IT_number 20
_symmetry_cell_setting 'orthorhombic'
loop_
_space_group_symop_operation_xyz
x,y,z
-x,-y,1/2+z
x,-y,-z
-x,y,1/2-z
1/2+x,1/2+y,z
1/2-x,1/2-y,1/2+z
1/2+x,1/2-y,-z
1/2-x,1/2+y,1/2-z
loop_
_atom_site_type_symbol
_atom_site_label
_atom_site_fract_x
_atom_site_fract_y
_atom_site_fract_z
Si Si1 0.134516 0.702126 0.793237
Si Si2 0.525540 0.000000 0.500000
Si Si3 0.774417 0.203211 0.425946
Si Si4 0.100765 0.698725 0.294888
O O1 0.181757 0.710432 0.867463
O O2 0.125984 0.787406 0.520623
O O3 0.120144 0.498572 0.750705
O O4 0.107073 0.780838 0.019975
O O5 0.555310 0.156952 0.396868
O O6 0.500000 0.053218 0.750000
O O7 0.752502 0.288049 0.670452
O O8 0.781535 0.000000 0.500000
#
# Coordination Sequence:
#
# PCOD9316211 Si02
#       4
#     8   4   8   8
#     4   9  18  34  50  71 105 137 197 215 277 345
#     4  10  16  26  44  80 120 136 174 224 280 344
#     4  12  27  40  59  85 113 149 199 254 307 336
#     4   9  18  30  55  75 103 157 178 223 291 326
#
# _framework density 21.571484999999999
#
# number of rings (size 3 to 8) (size 9 to 14) (size 15 to 20)
#    0.000    2.286    0.000    6.000   12.000    0.000 
#    0.000    0.000    0.000    0.000    0.000    0.000 
#    0.000  100.571    0.000    0.000    0.000    0.000 
#
# Total GULP energy -78080.917655 kJ/mol
# GULP energy per Si atom -5577.208404 kJ/mol
# Density = 2.152239 g / cm^3
# Si number density = 21.571485 Si / 1000 Ang^3
#
#
#
# Elastic Constant Matrix: (Units=GPa)
#
#
# Indices 1 2 3 4 5 6 
#
# 1 135.7739 15.4020 75.1147 0.0000 0.0000 0.0000
# 2 15.4020 51.9907 9.2569 0.0000 0.0000 0.0000
# 3 75.1147 9.2569 245.2139 0.0000 0.0000 0.0000
# 4 0.0000 0.0000 0.0000 7.8097 0.0000 0.0000
# 5 0.0000 0.0000 0.0000 0.0000 171.8195 0.0000
# 6 0.0000 0.0000 0.0000 0.0000 0.0000 0.4027
#
#
#
# Elastic Compliance Matrix: (Units=1/GPa)
#
#
# Indices 1 2 3 4 5 6 
#
# 1 0.009115 -0.002218 -0.002708 0.000000 0.000000 0.000000
# 2 -0.002218 0.019904 -0.000072 0.000000 0.000000 0.000000
# 3 -0.002708 -0.000072 0.004910 0.000000 0.000000 0.000000
# 4 0.000000 0.000000 0.000000 0.128046 0.000000 0.000000
# 5 0.000000 0.000000 0.000000 0.000000 0.005820 0.000000
# 6 0.000000 0.000000 0.000000 0.000000 0.000000 2.483369
#
#
# Mechanical properties :
#
#
# Convention : Reuss Voigt Hill
#
# Bulk Modulus (GPa) = 41.78368 70.28064 56.03216
# Shear Modulus (GPa) = 1.87326 58.22003 30.04665
#
# Velocity S-wave (km/s) = 0.93289 5.20076 3.73619
# Velocity P-wave (km/s) = 4.53567 8.28945 6.68159
#
# Compressibility (1/GPa) = 0.02393279
#
# Stress axis : x y z
#
# Youngs Moduli (GPa) = 109.70660 50.24084 203.64710
#
# Poissons Ratio (x) = 0.11144 0.55157
# Poissons Ratio (y) = 0.24334 0.01465
# Poissons Ratio (z) = 0.29714 0.00361
#
# Static dielectric constant tensor:
#      x y z
#    x 1.782100 0.000000 0.000000 
#    y 0.000000 -3.411260 0.000000 
#    z 0.000000 0.000000 1.460450 
# 
# From -- ./inp_files/4441.got.cif
#   From: 2010.05.17/outbox.cif.g08.bks.cpg/sg20_3_cif.got.tgz:4441.got - 2010.06.03 22:52:26.
