data_PCOD9316307
_publ_section_title
;
Structure prediction by ZEFSAII (Michael W. Deem and Ramdas Pophale) SiO2 
 PCOD9316307
Probable space group: C 2 2 21
;
_chemical_formula_sum "Si O2"
_cell_formula_units_Z 48
_cell_length_a 13.906922
_cell_length_b 16.871626
_cell_length_c 9.517355
_cell_angle_alpha 90.000000
_cell_angle_beta 90.000000
_cell_angle_gamma 90.000000
_cell_volume 2233.079720
_symmetry_space_group_name_H-M "C 2 2 21"
_symmetry_group_IT_number 20
_symmetry_cell_setting 'orthorhombic'
loop_
_space_group_symop_operation_xyz
x,y,z
-x,-y,1/2+z
x,-y,-z
-x,y,1/2-z
1/2+x,1/2+y,z
1/2-x,1/2-y,1/2+z
1/2+x,1/2-y,-z
1/2-x,1/2+y,1/2-z
loop_
_atom_site_type_symbol
_atom_site_label
_atom_site_fract_x
_atom_site_fract_y
_atom_site_fract_z
Si Si1 0.398567 0.844130 0.753186
Si Si2 0.534814 0.573651 0.411675
Si Si3 0.749297 0.889875 0.958792
Si Si4 0.103197 0.364029 0.195982
Si Si5 0.582208 0.717375 0.988131
Si Si6 0.207022 0.701709 0.529392
O O1 0.500000 0.887042 0.750000
O O2 0.318414 0.894697 0.676188
O O3 0.413756 0.764527 0.658974
O O4 0.364461 0.821642 0.906234
O O5 0.494205 0.500000 0.500000
O O6 0.500000 0.573665 0.250000
O O7 0.649972 0.570074 0.425618
O O8 0.499927 0.654233 0.486091
O O9 0.679489 0.908905 0.092119
O O10 0.777689 0.796451 0.970730
O O11 0.074377 0.286498 0.104156
O O12 0.165098 0.332356 0.327041
O O13 0.000000 0.398610 0.250000
O O14 0.684583 0.672958 0.002153
#
# Coordination Sequence:
#
# PCOD9316307 Si02
#       6
#     8   8   8   8   8   8
#     4  10  18  29  53  84 112 140 180 236 291 343
#     4  12  26  42  59  79 114 161 205 247 293 354
#     4  10  20  35  52  78 113 149 187 232 289 347
#     4  10  18  31  55  84 116 147 181 232 292 347
#     4  10  20  34  51  78 117 151 185 228 288 353
#     4  10  17  29  52  81 113 148 182 231 286 342
#
# _framework density 21.494979000000001
#
# number of rings (size 3 to 8) (size 9 to 14) (size 15 to 20)
#    0.000    2.000    0.000   10.500    0.000    3.333 
#    0.000    0.000    0.000    1.000    0.000    2.333 
#    0.000    0.000    0.000    0.000    0.000    0.000 
#
# Total GULP energy -133970.574509 kJ/mol
# GULP energy per Si atom -5582.107271 kJ/mol
# Density = 2.144606 g / cm^3
# Si number density = 21.494979 Si / 1000 Ang^3
#
#
#
# Elastic Constant Matrix: (Units=GPa)
#
#
# Indices 1 2 3 4 5 6 
#
# 1 146.7804 12.3338 19.3844 0.0000 0.0000 0.0000
# 2 12.3338 38.1417 13.4374 0.0000 0.0000 0.0000
# 3 19.3844 13.4374 111.8796 0.0000 0.0000 0.0000
# 4 0.0000 0.0000 0.0000 -1.8938 0.0000 0.0000
# 5 0.0000 0.0000 0.0000 0.0000 46.9250 0.0000
# 6 0.0000 0.0000 0.0000 0.0000 0.0000 1.0593
#
#
#
# Elastic Compliance Matrix: (Units=1/GPa)
#
#
# Indices 1 2 3 4 5 6 
#
# 1 0.007108 -0.001947 -0.000998 0.000000 0.000000 0.000000
# 2 -0.001947 0.027910 -0.003015 0.000000 0.000000 0.000000
# 3 -0.000998 -0.003015 0.009473 0.000000 0.000000 0.000000
# 4 0.000000 0.000000 0.000000 -0.528039 0.000000 0.000000
# 5 0.000000 0.000000 0.000000 0.000000 0.021311 0.000000
# 6 0.000000 0.000000 0.000000 0.000000 0.000000 0.944057
#
#
# Mechanical properties :
#
#
# Convention : Reuss Voigt Hill
#
# Bulk Modulus (GPa) = 30.70124 43.01258 36.85691
# Shear Modulus (GPa) = 9.90892 25.99450 17.95171
#
# Velocity S-wave (km/s) = 2.14939 3.48131 2.89305
# Velocity P-wave (km/s) = 4.52480 6.01775 5.32387
#
# Compressibility (1/GPa) = 0.03257198
#
# Stress axis : x y z
#
# Youngs Moduli (GPa) = 140.68114 35.82975 105.56163
#
# Poissons Ratio (x) = 0.06976 0.10532
# Poissons Ratio (y) = 0.27392 0.31825
# Poissons Ratio (z) = 0.14036 0.10802
#
# Static dielectric constant tensor:
#      x y z
#    x 3.269520 0.000000 0.000000 
#    y 0.000000 1.768970 0.000000 
#    z 0.000000 0.000000 1.756400 
# 
# From -- ./inp_files/8450.got.cif
#   From: 2010.05.17/outbox.cif.g08.bks.cpg/sg20_5_cif.got.tgz:8450.got - 2010.06.03 22:52:26.
