data_PCOD9316646
_publ_section_title
;
Structure prediction by ZEFSAII (Michael W. Deem and Ramdas Pophale) SiO2 
 PCOD9316646
Probable space group: C 2 2 21
;
_chemical_formula_sum "Si O2"
_cell_formula_units_Z 48
_cell_length_a 20.944638
_cell_length_b 8.875654
_cell_length_c 10.812453
_cell_angle_alpha 90.000000
_cell_angle_beta 90.000000
_cell_angle_gamma 90.000000
_cell_volume 2010.006468
_symmetry_space_group_name_H-M "C 2 2 21"
_symmetry_group_IT_number 20
_symmetry_cell_setting 'orthorhombic'
loop_
_space_group_symop_operation_xyz
x,y,z
-x,-y,1/2+z
x,-y,-z
-x,y,1/2-z
1/2+x,1/2+y,z
1/2-x,1/2-y,1/2+z
1/2+x,1/2-y,-z
1/2-x,1/2+y,1/2-z
loop_
_atom_site_type_symbol
_atom_site_label
_atom_site_fract_x
_atom_site_fract_y
_atom_site_fract_z
Si Si1 0.936119 0.000000 0.500000
Si Si2 0.491050 0.191745 0.523078
Si Si3 0.373176 0.198383 0.868612
Si Si4 0.717728 0.333291 0.434970
Si Si5 0.881270 0.040839 0.759070
Si Si6 0.000000 0.252308 0.750000
Si Si7 0.647555 0.886169 0.113136
O O1 0.984475 0.869796 0.535044
O O2 0.890518 0.961073 0.387182
O O3 0.558484 0.146929 0.579028
O O4 0.483795 0.157844 0.375688
O O5 0.426320 0.152285 0.593796
O O6 0.381342 0.368255 0.808690
O O7 0.349385 0.086838 0.760338
O O8 0.322775 0.222921 0.978296
O O9 0.716342 0.500000 0.500000
O O10 0.679598 0.369169 0.309209
O O11 0.790103 0.281697 0.409928
O O12 0.942634 0.143054 0.794108
O O13 0.656561 0.000000 0.000000
#
# Coordination Sequence:
#
# PCOD9316646 Si02
#       7
#     4   8   8   8   8   4   8
#     4  10  20  30  64 108 132 156 200 290 338 390
#     4  11  21  38  63 100 129 166 221 272 338 383
#     4  11  20  39  67  94 123 174 221 269 333 384
#     4   9  21  39  63  91 131 172 211 270 330 393
#     4  10  18  34  60 100 135 153 206 268 346 383
#     4  10  20  32  62 100 140 150 200 292 332 388
#     4  11  25  43  61  91 135 185 220 261 320 407
#
# _framework density 23.880521999999999
#
# number of rings (size 3 to 8) (size 9 to 14) (size 15 to 20)
#    0.000    1.667    3.333    2.500    1.167    2.667 
#    3.000    0.000    0.000    0.000    2.167    0.000 
#    0.000    0.000    0.000    0.000    0.000    0.000 
#
# Total GULP energy -133814.605735 kJ/mol
# GULP energy per Si atom -5575.608572 kJ/mol
# Density = 2.382617 g / cm^3
# Si number density = 23.880522 Si / 1000 Ang^3
#
#
#
# Elastic Constant Matrix: (Units=GPa)
#
#
# Indices 1 2 3 4 5 6 
#
# 1 159.0191 14.1700 56.6876 0.0000 0.0000 0.0000
# 2 14.1700 46.9842 -5.1844 0.0000 0.0000 0.0000
# 3 56.6876 -5.1844 146.0474 0.0000 0.0000 0.0000
# 4 0.0000 0.0000 0.0000 25.7365 0.0000 0.0000
# 5 0.0000 0.0000 0.0000 0.0000 75.6626 0.0000
# 6 0.0000 0.0000 0.0000 0.0000 0.0000 13.2116
#
#
#
# Elastic Compliance Matrix: (Units=1/GPa)
#
#
# Indices 1 2 3 4 5 6 
#
# 1 0.007609 -0.002631 -0.003047 0.000000 0.000000 0.000000
# 2 -0.002631 0.022277 0.001812 0.000000 0.000000 0.000000
# 3 -0.003047 0.001812 0.008094 0.000000 0.000000 0.000000
# 4 0.000000 0.000000 0.000000 0.038855 0.000000 0.000000
# 5 0.000000 0.000000 0.000000 0.000000 0.013217 0.000000
# 6 0.000000 0.000000 0.000000 0.000000 0.000000 0.075691
#
#
# Mechanical properties :
#
#
# Convention : Reuss Voigt Hill
#
# Bulk Modulus (GPa) = 33.05936 53.71080 43.38508
# Shear Modulus (GPa) = 27.23938 42.01398 34.62668
#
# Velocity S-wave (km/s) = 3.38102 4.19900 3.81201
# Velocity P-wave (km/s) = 5.39587 6.78595 6.13044
#
# Compressibility (1/GPa) = 0.03024862
#
# Stress axis : x y z
#
# Youngs Moduli (GPa) = 131.42071 44.88897 123.54776
#
# Poissons Ratio (x) = 0.11810 0.37643
# Poissons Ratio (y) = 0.34577 -0.22387
# Poissons Ratio (z) = 0.40042 -0.08134
#
# Static dielectric constant tensor:
#      x y z
#    x 1.894480 0.000000 0.000000 
#    y 0.000000 2.024070 0.000000 
#    z 0.000000 0.000000 1.901070 
# 
# From -- ./inp_files/15751.got.cif
#   From: 2010.05.17/outbox.cif.g08.bks.cpg/sg20_8_cif.got.tgz:15751.got - 2010.06.03 22:52:26.
