data_PCOD9316710
_publ_section_title
;
Structure prediction by ZEFSAII (Michael W. Deem and Ramdas Pophale) SiO2 
 PCOD9316710
Probable space group: C 2 2 21
;
_chemical_formula_sum "Si O2"
_cell_formula_units_Z 44
_cell_length_a 15.872871
_cell_length_b 22.534601
_cell_length_c 6.667260
_cell_angle_alpha 90.000000
_cell_angle_beta 90.000000
_cell_angle_gamma 90.000000
_cell_volume 2384.804327
_symmetry_space_group_name_H-M "C 2 2 21"
_symmetry_group_IT_number 20
_symmetry_cell_setting 'orthorhombic'
loop_
_space_group_symop_operation_xyz
x,y,z
-x,-y,1/2+z
x,-y,-z
-x,y,1/2-z
1/2+x,1/2+y,z
1/2-x,1/2-y,1/2+z
1/2+x,1/2-y,-z
1/2-x,1/2+y,1/2-z
loop_
_atom_site_type_symbol
_atom_site_label
_atom_site_fract_x
_atom_site_fract_y
_atom_site_fract_z
Si Si1 0.167259 0.681896 0.925511
Si Si2 0.000000 0.066738 0.250000
Si Si3 0.863257 0.000000 0.500000
Si Si4 0.707768 0.381655 0.185695
Si Si5 0.741507 0.693687 0.203753
Si Si6 0.500000 0.766912 0.250000
Si Si7 0.914701 0.165758 0.004719
O O1 0.215682 0.624354 0.843378
O O2 0.223884 0.738314 0.852674
O O3 0.076876 0.694205 0.831879
O O4 0.174752 0.685326 0.165376
O O5 0.030485 0.109657 0.427771
O O6 0.923373 0.028419 0.331390
O O7 0.812758 0.947098 0.392593
O O8 0.626301 0.349726 0.289897
O O9 0.737564 0.343934 0.995760
O O10 0.664334 0.671934 0.342942
O O11 0.531282 0.723902 0.433378
#
# Coordination Sequence:
#
# PCOD9316710 Si02
#       7
#     8   4   4   8   8   4   8
#     4  10  20  35  60  84 118 149 201 253 303 357
#     4  11  20  38  52  86 122 154 203 246 286 360
#     4  12  24  36  56  84 122 166 208 234 296 366
#     4  11  22  38  57  81 116 170 198 243 291 380
#     4  10  18  36  56  84 116 155 195 235 295 369
#     4   9  20  38  60  98 118 152 197 266 320 362
#     4   9  20  36  57  84 123 154 195 236 299 364
#
# _framework density 18.450151000000002
#
# number of rings (size 3 to 8) (size 9 to 14) (size 15 to 20)
#    0.000    1.818    3.636    1.091    0.000    0.000 
#    0.000    4.545    0.000    0.000    4.727    0.000 
#    0.000    0.000    0.000    0.000    0.000    0.000 
#
# Total GULP energy -122756.251122 kJ/mol
# GULP energy per Si atom -5579.829596 kJ/mol
# Density = 1.840816 g / cm^3
# Si number density = 18.450151 Si / 1000 Ang^3
#
#
#
# Elastic Constant Matrix: (Units=GPa)
#
#
# Indices 1 2 3 4 5 6 
#
# 1 81.9343 38.6015 31.9445 0.0000 0.0000 0.0000
# 2 38.6015 71.1720 28.8408 0.0000 0.0000 0.0000
# 3 31.9445 28.8408 95.9728 0.0000 0.0000 0.0000
# 4 0.0000 0.0000 0.0000 10.1512 0.0000 0.0000
# 5 0.0000 0.0000 0.0000 0.0000 32.2705 0.0000
# 6 0.0000 0.0000 0.0000 0.0000 0.0000 27.5199
#
#
#
# Elastic Compliance Matrix: (Units=1/GPa)
#
#
# Indices 1 2 3 4 5 6 
#
# 1 0.017288 -0.008021 -0.003344 0.000000 0.000000 0.000000
# 2 -0.008021 0.019721 -0.003256 0.000000 0.000000 0.000000
# 3 -0.003344 -0.003256 0.012511 0.000000 0.000000 0.000000
# 4 0.000000 0.000000 0.000000 0.098511 0.000000 0.000000
# 5 0.000000 0.000000 0.000000 0.000000 0.030988 0.000000
# 6 0.000000 0.000000 0.000000 0.000000 0.000000 0.036337
#
#
# Mechanical properties :
#
#
# Convention : Reuss Voigt Hill
#
# Bulk Modulus (GPa) = 49.31793 49.76141 49.53967
# Shear Modulus (GPa) = 19.89203 23.96779 21.92991
#
# Velocity S-wave (km/s) = 3.28708 3.60815 3.45135
# Velocity P-wave (km/s) = 6.41833 6.66241 6.54150
#
# Compressibility (1/GPa) = 0.02027660
#
# Stress axis : x y z
#
# Youngs Moduli (GPa) = 57.84496 50.70855 79.92885
#
# Poissons Ratio (x) = 0.40675 0.26726
# Poissons Ratio (y) = 0.46399 0.26028
# Poissons Ratio (z) = 0.19341 0.16512
#
# Static dielectric constant tensor:
#      x y z
#    x 1.669630 0.000000 0.000000 
#    y 0.000000 1.629240 0.000000 
#    z 0.000000 0.000000 1.696630 
# 
# From -- ./inp_files/2699.got.cif
#   From: 2010.05.17/outbox.cif.g08.bks.cpg/sg20_2_cif.got.tgz:2699.got - 2010.06.03 22:52:26.
