data_PCOD9316195
_publ_section_title
;
Structure prediction by ZEFSAII (Michael W. Deem and Ramdas Pophale) SiO2 
 PCOD9316195
Probable space group: C 2 2 21
;
_chemical_formula_sum "Si O2"
_cell_formula_units_Z 56
_cell_length_a 18.498539
_cell_length_b 7.386899
_cell_length_c 18.645406
_cell_angle_alpha 90.000000
_cell_angle_beta 90.000000
_cell_angle_gamma 90.000000
_cell_volume 2547.835796
_symmetry_space_group_name_H-M "C 2 2 21"
_symmetry_group_IT_number 20
_symmetry_cell_setting 'orthorhombic'
loop_
_space_group_symop_operation_xyz
x,y,z
-x,-y,1/2+z
x,-y,-z
-x,y,1/2-z
1/2+x,1/2+y,z
1/2-x,1/2-y,1/2+z
1/2+x,1/2-y,-z
1/2-x,1/2+y,1/2-z
loop_
_atom_site_type_symbol
_atom_site_label
_atom_site_fract_x
_atom_site_fract_y
_atom_site_fract_z
Si Si1 0.330011 0.696783 0.466776
Si Si2 0.314785 0.834993 0.618596
Si Si3 0.939031 0.751925 0.659904
Si Si4 0.766706 0.452612 0.852288
Si Si5 0.596613 0.151030 0.680298
Si Si6 0.574749 0.331860 0.214610
Si Si7 0.805045 0.026847 0.203991
O O1 0.352545 0.500000 0.500000
O O2 0.321131 0.827154 0.533879
O O3 0.387654 0.762598 0.408243
O O4 0.257074 0.657610 0.421809
O O5 0.271913 0.648147 0.637127
O O6 0.391978 0.802881 0.656004
O O7 0.264910 0.989855 0.653518
O O8 0.912802 0.658036 0.733517
O O9 0.941101 0.967877 0.680599
O O10 0.018391 0.673119 0.646329
O O11 0.851223 0.490303 0.843441
O O12 0.729237 0.390708 0.777762
O O13 0.641491 0.333653 0.665667
O O14 0.500000 0.269054 0.250000
O O15 0.640511 0.369642 0.270709
#
# Coordination Sequence:
#
# PCOD9316195 Si02
#       7
#     8   8   8   8   8   8   8
#     4  10  16  28  47  77  98 126 163 208 253 294
#     4   9  18  27  48  78  98 128 160 211 254 294
#     4  10  15  27  46  74  94 123 164 208 234 299
#     4   9  16  27  47  76  96 124 164 212 233 293
#     4   9  16  26  47  77  92 121 167 206 245 276
#     4  10  15  28  50  74  93 119 164 206 242 287
#     4   9  15  28  46  75  98 122 164 209 243 285
#
# _framework density 21.979438999999999
#
# number of rings (size 3 to 8) (size 9 to 14) (size 15 to 20)
#    0.000    2.571    8.571    0.000    0.000    0.000 
#    0.000    0.000    3.143    9.429   26.000    0.000 
#    0.000    0.000    0.000    0.000    0.000    0.000 
#
# Total GULP energy -156314.785532 kJ/mol
# GULP energy per Si atom -5582.670912 kJ/mol
# Density = 2.192941 g / cm^3
# Si number density = 21.979439 Si / 1000 Ang^3
#
#
#
# Elastic Constant Matrix: (Units=GPa)
#
#
# Indices 1 2 3 4 5 6 
#
# 1 195.2440 34.1463 79.8993 0.0000 0.0000 0.0000
# 2 34.1463 60.3908 34.0763 0.0000 0.0000 0.0000
# 3 79.8993 34.0763 131.4015 0.0000 0.0000 0.0000
# 4 0.0000 0.0000 0.0000 17.2316 0.0000 0.0000
# 5 0.0000 0.0000 0.0000 0.0000 29.7816 0.0000
# 6 0.0000 0.0000 0.0000 0.0000 0.0000 13.2130
#
#
#
# Elastic Compliance Matrix: (Units=1/GPa)
#
#
# Indices 1 2 3 4 5 6 
#
# 1 0.006985 -0.001819 -0.003776 0.000000 0.000000 0.000000
# 2 -0.001819 0.019871 -0.004047 0.000000 0.000000 0.000000
# 3 -0.003776 -0.004047 0.010955 0.000000 0.000000 0.000000
# 4 0.000000 0.000000 0.000000 0.058033 0.000000 0.000000
# 5 0.000000 0.000000 0.000000 0.000000 0.033578 0.000000
# 6 0.000000 0.000000 0.000000 0.000000 0.000000 0.075683
#
#
# Mechanical properties :
#
#
# Convention : Reuss Voigt Hill
#
# Bulk Modulus (GPa) = 53.97184 75.92005 64.94594
# Shear Modulus (GPa) = 21.68594 27.97288 24.82941
#
# Velocity S-wave (km/s) = 3.14450 3.57134 3.36470
# Velocity P-wave (km/s) = 6.14758 7.18487 6.68637
#
# Compressibility (1/GPa) = 0.01852818
#
# Stress axis : x y z
#
# Youngs Moduli (GPa) = 143.16437 50.32474 91.27844
#
# Poissons Ratio (x) = 0.09155 0.34462
# Poissons Ratio (y) = 0.26043 0.36941
# Poissons Ratio (z) = 0.54052 0.20367
#
# Static dielectric constant tensor:
#      x y z
#    x 1.808930 0.000000 0.000000 
#    y 0.000000 1.916640 0.000000 
#    z 0.000000 0.000000 1.778100 
# 
# From -- ./inp_files/25311.got.cif
#   From: 2010.05.17/outbox.cif.g08.bks.cpg/sg20_13_cif.got.tgz:25311.got - 2010.06.03 22:52:26.
