data_PCOD9316976
_publ_section_title
;
Structure prediction by ZEFSAII (Michael W. Deem and Ramdas Pophale) SiO2 
 PCOD9316976
Probable space group: C 2 2 21
;
_chemical_formula_sum "Si O2"
_cell_formula_units_Z 40
_cell_length_a 20.221011
_cell_length_b 17.349717
_cell_length_c 5.214659
_cell_angle_alpha 90.000000
_cell_angle_beta 90.000000
_cell_angle_gamma 90.000000
_cell_volume 1829.452655
_symmetry_space_group_name_H-M "C 2 2 21"
_symmetry_group_IT_number 20
_symmetry_cell_setting 'orthorhombic'
loop_
_space_group_symop_operation_xyz
x,y,z
-x,-y,1/2+z
x,-y,-z
-x,y,1/2-z
1/2+x,1/2+y,z
1/2-x,1/2-y,1/2+z
1/2+x,1/2-y,-z
1/2-x,1/2+y,1/2-z
loop_
_atom_site_type_symbol
_atom_site_label
_atom_site_fract_x
_atom_site_fract_y
_atom_site_fract_z
Si Si1 0.233325 0.150617 0.531293
Si Si2 0.480506 0.299675 0.497450
Si Si3 0.038287 0.370906 0.507725
Si Si4 0.171614 0.200253 0.036969
Si Si5 0.160933 0.453464 0.752571
O O1 0.201137 0.146102 0.812216
O O2 0.282440 0.224255 0.538398
O O3 0.279574 0.086119 0.406394
O O4 0.177354 0.165677 0.319925
O O5 0.500000 0.345934 0.250000
O O6 0.525797 0.221494 0.497600
O O7 0.403962 0.277706 0.487987
O O8 0.500000 0.343329 0.750000
O O9 0.112128 0.394377 0.594724
O O10 0.000000 0.397823 0.250000
O O11 0.000000 0.403729 0.750000
O O12 0.184783 0.500000 0.500000
O O13 0.128626 0.500000 0.000000
#
# Coordination Sequence:
#
# PCOD9316976 Si02
#       5
#     8   8   8   8   8
#     4  10  21  37  57  82 110 148 204 253 294 338
#     4  10  19  32  54  82 115 149 182 229 296 354
#     4  10  21  36  54  76 112 156 199 237 278 332
#     4  10  20  35  58  82 110 150 194 250 304 344
#     4  12  25  40  58  82 119 165 208 241 278 342
#
# _framework density 21.864464999999999
#
# number of rings (size 3 to 8) (size 9 to 14) (size 15 to 20)
#    0.000    1.600    0.000    6.000    0.000   11.200 
#    0.000    0.000    0.000    0.000    0.000    0.000 
#    0.000   44.800    0.000    0.000    0.000    0.000 
#
# Total GULP energy -111340.874781 kJ/mol
# GULP energy per Si atom -5567.043739 kJ/mol
# Density = 2.181470 g / cm^3
# Si number density = 21.864465 Si / 1000 Ang^3
#
#
#
# Elastic Constant Matrix: (Units=GPa)
#
#
# Indices 1 2 3 4 5 6 
#
# 1 73.2748 5.6944 11.8207 0.0000 0.0000 0.0000
# 2 5.6944 18.5397 -7.0413 0.0000 0.0000 0.0000
# 3 11.8207 -7.0413 159.2307 0.0000 0.0000 0.0000
# 4 0.0000 0.0000 0.0000 14.3533 0.0000 0.0000
# 5 0.0000 0.0000 0.0000 0.0000 38.7525 0.0000
# 6 0.0000 0.0000 0.0000 0.0000 0.0000 13.5627
#
#
#
# Elastic Compliance Matrix: (Units=1/GPa)
#
#
# Indices 1 2 3 4 5 6 
#
# 1 0.014229 -0.004853 -0.001271 0.000000 0.000000 0.000000
# 2 -0.004853 0.056515 0.002859 0.000000 0.000000 0.000000
# 3 -0.001271 0.002859 0.006501 0.000000 0.000000 0.000000
# 4 0.000000 0.000000 0.000000 0.069670 0.000000 0.000000
# 5 0.000000 0.000000 0.000000 0.000000 0.025805 0.000000
# 6 0.000000 0.000000 0.000000 0.000000 0.000000 0.073732
#
#
# Mechanical properties :
#
#
# Convention : Reuss Voigt Hill
#
# Bulk Modulus (GPa) = 14.14113 30.22144 22.18129
# Shear Modulus (GPa) = 18.07967 29.37179 23.72573
#
# Velocity S-wave (km/s) = 2.87870 3.66916 3.29770
# Velocity P-wave (km/s) = 4.18699 5.63937 4.96656
#
# Compressibility (1/GPa) = 0.07071572
#
# Stress axis : x y z
#
# Youngs Moduli (GPa) = 70.27681 17.69447 153.82273
#
# Poissons Ratio (x) = 0.08588 0.19550
# Poissons Ratio (y) = 0.34107 -0.43984
# Poissons Ratio (z) = 0.08932 -0.05060
#
# Static dielectric constant tensor:
#      x y z
#    x 1.855490 0.000000 0.000000 
#    y 0.000000 1.854580 0.000000 
#    z 0.000000 0.000000 1.946610 
# 
# From -- ./inp_files/2484.got.cif
#   From: 2010.05.17/outbox.cif.g08.bks.cpg/sg20_2_cif.got.tgz:2484.got - 2010.06.03 22:52:26.
