data_PCOD9316314
_publ_section_title
;
Structure prediction by ZEFSAII (Michael W. Deem and Ramdas Pophale) SiO2 
 PCOD9316314
Probable space group: C 2 2 21
;
_chemical_formula_sum "Si O2"
_cell_formula_units_Z 52
_cell_length_a 11.375695
_cell_length_b 30.937707
_cell_length_c 8.298029
_cell_angle_alpha 90.000000
_cell_angle_beta 90.000000
_cell_angle_gamma 90.000000
_cell_volume 2920.391057
_symmetry_space_group_name_H-M "C 2 2 21"
_symmetry_group_IT_number 20
_symmetry_cell_setting 'orthorhombic'
loop_
_space_group_symop_operation_xyz
x,y,z
-x,-y,1/2+z
x,-y,-z
-x,y,1/2-z
1/2+x,1/2+y,z
1/2-x,1/2-y,1/2+z
1/2+x,1/2-y,-z
1/2-x,1/2+y,1/2-z
loop_
_atom_site_type_symbol
_atom_site_label
_atom_site_fract_x
_atom_site_fract_y
_atom_site_fract_z
Si Si1 0.638823 0.957842 0.216116
Si Si2 0.500000 0.188086 0.750000
Si Si3 0.711227 0.129895 0.623808
Si Si4 0.357238 0.145220 0.242332
Si Si5 0.137429 0.798707 0.229157
Si Si6 0.323277 0.779231 0.503049
Si Si7 0.631427 0.948758 0.830097
O O1 0.500000 0.956440 0.250000
O O2 0.697721 0.919894 0.321337
O O3 0.683079 0.006988 0.244755
O O4 0.639255 0.952097 0.023076
O O5 0.606320 0.156139 0.709206
O O6 0.556164 0.215044 0.897857
O O7 0.688421 0.143147 0.439543
O O8 0.829868 0.152209 0.684905
O O9 0.500000 0.146859 0.250000
O O10 0.318716 0.184267 0.357384
O O11 0.316046 0.098220 0.301516
O O12 0.213150 0.785594 0.385099
O O13 0.000000 0.792072 0.250000
O O14 0.179509 0.767069 0.086930
O O15 0.500000 0.947005 0.750000
#
# Coordination Sequence:
#
# PCOD9316314 Si02
#       7
#     8   4   8   8   8   8   8
#     4  10  17  30  48  77 118 152 191 230 294 354
#     4  10  20  34  58  80 106 146 188 226 280 348
#     4  11  21  35  55  80 111 158 189 236 290 339
#     4  11  19  33  55  86 119 149 192 235 291 357
#     4  11  26  41  57  85 113 148 195 236 286 344
#     4  11  23  39  62  82 114 151 187 238 293 349
#     4   9  18  26  45  80 117 153 182 236 289 355
#
# _framework density 17.805834999999998
#
# number of rings (size 3 to 8) (size 9 to 14) (size 15 to 20)
#    0.000    1.538    2.308    5.077    4.308    1.846 
#    0.000    0.000    0.000    0.000    0.000    8.615 
#    0.000    0.000    0.000    0.000    0.000    0.000 
#
# Total GULP energy -144813.290452 kJ/mol
# GULP energy per Si atom -5569.741940 kJ/mol
# Density = 1.776531 g / cm^3
# Si number density = 17.805835 Si / 1000 Ang^3
#
#
#
# Elastic Constant Matrix: (Units=GPa)
#
#
# Indices 1 2 3 4 5 6 
#
# 1 48.0181 7.7578 11.3927 0.0000 0.0000 0.0000
# 2 7.7578 99.8687 17.5090 0.0000 0.0000 0.0000
# 3 11.3927 17.5090 64.9637 0.0000 0.0000 0.0000
# 4 0.0000 0.0000 0.0000 37.0514 0.0000 0.0000
# 5 0.0000 0.0000 0.0000 0.0000 18.9584 0.0000
# 6 0.0000 0.0000 0.0000 0.0000 0.0000 11.5329
#
#
#
# Elastic Compliance Matrix: (Units=1/GPa)
#
#
# Indices 1 2 3 4 5 6 
#
# 1 0.021839 -0.001076 -0.003540 0.000000 0.000000 0.000000
# 2 -0.001076 0.010563 -0.002658 0.000000 0.000000 0.000000
# 3 -0.003540 -0.002658 0.016730 0.000000 0.000000 0.000000
# 4 0.000000 0.000000 0.000000 0.026990 0.000000 0.000000
# 5 0.000000 0.000000 0.000000 0.000000 0.052747 0.000000
# 6 0.000000 0.000000 0.000000 0.000000 0.000000 0.086709
#
#
# Mechanical properties :
#
#
# Convention : Reuss Voigt Hill
#
# Bulk Modulus (GPa) = 28.91484 31.79664 30.35574
# Shear Modulus (GPa) = 20.69076 25.25459 22.97267
#
# Velocity S-wave (km/s) = 3.41254 3.77016 3.59580
# Velocity P-wave (km/s) = 5.63928 6.07028 5.85875
#
# Compressibility (1/GPa) = 0.03458431
#
# Stress axis : x y z
#
# Youngs Moduli (GPa) = 45.78928 94.67220 59.77121
#
# Poissons Ratio (x) = 0.10185 0.21159
# Poissons Ratio (y) = 0.04926 0.15888
# Poissons Ratio (z) = 0.16209 0.25166
#
# Static dielectric constant tensor:
#      x y z
#    x 1.586220 0.000000 0.000000 
#    y 0.000000 1.651810 0.000000 
#    z 0.000000 0.000000 1.568790 
# 
# From -- ./inp_files/7534.got.cif
#   From: 2010.05.17/outbox.cif.g08.bks.cpg/sg20_4_cif.got.tgz:7534.got - 2010.06.03 22:52:26.
