data_PCOD9316376
_publ_section_title
;
Structure prediction by ZEFSAII (Michael W. Deem and Ramdas Pophale) SiO2 
 PCOD9316376
Probable space group: C 2 2 21
;
_chemical_formula_sum "Si O2"
_cell_formula_units_Z 52
_cell_length_a 33.386843
_cell_length_b 7.583391
_cell_length_c 9.138610
_cell_angle_alpha 90.000000
_cell_angle_beta 90.000000
_cell_angle_gamma 90.000000
_cell_volume 2313.763403
_symmetry_space_group_name_H-M "C 2 2 21"
_symmetry_group_IT_number 20
_symmetry_cell_setting 'orthorhombic'
loop_
_space_group_symop_operation_xyz
x,y,z
-x,-y,1/2+z
x,-y,-z
-x,y,1/2-z
1/2+x,1/2+y,z
1/2-x,1/2-y,1/2+z
1/2+x,1/2-y,-z
1/2-x,1/2+y,1/2-z
loop_
_atom_site_type_symbol
_atom_site_label
_atom_site_fract_x
_atom_site_fract_y
_atom_site_fract_z
Si Si1 0.890732 0.293611 0.463289
Si Si2 0.959923 0.073440 0.334023
Si Si3 0.758228 0.155052 0.385968
Si Si4 0.109512 0.868847 0.279657
Si Si5 0.831737 0.423199 0.815726
Si Si6 0.167524 0.184088 0.287254
Si Si7 0.700868 0.000000 0.000000
O O1 0.896520 0.500000 0.500000
O O2 0.928480 0.230122 0.365837
O O3 0.887935 0.172840 0.606451
O O4 0.852403 0.238599 0.368061
O O5 0.000000 0.125440 0.250000
O O6 0.968117 0.000000 0.500000
O O7 0.935998 0.939510 0.222603
O O8 0.711068 0.154336 0.360495
O O9 0.786736 0.129250 0.243846
O O10 0.771639 0.342086 0.445573
O O11 0.767680 0.000000 0.500000
O O12 0.128466 0.690164 0.345058
O O13 0.139548 0.022744 0.333076
O O14 0.834080 0.627013 0.867742
O O15 0.824556 0.430629 0.638651
#
# Coordination Sequence:
#
# PCOD9316376 Si02
#       7
#     8   8   8   8   8   8   4
#     4  10  17  34  60  93 119 151 199 252 298 353
#     4   9  20  38  66  95 124 155 195 247 308 374
#     4  11  24  35  54  80 120 159 206 252 304 355
#     4  10  19  34  60  85 115 153 197 245 297 347
#     4  11  22  36  58  84 114 156 207 254 298 351
#     4  10  20  32  56  81 115 151 200 257 296 342
#     4  10  24  36  54  82 112 156 202 260 302 348
#
# _framework density 22.474207
#
# number of rings (size 3 to 8) (size 9 to 14) (size 15 to 20)
#    0.000    1.846    1.538    5.077    9.692    0.000 
#    0.000    3.077    8.462    0.000    0.000    0.000 
#    0.000    0.000    0.000    0.000    0.000    0.000 
#
# Total GULP energy -145070.425494 kJ/mol
# GULP energy per Si atom -5579.631750 kJ/mol
# Density = 2.242305 g / cm^3
# Si number density = 22.474207 Si / 1000 Ang^3
#
#
#
# Elastic Constant Matrix: (Units=GPa)
#
#
# Indices 1 2 3 4 5 6 
#
# 1 131.3532 35.0659 36.8437 0.0000 0.0000 0.0000
# 2 35.0659 108.8082 13.4751 0.0000 0.0000 0.0000
# 3 36.8437 13.4751 52.0518 0.0000 0.0000 0.0000
# 4 0.0000 0.0000 0.0000 19.0176 0.0000 0.0000
# 5 0.0000 0.0000 0.0000 0.0000 33.8516 0.0000
# 6 0.0000 0.0000 0.0000 0.0000 0.0000 12.4039
#
#
#
# Elastic Compliance Matrix: (Units=1/GPa)
#
#
# Indices 1 2 3 4 5 6 
#
# 1 0.010092 -0.002446 -0.006510 0.000000 0.000000 0.000000
# 2 -0.002446 0.010088 -0.000880 0.000000 0.000000 0.000000
# 3 -0.006510 -0.000880 0.024048 0.000000 0.000000 0.000000
# 4 0.000000 0.000000 0.000000 0.052583 0.000000 0.000000
# 5 0.000000 0.000000 0.000000 0.000000 0.029541 0.000000
# 6 0.000000 0.000000 0.000000 0.000000 0.000000 0.080620
#
#
# Mechanical properties :
#
#
# Convention : Reuss Voigt Hill
#
# Bulk Modulus (GPa) = 40.72550 51.44249 46.08400
# Shear Modulus (GPa) = 21.29210 26.84319 24.06765
#
# Velocity S-wave (km/s) = 3.08133 3.45976 3.27601
# Velocity P-wave (km/s) = 5.55156 6.23692 5.90419
#
# Compressibility (1/GPa) = 0.02455464
#
# Stress axis : x y z
#
# Youngs Moduli (GPa) = 99.08665 99.12956 41.58416
#
# Poissons Ratio (x) = 0.24249 0.27072
# Poissons Ratio (y) = 0.24238 0.03660
# Poissons Ratio (z) = 0.64508 0.08724
#
# Static dielectric constant tensor:
#      x y z
#    x 1.826430 0.000000 0.000000 
#    y 0.000000 1.909170 0.000000 
#    z 0.000000 0.000000 1.964710 
# 
# From -- ./inp_files/17195.got.cif
#   From: 2010.05.17/outbox.cif.g08.bks.cpg/sg20_9_cif.got.tgz:17195.got - 2010.06.03 22:52:26.
