data_PCOD9316009
_publ_section_title
;
Structure prediction by ZEFSAII (Michael W. Deem and Ramdas Pophale) SiO2 
 PCOD9316009
Probable space group: P 21 21 21
;
_chemical_formula_sum "Si O2"
_cell_formula_units_Z 28
_cell_length_a 8.135133
_cell_length_b 22.957010
_cell_length_c 5.392680
_cell_angle_alpha 90.000000
_cell_angle_beta 90.000000
_cell_angle_gamma 90.000000
_cell_volume 1007.127909
_symmetry_space_group_name_H-M "P 21 21 21"
_symmetry_group_IT_number 19
_symmetry_cell_setting 'orthorhombic'
loop_
_space_group_symop_operation_xyz
x,y,z
1/2-x,-y,1/2+z
1/2+x,1/2-y,-z
-x,1/2+y,1/2-z
loop_
_atom_site_type_symbol
_atom_site_label
_atom_site_fract_x
_atom_site_fract_y
_atom_site_fract_z
Si Si1 0.288122 0.536069 0.538117
Si Si2 0.380318 0.226823 0.688150
Si Si3 0.152244 0.083251 0.914759
Si Si4 0.080318 0.977923 0.171284
Si Si5 0.419512 0.128114 0.304688
Si Si6 0.981169 0.697526 0.772122
Si Si7 0.805005 0.828206 0.479988
O O1 0.264285 0.503113 0.276887
O O2 0.252142 0.604412 0.587086
O O3 0.483627 0.536367 0.581583
O O4 0.343761 0.178422 0.474641
O O5 0.442993 0.282472 0.532454
O O6 0.190433 0.231269 0.789855
O O7 0.541711 0.198925 0.821794
O O8 0.232896 0.033719 0.744242
O O9 0.068765 0.130667 0.746352
O O10 0.041689 0.043325 0.089995
O O11 0.287254 0.115950 0.086360
O O12 0.047550 0.928522 0.969652
O O13 0.595260 0.154346 0.227509
O O14 0.130095 0.704938 0.571231
#
# Coordination Sequence:
#
# PCOD9316009 Si02
#       7
#     4   4   4   4   4   4   4
#     4  12  26  44  72 112 163 207 263 335 410 499
#     4  12  26  50  78 103 155 206 264 345 406 493
#     4  12  25  44  77 113 151 205 267 329 413 507
#     4  12  24  43  76 110 158 208 259 336 420 497
#     4  12  23  47  76 107 159 208 258 341 415 492
#     4  12  26  51  75 114 148 209 274 335 414 503
#     4  12  26  47  76 109 154 203 267 331 410 489
#
# _framework density 27.801829999999999
#
# number of rings (size 3 to 8) (size 9 to 14) (size 15 to 20)
#    0.000    0.000    8.571    1.714    0.000    3.429 
#    2.571    0.000    0.000    0.000    0.000    0.000 
#    0.000    0.000    0.000    0.000    0.000    0.000 
#
# Total GULP energy -156563.187777 kJ/mol
# GULP energy per Si atom -5591.542421 kJ/mol
# Density = 2.773855 g / cm^3
# Si number density = 27.801830 Si / 1000 Ang^3
#
#
#
# Elastic Constant Matrix: (Units=GPa)
#
#
# Indices 1 2 3 4 5 6 
#
# 1 100.4622 27.7038 28.0923 0.0000 0.0000 0.0000
# 2 27.7038 56.3546 -14.7005 0.0000 0.0000 0.0000
# 3 28.0923 -14.7005 76.3574 0.0000 0.0000 0.0000
# 4 0.0000 0.0000 0.0000 25.4878 0.0000 0.0000
# 5 0.0000 0.0000 0.0000 0.0000 52.3678 0.0000
# 6 0.0000 0.0000 0.0000 0.0000 0.0000 64.4786
#
#
#
# Elastic Compliance Matrix: (Units=1/GPa)
#
#
# Indices 1 2 3 4 5 6 
#
# 1 0.014359 -0.008883 -0.006993 0.000000 0.000000 0.000000
# 2 -0.008883 0.024178 0.007923 0.000000 0.000000 0.000000
# 3 -0.006993 0.007923 0.017194 0.000000 0.000000 0.000000
# 4 0.000000 0.000000 0.000000 0.039234 0.000000 0.000000
# 5 0.000000 0.000000 0.000000 0.000000 0.019096 0.000000
# 6 0.000000 0.000000 0.000000 0.000000 0.000000 0.015509
#
#
# Mechanical properties :
#
#
# Convention : Reuss Voigt Hill
#
# Bulk Modulus (GPa) = 25.10927 35.04060 30.07494
# Shear Modulus (GPa) = 31.49557 41.27208 36.38382
#
# Velocity S-wave (km/s) = 3.36945 3.85711 3.62150
# Velocity P-wave (km/s) = 4.91820 5.69803 5.32242
#
# Compressibility (1/GPa) = 0.03982593
#
# Stress axis : x y z
#
# Youngs Moduli (GPa) = 69.64238 41.35913 58.15839
#
# Poissons Ratio (x) = 0.36740 0.40670
# Poissons Ratio (y) = 0.61864 -0.46079
# Poissons Ratio (z) = 0.48701 -0.32769
#
# Static dielectric constant tensor:
#      x y z
#    x 2.319560 0.000000 0.000000 
#    y 0.000000 2.252310 0.000000 
#    z 0.000000 0.000000 2.226550 
# 
# From -- ./inp_files/562.got.cif
#   From: 2010.05.17/outbox.cif.g08.bks.cpg/sg19_1_cif.got.tgz:562.got - 2010.06.03 22:46:19.
