data_PCOD9316862
_publ_section_title
;
Structure prediction by ZEFSAII (Michael W. Deem and Ramdas Pophale) SiO2 
 PCOD9316862
Probable space group: C 2 2 21
;
_chemical_formula_sum "Si O2"
_cell_formula_units_Z 48
_cell_length_a 13.265307
_cell_length_b 8.362800
_cell_length_c 20.180333
_cell_angle_alpha 90.000000
_cell_angle_beta 90.000000
_cell_angle_gamma 90.000000
_cell_volume 2238.707449
_symmetry_space_group_name_H-M "C 2 2 21"
_symmetry_group_IT_number 20
_symmetry_cell_setting 'orthorhombic'
loop_
_space_group_symop_operation_xyz
x,y,z
-x,-y,1/2+z
x,-y,-z
-x,y,1/2-z
1/2+x,1/2+y,z
1/2-x,1/2-y,1/2+z
1/2+x,1/2-y,-z
1/2-x,1/2+y,1/2-z
loop_
_atom_site_type_symbol
_atom_site_label
_atom_site_fract_x
_atom_site_fract_y
_atom_site_fract_z
Si Si1 0.773204 0.947974 0.704015
Si Si2 0.155404 0.000000 0.500000
Si Si3 0.145751 0.742976 0.402722
Si Si4 0.027891 0.235308 0.408390
Si Si5 0.467262 0.568051 0.673219
Si Si6 0.611556 0.175279 0.722732
Si Si7 0.966724 0.500000 0.000000
O O1 0.721098 0.837070 0.649193
O O2 0.840027 0.838753 0.751891
O O3 0.846110 0.088096 0.674959
O O4 0.684063 0.032910 0.743586
O O5 0.201713 0.883372 0.444545
O O6 0.086327 0.877700 0.541017
O O7 0.102762 0.608900 0.452498
O O8 0.046686 0.821151 0.366402
O O9 0.102538 0.320864 0.356642
O O10 0.976053 0.373983 0.452050
O O11 0.971642 0.108110 0.361417
O O12 0.500000 0.573604 0.750000
O O13 0.500000 0.151199 0.750000
#
# Coordination Sequence:
#
# PCOD9316862 Si02
#       7
#     8   4   8   8   8   8   4
#     4  12  24  40  70 100 130 173 215 274 340 389
#     4   8  20  36  70  86 128 186 206 262 334 376
#     4  10  22  40  69  96 131 175 222 266 329 397
#     4  10  18  41  65  91 133 176 212 274 329 382
#     4  11  21  42  66 100 134 167 216 277 341 395
#     4  12  25  43  68  99 137 168 215 281 337 394
#     4  10  20  42  64  92 136 184 220 272 322 388
#
# _framework density 21.440944999999999
#
# number of rings (size 3 to 8) (size 9 to 14) (size 15 to 20)
#    0.000    1.333    5.000    1.000    2.333    2.000 
#    0.000    5.833    0.000    0.000    0.000    0.000 
#    0.000    0.000    0.000    0.000    0.000    0.000 
#
# Total GULP energy -133697.169075 kJ/mol
# GULP energy per Si atom -5570.715378 kJ/mol
# Density = 2.139214 g / cm^3
# Si number density = 21.440945 Si / 1000 Ang^3
#
#
#
# Elastic Constant Matrix: (Units=GPa)
#
#
# Indices 1 2 3 4 5 6 
#
# 1 115.6979 38.3325 28.9606 0.0000 0.0000 0.0000
# 2 38.3325 83.0484 46.8042 0.0000 0.0000 0.0000
# 3 28.9606 46.8042 106.9846 0.0000 0.0000 0.0000
# 4 0.0000 0.0000 0.0000 39.6365 0.0000 0.0000
# 5 0.0000 0.0000 0.0000 0.0000 22.0688 0.0000
# 6 0.0000 0.0000 0.0000 0.0000 0.0000 33.3120
#
#
#
# Elastic Compliance Matrix: (Units=1/GPa)
#
#
# Indices 1 2 3 4 5 6 
#
# 1 0.010274 -0.004214 -0.000938 0.000000 0.000000 0.000000
# 2 -0.004214 0.017710 -0.006607 0.000000 0.000000 0.000000
# 3 -0.000938 -0.006607 0.012491 0.000000 0.000000 0.000000
# 4 0.000000 0.000000 0.000000 0.025229 0.000000 0.000000
# 5 0.000000 0.000000 0.000000 0.000000 0.045313 0.000000
# 6 0.000000 0.000000 0.000000 0.000000 0.000000 0.030019
#
#
# Mechanical properties :
#
#
# Convention : Reuss Voigt Hill
#
# Bulk Modulus (GPa) = 58.96864 59.32506 59.14685
# Shear Modulus (GPa) = 29.37614 31.77903 30.57758
#
# Velocity S-wave (km/s) = 3.70550 3.85407 3.78051
# Velocity P-wave (km/s) = 6.77275 6.89451 6.83390
#
# Compressibility (1/GPa) = 0.01695817
#
# Stress axis : x y z
#
# Youngs Moduli (GPa) = 97.33332 56.46638 80.05450
#
# Poissons Ratio (x) = 0.23793 0.07507
# Poissons Ratio (y) = 0.41013 0.52893
# Poissons Ratio (z) = 0.09127 0.37308
#
# Static dielectric constant tensor:
#      x y z
#    x 1.784660 0.000000 0.000000 
#    y 0.000000 1.779970 0.000000 
#    z 0.000000 0.000000 1.809150 
# 
# From -- ./inp_files/24857.got.cif
#   From: 2010.05.17/outbox.cif.g08.bks.cpg/sg20_13_cif.got.tgz:24857.got - 2010.06.03 22:52:26.
