data_PCOD9316212
_publ_section_title
;
Structure prediction by ZEFSAII (Michael W. Deem and Ramdas Pophale) SiO2 
 PCOD9316212
Probable space group: C 2 2 21
;
_chemical_formula_sum "Si O2"
_cell_formula_units_Z 64
_cell_length_a 31.229465
_cell_length_b 15.013471
_cell_length_c 7.324861
_cell_angle_alpha 90.000000
_cell_angle_beta 90.000000
_cell_angle_gamma 90.000000
_cell_volume 3434.353865
_symmetry_space_group_name_H-M "C 2 2 21"
_symmetry_group_IT_number 20
_symmetry_cell_setting 'orthorhombic'
loop_
_space_group_symop_operation_xyz
x,y,z
-x,-y,1/2+z
x,-y,-z
-x,y,1/2-z
1/2+x,1/2+y,z
1/2-x,1/2-y,1/2+z
1/2+x,1/2-y,-z
1/2-x,1/2+y,1/2-z
loop_
_atom_site_type_symbol
_atom_site_label
_atom_site_fract_x
_atom_site_fract_y
_atom_site_fract_z
Si Si1 0.451245 0.591298 0.276167
Si Si2 0.219920 0.496830 0.795263
Si Si3 0.548262 0.612664 0.789598
Si Si4 0.864829 0.825304 0.749412
Si Si5 0.684340 0.503974 0.780433
Si Si6 0.286200 0.796954 0.660869
Si Si7 0.865107 0.819520 0.306493
Si Si8 0.201292 0.317655 0.274038
O O1 0.500000 0.621349 0.250000
O O2 0.447689 0.488266 0.212192
O O3 0.445858 0.596189 0.494380
O O4 0.413056 0.650074 0.193767
O O5 0.269814 0.523795 0.803136
O O6 0.220400 0.392693 0.743350
O O7 0.199595 0.577374 0.680260
O O8 0.201210 0.500000 0.000000
O O9 0.500000 0.643091 0.750000
O O10 0.586030 0.680872 0.738727
O O11 0.865588 0.816227 0.528169
O O12 0.840528 0.739350 0.825276
O O13 0.835139 0.911259 0.785760
O O14 0.651773 0.583595 0.748105
O O15 0.690401 0.500000 0.000000
O O16 0.327919 0.749327 0.744723
O O17 0.244431 0.733678 0.664665
O O18 0.294867 0.813360 0.446849
#
# Coordination Sequence:
#
# PCOD9316212 Si02
#       8
#     8   8   8   8   8   8   8   8
#     4   9  16  27  42  61  83 106 135 172 211 252
#     4  10  20  30  40  63  94 113 138 188 226 237
#     4   9  16  27  42  61  83 106 135 172 211 252
#     4   9  16  27  44  62  82 114 150 173 199 253
#     4  10  16  26  45  63  81 115 155 176 197 251
#     4  10  19  30  44  63  87 116 147 179 213 251
#     4   9  16  27  44  62  82 114 150 173 199 253
#     4  10  19  30  44  63  87 116 147 179 213 251
#
# _framework density 18.635237
#
# number of rings (size 3 to 8) (size 9 to 14) (size 15 to 20)
#    0.000    2.500    3.750    0.000    0.000    0.000 
#    0.000    2.500    0.000    0.000    0.000    0.875 
#    0.000    0.000    0.000    0.000    0.000    0.000 
#
# Total GULP energy -178400.071837 kJ/mol
# GULP energy per Si atom -5575.002245 kJ/mol
# Density = 1.859282 g / cm^3
# Si number density = 18.635237 Si / 1000 Ang^3
#
#
#
# Elastic Constant Matrix: (Units=GPa)
#
#
# Indices 1 2 3 4 5 6 
#
# 1 121.3561 31.3459 -19.7725 0.0000 0.0000 0.0000
# 2 31.3459 81.4731 -17.0260 0.0000 0.0000 0.0000
# 3 -19.7725 -17.0260 46.1954 0.0000 0.0000 0.0000
# 4 0.0000 0.0000 0.0000 4.4720 0.0000 0.0000
# 5 0.0000 0.0000 0.0000 0.0000 13.3593 0.0000
# 6 0.0000 0.0000 0.0000 0.0000 0.0000 22.0122
#
#
#
# Elastic Compliance Matrix: (Units=1/GPa)
#
#
# Indices 1 2 3 4 5 6 
#
# 1 0.009506 -0.003041 0.002948 0.000000 0.000000 0.000000
# 2 -0.003041 0.014271 0.003958 0.000000 0.000000 0.000000
# 3 0.002948 0.003958 0.024368 0.000000 0.000000 0.000000
# 4 0.000000 0.000000 0.000000 0.223615 0.000000 0.000000
# 5 0.000000 0.000000 0.000000 0.000000 0.074854 0.000000
# 6 0.000000 0.000000 0.000000 0.000000 0.000000 0.045429
#
#
# Mechanical properties :
#
#
# Convention : Reuss Voigt Hill
#
# Bulk Modulus (GPa) = 17.89730 26.45772 22.17751
# Shear Modulus (GPa) = 12.40884 24.93385 18.67135
#
# Velocity S-wave (km/s) = 2.58326 3.66183 3.16877
# Velocity P-wave (km/s) = 4.30378 5.66632 5.03139
#
# Compressibility (1/GPa) = 0.05587435
#
# Stress axis : x y z
#
# Youngs Moduli (GPa) = 105.19592 70.07093 41.03790
#
# Poissons Ratio (x) = 0.21311 -0.12097
# Poissons Ratio (y) = 0.31993 -0.16243
# Poissons Ratio (z) = -0.31010 -0.27735
#
# Static dielectric constant tensor:
#      x y z
#    x 1.653030 0.000000 0.000000 
#    y 0.000000 1.668360 0.000000 
#    z 0.000000 0.000000 1.747910 
# 
# From -- ./inp_files/11203.got.cif
#   From: 2010.05.17/outbox.cif.g08.bks.cpg/sg20_6_cif.got.tgz:11203.got - 2010.06.03 22:52:26.
