data_PCOD9316021
_publ_section_title
;
Structure prediction by ZEFSAII (Michael W. Deem and Ramdas Pophale) SiO2 
 PCOD9316021
Probable space group: P 21 21 21
;
_chemical_formula_sum "Si O2"
_cell_formula_units_Z 20
_cell_length_a 5.175467
_cell_length_b 31.324987
_cell_length_c 4.974084
_cell_angle_alpha 90.000000
_cell_angle_beta 90.000000
_cell_angle_gamma 90.000000
_cell_volume 806.405643
_symmetry_space_group_name_H-M "P 21 21 21"
_symmetry_group_IT_number 19
_symmetry_cell_setting 'orthorhombic'
loop_
_space_group_symop_operation_xyz
x,y,z
1/2-x,-y,1/2+z
1/2+x,1/2-y,-z
-x,1/2+y,1/2-z
loop_
_atom_site_type_symbol
_atom_site_label
_atom_site_fract_x
_atom_site_fract_y
_atom_site_fract_z
Si Si1 0.315003 0.223533 0.058274
Si Si2 0.260724 0.436705 0.047067
Si Si3 0.087368 0.831195 0.057873
Si Si4 0.599903 0.510383 0.840264
Si Si5 0.915190 0.115418 0.466022
O O1 0.389725 0.208697 0.356111
O O2 0.528463 0.257574 0.960807
O O3 0.338788 0.183702 0.855907
O O4 0.418296 0.420731 0.304918
O O5 0.985455 0.447549 0.179542
O O6 0.358527 0.481197 0.924613
O O7 0.303025 0.403144 0.811496
O O8 0.302835 0.864169 0.950465
O O9 0.799859 0.850109 0.056934
O O10 0.760136 0.483216 0.622954
#
# Coordination Sequence:
#
# PCOD9316021 Si02
#       5
#     4   4   4   4   4
#     4  12  24  45  76 104 142 184 234 290 350 420
#     4  12  27  47  66 108 131 200 240 312 365 432
#     4  12  26  47  68 112 140 188 234 290 354 448
#     4  12  26  46  74 100 142 184 264 318 368 438
#     4  12  27  45  74  98 155 186 238 294 375 436
#
# _framework density 24.801414000000001
#
# number of rings (size 3 to 8) (size 9 to 14) (size 15 to 20)
#    0.000    0.000    0.000   10.800    8.400    0.000 
#    0.000    0.000    0.000    0.000    0.000    0.000 
#    0.000    0.000    0.000    0.000    0.000    0.000 
#
# Total GULP energy -112121.756987 kJ/mol
# GULP energy per Si atom -5606.087849 kJ/mol
# Density = 2.474496 g / cm^3
# Si number density = 24.801414 Si / 1000 Ang^3
#
#
#
# Elastic Constant Matrix: (Units=GPa)
#
#
# Indices 1 2 3 4 5 6 
#
# 1 77.3170 0.7872 17.1781 0.0000 0.0000 0.0000
# 2 0.7872 25.6731 2.9863 0.0000 0.0000 0.0000
# 3 17.1781 2.9863 129.4967 0.0000 0.0000 0.0000
# 4 0.0000 0.0000 0.0000 55.3002 0.0000 0.0000
# 5 0.0000 0.0000 0.0000 0.0000 42.1273 0.0000
# 6 0.0000 0.0000 0.0000 0.0000 0.0000 42.9630
#
#
#
# Elastic Compliance Matrix: (Units=1/GPa)
#
#
# Indices 1 2 3 4 5 6 
#
# 1 0.013328 -0.000204 -0.001763 0.000000 0.000000 0.000000
# 2 -0.000204 0.039059 -0.000874 0.000000 0.000000 0.000000
# 3 -0.001763 -0.000874 0.007976 0.000000 0.000000 0.000000
# 4 0.000000 0.000000 0.000000 0.018083 0.000000 0.000000
# 5 0.000000 0.000000 0.000000 0.000000 0.023738 0.000000
# 6 0.000000 0.000000 0.000000 0.000000 0.000000 0.023276
#
#
# Mechanical properties :
#
#
# Convention : Reuss Voigt Hill
#
# Bulk Modulus (GPa) = 18.28758 30.48780 24.38769
# Shear Modulus (GPa) = 33.47437 42.18043 37.82740
#
# Velocity S-wave (km/s) = 3.67781 4.12846 3.90963
# Velocity P-wave (km/s) = 5.04228 5.91989 5.49862
#
# Compressibility (1/GPa) = 0.05468191
#
# Stress axis : x y z
#
# Youngs Moduli (GPa) = 75.03232 25.60217 125.37208
#
# Poissons Ratio (x) = 0.00521 0.22106
# Poissons Ratio (y) = 0.01527 0.10954
# Poissons Ratio (z) = 0.13230 0.02237
#
# Static dielectric constant tensor:
#      x y z
#    x 1.940600 0.000000 0.000000 
#    y 0.000000 2.004610 0.000000 
#    z 0.000000 0.000000 1.883840 
# 
# From -- ./inp_files/201.got.cif
#   From: 2010.05.17/outbox.cif.g08.bks.cpg/sg19_1_cif.got.tgz:201.got - 2010.06.03 22:46:19.
