data_PCOD9316912
_publ_section_title
;
Structure prediction by ZEFSAII (Michael W. Deem and Ramdas Pophale) SiO2 
 PCOD9316912
Probable space group: C 2 2 21
;
_chemical_formula_sum "Si O2"
_cell_formula_units_Z 64
_cell_length_a 12.218310
_cell_length_b 30.724367
_cell_length_c 10.101216
_cell_angle_alpha 90.000000
_cell_angle_beta 90.000000
_cell_angle_gamma 90.000000
_cell_volume 3791.994876
_symmetry_space_group_name_H-M "C 2 2 21"
_symmetry_group_IT_number 20
_symmetry_cell_setting 'orthorhombic'
loop_
_space_group_symop_operation_xyz
x,y,z
-x,-y,1/2+z
x,-y,-z
-x,y,1/2-z
1/2+x,1/2+y,z
1/2-x,1/2-y,1/2+z
1/2+x,1/2-y,-z
1/2-x,1/2+y,1/2-z
loop_
_atom_site_type_symbol
_atom_site_label
_atom_site_fract_x
_atom_site_fract_y
_atom_site_fract_z
Si Si1 0.144626 0.410925 0.519660
Si Si2 0.868162 0.531250 0.263159
Si Si3 0.690352 0.198843 0.190162
Si Si4 0.630930 0.933473 0.224194
Si Si5 0.218636 0.683486 0.494309
Si Si6 0.616683 0.890736 0.954546
Si Si7 0.916882 0.754414 0.874050
Si Si8 0.441382 0.282238 0.382833
O O1 0.168731 0.449943 0.621070
O O2 0.172373 0.423191 0.369917
O O3 0.209791 0.366970 0.540099
O O4 0.016330 0.396580 0.540535
O O5 0.833988 0.483036 0.306432
O O6 0.842023 0.568211 0.369419
O O7 0.000000 0.529018 0.250000
O O8 0.699348 0.202892 0.348790
O O9 0.808586 0.216647 0.146666
O O10 0.600472 0.233557 0.146636
O O11 0.655791 0.152969 0.121253
O O12 0.500000 0.933413 0.250000
O O13 0.654080 0.899544 0.106137
O O14 0.126036 0.705939 0.586761
O O15 0.333651 0.692999 0.565115
O O16 0.000000 0.752950 0.750000
O O17 0.976963 0.776971 0.996114
O O18 0.500000 0.299435 0.250000
#
# Coordination Sequence:
#
# PCOD9316912 Si02
#       8
#     8   8   8   8   8   8   8   8
#     4  10  19  30  49  75 106 141 178 221 260 309
#     4   9  16  28  48  68 102 145 177 205 260 322
#     4  11  22  36  56  79 103 140 186 219 263 320
#     4   9  18  30  42  72 107 141 175 212 259 318
#     4  11  22  36  56  79 104 139 186 219 261 322
#     4  10  19  30  51  74 105 142 179 220 258 311
#     4  11  23  38  55  76 105 139 177 224 273 315
#     4  11  23  38  57  76 106 142 177 224 273 311
#
# _framework density 16.877659999999999
#
# number of rings (size 3 to 8) (size 9 to 14) (size 15 to 20)
#    0.000    1.750    3.750    1.500    0.000    6.500 
#    0.000    0.000    0.000    0.000    0.000    0.000 
#    0.000   15.000    0.000    0.000    0.000    0.000 
#
# Total GULP energy -178165.365505 kJ/mol
# GULP energy per Si atom -5567.667672 kJ/mol
# Density = 1.683925 g / cm^3
# Si number density = 16.877660 Si / 1000 Ang^3
#
#
#
# Elastic Constant Matrix: (Units=GPa)
#
#
# Indices 1 2 3 4 5 6 
#
# 1 46.9952 17.4958 28.3183 0.0000 0.0000 0.0000
# 2 17.4958 18.3476 6.0610 0.0000 0.0000 0.0000
# 3 28.3183 6.0610 112.5917 0.0000 0.0000 0.0000
# 4 0.0000 0.0000 0.0000 26.0599 0.0000 0.0000
# 5 0.0000 0.0000 0.0000 0.0000 27.6424 0.0000
# 6 0.0000 0.0000 0.0000 0.0000 0.0000 7.1912
#
#
#
# Elastic Compliance Matrix: (Units=1/GPa)
#
#
# Indices 1 2 3 4 5 6 
#
# 1 0.038883 -0.034460 -0.007925 0.000000 0.000000 0.000000
# 2 -0.034460 0.086030 0.004036 0.000000 0.000000 0.000000
# 3 -0.007925 0.004036 0.010658 0.000000 0.000000 0.000000
# 4 0.000000 0.000000 0.000000 0.038373 0.000000 0.000000
# 5 0.000000 0.000000 0.000000 0.000000 0.036176 0.000000
# 6 0.000000 0.000000 0.000000 0.000000 0.000000 0.139059
#
#
# Mechanical properties :
#
#
# Convention : Reuss Voigt Hill
#
# Bulk Modulus (GPa) = 16.98561 31.29829 24.14195
# Shear Modulus (GPa) = 11.22335 20.58264 15.90300
#
# Velocity S-wave (km/s) = 2.58152 3.49595 3.07294
# Velocity P-wave (km/s) = 4.35563 5.90593 5.18900
#
# Compressibility (1/GPa) = 0.05887335
#
# Stress axis : x y z
#
# Youngs Moduli (GPa) = 25.71822 11.62387 93.83057
#
# Poissons Ratio (x) = 0.40056 0.74356
# Poissons Ratio (y) = 0.88625 -0.37870
# Poissons Ratio (z) = 0.20380 -0.04691
#
# Static dielectric constant tensor:
#      x y z
#    x 1.527960 0.000000 0.000000 
#    y 0.000000 1.594230 0.000000 
#    z 0.000000 0.000000 1.666930 
# 
# From -- ./inp_files/7657.got.cif
#   From: 2010.05.17/outbox.cif.g08.bks.cpg/sg20_4_cif.got.tgz:7657.got - 2010.06.03 22:52:26.
