data_PCOD9316157
_publ_section_title
;
Structure prediction by ZEFSAII (Michael W. Deem and Ramdas Pophale) SiO2 
 PCOD9316157
Probable space group: P 21 21 21
;
_chemical_formula_sum "Si O2"
_cell_formula_units_Z 32
_cell_length_a 12.000000
_cell_length_b 21.000000
_cell_length_c 6.000000
_cell_angle_alpha 90.000000
_cell_angle_beta 90.000000
_cell_angle_gamma 90.000000
_cell_volume 1512.000000
_symmetry_space_group_name_H-M "P 21 21 21"
_symmetry_group_IT_number 19
_symmetry_cell_setting 'orthorhombic'
loop_
_space_group_symop_operation_xyz
x,y,z
1/2-x,-y,1/2+z
1/2+x,1/2-y,-z
-x,1/2+y,1/2-z
loop_
_atom_site_type_symbol
_atom_site_label
_atom_site_fract_x
_atom_site_fract_y
_atom_site_fract_z
Si Si1 0.365081 0.453843 0.761373
Si Si2 0.807980 0.281113 0.848466
Si Si3 0.540031 0.619175 0.076234
Si Si4 0.350115 0.841423 0.299624
Si Si5 0.896024 0.989488 0.736131
Si Si6 0.551011 0.820947 0.614765
Si Si7 0.263473 0.037104 0.616332
Si Si8 0.596669 0.237631 0.566701
O O1 0.411661 0.477698 0.514054
O O2 0.234340 0.470861 0.762822
O O3 0.381444 0.377992 0.773989
O O4 0.409706 0.478394 0.010162
O O5 0.878712 0.329793 0.697131
O O6 0.708186 0.247912 0.711267
O O7 0.755487 0.322660 0.048853
O O8 0.879943 0.224425 0.951788
O O9 0.477616 0.571401 0.245893
O O10 0.618076 0.574009 0.920325
O O11 0.445675 0.665268 0.966603
O O12 0.450636 0.851708 0.471844
O O13 0.323865 0.904328 0.154082
O O14 0.380330 0.778720 0.155913
O O15 0.499255 0.775290 0.801398
O O16 0.242093 0.001523 0.365049
#
# Coordination Sequence:
#
# PCOD9316157 Si02
#       8
#     4   4   4   4   4   4   4   4
#     4  10  25  49  70 109 145 196 253 312 363 454
#     4  11  25  47  72 115 149 190 251 319 383 464
#     4  12  26  49  78 110 149 204 254 314 396 462
#     4  11  25  49  69 111 150 194 254 310 381 461
#     4  10  26  47  74 102 150 196 255 305 371 450
#     4  11  26  42  79 103 146 195 239 314 388 442
#     4  12  29  50  79 110 156 204 258 323 374 463
#     4  11  26  45  75 110 147 191 252 311 386 462
#
# _framework density 21.164021000000002
#
# number of rings (size 3 to 8) (size 9 to 14) (size 15 to 20)
#    0.000    1.000    2.500    1.500    7.000    6.000 
#    0.000    0.000    0.000    0.000    0.000    0.000 
#    0.000    0.000    0.000    0.000    0.000    0.000 
#
# Total GULP energy -178601.385203 kJ/mol
# GULP energy per Si atom -5581.293288 kJ/mol
# Density = 2.111585 g / cm^3
# Si number density = 21.164021 Si / 1000 Ang^3
#
#
#
# Elastic Constant Matrix: (Units=GPa)
#
#
# Indices 1 2 3 4 5 6 
#
# 1 52.6357 42.8262 24.4826 0.0000 0.0000 0.0000
# 2 42.8262 118.4438 44.4556 0.0000 0.0000 0.0000
# 3 24.4826 44.4556 123.6576 0.0000 0.0000 0.0000
# 4 0.0000 0.0000 0.0000 50.5204 0.0000 0.0000
# 5 0.0000 0.0000 0.0000 0.0000 25.7242 0.0000
# 6 0.0000 0.0000 0.0000 0.0000 0.0000 34.9789
#
#
#
# Elastic Compliance Matrix: (Units=1/GPa)
#
#
# Indices 1 2 3 4 5 6 
#
# 1 0.027405 -0.009100 -0.002154 0.000000 0.000000 0.000000
# 2 -0.009100 0.012782 -0.002793 0.000000 0.000000 0.000000
# 3 -0.002154 -0.002793 0.009518 0.000000 0.000000 0.000000
# 4 0.000000 0.000000 0.000000 0.019794 0.000000 0.000000
# 5 0.000000 0.000000 0.000000 0.000000 0.038874 0.000000
# 6 0.000000 0.000000 0.000000 0.000000 0.000000 0.028589
#
#
# Mechanical properties :
#
#
# Convention : Reuss Voigt Hill
#
# Bulk Modulus (GPa) = 46.27834 57.58510 51.93172
# Shear Modulus (GPa) = 29.02601 34.44287 31.73444
#
# Velocity S-wave (km/s) = 3.70737 4.03851 3.87648
# Velocity P-wave (km/s) = 6.34351 7.00101 6.68035
#
# Compressibility (1/GPa) = 0.02160838
#
# Stress axis : x y z
#
# Youngs Moduli (GPa) = 36.48988 78.23679 105.06884
#
# Poissons Ratio (x) = 0.71198 0.22634
# Poissons Ratio (y) = 0.33207 0.29349
# Poissons Ratio (z) = 0.07861 0.21854
#
# Static dielectric constant tensor:
#      x y z
#    x 1.791830 0.000000 0.000000 
#    y 0.000000 1.760450 0.000000 
#    z 0.000000 0.000000 1.819720 
# 
# From -- ./inp_files/1199.got.cif
#   From: 2010.05.17/outbox.ucp.g08.bks.cvg/sg19_1_cif.got.tgz:1199.got - 2010.06.11 13:13:52.
