data_PCOD9316729
_publ_section_title
;
Structure prediction by ZEFSAII (Michael W. Deem and Ramdas Pophale) SiO2 
 PCOD9316729
Probable space group: C 2 2 21
;
_chemical_formula_sum "Si O2"
_cell_formula_units_Z 44
_cell_length_a 30.586515
_cell_length_b 8.263118
_cell_length_c 8.113937
_cell_angle_alpha 90.000000
_cell_angle_beta 90.000000
_cell_angle_gamma 90.000000
_cell_volume 2050.716297
_symmetry_space_group_name_H-M "C 2 2 21"
_symmetry_group_IT_number 20
_symmetry_cell_setting 'orthorhombic'
loop_
_space_group_symop_operation_xyz
x,y,z
-x,-y,1/2+z
x,-y,-z
-x,y,1/2-z
1/2+x,1/2+y,z
1/2-x,1/2-y,1/2+z
1/2+x,1/2-y,-z
1/2-x,1/2+y,1/2-z
loop_
_atom_site_type_symbol
_atom_site_label
_atom_site_fract_x
_atom_site_fract_y
_atom_site_fract_z
Si Si1 0.146473 0.305077 0.998405
Si Si2 0.500000 0.098684 0.250000
Si Si3 0.200235 0.699324 0.314226
Si Si4 0.535964 0.681383 0.477104
Si Si5 0.945752 0.701307 0.642999
Si Si6 0.295675 0.192648 0.807777
O O1 0.164738 0.246840 0.822597
O O2 0.151528 0.500000 0.000000
O O3 0.095686 0.274699 0.030148
O O4 0.173525 0.245930 0.158586
O O5 0.530794 0.208859 0.362643
O O6 0.532431 0.975796 0.157880
O O7 0.246694 0.759684 0.244748
O O8 0.200835 0.503003 0.313464
O O9 0.194371 0.751242 0.505270
O O10 0.550437 0.500000 0.500000
O O11 0.564583 0.760383 0.333577
O O12 0.485435 0.684645 0.414151
#
# Coordination Sequence:
#
# PCOD9316729 Si02
#       6
#     8   4   8   8   8   8
#     4  10  20  37  58  87 123 148 197 258 293 345
#     4  10  18  36  60  90 110 160 206 242 300 364
#     4  10  20  36  60  85 115 158 197 242 297 357
#     4  10  20  37  61  84 120 159 194 245 311 371
#     4  10  20  37  59  84 119 154 203 253 296 366
#     4  10  20  36  60  85 116 157 199 239 300 358
#
# _framework density 21.455916999999999
#
# number of rings (size 3 to 8) (size 9 to 14) (size 15 to 20)
#    0.000    2.182    1.818    4.364    0.000    0.000 
#   16.364    1.818    4.000    2.182    0.000    0.000 
#    0.000    0.000    0.000    0.000    0.000    0.000 
#
# Total GULP energy -122712.231797 kJ/mol
# GULP energy per Si atom -5577.828718 kJ/mol
# Density = 2.140708 g / cm^3
# Si number density = 21.455917 Si / 1000 Ang^3
#
#
#
# Elastic Constant Matrix: (Units=GPa)
#
#
# Indices 1 2 3 4 5 6 
#
# 1 98.4485 -10.8141 51.2984 0.0000 0.0000 0.0000
# 2 -10.8141 51.1816 27.8366 0.0000 0.0000 0.0000
# 3 51.2984 27.8366 177.3805 0.0000 0.0000 0.0000
# 4 0.0000 0.0000 0.0000 22.5723 0.0000 0.0000
# 5 0.0000 0.0000 0.0000 0.0000 22.8368 0.0000
# 6 0.0000 0.0000 0.0000 0.0000 0.0000 5.8429
#
#
#
# Elastic Compliance Matrix: (Units=1/GPa)
#
#
# Indices 1 2 3 4 5 6 
#
# 1 0.013156 0.005302 -0.004637 0.000000 0.000000 0.000000
# 2 0.005302 0.023498 -0.005221 0.000000 0.000000 0.000000
# 3 -0.004637 -0.005221 0.007798 0.000000 0.000000 0.000000
# 4 0.000000 0.000000 0.000000 0.044302 0.000000 0.000000
# 5 0.000000 0.000000 0.000000 0.000000 0.043789 0.000000
# 6 0.000000 0.000000 0.000000 0.000000 0.000000 0.171148
#
#
# Mechanical properties :
#
#
# Convention : Reuss Voigt Hill
#
# Bulk Modulus (GPa) = 28.29668 51.51691 39.90679
# Shear Modulus (GPa) = 15.40441 27.49638 21.45040
#
# Velocity S-wave (km/s) = 2.68238 3.58373 3.16530
# Velocity P-wave (km/s) = 4.77603 6.41770 5.65674
#
# Compressibility (1/GPa) = 0.03533984
#
# Stress axis : x y z
#
# Youngs Moduli (GPa) = 76.01111 42.55704 128.24090
#
# Poissons Ratio (x) = -0.22562 0.59461
# Poissons Ratio (y) = -0.40297 0.66951
# Poissons Ratio (z) = 0.35244 0.22218
#
# Static dielectric constant tensor:
#      x y z
#    x 1.739310 0.000000 0.000000 
#    y 0.000000 1.779080 0.000000 
#    z 0.000000 0.000000 1.943990 
# 
# From -- ./inp_files/11367.got.cif
#   From: 2010.05.17/outbox.cif.g08.bks.cpg/sg20_6_cif.got.tgz:11367.got - 2010.06.03 22:52:26.
