data_PCOD9316684
_publ_section_title
;
Structure prediction by ZEFSAII (Michael W. Deem and Ramdas Pophale) SiO2 
 PCOD9316684
Probable space group: C 2 2 21
;
_chemical_formula_sum "Si O2"
_cell_formula_units_Z 64
_cell_length_a 9.681401
_cell_length_b 16.619555
_cell_length_c 17.208872
_cell_angle_alpha 90.000000
_cell_angle_beta 90.000000
_cell_angle_gamma 90.000000
_cell_volume 2768.917424
_symmetry_space_group_name_H-M "C 2 2 21"
_symmetry_group_IT_number 20
_symmetry_cell_setting 'orthorhombic'
loop_
_space_group_symop_operation_xyz
x,y,z
-x,-y,1/2+z
x,-y,-z
-x,y,1/2-z
1/2+x,1/2+y,z
1/2-x,1/2-y,1/2+z
1/2+x,1/2-y,-z
1/2-x,1/2+y,1/2-z
loop_
_atom_site_type_symbol
_atom_site_label
_atom_site_fract_x
_atom_site_fract_y
_atom_site_fract_z
Si Si1 0.723995 0.973720 0.696674
Si Si2 0.786848 0.882836 0.406971
Si Si3 0.689160 0.702368 0.187748
Si Si4 0.009866 0.657726 0.839404
Si Si5 0.363713 0.855495 0.494386
Si Si6 0.831427 0.290611 0.970324
Si Si7 0.588274 0.061699 0.146371
Si Si8 0.611662 0.750424 0.810565
O O1 0.812258 0.892072 0.698599
O O2 0.572399 0.964466 0.654804
O O3 0.679504 0.983855 0.787844
O O4 0.807045 0.036890 0.643069
O O5 0.637006 0.856959 0.375912
O O6 0.759770 0.867710 0.498282
O O7 0.888105 0.813047 0.379203
O O8 0.553384 0.748629 0.161853
O O9 0.744164 0.747497 0.263759
O O10 0.802927 0.715418 0.120754
O O11 0.000000 0.629649 0.750000
O O12 0.117036 0.620312 0.903251
O O13 0.237637 0.791797 0.503438
O O14 0.509320 0.808849 0.511713
O O15 0.360631 0.927107 0.557675
O O16 0.589158 0.155877 0.172252
O O17 0.500000 0.721562 0.750000
#
# Coordination Sequence:
#
# PCOD9316684 Si02
#       8
#     8   8   8   8   8   8   8   8
#     4  10  21  34  58  87 118 151 188 250 306 361
#     4  11  23  35  57  88 120 147 192 260 308 350
#     4  10  19  35  56  81 112 155 196 238 294 368
#     4  10  21  35  54  84 117 154 192 247 301 349
#     4  10  19  34  57  87 121 154 208 258 298 365
#     4  10  20  34  56  89 119 152 207 255 309 360
#     4  10  18  35  58  82 113 156 202 235 293 366
#     4  11  18  34  61  81 109 157 204 238 285 364
#
# _framework density 23.113727999999998
#
# number of rings (size 3 to 8) (size 9 to 14) (size 15 to 20)
#    0.000    1.750    6.250    0.000    1.750    0.500 
#    0.000    0.625    0.000    0.000    0.000    0.000 
#    7.500    0.000    0.000    0.000    0.000    0.000 
#
# Total GULP energy -178297.606307 kJ/mol
# GULP energy per Si atom -5571.800197 kJ/mol
# Density = 2.306112 g / cm^3
# Si number density = 23.113728 Si / 1000 Ang^3
#
#
#
# Elastic Constant Matrix: (Units=GPa)
#
#
# Indices 1 2 3 4 5 6 
#
# 1 30.6784 8.8689 -9.0844 0.0000 0.0000 0.0000
# 2 8.8689 89.0131 27.0201 0.0000 0.0000 0.0000
# 3 -9.0844 27.0201 120.3101 0.0000 0.0000 0.0000
# 4 0.0000 0.0000 0.0000 26.9685 0.0000 0.0000
# 5 0.0000 0.0000 0.0000 0.0000 28.1953 0.0000
# 6 0.0000 0.0000 0.0000 0.0000 0.0000 32.0247
#
#
#
# Elastic Compliance Matrix: (Units=1/GPa)
#
#
# Indices 1 2 3 4 5 6 
#
# 1 0.035017 -0.004606 0.003678 0.000000 0.000000 0.000000
# 2 -0.004606 0.012662 -0.003191 0.000000 0.000000 0.000000
# 3 0.003678 -0.003191 0.009306 0.000000 0.000000 0.000000
# 4 0.000000 0.000000 0.000000 0.037080 0.000000 0.000000
# 5 0.000000 0.000000 0.000000 0.000000 0.035467 0.000000
# 6 0.000000 0.000000 0.000000 0.000000 0.000000 0.031226
#
#
# Mechanical properties :
#
#
# Convention : Reuss Voigt Hill
#
# Bulk Modulus (GPa) = 20.51368 32.62343 26.56855
# Shear Modulus (GPa) = 26.99132 31.65084 29.32108
#
# Velocity S-wave (km/s) = 3.42096 3.70449 3.56554
# Velocity P-wave (km/s) = 4.94958 5.69584 5.33577
#
# Compressibility (1/GPa) = 0.04874796
#
# Stress axis : x y z
#
# Youngs Moduli (GPa) = 28.55770 78.97682 107.45336
#
# Poissons Ratio (x) = 0.36373 -0.39526
# Poissons Ratio (y) = 0.13152 0.34293
# Poissons Ratio (z) = -0.10505 0.25205
#
# Static dielectric constant tensor:
#      x y z
#    x 1.859140 0.000000 0.000000 
#    y 0.000000 1.932000 0.000000 
#    z 0.000000 0.000000 2.095070 
# 
# From -- ./inp_files/24538.got.cif
#   From: 2010.05.17/outbox.cif.g08.bks.cpg/sg20_13_cif.got.tgz:24538.got - 2010.06.03 22:52:26.
