data_PCOD9316878
_publ_section_title
;
Structure prediction by ZEFSAII (Michael W. Deem and Ramdas Pophale) SiO2 
 PCOD9316878
Probable space group: C 2 2 21
;
_chemical_formula_sum "Si O2"
_cell_formula_units_Z 40
_cell_length_a 15.201476
_cell_length_b 13.713219
_cell_length_c 9.492804
_cell_angle_alpha 90.000000
_cell_angle_beta 90.000000
_cell_angle_gamma 90.000000
_cell_volume 1978.881024
_symmetry_space_group_name_H-M "C 2 2 21"
_symmetry_group_IT_number 20
_symmetry_cell_setting 'orthorhombic'
loop_
_space_group_symop_operation_xyz
x,y,z
-x,-y,1/2+z
x,-y,-z
-x,y,1/2-z
1/2+x,1/2+y,z
1/2-x,1/2-y,1/2+z
1/2+x,1/2-y,-z
1/2-x,1/2+y,1/2-z
loop_
_atom_site_type_symbol
_atom_site_label
_atom_site_fract_x
_atom_site_fract_y
_atom_site_fract_z
Si Si1 0.393646 0.500000 0.500000
Si Si2 0.500000 0.196804 0.250000
Si Si3 0.000000 0.807800 0.750000
Si Si4 0.322850 0.300021 0.611667
Si Si5 0.295978 0.500000 0.000000
Si Si6 0.546069 0.374061 0.442017
Si Si7 0.686101 0.839645 0.844628
O O1 0.340385 0.414599 0.576591
O O2 0.460913 0.438555 0.401344
O O3 0.535137 0.270005 0.371123
O O4 0.415013 0.140402 0.304880
O O5 0.088655 0.759700 0.811662
O O6 0.036566 0.863489 0.611992
O O7 0.311491 0.239734 0.469504
O O8 0.239995 0.296228 0.713635
O O9 0.362478 0.572074 0.917136
O O10 0.236386 0.434919 0.899152
#
# Coordination Sequence:
#
# PCOD9316878 Si02
#       7
#     4   4   4   8   4   8   8
#     4   9  20  38  65 104 136 162 221 284 349 394
#     4  12  24  43  67 100 136 182 228 285 335 408
#     4  10  18  43  63 104 136 170 206 291 351 398
#     4  11  24  42  68 106 141 177 227 291 352 407
#     4  11  24  40  67  98 132 178 229 278 335 400
#     4  10  21  38  73  99 135 168 221 287 347 391
#     4  12  26  43  66 100 143 185 230 278 347 414
#
# _framework density 20.213442000000001
#
# number of rings (size 3 to 8) (size 9 to 14) (size 15 to 20)
#    0.000    1.200    6.000    1.200    2.800    3.200 
#    0.000    2.000    0.000    0.000    0.000    0.000 
#    0.000    0.000    0.000    0.000    0.000    0.000 
#
# Total GULP energy -111614.502686 kJ/mol
# GULP energy per Si atom -5580.725134 kJ/mol
# Density = 2.016744 g / cm^3
# Si number density = 20.213442 Si / 1000 Ang^3
#
#
#
# Elastic Constant Matrix: (Units=GPa)
#
#
# Indices 1 2 3 4 5 6 
#
# 1 173.5448 41.1138 56.4679 0.0000 0.0000 0.0000
# 2 41.1138 38.9225 28.9591 0.0000 0.0000 0.0000
# 3 56.4679 28.9591 104.9634 0.0000 0.0000 0.0000
# 4 0.0000 0.0000 0.0000 25.5153 0.0000 0.0000
# 5 0.0000 0.0000 0.0000 0.0000 42.3232 0.0000
# 6 0.0000 0.0000 0.0000 0.0000 0.0000 36.6091
#
#
#
# Elastic Compliance Matrix: (Units=1/GPa)
#
#
# Indices 1 2 3 4 5 6 
#
# 1 0.008191 -0.006761 -0.002541 0.000000 0.000000 0.000000
# 2 -0.006761 0.037910 -0.006822 0.000000 0.000000 0.000000
# 3 -0.002541 -0.006822 0.012776 0.000000 0.000000 0.000000
# 4 0.000000 0.000000 0.000000 0.039192 0.000000 0.000000
# 5 0.000000 0.000000 0.000000 0.000000 0.023628 0.000000
# 6 0.000000 0.000000 0.000000 0.000000 0.000000 0.027316
#
#
# Mechanical properties :
#
#
# Convention : Reuss Voigt Hill
#
# Bulk Modulus (GPa) = 37.55383 63.39027 50.47205
# Shear Modulus (GPa) = 26.29692 33.61551 29.95621
#
# Velocity S-wave (km/s) = 3.61080 4.08245 3.85384
# Velocity P-wave (km/s) = 6.00023 7.32464 6.69527
#
# Compressibility (1/GPa) = 0.02662844
#
# Stress axis : x y z
#
# Youngs Moduli (GPa) = 122.08812 26.37860 78.27039
#
# Poissons Ratio (x) = 0.17836 0.19889
# Poissons Ratio (y) = 0.82548 0.53393
# Poissons Ratio (z) = 0.31023 0.17995
#
# Static dielectric constant tensor:
#      x y z
#    x 1.744520 0.000000 0.000000 
#    y 0.000000 1.721010 0.000000 
#    z 0.000000 0.000000 1.761520 
# 
# From -- ./inp_files/8186.got.cif
#   From: 2010.05.17/outbox.cif.g08.bks.cpg/sg20_5_cif.got.tgz:8186.got - 2010.06.03 22:52:26.
