data_PCOD9316368
_publ_section_title
;
Structure prediction by ZEFSAII (Michael W. Deem and Ramdas Pophale) SiO2 
 PCOD9316368
Probable space group: C 2 2 21
;
_chemical_formula_sum "Si O2"
_cell_formula_units_Z 40
_cell_length_a 18.110544
_cell_length_b 8.238755
_cell_length_c 11.859205
_cell_angle_alpha 90.000000
_cell_angle_beta 90.000000
_cell_angle_gamma 90.000000
_cell_volume 1769.492232
_symmetry_space_group_name_H-M "C 2 2 21"
_symmetry_group_IT_number 20
_symmetry_cell_setting 'orthorhombic'
loop_
_space_group_symop_operation_xyz
x,y,z
-x,-y,1/2+z
x,-y,-z
-x,y,1/2-z
1/2+x,1/2+y,z
1/2-x,1/2-y,1/2+z
1/2+x,1/2-y,-z
1/2-x,1/2+y,1/2-z
loop_
_atom_site_type_symbol
_atom_site_label
_atom_site_fract_x
_atom_site_fract_y
_atom_site_fract_z
Si Si1 0.808138 0.263040 0.530476
Si Si2 0.354913 0.190193 0.032338
Si Si3 0.661558 0.936360 0.762317
Si Si4 0.924498 0.246328 0.185620
Si Si5 0.672980 0.445892 0.818820
O O1 0.720957 0.283675 0.500095
O O2 0.845896 0.403188 0.604748
O O3 0.840506 0.189461 0.415801
O O4 0.817613 0.114908 0.618620
O O5 0.420210 0.245591 0.949712
O O6 0.370934 0.184099 0.165610
O O7 0.338467 0.000000 0.000000
O O8 0.748874 0.918920 0.741023
O O9 0.631044 0.110880 0.726026
O O10 0.890923 0.077789 0.228902
O O11 0.000000 0.276748 0.250000
#
# Coordination Sequence:
#
# PCOD9316368 Si02
#       5
#     8   8   8   8   8
#     4  10  17  33  60  84 102 145 199 233 268 324
#     4   9  16  34  56  78 114 151 176 230 293 326
#     4  10  18  35  58  82 112 148 190 230 276 336
#     4  11  22  37  57  84 116 148 185 233 294 340
#     4  10  18  35  59  81 110 149 190 232 275 338
#
# _framework density 22.605353999999998
#
# number of rings (size 3 to 8) (size 9 to 14) (size 15 to 20)
#    0.000    2.000    8.000    0.000    0.000    0.800 
#   10.800    2.000    4.400    0.000    0.000    0.000 
#    0.000    0.000    0.000    0.000    0.000    0.000 
#
# Total GULP energy -111517.627468 kJ/mol
# GULP energy per Si atom -5575.881373 kJ/mol
# Density = 2.255390 g / cm^3
# Si number density = 22.605354 Si / 1000 Ang^3
#
#
#
# Elastic Constant Matrix: (Units=GPa)
#
#
# Indices 1 2 3 4 5 6 
#
# 1 27.8216 -1.5136 22.4298 0.0000 0.0000 0.0000
# 2 -1.5136 37.9618 18.7508 0.0000 0.0000 0.0000
# 3 22.4298 18.7508 134.2918 0.0000 0.0000 0.0000
# 4 0.0000 0.0000 0.0000 25.8091 0.0000 0.0000
# 5 0.0000 0.0000 0.0000 0.0000 9.3941 0.0000
# 6 0.0000 0.0000 0.0000 0.0000 0.0000 64.6825
#
#
#
# Elastic Compliance Matrix: (Units=1/GPa)
#
#
# Indices 1 2 3 4 5 6 
#
# 1 0.042617 0.005601 -0.007900 0.000000 0.000000 0.000000
# 2 0.005601 0.029030 -0.004989 0.000000 0.000000 0.000000
# 3 -0.007900 -0.004989 0.009463 0.000000 0.000000 0.000000
# 4 0.000000 0.000000 0.000000 0.038746 0.000000 0.000000
# 5 0.000000 0.000000 0.000000 0.000000 0.106449 0.000000
# 6 0.000000 0.000000 0.000000 0.000000 0.000000 0.015460
#
#
# Mechanical properties :
#
#
# Convention : Reuss Voigt Hill
#
# Bulk Modulus (GPa) = 15.02985 31.04545 23.03765
# Shear Modulus (GPa) = 17.95213 30.67104 24.31158
#
# Velocity S-wave (km/s) = 2.82113 3.68748 3.28301
# Velocity P-wave (km/s) = 4.15631 5.64743 4.95825
#
# Compressibility (1/GPa) = 0.06653425
#
# Stress axis : x y z
#
# Youngs Moduli (GPa) = 23.46475 34.44733 105.67966
#
# Poissons Ratio (x) = -0.19295 0.83488
# Poissons Ratio (y) = -0.13144 0.52723
# Poissons Ratio (z) = 0.18537 0.17185
#
# Static dielectric constant tensor:
#      x y z
#    x 1.781230 0.000000 0.000000 
#    y 0.000000 1.965020 0.000000 
#    z 0.000000 0.000000 1.764350 
# 
# From -- ./inp_files/16161.got.cif
#   From: 2010.05.17/outbox.cif.g08.bks.cpg/sg20_9_cif.got.tgz:16161.got - 2010.06.03 22:52:26.
