data_PCOD9316482
_publ_section_title
;
Structure prediction by ZEFSAII (Michael W. Deem and Ramdas Pophale) SiO2 
 PCOD9316482
Probable space group: C 2 2 21
;
_chemical_formula_sum "Si O2"
_cell_formula_units_Z 56
_cell_length_a 8.743442
_cell_length_b 12.817512
_cell_length_c 23.057915
_cell_angle_alpha 90.000000
_cell_angle_beta 90.000000
_cell_angle_gamma 90.000000
_cell_volume 2584.081460
_symmetry_space_group_name_H-M "C 2 2 21"
_symmetry_group_IT_number 20
_symmetry_cell_setting 'orthorhombic'
loop_
_space_group_symop_operation_xyz
x,y,z
-x,-y,1/2+z
x,-y,-z
-x,y,1/2-z
1/2+x,1/2+y,z
1/2-x,1/2-y,1/2+z
1/2+x,1/2-y,-z
1/2-x,1/2+y,1/2-z
loop_
_atom_site_type_symbol
_atom_site_label
_atom_site_fract_x
_atom_site_fract_y
_atom_site_fract_z
Si Si1 0.040513 0.717729 0.503462
Si Si2 0.910522 0.779869 0.690242
Si Si3 0.102652 0.628953 0.110232
Si Si4 0.845017 0.893288 0.075796
Si Si5 0.003871 0.590933 0.896335
Si Si6 0.569922 0.710632 0.690039
Si Si7 0.464613 0.398233 0.909094
O O1 0.935644 0.662015 0.455834
O O2 0.102380 0.635390 0.551667
O O3 0.142231 0.787552 0.460378
O O4 0.981063 0.809986 0.545702
O O5 0.974964 0.678102 0.653830
O O6 0.731018 0.767218 0.701624
O O7 0.000000 0.788550 0.750000
O O8 0.937389 0.878104 0.648077
O O9 0.996171 0.527672 0.124876
O O10 0.286600 0.618460 0.110619
O O11 0.049335 0.716160 0.155808
O O12 0.667932 0.919698 0.071506
O O13 0.883473 0.875252 0.143134
O O14 0.956437 0.988613 0.061915
O O15 0.500000 0.672694 0.750000
#
# Coordination Sequence:
#
# PCOD9316482 Si02
#       7
#     8   8   8   8   8   8   8
#     4  10  18  30  54  84 112 140 178 222 268 320
#     4  10  21  38  58  81 110 142 182 229 277 328
#     4  10  20  36  58  82 111 148 186 225 273 326
#     4   9  19  35  55  80 110 146 184 224 272 326
#     4   9  19  35  55  80 110 146 184 224 272 326
#     4  10  21  38  58  81 110 142 182 229 277 328
#     4  10  20  36  58  82 111 148 186 225 273 326
#
# _framework density 21.671143000000001
#
# number of rings (size 3 to 8) (size 9 to 14) (size 15 to 20)
#    0.000    2.286    0.000    2.571    0.000    4.571 
#    0.000   11.429    0.000   20.571    0.000    0.000 
#    0.000    0.000    0.000    0.000    0.000    0.000 
#
# Total GULP energy -155893.288902 kJ/mol
# GULP energy per Si atom -5567.617461 kJ/mol
# Density = 2.162182 g / cm^3
# Si number density = 21.671143 Si / 1000 Ang^3
#
#
#
# Elastic Constant Matrix: (Units=GPa)
#
#
# Indices 1 2 3 4 5 6 
#
# 1 50.4095 -0.9626 17.2201 0.0000 0.0000 0.0000
# 2 -0.9626 48.3164 -7.2542 0.0000 0.0000 0.0000
# 3 17.2201 -7.2542 107.0226 0.0000 0.0000 0.0000
# 4 0.0000 0.0000 0.0000 6.7927 0.0000 0.0000
# 5 0.0000 0.0000 0.0000 0.0000 13.3583 0.0000
# 6 0.0000 0.0000 0.0000 0.0000 0.0000 15.5163
#
#
#
# Elastic Compliance Matrix: (Units=1/GPa)
#
#
# Indices 1 2 3 4 5 6 
#
# 1 0.020992 -0.000090 -0.003384 0.000000 0.000000 0.000000
# 2 -0.000090 0.020910 0.001432 0.000000 0.000000 0.000000
# 3 -0.003384 0.001432 0.009985 0.000000 0.000000 0.000000
# 4 0.000000 0.000000 0.000000 0.147217 0.000000 0.000000
# 5 0.000000 0.000000 0.000000 0.000000 0.074860 0.000000
# 6 0.000000 0.000000 0.000000 0.000000 0.000000 0.064448
#
#
# Mechanical properties :
#
#
# Convention : Reuss Voigt Hill
#
# Bulk Modulus (GPa) = 20.91891 24.86168 22.89030
# Shear Modulus (GPa) = 13.94972 20.24981 17.09976
#
# Velocity S-wave (km/s) = 2.53988 3.06013 2.81206
# Velocity P-wave (km/s) = 4.27494 4.89725 4.59664
#
# Compressibility (1/GPa) = 0.04780363
#
# Stress axis : x y z
#
# Youngs Moduli (GPa) = 47.63791 47.82385 100.14712
#
# Poissons Ratio (x) = 0.00430 0.33887
# Poissons Ratio (y) = 0.00428 -0.14339
# Poissons Ratio (z) = 0.16119 -0.06847
#
# Static dielectric constant tensor:
#      x y z
#    x 1.842210 0.000000 0.000000 
#    y 0.000000 1.935640 0.000000 
#    z 0.000000 0.000000 1.800750 
# 
# From -- ./inp_files/27185.got.cif
#   From: 2010.05.17/outbox.cif.g08.bks.cpg/sg20_14_cif.got.tgz:27185.got - 2010.06.03 22:52:26.
