data_PCOD9316730
_publ_section_title
;
Structure prediction by ZEFSAII (Michael W. Deem and Ramdas Pophale) SiO2 
 PCOD9316730
Probable space group: C 2 2 21
;
_chemical_formula_sum "Si O2"
_cell_formula_units_Z 24
_cell_length_a 14.678358
_cell_length_b 7.452317
_cell_length_c 7.855404
_cell_angle_alpha 90.000000
_cell_angle_beta 90.000000
_cell_angle_gamma 90.000000
_cell_volume 859.285180
_symmetry_space_group_name_H-M "C 2 2 21"
_symmetry_group_IT_number 20
_symmetry_cell_setting 'orthorhombic'
loop_
_space_group_symop_operation_xyz
x,y,z
-x,-y,1/2+z
x,-y,-z
-x,y,1/2-z
1/2+x,1/2+y,z
1/2-x,1/2-y,1/2+z
1/2+x,1/2-y,-z
1/2-x,1/2+y,1/2-z
loop_
_atom_site_type_symbol
_atom_site_label
_atom_site_fract_x
_atom_site_fract_y
_atom_site_fract_z
Si Si1 0.305462 0.606354 0.251680
Si Si2 0.964193 0.796283 0.558784
Si Si3 0.865647 0.264344 0.891026
O O1 0.356789 0.710981 0.405247
O O2 0.200086 0.593001 0.302519
O O3 0.352113 0.412342 0.226176
O O4 0.324393 0.704517 0.073444
O O5 0.000000 0.768264 0.750000
O O6 0.029419 0.688838 0.430605
O O7 0.984507 0.000000 0.500000
#
# Coordination Sequence:
#
# PCOD9316730 Si02
#       3
#     8   8   8
#     4  10  22  37  62  94 125 158 208 252 303 364
#     4  10  18  36  60  90 117 160 206 243 291 371
#     4  10  21  39  61  96 122 161 207 252 304 361
#
# _framework density 27.930192999999999
#
# number of rings (size 3 to 8) (size 9 to 14) (size 15 to 20)
#    0.000    2.000    6.667    0.000    4.667    0.000 
#    0.000    0.000    0.000   28.000    0.000    0.000 
#    0.000    0.000    0.000    0.000    0.000    0.000 
#
# Total GULP energy -67095.312104 kJ/mol
# GULP energy per Si atom -5591.276009 kJ/mol
# Density = 2.786662 g / cm^3
# Si number density = 27.930193 Si / 1000 Ang^3
#
#
#
# Elastic Constant Matrix: (Units=GPa)
#
#
# Indices 1 2 3 4 5 6 
#
# 1 151.6349 18.1916 64.1220 0.0000 0.0000 0.0000
# 2 18.1916 82.2713 17.2878 0.0000 0.0000 0.0000
# 3 64.1220 17.2878 181.3755 0.0000 0.0000 0.0000
# 4 0.0000 0.0000 0.0000 29.4333 0.0000 0.0000
# 5 0.0000 0.0000 0.0000 0.0000 71.9336 0.0000
# 6 0.0000 0.0000 0.0000 0.0000 0.0000 16.6171
#
#
#
# Elastic Compliance Matrix: (Units=1/GPa)
#
#
# Indices 1 2 3 4 5 6 
#
# 1 0.007864 -0.001178 -0.002668 0.000000 0.000000 0.000000
# 2 -0.001178 0.012580 -0.000782 0.000000 0.000000 0.000000
# 3 -0.002668 -0.000782 0.006531 0.000000 0.000000 0.000000
# 4 0.000000 0.000000 0.000000 0.033975 0.000000 0.000000
# 5 0.000000 0.000000 0.000000 0.000000 0.013902 0.000000
# 6 0.000000 0.000000 0.000000 0.000000 0.000000 0.060179
#
#
# Mechanical properties :
#
#
# Convention : Reuss Voigt Hill
#
# Bulk Modulus (GPa) = 56.44009 68.27603 62.35806
# Shear Modulus (GPa) = 33.29010 44.64215 38.96613
#
# Velocity S-wave (km/s) = 3.45614 4.00227 3.73919
# Velocity P-wave (km/s) = 6.01481 6.77170 6.40445
#
# Compressibility (1/GPa) = 0.01771790
#
# Stress axis : x y z
#
# Youngs Moduli (GPa) = 127.15578 79.49201 153.11056
#
# Poissons Ratio (x) = 0.09367 0.40850
# Poissons Ratio (y) = 0.14983 0.11981
# Poissons Ratio (z) = 0.33925 0.06220
#
# Static dielectric constant tensor:
#      x y z
#    x 2.240890 0.000000 0.000000 
#    y 0.000000 2.173710 0.000000 
#    z 0.000000 0.000000 2.130190 
# 
# From -- ./inp_files/7748.got.cif
#   From: 2010.05.17/outbox.cif.g08.bks.cpg/sg20_4_cif.got.tgz:7748.got - 2010.06.03 22:52:26.
