data_PCOD9316136
_publ_section_title
;
Structure prediction by ZEFSAII (Michael W. Deem and Ramdas Pophale) SiO2 
 PCOD9316136
Probable space group: P 21 21 21
;
_chemical_formula_sum "Si O2"
_cell_formula_units_Z 24
_cell_length_a 9.000000
_cell_length_b 15.000000
_cell_length_c 9.000000
_cell_angle_alpha 90.000000
_cell_angle_beta 90.000000
_cell_angle_gamma 90.000000
_cell_volume 1215.000000
_symmetry_space_group_name_H-M "P 21 21 21"
_symmetry_group_IT_number 19
_symmetry_cell_setting 'orthorhombic'
loop_
_space_group_symop_operation_xyz
x,y,z
1/2-x,-y,1/2+z
1/2+x,1/2-y,-z
-x,1/2+y,1/2-z
loop_
_atom_site_type_symbol
_atom_site_label
_atom_site_fract_x
_atom_site_fract_y
_atom_site_fract_z
Si Si1 0.159827 0.906347 0.750093
Si Si2 0.603935 0.471127 0.972462
Si Si3 0.814387 0.936603 0.091884
Si Si4 0.299298 0.733154 0.708922
Si Si5 0.914552 0.206498 0.064356
Si Si6 0.821209 0.894975 0.745010
O O1 0.245103 0.949790 0.612492
O O2 0.267444 0.824800 0.796826
O O3 0.993196 0.871086 0.723092
O O4 0.140219 0.980949 0.874755
O O5 0.486983 0.534769 0.886289
O O6 0.510267 0.379854 0.987073
O O7 0.776217 0.850878 0.187678
O O8 0.714418 0.018196 0.146498
O O9 0.796247 0.918452 0.917243
O O10 0.462615 0.730300 0.636877
O O11 0.182792 0.737098 0.573907
O O12 0.795371 0.177719 0.188776
#
# Coordination Sequence:
#
# PCOD9316136 Si02
#       6
#     4   4   4   4   4   4
#     4  10  21  37  58  83 110 144 187 232 279 334
#     4   9  21  39  57  81 111 149 190 224 277 344
#     4  10  21  38  59  83 114 150 190 233 280 336
#     4  11  22  37  58  85 115 147 189 240 285 328
#     4  10  22  39  57  82 115 152 189 231 285 336
#     4  10  21  38  59  82 113 152 187 226 282 344
#
# _framework density 19.753086
#
# number of rings (size 3 to 8) (size 9 to 14) (size 15 to 20)
#    0.000    2.000    0.000    4.000    0.000   10.667 
#    0.000    5.000    0.000    0.000    0.000    0.000 
#    0.000    0.000    0.000    0.000    0.000    0.000 
#
# Total GULP energy -133915.963704 kJ/mol
# GULP energy per Si atom -5579.831821 kJ/mol
# Density = 1.970813 g / cm^3
# Si number density = 19.753086 Si / 1000 Ang^3
#
#
#
# Elastic Constant Matrix: (Units=GPa)
#
#
# Indices 1 2 3 4 5 6 
#
# 1 67.4990 -6.7014 14.8857 0.0000 0.0000 0.0000
# 2 -6.7014 9.3126 5.6914 0.0000 0.0000 0.0000
# 3 14.8857 5.6914 28.7416 0.0000 0.0000 0.0000
# 4 0.0000 0.0000 0.0000 25.1641 0.0000 0.0000
# 5 0.0000 0.0000 0.0000 0.0000 23.5635 0.0000
# 6 0.0000 0.0000 0.0000 0.0000 0.0000 16.9372
#
#
#
# Elastic Compliance Matrix: (Units=1/GPa)
#
#
# Indices 1 2 3 4 5 6 
#
# 1 0.020655 0.024347 -0.015519 0.000000 0.000000 0.000000
# 2 0.024347 0.150866 -0.042484 0.000000 0.000000 0.000000
# 3 -0.015519 -0.042484 0.051243 0.000000 0.000000 0.000000
# 4 0.000000 0.000000 0.000000 0.039739 0.000000 0.000000
# 5 0.000000 0.000000 0.000000 0.000000 0.042439 0.000000
# 6 0.000000 0.000000 0.000000 0.000000 0.000000 0.059042
#
#
# Mechanical properties :
#
#
# Convention : Reuss Voigt Hill
#
# Bulk Modulus (GPa) = 6.43283 14.81162 10.62223
# Shear Modulus (GPa) = 10.34958 19.24479 14.79718
#
# Velocity S-wave (km/s) = 2.29147 3.12471 2.73995
# Velocity P-wave (km/s) = 3.20388 4.53135 3.92415
#
# Compressibility (1/GPa) = 0.15545252
#
# Stress axis : x y z
#
# Youngs Moduli (GPa) = 48.41534 6.62839 19.51492
#
# Poissons Ratio (x) = -0.16138 0.30284
# Poissons Ratio (y) = -1.17878 0.82908
# Poissons Ratio (z) = 0.75134 0.28160
#
# Static dielectric constant tensor:
#      x y z
#    x 1.691210 0.000000 0.000000 
#    y 0.000000 1.723180 0.000000 
#    z 0.000000 0.000000 1.666080 
# 
# From -- ./inp_files/2739.got.cif
#   From: 2010.05.17/outbox.ucp.g08.bks.cvg/sg19_2_cif.got.tgz:2739.got - 2010.06.11 13:13:52.
