data_PCOD9316870
_publ_section_title
;
Structure prediction by ZEFSAII (Michael W. Deem and Ramdas Pophale) SiO2 
 PCOD9316870
Probable space group: C 2 2 21
;
_chemical_formula_sum "Si O2"
_cell_formula_units_Z 52
_cell_length_a 28.014801
_cell_length_b 8.239239
_cell_length_c 11.440523
_cell_angle_alpha 90.000000
_cell_angle_beta 90.000000
_cell_angle_gamma 90.000000
_cell_volume 2640.708852
_symmetry_space_group_name_H-M "C 2 2 21"
_symmetry_group_IT_number 20
_symmetry_cell_setting 'orthorhombic'
loop_
_space_group_symop_operation_xyz
x,y,z
-x,-y,1/2+z
x,-y,-z
-x,y,1/2-z
1/2+x,1/2+y,z
1/2-x,1/2-y,1/2+z
1/2+x,1/2-y,-z
1/2-x,1/2+y,1/2-z
loop_
_atom_site_type_symbol
_atom_site_label
_atom_site_fract_x
_atom_site_fract_y
_atom_site_fract_z
Si Si1 0.180250 0.281857 0.030757
Si Si2 0.677865 0.401733 0.749869
Si Si3 0.786672 0.408754 0.685916
Si Si4 0.869367 0.229979 0.826589
Si Si5 0.403826 0.000000 0.500000
Si Si6 0.871351 0.657730 0.923839
Si Si7 0.443270 0.016773 0.249035
O O1 0.171969 0.132995 0.113574
O O2 0.198098 0.425492 0.119135
O O3 0.214644 0.276630 0.919941
O O4 0.130783 0.347010 0.978633
O O5 0.733870 0.432122 0.732059
O O6 0.645856 0.553472 0.714797
O O7 0.662113 0.248043 0.669648
O O8 0.825559 0.346719 0.779720
O O9 0.916988 0.311697 0.774882
O O10 0.877219 0.223174 0.966145
O O11 0.430261 0.035986 0.619608
O O12 0.917693 0.597975 0.849175
O O13 0.854702 0.500000 0.000000
O O14 0.500000 0.024727 0.250000
#
# Coordination Sequence:
#
# PCOD9316870 Si02
#       7
#     8   8   8   8   4   8   8
#     4  10  20  40  59  84 127 172 221 248 311 377
#     4  12  23  37  63  92 133 176 208 266 325 365
#     4  10  22  38  60  89 129 177 219 255 302 386
#     4  11  23  39  60  95 135 158 216 272 326 379
#     4  10  18  42  68  82 118 160 210 270 294 380
#     4  10  23  41  61  91 123 168 217 256 313 393
#     4  11  23  43  70  94 118 164 218 269 324 397
#
# _framework density 19.691683000000001
#
# number of rings (size 3 to 8) (size 9 to 14) (size 15 to 20)
#    0.000    1.538    4.615    2.308    9.692    0.615 
#    0.000    0.769    0.000    1.846    0.000    0.000 
#    0.000    0.000    0.000    0.000    0.000    0.000 
#
# Total GULP energy -144890.928851 kJ/mol
# GULP energy per Si atom -5572.728033 kJ/mol
# Density = 1.964686 g / cm^3
# Si number density = 19.691683 Si / 1000 Ang^3
#
#
#
# Elastic Constant Matrix: (Units=GPa)
#
#
# Indices 1 2 3 4 5 6 
#
# 1 118.4096 28.1309 39.9525 0.0000 0.0000 0.0000
# 2 28.1309 58.6413 26.8575 0.0000 0.0000 0.0000
# 3 39.9525 26.8575 139.9523 0.0000 0.0000 0.0000
# 4 0.0000 0.0000 0.0000 33.8859 0.0000 0.0000
# 5 0.0000 0.0000 0.0000 0.0000 16.5153 0.0000
# 6 0.0000 0.0000 0.0000 0.0000 0.0000 -24.1867
#
#
#
# Elastic Compliance Matrix: (Units=1/GPa)
#
#
# Indices 1 2 3 4 5 6 
#
# 1 0.010083 -0.003858 -0.002138 0.000000 0.000000 0.000000
# 2 -0.003858 0.020172 -0.002770 0.000000 0.000000 0.000000
# 3 -0.002138 -0.002770 0.008287 0.000000 0.000000 0.000000
# 4 0.000000 0.000000 0.000000 0.029511 0.000000 0.000000
# 5 0.000000 0.000000 0.000000 0.000000 0.060550 0.000000
# 6 0.000000 0.000000 0.000000 0.000000 0.000000 -0.041345
#
#
# Mechanical properties :
#
#
# Convention : Reuss Voigt Hill
#
# Bulk Modulus (GPa) = 47.59420 56.32055 51.95737
# Shear Modulus (GPa) = 44.72547 20.04706 32.38626
#
# Velocity S-wave (km/s) = 4.77097 3.19415 4.05985
# Velocity P-wave (km/s) = 7.38727 6.50128 6.95839
#
# Compressibility (1/GPa) = 0.02101097
#
# Stress axis : x y z
#
# Youngs Moduli (GPa) = 99.17497 49.57360 120.66786
#
# Poissons Ratio (x) = 0.19124 0.25801
# Poissons Ratio (y) = 0.38259 0.33423
# Poissons Ratio (z) = 0.21205 0.13731
#
# Static dielectric constant tensor:
#      x y z
#    x 1.690260 0.000000 0.000000 
#    y 0.000000 1.803740 0.000000 
#    z 0.000000 0.000000 1.803420 
# 
# From -- ./inp_files/17002.got.cif
#   From: 2010.05.17/outbox.cif.g08.bks.cpg/sg20_9_cif.got.tgz:17002.got - 2010.06.03 22:52:26.
