data_PCOD9316169
_publ_section_title
;
Structure prediction by ZEFSAII (Michael W. Deem and Ramdas Pophale) SiO2 
 PCOD9316169
Probable space group: P 21 21 21
;
_chemical_formula_sum "Si O2"
_cell_formula_units_Z 32
_cell_length_a 12.000000
_cell_length_b 21.000000
_cell_length_c 6.000000
_cell_angle_alpha 90.000000
_cell_angle_beta 90.000000
_cell_angle_gamma 90.000000
_cell_volume 1512.000000
_symmetry_space_group_name_H-M "P 21 21 21"
_symmetry_group_IT_number 19
_symmetry_cell_setting 'orthorhombic'
loop_
_space_group_symop_operation_xyz
x,y,z
1/2-x,-y,1/2+z
1/2+x,1/2-y,-z
-x,1/2+y,1/2-z
loop_
_atom_site_type_symbol
_atom_site_label
_atom_site_fract_x
_atom_site_fract_y
_atom_site_fract_z
Si Si1 0.784818 0.602047 0.016895
Si Si2 0.102651 0.444667 0.394302
Si Si3 0.126832 0.012897 0.107301
Si Si4 0.484138 0.245443 0.056662
Si Si5 0.021114 0.117150 0.800669
Si Si6 0.792026 0.076208 0.937327
Si Si7 0.143875 0.769818 0.054343
Si Si8 0.180344 0.334523 0.721003
O O1 0.723073 0.539780 0.914483
O O2 0.900672 0.626727 0.910999
O O3 0.699058 0.660545 0.987327
O O4 0.822743 0.570946 0.249428
O O5 0.174101 0.426141 0.181242
O O6 0.167814 0.505757 0.496184
O O7 0.111935 0.384341 0.562695
O O8 0.981394 0.470837 0.322847
O O9 0.075176 0.052751 0.902046
O O10 0.524850 0.319042 0.049797
O O11 0.417005 0.242932 0.306160
O O12 0.590845 0.200185 0.113579
O O13 0.424032 0.231208 0.806125
O O14 0.889812 0.102852 0.777554
O O15 0.771081 0.122805 0.145234
O O16 0.244799 0.718677 0.092347
#
# Coordination Sequence:
#
# PCOD9316169 Si02
#       8
#     4   4   4   4   4   4   4   4
#     4  12  26  49  75 112 151 208 257 328 390 472
#     4  11  25  45  72 111 145 202 249 327 382 470
#     4  11  27  46  76 109 153 197 263 319 394 460
#     4  12  29  49  77 113 153 208 258 325 390 461
#     4  11  25  47  74 108 151 200 257 318 390 467
#     4  11  24  44  73 105 150 194 260 311 398 449
#     4  12  30  51  80 112 160 205 264 319 392 472
#     4  12  26  47  75 110 155 200 260 323 388 465
#
# _framework density 21.164021000000002
#
# number of rings (size 3 to 8) (size 9 to 14) (size 15 to 20)
#    0.000    0.500    5.000    1.500    8.750    0.000 
#    0.000    0.000    0.000    0.000    0.000    0.000 
#    0.000    0.000    0.000    0.000    0.000    0.000 
#
# Total GULP energy -178254.079328 kJ/mol
# GULP energy per Si atom -5570.439979 kJ/mol
# Density = 2.111585 g / cm^3
# Si number density = 21.164021 Si / 1000 Ang^3
#
#
#
# Elastic Constant Matrix: (Units=GPa)
#
#
# Indices 1 2 3 4 5 6 
#
# 1 57.6292 15.2747 24.6861 0.0000 0.0000 0.0000
# 2 15.2747 122.4026 7.8649 0.0000 0.0000 0.0000
# 3 24.6861 7.8649 59.7626 0.0000 0.0000 0.0000
# 4 0.0000 0.0000 0.0000 41.5638 0.0000 0.0000
# 5 0.0000 0.0000 0.0000 0.0000 39.9517 0.0000
# 6 0.0000 0.0000 0.0000 0.0000 0.0000 47.3554
#
#
#
# Elastic Compliance Matrix: (Units=1/GPa)
#
#
# Indices 1 2 3 4 5 6 
#
# 1 0.021626 -0.002143 -0.008651 0.000000 0.000000 0.000000
# 2 -0.002143 0.008452 -0.000227 0.000000 0.000000 0.000000
# 3 -0.008651 -0.000227 0.020336 0.000000 0.000000 0.000000
# 4 0.000000 0.000000 0.000000 0.024059 0.000000 0.000000
# 5 0.000000 0.000000 0.000000 0.000000 0.025030 0.000000
# 6 0.000000 0.000000 0.000000 0.000000 0.000000 0.021117
#
#
# Mechanical properties :
#
#
# Convention : Reuss Voigt Hill
#
# Bulk Modulus (GPa) = 35.24603 37.27175 36.25889
# Shear Modulus (GPa) = 32.86879 38.57210 35.72045
#
# Velocity S-wave (km/s) = 3.94515 4.27374 4.11273
# Velocity P-wave (km/s) = 6.11900 6.48092 6.30256
#
# Compressibility (1/GPa) = 0.02837199
#
# Stress axis : x y z
#
# Youngs Moduli (GPa) = 46.24054 118.31854 49.17328
#
# Poissons Ratio (x) = 0.25354 0.42540
# Poissons Ratio (y) = 0.09909 0.01117
# Poissons Ratio (z) = 0.40003 0.02687
#
# Static dielectric constant tensor:
#      x y z
#    x 1.793740 0.000000 0.000000 
#    y 0.000000 1.770240 0.000000 
#    z 0.000000 0.000000 1.847510 
# 
# From -- ./inp_files/1226.got.cif
#   From: 2010.05.17/outbox.ucp.g08.bks.cvg/sg19_1_cif.got.tgz:1226.got - 2010.06.11 13:13:52.
