data_PCOD9316640
_publ_section_title
;
Structure prediction by ZEFSAII (Michael W. Deem and Ramdas Pophale) SiO2 
 PCOD9316640
Probable space group: C 2 2 21
;
_chemical_formula_sum "Si O2"
_cell_formula_units_Z 36
_cell_length_a 16.277567
_cell_length_b 6.667753
_cell_length_c 13.631524
_cell_angle_alpha 90.000000
_cell_angle_beta 90.000000
_cell_angle_gamma 90.000000
_cell_volume 1479.494679
_symmetry_space_group_name_H-M "C 2 2 21"
_symmetry_group_IT_number 20
_symmetry_cell_setting 'orthorhombic'
loop_
_space_group_symop_operation_xyz
x,y,z
-x,-y,1/2+z
x,-y,-z
-x,y,1/2-z
1/2+x,1/2+y,z
1/2-x,1/2-y,1/2+z
1/2+x,1/2-y,-z
1/2-x,1/2+y,1/2-z
loop_
_atom_site_type_symbol
_atom_site_label
_atom_site_fract_x
_atom_site_fract_y
_atom_site_fract_z
Si Si1 0.661607 0.134876 0.831781
Si Si2 0.330673 0.408568 0.275507
Si Si3 0.262901 0.268296 0.467037
Si Si4 0.590805 0.431059 0.601302
Si Si5 0.000000 0.356608 0.250000
O O1 0.643552 0.370473 0.809716
O O2 0.736537 0.076166 0.761212
O O3 0.577631 0.030952 0.797142
O O4 0.697379 0.154463 0.940670
O O5 0.323221 0.273807 0.372566
O O6 0.384246 0.387519 0.176001
O O7 0.250068 0.500000 0.500000
O O8 0.175904 0.177146 0.432261
O O9 0.550394 0.500000 0.500000
O O10 0.535527 0.276085 0.660487
#
# Coordination Sequence:
#
# PCOD9316640 Si02
#       5
#     8   8   8   8   4
#     4  10  20  35  61  84 117 155 198 239 298 345
#     4  10  18  34  58  88 110 156 201 237 278 362
#     4  10  20  35  61  87 115 157 203 236 288 363
#     4  11  21  36  62  85 119 155 205 243 294 349
#     4  10  22  36  56  90 124 148 180 268 302 326
#
# _framework density 24.332633999999999
#
# number of rings (size 3 to 8) (size 9 to 14) (size 15 to 20)
#    0.000    1.778    6.667    0.000    0.000    4.444 
#    0.000    0.000    4.889    6.667    0.000    0.000 
#    0.000    0.000    0.000    0.000    0.000    0.000 
#
# Total GULP energy -100501.070291 kJ/mol
# GULP energy per Si atom -5583.392794 kJ/mol
# Density = 2.427725 g / cm^3
# Si number density = 24.332634 Si / 1000 Ang^3
#
#
#
# Elastic Constant Matrix: (Units=GPa)
#
#
# Indices 1 2 3 4 5 6 
#
# 1 100.1351 21.6289 53.3223 0.0000 0.0000 0.0000
# 2 21.6289 43.6477 36.8738 0.0000 0.0000 0.0000
# 3 53.3223 36.8738 189.8477 0.0000 0.0000 0.0000
# 4 0.0000 0.0000 0.0000 51.6154 0.0000 0.0000
# 5 0.0000 0.0000 0.0000 0.0000 44.5265 0.0000
# 6 0.0000 0.0000 0.0000 0.0000 0.0000 25.7979
#
#
#
# Elastic Compliance Matrix: (Units=1/GPa)
#
#
# Indices 1 2 3 4 5 6 
#
# 1 0.012244 -0.003783 -0.002704 0.000000 0.000000 0.000000
# 2 -0.003783 0.028577 -0.004488 0.000000 0.000000 0.000000
# 3 -0.002704 -0.004488 0.006899 0.000000 0.000000 0.000000
# 4 0.000000 0.000000 0.000000 0.019374 0.000000 0.000000
# 5 0.000000 0.000000 0.000000 0.000000 0.022459 0.000000
# 6 0.000000 0.000000 0.000000 0.000000 0.000000 0.038763
#
#
# Mechanical properties :
#
#
# Convention : Reuss Voigt Hill
#
# Bulk Modulus (GPa) = 38.80590 61.92006 50.36298
# Shear Modulus (GPa) = 31.47559 39.17499 35.32529
#
# Velocity S-wave (km/s) = 3.60050 4.01681 3.81434
# Velocity P-wave (km/s) = 5.76780 6.85679 6.33574
#
# Compressibility (1/GPa) = 0.02576928
#
# Stress axis : x y z
#
# Youngs Moduli (GPa) = 81.67596 34.99365 144.95749
#
# Poissons Ratio (x) = 0.13237 0.39198
# Poissons Ratio (y) = 0.30895 0.65056
# Poissons Ratio (z) = 0.22086 0.15705
#
# Static dielectric constant tensor:
#      x y z
#    x 1.919840 0.000000 0.000000 
#    y 0.000000 2.070250 0.000000 
#    z 0.000000 0.000000 1.991910 
# 
# From -- ./inp_files/18442.got.cif
#   From: 2010.05.17/outbox.cif.g08.bks.cpg/sg20_10_cif.got.tgz:18442.got - 2010.06.03 22:52:26.
