data_PCOD9316927
_publ_section_title
;
Structure prediction by ZEFSAII (Michael W. Deem and Ramdas Pophale) SiO2 
 PCOD9316927
Probable space group: C 2 2 21
;
_chemical_formula_sum "Si O2"
_cell_formula_units_Z 48
_cell_length_a 20.878082
_cell_length_b 4.928206
_cell_length_c 23.156908
_cell_angle_alpha 90.000000
_cell_angle_beta 90.000000
_cell_angle_gamma 90.000000
_cell_volume 2382.648744
_symmetry_space_group_name_H-M "C 2 2 21"
_symmetry_group_IT_number 20
_symmetry_cell_setting 'orthorhombic'
loop_
_space_group_symop_operation_xyz
x,y,z
-x,-y,1/2+z
x,-y,-z
-x,y,1/2-z
1/2+x,1/2+y,z
1/2-x,1/2-y,1/2+z
1/2+x,1/2-y,-z
1/2-x,1/2+y,1/2-z
loop_
_atom_site_type_symbol
_atom_site_label
_atom_site_fract_x
_atom_site_fract_y
_atom_site_fract_z
Si Si1 0.333536 0.084099 0.859224
Si Si2 0.792239 0.461102 0.740337
Si Si3 0.538782 0.011101 0.430159
Si Si4 0.041839 0.008700 0.070082
Si Si5 0.839463 0.259620 0.538046
Si Si6 0.252467 0.917503 0.377996
O O1 0.342309 0.003953 0.791777
O O2 0.277418 0.880843 0.882430
O O3 0.395875 0.056484 0.897959
O O4 0.306767 0.387896 0.861581
O O5 0.732230 0.652590 0.759895
O O6 0.802580 0.560370 0.675213
O O7 0.481803 0.804077 0.413306
O O8 0.547635 0.000000 0.500000
O O9 0.514363 0.306093 0.412770
O O10 0.111228 0.881146 0.083177
O O11 0.044015 0.000000 0.000000
O O12 0.873259 0.500000 0.500000
O O13 0.784872 0.438353 0.567839
O O14 0.817263 0.000000 0.500000
#
# Coordination Sequence:
#
# PCOD9316927 Si02
#       6
#     8   8   8   8   8   8
#     4  10  19  32  51  76 103 132 167 208 258 311
#     4   8  16  31  49  69  96 132 170 199 239 309
#     4  10  19  31  49  72  98 129 163 205 249 293
#     4   9  18  33  49  67  93 131 174 201 234 295
#     4  11  21  34  52  75 104 138 175 215 258 309
#     4  10  20  33  50  75 104 134 165 206 260 311
#
# _framework density 20.145648000000001
#
# number of rings (size 3 to 8) (size 9 to 14) (size 15 to 20)
#    0.000    2.333    0.000    4.500    0.000    2.000 
#    0.000    0.000    0.000    1.000    0.000    7.000 
#    0.000    0.000    0.000    0.000    0.000    0.000 
#
# Total GULP energy -133675.627033 kJ/mol
# GULP energy per Si atom -5569.817793 kJ/mol
# Density = 2.009980 g / cm^3
# Si number density = 20.145648 Si / 1000 Ang^3
#
#
#
# Elastic Constant Matrix: (Units=GPa)
#
#
# Indices 1 2 3 4 5 6 
#
# 1 24.3740 -2.3036 2.4596 0.0000 0.0000 0.0000
# 2 -2.3036 92.3438 7.5495 0.0000 0.0000 0.0000
# 3 2.4596 7.5495 32.4571 0.0000 0.0000 0.0000
# 4 0.0000 0.0000 0.0000 22.0672 0.0000 0.0000
# 5 0.0000 0.0000 0.0000 0.0000 -12.2583 0.0000
# 6 0.0000 0.0000 0.0000 0.0000 0.0000 27.5981
#
#
#
# Elastic Compliance Matrix: (Units=1/GPa)
#
#
# Indices 1 2 3 4 5 6 
#
# 1 0.041500 0.001317 -0.003451 0.000000 0.000000 0.000000
# 2 0.001317 0.011081 -0.002677 0.000000 0.000000 0.000000
# 3 -0.003451 -0.002677 0.031694 0.000000 0.000000 0.000000
# 4 0.000000 0.000000 0.000000 0.045316 0.000000 0.000000
# 5 0.000000 0.000000 0.000000 0.000000 -0.081578 0.000000
# 6 0.000000 0.000000 0.000000 0.000000 0.000000 0.036234
#
#
# Mechanical properties :
#
#
# Convention : Reuss Voigt Hill
#
# Bulk Modulus (GPa) = 13.39533 18.28731 15.84132
# Shear Modulus (GPa) = 42.10357 16.91270 29.50813
#
# Velocity S-wave (km/s) = 4.57657 2.90059 3.83134
# Velocity P-wave (km/s) = 5.88135 4.50724 5.23954
#
# Compressibility (1/GPa) = 0.07465286
#
# Stress axis : x y z
#
# Youngs Moduli (GPa) = 24.09629 90.24586 31.55153
#
# Poissons Ratio (x) = -0.11889 0.10890
# Poissons Ratio (y) = -0.03175 0.08447
# Poissons Ratio (z) = 0.08317 0.24161
#
# Static dielectric constant tensor:
#      x y z
#    x 1.733820 0.000000 0.000000 
#    y 0.000000 1.725080 0.000000 
#    z 0.000000 0.000000 1.801790 
# 
# From -- ./inp_files/27859.got.cif
#   From: 2010.05.17/outbox.cif.g08.bks.cpg/sg20_14_cif.got.tgz:27859.got - 2010.06.03 22:52:26.
