data_PCOD9316441
_publ_section_title
;
Structure prediction by ZEFSAII (Michael W. Deem and Ramdas Pophale) SiO2 
 PCOD9316441
Probable space group: C 2 2 21
;
_chemical_formula_sum "Si O2"
_cell_formula_units_Z 64
_cell_length_a 19.058860
_cell_length_b 8.516106
_cell_length_c 21.646841
_cell_angle_alpha 90.000000
_cell_angle_beta 90.000000
_cell_angle_gamma 90.000000
_cell_volume 3513.439710
_symmetry_space_group_name_H-M "C 2 2 21"
_symmetry_group_IT_number 20
_symmetry_cell_setting 'orthorhombic'
loop_
_space_group_symop_operation_xyz
x,y,z
-x,-y,1/2+z
x,-y,-z
-x,y,1/2-z
1/2+x,1/2+y,z
1/2-x,1/2-y,1/2+z
1/2+x,1/2-y,-z
1/2-x,1/2+y,1/2-z
loop_
_atom_site_type_symbol
_atom_site_label
_atom_site_fract_x
_atom_site_fract_y
_atom_site_fract_z
Si Si1 0.582013 0.809974 0.618475
Si Si2 0.582013 0.190026 0.618475
Si Si3 0.923986 0.813261 0.383898
Si Si4 0.914765 0.318228 0.746493
Si Si5 0.170712 0.307979 0.500000
Si Si6 0.668266 0.691874 1.000000
Si Si7 0.076014 0.813261 0.883898
Si Si8 0.414765 0.181772 0.746493
O O1 0.501602 0.758777 0.609247
O O2 0.607740 0.755350 0.686357
O O3 0.629538 0.757343 0.561499
O O4 0.582745 1.000000 0.620782
O O5 0.629538 0.242657 0.561499
O O6 0.501602 0.241222 0.609247
O O7 0.607740 0.244650 0.686357
O O8 0.895404 0.770572 0.315913
O O9 0.873555 0.757820 0.438837
O O10 0.930900 0.000000 0.388307
O O11 0.893496 0.500000 0.740368
O O12 0.000000 0.315016 0.750000
O O13 0.170068 0.500000 0.500000
O O14 0.251225 0.256370 0.500000
O O15 0.626445 0.742180 0.061163
O O16 0.668908 0.500000 0.000000
O O17 0.104596 0.770572 0.815913
O O18 0.500000 0.184985 0.750000
#
# Coordination Sequence:
#
# PCOD9316441 Si02
#       8
#     8   8   8   8   8   8   8   8
#     4   9  17  30  51  73  90 116 155 195 227 261
#     4   9  17  30  51  73  90 116 155 195 227 261
#     4  10  18  29  48  71  95 122 149 184 231 277
#     4   8  15  28  45  69  96 117 147 190 228 265
#     4   9  17  32  51  67  88 123 162 190 220 269
#     4   9  19  32  45  67  96 123 154 190 226 269
#     4  10  18  29  48  71  95 122 149 184 231 277
#     4   8  15  28  45  69  96 117 147 190 228 265
#
# _framework density 18.215765999999999
#
# number of rings (size 3 to 8) (size 9 to 14) (size 15 to 20)
#    0.000    3.000    0.000    3.000    0.000    4.500 
#    0.000    3.125    0.000    6.000    0.000    0.000 
#    0.000    0.000    0.000    0.000    0.000    0.000 
#
# Total GULP energy -178284.733215 kJ/mol
# GULP energy per Si atom -5571.397913 kJ/mol
# Density = 1.817431 g / cm^3
# Si number density = 18.215766 Si / 1000 Ang^3
#
#
#
# Elastic Constant Matrix: (Units=GPa)
#
#
# Indices 1 2 3 4 5 6 
#
# 1 86.0058 8.7796 91.6127 0.0000 0.0000 0.0000
# 2 8.7796 6.6738 20.6299 0.0000 0.0000 0.0000
# 3 91.6127 20.6299 211.9878 0.0000 0.0000 0.0000
# 4 0.0000 0.0000 0.0000 -10.8643 0.0000 0.0000
# 5 0.0000 0.0000 0.0000 0.0000 -2.7935 0.0000
# 6 0.0000 0.0000 0.0000 0.0000 0.0000 11.5751
#
#
#
# Elastic Compliance Matrix: (Units=1/GPa)
#
#
# Indices 1 2 3 4 5 6 
#
# 1 0.021547 0.000627 -0.009373 0.000000 0.000000 0.000000
# 2 0.000627 0.214325 -0.021128 0.000000 0.000000 0.000000
# 3 -0.009373 -0.021128 0.010824 0.000000 0.000000 0.000000
# 4 0.000000 0.000000 0.000000 -0.092044 0.000000 0.000000
# 5 0.000000 0.000000 0.000000 0.000000 -0.357968 0.000000
# 6 0.000000 0.000000 0.000000 0.000000 0.000000 0.086393
#
#
# Mechanical properties :
#
#
# Convention : Reuss Voigt Hill
#
# Bulk Modulus (GPa) = 5.34908 60.74576 33.04742
# Shear Modulus (GPa) = 972.75466 11.82646 492.29056
#
# Velocity S-wave (km/s) = 23.13390 2.55079 16.45728
# Velocity P-wave (km/s) = 26.76775 6.48812 19.47573
#
# Compressibility (1/GPa) = 0.18694818
#
# Stress axis : x y z
#
# Youngs Moduli (GPa) = 46.41048 4.66581 92.38798
#
# Poissons Ratio (x) = -0.00293 0.86593
# Poissons Ratio (y) = -0.02911 1.95201
# Poissons Ratio (z) = 0.43499 0.09858
#
# Static dielectric constant tensor:
#      x y z
#    x 1.588630 0.000000 0.000000 
#    y 0.000000 1.625210 0.000000 
#    z 0.000000 0.000000 1.666400 
# 
# From -- ./inp_files/27956.got.cif
#   From: 2010.05.17/outbox.cif.g08.bks.cpg/sg20_14_cif.got.tgz:27956.got - 2010.06.03 22:52:26.
