data_PCOD9316511
_publ_section_title
;
Structure prediction by ZEFSAII (Michael W. Deem and Ramdas Pophale) SiO2 
 PCOD9316511
Probable space group: C 2 2 21
;
_chemical_formula_sum "Si O2"
_cell_formula_units_Z 56
_cell_length_a 7.754338
_cell_length_b 15.425352
_cell_length_c 18.938395
_cell_angle_alpha 90.000000
_cell_angle_beta 90.000000
_cell_angle_gamma 90.000000
_cell_volume 2265.285687
_symmetry_space_group_name_H-M "C 2 2 21"
_symmetry_group_IT_number 20
_symmetry_cell_setting 'orthorhombic'
loop_
_space_group_symop_operation_xyz
x,y,z
-x,-y,1/2+z
x,-y,-z
-x,y,1/2-z
1/2+x,1/2+y,z
1/2-x,1/2-y,1/2+z
1/2+x,1/2-y,-z
1/2-x,1/2+y,1/2-z
loop_
_atom_site_type_symbol
_atom_site_label
_atom_site_fract_x
_atom_site_fract_y
_atom_site_fract_z
Si Si1 0.446787 0.785191 0.498436
Si Si2 0.200706 0.215547 0.243905
Si Si3 0.161354 0.000000 0.000000
Si Si4 0.761117 0.610459 0.383486
Si Si5 0.588701 0.053024 0.927637
Si Si6 0.453832 0.367329 0.095545
Si Si7 0.135078 0.124632 0.103107
Si Si8 0.000000 0.848302 0.250000
O O1 0.303257 0.834069 0.546186
O O2 0.532674 0.864838 0.452164
O O3 0.532590 0.729365 0.562298
O O4 0.390602 0.712496 0.442134
O O5 0.263196 0.171321 0.315694
O O6 0.205016 0.149126 0.179087
O O7 0.331852 0.292422 0.231338
O O8 0.000000 0.242896 0.250000
O O9 0.250985 0.945949 0.937958
O O10 0.050020 0.072450 0.961016
O O11 0.892607 0.529861 0.375265
O O12 0.558602 0.584813 0.389009
O O13 0.755794 0.106378 0.903833
O O14 0.616559 0.000000 0.000000
O O15 0.535134 0.387647 0.172598
#
# Coordination Sequence:
#
# PCOD9316511 Si02
#       8
#     8   8   4   8   8   8   8   4
#     4  10  18  31  56  93 124 165 210 283 328 378
#     4  10  23  42  64  98 136 185 222 276 348 406
#     4  10  18  36  58 100 128 164 242 280 318 410
#     4  10  19  37  61  91 129 170 225 278 326 408
#     4  10  18  33  58  91 121 161 226 273 319 401
#     4  11  20  35  60  99 134 167 229 288 322 409
#     4  10  20  35  61  91 129 171 220 281 328 392
#     4  12  24  40  66 104 138 176 228 278 340 414
#
# _framework density 24.720942000000001
#
# number of rings (size 3 to 8) (size 9 to 14) (size 15 to 20)
#    0.000    1.714    3.571    3.429    0.000    1.143 
#    0.000    0.000    0.000    8.571   16.714    1.000 
#    0.000    0.000    0.000    0.000    0.000    0.000 
#
# Total GULP energy -156109.538399 kJ/mol
# GULP energy per Si atom -5575.340657 kJ/mol
# Density = 2.466468 g / cm^3
# Si number density = 24.720942 Si / 1000 Ang^3
#
#
#
# Elastic Constant Matrix: (Units=GPa)
#
#
# Indices 1 2 3 4 5 6 
#
# 1 62.2601 15.8561 1.7913 0.0000 0.0000 0.0000
# 2 15.8561 101.7341 11.4085 0.0000 0.0000 0.0000
# 3 1.7913 11.4085 114.1396 0.0000 0.0000 0.0000
# 4 0.0000 0.0000 0.0000 38.4269 0.0000 0.0000
# 5 0.0000 0.0000 0.0000 0.0000 29.2851 0.0000
# 6 0.0000 0.0000 0.0000 0.0000 0.0000 8.1935
#
#
#
# Elastic Compliance Matrix: (Units=1/GPa)
#
#
# Indices 1 2 3 4 5 6 
#
# 1 0.016726 -0.002607 -0.000002 0.000000 0.000000 0.000000
# 2 -0.002607 0.010347 -0.000993 0.000000 0.000000 0.000000
# 3 -0.000002 -0.000993 0.008861 0.000000 0.000000 0.000000
# 4 0.000000 0.000000 0.000000 0.026023 0.000000 0.000000
# 5 0.000000 0.000000 0.000000 0.000000 0.034147 0.000000
# 6 0.000000 0.000000 0.000000 0.000000 0.000000 0.122048
#
#
# Mechanical properties :
#
#
# Convention : Reuss Voigt Hill
#
# Bulk Modulus (GPa) = 34.80740 37.36062 36.08401
# Shear Modulus (GPa) = 21.28277 31.78628 26.53453
#
# Velocity S-wave (km/s) = 2.93733 3.58970 3.27977
# Velocity P-wave (km/s) = 5.06108 5.68569 5.38245
#
# Compressibility (1/GPa) = 0.02872952
#
# Stress axis : x y z
#
# Youngs Moduli (GPa) = 59.78876 96.64451 112.86023
#
# Poissons Ratio (x) = 0.25191 0.00022
# Poissons Ratio (y) = 0.15585 0.11211
# Poissons Ratio (z) = 0.00012 0.09600
#
# Static dielectric constant tensor:
#      x y z
#    x 2.122860 0.000000 0.000000 
#    y 0.000000 2.022410 0.000000 
#    z 0.000000 0.000000 2.178460 
# 
# From -- ./inp_files/26774.got.cif
#   From: 2010.05.17/outbox.cif.g08.bks.cpg/sg20_14_cif.got.tgz:26774.got - 2010.06.03 22:52:26.
