data_PCOD9316062
_publ_section_title
;
Structure prediction by ZEFSAII (Michael W. Deem and Ramdas Pophale) SiO2 
 PCOD9316062
Probable space group: P 21 21 21
;
_chemical_formula_sum "Si O2"
_cell_formula_units_Z 32
_cell_length_a 12.558826
_cell_length_b 5.003190
_cell_length_c 20.087191
_cell_angle_alpha 90.000000
_cell_angle_beta 90.000000
_cell_angle_gamma 90.000000
_cell_volume 1262.162429
_symmetry_space_group_name_H-M "P 21 21 21"
_symmetry_group_IT_number 19
_symmetry_cell_setting 'orthorhombic'
loop_
_space_group_symop_operation_xyz
x,y,z
1/2-x,-y,1/2+z
1/2+x,1/2-y,-z
-x,1/2+y,1/2-z
loop_
_atom_site_type_symbol
_atom_site_label
_atom_site_fract_x
_atom_site_fract_y
_atom_site_fract_z
Si Si1 0.969471 0.405315 0.027103
Si Si2 0.857413 0.282066 0.427840
Si Si3 0.834364 0.797661 0.845630
Si Si4 0.730751 0.416183 0.040108
Si Si5 0.673183 0.005513 0.745996
Si Si6 0.468222 0.212730 0.123523
Si Si7 0.030775 0.132077 0.165248
Si Si8 0.815313 0.091529 0.623002
O O1 0.851132 0.521059 0.033351
O O2 0.062348 0.622962 0.025750
O O3 0.989779 0.255094 0.096124
O O4 0.972829 0.253607 0.956784
O O5 0.748951 0.139498 0.405568
O O6 0.822699 0.545687 0.468329
O O7 0.922816 0.351239 0.360946
O O8 0.762353 0.822909 0.780260
O O9 0.877812 0.503371 0.858364
O O10 0.930297 0.009641 0.845165
O O11 0.733291 0.119561 0.069526
O O12 0.670895 0.619169 0.089813
O O13 0.568415 0.870319 0.714848
O O14 0.734188 0.133058 0.683449
O O15 0.627261 0.214335 0.799512
O O16 0.577168 0.063560 0.144147
#
# Coordination Sequence:
#
# PCOD9316062 Si02
#       8
#     4   4   4   4   4   4   4   4
#     4  12  26  45  80 114 154 193 262 332 399 473
#     4  12  26  48  78 116 161 198 259 335 407 462
#     4  12  28  48  74 112 151 207 252 320 385 466
#     4  12  27  45  78 116 154 199 254 324 401 455
#     4  12  28  49  78 106 164 205 265 312 388 474
#     4  12  28  48  78 111 149 200 263 320 396 462
#     4  12  27  49  76 118 153 213 260 329 393 477
#     4  12  28  50  74 113 152 209 259 318 385 473
#
# _framework density 25.353314999999998
#
# number of rings (size 3 to 8) (size 9 to 14) (size 15 to 20)
#    0.000    0.000    5.000    3.750    5.250    3.000 
#    0.000    0.000    0.000    0.000    0.000    0.000 
#    0.000    0.000    0.000    0.000    0.000    0.000 
#
# Total GULP energy -179317.545465 kJ/mol
# GULP energy per Si atom -5603.673296 kJ/mol
# Density = 2.529561 g / cm^3
# Si number density = 25.353315 Si / 1000 Ang^3
#
#
#
# Elastic Constant Matrix: (Units=GPa)
#
#
# Indices 1 2 3 4 5 6 
#
# 1 111.5289 -1.0019 20.0115 0.0000 0.0000 0.0000
# 2 -1.0019 74.1217 13.7331 0.0000 0.0000 0.0000
# 3 20.0115 13.7331 95.9254 0.0000 0.0000 0.0000
# 4 0.0000 0.0000 0.0000 20.9984 0.0000 0.0000
# 5 0.0000 0.0000 0.0000 0.0000 64.3901 0.0000
# 6 0.0000 0.0000 0.0000 0.0000 0.0000 40.6037
#
#
#
# Elastic Compliance Matrix: (Units=1/GPa)
#
#
# Indices 1 2 3 4 5 6 
#
# 1 0.009333 0.000500 -0.002019 0.000000 0.000000 0.000000
# 2 0.000500 0.013886 -0.002092 0.000000 0.000000 0.000000
# 3 -0.002019 -0.002092 0.011145 0.000000 0.000000 0.000000
# 4 0.000000 0.000000 0.000000 0.047623 0.000000 0.000000
# 5 0.000000 0.000000 0.000000 0.000000 0.015530 0.000000
# 6 0.000000 0.000000 0.000000 0.000000 0.000000 0.024628
#
#
# Mechanical properties :
#
#
# Convention : Reuss Voigt Hill
#
# Bulk Modulus (GPa) = 36.84237 38.56239 37.70238
# Shear Modulus (GPa) = 36.12342 41.78734 38.95538
#
# Velocity S-wave (km/s) = 3.77875 4.06421 3.92407
# Velocity P-wave (km/s) = 5.79670 6.10465 5.95266
#
# Compressibility (1/GPa) = 0.02714266
#
# Stress axis : x y z
#
# Youngs Moduli (GPa) = 107.14699 72.01632 89.72296
#
# Poissons Ratio (x) = -0.03602 0.18112
# Poissons Ratio (y) = -0.05359 0.18773
# Poissons Ratio (z) = 0.21629 0.15068
#
# Static dielectric constant tensor:
#      x y z
#    x 2.009670 0.000000 0.000000 
#    y 0.000000 1.996400 0.000000 
#    z 0.000000 0.000000 1.997340 
# 
# From -- ./inp_files/7189.got.cif
#   From: 2010.05.17/outbox.cif.g08.bks.cpg/sg19_4_cif.got.tgz:7189.got - 2010.06.03 22:46:19.
