data_PCOD9316649
_publ_section_title
;
Structure prediction by ZEFSAII (Michael W. Deem and Ramdas Pophale) SiO2 
 PCOD9316649
Probable space group: C 2 2 21
;
_chemical_formula_sum "Si O2"
_cell_formula_units_Z 52
_cell_length_a 16.308011
_cell_length_b 11.733032
_cell_length_c 14.052086
_cell_angle_alpha 90.000000
_cell_angle_beta 90.000000
_cell_angle_gamma 90.000000
_cell_volume 2688.760070
_symmetry_space_group_name_H-M "C 2 2 21"
_symmetry_group_IT_number 20
_symmetry_cell_setting 'orthorhombic'
loop_
_space_group_symop_operation_xyz
x,y,z
-x,-y,1/2+z
x,-y,-z
-x,y,1/2-z
1/2+x,1/2+y,z
1/2-x,1/2-y,1/2+z
1/2+x,1/2-y,-z
1/2-x,1/2+y,1/2-z
loop_
_atom_site_type_symbol
_atom_site_label
_atom_site_fract_x
_atom_site_fract_y
_atom_site_fract_z
Si Si1 0.197044 0.000000 0.000000
Si Si2 0.735457 0.623730 0.416367
Si Si3 0.037252 0.179458 0.837398
Si Si4 0.227426 0.864914 0.174687
Si Si5 0.698198 0.896041 0.117460
Si Si6 0.426203 0.290803 0.549011
Si Si7 0.442448 0.542700 0.108156
O O1 0.245307 0.039512 0.905783
O O2 0.139222 0.893785 0.969109
O O3 0.749665 0.745193 0.372082
O O4 0.737013 0.632850 0.531616
O O5 0.807201 0.533080 0.392889
O O6 0.651083 0.575329 0.373050
O O7 0.129305 0.139465 0.815294
O O8 0.000000 0.250626 0.750000
O O9 0.039836 0.234431 0.942608
O O10 0.980619 0.066990 0.842756
O O11 0.269270 0.875303 0.276747
O O12 0.620542 0.816623 0.093734
O O13 0.497656 0.347923 0.612216
O O14 0.444016 0.500000 0.000000
#
# Coordination Sequence:
#
# PCOD9316649 Si02
#       7
#     4   8   8   8   8   8   8
#     4  10  18  38  60  88 122 168 210 258 312 384
#     4  11  23  39  60  98 126 163 210 277 318 383
#     4  10  19  32  57  91 119 157 211 260 308 379
#     4  11  23  38  63  91 129 172 215 263 326 390
#     4  11  23  37  58  90 133 165 205 262 331 383
#     4  10  19  37  58  89 128 166 197 272 325 375
#     4  10  18  34  60  88 122 155 208 266 320 361
#
# _framework density 19.339770000000001
#
# number of rings (size 3 to 8) (size 9 to 14) (size 15 to 20)
#    0.000    1.538    8.462    0.923    4.308    1.231 
#    0.000    0.000    0.000    3.692    0.000    0.000 
#    0.000    0.000    0.000    0.000    0.000    0.000 
#
# Total GULP energy -144884.898259 kJ/mol
# GULP energy per Si atom -5572.496087 kJ/mol
# Density = 1.929575 g / cm^3
# Si number density = 19.339770 Si / 1000 Ang^3
#
#
#
# Elastic Constant Matrix: (Units=GPa)
#
#
# Indices 1 2 3 4 5 6 
#
# 1 63.8571 27.0494 11.3994 0.0000 0.0000 0.0000
# 2 27.0494 74.6804 43.0973 0.0000 0.0000 0.0000
# 3 11.3994 43.0973 124.9385 0.0000 0.0000 0.0000
# 4 0.0000 0.0000 0.0000 20.3621 0.0000 0.0000
# 5 0.0000 0.0000 0.0000 0.0000 29.9571 0.0000
# 6 0.0000 0.0000 0.0000 0.0000 0.0000 25.3782
#
#
#
# Elastic Compliance Matrix: (Units=1/GPa)
#
#
# Indices 1 2 3 4 5 6 
#
# 1 0.018559 -0.007173 0.000781 0.000000 0.000000 0.000000
# 2 -0.007173 0.019491 -0.006069 0.000000 0.000000 0.000000
# 3 0.000781 -0.006069 0.010026 0.000000 0.000000 0.000000
# 4 0.000000 0.000000 0.000000 0.049111 0.000000 0.000000
# 5 0.000000 0.000000 0.000000 0.000000 0.033381 0.000000
# 6 0.000000 0.000000 0.000000 0.000000 0.000000 0.039404
#
#
# Mechanical properties :
#
#
# Convention : Reuss Voigt Hill
#
# Bulk Modulus (GPa) = 43.18845 47.39649 45.29247
# Shear Modulus (GPa) = 24.67784 27.26812 25.97298
#
# Velocity S-wave (km/s) = 3.57601 3.75900 3.66865
# Velocity P-wave (km/s) = 6.27936 6.58792 6.43549
#
# Compressibility (1/GPa) = 0.02315434
#
# Stress axis : x y z
#
# Youngs Moduli (GPa) = 53.88255 51.30669 99.73954
#
# Poissons Ratio (x) = 0.36801 -0.07789
# Poissons Ratio (y) = 0.38648 0.60530
# Poissons Ratio (z) = -0.04208 0.31137
#
# Static dielectric constant tensor:
#      x y z
#    x 1.704420 0.000000 0.000000 
#    y 0.000000 1.682170 0.000000 
#    z 0.000000 0.000000 1.769050 
# 
# From -- ./inp_files/21417.got.cif
#   From: 2010.05.17/outbox.cif.g08.bks.cpg/sg20_11_cif.got.tgz:21417.got - 2010.06.03 22:52:26.
