data_PCOD9316039
_publ_section_title
;
Structure prediction by ZEFSAII (Michael W. Deem and Ramdas Pophale) SiO2 
 PCOD9316039
Probable space group: P 21 21 21
;
_chemical_formula_sum "Si O2"
_cell_formula_units_Z 24
_cell_length_a 6.525105
_cell_length_b 18.281001
_cell_length_c 8.002067
_cell_angle_alpha 90.000000
_cell_angle_beta 90.000000
_cell_angle_gamma 90.000000
_cell_volume 954.530171
_symmetry_space_group_name_H-M "P 21 21 21"
_symmetry_group_IT_number 19
_symmetry_cell_setting 'orthorhombic'
loop_
_space_group_symop_operation_xyz
x,y,z
1/2-x,-y,1/2+z
1/2+x,1/2-y,-z
-x,1/2+y,1/2-z
loop_
_atom_site_type_symbol
_atom_site_label
_atom_site_fract_x
_atom_site_fract_y
_atom_site_fract_z
Si Si1 0.669708 0.164911 0.682688
Si Si2 0.071382 0.164987 0.843284
Si Si3 0.910481 0.221158 0.182752
Si Si4 0.064477 0.481551 0.160394
Si Si5 0.739367 0.549437 0.405248
Si Si6 0.110852 0.398159 0.673296
O O1 0.610733 0.248399 0.723899
O O2 0.598178 0.105427 0.822128
O O3 0.583360 0.138343 0.506729
O O4 0.913591 0.154531 0.694093
O O5 0.258614 0.212445 0.781677
O O6 0.155995 0.096271 0.946981
O O7 0.959021 0.212435 0.987877
O O8 0.790073 0.149420 0.238713
O O9 0.280634 0.522700 0.156628
O O10 0.919329 0.507833 0.310870
O O11 0.932137 0.499205 0.996400
O O12 0.599562 0.596225 0.276665
#
# Coordination Sequence:
#
# PCOD9316039 Si02
#       6
#     4   4   4   4   4   4
#     4  12  29  45  76 111 151 197 255 311 381 450
#     4  12  25  48  75 107 141 199 251 306 380 452
#     4  12  25  47  74 105 147 196 248 312 377 454
#     4  12  27  48  76 108 149 199 253 319 378 458
#     4  12  27  48  77 109 150 197 256 313 386 453
#     4  12  29  46  74 108 156 196 253 317 380 457
#
# _framework density 25.143257999999999
#
# number of rings (size 3 to 8) (size 9 to 14) (size 15 to 20)
#    0.000    0.000    5.000    4.000    9.333    1.333 
#    0.000    0.000    0.000    0.000    0.000    0.000 
#    0.000    0.000    0.000    0.000    0.000    0.000 
#
# Total GULP energy -134410.580822 kJ/mol
# GULP energy per Si atom -5600.440868 kJ/mol
# Density = 2.508603 g / cm^3
# Si number density = 25.143258 Si / 1000 Ang^3
#
#
#
# Elastic Constant Matrix: (Units=GPa)
#
#
# Indices 1 2 3 4 5 6 
#
# 1 75.5516 23.9577 -3.7798 0.0000 0.0000 0.0000
# 2 23.9577 62.7981 -14.7397 0.0000 0.0000 0.0000
# 3 -3.7798 -14.7397 46.5817 0.0000 0.0000 0.0000
# 4 0.0000 0.0000 0.0000 30.4619 0.0000 0.0000
# 5 0.0000 0.0000 0.0000 0.0000 47.4794 0.0000
# 6 0.0000 0.0000 0.0000 0.0000 0.0000 45.1713
#
#
#
# Elastic Compliance Matrix: (Units=1/GPa)
#
#
# Indices 1 2 3 4 5 6 
#
# 1 0.015075 -0.005903 -0.000644 0.000000 0.000000 0.000000
# 2 -0.005903 0.019513 0.005695 0.000000 0.000000 0.000000
# 3 -0.000644 0.005695 0.023218 0.000000 0.000000 0.000000
# 4 0.000000 0.000000 0.000000 0.032828 0.000000 0.000000
# 5 0.000000 0.000000 0.000000 0.000000 0.021062 0.000000
# 6 0.000000 0.000000 0.000000 0.000000 0.000000 0.022138
#
#
# Mechanical properties :
#
#
# Convention : Reuss Voigt Hill
#
# Bulk Modulus (GPa) = 17.82457 21.75642 19.79049
# Shear Modulus (GPa) = 32.41752 36.58872 34.50312
#
# Velocity S-wave (km/s) = 3.59460 3.81886 3.70842
# Velocity P-wave (km/s) = 4.93282 5.30252 5.12101
#
# Compressibility (1/GPa) = 0.05610235
#
# Stress axis : x y z
#
# Youngs Moduli (GPa) = 66.33280 51.24859 43.07088
#
# Poissons Ratio (x) = 0.30250 0.02776
# Poissons Ratio (y) = 0.39154 -0.24531
# Poissons Ratio (z) = 0.04275 -0.29188
#
# Static dielectric constant tensor:
#      x y z
#    x 2.050000 0.000000 0.000000 
#    y 0.000000 2.005300 0.000000 
#    z 0.000000 0.000000 1.949320 
# 
# From -- ./inp_files/409.got.cif
#   From: 2010.05.17/outbox.cif.g08.bks.cpg/sg19_1_cif.got.tgz:409.got - 2010.06.03 22:46:19.
