data_PCOD9316795
_publ_section_title
;
Structure prediction by ZEFSAII (Michael W. Deem and Ramdas Pophale) SiO2 
 PCOD9316795
Probable space group: C 2 2 21
;
_chemical_formula_sum "Si O2"
_cell_formula_units_Z 60
_cell_length_a 17.402319
_cell_length_b 12.132234
_cell_length_c 14.793406
_cell_angle_alpha 90.000000
_cell_angle_beta 90.000000
_cell_angle_gamma 90.000000
_cell_volume 3123.317108
_symmetry_space_group_name_H-M "C 2 2 21"
_symmetry_group_IT_number 20
_symmetry_cell_setting 'orthorhombic'
loop_
_space_group_symop_operation_xyz
x,y,z
-x,-y,1/2+z
x,-y,-z
-x,y,1/2-z
1/2+x,1/2+y,z
1/2-x,1/2-y,1/2+z
1/2+x,1/2-y,-z
1/2-x,1/2+y,1/2-z
loop_
_atom_site_type_symbol
_atom_site_label
_atom_site_fract_x
_atom_site_fract_y
_atom_site_fract_z
Si Si1 0.494922 0.726756 0.000000
Si Si2 0.044751 0.375376 0.343401
Si Si3 0.085236 0.000000 0.000000
Si Si4 0.680622 0.291770 0.309794
Si Si5 0.177385 0.130196 0.500000
Si Si6 0.907877 1.000000 0.280535
Si Si7 0.319379 0.291769 0.809793
Si Si8 0.044752 0.624625 0.343401
O O1 0.543324 0.617037 0.000001
O O2 0.504325 0.803057 0.913118
O O3 0.504325 0.803059 0.086882
O O4 0.407176 0.684062 0.000000
O O5 0.123478 0.309911 0.327951
O O6 0.057663 0.500000 0.376570
O O7 0.000000 0.379756 0.250000
O O8 0.109926 0.000001 0.889844
O O9 0.713607 0.332172 0.406210
O O10 0.631765 0.391842 0.264681
O O11 0.750001 0.250000 0.250001
O O12 0.623478 0.190089 0.327951
O O13 0.213606 0.167828 0.406209
O O14 0.168763 0.000000 0.500000
O O15 0.868236 0.108159 0.235320
O O16 0.000000 0.999999 0.250000
O O17 0.000000 0.620245 0.250000
#
# Coordination Sequence:
#
# PCOD9316795 Si02
#       8
#     8   8   4   8   8   8   8   8
#     4  10  19  34  58  91 120 159 209 260 317 377
#     4  10  21  37  59  86 122 163 209 254 315 388
#     4  12  22  34  66  96 134 154 216 290 332 368
#     4  11  24  39  65  92 129 166 215 273 330 388
#     4  10  18  38  62  86 116 169 217 247 313 402
#     4  12  24  42  68  98 129 171 225 278 330 388
#     4  11  24  39  65  92 129 166 215 273 330 388
#     4  10  21  37  59  86 122 163 209 254 315 388
#
# _framework density 19.210343999999999
#
# number of rings (size 3 to 8) (size 9 to 14) (size 15 to 20)
#    0.000    1.333    2.000    6.000    1.867    1.067 
#    0.000    1.333    0.000    0.000    0.000    0.000 
#    0.000    0.000    0.000    0.000    0.000    0.000 
#
# Total GULP energy -167209.632649 kJ/mol
# GULP energy per Si atom -5573.654422 kJ/mol
# Density = 1.916662 g / cm^3
# Si number density = 19.210344 Si / 1000 Ang^3
#
#
#
# Elastic Constant Matrix: (Units=GPa)
#
#
# Indices 1 2 3 4 5 6 
#
# 1 47.4862 37.6833 32.4979 0.0000 0.0000 0.0000
# 2 37.6833 177.4239 61.0579 0.0000 0.0000 0.0000
# 3 32.4979 61.0579 162.5670 0.0000 0.0000 0.0000
# 4 0.0000 0.0000 0.0000 19.1277 0.0000 0.0000
# 5 0.0000 0.0000 0.0000 0.0000 22.7339 0.0000
# 6 0.0000 0.0000 0.0000 0.0000 0.0000 56.6048
#
#
#
# Elastic Compliance Matrix: (Units=1/GPa)
#
#
# Indices 1 2 3 4 5 6 
#
# 1 0.027183 -0.004483 -0.003750 0.000000 0.000000 0.000000
# 2 -0.004483 0.007212 -0.001813 0.000000 0.000000 0.000000
# 3 -0.003750 -0.001813 0.007582 0.000000 0.000000 0.000000
# 4 0.000000 0.000000 0.000000 0.052280 0.000000 0.000000
# 5 0.000000 0.000000 0.000000 0.000000 0.043987 0.000000
# 6 0.000000 0.000000 0.000000 0.000000 0.000000 0.017666
#
#
# Mechanical properties :
#
#
# Convention : Reuss Voigt Hill
#
# Bulk Modulus (GPa) = 45.69292 72.21726 58.95509
# Shear Modulus (GPa) = 27.27818 36.77582 32.02700
#
# Velocity S-wave (km/s) = 3.77234 4.38011 4.08753
# Velocity P-wave (km/s) = 6.54303 7.95330 7.28238
#
# Compressibility (1/GPa) = 0.02188523
#
# Stress axis : x y z
#
# Youngs Moduli (GPa) = 36.78810 138.65561 131.89452
#
# Poissons Ratio (x) = 0.62156 0.49464
# Poissons Ratio (y) = 0.16491 0.23908
# Poissons Ratio (z) = 0.13797 0.25133
#
# Static dielectric constant tensor:
#      x y z
#    x 1.638000 0.000000 0.000000 
#    y 0.000000 1.630900 0.000000 
#    z 0.000000 0.000000 1.825760 
# 
# From -- ./inp_files/21459.got.cif
#   From: 2010.05.17/outbox.cif.g08.bks.cpg/sg20_11_cif.got.tgz:21459.got - 2010.06.03 22:52:26.
