data_PCOD9316134
_publ_section_title
;
Structure prediction by ZEFSAII (Michael W. Deem and Ramdas Pophale) SiO2 
 PCOD9316134
Probable space group: P 21 21 21
;
_chemical_formula_sum "Si O2"
_cell_formula_units_Z 32
_cell_length_a 9.000000
_cell_length_b 15.000000
_cell_length_c 12.000000
_cell_angle_alpha 90.000000
_cell_angle_beta 90.000000
_cell_angle_gamma 90.000000
_cell_volume 1620.000000
_symmetry_space_group_name_H-M "P 21 21 21"
_symmetry_group_IT_number 19
_symmetry_cell_setting 'orthorhombic'
loop_
_space_group_symop_operation_xyz
x,y,z
1/2-x,-y,1/2+z
1/2+x,1/2-y,-z
-x,1/2+y,1/2-z
loop_
_atom_site_type_symbol
_atom_site_label
_atom_site_fract_x
_atom_site_fract_y
_atom_site_fract_z
Si Si1 0.512255 0.243971 0.344515
Si Si2 0.156142 0.098943 0.508834
Si Si3 0.945181 0.961854 0.392540
Si Si4 0.683241 0.231618 0.932288
Si Si5 0.523760 0.589566 0.863588
Si Si6 0.989443 0.661109 0.608130
Si Si7 0.110417 0.462996 0.588433
Si Si8 0.833296 0.734423 0.175451
O O1 0.589264 0.314902 0.426601
O O2 0.544797 0.283461 0.221171
O O3 0.558721 0.137842 0.365690
O O4 0.335217 0.261085 0.357965
O O5 0.312624 0.082852 0.575750
O O6 0.159939 0.139285 0.383774
O O7 0.051838 0.012920 0.482340
O O8 0.910249 0.861216 0.436001
O O9 0.008457 0.948708 0.263894
O O10 0.784355 0.014038 0.386165
O O11 0.853889 0.199116 0.938935
O O12 0.661222 0.270579 0.808460
O O13 0.634566 0.306304 0.020618
O O14 0.457410 0.691449 0.857953
O O15 0.416956 0.542367 0.954877
O O16 0.016662 0.553399 0.625793
#
# Coordination Sequence:
#
# PCOD9316134 Si02
#       8
#     4   4   4   4   4   4   4   4
#     4  11  24  43  69 100 136 182 233 289 348 425
#     4  12  23  40  70 101 138 182 232 291 343 415
#     4  10  26  44  67 102 144 184 231 294 355 426
#     4   9  22  44  64  94 138 178 225 284 347 426
#     4  11  24  43  70 104 142 180 240 289 358 422
#     4  10  24  42  67  96 135 187 224 285 355 415
#     4  11  23  44  69  99 133 183 233 284 353 423
#     4  10  20  42  66  96 136 178 224 290 349 404
#
# _framework density 19.753086
#
# number of rings (size 3 to 8) (size 9 to 14) (size 15 to 20)
#    0.000    1.500    2.500    1.500    3.500    7.000 
#    2.250    0.000    0.000    0.000    0.000    0.000 
#    0.000    0.000    0.000    0.000    0.000    0.000 
#
# Total GULP energy -178304.537480 kJ/mol
# GULP energy per Si atom -5572.016796 kJ/mol
# Density = 1.970813 g / cm^3
# Si number density = 19.753086 Si / 1000 Ang^3
#
#
#
# Elastic Constant Matrix: (Units=GPa)
#
#
# Indices 1 2 3 4 5 6 
#
# 1 83.0718 36.0415 31.5267 0.0000 0.0000 0.0000
# 2 36.0415 107.8438 40.2651 0.0000 0.0000 0.0000
# 3 31.5267 40.2651 56.9367 0.0000 0.0000 0.0000
# 4 0.0000 0.0000 0.0000 35.9023 0.0000 0.0000
# 5 0.0000 0.0000 0.0000 0.0000 37.2689 0.0000
# 6 0.0000 0.0000 0.0000 0.0000 0.0000 40.0555
#
#
#
# Elastic Compliance Matrix: (Units=1/GPa)
#
#
# Indices 1 2 3 4 5 6 
#
# 1 0.015814 -0.002739 -0.006820 0.000000 0.000000 0.000000
# 2 -0.002739 0.013074 -0.007729 0.000000 0.000000 0.000000
# 3 -0.006820 -0.007729 0.026805 0.000000 0.000000 0.000000
# 4 0.000000 0.000000 0.000000 0.027853 0.000000 0.000000
# 5 0.000000 0.000000 0.000000 0.000000 0.026832 0.000000
# 6 0.000000 0.000000 0.000000 0.000000 0.000000 0.024965
#
#
# Mechanical properties :
#
#
# Convention : Reuss Voigt Hill
#
# Bulk Modulus (GPa) = 47.35255 51.50208 49.42732
# Shear Modulus (GPa) = 28.25517 31.97994 30.11755
#
# Velocity S-wave (km/s) = 3.78619 4.02803 3.90898
# Velocity P-wave (km/s) = 6.56795 6.91107 6.74169
#
# Compressibility (1/GPa) = 0.02111819
#
# Stress axis : x y z
#
# Youngs Moduli (GPa) = 63.23431 76.48896 37.30588
#
# Poissons Ratio (x) = 0.20950 0.25441
# Poissons Ratio (y) = 0.17319 0.28834
# Poissons Ratio (z) = 0.43123 0.59119
#
# Static dielectric constant tensor:
#      x y z
#    x 1.749030 0.000000 0.000000 
#    y 0.000000 1.724230 0.000000 
#    z 0.000000 0.000000 1.727470 
# 
# From -- ./inp_files/4719.got.cif
#   From: 2010.05.17/outbox.ucp.g08.bks.cvg/sg19_3_cif.got.tgz:4719.got - 2010.06.11 13:13:52.
