data_PCOD9316323
_publ_section_title
;
Structure prediction by ZEFSAII (Michael W. Deem and Ramdas Pophale) SiO2 
 PCOD9316323
Probable space group: C 2 2 21
;
_chemical_formula_sum "Si O2"
_cell_formula_units_Z 64
_cell_length_a 19.258403
_cell_length_b 13.761165
_cell_length_c 14.124789
_cell_angle_alpha 90.000000
_cell_angle_beta 90.000000
_cell_angle_gamma 90.000000
_cell_volume 3743.324197
_symmetry_space_group_name_H-M "C 2 2 21"
_symmetry_group_IT_number 20
_symmetry_cell_setting 'orthorhombic'
loop_
_space_group_symop_operation_xyz
x,y,z
-x,-y,1/2+z
x,-y,-z
-x,y,1/2-z
1/2+x,1/2+y,z
1/2-x,1/2-y,1/2+z
1/2+x,1/2-y,-z
1/2-x,1/2+y,1/2-z
loop_
_atom_site_type_symbol
_atom_site_label
_atom_site_fract_x
_atom_site_fract_y
_atom_site_fract_z
Si Si1 0.301404 0.980555 0.606795
Si Si2 0.138798 0.674364 0.865728
Si Si3 0.848897 0.759905 0.840054
Si Si4 0.623721 0.570320 0.912533
Si Si5 0.659286 0.487960 0.706108
Si Si6 0.294309 0.766921 0.554034
Si Si7 0.982472 0.009889 0.861221
Si Si8 0.501825 0.714302 0.364788
O O1 0.237474 0.006866 0.674430
O O2 0.318076 0.866219 0.607620
O O3 0.275668 0.000000 0.500000
O O4 0.362234 0.057682 0.624445
O O5 0.157084 0.700495 0.757681
O O6 0.066507 0.726697 0.893359
O O7 0.195149 0.712043 0.942261
O O8 0.851609 0.872339 0.805574
O O9 0.783967 0.748973 0.909823
O O10 0.923266 0.740662 0.889000
O O11 0.646500 0.521186 0.813320
O O12 0.659876 0.673736 0.921697
O O13 0.539926 0.577392 0.908080
O O14 0.642307 0.500000 0.000000
O O15 0.599465 0.532343 0.637138
O O16 0.997551 0.899008 0.892901
O O17 0.000000 0.011377 0.750000
O O18 0.500000 0.715333 0.250000
#
# Coordination Sequence:
#
# PCOD9316323 Si02
#       8
#     8   8   8   8   8   8   8   8
#     4   9  19  32  47  66  90 127 165 196 229 274
#     4  10  17  31  50  70  96 125 162 203 237 274
#     4   9  17  31  52  75  97 122 159 204 239 276
#     4  11  19  28  46  73 100 124 151 190 244 295
#     4   9  17  31  48  70  97 122 154 194 237 283
#     4  10  20  31  46  72  99 125 158 192 241 296
#     4   8  15  27  43  65  92 118 144 181 230 281
#     4   8  14  27  50  73  88 113 157 202 235 263
#
# _framework density 17.097104000000002
#
# number of rings (size 3 to 8) (size 9 to 14) (size 15 to 20)
#    0.000    2.750    0.000    4.500    0.000    0.500 
#    0.000    2.500    0.000    9.000    0.000    8.750 
#    0.000    0.000    0.000    0.000    0.000    0.000 
#
# Total GULP energy -178137.690852 kJ/mol
# GULP energy per Si atom -5566.802839 kJ/mol
# Density = 1.705819 g / cm^3
# Si number density = 17.097104 Si / 1000 Ang^3
#
#
#
# Elastic Constant Matrix: (Units=GPa)
#
#
# Indices 1 2 3 4 5 6 
#
# 1 92.9771 49.9944 31.6576 0.0000 0.0000 0.0000
# 2 49.9944 61.1476 11.9728 0.0000 0.0000 0.0000
# 3 31.6576 11.9728 64.2106 0.0000 0.0000 0.0000
# 4 0.0000 0.0000 0.0000 11.3700 0.0000 0.0000
# 5 0.0000 0.0000 0.0000 0.0000 20.2768 0.0000
# 6 0.0000 0.0000 0.0000 0.0000 0.0000 23.5553
#
#
#
# Elastic Compliance Matrix: (Units=1/GPa)
#
#
# Indices 1 2 3 4 5 6 
#
# 1 0.022537 -0.016867 -0.007966 0.000000 0.000000 0.000000
# 2 -0.016867 0.029596 0.002797 0.000000 0.000000 0.000000
# 3 -0.007966 0.002797 0.018980 0.000000 0.000000 0.000000
# 4 0.000000 0.000000 0.000000 0.087951 0.000000 0.000000
# 5 0.000000 0.000000 0.000000 0.000000 0.049317 0.000000
# 6 0.000000 0.000000 0.000000 0.000000 0.000000 0.042453
#
#
# Mechanical properties :
#
#
# Convention : Reuss Voigt Hill
#
# Bulk Modulus (GPa) = 36.98017 45.06499 41.02258
# Shear Modulus (GPa) = 16.45166 19.35445 17.90305
#
# Velocity S-wave (km/s) = 3.10538 3.36822 3.23946
# Velocity P-wave (km/s) = 5.87659 6.44531 6.16751
#
# Compressibility (1/GPa) = 0.02704152
#
# Stress axis : x y z
#
# Youngs Moduli (GPa) = 44.37131 33.78796 52.68735
#
# Poissons Ratio (x) = 0.56989 0.41973
# Poissons Ratio (y) = 0.74839 -0.14737
# Poissons Ratio (z) = 0.35348 -0.09451
#
# Static dielectric constant tensor:
#      x y z
#    x 1.631050 0.000000 0.000000 
#    y 0.000000 1.587300 0.000000 
#    z 0.000000 0.000000 1.595080 
# 
# From -- ./inp_files/21556.got.cif
#   From: 2010.05.17/outbox.cif.g08.bks.cpg/sg20_11_cif.got.tgz:21556.got - 2010.06.03 22:52:26.
