data_PCOD9316533
_publ_section_title
;
Structure prediction by ZEFSAII (Michael W. Deem and Ramdas Pophale) SiO2 
 PCOD9316533
Probable space group: C 2 2 21
;
_chemical_formula_sum "Si O2"
_cell_formula_units_Z 48
_cell_length_a 10.365051
_cell_length_b 16.814213
_cell_length_c 11.992968
_cell_angle_alpha 90.000000
_cell_angle_beta 90.000000
_cell_angle_gamma 90.000000
_cell_volume 2090.136565
_symmetry_space_group_name_H-M "C 2 2 21"
_symmetry_group_IT_number 20
_symmetry_cell_setting 'orthorhombic'
loop_
_space_group_symop_operation_xyz
x,y,z
-x,-y,1/2+z
x,-y,-z
-x,y,1/2-z
1/2+x,1/2+y,z
1/2-x,1/2-y,1/2+z
1/2+x,1/2-y,-z
1/2-x,1/2+y,1/2-z
loop_
_atom_site_type_symbol
_atom_site_label
_atom_site_fract_x
_atom_site_fract_y
_atom_site_fract_z
Si Si1 0.123245 0.650585 0.465130
Si Si2 0.333084 0.339218 0.031667
Si Si3 0.500000 0.467723 0.750000
Si Si4 0.749218 0.965986 0.875638
Si Si5 0.905780 0.137026 0.454919
Si Si6 0.077842 0.318906 0.135375
Si Si7 0.500000 0.075148 0.250000
O O1 0.145114 0.744958 0.473897
O O2 0.262822 0.615214 0.493896
O O3 0.074597 0.626647 0.343139
O O4 0.010162 0.630880 0.550566
O O5 0.223547 0.351250 0.125323
O O6 0.280239 0.373197 0.912097
O O7 0.477945 0.373268 0.042355
O O8 0.369210 0.500908 0.806295
O O9 0.559541 0.415654 0.849425
O O10 0.614302 0.971790 0.812131
O O11 0.746792 0.000000 0.000000
O O12 0.909718 0.228414 0.411363
O O13 0.000000 0.317400 0.250000
#
# Coordination Sequence:
#
# PCOD9316533 Si02
#       7
#     8   8   4   8   8   8   4
#     4  10  20  34  61  96 126 164 207 267 332 392
#     4   9  20  36  57  92 128 160 211 263 319 388
#     4  10  18  38  69  87 114 166 214 270 316 376
#     4  11  24  44  69  94 130 177 229 271 322 398
#     4   9  17  32  56  87 120 158 209 254 320 387
#     4  10  18  32  53  87 131 164 193 257 326 386
#     4  12  22  42  69  97 130 172 224 270 338 400
#
# _framework density 22.965007
#
# number of rings (size 3 to 8) (size 9 to 14) (size 15 to 20)
#    0.000    2.000    4.167    0.000    0.000    0.000 
#    1.500    1.667    3.667    0.000    0.000    0.000 
#    0.000    0.000    0.000    0.000    0.000    0.000 
#
# Total GULP energy -133866.992138 kJ/mol
# GULP energy per Si atom -5577.791339 kJ/mol
# Density = 2.291274 g / cm^3
# Si number density = 22.965007 Si / 1000 Ang^3
#
#
#
# Elastic Constant Matrix: (Units=GPa)
#
#
# Indices 1 2 3 4 5 6 
#
# 1 233.0098 42.7672 75.5892 0.0000 0.0000 0.0000
# 2 42.7672 41.9885 26.1787 0.0000 0.0000 0.0000
# 3 75.5892 26.1787 89.2273 0.0000 0.0000 0.0000
# 4 0.0000 0.0000 0.0000 23.5434 0.0000 0.0000
# 5 0.0000 0.0000 0.0000 0.0000 47.3812 0.0000
# 6 0.0000 0.0000 0.0000 0.0000 0.0000 19.7981
#
#
#
# Elastic Compliance Matrix: (Units=1/GPa)
#
#
# Indices 1 2 3 4 5 6 
#
# 1 0.006385 -0.003832 -0.004285 0.000000 0.000000 0.000000
# 2 -0.003832 0.031448 -0.005980 0.000000 0.000000 0.000000
# 3 -0.004285 -0.005980 0.016592 0.000000 0.000000 0.000000
# 4 0.000000 0.000000 0.000000 0.042475 0.000000 0.000000
# 5 0.000000 0.000000 0.000000 0.000000 0.021105 0.000000
# 6 0.000000 0.000000 0.000000 0.000000 0.000000 0.050510
#
#
# Mechanical properties :
#
#
# Convention : Reuss Voigt Hill
#
# Bulk Modulus (GPa) = 38.12379 72.58840 55.35610
# Shear Modulus (GPa) = 24.33660 32.79057 28.56359
#
# Velocity S-wave (km/s) = 3.25887 3.78279 3.53056
# Velocity P-wave (km/s) = 5.54952 7.12434 6.38566
#
# Compressibility (1/GPa) = 0.02623034
#
# Stress axis : x y z
#
# Youngs Moduli (GPa) = 156.61722 31.79896 60.27080
#
# Poissons Ratio (x) = 0.12185 0.25825
# Poissons Ratio (y) = 0.60015 0.36044
# Poissons Ratio (z) = 0.67107 0.19017
#
# Static dielectric constant tensor:
#      x y z
#    x 1.950290 0.000000 0.000000 
#    y 0.000000 1.972630 0.000000 
#    z 0.000000 0.000000 1.825430 
# 
# From -- ./inp_files/13122.got.cif
#   From: 2010.05.17/outbox.cif.g08.bks.cpg/sg20_7_cif.got.tgz:13122.got - 2010.06.03 22:52:26.
