data_PCOD9316075
_publ_section_title
;
Structure prediction by ZEFSAII (Michael W. Deem and Ramdas Pophale) SiO2 
 PCOD9316075
Probable space group: P 21 21 21
;
_chemical_formula_sum "Si O2"
_cell_formula_units_Z 16
_cell_length_a 8.526194
_cell_length_b 4.766428
_cell_length_c 16.060612
_cell_angle_alpha 90.000000
_cell_angle_beta 90.000000
_cell_angle_gamma 90.000000
_cell_volume 652.695078
_symmetry_space_group_name_H-M "P 21 21 21"
_symmetry_group_IT_number 19
_symmetry_cell_setting 'orthorhombic'
loop_
_space_group_symop_operation_xyz
x,y,z
1/2-x,-y,1/2+z
1/2+x,1/2-y,-z
-x,1/2+y,1/2-z
loop_
_atom_site_type_symbol
_atom_site_label
_atom_site_fract_x
_atom_site_fract_y
_atom_site_fract_z
Si Si1 0.603418 0.112663 0.269442
Si Si2 0.419617 0.111926 0.790693
Si Si3 0.671315 0.903172 0.453446
Si Si4 0.484436 0.902437 0.975233
O O1 0.472290 0.353118 0.279700
O O2 0.749730 0.254682 0.223599
O O3 0.657636 0.994094 0.358001
O O4 0.542468 0.363616 0.774346
O O5 0.439244 0.979068 0.881073
O O6 0.541822 0.078350 0.504970
O O7 0.631957 0.579158 0.465880
O O8 0.838924 0.995577 0.488314
#
# Coordination Sequence:
#
# PCOD9316075 Si02
#       4
#     4   4   4   4
#     4  12  28  48  75 107 149 189 246 301 355 428
#     4  12  26  50  75 104 144 196 242 294 359 429
#     4  12  28  50  70 112 145 192 242 296 365 434
#     4  12  28  48  76 105 150 191 240 299 367 431
#
# _framework density 24.513743999999999
#
# number of rings (size 3 to 8) (size 9 to 14) (size 15 to 20)
#    0.000    0.000    2.500    6.000   14.000    0.000 
#    0.000    0.000    0.000    0.000    0.000    0.000 
#    0.000    0.000    0.000    0.000    0.000    0.000 
#
# Total GULP energy -89844.764127 kJ/mol
# GULP energy per Si atom -5615.297758 kJ/mol
# Density = 2.445795 g / cm^3
# Si number density = 24.513744 Si / 1000 Ang^3
#
#
#
# Elastic Constant Matrix: (Units=GPa)
#
#
# Indices 1 2 3 4 5 6 
#
# 1 90.6212 1.1093 8.6923 0.0000 0.0000 0.0000
# 2 1.1093 98.8723 7.6830 0.0000 0.0000 0.0000
# 3 8.6923 7.6830 30.7408 0.0000 0.0000 0.0000
# 4 0.0000 0.0000 0.0000 11.9165 0.0000 0.0000
# 5 0.0000 0.0000 0.0000 0.0000 27.8943 0.0000
# 6 0.0000 0.0000 0.0000 0.0000 0.0000 51.4723
#
#
#
# Elastic Compliance Matrix: (Units=1/GPa)
#
#
# Indices 1 2 3 4 5 6 
#
# 1 0.011344 0.000124 -0.003239 0.000000 0.000000 0.000000
# 2 0.000124 0.010316 -0.002613 0.000000 0.000000 0.000000
# 3 -0.003239 -0.002613 0.034099 0.000000 0.000000 0.000000
# 4 0.000000 0.000000 0.000000 0.083918 0.000000 0.000000
# 5 0.000000 0.000000 0.000000 0.000000 0.035850 0.000000
# 6 0.000000 0.000000 0.000000 0.000000 0.000000 0.019428
#
#
# Mechanical properties :
#
#
# Convention : Reuss Voigt Hill
#
# Bulk Modulus (GPa) = 22.57163 28.35594 25.46379
# Shear Modulus (GPa) = 22.60630 31.77325 27.18978
#
# Velocity S-wave (km/s) = 3.04005 3.60410 3.33403
# Velocity P-wave (km/s) = 4.64223 5.37698 5.02305
#
# Compressibility (1/GPa) = 0.04430340
#
# Stress axis : x y z
#
# Youngs Moduli (GPa) = 88.15176 96.93928 29.32636
#
# Poissons Ratio (x) = -0.01206 0.09498
# Poissons Ratio (y) = -0.01097 0.07664
# Poissons Ratio (z) = 0.28550 0.25334
#
# Static dielectric constant tensor:
#      x y z
#    x 1.942740 0.000000 0.000000 
#    y 0.000000 1.863170 0.000000 
#    z 0.000000 0.000000 1.908850 
# 
# From -- ./inp_files/274.got.cif
#   From: 2010.05.17/outbox.cif.g08.bks.cpg/sg19_1_cif.got.tgz:274.got - 2010.06.03 22:46:19.
