data_PCOD9316499
_publ_section_title
;
Structure prediction by ZEFSAII (Michael W. Deem and Ramdas Pophale) SiO2 
 PCOD9316499
Probable space group: C 2 2 21
;
_chemical_formula_sum "Si O2"
_cell_formula_units_Z 44
_cell_length_a 13.968449
_cell_length_b 25.568707
_cell_length_c 5.210879
_cell_angle_alpha 90.000000
_cell_angle_beta 90.000000
_cell_angle_gamma 90.000000
_cell_volume 1861.092426
_symmetry_space_group_name_H-M "C 2 2 21"
_symmetry_group_IT_number 20
_symmetry_cell_setting 'orthorhombic'
loop_
_space_group_symop_operation_xyz
x,y,z
-x,-y,1/2+z
x,-y,-z
-x,y,1/2-z
1/2+x,1/2+y,z
1/2-x,1/2-y,1/2+z
1/2+x,1/2-y,-z
1/2-x,1/2+y,1/2-z
loop_
_atom_site_type_symbol
_atom_site_label
_atom_site_fract_x
_atom_site_fract_y
_atom_site_fract_z
Si Si1 0.433297 0.611764 0.999753
Si Si2 0.370115 0.222589 0.385074
Si Si3 0.932003 0.000000 0.000000
Si Si4 0.889977 0.397912 0.682096
Si Si5 0.886397 0.447808 0.172501
Si Si6 0.141545 0.777451 0.612111
O O1 0.500000 0.610997 0.250000
O O2 0.380273 0.555737 0.993149
O O3 0.371049 0.662919 0.029683
O O4 0.500000 0.616103 0.750000
O O5 0.390718 0.161325 0.419847
O O6 0.255350 0.229704 0.372758
O O7 0.400462 0.260628 0.614589
O O8 0.403417 0.240979 0.106660
O O9 0.000000 0.999796 0.250000
O O10 0.847819 0.434908 0.458467
O O11 0.000000 0.412912 0.750000
O O12 0.848179 0.404033 0.969792
O O13 0.000000 0.446952 0.250000
O O14 0.869759 0.500000 0.000000
#
# Coordination Sequence:
#
# PCOD9316499 Si02
#       6
#     8   8   4   8   8   8
#     4  10  19  33  55  83 107 137 177 224 271 322
#     4  10  21  37  53  76 107 148 184 217 268 327
#     4   8  16  30  50  76 106 132 164 210 270 322
#     4  10  20  32  51  77 103 137 174 226 269 302
#     4  10  18  31  51  74 101 134 174 212 264 320
#     4  10  21  36  55  76 105 148 182 213 270 330
#
# _framework density 23.642029000000001
#
# number of rings (size 3 to 8) (size 9 to 14) (size 15 to 20)
#    0.000    2.182    0.000    4.364    0.000    2.182 
#    0.000    0.000    4.000    0.000    4.727    0.000 
#    0.000    0.000    0.000    0.000    0.000    0.000 
#
# Total GULP energy -122687.903030 kJ/mol
# GULP energy per Si atom -5576.722865 kJ/mol
# Density = 2.358822 g / cm^3
# Si number density = 23.642029 Si / 1000 Ang^3
#
#
#
# Elastic Constant Matrix: (Units=GPa)
#
#
# Indices 1 2 3 4 5 6 
#
# 1 45.1398 -11.8952 20.9928 0.0000 0.0000 0.0000
# 2 -11.8952 124.3155 43.9988 0.0000 0.0000 0.0000
# 3 20.9928 43.9988 195.0934 0.0000 0.0000 0.0000
# 4 0.0000 0.0000 0.0000 40.7200 0.0000 0.0000
# 5 0.0000 0.0000 0.0000 0.0000 9.4040 0.0000
# 6 0.0000 0.0000 0.0000 0.0000 0.0000 75.8297
#
#
#
# Elastic Compliance Matrix: (Units=1/GPa)
#
#
# Indices 1 2 3 4 5 6 
#
# 1 0.024714 0.003593 -0.003470 0.000000 0.000000 0.000000
# 2 0.003593 0.009264 -0.002476 0.000000 0.000000 0.000000
# 3 -0.003470 -0.002476 0.006057 0.000000 0.000000 0.000000
# 4 0.000000 0.000000 0.000000 0.024558 0.000000 0.000000
# 5 0.000000 0.000000 0.000000 0.000000 0.106338 0.000000
# 6 0.000000 0.000000 0.000000 0.000000 0.000000 0.013187
#
#
# Mechanical properties :
#
#
# Convention : Reuss Voigt Hill
#
# Bulk Modulus (GPa) = 28.30472 52.30462 40.30467
# Shear Modulus (GPa) = 24.92516 45.95421 35.43969
#
# Velocity S-wave (km/s) = 3.25048 4.41358 3.87591
# Velocity P-wave (km/s) = 5.10742 6.93863 6.09222
#
# Compressibility (1/GPa) = 0.03532979
#
# Stress axis : x y z
#
# Youngs Moduli (GPa) = 40.46343 107.94344 165.08552
#
# Poissons Ratio (x) = -0.38781 0.57277
# Poissons Ratio (y) = -0.14537 0.40873
# Poissons Ratio (z) = 0.14039 0.26726
#
# Static dielectric constant tensor:
#      x y z
#    x 1.928690 0.000000 0.000000 
#    y 0.000000 1.931160 0.000000 
#    z 0.000000 0.000000 1.902610 
# 
# From -- ./inp_files/2685.got.cif
#   From: 2010.05.17/outbox.cif.g08.bks.cpg/sg20_2_cif.got.tgz:2685.got - 2010.06.03 22:52:26.
