data_PCOD9316959
_publ_section_title
;
Structure prediction by ZEFSAII (Michael W. Deem and Ramdas Pophale) SiO2 
 PCOD9316959
Probable space group: C 2 2 21
;
_chemical_formula_sum "Si O2"
_cell_formula_units_Z 60
_cell_length_a 12.249299
_cell_length_b 7.924133
_cell_length_c 26.021671
_cell_angle_alpha 90.000000
_cell_angle_beta 90.000000
_cell_angle_gamma 90.000000
_cell_volume 2525.795432
_symmetry_space_group_name_H-M "C 2 2 21"
_symmetry_group_IT_number 20
_symmetry_cell_setting 'orthorhombic'
loop_
_space_group_symop_operation_xyz
x,y,z
-x,-y,1/2+z
x,-y,-z
-x,y,1/2-z
1/2+x,1/2+y,z
1/2-x,1/2-y,1/2+z
1/2+x,1/2-y,-z
1/2-x,1/2+y,1/2-z
loop_
_atom_site_type_symbol
_atom_site_label
_atom_site_fract_x
_atom_site_fract_y
_atom_site_fract_z
Si Si1 0.262562 0.659165 0.921912
Si Si2 0.309996 0.860218 0.230788
Si Si3 0.500000 0.876941 0.750000
Si Si4 0.775621 0.025192 0.622477
Si Si5 0.554674 0.067321 0.049691
Si Si6 0.781874 0.024364 0.176469
Si Si7 0.247100 0.184930 0.977156
Si Si8 0.442370 0.770248 0.645364
O O1 0.146539 0.568330 0.933664
O O2 0.323666 0.548135 0.878324
O O3 0.235824 0.836105 0.895495
O O4 0.308338 0.703524 0.979200
O O5 0.403158 0.990034 0.245605
O O6 0.259012 0.945472 0.180492
O O7 0.237768 0.872637 0.282613
O O8 0.338770 0.672893 0.210130
O O9 0.499239 0.763588 0.699526
O O10 0.712782 0.146465 0.580932
O O11 0.899658 0.094218 0.623729
O O12 0.631805 0.220862 0.031322
O O13 0.494487 0.128878 0.100774
O O14 0.490942 0.000000 0.000000
O O15 0.667688 0.118453 0.158809
O O16 0.228829 0.000000 0.000000
#
# Coordination Sequence:
#
# PCOD9316959 Si02
#       8
#     8   8   4   8   8   8   8   8
#     4   9  15  25  46  74 104 128 161 212 257 296
#     4  10  19  32  51  73 101 134 172 213 258 307
#     4  10  20  34  52  74 106 138 170 218 264 306
#     4   9  16  28  48  73 101 133 168 207 251 307
#     4   8  13  23  42  69  98 128 163 204 249 299
#     4   9  17  29  48  71  96 130 168 207 252 303
#     4   8  14  24  42  74 105 125 158 211 257 295
#     4   8  16  29  46  69  96 129 166 203 252 304
#
# _framework density 23.754892000000002
#
# number of rings (size 3 to 8) (size 9 to 14) (size 15 to 20)
#    0.000    3.200    0.000    1.600    0.000    0.000 
#    0.000    0.000    0.000   41.600    0.000    0.000 
#    0.000   56.533    0.000    0.000    0.000    0.000 
#
# Total GULP energy -167020.913223 kJ/mol
# GULP energy per Si atom -5567.363774 kJ/mol
# Density = 2.370082 g / cm^3
# Si number density = 23.754892 Si / 1000 Ang^3
#
#
#
# Elastic Constant Matrix: (Units=GPa)
#
#
# Indices 1 2 3 4 5 6 
#
# 1 30.7339 10.5690 14.9044 0.0000 0.0000 0.0000
# 2 10.5690 106.6150 33.8844 0.0000 0.0000 0.0000
# 3 14.9044 33.8844 136.2178 0.0000 0.0000 0.0000
# 4 0.0000 0.0000 0.0000 38.3728 0.0000 0.0000
# 5 0.0000 0.0000 0.0000 0.0000 20.4978 0.0000
# 6 0.0000 0.0000 0.0000 0.0000 0.0000 2.9266
#
#
#
# Elastic Compliance Matrix: (Units=1/GPa)
#
#
# Indices 1 2 3 4 5 6 
#
# 1 0.034936 -0.002441 -0.003215 0.000000 0.000000 0.000000
# 2 -0.002441 0.010355 -0.002309 0.000000 0.000000 0.000000
# 3 -0.003215 -0.002309 0.008267 0.000000 0.000000 0.000000
# 4 0.000000 0.000000 0.000000 0.026060 0.000000 0.000000
# 5 0.000000 0.000000 0.000000 0.000000 0.048786 0.000000
# 6 0.000000 0.000000 0.000000 0.000000 0.000000 0.341694
#
#
# Mechanical properties :
#
#
# Convention : Reuss Voigt Hill
#
# Bulk Modulus (GPa) = 26.57603 43.58691 35.08147
# Shear Modulus (GPa) = 10.02864 26.64004 18.33434
#
# Velocity S-wave (km/s) = 2.05691 3.35245 2.78117
# Velocity P-wave (km/s) = 4.10525 5.77699 5.01132
#
# Compressibility (1/GPa) = 0.03762789
#
# Stress axis : x y z
#
# Youngs Moduli (GPa) = 28.62362 96.56855 120.95845
#
# Poissons Ratio (x) = 0.23576 0.38892
# Poissons Ratio (y) = 0.06988 0.27927
# Poissons Ratio (z) = 0.09203 0.22296
#
# Static dielectric constant tensor:
#      x y z
#    x 2.058650 0.000000 0.000000 
#    y 0.000000 1.923320 0.000000 
#    z 0.000000 0.000000 2.033220 
# 
# From -- ./inp_files/29305.got.cif
#   From: 2010.05.17/outbox.cif.g08.bks.cpg/sg20_15_cif.got.tgz:29305.got - 2010.06.03 22:52:26.
