data_PCOD9316202
_publ_section_title
;
Structure prediction by ZEFSAII (Michael W. Deem and Ramdas Pophale) SiO2 
 PCOD9316202
Probable space group: C 2 2 21
;
_chemical_formula_sum "Si O2"
_cell_formula_units_Z 28
_cell_length_a 31.817134
_cell_length_b 7.181798
_cell_length_c 5.036142
_cell_angle_alpha 90.000000
_cell_angle_beta 90.000000
_cell_angle_gamma 90.000000
_cell_volume 1150.779746
_symmetry_space_group_name_H-M "C 2 2 21"
_symmetry_group_IT_number 20
_symmetry_cell_setting 'orthorhombic'
loop_
_space_group_symop_operation_xyz
x,y,z
-x,-y,1/2+z
x,-y,-z
-x,y,1/2-z
1/2+x,1/2+y,z
1/2-x,1/2-y,1/2+z
1/2+x,1/2-y,-z
1/2-x,1/2+y,1/2-z
loop_
_atom_site_type_symbol
_atom_site_label
_atom_site_fract_x
_atom_site_fract_y
_atom_site_fract_z
Si Si1 0.000000 0.865136 0.250000
Si Si2 0.583955 0.273962 0.487718
Si Si3 0.224841 0.205169 0.120590
Si Si4 0.868178 0.772647 0.511093
O O1 0.038202 0.743049 0.363680
O O2 0.986847 0.000000 0.500000
O O3 0.585308 0.500000 0.500000
O O4 0.596304 0.211478 0.780055
O O5 0.619418 0.210827 0.281966
O O6 0.257107 0.299136 0.915663
O O7 0.177952 0.286006 0.104948
O O8 0.221771 0.000000 0.000000
O O9 0.868630 0.000000 0.500000
#
# Coordination Sequence:
#
# PCOD9316202 Si02
#       4
#     4   8   8   8
#     4  10  16  22  34  56  86 124 166 204 242 294
#     4   9  15  24  37  57  86 123 164 201 240 300
#     4  11  22  37  56  79 106 141 183 227 272 321
#     4   9  17  28  43  62  89 126 167 205 250 308
#
# _framework density 24.331327999999999
#
# number of rings (size 3 to 8) (size 9 to 14) (size 15 to 20)
#    0.000    2.286    0.000    6.857    0.000    4.571 
#    0.000    0.000    0.000    0.000    0.000    0.000 
#    0.000    0.000    0.000   72.000    0.000  124.571 
#
# Total GULP energy -78245.309417 kJ/mol
# GULP energy per Si atom -5588.950673 kJ/mol
# Density = 2.427595 g / cm^3
# Si number density = 24.331328 Si / 1000 Ang^3
#
#
#
# Elastic Constant Matrix: (Units=GPa)
#
#
# Indices 1 2 3 4 5 6 
#
# 1 151.7530 -6.2897 34.7738 0.0000 0.0000 0.0000
# 2 -6.2897 66.3891 -7.6677 0.0000 0.0000 0.0000
# 3 34.7738 -7.6677 120.8967 0.0000 0.0000 0.0000
# 4 0.0000 0.0000 0.0000 8.8003 0.0000 0.0000
# 5 0.0000 0.0000 0.0000 0.0000 42.0994 0.0000
# 6 0.0000 0.0000 0.0000 0.0000 0.0000 17.8682
#
#
#
# Elastic Compliance Matrix: (Units=1/GPa)
#
#
# Indices 1 2 3 4 5 6 
#
# 1 0.007067 0.000438 -0.002005 0.000000 0.000000 0.000000
# 2 0.000438 0.015201 0.000838 0.000000 0.000000 0.000000
# 3 -0.002005 0.000838 0.008901 0.000000 0.000000 0.000000
# 4 0.000000 0.000000 0.000000 0.113633 0.000000 0.000000
# 5 0.000000 0.000000 0.000000 0.000000 0.023753 0.000000
# 6 0.000000 0.000000 0.000000 0.000000 0.000000 0.055965
#
#
# Mechanical properties :
#
#
# Convention : Reuss Voigt Hill
#
# Bulk Modulus (GPa) = 33.65658 42.29685 37.97671
# Shear Modulus (GPa) = 21.19694 34.96839 28.08266
#
# Velocity S-wave (km/s) = 2.95478 3.79512 3.40100
# Velocity P-wave (km/s) = 5.05011 6.05189 5.57355
#
# Compressibility (1/GPa) = 0.02971187
#
# Stress axis : x y z
#
# Youngs Moduli (GPa) = 141.49780 65.78507 112.34212
#
# Poissons Ratio (x) = -0.02881 0.22525
# Poissons Ratio (y) = -0.06197 -0.09416
# Poissons Ratio (z) = 0.28370 -0.05514
#
# Static dielectric constant tensor:
#      x y z
#    x 1.954320 0.000000 0.000000 
#    y 0.000000 2.004840 0.000000 
#    z 0.000000 0.000000 1.841660 
# 
# From -- ./inp_files/4448.got.cif
#   From: 2010.05.17/outbox.cif.g08.bks.cpg/sg20_3_cif.got.tgz:4448.got - 2010.06.03 22:52:26.
