data_PCOD9316894
_publ_section_title
;
Structure prediction by ZEFSAII (Michael W. Deem and Ramdas Pophale) SiO2 
 PCOD9316894
Probable space group: C 2 2 21
;
_chemical_formula_sum "Si O2"
_cell_formula_units_Z 56
_cell_length_a 21.892718
_cell_length_b 5.471711
_cell_length_c 17.954803
_cell_angle_alpha 90.000000
_cell_angle_beta 90.000000
_cell_angle_gamma 90.000000
_cell_volume 2150.817089
_symmetry_space_group_name_H-M "C 2 2 21"
_symmetry_group_IT_number 20
_symmetry_cell_setting 'orthorhombic'
loop_
_space_group_symop_operation_xyz
x,y,z
-x,-y,1/2+z
x,-y,-z
-x,y,1/2-z
1/2+x,1/2+y,z
1/2-x,1/2-y,1/2+z
1/2+x,1/2-y,-z
1/2-x,1/2+y,1/2-z
loop_
_atom_site_type_symbol
_atom_site_label
_atom_site_fract_x
_atom_site_fract_y
_atom_site_fract_z
Si Si1 0.263369 0.889357 0.856841
Si Si2 0.258791 0.113561 0.314767
Si Si3 0.111340 0.892506 0.686527
Si Si4 0.135801 0.249841 0.018699
Si Si5 0.983910 0.754226 0.410222
Si Si6 0.053700 0.253229 0.157931
Si Si7 0.894175 0.392848 0.895990
O O1 0.285484 0.892401 0.768587
O O2 0.229135 0.633783 0.858540
O O3 0.321486 0.880888 0.911416
O O4 0.225387 0.138933 0.857432
O O5 0.185046 0.119472 0.305281
O O6 0.076379 0.807512 0.760073
O O7 0.097817 0.673997 0.628041
O O8 0.099232 0.175595 0.666051
O O9 0.073399 0.249612 0.966810
O O10 0.168433 0.500000 0.000000
O O11 0.110179 0.248746 0.101396
O O12 0.169415 0.000000 0.000000
O O13 0.049770 0.697662 0.447204
O O14 0.973804 0.524601 0.353913
O O15 0.984157 0.017893 0.370781
#
# Coordination Sequence:
#
# PCOD9316894 Si02
#       7
#     8   8   8   8   8   8   8
#     4   8  14  25  39  54  76 106 135 162 193 234
#     4   8  14  25  39  54  76 106 135 162 193 234
#     4  10  19  28  40  61  86 111 137 164 203 248
#     4   8  16  30  44  56  72 100 140 176 200 228
#     4  10  19  30  43  58  81 109 140 172 202 237
#     4  10  19  30  43  58  81 109 140 172 202 237
#     4  10  19  28  40  61  86 111 137 164 203 248
#
# _framework density 26.036617
#
# number of rings (size 3 to 8) (size 9 to 14) (size 15 to 20)
#    0.000    2.857    0.000    1.714    0.000    3.429 
#    0.000    0.000    0.000    0.000    0.000    0.000 
#    0.000   20.571    0.000    0.000    0.000   45.143 
#
# Total GULP energy -156303.643615 kJ/mol
# GULP energy per Si atom -5582.272986 kJ/mol
# Density = 2.597736 g / cm^3
# Si number density = 26.036617 Si / 1000 Ang^3
#
#
#
# Elastic Constant Matrix: (Units=GPa)
#
#
# Indices 1 2 3 4 5 6 
#
# 1 79.7617 27.8093 17.6154 0.0000 0.0000 0.0000
# 2 27.8093 259.3184 21.9841 0.0000 0.0000 0.0000
# 3 17.6154 21.9841 53.1813 0.0000 0.0000 0.0000
# 4 0.0000 0.0000 0.0000 25.6559 0.0000 0.0000
# 5 0.0000 0.0000 0.0000 0.0000 14.9582 0.0000
# 6 0.0000 0.0000 0.0000 0.0000 0.0000 -31.7872
#
#
#
# Elastic Compliance Matrix: (Units=1/GPa)
#
#
# Indices 1 2 3 4 5 6 
#
# 1 0.013842 -0.001136 -0.004116 0.000000 0.000000 0.000000
# 2 -0.001136 0.004089 -0.001314 0.000000 0.000000 0.000000
# 3 -0.004116 -0.001314 0.020710 0.000000 0.000000 0.000000
# 4 0.000000 0.000000 0.000000 0.038977 0.000000 0.000000
# 5 0.000000 0.000000 0.000000 0.000000 0.066853 0.000000
# 6 0.000000 0.000000 0.000000 0.000000 0.000000 -0.031459
#
#
# Mechanical properties :
#
#
# Convention : Reuss Voigt Hill
#
# Bulk Modulus (GPa) = 39.19906 58.56433 48.88170
# Shear Modulus (GPa) = 37.13407 23.42224 30.27816
#
# Velocity S-wave (km/s) = 3.78064 3.00257 3.41384
# Velocity P-wave (km/s) = 5.84343 5.87898 5.86123
#
# Compressibility (1/GPa) = 0.02551081
#
# Stress axis : x y z
#
# Youngs Moduli (GPa) = 72.24298 244.53068 48.28550
#
# Poissons Ratio (x) = 0.27767 0.19872
# Poissons Ratio (y) = 0.08203 0.06347
# Poissons Ratio (z) = 0.29732 0.32141
#
# Static dielectric constant tensor:
#      x y z
#    x 2.080560 0.000000 0.000000 
#    y 0.000000 2.106140 0.000000 
#    z 0.000000 0.000000 2.031300 
# 
# From -- ./inp_files/28067.got.cif
#   From: 2010.05.17/outbox.cif.g08.bks.cpg/sg20_15_cif.got.tgz:28067.got - 2010.06.03 22:52:26.
