data_PCOD9316317
_publ_section_title
;
Structure prediction by ZEFSAII (Michael W. Deem and Ramdas Pophale) SiO2 
 PCOD9316317
Probable space group: C 2 2 21
;
_chemical_formula_sum "Si O2"
_cell_formula_units_Z 48
_cell_length_a 5.393513
_cell_length_b 25.863079
_cell_length_c 13.969570
_cell_angle_alpha 90.000000
_cell_angle_beta 90.000000
_cell_angle_gamma 90.000000
_cell_volume 1948.655172
_symmetry_space_group_name_H-M "C 2 2 21"
_symmetry_group_IT_number 20
_symmetry_cell_setting 'orthorhombic'
loop_
_space_group_symop_operation_xyz
x,y,z
-x,-y,1/2+z
x,-y,-z
-x,y,1/2-z
1/2+x,1/2+y,z
1/2-x,1/2-y,1/2+z
1/2+x,1/2-y,-z
1/2-x,1/2+y,1/2-z
loop_
_atom_site_type_symbol
_atom_site_label
_atom_site_fract_x
_atom_site_fract_y
_atom_site_fract_z
Si Si1 0.879134 0.075220 0.645852
Si Si2 0.762553 0.594511 0.355200
Si Si3 0.262482 0.361477 0.639181
Si Si4 0.734013 0.695698 0.860653
Si Si5 0.763277 0.261391 0.360134
Si Si6 0.133401 0.519421 0.896988
O O1 0.819845 0.135400 0.632096
O O2 0.611716 0.047239 0.643137
O O3 0.000000 0.070004 0.750000
O O4 0.113015 0.052000 0.587405
O O5 0.751727 0.620187 0.249926
O O6 0.504952 0.611240 0.402738
O O7 0.791108 0.533278 0.342705
O O8 0.006343 0.617985 0.405256
O O9 0.289534 0.300084 0.640114
O O10 0.498341 0.723866 0.905559
O O11 0.748180 0.716139 0.749753
O O12 0.997280 0.711141 0.903376
O O13 0.048123 0.500000 0.000000
#
# Coordination Sequence:
#
# PCOD9316317 Si02
#       6
#     8   8   8   8   8   8
#     4  12  25  41  68  97 123 163 220 274 316 375
#     4  10  20  35  54  82 119 156 211 248 307 369
#     4  10  19  32  56  94 118 162 196 266 313 365
#     4  10  18  31  52  88 127 151 189 250 317 374
#     4  10  17  30  51  88 137 147 184 250 346 363
#     4  12  28  45  62  89 133 179 213 264 332 388
#
# _framework density 24.632373000000001
#
# number of rings (size 3 to 8) (size 9 to 14) (size 15 to 20)
#    0.000    1.333    1.667    8.000    9.333    0.000 
#    0.000    0.000    0.000    0.000    0.000   39.667 
#    0.000    0.000    0.000    0.000    0.000    0.000 
#
# Total GULP energy -134254.373252 kJ/mol
# GULP energy per Si atom -5593.932219 kJ/mol
# Density = 2.457631 g / cm^3
# Si number density = 24.632373 Si / 1000 Ang^3
#
#
#
# Elastic Constant Matrix: (Units=GPa)
#
#
# Indices 1 2 3 4 5 6 
#
# 1 300.3600 122.1035 12.7264 0.0000 0.0000 0.0000
# 2 122.1035 234.1794 33.6093 0.0000 0.0000 0.0000
# 3 12.7264 33.6093 50.3794 0.0000 0.0000 0.0000
# 4 0.0000 0.0000 0.0000 132.1205 0.0000 0.0000
# 5 0.0000 0.0000 0.0000 0.0000 -2.4070 0.0000
# 6 0.0000 0.0000 0.0000 0.0000 0.0000 56.4624
#
#
#
# Elastic Compliance Matrix: (Units=1/GPa)
#
#
# Indices 1 2 3 4 5 6 
#
# 1 0.004234 -0.002272 0.000446 0.000000 0.000000 0.000000
# 2 -0.002272 0.005941 -0.003390 0.000000 0.000000 0.000000
# 3 0.000446 -0.003390 0.021998 0.000000 0.000000 0.000000
# 4 0.000000 0.000000 0.000000 0.007569 0.000000 0.000000
# 5 0.000000 0.000000 0.000000 0.000000 -0.415455 0.000000
# 6 0.000000 0.000000 0.000000 0.000000 0.000000 0.017711
#
#
# Mechanical properties :
#
#
# Convention : Reuss Voigt Hill
#
# Bulk Modulus (GPa) = 45.99304 102.42192 74.20748
# Shear Modulus (GPa) = -14.69187 65.00047 25.15430
#
# Velocity S-wave (km/s) = -2.44487 5.14252 3.19907
# Velocity P-wave (km/s) = 3.27757 8.77104 6.62094
#
# Compressibility (1/GPa) = 0.02174242
#
# Stress axis : x y z
#
# Youngs Moduli (GPa) = 236.18867 168.31774 45.45856
#
# Poissons Ratio (x) = 0.38235 -0.02027
# Poissons Ratio (y) = 0.53653 0.15409
# Poissons Ratio (z) = -0.10532 0.57054
#
# Static dielectric constant tensor:
#      x y z
#    x 1.123360 0.000000 0.000000 
#    y 0.000000 1.883110 0.000000 
#    z 0.000000 0.000000 1.623080 
# 
# From -- ./inp_files/22821.got.cif
#   From: 2010.05.17/outbox.cif.g08.bks.cpg/sg20_12_cif.got.tgz:22821.got - 2010.06.03 22:52:26.
