data_PCOD9316277
_publ_section_title
;
Structure prediction by ZEFSAII (Michael W. Deem and Ramdas Pophale) SiO2 
 PCOD9316277
Probable space group: C 2 2 21
;
_chemical_formula_sum "Si O2"
_cell_formula_units_Z 44
_cell_length_a 9.556924
_cell_length_b 28.112511
_cell_length_c 8.451217
_cell_angle_alpha 90.000000
_cell_angle_beta 90.000000
_cell_angle_gamma 90.000000
_cell_volume 2270.581128
_symmetry_space_group_name_H-M "C 2 2 21"
_symmetry_group_IT_number 20
_symmetry_cell_setting 'orthorhombic'
loop_
_space_group_symop_operation_xyz
x,y,z
-x,-y,1/2+z
x,-y,-z
-x,y,1/2-z
1/2+x,1/2+y,z
1/2-x,1/2-y,1/2+z
1/2+x,1/2-y,-z
1/2-x,1/2+y,1/2-z
loop_
_atom_site_type_symbol
_atom_site_label
_atom_site_fract_x
_atom_site_fract_y
_atom_site_fract_z
Si Si1 0.500000 0.192779 0.750000
Si Si2 0.646375 0.878538 0.497174
Si Si3 0.079552 0.551165 0.921802
Si Si4 0.658677 0.195773 0.269951
Si Si5 0.160621 0.105517 0.716034
Si Si6 0.770858 0.790364 0.079217
O O1 0.433677 0.159200 0.883634
O O2 0.376417 0.220343 0.666680
O O3 0.525935 0.917076 0.529094
O O4 0.720641 0.848156 0.632904
O O5 0.765521 0.899268 0.385876
O O6 0.231106 0.576029 0.895396
O O7 0.000000 0.548929 0.750000
O O8 0.095496 0.500000 0.000000
O O9 0.500000 0.178880 0.250000
O O10 0.643754 0.243816 0.373529
O O11 0.736422 0.204590 0.105322
O O12 0.170246 0.160311 0.651400
O O13 0.000000 0.092298 0.750000
#
# Coordination Sequence:
#
# PCOD9316277 Si02
#       6
#     4   8   8   8   8   8
#     4  10  16  38  58  76 118 152 198 248 286 346
#     4  10  19  40  60  85 120 156 201 252 292 348
#     4  10  20  38  66  92 116 153 201 249 300 358
#     4  12  23  36  56  83 116 164 205 252 294 353
#     4  10  20  40  61  85 122 158 194 250 306 354
#     4  11  22  35  56  83 119 159 207 244 296 352
#
# _framework density 19.378298999999998
#
# number of rings (size 3 to 8) (size 9 to 14) (size 15 to 20)
#    0.000    1.455    6.364    2.727    0.000    2.182 
#    0.000    3.636    0.000    0.000    0.000    0.000 
#    0.000    0.000    0.000    0.000    0.000    0.000 
#
# Total GULP energy -122619.141428 kJ/mol
# GULP energy per Si atom -5573.597338 kJ/mol
# Density = 1.933419 g / cm^3
# Si number density = 19.378299 Si / 1000 Ang^3
#
#
#
# Elastic Constant Matrix: (Units=GPa)
#
#
# Indices 1 2 3 4 5 6 
#
# 1 89.3478 32.3116 14.9437 0.0000 0.0000 0.0000
# 2 32.3116 111.1516 38.0006 0.0000 0.0000 0.0000
# 3 14.9437 38.0006 74.2829 0.0000 0.0000 0.0000
# 4 0.0000 0.0000 0.0000 34.5955 0.0000 0.0000
# 5 0.0000 0.0000 0.0000 0.0000 14.7351 0.0000
# 6 0.0000 0.0000 0.0000 0.0000 0.0000 15.1092
#
#
#
# Elastic Compliance Matrix: (Units=1/GPa)
#
#
# Indices 1 2 3 4 5 6 
#
# 1 0.012546 -0.003374 -0.000798 0.000000 0.000000 0.000000
# 2 -0.003374 0.011811 -0.005363 0.000000 0.000000 0.000000
# 3 -0.000798 -0.005363 0.016366 0.000000 0.000000 0.000000
# 4 0.000000 0.000000 0.000000 0.028905 0.000000 0.000000
# 5 0.000000 0.000000 0.000000 0.000000 0.067865 0.000000
# 6 0.000000 0.000000 0.000000 0.000000 0.000000 0.066185
#
#
# Mechanical properties :
#
#
# Convention : Reuss Voigt Hill
#
# Bulk Modulus (GPa) = 46.18397 49.47712 47.83055
# Shear Modulus (GPa) = 21.74224 25.52308 23.63266
#
# Velocity S-wave (km/s) = 3.35324 3.63312 3.49598
# Velocity P-wave (km/s) = 6.23513 6.57169 6.40562
#
# Compressibility (1/GPa) = 0.02165253
#
# Stress axis : x y z
#
# Youngs Moduli (GPa) = 79.70706 84.66473 61.10131
#
# Poissons Ratio (x) = 0.28569 0.04874
# Poissons Ratio (y) = 0.26896 0.32771
# Poissons Ratio (z) = 0.06358 0.45409
#
# Static dielectric constant tensor:
#      x y z
#    x 1.708050 0.000000 0.000000 
#    y 0.000000 1.663610 0.000000 
#    z 0.000000 0.000000 1.770760 
# 
# From -- ./inp_files/6385.got.cif
#   From: 2010.05.17/outbox.cif.g08.bks.cpg/sg20_4_cif.got.tgz:6385.got - 2010.06.03 22:52:26.
