data_PCOD9316263
_publ_section_title
;
Structure prediction by ZEFSAII (Michael W. Deem and Ramdas Pophale) SiO2 
 PCOD9316263
Probable space group: C 2 2 21
;
_chemical_formula_sum "Si O2"
_cell_formula_units_Z 48
_cell_length_a 8.946539
_cell_length_b 12.806653
_cell_length_c 15.936834
_cell_angle_alpha 90.000000
_cell_angle_beta 90.000000
_cell_angle_gamma 90.000000
_cell_volume 1825.966270
_symmetry_space_group_name_H-M "C 2 2 21"
_symmetry_group_IT_number 20
_symmetry_cell_setting 'orthorhombic'
loop_
_space_group_symop_operation_xyz
x,y,z
-x,-y,1/2+z
x,-y,-z
-x,y,1/2-z
1/2+x,1/2+y,z
1/2-x,1/2-y,1/2+z
1/2+x,1/2-y,-z
1/2-x,1/2+y,1/2-z
loop_
_atom_site_type_symbol
_atom_site_label
_atom_site_fract_x
_atom_site_fract_y
_atom_site_fract_z
Si Si1 0.500000 0.099669 0.250000
Si Si2 0.863679 0.593275 0.840603
Si Si3 0.151587 0.846612 0.300991
Si Si4 0.393336 0.159087 0.424845
Si Si5 0.111987 0.242449 0.096708
Si Si6 0.865407 0.500000 0.000000
Si Si7 0.077744 0.048092 0.412211
O O1 0.422440 0.162528 0.325254
O O2 0.609069 0.016404 0.294087
O O3 0.772723 0.656066 0.773107
O O4 0.009172 0.661302 0.867385
O O5 0.783498 0.562595 0.927109
O O6 0.221220 0.764760 0.368467
O O7 0.000000 0.837902 0.250000
O O8 0.129836 0.955455 0.350831
O O9 0.398524 0.249022 0.495317
O O10 0.228104 0.112313 0.433355
O O11 0.520022 0.079004 0.455607
O O12 0.041531 0.131927 0.122674
O O13 0.025324 0.000000 0.500000
#
# Coordination Sequence:
#
# PCOD9316263 Si02
#       7
#     4   8   8   8   8   4   8
#     4  10  16  34  86 116 168 220 268 342 432 496
#     4  10  18  40  74 115 162 214 274 342 420 501
#     4  12  25  47  79 121 166 218 284 358 424 510
#     4  10  18  40  76 120 167 216 278 347 415 507
#     4  11  24  46  82 120 167 224 284 352 430 517
#     4   8  16  32  72 114 158 216 264 334 420 490
#     4  12  24  50  84 119 170 225 281 349 430 513
#
# _framework density 26.287451000000001
#
# number of rings (size 3 to 8) (size 9 to 14) (size 15 to 20)
#    0.000    1.333    5.833    1.000    0.000    1.333 
#    4.500    5.000    0.000    6.000    0.000    0.000 
#    0.000    0.000    0.000    0.000    0.000    0.000 
#
# Total GULP energy -134257.931969 kJ/mol
# GULP energy per Si atom -5594.080499 kJ/mol
# Density = 2.622762 g / cm^3
# Si number density = 26.287451 Si / 1000 Ang^3
#
#
#
# Elastic Constant Matrix: (Units=GPa)
#
#
# Indices 1 2 3 4 5 6 
#
# 1 77.8056 42.0130 58.6504 0.0000 0.0000 0.0000
# 2 42.0130 109.0185 32.1859 0.0000 0.0000 0.0000
# 3 58.6504 32.1859 153.4115 0.0000 0.0000 0.0000
# 4 0.0000 0.0000 0.0000 -29.4860 0.0000 0.0000
# 5 0.0000 0.0000 0.0000 0.0000 32.4135 0.0000
# 6 0.0000 0.0000 0.0000 0.0000 0.0000 30.4824
#
#
#
# Elastic Compliance Matrix: (Units=1/GPa)
#
#
# Indices 1 2 3 4 5 6 
#
# 1 0.021389 -0.006213 -0.006874 0.000000 0.000000 0.000000
# 2 -0.006213 0.011583 -0.000055 0.000000 0.000000 0.000000
# 3 -0.006874 -0.000055 0.009158 0.000000 0.000000 0.000000
# 4 0.000000 0.000000 0.000000 -0.033914 0.000000 0.000000
# 5 0.000000 0.000000 0.000000 0.000000 0.030851 0.000000
# 6 0.000000 0.000000 0.000000 0.000000 0.000000 0.032806
#
#
# Mechanical properties :
#
#
# Convention : Reuss Voigt Hill
#
# Bulk Modulus (GPa) = 63.10528 67.32603 65.21565
# Shear Modulus (GPa) = 48.33773 20.50773 34.42273
#
# Velocity S-wave (km/s) = 4.29279 2.79612 3.62259
# Velocity P-wave (km/s) = 6.97343 6.00761 6.50846
#
# Compressibility (1/GPa) = 0.01584653
#
# Stress axis : x y z
#
# Youngs Moduli (GPa) = 46.75292 86.33012 109.19728
#
# Poissons Ratio (x) = 0.53641 0.75058
# Poissons Ratio (y) = 0.29050 0.00598
# Poissons Ratio (z) = 0.32136 0.00473
#
# Static dielectric constant tensor:
#      x y z
#    x 2.231110 0.000000 0.000000 
#    y 0.000000 2.085730 0.000000 
#    z 0.000000 0.000000 2.151570 
# 
# From -- ./inp_files/19975.got.cif
#   From: 2010.05.17/outbox.cif.g08.bks.cpg/sg20_10_cif.got.tgz:19975.got - 2010.06.03 22:52:26.
