data_PCOD9316899
_publ_section_title
;
Structure prediction by ZEFSAII (Michael W. Deem and Ramdas Pophale) SiO2 
 PCOD9316899
Probable space group: C 2 2 21
;
_chemical_formula_sum "Si O2"
_cell_formula_units_Z 40
_cell_length_a 20.857482
_cell_length_b 18.503110
_cell_length_c 5.227001
_cell_angle_alpha 90.000000
_cell_angle_beta 90.000000
_cell_angle_gamma 90.000000
_cell_volume 2017.247525
_symmetry_space_group_name_H-M "C 2 2 21"
_symmetry_group_IT_number 20
_symmetry_cell_setting 'orthorhombic'
loop_
_space_group_symop_operation_xyz
x,y,z
-x,-y,1/2+z
x,-y,-z
-x,y,1/2-z
1/2+x,1/2+y,z
1/2-x,1/2-y,1/2+z
1/2+x,1/2-y,-z
1/2-x,1/2+y,1/2-z
loop_
_atom_site_type_symbol
_atom_site_label
_atom_site_fract_x
_atom_site_fract_y
_atom_site_fract_z
Si Si1 0.346775 0.064557 0.209038
Si Si2 0.301370 0.546859 0.243816
Si Si3 0.331115 0.779974 0.986500
Si Si4 0.528884 0.082850 0.001515
Si Si5 0.323764 0.299751 0.524840
O O1 0.273946 0.062448 0.310812
O O2 0.355710 0.140338 0.066780
O O3 0.396266 0.071942 0.443864
O O4 0.355821 0.000000 0.000000
O O5 0.302676 0.500000 0.500000
O O6 0.332580 0.622044 0.340167
O O7 0.325828 0.500000 0.000000
O O8 0.346788 0.722692 0.759122
O O9 0.253371 0.788205 0.988845
O O10 0.351352 0.754843 0.266007
O O11 0.500000 0.117166 0.750000
O O12 0.500000 0.119978 0.250000
O O13 0.501837 0.000000 0.000000
#
# Coordination Sequence:
#
# PCOD9316899 Si02
#       5
#     8   8   8   8   8
#     4  10  20  32  48  68  88 115 162 207 235 266
#     4  10  19  29  46  68  90 118 154 196 230 264
#     4   9  18  29  44  61  86 118 146 188 233 270
#     4  10  20  32  44  58  80 109 142 190 241 273
#     4   9  17  30  42  61  89 116 147 181 230 279
#
# _framework density 19.829001000000002
#
# number of rings (size 3 to 8) (size 9 to 14) (size 15 to 20)
#    0.000    2.400    0.000    3.600    0.000   14.400 
#    0.000    0.000    0.000    0.000    0.000    0.000 
#    0.000    0.000    0.000    0.000    0.000   56.000 
#
# Total GULP energy -111371.342580 kJ/mol
# GULP energy per Si atom -5568.567129 kJ/mol
# Density = 1.978387 g / cm^3
# Si number density = 19.829001 Si / 1000 Ang^3
#
#
#
# Elastic Constant Matrix: (Units=GPa)
#
#
# Indices 1 2 3 4 5 6 
#
# 1 16.7476 8.6403 8.9460 0.0000 0.0000 0.0000
# 2 8.6403 51.9087 -10.1545 0.0000 0.0000 0.0000
# 3 8.9460 -10.1545 103.8765 0.0000 0.0000 0.0000
# 4 0.0000 0.0000 0.0000 30.3310 0.0000 0.0000
# 5 0.0000 0.0000 0.0000 0.0000 5.3466 0.0000
# 6 0.0000 0.0000 0.0000 0.0000 0.0000 -4.0326
#
#
#
# Elastic Compliance Matrix: (Units=1/GPa)
#
#
# Indices 1 2 3 4 5 6 
#
# 1 0.070427 -0.013161 -0.007352 0.000000 0.000000 0.000000
# 2 -0.013161 0.022100 0.003294 0.000000 0.000000 0.000000
# 3 -0.007352 0.003294 0.010582 0.000000 0.000000 0.000000
# 4 0.000000 0.000000 0.000000 0.032970 0.000000 0.000000
# 5 0.000000 0.000000 0.000000 0.000000 0.187036 0.000000
# 6 0.000000 0.000000 0.000000 0.000000 0.000000 -0.247978
#
#
# Mechanical properties :
#
#
# Convention : Reuss Voigt Hill
#
# Bulk Modulus (GPa) = 14.56223 20.82181 17.69202
# Shear Modulus (GPa) = 37.74610 17.33571 27.54090
#
# Velocity S-wave (km/s) = 4.36774 2.96000 3.73087
# Velocity P-wave (km/s) = 5.72678 4.71228 5.24412
#
# Compressibility (1/GPa) = 0.06867082
#
# Stress axis : x y z
#
# Youngs Moduli (GPa) = 14.19907 45.24969 94.50054
#
# Poissons Ratio (x) = 0.59553 0.69475
# Poissons Ratio (y) = 0.18687 -0.31126
# Poissons Ratio (z) = 0.10439 -0.14904
#
# Static dielectric constant tensor:
#      x y z
#    x 1.714880 0.000000 0.000000 
#    y 0.000000 1.780750 0.000000 
#    z 0.000000 0.000000 1.847890 
# 
# From -- ./inp_files/3646.got.cif
#   From: 2010.05.17/outbox.cif.g08.bks.cpg/sg20_2_cif.got.tgz:3646.got - 2010.06.03 22:52:26.
