data_PCOD9316227
_publ_section_title
;
Structure prediction by ZEFSAII (Michael W. Deem and Ramdas Pophale) SiO2 
 PCOD9316227
Probable space group: C 2 2 21
;
_chemical_formula_sum "Si O2"
_cell_formula_units_Z 44
_cell_length_a 9.596513
_cell_length_b 12.359783
_cell_length_c 13.203807
_cell_angle_alpha 90.000000
_cell_angle_beta 90.000000
_cell_angle_gamma 90.000000
_cell_volume 1566.114352
_symmetry_space_group_name_H-M "C 2 2 21"
_symmetry_group_IT_number 20
_symmetry_cell_setting 'orthorhombic'
loop_
_space_group_symop_operation_xyz
x,y,z
-x,-y,1/2+z
x,-y,-z
-x,y,1/2-z
1/2+x,1/2+y,z
1/2-x,1/2-y,1/2+z
1/2+x,1/2-y,-z
1/2-x,1/2+y,1/2-z
loop_
_atom_site_type_symbol
_atom_site_label
_atom_site_fract_x
_atom_site_fract_y
_atom_site_fract_z
Si Si1 0.663669 0.898497 0.391949
Si Si2 0.207328 0.929099 0.302731
Si Si3 0.000000 0.770916 0.750000
Si Si4 0.240181 0.202119 0.507444
Si Si5 0.545943 0.094043 0.142581
Si Si6 0.982212 0.064213 0.409296
O O1 0.792996 0.914921 0.316610
O O2 0.581555 0.810051 0.322933
O O3 0.707592 0.827051 0.487649
O O4 0.571610 0.007625 0.394169
O O5 0.246572 0.829345 0.375313
O O6 0.328641 0.015510 0.324583
O O7 0.069181 0.977428 0.347070
O O8 0.919927 0.853278 0.673336
O O9 0.109165 0.133543 0.462938
O O10 0.381020 0.166709 0.445326
O O11 0.500000 0.148801 0.250000
O O12 0.906020 0.000000 0.500000
#
# Coordination Sequence:
#
# PCOD9316227 Si02
#       6
#     8   8   4   8   8   8
#     4  10  18  32  55  81 102 140 187 223 274 340
#     4   9  16  33  51  75 107 139 178 222 276 334
#     4  10  16  30  52  74  94 130 176 216 262 332
#     4   9  18  31  53  79 106 144 181 226 275 336
#     4   9  16  31  55  76 105 144 188 225 277 343
#     4   8  16  29  50  71  96 135 173 209 267 332
#
# _framework density 28.095011
#
# number of rings (size 3 to 8) (size 9 to 14) (size 15 to 20)
#    0.000    2.909    2.727    1.636    0.000    0.000 
#    0.000    7.273    2.000    0.000    0.000    0.000 
#    0.000    0.000    0.000    0.000    0.000    0.000 
#
# Total GULP energy -123092.071360 kJ/mol
# GULP energy per Si atom -5595.094153 kJ/mol
# Density = 2.803107 g / cm^3
# Si number density = 28.095011 Si / 1000 Ang^3
#
#
#
# Elastic Constant Matrix: (Units=GPa)
#
#
# Indices 1 2 3 4 5 6 
#
# 1 88.4739 68.7649 36.9323 0.0000 0.0000 0.0000
# 2 68.7649 134.5936 57.1338 0.0000 0.0000 0.0000
# 3 36.9323 57.1338 159.6880 0.0000 0.0000 0.0000
# 4 0.0000 0.0000 0.0000 43.3748 0.0000 0.0000
# 5 0.0000 0.0000 0.0000 0.0000 32.9265 0.0000
# 6 0.0000 0.0000 0.0000 0.0000 0.0000 50.8136
#
#
#
# Elastic Compliance Matrix: (Units=1/GPa)
#
#
# Indices 1 2 3 4 5 6 
#
# 1 0.018904 -0.009199 -0.001081 0.000000 0.000000 0.000000
# 2 -0.009199 0.013237 -0.002608 0.000000 0.000000 0.000000
# 3 -0.001081 -0.002608 0.007445 0.000000 0.000000 0.000000
# 4 0.000000 0.000000 0.000000 0.023055 0.000000 0.000000
# 5 0.000000 0.000000 0.000000 0.000000 0.030371 0.000000
# 6 0.000000 0.000000 0.000000 0.000000 0.000000 0.019680
#
#
# Mechanical properties :
#
#
# Convention : Reuss Voigt Hill
#
# Bulk Modulus (GPa) = 72.41413 78.71304 75.56358
# Shear Modulus (GPa) = 34.94745 40.08463 37.51604
#
# Velocity S-wave (km/s) = 3.53073 3.78134 3.65818
# Velocity P-wave (km/s) = 6.51552 6.86602 6.69307
#
# Compressibility (1/GPa) = 0.01380946
#
# Stress axis : x y z
#
# Youngs Moduli (GPa) = 52.89881 75.54526 134.31145
#
# Poissons Ratio (x) = 0.69498 0.14514
# Poissons Ratio (y) = 0.48664 0.35034
# Poissons Ratio (z) = 0.05717 0.19705
#
# Static dielectric constant tensor:
#      x y z
#    x 2.322250 0.000000 0.000000 
#    y 0.000000 2.204710 0.000000 
#    z 0.000000 0.000000 2.221680 
# 
# From -- ./inp_files/19864.got.cif
#   From: 2010.05.17/outbox.cif.g08.bks.cpg/sg20_10_cif.got.tgz:19864.got - 2010.06.03 22:52:26.
