data_PCOD9316262
_publ_section_title
;
Structure prediction by ZEFSAII (Michael W. Deem and Ramdas Pophale) SiO2 
 PCOD9316262
Probable space group: C 2 2 21
;
_chemical_formula_sum "Si O2"
_cell_formula_units_Z 40
_cell_length_a 11.951984
_cell_length_b 13.053598
_cell_length_c 11.295683
_cell_angle_alpha 90.000000
_cell_angle_beta 90.000000
_cell_angle_gamma 90.000000
_cell_volume 1762.311734
_symmetry_space_group_name_H-M "C 2 2 21"
_symmetry_group_IT_number 20
_symmetry_cell_setting 'orthorhombic'
loop_
_space_group_symop_operation_xyz
x,y,z
-x,-y,1/2+z
x,-y,-z
-x,y,1/2-z
1/2+x,1/2+y,z
1/2-x,1/2-y,1/2+z
1/2+x,1/2-y,-z
1/2-x,1/2+y,1/2-z
loop_
_atom_site_type_symbol
_atom_site_label
_atom_site_fract_x
_atom_site_fract_y
_atom_site_fract_z
Si Si1 0.896438 0.856989 0.825743
Si Si2 0.535372 0.500000 0.000000
Si Si3 0.654423 0.846540 0.919973
Si Si4 0.831196 0.936126 0.291727
Si Si5 0.612014 0.922262 0.174686
Si Si6 0.500000 0.715010 0.750000
O O1 0.781858 0.812732 0.884509
O O2 0.000000 0.805218 0.750000
O O3 0.848358 0.944885 0.738507
O O4 0.958171 0.923696 0.925692
O O5 0.616558 0.429706 0.079391
O O6 0.562479 0.782866 0.846934
O O7 0.637663 0.963912 0.876105
O O8 0.627677 0.849053 0.060377
O O9 0.707124 0.901975 0.271104
O O10 0.905453 0.864596 0.205933
O O11 0.500000 0.922779 0.250000
#
# Coordination Sequence:
#
# PCOD9316262 Si02
#       6
#     8   4   8   8   8   4
#     4   9  17  36  63  94 118 171 213 258 304 416
#     4  10  16  34  66  94 120 176 216 262 308 418
#     4  10  22  38  68  89 135 168 216 263 344 372
#     4  10  21  37  66  94 133 160 224 264 340 377
#     4  10  21  44  63  92 124 184 219 264 305 429
#     4  12  22  44  60 104 128 172 202 304 324 382
#
# _framework density 22.697461000000001
#
# number of rings (size 3 to 8) (size 9 to 14) (size 15 to 20)
#    0.000    2.000    4.000    2.400    0.000    1.600 
#    7.200    1.000    0.000    0.000    0.000    0.000 
#    0.000    0.000    0.000    0.000    0.000    0.000 
#
# Total GULP energy -111485.120738 kJ/mol
# GULP energy per Si atom -5574.256037 kJ/mol
# Density = 2.264580 g / cm^3
# Si number density = 22.697461 Si / 1000 Ang^3
#
#
#
# Elastic Constant Matrix: (Units=GPa)
#
#
# Indices 1 2 3 4 5 6 
#
# 1 220.8027 6.5625 70.2963 0.0000 0.0000 0.0000
# 2 6.5625 53.2425 14.7391 0.0000 0.0000 0.0000
# 3 70.2963 14.7391 92.9482 0.0000 0.0000 0.0000
# 4 0.0000 0.0000 0.0000 22.8000 0.0000 0.0000
# 5 0.0000 0.0000 0.0000 0.0000 28.2672 0.0000
# 6 0.0000 0.0000 0.0000 0.0000 0.0000 -14.7281
#
#
#
# Elastic Compliance Matrix: (Units=1/GPa)
#
#
# Indices 1 2 3 4 5 6 
#
# 1 0.005980 0.000539 -0.004608 0.000000 0.000000 0.000000
# 2 0.000539 0.019693 -0.003530 0.000000 0.000000 0.000000
# 3 -0.004608 -0.003530 0.014803 0.000000 0.000000 0.000000
# 4 0.000000 0.000000 0.000000 0.043860 0.000000 0.000000
# 5 0.000000 0.000000 0.000000 0.000000 0.035377 0.000000
# 6 0.000000 0.000000 0.000000 0.000000 0.000000 -0.067897
#
#
# Mechanical properties :
#
#
# Convention : Reuss Voigt Hill
#
# Bulk Modulus (GPa) = 39.56129 61.13213 50.34671
# Shear Modulus (GPa) = 66.27780 25.62752 45.95266
#
# Velocity S-wave (km/s) = 5.40961 3.36384 4.50441
# Velocity P-wave (km/s) = 7.51573 6.48685 7.02016
#
# Compressibility (1/GPa) = 0.02527724
#
# Stress axis : x y z
#
# Youngs Moduli (GPa) = 167.22512 50.77988 67.55168
#
# Poissons Ratio (x) = -0.02735 0.31128
# Poissons Ratio (y) = -0.09006 0.23846
# Poissons Ratio (z) = 0.77058 0.17926
#
# Static dielectric constant tensor:
#      x y z
#    x 1.884330 0.000000 0.000000 
#    y 0.000000 1.916040 0.000000 
#    z 0.000000 0.000000 1.908590 
# 
# From -- ./inp_files/13910.got.cif
#   From: 2010.05.17/outbox.cif.g08.bks.cpg/sg20_7_cif.got.tgz:13910.got - 2010.06.03 22:52:26.
