data_PCOD9316285
_publ_section_title
;
Structure prediction by ZEFSAII (Michael W. Deem and Ramdas Pophale) SiO2 
 PCOD9316285
Probable space group: C 2 2 21
;
_chemical_formula_sum "Si O2"
_cell_formula_units_Z 64
_cell_length_a 7.177260
_cell_length_b 22.301011
_cell_length_c 14.589106
_cell_angle_alpha 90.000000
_cell_angle_beta 90.000000
_cell_angle_gamma 90.000000
_cell_volume 2335.134556
_symmetry_space_group_name_H-M "C 2 2 21"
_symmetry_group_IT_number 20
_symmetry_cell_setting 'orthorhombic'
loop_
_space_group_symop_operation_xyz
x,y,z
-x,-y,1/2+z
x,-y,-z
-x,y,1/2-z
1/2+x,1/2+y,z
1/2-x,1/2-y,1/2+z
1/2+x,1/2-y,-z
1/2-x,1/2+y,1/2-z
loop_
_atom_site_type_symbol
_atom_site_label
_atom_site_fract_x
_atom_site_fract_y
_atom_site_fract_z
Si Si1 0.724458 0.261206 0.913803
Si Si2 0.204377 0.249820 0.369871
Si Si3 0.685442 0.636991 0.602320
Si Si4 0.837839 0.007728 0.895128
Si Si5 0.329176 0.892150 0.931752
Si Si6 0.576817 0.002108 0.340846
Si Si7 0.737903 0.619842 0.389356
Si Si8 0.868818 0.375492 0.140942
O O1 0.517899 0.252617 0.878945
O O2 0.857007 0.207339 0.878244
O O3 0.772605 0.329104 0.889834
O O4 0.721867 0.254901 0.025032
O O5 0.248730 0.182888 0.335397
O O6 0.228595 0.315072 0.323194
O O7 0.599769 0.574075 0.637882
O O8 0.654494 0.632542 0.491287
O O9 0.907682 0.634647 0.628080
O O10 0.609110 0.013970 0.897736
O O11 0.856616 0.940942 0.850908
O O12 0.899522 0.000000 0.000000
O O13 0.274899 0.956140 0.890694
O O14 0.549998 0.894833 0.914472
O O15 0.293560 0.887378 0.038878
O O16 0.500000 0.033730 0.250000
O O17 0.660212 0.938534 0.309939
#
# Coordination Sequence:
#
# PCOD9316285 Si02
#       8
#     8   8   8   8   8   8   8   8
#     4   9  15  23  39  62  89 113 135 171 207 249
#     4   9  15  24  41  65  89 114 141 172 211 251
#     4   7  11  20  36  58  76 101 136 165 194 232
#     4   8  13  24  42  60  79 104 138 176 206 247
#     4   9  16  27  43  62  86 113 138 172 215 258
#     4  10  17  25  41  63  83 104 141 186 218 247
#     4   8  13  22  39  61  84 107 137 172 206 245
#     4   8  14  25  41  59  82 110 138 170 208 249
#
# _framework density 27.407416000000001
#
# number of rings (size 3 to 8) (size 9 to 14) (size 15 to 20)
#    0.000    3.500    0.000    4.875    0.000    0.000 
#    0.000    0.000    0.000   25.500    0.000    0.000 
#    0.000    0.000    0.000    0.000    0.000    0.500 
#
# Total GULP energy -178369.006880 kJ/mol
# GULP energy per Si atom -5574.031465 kJ/mol
# Density = 2.734504 g / cm^3
# Si number density = 27.407416 Si / 1000 Ang^3
#
#
#
# Elastic Constant Matrix: (Units=GPa)
#
#
# Indices 1 2 3 4 5 6 
#
# 1 67.3520 -20.7503 -1.4174 0.0000 0.0000 0.0000
# 2 -20.7503 235.5062 12.2448 0.0000 0.0000 0.0000
# 3 -1.4174 12.2448 86.1613 0.0000 0.0000 0.0000
# 4 0.0000 0.0000 0.0000 -6.5795 0.0000 0.0000
# 5 0.0000 0.0000 0.0000 0.0000 12.2189 0.0000
# 6 0.0000 0.0000 0.0000 0.0000 0.0000 17.4031
#
#
#
# Elastic Compliance Matrix: (Units=1/GPa)
#
#
# Indices 1 2 3 4 5 6 
#
# 1 0.015262 0.001342 0.000060 0.000000 0.000000 0.000000
# 2 0.001342 0.004396 -0.000603 0.000000 0.000000 0.000000
# 3 0.000060 -0.000603 0.011693 0.000000 0.000000 0.000000
# 4 0.000000 0.000000 0.000000 -0.151988 0.000000 0.000000
# 5 0.000000 0.000000 0.000000 0.000000 0.081841 0.000000
# 6 0.000000 0.000000 0.000000 0.000000 0.000000 0.057461
#
#
# Mechanical properties :
#
#
# Convention : Reuss Voigt Hill
#
# Bulk Modulus (GPa) = 30.34976 41.01929 35.68453
# Shear Modulus (GPa) = 178.26481 31.20466 104.73474
#
# Velocity S-wave (km/s) = 8.07365 3.37790 6.18845
# Velocity P-wave (km/s) = 9.89996 5.49660 8.00693
#
# Compressibility (1/GPa) = 0.03294919
#
# Stress axis : x y z
#
# Youngs Moduli (GPa) = 65.52235 227.49444 85.52288
#
# Poissons Ratio (x) = -0.30520 -0.00517
# Poissons Ratio (y) = -0.08790 0.05154
# Poissons Ratio (z) = -0.00396 0.13709
#
# Static dielectric constant tensor:
#      x y z
#    x 2.145210 0.000000 0.000000 
#    y 0.000000 2.314520 0.000000 
#    z 0.000000 0.000000 1.869470 
# 
# From -- ./inp_files/26973.got.cif
#   From: 2010.05.17/outbox.cif.g08.bks.cpg/sg20_14_cif.got.tgz:26973.got - 2010.06.03 22:52:26.
