data_PCOD9316458
_publ_section_title
;
Structure prediction by ZEFSAII (Michael W. Deem and Ramdas Pophale) SiO2 
 PCOD9316458
Probable space group: C 2 2 21
;
_chemical_formula_sum "Si O2"
_cell_formula_units_Z 64
_cell_length_a 5.334264
_cell_length_b 15.631082
_cell_length_c 30.847756
_cell_angle_alpha 90.000000
_cell_angle_beta 90.000000
_cell_angle_gamma 90.000000
_cell_volume 2572.095705
_symmetry_space_group_name_H-M "C 2 2 21"
_symmetry_group_IT_number 20
_symmetry_cell_setting 'orthorhombic'
loop_
_space_group_symop_operation_xyz
x,y,z
-x,-y,1/2+z
x,-y,-z
-x,y,1/2-z
1/2+x,1/2+y,z
1/2-x,1/2-y,1/2+z
1/2+x,1/2-y,-z
1/2-x,1/2+y,1/2-z
loop_
_atom_site_type_symbol
_atom_site_label
_atom_site_fract_x
_atom_site_fract_y
_atom_site_fract_z
Si Si1 0.490726 0.260645 0.361949
Si Si2 0.006686 0.069056 0.201106
Si Si3 0.257332 0.746832 0.224567
Si Si4 0.488517 0.982467 0.303000
Si Si5 0.485355 0.922010 0.106285
Si Si6 0.472942 0.693675 0.492520
Si Si7 0.012502 0.923614 0.426337
Si Si8 0.494097 0.278705 0.601385
O O1 0.387259 0.290965 0.315430
O O2 0.514695 0.341786 0.393327
O O3 0.762539 0.217151 0.365178
O O4 0.268280 0.201651 0.380368
O O5 0.900725 0.163892 0.206609
O O6 0.000000 0.033334 0.250000
O O7 0.780843 0.016592 0.181314
O O8 0.288795 0.050407 0.187625
O O9 0.500000 0.788534 0.250000
O O10 0.000000 0.719996 0.250000
O O11 0.500000 0.968153 0.250000
O O12 0.524010 0.913263 0.341322
O O13 0.239690 0.968783 0.088577
O O14 0.487721 0.823269 0.089372
O O15 0.726116 0.966315 0.085097
O O16 0.731913 0.747614 0.496109
O O17 0.492364 0.614984 0.525703
O O18 0.440440 0.670807 0.442232
#
# Coordination Sequence:
#
# PCOD9316458 Si02
#       8
#     8   8   8   8   8   8   8   8
#     4  10  19  32  47  69 101 130 165 202 248 282
#     4   9  18  33  51  69  87 114 163 217 260 285
#     4  11  21  35  53  72  95 132 171 215 261 305
#     4  10  19  32  50  69  92 125 162 206 249 295
#     4  10  18  30  45  68 100 130 161 196 248 282
#     4  12  16  30  50  71  98 138 166 194 249 281
#     4  10  19  31  46  71 104 134 158 203 233 290
#     4  10  19  31  47  73 104 135 159 205 235 291
#
# _framework density 24.882432000000001
#
# number of rings (size 3 to 8) (size 9 to 14) (size 15 to 20)
#    0.000    1.750    5.000    3.375    0.000    0.000 
#    0.000    7.500    0.000    0.000    0.000    0.000 
#    0.000   24.000    0.000    0.000    0.000    0.000 
#
# Total GULP energy -178240.764773 kJ/mol
# GULP energy per Si atom -5570.023899 kJ/mol
# Density = 2.482580 g / cm^3
# Si number density = 24.882432 Si / 1000 Ang^3
#
#
#
# Elastic Constant Matrix: (Units=GPa)
#
#
# Indices 1 2 3 4 5 6 
#
# 1 208.8301 5.1112 24.7649 0.0000 0.0000 0.0000
# 2 5.1112 29.7262 5.6526 0.0000 0.0000 0.0000
# 3 24.7649 5.6526 30.4756 0.0000 0.0000 0.0000
# 4 0.0000 0.0000 0.0000 18.7685 0.0000 0.0000
# 5 0.0000 0.0000 0.0000 0.0000 35.6029 0.0000
# 6 0.0000 0.0000 0.0000 0.0000 0.0000 8.6828
#
#
#
# Elastic Compliance Matrix: (Units=1/GPa)
#
#
# Indices 1 2 3 4 5 6 
#
# 1 0.005300 -0.000096 -0.004289 0.000000 0.000000 0.000000
# 2 -0.000096 0.034872 -0.006390 0.000000 0.000000 0.000000
# 3 -0.004289 -0.006390 0.037483 0.000000 0.000000 0.000000
# 4 0.000000 0.000000 0.000000 0.053281 0.000000 0.000000
# 5 0.000000 0.000000 0.000000 0.000000 0.028088 0.000000
# 6 0.000000 0.000000 0.000000 0.000000 0.000000 0.115170
#
#
# Mechanical properties :
#
#
# Convention : Reuss Voigt Hill
#
# Bulk Modulus (GPa) = 17.82354 37.78770 27.80562
# Shear Modulus (GPa) = 15.90109 28.17773 22.03941
#
# Velocity S-wave (km/s) = 2.53068 3.36882 2.97937
# Velocity P-wave (km/s) = 3.96457 5.50921 4.79944
#
# Compressibility (1/GPa) = 0.05610557
#
# Stress axis : x y z
#
# Youngs Moduli (GPa) = 188.69642 28.67635 26.67846
#
# Poissons Ratio (x) = 0.00274 0.11442
# Poissons Ratio (y) = 0.01806 0.17048
# Poissons Ratio (z) = 0.80926 0.18325
#
# Static dielectric constant tensor:
#      x y z
#    x 2.143000 0.000000 0.000000 
#    y 0.000000 2.026050 0.000000 
#    z 0.000000 0.000000 1.980300 
# 
# From -- ./inp_files/30003.got.cif
#   From: 2010.05.17/outbox.cif.g08.bks.cpg/sg20_16_cif.got.tgz:30003.got - 2010.06.03 22:52:26.
