data_PCOD9316665
_publ_section_title
;
Structure prediction by ZEFSAII (Michael W. Deem and Ramdas Pophale) SiO2 
 PCOD9316665
Probable space group: C 2 2 21
;
_chemical_formula_sum "Si O2"
_cell_formula_units_Z 60
_cell_length_a 17.543723
_cell_length_b 8.857394
_cell_length_c 17.376951
_cell_angle_alpha 90.000000
_cell_angle_beta 90.000000
_cell_angle_gamma 90.000000
_cell_volume 2700.233380
_symmetry_space_group_name_H-M "C 2 2 21"
_symmetry_group_IT_number 20
_symmetry_cell_setting 'orthorhombic'
loop_
_space_group_symop_operation_xyz
x,y,z
-x,-y,1/2+z
x,-y,-z
-x,y,1/2-z
1/2+x,1/2+y,z
1/2-x,1/2-y,1/2+z
1/2+x,1/2-y,-z
1/2-x,1/2+y,1/2-z
loop_
_atom_site_type_symbol
_atom_site_label
_atom_site_fract_x
_atom_site_fract_y
_atom_site_fract_z
Si Si1 0.774642 0.166895 0.981343
Si Si2 0.440186 0.372448 0.941628
Si Si3 0.461438 0.067819 0.579048
Si Si4 0.796837 0.212430 0.801153
Si Si5 0.722159 0.000000 0.500000
Si Si6 0.878047 0.299494 0.281123
Si Si7 0.576553 0.497177 0.270051
Si Si8 0.890499 0.482155 0.854330
O O1 0.856628 0.171014 0.024649
O O2 0.789647 0.166739 0.890413
O O3 0.737363 0.333480 0.998023
O O4 0.741715 0.000000 0.000000
O O5 0.492653 0.224073 0.937598
O O6 0.427533 0.448305 0.858332
O O7 0.471248 0.500000 0.000000
O O8 0.399868 0.102643 0.644736
O O9 0.431211 0.000000 0.500000
O O10 0.526508 0.952850 0.610567
O O11 0.711535 0.231661 0.772942
O O12 0.850378 0.358139 0.801471
O O13 0.844741 0.087776 0.757043
O O14 0.668104 0.997182 0.424654
O O15 0.921707 0.142019 0.284975
O O16 0.902559 0.377903 0.202182
O O17 0.500000 0.406892 0.250000
#
# Coordination Sequence:
#
# PCOD9316665 Si02
#       8
#     8   8   8   8   4   8   8   8
#     4  10  18  34  63  93 123 171 231 279 333 415
#     4  11  20  39  68  98 122 173 239 279 324 408
#     4  12  23  42  71 100 134 179 234 290 337 409
#     4  11  25  40  63 100 138 176 222 287 345 424
#     4  10  18  34  64  96 124 166 242 288 320 404
#     4  12  25  43  66  99 146 179 218 287 368 411
#     4  12  22  42  70  97 129 179 232 278 336 413
#     4  11  21  42  67  99 129 182 233 279 336 418
#
# _framework density 22.220300999999999
#
# number of rings (size 3 to 8) (size 9 to 14) (size 15 to 20)
#    0.000    0.800    7.333    2.000    0.000    1.600 
#    0.000    0.000    5.867    0.000    0.000    0.000 
#    0.000    0.000    0.000    0.000    0.000    0.000 
#
# Total GULP energy -167506.484734 kJ/mol
# GULP energy per Si atom -5583.549491 kJ/mol
# Density = 2.216973 g / cm^3
# Si number density = 22.220301 Si / 1000 Ang^3
#
#
#
# Elastic Constant Matrix: (Units=GPa)
#
#
# Indices 1 2 3 4 5 6 
#
# 1 83.0703 13.0757 4.2059 0.0000 0.0000 0.0000
# 2 13.0757 99.0189 11.0958 0.0000 0.0000 0.0000
# 3 4.2059 11.0958 61.8342 0.0000 0.0000 0.0000
# 4 0.0000 0.0000 0.0000 28.6526 0.0000 0.0000
# 5 0.0000 0.0000 0.0000 0.0000 -0.2370 0.0000
# 6 0.0000 0.0000 0.0000 0.0000 0.0000 -22.0109
#
#
#
# Elastic Compliance Matrix: (Units=1/GPa)
#
#
# Indices 1 2 3 4 5 6 
#
# 1 0.012312 -0.001563 -0.000557 0.000000 0.000000 0.000000
# 2 -0.001563 0.010505 -0.001779 0.000000 0.000000 0.000000
# 3 -0.000557 -0.001779 0.016529 0.000000 0.000000 0.000000
# 4 0.000000 0.000000 0.000000 0.034901 0.000000 0.000000
# 5 0.000000 0.000000 0.000000 0.000000 -4.219182 0.000000
# 6 0.000000 0.000000 0.000000 0.000000 0.000000 -0.045432
#
#
# Mechanical properties :
#
#
# Convention : Reuss Voigt Hill
#
# Bulk Modulus (GPa) = 31.69737 33.40867 32.55302
# Shear Modulus (GPa) = -1.19845 15.65068 7.22611
#
# Velocity S-wave (km/s) = -0.73520 2.65682 1.80530
# Velocity P-wave (km/s) = 3.68447 4.94767 4.36204
#
# Compressibility (1/GPa) = 0.03154836
#
# Stress axis : x y z
#
# Youngs Moduli (GPa) = 81.21961 95.19409 60.49849
#
# Poissons Ratio (x) = 0.14883 0.03369
# Poissons Ratio (y) = 0.12698 0.10761
# Poissons Ratio (z) = 0.04523 0.16932
#
# Static dielectric constant tensor:
#      x y z
#    x 1.799820 0.000000 0.000000 
#    y 0.000000 1.936660 0.000000 
#    z 0.000000 0.000000 1.766660 
# 
# From -- ./inp_files/25266.got.cif
#   From: 2010.05.17/outbox.cif.g08.bks.cpg/sg20_13_cif.got.tgz:25266.got - 2010.06.03 22:52:26.
