data_PCOD9316479
_publ_section_title
;
Structure prediction by ZEFSAII (Michael W. Deem and Ramdas Pophale) SiO2 
 PCOD9316479
Probable space group: C 2 2 21
;
_chemical_formula_sum "Si O2"
_cell_formula_units_Z 64
_cell_length_a 12.876526
_cell_length_b 17.557716
_cell_length_c 15.890768
_cell_angle_alpha 90.000000
_cell_angle_beta 90.000000
_cell_angle_gamma 90.000000
_cell_volume 3592.622754
_symmetry_space_group_name_H-M "C 2 2 21"
_symmetry_group_IT_number 20
_symmetry_cell_setting 'orthorhombic'
loop_
_space_group_symop_operation_xyz
x,y,z
-x,-y,1/2+z
x,-y,-z
-x,y,1/2-z
1/2+x,1/2+y,z
1/2-x,1/2-y,1/2+z
1/2+x,1/2-y,-z
1/2-x,1/2+y,1/2-z
loop_
_atom_site_type_symbol
_atom_site_label
_atom_site_fract_x
_atom_site_fract_y
_atom_site_fract_z
Si Si1 0.034949 0.874794 0.979793
Si Si2 0.333053 0.688939 0.951560
Si Si3 0.394808 0.210467 0.583603
Si Si4 0.116711 0.775086 0.260347
Si Si5 0.316978 0.407859 0.367663
Si Si6 0.667869 0.288483 0.741021
Si Si7 0.907317 0.948657 0.696529
Si Si8 0.120385 0.684523 0.582111
O O1 0.077554 0.788335 0.966482
O O2 0.051569 0.918269 0.892870
O O3 0.104224 0.910045 0.053721
O O4 0.914080 0.867704 0.004255
O O5 0.210040 0.673098 0.951947
O O6 0.368062 0.696259 0.855265
O O7 0.347633 0.770485 0.997816
O O8 0.370521 0.238528 0.678889
O O9 0.499829 0.161653 0.579429
O O10 0.139528 0.843847 0.195967
O O11 0.207496 0.714711 0.242575
O O12 0.000000 0.746860 0.250000
O O13 0.320168 0.489021 0.322170
O O14 0.203962 0.380089 0.397436
O O15 0.628401 0.373727 0.753238
O O16 0.628657 0.247732 0.656741
O O17 0.000000 0.985762 0.750000
#
# Coordination Sequence:
#
# PCOD9316479 Si02
#       8
#     8   8   8   8   8   8   8   8
#     4  10  19  33  52  81 114 143 182 231 281 337
#     4  10  18  30  54  80 114 137 180 233 283 332
#     4   9  17  31  51  80 111 136 176 233 283 325
#     4  10  19  33  54  81 113 143 185 240 281 324
#     4  11  21  35  53  81 115 147 187 233 285 336
#     4   9  19  33  54  78 109 148 186 228 283 337
#     4  11  22  36  54  80 115 153 185 229 290 349
#     4  10  19  32  55  81 114 141 188 236 279 335
#
# _framework density 17.814283
#
# number of rings (size 3 to 8) (size 9 to 14) (size 15 to 20)
#    0.000    2.000    2.500    3.375    0.000    0.000 
#    0.000    0.000    0.000    4.500    0.000    1.750 
#    0.000    0.000    0.000    0.000    0.000    0.000 
#
# Total GULP energy -178523.213722 kJ/mol
# GULP energy per Si atom -5578.850429 kJ/mol
# Density = 1.777374 g / cm^3
# Si number density = 17.814283 Si / 1000 Ang^3
#
#
#
# Elastic Constant Matrix: (Units=GPa)
#
#
# Indices 1 2 3 4 5 6 
#
# 1 168.8071 25.9908 18.8792 0.0000 0.0000 0.0000
# 2 25.9908 39.7846 6.7537 0.0000 0.0000 0.0000
# 3 18.8792 6.7537 59.1043 0.0000 0.0000 0.0000
# 4 0.0000 0.0000 0.0000 7.7548 0.0000 0.0000
# 5 0.0000 0.0000 0.0000 0.0000 26.1832 0.0000
# 6 0.0000 0.0000 0.0000 0.0000 0.0000 19.4173
#
#
#
# Elastic Compliance Matrix: (Units=1/GPa)
#
#
# Indices 1 2 3 4 5 6 
#
# 1 0.006747 -0.004122 -0.001684 0.000000 0.000000 0.000000
# 2 -0.004122 0.028151 -0.001900 0.000000 0.000000 0.000000
# 3 -0.001684 -0.001900 0.017674 0.000000 0.000000 0.000000
# 4 0.000000 0.000000 0.000000 0.128952 0.000000 0.000000
# 5 0.000000 0.000000 0.000000 0.000000 0.038192 0.000000
# 6 0.000000 0.000000 0.000000 0.000000 0.000000 0.051500
#
#
# Mechanical properties :
#
#
# Convention : Reuss Voigt Hill
#
# Bulk Modulus (GPa) = 26.91079 41.21592 34.06336
# Shear Modulus (GPa) = 16.72157 25.07589 20.89873
#
# Velocity S-wave (km/s) = 3.06708 3.75591 3.42884
# Velocity P-wave (km/s) = 5.26134 6.48042 5.90244
#
# Compressibility (1/GPa) = 0.03715981
#
# Stress axis : x y z
#
# Youngs Moduli (GPa) = 148.21652 35.52317 56.57932
#
# Poissons Ratio (x) = 0.14642 0.09529
# Poissons Ratio (y) = 0.61091 0.10751
# Poissons Ratio (z) = 0.24961 0.06750
#
# Static dielectric constant tensor:
#      x y z
#    x 1.636560 0.000000 0.000000 
#    y 0.000000 1.581070 0.000000 
#    z 0.000000 0.000000 1.622970 
# 
# From -- ./inp_files/20279.got.cif
#   From: 2010.05.17/outbox.cif.g08.bks.cpg/sg20_11_cif.got.tgz:20279.got - 2010.06.03 22:52:26.
