data_PCOD9316379
_publ_section_title
;
Structure prediction by ZEFSAII (Michael W. Deem and Ramdas Pophale) SiO2 
 PCOD9316379
Probable space group: C 2 2 21
;
_chemical_formula_sum "Si O2"
_cell_formula_units_Z 44
_cell_length_a 8.137798
_cell_length_b 16.458840
_cell_length_c 18.009757
_cell_angle_alpha 90.000000
_cell_angle_beta 90.000000
_cell_angle_gamma 90.000000
_cell_volume 2412.203714
_symmetry_space_group_name_H-M "C 2 2 21"
_symmetry_group_IT_number 20
_symmetry_cell_setting 'orthorhombic'
loop_
_space_group_symop_operation_xyz
x,y,z
-x,-y,1/2+z
x,-y,-z
-x,y,1/2-z
1/2+x,1/2+y,z
1/2-x,1/2-y,1/2+z
1/2+x,1/2-y,-z
1/2-x,1/2+y,1/2-z
loop_
_atom_site_type_symbol
_atom_site_label
_atom_site_fract_x
_atom_site_fract_y
_atom_site_fract_z
Si Si1 0.530310 0.500000 0.000000
Si Si2 0.000000 0.731706 0.250000
Si Si3 0.240191 0.937542 0.126735
Si Si4 0.145418 0.276313 0.311864
Si Si5 0.025256 0.423316 0.666040
Si Si6 0.000000 0.997461 0.250000
Si Si7 0.334282 0.400061 0.877259
O O1 0.638652 0.559734 0.948912
O O2 0.425396 0.443234 0.944956
O O3 0.831187 0.772320 0.277063
O O4 0.935101 0.670019 0.185614
O O5 0.353462 0.859634 0.141219
O O6 0.113273 0.945930 0.195254
O O7 0.341454 0.021394 0.127965
O O8 0.132586 0.195237 0.362599
O O9 0.000000 0.276157 0.250000
O O10 0.000000 0.459077 0.750000
O O11 0.858700 0.418660 0.619996
O O12 0.892696 0.055241 0.197822
#
# Coordination Sequence:
#
# PCOD9316379 Si02
#       7
#     4   4   8   8   8   4   8
#     4  10  26  40  58  80 126 176 198 232 316 394
#     4   8  19  36  55  98 118 148 184 262 311 344
#     4  11  21  37  58  91 120 154 204 250 299 368
#     4  11  21  35  65  96 119 148 202 267 312 338
#     4   9  17  34  63  88 111 149 206 248 294 352
#     4  10  17  34  63  84 120 152 198 250 291 364
#     4  10  20  39  60  88 119 161 201 248 312 366
#
# _framework density 18.240583000000001
#
# number of rings (size 3 to 8) (size 9 to 14) (size 15 to 20)
#    0.545    1.455    2.727    1.091    2.545    0.727 
#    0.000    5.455    0.000    0.000    0.000    0.000 
#    0.000    0.000    0.000    0.000    0.000    0.000 
#
# Total GULP energy -122479.793465 kJ/mol
# GULP energy per Si atom -5567.263339 kJ/mol
# Density = 1.819907 g / cm^3
# Si number density = 18.240583 Si / 1000 Ang^3
#
#
#
# Elastic Constant Matrix: (Units=GPa)
#
#
# Indices 1 2 3 4 5 6 
#
# 1 64.8982 35.4724 26.6785 0.0000 0.0000 0.0000
# 2 35.4724 85.7693 25.4195 0.0000 0.0000 0.0000
# 3 26.6785 25.4195 81.9720 0.0000 0.0000 0.0000
# 4 0.0000 0.0000 0.0000 1.0446 0.0000 0.0000
# 5 0.0000 0.0000 0.0000 0.0000 17.7887 0.0000
# 6 0.0000 0.0000 0.0000 0.0000 0.0000 10.1028
#
#
#
# Elastic Compliance Matrix: (Units=1/GPa)
#
#
# Indices 1 2 3 4 5 6 
#
# 1 0.021406 -0.007475 -0.004649 0.000000 0.000000 0.000000
# 2 -0.007475 0.015450 -0.002358 0.000000 0.000000 0.000000
# 3 -0.004649 -0.002358 0.014443 0.000000 0.000000 0.000000
# 4 0.000000 0.000000 0.000000 0.957317 0.000000 0.000000
# 5 0.000000 0.000000 0.000000 0.000000 0.056215 0.000000
# 6 0.000000 0.000000 0.000000 0.000000 0.000000 0.098982
#
#
# Mechanical properties :
#
#
# Convention : Reuss Voigt Hill
#
# Bulk Modulus (GPa) = 44.77283 45.30892 45.04088
# Shear Modulus (GPa) = 4.16590 15.45850 9.81220
#
# Velocity S-wave (km/s) = 1.51288 2.91431 2.32185
# Velocity P-wave (km/s) = 5.25840 6.01812 5.65104
#
# Compressibility (1/GPa) = 0.02233497
#
# Stress axis : x y z
#
# Youngs Moduli (GPa) = 46.71692 64.72643 69.23566
#
# Poissons Ratio (x) = 0.48384 0.32184
# Poissons Ratio (y) = 0.34922 0.16326
# Poissons Ratio (z) = 0.21717 0.15263
#
# Static dielectric constant tensor:
#      x y z
#    x 1.661880 0.000000 0.000000 
#    y 0.000000 1.636400 0.000000 
#    z 0.000000 0.000000 1.707340 
# 
# From -- ./inp_files/23399.got.cif
#   From: 2010.05.17/outbox.cif.g08.bks.cpg/sg20_12_cif.got.tgz:23399.got - 2010.06.03 22:52:26.
