data_PCOD9316528
_publ_section_title
;
Structure prediction by ZEFSAII (Michael W. Deem and Ramdas Pophale) SiO2 
 PCOD9316528
Probable space group: C 2 2 21
;
_chemical_formula_sum "Si O2"
_cell_formula_units_Z 60
_cell_length_a 10.894521
_cell_length_b 30.842961
_cell_length_c 9.924087
_cell_angle_alpha 90.000000
_cell_angle_beta 90.000000
_cell_angle_gamma 90.000000
_cell_volume 3334.684631
_symmetry_space_group_name_H-M "C 2 2 21"
_symmetry_group_IT_number 20
_symmetry_cell_setting 'orthorhombic'
loop_
_space_group_symop_operation_xyz
x,y,z
-x,-y,1/2+z
x,-y,-z
-x,y,1/2-z
1/2+x,1/2+y,z
1/2-x,1/2-y,1/2+z
1/2+x,1/2-y,-z
1/2-x,1/2+y,1/2-z
loop_
_atom_site_type_symbol
_atom_site_label
_atom_site_fract_x
_atom_site_fract_y
_atom_site_fract_z
Si Si1 0.665510 0.977154 0.641600
Si Si2 0.136777 0.907825 0.769260
Si Si3 0.503360 0.095889 0.476025
Si Si4 0.758884 0.349120 0.551014
Si Si5 0.645445 0.678496 0.735039
Si Si6 0.245566 0.345991 0.522223
Si Si7 0.146466 0.717777 0.258402
Si Si8 0.000000 0.547247 0.750000
O O1 0.768985 0.947277 0.707438
O O2 0.550180 0.945365 0.609320
O O3 0.703672 0.000000 0.500000
O O4 0.616923 0.016297 0.731214
O O5 0.167354 0.877831 0.640741
O O6 0.000000 0.924241 0.750000
O O7 0.157386 0.875653 0.896448
O O8 0.384454 0.122987 0.436874
O O9 0.619907 0.127114 0.478889
O O10 0.480698 0.076784 0.622215
O O11 0.707360 0.340738 0.400984
O O12 0.788708 0.304141 0.628588
O O13 0.500000 0.668302 0.750000
O O14 0.711022 0.663032 0.871736
O O15 0.657900 0.730686 0.732536
O O16 0.211829 0.304189 0.612476
O O17 0.000000 0.707528 0.250000
#
# Coordination Sequence:
#
# PCOD9316528 Si02
#       8
#     8   8   8   8   8   8   8   4
#     4   9  19  34  55  82 115 148 179 234 294 341
#     4  10  21  37  59  81 109 156 198 224 274 356
#     4  10  19  33  58  84 107 142 187 235 288 336
#     4  11  21  36  60  83 111 145 200 239 284 349
#     4  11  23  36  53  81 118 154 188 239 294 340
#     4  10  20  37  59  79 115 147 191 242 288 339
#     4  10  20  37  57  81 112 148 192 241 294 347
#     4  10  18  32  52  84 116 132 176 232 298 336
#
# _framework density 17.992705999999998
#
# number of rings (size 3 to 8) (size 9 to 14) (size 15 to 20)
#    0.000    1.867    1.333    3.200    0.000    0.000 
#    0.000    1.333    5.867    5.600    0.000    0.000 
#    0.000    0.000    0.000    0.000    0.000    0.000 
#
# Total GULP energy -167345.084432 kJ/mol
# GULP energy per Si atom -5578.169481 kJ/mol
# Density = 1.795175 g / cm^3
# Si number density = 17.992706 Si / 1000 Ang^3
#
#
#
# Elastic Constant Matrix: (Units=GPa)
#
#
# Indices 1 2 3 4 5 6 
#
# 1 46.5414 -5.7748 14.9491 0.0000 0.0000 0.0000
# 2 -5.7748 42.4965 11.2894 0.0000 0.0000 0.0000
# 3 14.9491 11.2894 108.4139 0.0000 0.0000 0.0000
# 4 0.0000 0.0000 0.0000 -9.1004 0.0000 0.0000
# 5 0.0000 0.0000 0.0000 0.0000 17.4135 0.0000
# 6 0.0000 0.0000 0.0000 0.0000 0.0000 26.0967
#
#
#
# Elastic Compliance Matrix: (Units=1/GPa)
#
#
# Indices 1 2 3 4 5 6 
#
# 1 0.023159 0.004109 -0.003621 0.000000 0.000000 0.000000
# 2 0.004109 0.024930 -0.003163 0.000000 0.000000 0.000000
# 3 -0.003621 -0.003163 0.010053 0.000000 0.000000 0.000000
# 4 0.000000 0.000000 0.000000 -0.109886 0.000000 0.000000
# 5 0.000000 0.000000 0.000000 0.000000 0.057427 0.000000
# 6 0.000000 0.000000 0.000000 0.000000 0.000000 0.038319
#
#
# Mechanical properties :
#
#
# Convention : Reuss Voigt Hill
#
# Bulk Modulus (GPa) = 18.94224 26.48659 22.71442
# Shear Modulus (GPa) = 74.68396 18.68117 46.68256
#
# Velocity S-wave (km/s) = 6.44965 3.22571 5.09918
# Velocity P-wave (km/s) = 8.12494 5.35035 6.87899
#
# Compressibility (1/GPa) = 0.05279205
#
# Stress axis : x y z
#
# Youngs Moduli (GPa) = 43.17929 40.11249 99.47700
#
# Poissons Ratio (x) = -0.16483 0.36024
# Poissons Ratio (y) = -0.17743 0.31461
# Poissons Ratio (z) = 0.15636 0.12686
#
# Static dielectric constant tensor:
#      x y z
#    x 1.635460 0.000000 0.000000 
#    y 0.000000 1.601600 0.000000 
#    z 0.000000 0.000000 1.616520 
# 
# From -- ./inp_files/7625.got.cif
#   From: 2010.05.17/outbox.cif.g08.bks.cpg/sg20_4_cif.got.tgz:7625.got - 2010.06.03 22:52:26.
