data_PCOD9316476
_publ_section_title
;
Structure prediction by ZEFSAII (Michael W. Deem and Ramdas Pophale) SiO2 
 PCOD9316476
Probable space group: C 2 2 21
;
_chemical_formula_sum "Si O2"
_cell_formula_units_Z 40
_cell_length_a 21.426227
_cell_length_b 9.615546
_cell_length_c 9.028004
_cell_angle_alpha 90.000000
_cell_angle_beta 90.000000
_cell_angle_gamma 90.000000
_cell_volume 1859.993362
_symmetry_space_group_name_H-M "C 2 2 21"
_symmetry_group_IT_number 20
_symmetry_cell_setting 'orthorhombic'
loop_
_space_group_symop_operation_xyz
x,y,z
-x,-y,1/2+z
x,-y,-z
-x,y,1/2-z
1/2+x,1/2+y,z
1/2-x,1/2-y,1/2+z
1/2+x,1/2-y,-z
1/2-x,1/2+y,1/2-z
loop_
_atom_site_type_symbol
_atom_site_label
_atom_site_fract_x
_atom_site_fract_y
_atom_site_fract_z
Si Si1 0.196517 0.373859 0.392770
Si Si2 0.255128 0.850762 0.424469
Si Si3 0.497068 0.651705 0.576614
Si Si4 0.626013 0.653980 0.058584
Si Si5 0.066592 0.286293 0.325408
O O1 0.211483 0.500000 0.500000
O O2 0.200979 0.233480 0.490889
O O3 0.243954 0.367326 0.253578
O O4 0.125470 0.389709 0.332304
O O5 0.314489 0.750880 0.449104
O O6 0.261975 0.000000 0.500000
O O7 0.497881 0.500000 0.500000
O O8 0.500000 0.638719 0.750000
O O9 0.429544 0.715537 0.540025
O O10 0.548662 0.739282 0.490035
O O11 0.639024 0.500000 0.000000
O O12 0.595635 0.661899 0.223539
O O13 0.000000 0.327748 0.250000
#
# Coordination Sequence:
#
# PCOD9316476 Si02
#       5
#     8   8   8   8   8
#     4  11  24  44  67  93 130 173 218 270 325 387
#     4  11  24  41  64  94 128 169 215 264 320 383
#     4  10  18  30  53  84 118 159 208 261 318 380
#     4   9  18  36  60  85 121 165 209 262 316 377
#     4   9  20  39  59  88 125 164 210 263 322 385
#
# _framework density 21.505451000000001
#
# number of rings (size 3 to 8) (size 9 to 14) (size 15 to 20)
#    0.000    2.000    0.000    4.800    0.000    5.600 
#    0.000   10.000    0.000    0.000    0.000    1.400 
#    0.000    0.000    0.000    0.000    0.000    0.000 
#
# Total GULP energy -111561.541233 kJ/mol
# GULP energy per Si atom -5578.077062 kJ/mol
# Density = 2.145650 g / cm^3
# Si number density = 21.505451 Si / 1000 Ang^3
#
#
#
# Elastic Constant Matrix: (Units=GPa)
#
#
# Indices 1 2 3 4 5 6 
#
# 1 89.6201 12.4138 25.7641 0.0000 0.0000 0.0000
# 2 12.4138 80.9398 37.9525 0.0000 0.0000 0.0000
# 3 25.7641 37.9525 181.4721 0.0000 0.0000 0.0000
# 4 0.0000 0.0000 0.0000 35.6721 0.0000 0.0000
# 5 0.0000 0.0000 0.0000 0.0000 19.2562 0.0000
# 6 0.0000 0.0000 0.0000 0.0000 0.0000 17.6719
#
#
#
# Elastic Compliance Matrix: (Units=1/GPa)
#
#
# Indices 1 2 3 4 5 6 
#
# 1 0.011725 -0.001128 -0.001429 0.000000 0.000000 0.000000
# 2 -0.001128 0.013807 -0.002727 0.000000 0.000000 0.000000
# 3 -0.001429 -0.002727 0.006284 0.000000 0.000000 0.000000
# 4 0.000000 0.000000 0.000000 0.028033 0.000000 0.000000
# 5 0.000000 0.000000 0.000000 0.000000 0.051931 0.000000
# 6 0.000000 0.000000 0.000000 0.000000 0.000000 0.056587
#
#
# Mechanical properties :
#
#
# Convention : Reuss Voigt Hill
#
# Bulk Modulus (GPa) = 47.06559 56.03250 51.54905
# Shear Modulus (GPa) = 26.87912 32.91350 29.89631
#
# Velocity S-wave (km/s) = 3.53919 3.91637 3.73255
# Velocity P-wave (km/s) = 6.21563 6.82365 6.52673
#
# Compressibility (1/GPa) = 0.02124694
#
# Stress axis : x y z
#
# Youngs Moduli (GPa) = 85.28614 72.42834 159.14193
#
# Poissons Ratio (x) = 0.08173 0.22736
# Poissons Ratio (y) = 0.09624 0.43403
# Poissons Ratio (z) = 0.12185 0.19753
#
# Static dielectric constant tensor:
#      x y z
#    x 1.841490 0.000000 0.000000 
#    y 0.000000 1.763490 0.000000 
#    z 0.000000 0.000000 1.831650 
# 
# From -- ./inp_files/6061.got.cif
#   From: 2010.05.17/outbox.cif.g08.bks.cpg/sg20_4_cif.got.tgz:6061.got - 2010.06.03 22:52:26.
