data_PCOD9316812
_publ_section_title
;
Structure prediction by ZEFSAII (Michael W. Deem and Ramdas Pophale) SiO2 
 PCOD9316812
Probable space group: C 2 2 21
;
_chemical_formula_sum "Si O2"
_cell_formula_units_Z 32
_cell_length_a 11.602349
_cell_length_b 9.249990
_cell_length_c 14.050409
_cell_angle_alpha 90.000000
_cell_angle_beta 90.000000
_cell_angle_gamma 90.000000
_cell_volume 1507.912546
_symmetry_space_group_name_H-M "C 2 2 21"
_symmetry_group_IT_number 20
_symmetry_cell_setting 'orthorhombic'
loop_
_space_group_symop_operation_xyz
x,y,z
-x,-y,1/2+z
x,-y,-z
-x,y,1/2-z
1/2+x,1/2+y,z
1/2-x,1/2-y,1/2+z
1/2+x,1/2-y,-z
1/2-x,1/2+y,1/2-z
loop_
_atom_site_type_symbol
_atom_site_label
_atom_site_fract_x
_atom_site_fract_y
_atom_site_fract_z
Si Si1 0.036423 0.000000 0.000000
Si Si2 0.311677 0.652397 0.966427
Si Si3 0.616843 0.093335 0.593343
Si Si4 0.797236 0.124379 0.339238
Si Si5 0.000000 0.247162 0.250000
O O1 0.116529 0.071368 0.077994
O O2 0.947302 0.885676 0.045826
O O3 0.258747 0.725524 0.873900
O O4 0.258871 0.500000 0.000000
O O5 0.310078 0.774016 0.048730
O O6 0.513447 0.155979 0.655938
O O7 0.583693 0.000000 0.500000
O O8 0.696606 0.994010 0.661022
O O9 0.883630 0.152634 0.252850
#
# Coordination Sequence:
#
# PCOD9316812 Si02
#       5
#     4   8   8   8   4
#     4  10  18  38  66  90 120 172 204 266 338 384
#     4   9  19  37  65  96 118 167 219 256 331 390
#     4  10  22  42  66  95 133 175 219 273 330 389
#     4  11  22  41  63  92 131 164 218 275 321 396
#     4  12  24  40  66  98 132 176 222 276 330 384
#
# _framework density 21.221387
#
# number of rings (size 3 to 8) (size 9 to 14) (size 15 to 20)
#    0.750    1.000    6.250    0.000    0.000    5.000 
#    0.000    7.500    0.000    3.000    0.000    0.000 
#    0.000    0.000    0.000    0.000    0.000    0.000 
#
# Total GULP energy -89183.666759 kJ/mol
# GULP energy per Si atom -5573.979172 kJ/mol
# Density = 2.117309 g / cm^3
# Si number density = 21.221387 Si / 1000 Ang^3
#
#
#
# Elastic Constant Matrix: (Units=GPa)
#
#
# Indices 1 2 3 4 5 6 
#
# 1 53.0186 -3.7295 -8.0292 0.0000 0.0000 0.0000
# 2 -3.7295 98.7676 3.7919 0.0000 0.0000 0.0000
# 3 -8.0292 3.7919 44.2885 0.0000 0.0000 0.0000
# 4 0.0000 0.0000 0.0000 16.0339 0.0000 0.0000
# 5 0.0000 0.0000 0.0000 0.0000 38.2836 0.0000
# 6 0.0000 0.0000 0.0000 0.0000 0.0000 28.3109
#
#
#
# Elastic Compliance Matrix: (Units=1/GPa)
#
#
# Indices 1 2 3 4 5 6 
#
# 1 0.019429 0.000600 0.003471 0.000000 0.000000 0.000000
# 2 0.000600 0.010177 -0.000762 0.000000 0.000000 0.000000
# 3 0.003471 -0.000762 0.023274 0.000000 0.000000 0.000000
# 4 0.000000 0.000000 0.000000 0.062368 0.000000 0.000000
# 5 0.000000 0.000000 0.000000 0.000000 0.026121 0.000000
# 6 0.000000 0.000000 0.000000 0.000000 0.000000 0.035322
#
#
# Mechanical properties :
#
#
# Convention : Reuss Voigt Hill
#
# Bulk Modulus (GPa) = 16.80741 20.01566 18.41154
# Shear Modulus (GPa) = 26.32893 30.12846 28.22870
#
# Velocity S-wave (km/s) = 3.52615 3.77201 3.65115
# Velocity P-wave (km/s) = 4.95132 5.33132 5.14483
#
# Compressibility (1/GPa) = 0.05949755
#
# Stress axis : x y z
#
# Youngs Moduli (GPa) = 51.46897 98.26346 42.96681
#
# Poissons Ratio (x) = -0.05900 -0.14914
# Poissons Ratio (y) = -0.03090 0.03276
# Poissons Ratio (z) = -0.17865 0.07492
#
# Static dielectric constant tensor:
#      x y z
#    x 1.746520 0.000000 0.000000 
#    y 0.000000 1.824200 0.000000 
#    z 0.000000 0.000000 1.824340 
# 
# From -- ./inp_files/18238.got.cif
#   From: 2010.05.17/outbox.cif.g08.bks.cpg/sg20_10_cif.got.tgz:18238.got - 2010.06.03 22:52:26.
