data_PCOD9316666
_publ_section_title
;
Structure prediction by ZEFSAII (Michael W. Deem and Ramdas Pophale) SiO2 
 PCOD9316666
Probable space group: C 2 2 21
;
_chemical_formula_sum "Si O2"
_cell_formula_units_Z 56
_cell_length_a 20.390808
_cell_length_b 15.590302
_cell_length_c 6.915449
_cell_angle_alpha 90.000000
_cell_angle_beta 90.000000
_cell_angle_gamma 90.000000
_cell_volume 2198.413317
_symmetry_space_group_name_H-M "C 2 2 21"
_symmetry_group_IT_number 20
_symmetry_cell_setting 'orthorhombic'
loop_
_space_group_symop_operation_xyz
x,y,z
-x,-y,1/2+z
x,-y,-z
-x,y,1/2-z
1/2+x,1/2+y,z
1/2-x,1/2-y,1/2+z
1/2+x,1/2-y,-z
1/2-x,1/2+y,1/2-z
loop_
_atom_site_type_symbol
_atom_site_label
_atom_site_fract_x
_atom_site_fract_y
_atom_site_fract_z
Si Si1 0.256482 0.080642 0.736304
Si Si2 0.555259 0.236152 0.585996
Si Si3 0.516511 0.410847 0.520551
Si Si4 0.935336 0.572599 0.147493
Si Si5 0.129896 0.906697 0.094925
Si Si6 0.791168 0.609533 0.197078
Si Si7 0.683548 0.747922 0.169983
O O1 0.178786 0.097789 0.725458
O O2 0.293556 0.155232 0.618366
O O3 0.267721 0.979759 0.707242
O O4 0.278584 0.098179 0.962576
O O5 0.500000 0.238184 0.750000
O O6 0.551892 0.324047 0.470021
O O7 0.537790 0.154655 0.462149
O O8 0.627490 0.233651 0.672809
O O9 0.553842 0.500000 0.500000
O O10 0.500000 0.407768 0.750000
O O11 0.448209 0.413060 0.405198
O O12 0.868963 0.609052 0.243504
O O13 0.000000 0.534923 0.250000
O O14 0.911439 0.500000 0.000000
O O15 0.148216 0.820906 0.972566
O O16 0.148595 0.000000 0.000000
O O17 0.747627 0.694217 0.238611
#
# Coordination Sequence:
#
# PCOD9316666 Si02
#       7
#     8   8   8   8   8   8   8
#     4  10  18  34  64  88 124 163 219 268 329 394
#     4  11  22  41  63  97 132 172 225 282 334 408
#     4  10  21  37  60  88 125 166 209 259 320 388
#     4  12  25  45  69  97 135 183 227 285 343 402
#     4  10  18  35  62  89 115 166 216 255 326 402
#     4  10  20  40  62  94 128 170 220 278 339 396
#     4  11  19  35  68  90 123 174 217 269 343 397
#
# _framework density 25.472916000000001
#
# number of rings (size 3 to 8) (size 9 to 14) (size 15 to 20)
#    0.000    1.429    8.571    0.429    0.000    1.714 
#    0.000    2.857    0.000    0.000    0.000    0.000 
#    0.000    0.000    0.000    0.000    0.000    0.000 
#
# Total GULP energy -156397.216540 kJ/mol
# GULP energy per Si atom -5585.614876 kJ/mol
# Density = 2.541494 g / cm^3
# Si number density = 25.472916 Si / 1000 Ang^3
#
#
#
# Elastic Constant Matrix: (Units=GPa)
#
#
# Indices 1 2 3 4 5 6 
#
# 1 164.5359 14.3865 6.6495 0.0000 0.0000 0.0000
# 2 14.3865 172.6392 8.4379 0.0000 0.0000 0.0000
# 3 6.6495 8.4379 46.4724 0.0000 0.0000 0.0000
# 4 0.0000 0.0000 0.0000 25.0908 0.0000 0.0000
# 5 0.0000 0.0000 0.0000 0.0000 25.1438 0.0000
# 6 0.0000 0.0000 0.0000 0.0000 0.0000 60.1378
#
#
#
# Elastic Compliance Matrix: (Units=1/GPa)
#
#
# Indices 1 2 3 4 5 6 
#
# 1 0.006151 -0.000474 -0.000794 0.000000 0.000000 0.000000
# 2 -0.000474 0.005881 -0.001000 0.000000 0.000000 0.000000
# 3 -0.000794 -0.001000 0.021813 0.000000 0.000000 0.000000
# 4 0.000000 0.000000 0.000000 0.039855 0.000000 0.000000
# 5 0.000000 0.000000 0.000000 0.000000 0.039771 0.000000
# 6 0.000000 0.000000 0.000000 0.000000 0.000000 0.016628
#
#
# Mechanical properties :
#
#
# Convention : Reuss Voigt Hill
#
# Bulk Modulus (GPa) = 34.11853 49.17725 41.64789
# Shear Modulus (GPa) = 34.62461 45.68605 40.15533
#
# Velocity S-wave (km/s) = 3.69083 4.23959 3.97469
# Velocity P-wave (km/s) = 5.62015 6.58127 6.11961
#
# Compressibility (1/GPa) = 0.02930958
#
# Stress axis : x y z
#
# Youngs Moduli (GPa) = 162.56940 170.04534 45.84351
#
# Poissons Ratio (x) = 0.08056 0.03641
# Poissons Ratio (y) = 0.07702 0.04584
# Poissons Ratio (z) = 0.12910 0.17004
#
# Static dielectric constant tensor:
#      x y z
#    x 2.001810 0.000000 0.000000 
#    y 0.000000 1.965880 0.000000 
#    z 0.000000 0.000000 2.161430 
# 
# From -- ./inp_files/10193.got.cif
#   From: 2010.05.17/outbox.cif.g08.bks.cpg/sg20_6_cif.got.tgz:10193.got - 2010.06.03 22:52:26.
