data_PCOD9316998
_publ_section_title
;
Structure prediction by ZEFSAII (Michael W. Deem and Ramdas Pophale) SiO2 
 PCOD9316998
Probable space group: C 2 2 21
;
_chemical_formula_sum "Si O2"
_cell_formula_units_Z 64
_cell_length_a 22.929205
_cell_length_b 16.397161
_cell_length_c 9.036545
_cell_angle_alpha 90.000000
_cell_angle_beta 90.000000
_cell_angle_gamma 90.000000
_cell_volume 3397.504759
_symmetry_space_group_name_H-M "C 2 2 21"
_symmetry_group_IT_number 20
_symmetry_cell_setting 'orthorhombic'
loop_
_space_group_symop_operation_xyz
x,y,z
-x,-y,1/2+z
x,-y,-z
-x,y,1/2-z
1/2+x,1/2+y,z
1/2-x,1/2-y,1/2+z
1/2+x,1/2-y,-z
1/2-x,1/2+y,1/2-z
loop_
_atom_site_type_symbol
_atom_site_label
_atom_site_fract_x
_atom_site_fract_y
_atom_site_fract_z
Si Si1 0.158879 0.362301 0.905315
Si Si2 0.936155 0.385790 0.813044
Si Si3 0.271371 0.467721 0.835755
Si Si4 0.238176 0.237715 0.065460
Si Si5 0.720138 0.078589 0.597351
Si Si6 0.427056 0.047154 0.628554
Si Si7 0.324796 0.305823 0.854796
Si Si8 0.096330 0.662114 0.641874
O O1 0.113798 0.338378 0.777825
O O2 0.211026 0.415734 0.836584
O O3 0.185488 0.284957 0.986787
O O4 0.125457 0.419029 0.024677
O O5 0.922462 0.478786 0.757613
O O6 0.000000 0.366629 0.750000
O O7 0.929812 0.364812 0.984630
O O8 0.261407 0.542389 0.724975
O O9 0.322010 0.400736 0.812319
O O10 0.278443 0.500000 0.000000
O O11 0.220771 0.234093 0.236499
O O12 0.249043 0.147333 0.002275
O O13 0.295158 0.288688 0.014685
O O14 0.659584 0.116648 0.653356
O O15 0.704960 0.000000 0.500000
O O16 0.440305 0.128010 0.720900
O O17 0.464385 0.000000 0.500000
O O18 0.385006 0.256657 0.848812
#
# Coordination Sequence:
#
# PCOD9316998 Si02
#       8
#     8   8   8   8   8   8   8   8
#     4  10  20  36  52  68 107 147 181 224 270 323
#     4  11  24  37  52  78 104 140 197 240 275 314
#     4  11  21  32  50  77 114 143 183 223 266 326
#     4  10  21  33  50  74 106 139 186 219 266 328
#     4  11  19  30  49  77 107 142 177 218 260 320
#     4  10  19  33  51  73  98 137 182 225 271 308
#     4  10  22  34  50  77 103 147 187 221 269 333
#     4  11  21  34  54  73 107 150 191 223 277 327
#
# _framework density 18.837354000000001
#
# number of rings (size 3 to 8) (size 9 to 14) (size 15 to 20)
#    0.000    1.500    2.500    5.250   10.500    3.000 
#    0.000    0.000    0.000    0.000    0.000    0.000 
#    0.000    3.000    0.000    0.000    0.000    0.000 
#
# Total GULP energy -178432.585487 kJ/mol
# GULP energy per Si atom -5576.018296 kJ/mol
# Density = 1.879448 g / cm^3
# Si number density = 18.837354 Si / 1000 Ang^3
#
#
#
# Elastic Constant Matrix: (Units=GPa)
#
#
# Indices 1 2 3 4 5 6 
#
# 1 50.1317 31.9790 19.6720 0.0000 0.0000 0.0000
# 2 31.9790 71.5345 17.3771 0.0000 0.0000 0.0000
# 3 19.6720 17.3771 96.7507 0.0000 0.0000 0.0000
# 4 0.0000 0.0000 0.0000 30.8759 0.0000 0.0000
# 5 0.0000 0.0000 0.0000 0.0000 14.4856 0.0000
# 6 0.0000 0.0000 0.0000 0.0000 0.0000 7.4203
#
#
#
# Elastic Compliance Matrix: (Units=1/GPa)
#
#
# Indices 1 2 3 4 5 6 
#
# 1 0.029151 -0.012121 -0.003750 0.000000 0.000000 0.000000
# 2 -0.012121 0.019657 -0.001066 0.000000 0.000000 0.000000
# 3 -0.003750 -0.001066 0.011290 0.000000 0.000000 0.000000
# 4 0.000000 0.000000 0.000000 0.032388 0.000000 0.000000
# 5 0.000000 0.000000 0.000000 0.000000 0.069034 0.000000
# 6 0.000000 0.000000 0.000000 0.000000 0.000000 0.134766
#
#
# Mechanical properties :
#
#
# Convention : Reuss Voigt Hill
#
# Bulk Modulus (GPa) = 38.13363 39.60811 38.87087
# Shear Modulus (GPa) = 14.75362 20.51562 17.63462
#
# Velocity S-wave (km/s) = 2.80163 3.30372 3.06298
# Velocity P-wave (km/s) = 5.54554 5.96865 5.76098
#
# Compressibility (1/GPa) = 0.02622357
#
# Stress axis : x y z
#
# Youngs Moduli (GPa) = 34.30432 50.87326 88.57538
#
# Poissons Ratio (x) = 0.61662 0.33217
# Poissons Ratio (y) = 0.41579 0.09442
# Poissons Ratio (z) = 0.12865 0.05423
#
# Static dielectric constant tensor:
#      x y z
#    x 1.685480 0.000000 0.000000 
#    y 0.000000 1.717060 0.000000 
#    z 0.000000 0.000000 1.734870 
# 
# From -- ./inp_files/10865.got.cif
#   From: 2010.05.17/outbox.cif.g08.bks.cpg/sg20_6_cif.got.tgz:10865.got - 2010.06.03 22:52:26.
