data_PCOD9316406
_publ_section_title
;
Structure prediction by ZEFSAII (Michael W. Deem and Ramdas Pophale) SiO2 
 PCOD9316406
Probable space group: C 2 2 21
;
_chemical_formula_sum "Si O2"
_cell_formula_units_Z 64
_cell_length_a 7.439920
_cell_length_b 32.276928
_cell_length_c 10.950778
_cell_angle_alpha 90.000000
_cell_angle_beta 90.000000
_cell_angle_gamma 90.000000
_cell_volume 2629.695323
_symmetry_space_group_name_H-M "C 2 2 21"
_symmetry_group_IT_number 20
_symmetry_cell_setting 'orthorhombic'
loop_
_space_group_symop_operation_xyz
x,y,z
-x,-y,1/2+z
x,-y,-z
-x,y,1/2-z
1/2+x,1/2+y,z
1/2-x,1/2-y,1/2+z
1/2+x,1/2-y,-z
1/2-x,1/2+y,1/2-z
loop_
_atom_site_type_symbol
_atom_site_label
_atom_site_fract_x
_atom_site_fract_y
_atom_site_fract_z
Si Si1 0.705444 0.046543 0.523700
Si Si2 0.073485 0.603594 0.118684
Si Si3 0.222427 0.684984 0.730516
Si Si4 0.287048 0.410555 0.227679
Si Si5 0.459979 0.184884 0.019058
Si Si6 0.942884 0.165131 0.390012
Si Si7 0.951574 0.776968 0.078821
Si Si8 0.911967 0.078651 0.027850
O O1 0.577314 0.077262 0.450210
O O2 0.704267 0.061764 0.664792
O O3 0.913294 0.050180 0.477476
O O4 0.644722 0.000000 0.500000
O O5 0.093094 0.647218 0.047948
O O6 0.000000 0.614174 0.250000
O O7 0.261860 0.579119 0.132659
O O8 0.222525 0.636617 0.764636
O O9 0.070072 0.689761 0.627133
O O10 0.395840 0.696041 0.645161
O O11 0.271728 0.714149 0.845427
O O12 0.500000 0.409131 0.250000
O O13 0.283883 0.427350 0.090418
O O14 0.504150 0.229257 0.075643
O O15 0.268685 0.172214 0.083173
O O16 0.048910 0.204686 0.443373
O O17 0.001925 0.124550 0.466020
O O18 0.000000 0.158978 0.250000
#
# Coordination Sequence:
#
# PCOD9316406 Si02
#       8
#     8   8   8   8   8   8   8   8
#     4  11  25  50  76 109 148 183 233 305 362 437
#     4  12  27  47  71 107 149 194 237 295 368 446
#     4  10  18  39  63  84 134 181 229 299 350 412
#     4  10  17  43  74 102 132 184 239 291 360 421
#     4  11  23  40  64  92 138 188 240 300 365 411
#     4  11  22  41  63  93 139 188 238 292 360 431
#     4  10  21  34  60  96 130 184 241 294 352 419
#     4  11  24  45  78 106 135 197 240 285 370 431
#
# _framework density 24.337420000000002
#
# number of rings (size 3 to 8) (size 9 to 14) (size 15 to 20)
#    0.000    1.250    5.000    2.250    3.500    3.000 
#    9.000    0.000    0.000    0.000    0.000    0.000 
#    0.000    0.000    0.000    0.000    0.000    0.000 
#
# Total GULP energy -179019.518519 kJ/mol
# GULP energy per Si atom -5594.359954 kJ/mol
# Density = 2.428203 g / cm^3
# Si number density = 24.337420 Si / 1000 Ang^3
#
#
#
# Elastic Constant Matrix: (Units=GPa)
#
#
# Indices 1 2 3 4 5 6 
#
# 1 81.8379 4.2916 -3.5264 0.0000 0.0000 0.0000
# 2 4.2916 123.2266 26.7083 0.0000 0.0000 0.0000
# 3 -3.5264 26.7083 70.4880 0.0000 0.0000 0.0000
# 4 0.0000 0.0000 0.0000 12.6307 0.0000 0.0000
# 5 0.0000 0.0000 0.0000 0.0000 12.7288 0.0000
# 6 0.0000 0.0000 0.0000 0.0000 0.0000 -3.1102
#
#
#
# Elastic Compliance Matrix: (Units=1/GPa)
#
#
# Indices 1 2 3 4 5 6 
#
# 1 0.012288 -0.000611 0.000846 0.000000 0.000000 0.000000
# 2 -0.000611 0.008872 -0.003392 0.000000 0.000000 0.000000
# 3 0.000846 -0.003392 0.015514 0.000000 0.000000 0.000000
# 4 0.000000 0.000000 0.000000 0.079172 0.000000 0.000000
# 5 0.000000 0.000000 0.000000 0.000000 0.078562 0.000000
# 6 0.000000 0.000000 0.000000 0.000000 0.000000 -0.321528
#
#
# Mechanical properties :
#
#
# Convention : Reuss Voigt Hill
#
# Bulk Modulus (GPa) = 32.93841 36.72217 34.83029
# Shear Modulus (GPa) = -45.17302 20.98846 -12.09228
#
# Velocity S-wave (km/s) = -4.31294 2.93984 -2.23145
# Velocity P-wave (km/s) = 3.35238 5.16189 2.77548
#
# Compressibility (1/GPa) = 0.03035969
#
# Stress axis : x y z
#
# Youngs Moduli (GPa) = 81.38145 112.71879 64.45607
#
# Poissons Ratio (x) = 0.06892 -0.05456
# Poissons Ratio (y) = 0.04976 0.21864
# Poissons Ratio (z) = -0.06888 0.38235
#
# Static dielectric constant tensor:
#      x y z
#    x 2.098090 0.000000 0.000000 
#    y 0.000000 1.832310 0.000000 
#    z 0.000000 0.000000 2.093960 
# 
# From -- ./inp_files/13404.got.cif
#   From: 2010.05.17/outbox.cif.g08.bks.cpg/sg20_7_cif.got.tgz:13404.got - 2010.06.03 22:52:26.
