data_PCOD9316413
_publ_section_title
;
Structure prediction by ZEFSAII (Michael W. Deem and Ramdas Pophale) SiO2 
 PCOD9316413
Probable space group: C 2 2 21
;
_chemical_formula_sum "Si O2"
_cell_formula_units_Z 40
_cell_length_a 26.837914
_cell_length_b 10.173327
_cell_length_c 8.526459
_cell_angle_alpha 90.000000
_cell_angle_beta 90.000000
_cell_angle_gamma 90.000000
_cell_volume 2327.986562
_symmetry_space_group_name_H-M "C 2 2 21"
_symmetry_group_IT_number 20
_symmetry_cell_setting 'orthorhombic'
loop_
_space_group_symop_operation_xyz
x,y,z
-x,-y,1/2+z
x,-y,-z
-x,y,1/2-z
1/2+x,1/2+y,z
1/2-x,1/2-y,1/2+z
1/2+x,1/2-y,-z
1/2-x,1/2+y,1/2-z
loop_
_atom_site_type_symbol
_atom_site_label
_atom_site_fract_x
_atom_site_fract_y
_atom_site_fract_z
Si Si1 0.698729 0.636787 0.091328
Si Si2 0.229510 0.377330 0.881280
Si Si3 0.381543 0.080688 0.277256
Si Si4 0.556419 0.000000 0.500000
Si Si5 0.000000 0.679734 0.750000
Si Si6 0.903006 0.711840 0.589891
O O1 0.726264 0.624415 0.257064
O O2 0.642540 0.689474 0.111022
O O3 0.699458 0.500000 0.000000
O O4 0.726460 0.746350 0.985676
O O5 0.176977 0.388451 0.787821
O O6 0.232334 0.500000 0.000000
O O7 0.407578 0.173812 0.406522
O O8 0.407885 0.088204 0.109868
O O9 0.388245 0.928972 0.332279
O O10 0.522224 0.086595 0.613763
O O11 0.046023 0.755360 0.828262
#
# Coordination Sequence:
#
# PCOD9316413 Si02
#       6
#     8   8   8   4   4   8
#     4  11  23  35  58  83 115 155 193 232 288 341
#     4  11  21  39  58  83 118 153 187 242 287 345
#     4   9  17  32  52  78 115 138 177 241 285 335
#     4  10  18  26  54  88 106 142 188 238 292 342
#     4  10  18  30  52  76 110 148 186 238 282 336
#     4   9  18  35  51  75 112 143 188 232 281 323
#
# _framework density 17.182227999999999
#
# number of rings (size 3 to 8) (size 9 to 14) (size 15 to 20)
#    0.000    2.000    4.000    3.600    1.400    1.600 
#    0.000    0.000    0.000    6.000    0.000    0.000 
#    0.000    0.000    0.000    0.000    0.000    0.000 
#
# Total GULP energy -111550.260788 kJ/mol
# GULP energy per Si atom -5577.513039 kJ/mol
# Density = 1.714312 g / cm^3
# Si number density = 17.182228 Si / 1000 Ang^3
#
#
#
# Elastic Constant Matrix: (Units=GPa)
#
#
# Indices 1 2 3 4 5 6 
#
# 1 110.4563 47.2149 83.3723 0.0000 0.0000 0.0000
# 2 47.2149 82.6071 37.9066 0.0000 0.0000 0.0000
# 3 83.3723 37.9066 123.9243 0.0000 0.0000 0.0000
# 4 0.0000 0.0000 0.0000 14.3120 0.0000 0.0000
# 5 0.0000 0.0000 0.0000 0.0000 41.2760 0.0000
# 6 0.0000 0.0000 0.0000 0.0000 0.0000 -9.7624
#
#
#
# Elastic Compliance Matrix: (Units=1/GPa)
#
#
# Indices 1 2 3 4 5 6 
#
# 1 0.020952 -0.006406 -0.012136 0.000000 0.000000 0.000000
# 2 -0.006406 0.016041 -0.000597 0.000000 0.000000 0.000000
# 3 -0.012136 -0.000597 0.016417 0.000000 0.000000 0.000000
# 4 0.000000 0.000000 0.000000 0.069871 0.000000 0.000000
# 5 0.000000 0.000000 0.000000 0.000000 0.024227 0.000000
# 6 0.000000 0.000000 0.000000 0.000000 0.000000 -0.102434
#
#
# Mechanical properties :
#
#
# Convention : Reuss Voigt Hill
#
# Bulk Modulus (GPa) = 66.08843 72.66393 69.37618
# Shear Modulus (GPa) = 56.56238 19.06471 37.81355
#
# Velocity S-wave (km/s) = 5.74374 3.33462 4.69629
# Velocity P-wave (km/s) = 9.08483 7.56361 8.35890
#
# Compressibility (1/GPa) = 0.01513124
#
# Stress axis : x y z
#
# Youngs Moduli (GPa) = 47.72726 62.34046 60.91253
#
# Poissons Ratio (x) = 0.39938 0.73926
# Poissons Ratio (y) = 0.30576 0.03634
# Poissons Ratio (z) = 0.57924 0.03720
#
# Static dielectric constant tensor:
#      x y z
#    x 1.606480 0.000000 0.000000 
#    y 0.000000 1.552780 0.000000 
#    z 0.000000 0.000000 1.597670 
# 
# From -- ./inp_files/6166.got.cif
#   From: 2010.05.17/outbox.cif.g08.bks.cpg/sg20_4_cif.got.tgz:6166.got - 2010.06.03 22:52:26.
