data_PCOD9316672
_publ_section_title
;
Structure prediction by ZEFSAII (Michael W. Deem and Ramdas Pophale) SiO2 
 PCOD9316672
Probable space group: C 2 2 21
;
_chemical_formula_sum "Si O2"
_cell_formula_units_Z 28
_cell_length_a 16.754203
_cell_length_b 8.073469
_cell_length_c 8.494333
_cell_angle_alpha 90.000000
_cell_angle_beta 90.000000
_cell_angle_gamma 90.000000
_cell_volume 1148.982033
_symmetry_space_group_name_H-M "C 2 2 21"
_symmetry_group_IT_number 20
_symmetry_cell_setting 'orthorhombic'
loop_
_space_group_symop_operation_xyz
x,y,z
-x,-y,1/2+z
x,-y,-z
-x,y,1/2-z
1/2+x,1/2+y,z
1/2-x,1/2-y,1/2+z
1/2+x,1/2-y,-z
1/2-x,1/2+y,1/2-z
loop_
_atom_site_type_symbol
_atom_site_label
_atom_site_fract_x
_atom_site_fract_y
_atom_site_fract_z
Si Si1 0.844244 0.178962 0.947184
Si Si2 0.406488 0.864877 0.217817
Si Si3 0.690773 0.000000 0.000000
Si Si4 0.588735 0.509492 0.814739
O O1 0.752816 0.154697 0.997088
O O2 0.855916 0.151178 0.761620
O O3 0.885098 0.332713 0.032962
O O4 0.882506 0.000000 0.000000
O O5 0.500000 0.893615 0.250000
O O6 0.358823 0.981586 0.338667
O O7 0.386300 0.677107 0.271717
O O8 0.500000 0.542826 0.750000
O O9 0.587107 0.500000 0.000000
#
# Coordination Sequence:
#
# PCOD9316672 Si02
#       4
#     8   8   4   8
#     4   8  19  39  60  91 125 162 217 257 320 371
#     4  10  20  40  64  84 129 169 213 260 311 393
#     4  10  22  40  62  92 132 164 210 266 330 380
#     4  10  18  34  66  98 123 162 216 269 316 376
#
# _framework density 24.369395999999998
#
# number of rings (size 3 to 8) (size 9 to 14) (size 15 to 20)
#    0.857    1.714    0.000    4.286    0.000    2.286 
#    0.000    7.143    3.143    0.000    0.000    0.000 
#    0.000    0.000    0.000    0.000    0.000    0.000 
#
# Total GULP energy -77972.173459 kJ/mol
# GULP energy per Si atom -5569.440961 kJ/mol
# Density = 2.431393 g / cm^3
# Si number density = 24.369396 Si / 1000 Ang^3
#
#
#
# Elastic Constant Matrix: (Units=GPa)
#
#
# Indices 1 2 3 4 5 6 
#
# 1 141.3632 45.0862 73.2800 0.0000 0.0000 0.0000
# 2 45.0862 112.7612 47.2260 0.0000 0.0000 0.0000
# 3 73.2800 47.2260 169.7956 0.0000 0.0000 0.0000
# 4 0.0000 0.0000 0.0000 19.5476 0.0000 0.0000
# 5 0.0000 0.0000 0.0000 0.0000 39.1126 0.0000
# 6 0.0000 0.0000 0.0000 0.0000 0.0000 -6.0571
#
#
#
# Elastic Compliance Matrix: (Units=1/GPa)
#
#
# Indices 1 2 3 4 5 6 
#
# 1 0.009651 -0.002393 -0.003500 0.000000 0.000000 0.000000
# 2 -0.002393 0.010631 -0.001924 0.000000 0.000000 0.000000
# 3 -0.003500 -0.001924 0.007935 0.000000 0.000000 0.000000
# 4 0.000000 0.000000 0.000000 0.051157 0.000000 0.000000
# 5 0.000000 0.000000 0.000000 0.000000 0.025567 0.000000
# 6 0.000000 0.000000 0.000000 0.000000 0.000000 -0.165096
#
#
# Mechanical properties :
#
#
# Convention : Reuss Voigt Hill
#
# Bulk Modulus (GPa) = 79.46907 83.90050 81.68479
# Shear Modulus (GPa) = -123.99164 27.74247 -48.12459
#
# Velocity S-wave (km/s) = -7.14076 3.37770 -4.44869
# Velocity P-wave (km/s) = 5.94192 7.05090 2.68410
#
# Compressibility (1/GPa) = 0.01258351
#
# Stress axis : x y z
#
# Youngs Moduli (GPa) = 103.61121 94.06444 126.02481
#
# Poissons Ratio (x) = 0.22512 0.44105
# Poissons Ratio (y) = 0.24797 0.24247
# Poissons Ratio (z) = 0.36261 0.18098
#
# Static dielectric constant tensor:
#      x y z
#    x 1.907250 0.000000 0.000000 
#    y 0.000000 1.936110 0.000000 
#    z 0.000000 0.000000 2.407040 
# 
# From -- ./inp_files/9028.got.cif
#   From: 2010.05.17/outbox.cif.g08.bks.cpg/sg20_5_cif.got.tgz:9028.got - 2010.06.03 22:52:26.
