data_PCOD9316018
_publ_section_title
;
Structure prediction by ZEFSAII (Michael W. Deem and Ramdas Pophale) SiO2 
 PCOD9316018
Probable space group: P 21 21 21
;
_chemical_formula_sum "Si O2"
_cell_formula_units_Z 28
_cell_length_a 14.029122
_cell_length_b 7.015020
_cell_length_c 13.962986
_cell_angle_alpha 90.000000
_cell_angle_beta 90.000000
_cell_angle_gamma 90.000000
_cell_volume 1374.161283
_symmetry_space_group_name_H-M "P 21 21 21"
_symmetry_group_IT_number 19
_symmetry_cell_setting 'orthorhombic'
loop_
_space_group_symop_operation_xyz
x,y,z
1/2-x,-y,1/2+z
1/2+x,1/2-y,-z
-x,1/2+y,1/2-z
loop_
_atom_site_type_symbol
_atom_site_label
_atom_site_fract_x
_atom_site_fract_y
_atom_site_fract_z
Si Si1 0.198883 0.204018 0.460167
Si Si2 0.561226 0.291264 0.047613
Si Si3 0.702028 0.470605 0.198930
Si Si4 0.352854 0.142140 0.099522
Si Si5 0.618850 0.790971 0.753062
Si Si6 0.804570 0.969171 0.422310
Si Si7 0.481880 0.555826 0.892213
O O1 0.260588 0.348600 0.523936
O O2 0.100805 0.306987 0.430920
O O3 0.256375 0.140734 0.366165
O O4 0.175910 0.015339 0.520992
O O5 0.626144 0.355053 0.135987
O O6 0.458576 0.217521 0.080457
O O7 0.615161 0.129755 0.986940
O O8 0.545023 0.472353 0.978034
O O9 0.657102 0.548407 0.296313
O O10 0.790635 0.334557 0.224360
O O11 0.278658 0.315474 0.092029
O O12 0.546545 0.664037 0.815118
O O13 0.652772 0.962601 0.821574
O O14 0.568053 0.877428 0.660314
#
# Coordination Sequence:
#
# PCOD9316018 Si02
#       7
#     4   4   4   4   4   4   4
#     4  12  24  48  74 103 149 195 239 308 366 430
#     4  12  26  45  73 107 147 192 244 304 375 437
#     4  12  26  45  73 107 147 192 244 304 375 437
#     4  12  26  48  72 106 148 190 254 294 366 458
#     4  12  24  44  73 109 145 195 254 308 368 435
#     4  12  24  48  74 103 149 195 239 308 366 430
#     4  12  24  44  73 109 145 195 254 308 368 435
#
# _framework density 20.376064
#
# number of rings (size 3 to 8) (size 9 to 14) (size 15 to 20)
#    0.000    0.000    4.286    6.857    0.000    3.429 
#    0.000    0.000    0.000    0.000    0.000    0.000 
#    0.000    0.000    0.000    0.000    0.000    0.000 
#
# Total GULP energy -156953.938115 kJ/mol
# GULP energy per Si atom -5605.497790 kJ/mol
# Density = 2.032969 g / cm^3
# Si number density = 20.376064 Si / 1000 Ang^3
#
#
#
# Elastic Constant Matrix: (Units=GPa)
#
#
# Indices 1 2 3 4 5 6 
#
# 1 71.7164 3.5123 6.4688 0.0000 0.0000 0.0000
# 2 3.5123 44.0008 -10.2489 0.0000 0.0000 0.0000
# 3 6.4688 -10.2489 62.0084 0.0000 0.0000 0.0000
# 4 0.0000 0.0000 0.0000 43.7226 0.0000 0.0000
# 5 0.0000 0.0000 0.0000 0.0000 52.4520 0.0000
# 6 0.0000 0.0000 0.0000 0.0000 0.0000 53.0601
#
#
#
# Elastic Compliance Matrix: (Units=1/GPa)
#
#
# Indices 1 2 3 4 5 6 
#
# 1 0.014175 -0.001535 -0.001732 0.000000 0.000000 0.000000
# 2 -0.001535 0.023803 0.004094 0.000000 0.000000 0.000000
# 3 -0.001732 0.004094 0.016984 0.000000 0.000000 0.000000
# 4 0.000000 0.000000 0.000000 0.022871 0.000000 0.000000
# 5 0.000000 0.000000 0.000000 0.000000 0.019065 0.000000
# 6 0.000000 0.000000 0.000000 0.000000 0.000000 0.018847
#
#
# Mechanical properties :
#
#
# Convention : Reuss Voigt Hill
#
# Bulk Modulus (GPa) = 17.66278 19.68778 18.67528
# Shear Modulus (GPa) = 37.60411 41.71316 39.65863
#
# Velocity S-wave (km/s) = 4.30059 4.52947 4.41651
# Velocity P-wave (km/s) = 5.77472 6.08588 5.93234
#
# Compressibility (1/GPa) = 0.05661623
#
# Stress axis : x y z
#
# Youngs Moduli (GPa) = 70.54543 42.01143 58.87787
#
# Poissons Ratio (x) = 0.06449 0.10201
# Poissons Ratio (y) = 0.10829 -0.24107
# Poissons Ratio (z) = 0.12222 -0.17201
#
# Static dielectric constant tensor:
#      x y z
#    x 1.684170 0.000000 0.000000 
#    y 0.000000 1.695180 0.000000 
#    z 0.000000 0.000000 1.705410 
# 
# From -- ./inp_files/1470.got.cif
#   From: 2010.05.17/outbox.cif.g08.bks.cpg/sg19_1_cif.got.tgz:1470.got - 2010.06.03 22:46:19.
