data_PCOD9316230
_publ_section_title
;
Structure prediction by ZEFSAII (Michael W. Deem and Ramdas Pophale) SiO2 
 PCOD9316230
Probable space group: C 2 2 21
;
_chemical_formula_sum "Si O2"
_cell_formula_units_Z 40
_cell_length_a 12.049881
_cell_length_b 14.505079
_cell_length_c 11.809001
_cell_angle_alpha 90.000000
_cell_angle_beta 90.000000
_cell_angle_gamma 90.000000
_cell_volume 2064.030050
_symmetry_space_group_name_H-M "C 2 2 21"
_symmetry_group_IT_number 20
_symmetry_cell_setting 'orthorhombic'
loop_
_space_group_symop_operation_xyz
x,y,z
-x,-y,1/2+z
x,-y,-z
-x,y,1/2-z
1/2+x,1/2+y,z
1/2-x,1/2-y,1/2+z
1/2+x,1/2-y,-z
1/2-x,1/2+y,1/2-z
loop_
_atom_site_type_symbol
_atom_site_label
_atom_site_fract_x
_atom_site_fract_y
_atom_site_fract_z
Si Si1 0.119391 0.837370 0.818258
Si Si2 0.826466 0.000000 0.000000
Si Si3 0.884994 0.670652 0.817607
Si Si4 0.537804 0.306863 0.494944
Si Si5 0.000000 0.152258 0.750000
Si Si6 0.282456 0.525720 0.746122
O O1 0.173650 0.747987 0.761639
O O2 0.000000 0.850797 0.750000
O O3 0.081397 0.819223 0.945306
O O4 0.192286 0.926166 0.803344
O O5 0.899457 0.094213 0.011581
O O6 0.762414 0.986044 0.118399
O O7 0.905991 0.723598 0.935433
O O8 0.813963 0.579525 0.817161
O O9 0.000000 0.653628 0.750000
O O10 0.524108 0.290954 0.362783
O O11 0.105403 0.085524 0.767728
#
# Coordination Sequence:
#
# PCOD9316230 Si02
#       6
#     8   4   8   8   4   8
#     4   9  15  34  57  84 115 150 195 251 299 351
#     4  10  16  30  60  86 116 152 198 258 304 354
#     4   9  20  36  56  87 124 162 196 235 306 377
#     4   9  17  34  56  87 119 147 202 255 304 351
#     4  10  20  32  60  92 112 150 206 262 298 346
#     4  11  18  33  61  92 118 155 206 251 315 349
#
# _framework density 19.379562
#
# number of rings (size 3 to 8) (size 9 to 14) (size 15 to 20)
#    0.000    2.800    5.000    1.200    0.000    0.000 
#   14.400    0.000    2.200    2.400    0.000    0.000 
#    0.000    0.000    0.000    0.000    0.000    0.000 
#
# Total GULP energy -111474.029565 kJ/mol
# GULP energy per Si atom -5573.701478 kJ/mol
# Density = 1.933545 g / cm^3
# Si number density = 19.379562 Si / 1000 Ang^3
#
#
#
# Elastic Constant Matrix: (Units=GPa)
#
#
# Indices 1 2 3 4 5 6 
#
# 1 34.1554 25.3460 3.5836 0.0000 0.0000 0.0000
# 2 25.3460 70.3821 11.1188 0.0000 0.0000 0.0000
# 3 3.5836 11.1188 93.1703 0.0000 0.0000 0.0000
# 4 0.0000 0.0000 0.0000 19.6933 0.0000 0.0000
# 5 0.0000 0.0000 0.0000 0.0000 7.7841 0.0000
# 6 0.0000 0.0000 0.0000 0.0000 0.0000 27.6817
#
#
#
# Elastic Compliance Matrix: (Units=1/GPa)
#
#
# Indices 1 2 3 4 5 6 
#
# 1 0.039959 -0.014419 0.000184 0.000000 0.000000 0.000000
# 2 -0.014419 0.019684 -0.001794 0.000000 0.000000 0.000000
# 3 0.000184 -0.001794 0.010940 0.000000 0.000000 0.000000
# 4 0.000000 0.000000 0.000000 0.050779 0.000000 0.000000
# 5 0.000000 0.000000 0.000000 0.000000 0.128467 0.000000
# 6 0.000000 0.000000 0.000000 0.000000 0.000000 0.036125
#
#
# Mechanical properties :
#
#
# Convention : Reuss Voigt Hill
#
# Bulk Modulus (GPa) = 25.95803 30.86718 28.41261
# Shear Modulus (GPa) = 15.11241 21.54245 18.32743
#
# Velocity S-wave (km/s) = 2.79554 3.33769 3.07857
# Velocity P-wave (km/s) = 4.88300 5.55120 5.22779
#
# Compressibility (1/GPa) = 0.03852372
#
# Stress axis : x y z
#
# Youngs Moduli (GPa) = 25.02585 50.80215 91.40668
#
# Poissons Ratio (x) = 0.73251 -0.01680
# Poissons Ratio (y) = 0.36085 0.16403
# Poissons Ratio (z) = -0.00460 0.09116
#
# Static dielectric constant tensor:
#      x y z
#    x 1.694710 0.000000 0.000000 
#    y 0.000000 1.661810 0.000000 
#    z 0.000000 0.000000 1.727340 
# 
# From -- ./inp_files/13902.got.cif
#   From: 2010.05.17/outbox.cif.g08.bks.cpg/sg20_7_cif.got.tgz:13902.got - 2010.06.03 22:52:26.
