data_PCOD9316518
_publ_section_title
;
Structure prediction by ZEFSAII (Michael W. Deem and Ramdas Pophale) SiO2 
 PCOD9316518
Probable space group: C 2 2 21
;
_chemical_formula_sum "Si O2"
_cell_formula_units_Z 48
_cell_length_a 17.863123
_cell_length_b 24.338840
_cell_length_c 5.509716
_cell_angle_alpha 90.000000
_cell_angle_beta 90.000000
_cell_angle_gamma 90.000000
_cell_volume 2395.446512
_symmetry_space_group_name_H-M "C 2 2 21"
_symmetry_group_IT_number 20
_symmetry_cell_setting 'orthorhombic'
loop_
_space_group_symop_operation_xyz
x,y,z
-x,-y,1/2+z
x,-y,-z
-x,y,1/2-z
1/2+x,1/2+y,z
1/2-x,1/2-y,1/2+z
1/2+x,1/2-y,-z
1/2-x,1/2+y,1/2-z
loop_
_atom_site_type_symbol
_atom_site_label
_atom_site_fract_x
_atom_site_fract_y
_atom_site_fract_z
Si Si1 0.459977 0.577312 0.000000
Si Si2 0.835966 0.500000 0.500000
Si Si3 0.755201 0.617185 0.000011
Si Si4 0.703849 0.410964 0.499988
Si Si5 0.958103 0.789735 1.000000
Si Si6 0.841328 0.500000 0.000000
Si Si7 0.295301 0.764034 0.000034
O O1 0.500000 0.561067 0.250000
O O2 0.374434 0.558446 0.000006
O O3 0.456523 0.643880 1.000000
O O4 0.500000 0.561067 0.750000
O O5 0.777843 0.449041 0.499988
O O6 0.882374 0.500000 0.745176
O O7 0.707803 0.621231 0.753229
O O8 0.791707 0.556091 0.000010
O O9 0.808474 0.669853 0.999985
O O10 0.707812 0.621235 0.246808
O O11 0.874379 0.766470 0.999991
O O12 0.000000 0.772864 0.750000
O O13 0.000000 0.772864 0.250000
O O14 0.250006 0.750002 0.250049
#
# Coordination Sequence:
#
# PCOD9316518 Si02
#       7
#     8   4   8   8   8   4   8
#     4  10  19  30  44  61  85 125 169 200 235 294
#     4   8  16  28  46  65  90 123 156 200 256 300
#     4  10  19  32  52  74  99 127 160 208 260 303
#     4  10  18  32  48  68  95 125 161 207 255 298
#     4  10  21  36  51  70 103 143 174 204 258 326
#     4   8  16  30  48  71  94 125 162 196 250 314
#     4  12  23  35  55  85 112 137 176 227 269 306
#
# _framework density 20.038018000000001
#
# number of rings (size 3 to 8) (size 9 to 14) (size 15 to 20)
#    0.000    2.000    0.000    5.000    0.000    2.667 
#    0.000    0.833    0.000    0.000    0.000    1.167 
#    0.000    0.000    0.000    0.000    0.000    0.000 
#
# Total GULP energy -133698.367652 kJ/mol
# GULP energy per Si atom -5570.765319 kJ/mol
# Density = 1.999241 g / cm^3
# Si number density = 20.038018 Si / 1000 Ang^3
#
#
#
# Elastic Constant Matrix: (Units=GPa)
#
#
# Indices 1 2 3 4 5 6 
#
# 1 68.5819 33.6268 49.9081 0.0000 0.0000 0.0000
# 2 33.6268 113.6226 31.2494 0.0000 0.0000 0.0000
# 3 49.9081 31.2494 243.7066 0.0000 0.0000 0.0000
# 4 0.0000 0.0000 0.0000 3.5975 0.0000 0.0000
# 5 0.0000 0.0000 0.0000 0.0000 25.9440 0.0000
# 6 0.0000 0.0000 0.0000 0.0000 0.0000 -22.1893
#
#
#
# Elastic Compliance Matrix: (Units=1/GPa)
#
#
# Indices 1 2 3 4 5 6 
#
# 1 0.019380 -0.004814 -0.003352 0.000000 0.000000 0.000000
# 2 -0.004814 0.010319 -0.000337 0.000000 0.000000 0.000000
# 3 -0.003352 -0.000337 0.004833 0.000000 0.000000 0.000000
# 4 0.000000 0.000000 0.000000 0.277973 0.000000 0.000000
# 5 0.000000 0.000000 0.000000 0.000000 0.038545 0.000000
# 6 0.000000 0.000000 0.000000 0.000000 0.000000 -0.045067
#
#
# Mechanical properties :
#
#
# Convention : Reuss Voigt Hill
#
# Bulk Modulus (GPa) = 57.05705 72.83107 64.94406
# Shear Modulus (GPa) = 15.20540 22.21222 18.70881
#
# Velocity S-wave (km/s) = 2.75767 3.33303 3.05891
# Velocity P-wave (km/s) = 6.21899 7.15804 6.70497
#
# Compressibility (1/GPa) = 0.01752632
#
# Stress axis : x y z
#
# Youngs Moduli (GPa) = 51.59837 96.91325 206.91471
#
# Poissons Ratio (x) = 0.46653 0.69350
# Poissons Ratio (y) = 0.24839 0.06979
# Poissons Ratio (z) = 0.17294 0.03269
#
# Static dielectric constant tensor:
#      x y z
#    x 1.639760 0.000000 0.000000 
#    y 0.000000 1.752890 0.000000 
#    z 0.000000 0.000000 1.781980 
# 
# From -- ./inp_files/2102.got.cif
#   From: 2010.05.17/outbox.cif.g08.bks.cpg/sg20_2_cif.got.tgz:2102.got - 2010.06.03 22:52:26.
