data_PCOD9316196
_publ_section_title
;
Structure prediction by ZEFSAII (Michael W. Deem and Ramdas Pophale) SiO2 
 PCOD9316196
Probable space group: C 2 2 21
;
_chemical_formula_sum "Si O2"
_cell_formula_units_Z 48
_cell_length_a 24.371376
_cell_length_b 6.994928
_cell_length_c 9.904039
_cell_angle_alpha 90.000000
_cell_angle_beta 90.000000
_cell_angle_gamma 90.000000
_cell_volume 1688.401154
_symmetry_space_group_name_H-M "C 2 2 21"
_symmetry_group_IT_number 20
_symmetry_cell_setting 'orthorhombic'
loop_
_space_group_symop_operation_xyz
x,y,z
-x,-y,1/2+z
x,-y,-z
-x,y,1/2-z
1/2+x,1/2+y,z
1/2-x,1/2-y,1/2+z
1/2+x,1/2-y,-z
1/2-x,1/2+y,1/2-z
loop_
_atom_site_type_symbol
_atom_site_label
_atom_site_fract_x
_atom_site_fract_y
_atom_site_fract_z
Si Si1 0.650531 0.746796 0.223083
Si Si2 0.314107 0.833048 0.761225
Si Si3 0.939785 0.764052 0.262371
Si Si4 0.419987 0.232663 0.965316
Si Si5 0.263502 0.229484 0.510368
Si Si6 0.958292 0.276014 0.452359
O O1 0.628452 0.687887 0.370936
O O2 0.691550 0.669171 0.108271
O O3 0.592492 0.759742 0.147093
O O4 0.682837 0.940250 0.256485
O O5 0.377096 0.799301 0.719747
O O6 0.277155 0.733611 0.646468
O O7 0.292457 0.771813 0.908241
O O8 0.949949 0.849161 0.410370
O O9 0.000000 0.659353 0.250000
O O10 0.930878 0.832989 0.108957
O O11 0.480137 0.246999 0.898101
O O12 0.411192 0.000000 0.000000
O O13 0.269977 0.000000 0.500000
O O14 0.954771 0.500000 0.500000
#
# Coordination Sequence:
#
# PCOD9316196 Si02
#       6
#     8   8   8   8   8   8
#     4  11  19  33  51  76 110 147 183 227 275 331
#     4  11  21  37  55  76 109 152 189 228 284 335
#     4  10  19  30  49  81 117 148 185 220 276 344
#     4  10  18  23  45  79 113 151 170 209 275 349
#     4  10  24  40  55  79 111 148 194 241 275 323
#     4  10  15  28  44  72 117 152 167 210 277 338
#
# _framework density 28.429262999999999
#
# number of rings (size 3 to 8) (size 9 to 14) (size 15 to 20)
#    0.000    1.667    5.000    1.000    2.333    0.000 
#    0.000    0.000    0.000    0.000    0.000    4.667 
#    0.000    0.000    0.000    0.000    0.000    0.000 
#
# Total GULP energy -133628.205245 kJ/mol
# GULP energy per Si atom -5567.841885 kJ/mol
# Density = 2.836456 g / cm^3
# Si number density = 28.429263 Si / 1000 Ang^3
#
#
#
# Elastic Constant Matrix: (Units=GPa)
#
#
# Indices 1 2 3 4 5 6 
#
# 1 150.5060 39.7625 84.7829 0.0000 0.0000 0.0000
# 2 39.7625 96.6258 39.4476 0.0000 0.0000 0.0000
# 3 84.7829 39.4476 217.7893 0.0000 0.0000 0.0000
# 4 0.0000 0.0000 0.0000 11.4751 0.0000 0.0000
# 5 0.0000 0.0000 0.0000 0.0000 92.8606 0.0000
# 6 0.0000 0.0000 0.0000 0.0000 0.0000 11.8749
#
#
#
# Elastic Compliance Matrix: (Units=1/GPa)
#
#
# Indices 1 2 3 4 5 6 
#
# 1 0.009022 -0.002461 -0.003066 0.000000 0.000000 0.000000
# 2 -0.002461 0.011847 -0.001188 0.000000 0.000000 0.000000
# 3 -0.003066 -0.001188 0.006000 0.000000 0.000000 0.000000
# 4 0.000000 0.000000 0.000000 0.087145 0.000000 0.000000
# 5 0.000000 0.000000 0.000000 0.000000 0.010769 0.000000
# 6 0.000000 0.000000 0.000000 0.000000 0.000000 0.084211
#
#
# Mechanical properties :
#
#
# Convention : Reuss Voigt Hill
#
# Bulk Modulus (GPa) = 74.40969 88.10078 81.25524
# Shear Modulus (GPa) = 22.03581 43.30399 32.66990
#
# Velocity S-wave (km/s) = 2.78710 3.90708 3.39361
# Velocity P-wave (km/s) = 6.04878 7.17011 6.63318
#
# Compressibility (1/GPa) = 0.01343911
#
# Stress axis : x y z
#
# Youngs Moduli (GPa) = 110.84422 84.41142 166.65452
#
# Poissons Ratio (x) = 0.20771 0.51102
# Poissons Ratio (y) = 0.27275 0.19796
# Poissons Ratio (z) = 0.33989 0.10027
#
# Static dielectric constant tensor:
#      x y z
#    x 2.132080 0.000000 0.000000 
#    y 0.000000 2.468830 0.000000 
#    z 0.000000 0.000000 2.390510 
# 
# From -- ./inp_files/10660.got.cif
#   From: 2010.05.17/outbox.cif.g08.bks.cpg/sg20_6_cif.got.tgz:10660.got - 2010.06.03 22:52:26.
