data_PCOD9316124
_publ_section_title
;
Structure prediction by ZEFSAII (Michael W. Deem and Ramdas Pophale) SiO2 
 PCOD9316124
Probable space group: P 21 21 21
;
_chemical_formula_sum "Si O2"
_cell_formula_units_Z 32
_cell_length_a 6.000000
_cell_length_b 15.000000
_cell_length_c 18.000000
_cell_angle_alpha 90.000000
_cell_angle_beta 90.000000
_cell_angle_gamma 90.000000
_cell_volume 1620.000000
_symmetry_space_group_name_H-M "P 21 21 21"
_symmetry_group_IT_number 19
_symmetry_cell_setting 'orthorhombic'
loop_
_space_group_symop_operation_xyz
x,y,z
1/2-x,-y,1/2+z
1/2+x,1/2-y,-z
-x,1/2+y,1/2-z
loop_
_atom_site_type_symbol
_atom_site_label
_atom_site_fract_x
_atom_site_fract_y
_atom_site_fract_z
Si Si1 0.548934 0.387938 0.287737
Si Si2 0.340688 0.042232 0.845960
Si Si3 0.707052 0.189120 0.823786
Si Si4 0.911961 0.687315 0.561580
Si Si5 0.264423 0.537733 0.912470
Si Si6 0.479404 0.885245 0.954887
Si Si7 0.568689 0.834788 0.601800
Si Si8 0.351765 0.186394 0.583508
O O1 0.675760 0.448536 0.225650
O O2 0.382665 0.321496 0.243269
O O3 0.410245 0.447653 0.345655
O O4 0.713253 0.331156 0.340748
O O5 0.552504 0.101278 0.820623
O O6 0.229852 0.103496 0.909778
O O7 0.398106 0.947686 0.885584
O O8 0.851158 0.180468 0.898664
O O9 0.564266 0.280898 0.832876
O O10 0.932920 0.682879 0.473863
O O11 0.794496 0.777546 0.590186
O O12 0.378812 0.440792 0.898635
O O13 0.436245 0.620717 0.909655
O O14 0.138911 0.553070 0.992010
O O15 0.591815 0.791449 0.928101
O O16 0.286536 0.850410 0.011787
#
# Coordination Sequence:
#
# PCOD9316124 Si02
#       8
#     4   4   4   4   4   4   4   4
#     4  10  24  46  65  93 144 178 219 278 338 408
#     4  10  22  42  67  96 132 180 220 274 337 408
#     4  10  21  41  63  94 135 174 217 264 338 405
#     4  10  20  35  61  99 133 165 211 269 329 395
#     4  11  24  42  69  98 137 170 228 287 333 397
#     4  11  23  42  73 103 128 175 238 283 341 388
#     4  11  21  36  66  98 131 172 214 273 335 398
#     4  11  23  46  70 101 132 178 229 294 333 389
#
# _framework density 19.753086
#
# number of rings (size 3 to 8) (size 9 to 14) (size 15 to 20)
#    0.000    1.500    2.500    2.250    1.750    3.000 
#    0.000   16.250    0.000    0.000    0.000    0.000 
#    0.000    0.000    0.000    0.000    0.000    0.000 
#
# Total GULP energy -178587.139716 kJ/mol
# GULP energy per Si atom -5580.848116 kJ/mol
# Density = 1.970813 g / cm^3
# Si number density = 19.753086 Si / 1000 Ang^3
#
#
#
# Elastic Constant Matrix: (Units=GPa)
#
#
# Indices 1 2 3 4 5 6 
#
# 1 86.6902 42.4609 46.9887 0.0000 0.0000 0.0000
# 2 42.4609 154.5115 43.3288 0.0000 0.0000 0.0000
# 3 46.9887 43.3288 117.3730 0.0000 0.0000 0.0000
# 4 0.0000 0.0000 0.0000 23.0665 0.0000 0.0000
# 5 0.0000 0.0000 0.0000 0.0000 39.4538 0.0000
# 6 0.0000 0.0000 0.0000 0.0000 0.0000 28.5227
#
#
#
# Elastic Compliance Matrix: (Units=1/GPa)
#
#
# Indices 1 2 3 4 5 6 
#
# 1 0.015791 -0.002863 -0.005265 0.000000 0.000000 0.000000
# 2 -0.002863 0.007738 -0.001710 0.000000 0.000000 0.000000
# 3 -0.005265 -0.001710 0.011259 0.000000 0.000000 0.000000
# 4 0.000000 0.000000 0.000000 0.043353 0.000000 0.000000
# 5 0.000000 0.000000 0.000000 0.000000 0.025346 0.000000
# 6 0.000000 0.000000 0.000000 0.000000 0.000000 0.035060
#
#
# Mechanical properties :
#
#
# Convention : Reuss Voigt Hill
#
# Bulk Modulus (GPa) = 66.17346 69.34793 67.76069
# Shear Modulus (GPa) = 30.62558 33.26169 31.94364
#
# Velocity S-wave (km/s) = 3.94181 4.10795 4.02574
# Velocity P-wave (km/s) = 7.36819 7.59500 7.48245
#
# Compressibility (1/GPa) = 0.01511180
#
# Stress axis : x y z
#
# Youngs Moduli (GPa) = 63.32527 129.22412 88.81769
#
# Poissons Ratio (x) = 0.36999 0.46762
# Poissons Ratio (y) = 0.18131 0.15192
# Poissons Ratio (z) = 0.33340 0.22103
#
# Static dielectric constant tensor:
#      x y z
#    x 1.770670 0.000000 0.000000 
#    y 0.000000 1.662300 0.000000 
#    z 0.000000 0.000000 1.694020 
# 
# From -- ./inp_files/5767.got.cif
#   From: 2010.05.17/outbox.ucp.g08.bks.cvg/sg19_3_cif.got.tgz:5767.got - 2010.06.11 13:13:52.
