data_PCOD9316480
_publ_section_title
;
Structure prediction by ZEFSAII (Michael W. Deem and Ramdas Pophale) SiO2 
 PCOD9316480
Probable space group: C 2 2 21
;
_chemical_formula_sum "Si O2"
_cell_formula_units_Z 60
_cell_length_a 26.348980
_cell_length_b 9.747841
_cell_length_c 13.180106
_cell_angle_alpha 90.000000
_cell_angle_beta 90.000000
_cell_angle_gamma 90.000000
_cell_volume 3385.253124
_symmetry_space_group_name_H-M "C 2 2 21"
_symmetry_group_IT_number 20
_symmetry_cell_setting 'orthorhombic'
loop_
_space_group_symop_operation_xyz
x,y,z
-x,-y,1/2+z
x,-y,-z
-x,y,1/2-z
1/2+x,1/2+y,z
1/2-x,1/2-y,1/2+z
1/2+x,1/2-y,-z
1/2-x,1/2+y,1/2-z
loop_
_atom_site_type_symbol
_atom_site_label
_atom_site_fract_x
_atom_site_fract_y
_atom_site_fract_z
Si Si1 0.660824 0.186358 0.199726
Si Si2 0.094342 0.584254 0.601727
Si Si3 0.272286 0.627216 0.561560
Si Si4 0.444022 0.181858 0.208941
Si Si5 0.421517 0.653321 0.992381
Si Si6 0.307553 0.099914 0.764446
Si Si7 0.729647 0.706389 0.623016
Si Si8 0.678837 0.500000 0.500000
O O1 0.685929 0.277886 0.113682
O O2 0.600486 0.196201 0.208239
O O3 0.684757 0.234431 0.307802
O O4 0.678664 0.029760 0.194879
O O5 0.111824 0.500000 0.500000
O O6 0.062076 0.471068 0.662254
O O7 0.064973 0.720917 0.566407
O O8 0.141654 0.627411 0.671885
O O9 0.294374 0.500000 0.500000
O O10 0.235594 0.572189 0.650769
O O11 0.239581 0.714842 0.481329
O O12 0.500000 0.203643 0.250000
O O13 0.431058 0.288506 0.119308
O O14 0.361575 0.623398 0.014622
O O15 0.444620 0.500000 0.000000
O O16 0.280553 0.209185 0.691078
O O17 0.713484 0.551242 0.592116
#
# Coordination Sequence:
#
# PCOD9316480 Si02
#       8
#     8   8   8   8   8   8   8   4
#     4  10  20  36  54  81 109 146 196 233 283 353
#     4   9  18  34  60  81 111 145 199 241 288 348
#     4  11  21  34  53  78 119 156 186 228 291 351
#     4  10  20  38  61  82 110 151 200 251 294 339
#     4   9  18  34  58  86 109 141 188 247 299 342
#     4  10  20  31  54  79 110 151 187 235 276 342
#     4  11  20  33  49  83 114 153 187 226 284 350
#     4  10  18  30  54  80 116 146 186 236 278 346
#
# _framework density 17.723932000000001
#
# number of rings (size 3 to 8) (size 9 to 14) (size 15 to 20)
#    0.400    1.600    2.667    2.000    1.867    1.067 
#    2.400    1.333   17.600    0.000    0.000    0.000 
#    0.000    0.000    0.000    0.000    0.000    0.000 
#
# Total GULP energy -167032.533539 kJ/mol
# GULP energy per Si atom -5567.751118 kJ/mol
# Density = 1.768359 g / cm^3
# Si number density = 17.723932 Si / 1000 Ang^3
#
#
#
# Elastic Constant Matrix: (Units=GPa)
#
#
# Indices 1 2 3 4 5 6 
#
# 1 79.8932 23.3949 18.4223 0.0000 0.0000 0.0000
# 2 23.3949 75.3277 18.8259 0.0000 0.0000 0.0000
# 3 18.4223 18.8259 39.5719 0.0000 0.0000 0.0000
# 4 0.0000 0.0000 0.0000 31.9770 0.0000 0.0000
# 5 0.0000 0.0000 0.0000 0.0000 12.3372 0.0000
# 6 0.0000 0.0000 0.0000 0.0000 0.0000 15.4617
#
#
#
# Elastic Compliance Matrix: (Units=1/GPa)
#
#
# Indices 1 2 3 4 5 6 
#
# 1 0.014686 -0.003237 -0.005297 0.000000 0.000000 0.000000
# 2 -0.003237 0.015780 -0.006000 0.000000 0.000000 0.000000
# 3 -0.005297 -0.006000 0.030591 0.000000 0.000000 0.000000
# 4 0.000000 0.000000 0.000000 0.031272 0.000000 0.000000
# 5 0.000000 0.000000 0.000000 0.000000 0.081056 0.000000
# 6 0.000000 0.000000 0.000000 0.000000 0.000000 0.064676
#
#
# Mechanical properties :
#
#
# Convention : Reuss Voigt Hill
#
# Bulk Modulus (GPa) = 31.26119 35.11989 33.19054
# Shear Modulus (GPa) = 17.99900 20.89848 19.44874
#
# Velocity S-wave (km/s) = 3.19018 3.43754 3.31617
# Velocity P-wave (km/s) = 5.58979 5.96771 5.78184
#
# Compressibility (1/GPa) = 0.03198854
#
# Stress axis : x y z
#
# Youngs Moduli (GPa) = 68.09169 63.36999 32.68947
#
# Poissons Ratio (x) = 0.20515 0.17315
# Poissons Ratio (y) = 0.22044 0.19614
# Poissons Ratio (z) = 0.36067 0.38023
#
# Static dielectric constant tensor:
#      x y z
#    x 1.578350 0.000000 0.000000 
#    y 0.000000 1.659730 0.000000 
#    z 0.000000 0.000000 1.611740 
# 
# From -- ./inp_files/22216.got.cif
#   From: 2010.05.17/outbox.cif.g08.bks.cpg/sg20_12_cif.got.tgz:22216.got - 2010.06.03 22:52:26.
