data_PCOD9316061
_publ_section_title
;
Structure prediction by ZEFSAII (Michael W. Deem and Ramdas Pophale) SiO2 
 PCOD9316061
Probable space group: P 21 21 21
;
_chemical_formula_sum "Si O2"
_cell_formula_units_Z 32
_cell_length_a 11.783252
_cell_length_b 21.132196
_cell_length_c 5.096763
_cell_angle_alpha 90.000000
_cell_angle_beta 90.000000
_cell_angle_gamma 90.000000
_cell_volume 1269.124521
_symmetry_space_group_name_H-M "P 21 21 21"
_symmetry_group_IT_number 19
_symmetry_cell_setting 'orthorhombic'
loop_
_space_group_symop_operation_xyz
x,y,z
1/2-x,-y,1/2+z
1/2+x,1/2-y,-z
-x,1/2+y,1/2-z
loop_
_atom_site_type_symbol
_atom_site_label
_atom_site_fract_x
_atom_site_fract_y
_atom_site_fract_z
Si Si1 0.877753 0.933979 0.137916
Si Si2 0.613198 0.719213 0.909107
Si Si3 0.637589 0.583645 0.898880
Si Si4 0.846562 0.072908 0.934918
Si Si5 0.308797 0.941631 0.713153
Si Si6 0.255088 0.668143 0.222700
Si Si7 0.064447 0.116151 0.711241
Si Si8 0.035858 0.259827 0.898226
O O1 0.786145 0.934963 0.368920
O O2 0.005548 0.912640 0.173158
O O3 0.820323 0.885337 0.937548
O O4 0.885293 0.005968 0.043050
O O5 0.676643 0.654533 0.827232
O O6 0.701292 0.776094 0.949230
O O7 0.527646 0.738536 0.675726
O O8 0.544409 0.708467 0.176930
O O9 0.678209 0.517621 0.772690
O O10 0.679110 0.574718 0.202452
O O11 0.934700 0.090595 0.709055
O O12 0.845615 0.132447 0.127373
O O13 0.367431 0.917250 0.449419
O O14 0.377984 0.906539 0.944500
O O15 0.346079 0.702156 0.411353
O O16 0.058949 0.190085 0.781505
#
# Coordination Sequence:
#
# PCOD9316061 Si02
#       8
#     4   4   4   4   4   4   4   4
#     4  12  26  48  78 113 155 202 260 333 406 472
#     4  12  28  49  79 113 158 208 264 331 394 498
#     4  12  28  53  79 119 164 215 278 333 410 487
#     4  12  26  45  79 115 149 204 256 334 403 473
#     4  12  29  51  82 114 161 216 273 335 400 482
#     4  12  27  49  74 111 153 203 259 321 410 474
#     4  12  27  52  82 117 162 208 273 335 407 483
#     4  12  27  49  79 114 158 210 263 322 410 485
#
# _framework density 25.214233
#
# number of rings (size 3 to 8) (size 9 to 14) (size 15 to 20)
#    0.000    0.000    5.000    3.750    3.500    5.000 
#    2.250    0.000    0.000    0.000    0.000    0.000 
#    0.000    0.000    0.000    0.000    0.000    0.000 
#
# Total GULP energy -179244.845005 kJ/mol
# GULP energy per Si atom -5601.401406 kJ/mol
# Density = 2.515684 g / cm^3
# Si number density = 25.214233 Si / 1000 Ang^3
#
#
#
# Elastic Constant Matrix: (Units=GPa)
#
#
# Indices 1 2 3 4 5 6 
#
# 1 84.9466 21.9409 13.0310 0.0000 0.0000 0.0000
# 2 21.9409 162.2917 -5.4541 0.0000 0.0000 0.0000
# 3 13.0310 -5.4541 70.6547 0.0000 0.0000 0.0000
# 4 0.0000 0.0000 0.0000 31.5025 0.0000 0.0000
# 5 0.0000 0.0000 0.0000 0.0000 44.5818 0.0000
# 6 0.0000 0.0000 0.0000 0.0000 0.0000 41.1733
#
#
#
# Elastic Compliance Matrix: (Units=1/GPa)
#
#
# Indices 1 2 3 4 5 6 
#
# 1 0.012612 -0.001788 -0.002464 0.000000 0.000000 0.000000
# 2 -0.001788 0.006431 0.000826 0.000000 0.000000 0.000000
# 3 -0.002464 0.000826 0.014672 0.000000 0.000000 0.000000
# 4 0.000000 0.000000 0.000000 0.031744 0.000000 0.000000
# 5 0.000000 0.000000 0.000000 0.000000 0.022431 0.000000
# 6 0.000000 0.000000 0.000000 0.000000 0.000000 0.024288
#
#
# Mechanical properties :
#
#
# Convention : Reuss Voigt Hill
#
# Bulk Modulus (GPa) = 37.22563 41.88098 39.55330
# Shear Modulus (GPa) = 39.06790 42.67653 40.87221
#
# Velocity S-wave (km/s) = 3.94056 4.11853 4.03053
# Velocity P-wave (km/s) = 5.95817 6.26598 6.11401
#
# Compressibility (1/GPa) = 0.02686321
#
# Stress axis : x y z
#
# Youngs Moduli (GPa) = 79.29035 155.49156 68.15901
#
# Poissons Ratio (x) = 0.27800 0.16795
# Poissons Ratio (y) = 0.14176 -0.05631
# Poissons Ratio (z) = 0.19538 -0.12847
#
# Static dielectric constant tensor:
#      x y z
#    x 2.032350 0.000000 0.000000 
#    y 0.000000 1.979350 0.000000 
#    z 0.000000 0.000000 2.028700 
# 
# From -- ./inp_files/1216.got.cif
#   From: 2010.05.17/outbox.cif.g08.bks.cpg/sg19_1_cif.got.tgz:1216.got - 2010.06.03 22:46:19.
