data_PCOD9316179
_publ_section_title
;
Structure prediction by ZEFSAII (Michael W. Deem and Ramdas Pophale) SiO2 
 PCOD9316179
Probable space group: P 21 21 21
;
_chemical_formula_sum "Si O2"
_cell_formula_units_Z 28
_cell_length_a 6.000000
_cell_length_b 9.000000
_cell_length_c 24.000000
_cell_angle_alpha 90.000000
_cell_angle_beta 90.000000
_cell_angle_gamma 90.000000
_cell_volume 1296.000000
_symmetry_space_group_name_H-M "P 21 21 21"
_symmetry_group_IT_number 19
_symmetry_cell_setting 'orthorhombic'
loop_
_space_group_symop_operation_xyz
x,y,z
1/2-x,-y,1/2+z
1/2+x,1/2-y,-z
-x,1/2+y,1/2-z
loop_
_atom_site_type_symbol
_atom_site_label
_atom_site_fract_x
_atom_site_fract_y
_atom_site_fract_z
Si Si1 0.258040 0.684886 0.738029
Si Si2 0.500786 0.555068 0.627787
Si Si3 0.814972 0.108016 0.972959
Si Si4 0.930047 0.493666 0.808739
Si Si5 0.004547 0.320848 0.484347
Si Si6 0.460644 0.201971 0.647176
Si Si7 0.642726 0.203415 0.094138
O O1 0.367501 0.623370 0.680940
O O2 0.407451 0.673600 0.794400
O O3 0.052435 0.583469 0.759101
O O4 0.191828 0.853689 0.721182
O O5 0.392659 0.561146 0.565516
O O6 0.493763 0.379910 0.641247
O O7 0.721291 0.658546 0.621474
O O8 0.917160 0.237179 0.934588
O O9 0.766028 0.149362 0.037322
O O10 0.986939 0.972413 0.979838
O O11 0.770143 0.613891 0.839544
O O12 0.085889 0.417061 0.857393
O O13 0.253541 0.248699 0.501723
O O14 0.018615 0.346573 0.417041
#
# Coordination Sequence:
#
# PCOD9316179 Si02
#       7
#     4   4   4   4   4   4   4
#     4  12  29  48  78 112 156 213 273 343 412 505
#     4  12  27  50  77 114 155 216 269 342 410 505
#     4  12  26  46  78 111 160 202 272 334 421 497
#     4  12  30  49  79 116 159 212 277 343 422 502
#     4  12  29  49  80 119 163 212 271 343 427 506
#     4  12  29  49  80 110 166 209 278 335 429 497
#     4  12  28  47  78 116 159 212 270 342 423 506
#
# _framework density 21.604938000000001
#
# number of rings (size 3 to 8) (size 9 to 14) (size 15 to 20)
#    0.000    0.000    4.286    3.429   16.000    2.286 
#    0.000    0.000    0.000    0.000    0.000    0.000 
#    0.000    0.000    0.000    0.000    0.000    0.000 
#
# Total GULP energy -156133.119759 kJ/mol
# GULP energy per Si atom -5576.182849 kJ/mol
# Density = 2.155576 g / cm^3
# Si number density = 21.604938 Si / 1000 Ang^3
#
#
#
# Elastic Constant Matrix: (Units=GPa)
#
#
# Indices 1 2 3 4 5 6 
#
# 1 69.2144 22.9757 34.7382 0.0000 0.0000 0.0000
# 2 22.9757 87.2512 23.1110 0.0000 0.0000 0.0000
# 3 34.7382 23.1110 159.2958 0.0000 0.0000 0.0000
# 4 0.0000 0.0000 0.0000 54.7174 0.0000 0.0000
# 5 0.0000 0.0000 0.0000 0.0000 58.8478 0.0000
# 6 0.0000 0.0000 0.0000 0.0000 0.0000 42.4686
#
#
#
# Elastic Compliance Matrix: (Units=1/GPa)
#
#
# Indices 1 2 3 4 5 6 
#
# 1 0.017300 -0.003698 -0.003236 0.000000 0.000000 0.000000
# 2 -0.003698 0.012710 -0.001037 0.000000 0.000000 0.000000
# 3 -0.003236 -0.001037 0.007134 0.000000 0.000000 0.000000
# 4 0.000000 0.000000 0.000000 0.018276 0.000000 0.000000
# 5 0.000000 0.000000 0.000000 0.000000 0.016993 0.000000
# 6 0.000000 0.000000 0.000000 0.000000 0.000000 0.023547
#
#
# Mechanical properties :
#
#
# Convention : Reuss Voigt Hill
#
# Bulk Modulus (GPa) = 47.17054 53.04569 50.10812
# Shear Modulus (GPa) = 42.02773 46.86920 44.44846
#
# Velocity S-wave (km/s) = 4.41532 4.66271 4.54070
# Velocity P-wave (km/s) = 6.91911 7.32077 7.12277
#
# Compressibility (1/GPa) = 0.02119967
#
# Stress axis : x y z
#
# Youngs Moduli (GPa) = 57.80461 78.67917 140.17690
#
# Poissons Ratio (x) = 0.29098 0.45362
# Poissons Ratio (y) = 0.21378 0.14543
# Poissons Ratio (z) = 0.18706 0.08163
#
# Static dielectric constant tensor:
#      x y z
#    x 1.885780 0.000000 0.000000 
#    y 0.000000 1.832180 0.000000 
#    z 0.000000 0.000000 1.730750 
# 
# From -- ./inp_files/7272.got.cif
#   From: 2010.05.17/outbox.ucp.g08.bks.cvg/sg19_4_cif.got.tgz:7272.got - 2010.06.11 13:13:52.
