data_PCOD9316328
_publ_section_title
;
Structure prediction by ZEFSAII (Michael W. Deem and Ramdas Pophale) SiO2 
 PCOD9316328
Probable space group: C 2 2 21
;
_chemical_formula_sum "Si O2"
_cell_formula_units_Z 44
_cell_length_a 10.280634
_cell_length_b 22.052914
_cell_length_c 9.022674
_cell_angle_alpha 90.000000
_cell_angle_beta 90.000000
_cell_angle_gamma 90.000000
_cell_volume 2045.602040
_symmetry_space_group_name_H-M "C 2 2 21"
_symmetry_group_IT_number 20
_symmetry_cell_setting 'orthorhombic'
loop_
_space_group_symop_operation_xyz
x,y,z
-x,-y,1/2+z
x,-y,-z
-x,y,1/2-z
1/2+x,1/2+y,z
1/2-x,1/2-y,1/2+z
1/2+x,1/2-y,-z
1/2-x,1/2+y,1/2-z
loop_
_atom_site_type_symbol
_atom_site_label
_atom_site_fract_x
_atom_site_fract_y
_atom_site_fract_z
Si Si1 0.078233 0.117372 0.547927
Si Si2 0.000000 0.704973 0.750000
Si Si3 0.500000 0.439022 0.750000
Si Si4 0.168316 0.634130 0.514654
Si Si5 0.172516 0.948412 0.186839
Si Si6 0.911741 0.226073 0.522937
Si Si7 0.000000 0.676712 0.250000
O O1 0.187181 0.086783 0.653369
O O2 0.068430 0.100434 0.376432
O O3 0.951506 0.083574 0.611511
O O4 0.045350 0.188314 0.559412
O O5 0.077215 0.663375 0.637813
O O6 0.916252 0.746820 0.641271
O O7 0.381482 0.483684 0.701740
O O8 0.211561 0.568985 0.577732
O O9 0.293472 0.678954 0.520955
O O10 0.094343 0.638673 0.358386
O O11 0.912890 0.279841 0.643050
#
# Coordination Sequence:
#
# PCOD9316328 Si02
#       7
#     8   4   4   8   8   8   4
#     4   9  17  29  52  84 113 138 174 226 290 356
#     4  10  21  32  48  74 106 140 183 226 268 340
#     4  10  17  31  54  88 114 136 177 233 296 364
#     4  10  20  34  50  72 104 151 191 228 278 331
#     4   9  17  31  49  71 108 149 177 218 280 339
#     4  10  18  32  51  77 108 140 176 227 286 340
#     4  10  20  33  52  76 110 152 196 229 266 338
#
# _framework density 21.50956
#
# number of rings (size 3 to 8) (size 9 to 14) (size 15 to 20)
#    0.000    2.545    0.000    6.000    0.000    1.455 
#    0.000    7.273    0.000    0.000    0.000   30.545 
#    0.000    0.000    0.000    0.727    0.000    0.000 
#
# Total GULP energy -122554.711340 kJ/mol
# GULP energy per Si atom -5570.668697 kJ/mol
# Density = 2.146060 g / cm^3
# Si number density = 21.509560 Si / 1000 Ang^3
#
#
#
# Elastic Constant Matrix: (Units=GPa)
#
#
# Indices 1 2 3 4 5 6 
#
# 1 49.6858 14.8105 31.7251 0.0000 0.0000 0.0000
# 2 14.8105 50.7511 32.6410 0.0000 0.0000 0.0000
# 3 31.7251 32.6410 142.1607 0.0000 0.0000 0.0000
# 4 0.0000 0.0000 0.0000 23.4988 0.0000 0.0000
# 5 0.0000 0.0000 0.0000 0.0000 26.1206 0.0000
# 6 0.0000 0.0000 0.0000 0.0000 0.0000 -2.0181
#
#
#
# Elastic Compliance Matrix: (Units=1/GPa)
#
#
# Indices 1 2 3 4 5 6 
#
# 1 0.024215 -0.004213 -0.004437 0.000000 0.000000 0.000000
# 2 -0.004213 0.023851 -0.004536 0.000000 0.000000 0.000000
# 3 -0.004437 -0.004536 0.009066 0.000000 0.000000 0.000000
# 4 0.000000 0.000000 0.000000 0.042555 0.000000 0.000000
# 5 0.000000 0.000000 0.000000 0.000000 0.038284 0.000000
# 6 0.000000 0.000000 0.000000 0.000000 0.000000 -0.495508
#
#
# Mechanical properties :
#
#
# Convention : Reuss Voigt Hill
#
# Bulk Modulus (GPa) = 32.50945 44.55008 38.52976
# Shear Modulus (GPa) = -15.58060 20.41500 2.41720
#
# Velocity S-wave (km/s) = -2.69431 3.08411 1.06123
# Velocity P-wave (km/s) = 2.33831 5.78265 4.41060
#
# Compressibility (1/GPa) = 0.03076029
#
# Stress axis : x y z
#
# Youngs Moduli (GPa) = 41.29647 41.92708 110.30362
#
# Poissons Ratio (x) = 0.17665 0.48937
# Poissons Ratio (y) = 0.17399 0.50035
# Poissons Ratio (z) = 0.18321 0.19019
#
# Static dielectric constant tensor:
#      x y z
#    x 1.951740 0.000000 0.000000 
#    y 0.000000 1.842550 0.000000 
#    z 0.000000 0.000000 1.908710 
# 
# From -- ./inp_files/7344.got.cif
#   From: 2010.05.17/outbox.cif.g08.bks.cpg/sg20_4_cif.got.tgz:7344.got - 2010.06.03 22:52:26.
