data_PCOD9316786
_publ_section_title
;
Structure prediction by ZEFSAII (Michael W. Deem and Ramdas Pophale) SiO2 
 PCOD9316786
Probable space group: C 2 2 21
;
_chemical_formula_sum "Si O2"
_cell_formula_units_Z 36
_cell_length_a 9.396151
_cell_length_b 15.213625
_cell_length_c 12.981940
_cell_angle_alpha 90.000000
_cell_angle_beta 90.000000
_cell_angle_gamma 90.000000
_cell_volume 1855.762063
_symmetry_space_group_name_H-M "C 2 2 21"
_symmetry_group_IT_number 20
_symmetry_cell_setting 'orthorhombic'
loop_
_space_group_symop_operation_xyz
x,y,z
-x,-y,1/2+z
x,-y,-z
-x,y,1/2-z
1/2+x,1/2+y,z
1/2-x,1/2-y,1/2+z
1/2+x,1/2-y,-z
1/2-x,1/2+y,1/2-z
loop_
_atom_site_type_symbol
_atom_site_label
_atom_site_fract_x
_atom_site_fract_y
_atom_site_fract_z
Si Si1 0.530527 0.232989 0.362199
Si Si2 0.449547 0.500000 0.000000
Si Si3 0.344578 0.411472 0.352448
Si Si4 0.763005 0.877235 0.126683
Si Si5 0.034993 0.596142 0.546152
O O1 0.500000 0.192534 0.250000
O O2 0.427273 0.318627 0.369462
O O3 0.686504 0.276786 0.365894
O O4 0.517063 0.166260 0.454688
O O5 0.561826 0.488216 0.094339
O O6 0.339962 0.420727 0.026705
O O7 0.322686 0.422678 0.230459
O O8 0.190469 0.401865 0.403753
O O9 0.595136 0.886628 0.122759
O O10 0.014800 0.500000 0.500000
#
# Coordination Sequence:
#
# PCOD9316786 Si02
#       5
#     8   4   8   8   8
#     4   9  21  40  61  84 117 164 203 240 294 361
#     4  10  18  38  58  86 114 160 198 238 298 352
#     4  10  21  39  61  86 123 161 199 246 297 353
#     4  10  21  39  61  86 123 161 199 246 297 353
#     4  12  22  37  60  93 123 154 197 253 307 350
#
# _framework density 19.399039999999999
#
# number of rings (size 3 to 8) (size 9 to 14) (size 15 to 20)
#    0.000    1.778    2.222    4.000    0.000    1.778 
#    0.000    0.000    0.000   10.667    0.000    0.000 
#    0.000    0.000    0.000    0.000    0.000    0.000 
#
# Total GULP energy -100278.657019 kJ/mol
# GULP energy per Si atom -5571.036501 kJ/mol
# Density = 1.935489 g / cm^3
# Si number density = 19.399040 Si / 1000 Ang^3
#
#
#
# Elastic Constant Matrix: (Units=GPa)
#
#
# Indices 1 2 3 4 5 6 
#
# 1 124.3672 12.3213 23.3299 0.0000 0.0000 0.0000
# 2 12.3213 36.0279 32.6989 0.0000 0.0000 0.0000
# 3 23.3299 32.6989 95.0372 0.0000 0.0000 0.0000
# 4 0.0000 0.0000 0.0000 28.2519 0.0000 0.0000
# 5 0.0000 0.0000 0.0000 0.0000 25.5384 0.0000
# 6 0.0000 0.0000 0.0000 0.0000 0.0000 12.0128
#
#
#
# Elastic Compliance Matrix: (Units=1/GPa)
#
#
# Indices 1 2 3 4 5 6 
#
# 1 0.008482 -0.001470 -0.001576 0.000000 0.000000 0.000000
# 2 -0.001470 0.040614 -0.013613 0.000000 0.000000 0.000000
# 3 -0.001576 -0.013613 0.015593 0.000000 0.000000 0.000000
# 4 0.000000 0.000000 0.000000 0.035396 0.000000 0.000000
# 5 0.000000 0.000000 0.000000 0.000000 0.039157 0.000000
# 6 0.000000 0.000000 0.000000 0.000000 0.000000 0.083245
#
#
# Mechanical properties :
#
#
# Convention : Reuss Voigt Hill
#
# Bulk Modulus (GPa) = 31.87738 43.57026 37.72382
# Shear Modulus (GPa) = 18.77848 25.63276 22.20562
#
# Velocity S-wave (km/s) = 3.11466 3.63897 3.38698
# Velocity P-wave (km/s) = 5.42245 6.33758 5.89779
#
# Compressibility (1/GPa) = 0.03137021
#
# Stress axis : x y z
#
# Youngs Moduli (GPa) = 117.89589 24.62197 64.13176
#
# Poissons Ratio (x) = 0.03620 0.10110
# Poissons Ratio (y) = 0.17332 0.87302
# Poissons Ratio (z) = 0.18585 0.33518
#
# Static dielectric constant tensor:
#      x y z
#    x 1.739930 0.000000 0.000000 
#    y 0.000000 1.653150 0.000000 
#    z 0.000000 0.000000 1.699270 
# 
# From -- ./inp_files/18423.got.cif
#   From: 2010.05.17/outbox.cif.g08.bks.cpg/sg20_10_cif.got.tgz:18423.got - 2010.06.03 22:52:26.
