data_PCOD9316651
_publ_section_title
;
Structure prediction by ZEFSAII (Michael W. Deem and Ramdas Pophale) SiO2 
 PCOD9316651
Probable space group: C 2 2 21
;
_chemical_formula_sum "Si O2"
_cell_formula_units_Z 52
_cell_length_a 10.030477
_cell_length_b 14.611543
_cell_length_c 17.126844
_cell_angle_alpha 90.000000
_cell_angle_beta 90.000000
_cell_angle_gamma 90.000000
_cell_volume 2510.123033
_symmetry_space_group_name_H-M "C 2 2 21"
_symmetry_group_IT_number 20
_symmetry_cell_setting 'orthorhombic'
loop_
_space_group_symop_operation_xyz
x,y,z
-x,-y,1/2+z
x,-y,-z
-x,y,1/2-z
1/2+x,1/2+y,z
1/2-x,1/2-y,1/2+z
1/2+x,1/2-y,-z
1/2-x,1/2+y,1/2-z
loop_
_atom_site_type_symbol
_atom_site_label
_atom_site_fract_x
_atom_site_fract_y
_atom_site_fract_z
Si Si1 0.520019 0.676210 0.585832
Si Si2 0.094823 0.103419 0.137661
Si Si3 0.999437 0.292421 0.436193
Si Si4 0.748671 0.715174 0.833666
Si Si5 0.575652 0.500000 0.000000
Si Si6 0.291630 0.875371 0.332654
Si Si7 0.701451 0.421508 0.694179
O O1 0.506326 0.762301 0.526480
O O2 0.395728 0.675435 0.645338
O O3 0.509004 0.585503 0.531811
O O4 0.657792 0.669369 0.631369
O O5 0.067016 0.204713 0.107658
O O6 0.157719 0.041656 0.070742
O O7 0.178290 0.097473 0.214947
O O8 0.945928 0.066956 0.156664
O O9 0.903723 0.368566 0.399961
O O10 0.146551 0.307314 0.402074
O O11 0.807308 0.676252 0.751546
O O12 0.738348 0.825897 0.835207
O O13 0.273706 0.982977 0.316761
#
# Coordination Sequence:
#
# PCOD9316651 Si02
#       7
#     8   8   8   8   4   8   8
#     4  11  23  39  65  96 125 160 216 271 309 372
#     4   9  17  34  58  89 117 158 205 266 294 370
#     4  10  22  41  61  89 132 169 197 253 338 377
#     4  11  23  42  64  95 129 167 209 267 318 380
#     4  10  18  34  60  92 118 152 212 260 312 352
#     4  12  22  39  68  95 121 172 220 260 314 380
#     4  10  20  36  62  89 123 162 218 254 309 373
#
# _framework density 20.716114999999999
#
# number of rings (size 3 to 8) (size 9 to 14) (size 15 to 20)
#    0.000    1.538    3.077    2.769    2.154    0.000 
#    0.000    3.077    3.385    0.000    0.000    0.000 
#    0.000    0.000    0.000    0.000    0.000    0.000 
#
# Total GULP energy -145055.774320 kJ/mol
# GULP energy per Si atom -5579.068243 kJ/mol
# Density = 2.066896 g / cm^3
# Si number density = 20.716115 Si / 1000 Ang^3
#
#
#
# Elastic Constant Matrix: (Units=GPa)
#
#
# Indices 1 2 3 4 5 6 
#
# 1 43.0017 3.7183 0.7921 0.0000 0.0000 0.0000
# 2 3.7183 56.2455 -13.2615 0.0000 0.0000 0.0000
# 3 0.7921 -13.2615 51.6792 0.0000 0.0000 0.0000
# 4 0.0000 0.0000 0.0000 24.5576 0.0000 0.0000
# 5 0.0000 0.0000 0.0000 0.0000 28.1297 0.0000
# 6 0.0000 0.0000 0.0000 0.0000 0.0000 17.3139
#
#
#
# Elastic Compliance Matrix: (Units=1/GPa)
#
#
# Indices 1 2 3 4 5 6 
#
# 1 0.023420 -0.001738 -0.000805 0.000000 0.000000 0.000000
# 2 -0.001738 0.019053 0.004916 0.000000 0.000000 0.000000
# 3 -0.000805 0.004916 0.020624 0.000000 0.000000 0.000000
# 4 0.000000 0.000000 0.000000 0.040721 0.000000 0.000000
# 5 0.000000 0.000000 0.000000 0.000000 0.035550 0.000000
# 6 0.000000 0.000000 0.000000 0.000000 0.000000 0.057757
#
#
# Mechanical properties :
#
#
# Convention : Reuss Voigt Hill
#
# Bulk Modulus (GPa) = 14.73994 14.82491 14.78242
# Shear Modulus (GPa) = 23.25656 24.64539 23.95098
#
# Velocity S-wave (km/s) = 3.35420 3.45290 3.40391
# Velocity P-wave (km/s) = 4.70442 4.80297 4.75395
#
# Compressibility (1/GPa) = 0.06784290
#
# Stress axis : x y z
#
# Youngs Moduli (GPa) = 42.69849 52.48475 48.48729
#
# Poissons Ratio (x) = 0.09122 0.03903
# Poissons Ratio (y) = 0.07421 -0.23836
# Poissons Ratio (z) = 0.03437 -0.25801
#
# Static dielectric constant tensor:
#      x y z
#    x 1.728010 0.000000 0.000000 
#    y 0.000000 1.789000 0.000000 
#    z 0.000000 0.000000 1.768810 
# 
# From -- ./inp_files/24358.got.cif
#   From: 2010.05.17/outbox.cif.g08.bks.cpg/sg20_13_cif.got.tgz:24358.got - 2010.06.03 22:52:26.
