data_PCOD9316643
_publ_section_title
;
Structure prediction by ZEFSAII (Michael W. Deem and Ramdas Pophale) SiO2 
 PCOD9316643
Probable space group: C 2 2 21
;
_chemical_formula_sum "Si O2"
_cell_formula_units_Z 36
_cell_length_a 19.067345
_cell_length_b 5.147129
_cell_length_c 18.525742
_cell_angle_alpha 90.000000
_cell_angle_beta 90.000000
_cell_angle_gamma 90.000000
_cell_volume 1818.154935
_symmetry_space_group_name_H-M "C 2 2 21"
_symmetry_group_IT_number 20
_symmetry_cell_setting 'orthorhombic'
loop_
_space_group_symop_operation_xyz
x,y,z
-x,-y,1/2+z
x,-y,-z
-x,y,1/2-z
1/2+x,1/2+y,z
1/2-x,1/2-y,1/2+z
1/2+x,1/2-y,-z
1/2-x,1/2+y,1/2-z
loop_
_atom_site_type_symbol
_atom_site_label
_atom_site_fract_x
_atom_site_fract_y
_atom_site_fract_z
Si Si1 0.330371 0.643585 0.732627
Si Si2 0.250420 0.294084 0.632445
Si Si3 0.374105 0.896948 0.071299
Si Si4 0.920508 0.650027 0.772828
Si Si5 0.235802 0.000000 0.500000
O O1 0.292127 0.548627 0.659318
O O2 0.270155 0.635003 0.795378
O O3 0.386525 0.416022 0.745260
O O4 0.371823 0.914412 0.742301
O O5 0.174621 0.375523 0.602458
O O6 0.280143 0.144587 0.562739
O O7 0.418539 0.821964 0.140163
O O8 0.316901 0.688369 0.044281
O O9 0.412685 0.000000 0.000000
O O10 0.000000 0.609759 0.750000
#
# Coordination Sequence:
#
# PCOD9316643 Si02
#       5
#     8   8   8   8   4
#     4  11  22  36  62  91 123 153 200 253 307 358
#     4  10  20  34  59  92 123 152 191 257 323 362
#     4   9  19  34  57  87 116 155 199 255 302 363
#     4  11  23  40  60  87 121 166 210 245 289 354
#     4  10  18  34  58  92 124 152 198 252 318 376
#
# _framework density 19.800294000000001
#
# number of rings (size 3 to 8) (size 9 to 14) (size 15 to 20)
#    0.000    1.778    2.222    3.333    3.111    0.000 
#    0.000    0.000    2.444    0.000    0.000    0.000 
#    0.000    0.000    0.000    0.000    0.000    0.000 
#
# Total GULP energy -100260.777414 kJ/mol
# GULP energy per Si atom -5570.043190 kJ/mol
# Density = 1.975523 g / cm^3
# Si number density = 19.800294 Si / 1000 Ang^3
#
#
#
# Elastic Constant Matrix: (Units=GPa)
#
#
# Indices 1 2 3 4 5 6 
#
# 1 74.6376 14.0192 30.0189 0.0000 0.0000 0.0000
# 2 14.0192 85.6090 20.7413 0.0000 0.0000 0.0000
# 3 30.0189 20.7413 114.1200 0.0000 0.0000 0.0000
# 4 0.0000 0.0000 0.0000 41.1541 0.0000 0.0000
# 5 0.0000 0.0000 0.0000 0.0000 18.6642 0.0000
# 6 0.0000 0.0000 0.0000 0.0000 0.0000 17.6935
#
#
#
# Elastic Compliance Matrix: (Units=1/GPa)
#
#
# Indices 1 2 3 4 5 6 
#
# 1 0.015187 -0.001589 -0.003706 0.000000 0.000000 0.000000
# 2 -0.001589 0.012385 -0.001833 0.000000 0.000000 0.000000
# 3 -0.003706 -0.001833 0.010071 0.000000 0.000000 0.000000
# 4 0.000000 0.000000 0.000000 0.024299 0.000000 0.000000
# 5 0.000000 0.000000 0.000000 0.000000 0.053579 0.000000
# 6 0.000000 0.000000 0.000000 0.000000 0.000000 0.056518
#
#
# Mechanical properties :
#
#
# Convention : Reuss Voigt Hill
#
# Bulk Modulus (GPa) = 42.75925 44.88057 43.81991
# Shear Modulus (GPa) = 25.76113 29.47483 27.61798
#
# Velocity S-wave (km/s) = 3.61092 3.86243 3.73879
# Velocity P-wave (km/s) = 6.24717 6.52740 6.38882
#
# Compressibility (1/GPa) = 0.02338675
#
# Stress axis : x y z
#
# Youngs Moduli (GPa) = 65.84519 80.74052 99.29756
#
# Poissons Ratio (x) = 0.12831 0.36801
# Poissons Ratio (y) = 0.10463 0.18202
# Poissons Ratio (z) = 0.24403 0.14800
#
# Static dielectric constant tensor:
#      x y z
#    x 1.654790 0.000000 0.000000 
#    y 0.000000 1.822230 0.000000 
#    z 0.000000 0.000000 1.834970 
# 
# From -- ./inp_files/22710.got.cif
#   From: 2010.05.17/outbox.cif.g08.bks.cpg/sg20_12_cif.got.tgz:22710.got - 2010.06.03 22:52:26.
