data_PCOD9316920
_publ_section_title
;
Structure prediction by ZEFSAII (Michael W. Deem and Ramdas Pophale) SiO2 
 PCOD9316920
Probable space group: C 2 2 21
;
_chemical_formula_sum "Si O2"
_cell_formula_units_Z 48
_cell_length_a 5.674630
_cell_length_b 22.883189
_cell_length_c 12.810522
_cell_angle_alpha 90.000000
_cell_angle_beta 90.000000
_cell_angle_gamma 90.000000
_cell_volume 1663.492794
_symmetry_space_group_name_H-M "C 2 2 21"
_symmetry_group_IT_number 20
_symmetry_cell_setting 'orthorhombic'
loop_
_space_group_symop_operation_xyz
x,y,z
-x,-y,1/2+z
x,-y,-z
-x,y,1/2-z
1/2+x,1/2+y,z
1/2-x,1/2-y,1/2+z
1/2+x,1/2-y,-z
1/2-x,1/2+y,1/2-z
loop_
_atom_site_type_symbol
_atom_site_label
_atom_site_fract_x
_atom_site_fract_y
_atom_site_fract_z
Si Si1 0.373502 0.586847 0.127437
Si Si2 0.375486 0.275459 0.872308
Si Si3 0.123560 0.777918 0.377756
Si Si4 0.139306 0.440748 0.572508
Si Si5 0.095860 0.917386 0.380286
Si Si6 0.084425 0.592853 0.647164
O O1 0.642404 0.565673 0.155158
O O2 0.420189 0.573410 0.003665
O O3 0.104460 0.565876 0.134430
O O4 0.365816 0.655650 0.148408
O O5 0.632397 0.251210 0.840713
O O6 0.130307 0.245097 0.840156
O O7 0.375767 0.268025 0.997772
O O8 0.118339 0.847763 0.365102
O O9 0.153357 0.500000 0.500000
O O10 0.113426 0.390616 0.476711
O O11 0.347379 0.945387 0.354938
O O12 0.843989 0.931670 0.331504
O O13 0.000000 0.629823 0.750000
#
# Coordination Sequence:
#
# PCOD9316920 Si02
#       6
#     8   8   8   8   8   8
#     4   9  17  28  42  62  89 119 147 179 227 274
#     4   9  15  23  37  58  85 115 144 172 204 246
#     4   9  15  23  37  58  85 115 142 168 201 246
#     4  10  19  31  46  64  89 120 152 191 240 285
#     4   9  17  28  42  62  89 119 146 175 214 264
#     4  10  19  31  46  64  89 118 149 185 226 275
#
# _framework density 28.854949000000001
#
# number of rings (size 3 to 8) (size 9 to 14) (size 15 to 20)
#    0.000    2.667    0.000    3.000    0.000    8.000 
#    0.000    0.000    0.000    0.000    0.000    0.000 
#    0.000   26.667    0.000    0.000    0.000    0.000 
#
# Total GULP energy -133747.866190 kJ/mol
# GULP energy per Si atom -5572.827758 kJ/mol
# Density = 2.878927 g / cm^3
# Si number density = 28.854949 Si / 1000 Ang^3
#
#
#
# Elastic Constant Matrix: (Units=GPa)
#
#
# Indices 1 2 3 4 5 6 
#
# 1 301.3813 59.9306 38.2273 0.0000 0.0000 0.0000
# 2 59.9306 168.2398 -21.3110 0.0000 0.0000 0.0000
# 3 38.2273 -21.3110 46.8426 0.0000 0.0000 0.0000
# 4 0.0000 0.0000 0.0000 -5.1813 0.0000 0.0000
# 5 0.0000 0.0000 0.0000 0.0000 75.1467 0.0000
# 6 0.0000 0.0000 0.0000 0.0000 0.0000 4.0930
#
#
#
# Elastic Compliance Matrix: (Units=1/GPa)
#
#
# Indices 1 2 3 4 5 6 
#
# 1 0.004302 -0.002098 -0.004465 0.000000 0.000000 0.000000
# 2 -0.002098 0.007331 0.005047 0.000000 0.000000 0.000000
# 3 -0.004465 0.005047 0.027288 0.000000 0.000000 0.000000
# 4 0.000000 0.000000 0.000000 -0.193003 0.000000 0.000000
# 5 0.000000 0.000000 0.000000 0.000000 0.013307 0.000000
# 6 0.000000 0.000000 0.000000 0.000000 0.000000 0.244317
#
#
# Mechanical properties :
#
#
# Convention : Reuss Voigt Hill
#
# Bulk Modulus (GPa) = 27.86394 74.46193 51.16293
# Shear Modulus (GPa) = 42.18155 44.11949 43.15052
#
# Velocity S-wave (km/s) = 3.82756 3.91450 3.87127
# Velocity P-wave (km/s) = 5.40473 6.80387 6.14426
#
# Compressibility (1/GPa) = 0.03588868
#
# Stress axis : x y z
#
# Youngs Moduli (GPa) = 232.47475 136.41606 36.64626
#
# Poissons Ratio (x) = 0.28618 0.16362
# Poissons Ratio (y) = 0.48770 -0.18496
# Poissons Ratio (z) = 1.03796 -0.68850
#
# Static dielectric constant tensor:
#      x y z
#    x 2.351050 0.000000 0.000000 
#    y 0.000000 2.153210 0.000000 
#    z 0.000000 0.000000 2.517560 
# 
# From -- ./inp_files/26162.got.cif
#   From: 2010.05.17/outbox.cif.g08.bks.cpg/sg20_14_cif.got.tgz:26162.got - 2010.06.03 22:52:26.
