data_PCOD9316460
_publ_section_title
;
Structure prediction by ZEFSAII (Michael W. Deem and Ramdas Pophale) SiO2 
 PCOD9316460
Probable space group: C 2 2 21
;
_chemical_formula_sum "Si O2"
_cell_formula_units_Z 56
_cell_length_a 30.087554
_cell_length_b 5.569852
_cell_length_c 13.634011
_cell_angle_alpha 90.000000
_cell_angle_beta 90.000000
_cell_angle_gamma 90.000000
_cell_volume 2284.831503
_symmetry_space_group_name_H-M "C 2 2 21"
_symmetry_group_IT_number 20
_symmetry_cell_setting 'orthorhombic'
loop_
_space_group_symop_operation_xyz
x,y,z
-x,-y,1/2+z
x,-y,-z
-x,y,1/2-z
1/2+x,1/2+y,z
1/2-x,1/2-y,1/2+z
1/2+x,1/2-y,-z
1/2-x,1/2+y,1/2-z
loop_
_atom_site_type_symbol
_atom_site_label
_atom_site_fract_x
_atom_site_fract_y
_atom_site_fract_z
Si Si1 0.605517 0.930287 0.784569
Si Si2 0.975428 0.395519 0.854568
Si Si3 0.741719 0.579473 0.868840
Si Si4 0.719146 0.420506 0.360676
Si Si5 0.526646 0.393913 0.646192
Si Si6 0.103687 0.500000 0.000000
Si Si7 0.871621 0.071264 0.216677
Si Si8 0.158974 0.000000 0.000000
O O1 0.574721 0.912032 0.688072
O O2 0.625139 0.662110 0.787313
O O3 0.636111 0.164867 0.764922
O O4 0.582326 0.978919 0.890512
O O5 0.983995 0.645784 0.905207
O O6 0.000000 0.390479 0.750000
O O7 0.985170 0.143378 0.902863
O O8 0.736736 0.590972 0.751633
O O9 0.755669 0.846322 0.903993
O O10 0.694069 0.511942 0.911364
O O11 0.773258 0.352810 0.895746
O O12 0.667731 0.500875 0.356644
O O13 0.500000 0.387925 0.750000
O O14 0.579118 0.406108 0.670335
O O15 0.131309 0.248761 0.005809
#
# Coordination Sequence:
#
# PCOD9316460 Si02
#       8
#     8   8   8   8   8   4   8   4
#     4  10  19  29  44  69  97 128 161 199 244 301
#     4   8  14  25  40  59  88 122 152 185 227 274
#     4  10  21  34  50  68  94 126 164 201 243 294
#     4  10  19  33  50  71  94 123 161 208 243 279
#     4   8  14  24  40  64  92 117 141 179 230 284
#     4  12  22  32  48  68  98 131 166 199 240 306
#     4  10  18  30  48  68  97 125 158 203 247 289
#     4  12  24  38  52  70  98 139 166 197 258 318
#
# _framework density 24.509467000000001
#
# number of rings (size 3 to 8) (size 9 to 14) (size 15 to 20)
#    0.000    2.286    0.000    4.286    0.000    2.286 
#    0.000    0.000    0.000    0.000    0.000    0.000 
#    0.000  109.714    0.000    0.000    0.000    0.000 
#
# Total GULP energy -156001.953786 kJ/mol
# GULP energy per Si atom -5571.498349 kJ/mol
# Density = 2.445368 g / cm^3
# Si number density = 24.509467 Si / 1000 Ang^3
#
#
#
# Elastic Constant Matrix: (Units=GPa)
#
#
# Indices 1 2 3 4 5 6 
#
# 1 78.2348 28.0264 -20.3764 0.0000 0.0000 0.0000
# 2 28.0264 292.9521 32.8579 0.0000 0.0000 0.0000
# 3 -20.3764 32.8579 52.0455 0.0000 0.0000 0.0000
# 4 0.0000 0.0000 0.0000 33.9802 0.0000 0.0000
# 5 0.0000 0.0000 0.0000 0.0000 -91.7168 0.0000
# 6 0.0000 0.0000 0.0000 0.0000 0.0000 13.9924
#
#
#
# Elastic Compliance Matrix: (Units=1/GPa)
#
#
# Indices 1 2 3 4 5 6 
#
# 1 0.015597 -0.002343 0.007586 0.000000 0.000000 0.000000
# 2 -0.002343 0.004026 -0.003459 0.000000 0.000000 0.000000
# 3 0.007586 -0.003459 0.024367 0.000000 0.000000 0.000000
# 4 0.000000 0.000000 0.000000 0.029429 0.000000 0.000000
# 5 0.000000 0.000000 0.000000 0.000000 -0.010903 0.000000
# 6 0.000000 0.000000 0.000000 0.000000 0.000000 0.071467
#
#
# Mechanical properties :
#
#
# Convention : Reuss Voigt Hill
#
# Bulk Modulus (GPa) = 21.02701 56.02757 38.52729
# Shear Modulus (GPa) = 34.18382 16.76613 25.47497
#
# Velocity S-wave (km/s) = 3.73865 2.61831 3.22746
# Velocity P-wave (km/s) = 5.21866 5.66126 5.44446
#
# Compressibility (1/GPa) = 0.04755787
#
# Stress axis : x y z
#
# Youngs Moduli (GPa) = 64.11461 248.40891 41.03832
#
# Poissons Ratio (x) = 0.58201 -0.31130
# Poissons Ratio (y) = 0.15022 0.14194
# Poissons Ratio (z) = -0.48635 0.85920
#
# Static dielectric constant tensor:
#      x y z
#    x 1.922420 0.000000 0.000000 
#    y 0.000000 2.092850 0.000000 
#    z 0.000000 0.000000 1.965530 
# 
# From -- ./inp_files/22322.got.cif
#   From: 2010.05.17/outbox.cif.g08.bks.cpg/sg20_12_cif.got.tgz:22322.got - 2010.06.03 22:52:26.
