data_PCOD9316049
_publ_section_title
;
Structure prediction by ZEFSAII (Michael W. Deem and Ramdas Pophale) SiO2 
 PCOD9316049
Probable space group: P 21 21 21
;
_chemical_formula_sum "Si O2"
_cell_formula_units_Z 32
_cell_length_a 6.259382
_cell_length_b 9.863904
_cell_length_c 20.884212
_cell_angle_alpha 90.000000
_cell_angle_beta 90.000000
_cell_angle_gamma 90.000000
_cell_volume 1289.431830
_symmetry_space_group_name_H-M "P 21 21 21"
_symmetry_group_IT_number 19
_symmetry_cell_setting 'orthorhombic'
loop_
_space_group_symop_operation_xyz
x,y,z
1/2-x,-y,1/2+z
1/2+x,1/2-y,-z
-x,1/2+y,1/2-z
loop_
_atom_site_type_symbol
_atom_site_label
_atom_site_fract_x
_atom_site_fract_y
_atom_site_fract_z
Si Si1 0.092934 0.627282 0.084040
Si Si2 0.762397 0.149345 0.272706
Si Si3 0.872845 0.678822 0.320166
Si Si4 0.910511 0.094523 0.961350
Si Si5 0.762459 0.382693 0.496317
Si Si6 0.506833 0.493241 0.381315
Si Si7 0.944189 0.126132 0.746953
Si Si8 0.280693 0.261244 0.917361
O O1 0.152368 0.669708 0.155693
O O2 0.218828 0.488477 0.069783
O O3 0.174431 0.740506 0.034068
O O4 0.843088 0.618609 0.066530
O O5 0.659976 0.286868 0.243864
O O6 0.959773 0.108786 0.227785
O O7 0.585979 0.029031 0.270128
O O8 0.709135 0.571971 0.350684
O O9 0.740690 0.788261 0.280060
O O10 0.008599 0.753499 0.375423
O O11 0.087878 0.154320 0.913197
O O12 0.836369 0.216057 0.007794
O O13 0.039656 0.984703 0.003480
O O14 0.582248 0.438596 0.448890
O O15 0.429867 0.383240 0.330223
O O16 0.320765 0.599007 0.393269
#
# Coordination Sequence:
#
# PCOD9316049 Si02
#       8
#     4   4   4   4   4   4   4   4
#     4  12  28  45  73 114 152 193 250 320 378 457
#     4  12  30  48  77 111 159 203 262 320 392 458
#     4  12  28  48  76 111 152 206 257 309 390 457
#     4  12  28  45  77 112 151 193 254 310 384 449
#     4  12  25  49  76 109 150 201 249 312 386 447
#     4  12  25  51  77 106 153 201 259 313 382 467
#     4  12  27  49  76 113 149 205 259 319 378 468
#     4  12  27  49  76 112 152 202 248 319 376 463
#
# _framework density 24.817132000000001
#
# number of rings (size 3 to 8) (size 9 to 14) (size 15 to 20)
#    0.000    0.000    7.500    0.750    7.000    3.000 
#    0.000    0.000    0.000    0.000    0.000    0.000 
#    0.000    0.000    0.000    0.000    0.000    0.000 
#
# Total GULP energy -179369.458634 kJ/mol
# GULP energy per Si atom -5605.295582 kJ/mol
# Density = 2.476065 g / cm^3
# Si number density = 24.817132 Si / 1000 Ang^3
#
#
#
# Elastic Constant Matrix: (Units=GPa)
#
#
# Indices 1 2 3 4 5 6 
#
# 1 83.5732 30.8131 36.9135 0.0000 0.0000 0.0000
# 2 30.8131 82.6979 22.1412 0.0000 0.0000 0.0000
# 3 36.9135 22.1412 85.5802 0.0000 0.0000 0.0000
# 4 0.0000 0.0000 0.0000 43.2160 0.0000 0.0000
# 5 0.0000 0.0000 0.0000 0.0000 50.1058 0.0000
# 6 0.0000 0.0000 0.0000 0.0000 0.0000 45.3273
#
#
#
# Elastic Compliance Matrix: (Units=1/GPa)
#
#
# Indices 1 2 3 4 5 6 
#
# 1 0.016187 -0.004472 -0.005825 0.000000 0.000000 0.000000
# 2 -0.004472 0.014227 -0.001752 0.000000 0.000000 0.000000
# 3 -0.005825 -0.001752 0.014651 0.000000 0.000000 0.000000
# 4 0.000000 0.000000 0.000000 0.023140 0.000000 0.000000
# 5 0.000000 0.000000 0.000000 0.000000 0.019958 0.000000
# 6 0.000000 0.000000 0.000000 0.000000 0.000000 0.022062
#
#
# Mechanical properties :
#
#
# Convention : Reuss Voigt Hill
#
# Bulk Modulus (GPa) = 47.69281 47.95411 47.82346
# Shear Modulus (GPa) = 35.38278 38.52872 36.95575
#
# Velocity S-wave (km/s) = 3.77999 3.94446 3.86310
# Velocity P-wave (km/s) = 6.18955 6.33324 6.26181
#
# Compressibility (1/GPa) = 0.02096752
#
# Stress axis : x y z
#
# Youngs Moduli (GPa) = 61.77730 70.28660 68.25551
#
# Poissons Ratio (x) = 0.31430 0.39760
# Poissons Ratio (y) = 0.27625 0.11959
# Poissons Ratio (z) = 0.35986 0.12315
#
# Static dielectric constant tensor:
#      x y z
#    x 1.957970 0.000000 0.000000 
#    y 0.000000 1.954890 0.000000 
#    z 0.000000 0.000000 1.976960 
# 
# From -- ./inp_files/6919.got.cif
#   From: 2010.05.17/outbox.cif.g08.bks.cpg/sg19_4_cif.got.tgz:6919.got - 2010.06.03 22:46:19.
