data_PCOD9316063
_publ_section_title
;
Structure prediction by ZEFSAII (Michael W. Deem and Ramdas Pophale) SiO2 
 PCOD9316063
Probable space group: P 21 21 21
;
_chemical_formula_sum "Si O2"
_cell_formula_units_Z 16
_cell_length_a 8.994242
_cell_length_b 9.228770
_cell_length_c 7.502042
_cell_angle_alpha 90.000000
_cell_angle_beta 90.000000
_cell_angle_gamma 90.000000
_cell_volume 622.712928
_symmetry_space_group_name_H-M "P 21 21 21"
_symmetry_group_IT_number 19
_symmetry_cell_setting 'orthorhombic'
loop_
_space_group_symop_operation_xyz
x,y,z
1/2-x,-y,1/2+z
1/2+x,1/2-y,-z
-x,1/2+y,1/2-z
loop_
_atom_site_type_symbol
_atom_site_label
_atom_site_fract_x
_atom_site_fract_y
_atom_site_fract_z
Si Si1 0.371609 0.363479 0.282400
Si Si2 0.083088 0.933183 0.957402
Si Si3 0.837769 0.853588 0.527339
Si Si4 0.358512 0.112537 0.854127
O O1 0.440456 0.228039 0.384364
O O2 0.481436 0.456285 0.154665
O O3 0.311028 0.480419 0.423006
O O4 0.237283 0.311712 0.158827
O O5 0.253212 0.984729 0.924831
O O6 0.066158 0.933798 0.169726
O O7 0.752775 0.749539 0.665407
O O8 0.013611 0.844434 0.494109
#
# Coordination Sequence:
#
# PCOD9316063 Si02
#       4
#     4   4   4   4
#     4  12  26  46  74 106 144 193 247 304 370 440
#     4  12  27  48  73 106 149 193 244 308 370 438
#     4  12  26  46  74 106 144 193 247 304 370 440
#     4  12  27  48  73 106 149 193 244 308 370 438
#
# _framework density 25.694020999999999
#
# number of rings (size 3 to 8) (size 9 to 14) (size 15 to 20)
#    0.000    0.000    0.000   10.500    0.000   10.000 
#    0.000    0.000    0.000    0.000    0.000    0.000 
#    0.000    0.000    0.000    0.000    0.000    0.000 
#
# Total GULP energy -89727.431027 kJ/mol
# GULP energy per Si atom -5607.964439 kJ/mol
# Density = 2.563554 g / cm^3
# Si number density = 25.694021 Si / 1000 Ang^3
#
#
#
# Elastic Constant Matrix: (Units=GPa)
#
#
# Indices 1 2 3 4 5 6 
#
# 1 108.5564 0.3916 -0.0237 0.0000 0.0000 0.0000
# 2 0.3916 123.5224 -5.9311 0.0000 0.0000 0.0000
# 3 -0.0237 -5.9311 66.9509 0.0000 0.0000 0.0000
# 4 0.0000 0.0000 0.0000 44.7795 0.0000 0.0000
# 5 0.0000 0.0000 0.0000 0.0000 34.6509 0.0000
# 6 0.0000 0.0000 0.0000 0.0000 0.0000 40.5594
#
#
#
# Elastic Compliance Matrix: (Units=1/GPa)
#
#
# Indices 1 2 3 4 5 6 
#
# 1 0.009212 -0.000029 0.000001 0.000000 0.000000 0.000000
# 2 -0.000029 0.008130 0.000720 0.000000 0.000000 0.000000
# 3 0.000001 0.000720 0.015000 0.000000 0.000000 0.000000
# 4 0.000000 0.000000 0.000000 0.022332 0.000000 0.000000
# 5 0.000000 0.000000 0.000000 0.000000 0.028859 0.000000
# 6 0.000000 0.000000 0.000000 0.000000 0.000000 0.024655
#
#
# Mechanical properties :
#
#
# Convention : Reuss Voigt Hill
#
# Bulk Modulus (GPa) = 29.65080 31.98926 30.82003
# Shear Modulus (GPa) = 42.35601 44.30415 43.33008
#
# Velocity S-wave (km/s) = 4.06455 4.15697 4.11102
# Velocity P-wave (km/s) = 5.79590 5.95967 5.87835
#
# Compressibility (1/GPa) = 0.03372591
#
# Stress axis : x y z
#
# Youngs Moduli (GPa) = 108.55518 122.99558 66.66614
#
# Poissons Ratio (x) = 0.00359 -0.00004
# Poissons Ratio (y) = 0.00317 -0.04802
# Poissons Ratio (z) = -0.00007 -0.08859
#
# Static dielectric constant tensor:
#      x y z
#    x 2.038890 0.000000 0.000000 
#    y 0.000000 2.007730 0.000000 
#    z 0.000000 0.000000 1.981970 
# 
# From -- ./inp_files/2545.got.cif
#   From: 2010.05.17/outbox.cif.g08.bks.cpg/sg19_2_cif.got.tgz:2545.got - 2010.06.03 22:46:19.
