data_PCOD9316442
_publ_section_title
;
Structure prediction by ZEFSAII (Michael W. Deem and Ramdas Pophale) SiO2 
 PCOD9316442
Probable space group: C 2 2 21
;
_chemical_formula_sum "Si O2"
_cell_formula_units_Z 52
_cell_length_a 10.966706
_cell_length_b 11.902386
_cell_length_c 15.354522
_cell_angle_alpha 90.000000
_cell_angle_beta 90.000000
_cell_angle_gamma 90.000000
_cell_volume 2004.225265
_symmetry_space_group_name_H-M "C 2 2 21"
_symmetry_group_IT_number 20
_symmetry_cell_setting 'orthorhombic'
loop_
_space_group_symop_operation_xyz
x,y,z
-x,-y,1/2+z
x,-y,-z
-x,y,1/2-z
1/2+x,1/2+y,z
1/2-x,1/2-y,1/2+z
1/2+x,1/2-y,-z
1/2-x,1/2+y,1/2-z
loop_
_atom_site_type_symbol
_atom_site_label
_atom_site_fract_x
_atom_site_fract_y
_atom_site_fract_z
Si Si1 0.500000 0.986465 0.750000
Si Si2 0.035729 0.192078 0.130752
Si Si3 0.282408 0.729765 0.511386
Si Si4 0.336271 0.336357 0.144275
Si Si5 0.347024 0.041121 0.410717
Si Si6 0.918140 0.051736 0.595319
Si Si7 0.671052 0.816293 0.287815
O O1 0.393077 0.062656 0.793124
O O2 0.565632 0.929637 0.830894
O O3 0.898384 0.234234 0.144673
O O4 0.109575 0.268197 0.197580
O O5 0.075712 0.063915 0.150212
O O6 0.085296 0.222178 0.036033
O O7 0.194270 0.738858 0.427457
O O8 0.282047 0.846859 0.559285
O O9 0.292899 0.623458 0.577745
O O10 0.250802 0.444943 0.117329
O O11 0.474172 0.371972 0.129860
O O12 0.306449 0.315203 0.246437
O O13 0.411526 0.000000 0.500000
O O14 0.950824 0.000000 0.500000
#
# Coordination Sequence:
#
# PCOD9316442 Si02
#       7
#     4   8   8   8   8   8   8
#     4   8  14  24  44  70  88 124 170 196 242 304
#     4   8  15  28  48  68  88 124 167 197 236 293
#     4   9  17  28  46  69  94 125 161 201 243 288
#     4   9  17  30  50  71  93 126 162 201 244 288
#     4   9  15  27  46  66  93 124 158 201 246 293
#     4  10  18  29  48  72  94 124 167 203 238 294
#     4   8  14  29  49  66  90 124 161 198 239 291
#
# _framework density 25.945188000000002
#
# number of rings (size 3 to 8) (size 9 to 14) (size 15 to 20)
#    0.000    3.385    0.000    4.154    0.000    0.000 
#    0.000    4.615    0.000   21.231    0.000    0.000 
#    0.000    0.000    0.000    0.000    0.000    0.000 
#
# Total GULP energy -144930.871421 kJ/mol
# GULP energy per Si atom -5574.264285 kJ/mol
# Density = 2.588614 g / cm^3
# Si number density = 25.945188 Si / 1000 Ang^3
#
#
#
# Elastic Constant Matrix: (Units=GPa)
#
#
# Indices 1 2 3 4 5 6 
#
# 1 39.4246 16.0240 -22.1774 0.0000 0.0000 0.0000
# 2 16.0240 79.4680 -7.0056 0.0000 0.0000 0.0000
# 3 -22.1774 -7.0056 38.0254 0.0000 0.0000 0.0000
# 4 0.0000 0.0000 0.0000 12.0329 0.0000 0.0000
# 5 0.0000 0.0000 0.0000 0.0000 9.6777 0.0000
# 6 0.0000 0.0000 0.0000 0.0000 0.0000 9.1617
#
#
#
# Elastic Compliance Matrix: (Units=1/GPa)
#
#
# Indices 1 2 3 4 5 6 
#
# 1 0.040540 -0.006191 0.022503 0.000000 0.000000 0.000000
# 2 -0.006191 0.013737 -0.001080 0.000000 0.000000 0.000000
# 3 0.022503 -0.001080 0.039224 0.000000 0.000000 0.000000
# 4 0.000000 0.000000 0.000000 0.083106 0.000000 0.000000
# 5 0.000000 0.000000 0.000000 0.000000 0.103330 0.000000
# 6 0.000000 0.000000 0.000000 0.000000 0.000000 0.109151
#
#
# Mechanical properties :
#
#
# Convention : Reuss Voigt Hill
#
# Bulk Modulus (GPa) = 8.06674 14.51113 11.28893
# Shear Modulus (GPa) = 12.50178 17.51291 15.00735
#
# Velocity S-wave (km/s) = 2.19750 2.60089 2.40766
# Velocity P-wave (km/s) = 3.09104 3.82422 3.47701
#
# Compressibility (1/GPa) = 0.12396587
#
# Stress axis : x y z
#
# Youngs Moduli (GPa) = 24.66718 72.79729 25.49475
#
# Poissons Ratio (x) = 0.45066 -0.57371
# Poissons Ratio (y) = 0.15271 0.02753
# Poissons Ratio (z) = -0.55509 0.07860
#
# Static dielectric constant tensor:
#      x y z
#    x 2.105260 0.000000 0.000000 
#    y 0.000000 2.125230 0.000000 
#    z 0.000000 0.000000 2.272810 
# 
# From -- ./inp_files/24926.got.cif
#   From: 2010.05.17/outbox.cif.g08.bks.cpg/sg20_13_cif.got.tgz:24926.got - 2010.06.03 22:52:26.
