data_PCOD9316004
_publ_section_title
;
Structure prediction by ZEFSAII (Michael W. Deem and Ramdas Pophale) SiO2 
 PCOD9316004
Probable space group: P 21 21 21
;
_chemical_formula_sum "Si O2"
_cell_formula_units_Z 20
_cell_length_a 21.291763
_cell_length_b 4.966564
_cell_length_c 8.931342
_cell_angle_alpha 90.000000
_cell_angle_beta 90.000000
_cell_angle_gamma 90.000000
_cell_volume 944.461762
_symmetry_space_group_name_H-M "P 21 21 21"
_symmetry_group_IT_number 19
_symmetry_cell_setting 'orthorhombic'
loop_
_space_group_symop_operation_xyz
x,y,z
1/2-x,-y,1/2+z
1/2+x,1/2-y,-z
-x,1/2+y,1/2-z
loop_
_atom_site_type_symbol
_atom_site_label
_atom_site_fract_x
_atom_site_fract_y
_atom_site_fract_z
Si Si1 0.626674 0.329525 0.989675
Si Si2 0.331557 0.317064 0.690143
Si Si3 0.136355 0.599348 0.532316
Si Si4 0.809497 0.593460 0.805495
Si Si5 0.502666 0.704915 0.352827
O O1 0.664482 0.423706 0.137111
O O2 0.557372 0.247068 0.042547
O O3 0.626180 0.574457 0.873430
O O4 0.660423 0.072206 0.917606
O O5 0.350581 0.401150 0.856756
O O6 0.261094 0.201869 0.692062
O O7 0.148449 0.309423 0.604827
O O8 0.067011 0.708018 0.568560
O O9 0.183309 0.807830 0.614107
O O10 0.504786 0.403391 0.289758
#
# Coordination Sequence:
#
# PCOD9316004 Si02
#       5
#     4   4   4   4   4
#     4  12  25  43  70  98 134 179 219 278 332 387
#     4  12  26  41  64 105 138 165 221 281 340 384
#     4  12  25  44  70  97 133 179 221 276 331 391
#     4  12  23  44  68  96 133 182 221 264 328 414
#     4  12  23  46  70  96 130 175 236 271 321 408
#
# _framework density 21.176082000000001
#
# number of rings (size 3 to 8) (size 9 to 14) (size 15 to 20)
#    0.000    0.000    4.000    7.200    0.000    1.600 
#    0.000    0.000    0.000    0.000    0.000    0.000 
#    0.000    0.000    0.000    0.000    0.000    0.000 
#
# Total GULP energy -112113.906335 kJ/mol
# GULP energy per Si atom -5605.695317 kJ/mol
# Density = 2.112788 g / cm^3
# Si number density = 21.176082 Si / 1000 Ang^3
#
#
#
# Elastic Constant Matrix: (Units=GPa)
#
#
# Indices 1 2 3 4 5 6 
#
# 1 114.7982 -35.6498 -8.9247 0.0000 0.0000 0.0000
# 2 -35.6498 70.0033 2.2100 0.0000 0.0000 0.0000
# 3 -8.9247 2.2100 108.1594 0.0000 0.0000 0.0000
# 4 0.0000 0.0000 0.0000 5.2084 0.0000 0.0000
# 5 0.0000 0.0000 0.0000 0.0000 14.3704 0.0000
# 6 0.0000 0.0000 0.0000 0.0000 0.0000 25.3670
#
#
#
# Elastic Compliance Matrix: (Units=1/GPa)
#
#
# Indices 1 2 3 4 5 6 
#
# 1 0.010408 0.005277 0.000751 0.000000 0.000000 0.000000
# 2 0.005277 0.016969 0.000089 0.000000 0.000000 0.000000
# 3 0.000751 0.000089 0.009306 0.000000 0.000000 0.000000
# 4 0.000000 0.000000 0.000000 0.191997 0.000000 0.000000
# 5 0.000000 0.000000 0.000000 0.000000 0.069588 0.000000
# 6 0.000000 0.000000 0.000000 0.000000 0.000000 0.039421
#
#
# Mechanical properties :
#
#
# Convention : Reuss Voigt Hill
#
# Bulk Modulus (GPa) = 20.44334 23.13687 21.79011
# Shear Modulus (GPa) = 14.63007 31.34418 22.98713
#
# Velocity S-wave (km/s) = 2.63131 3.85147 3.29830
# Velocity P-wave (km/s) = 4.34818 5.54329 4.98170
#
# Compressibility (1/GPa) = 0.04891569
#
# Stress axis : x y z
#
# Youngs Moduli (GPa) = 96.08045 58.92956 107.46022
#
# Poissons Ratio (x) = -0.31095 -0.08070
# Poissons Ratio (y) = -0.50698 -0.00953
# Poissons Ratio (z) = -0.07216 -0.00523
#
# Static dielectric constant tensor:
#      x y z
#    x 1.757450 0.000000 0.000000 
#    y 0.000000 1.726110 0.000000 
#    z 0.000000 0.000000 1.711290 
# 
# From -- ./inp_files/1907.got.cif
#   From: 2010.05.17/outbox.cif.g08.bks.cpg/sg19_1_cif.got.tgz:1907.got - 2010.06.03 22:46:19.
