data_PCOD9316924
_publ_section_title
;
Structure prediction by ZEFSAII (Michael W. Deem and Ramdas Pophale) SiO2 
 PCOD9316924
Probable space group: C 2 2 21
;
_chemical_formula_sum "Si O2"
_cell_formula_units_Z 48
_cell_length_a 7.829524
_cell_length_b 11.585944
_cell_length_c 21.431802
_cell_angle_alpha 90.000000
_cell_angle_beta 90.000000
_cell_angle_gamma 90.000000
_cell_volume 1944.130766
_symmetry_space_group_name_H-M "C 2 2 21"
_symmetry_group_IT_number 20
_symmetry_cell_setting 'orthorhombic'
loop_
_space_group_symop_operation_xyz
x,y,z
-x,-y,1/2+z
x,-y,-z
-x,y,1/2-z
1/2+x,1/2+y,z
1/2-x,1/2-y,1/2+z
1/2+x,1/2-y,-z
1/2-x,1/2+y,1/2-z
loop_
_atom_site_type_symbol
_atom_site_label
_atom_site_fract_x
_atom_site_fract_y
_atom_site_fract_z
Si Si1 0.710053 0.000000 0.000000
Si Si2 0.110891 0.009673 0.377074
Si Si3 0.000000 0.985848 0.750000
Si Si4 0.122554 0.181432 0.913500
Si Si5 0.992987 0.281349 0.034564
Si Si6 0.754794 0.310618 0.211384
Si Si7 0.131266 0.700582 0.840426
O O1 0.814810 0.944509 0.942134
O O2 0.592304 0.099973 0.974882
O O3 0.069550 0.076070 0.312626
O O4 0.243883 0.906700 0.357608
O O5 0.938094 0.946067 0.397435
O O6 0.848394 0.072744 0.728741
O O7 0.303237 0.188949 0.945932
O O8 0.144848 0.243381 0.845961
O O9 0.994404 0.223640 0.966733
O O10 0.091807 0.229511 0.095562
O O11 0.781128 0.246814 0.277960
O O12 0.942433 0.338509 0.183200
#
# Coordination Sequence:
#
# PCOD9316924 Si02
#       7
#     4   8   4   8   8   8   8
#     4  10  20  32  48  72 102 132 160 200 250 300
#     4   9  17  30  49  72  96 127 164 205 245 291
#     4   8  14  26  46  72  94 124 168 204 236 288
#     4  10  19  32  51  73  96 128 168 208 245 289
#     4  10  19  31  48  72 100 129 163 202 247 296
#     4   8  14  25  45  71  93 120 163 209 239 275
#     4   8  14  26  44  69  95 122 158 202 243 285
#
# _framework density 24.689696999999999
#
# number of rings (size 3 to 8) (size 9 to 14) (size 15 to 20)
#    0.000    3.000    0.000    2.000    0.000    0.667 
#    0.000    0.000    0.000    6.000    0.000  161.000 
#    0.000    0.000    0.000    0.000    0.000    0.000 
#
# Total GULP energy -133820.881883 kJ/mol
# GULP energy per Si atom -5575.870078 kJ/mol
# Density = 2.463350 g / cm^3
# Si number density = 24.689697 Si / 1000 Ang^3
#
#
#
# Elastic Constant Matrix: (Units=GPa)
#
#
# Indices 1 2 3 4 5 6 
#
# 1 93.6889 21.7412 55.0891 0.0000 0.0000 0.0000
# 2 21.7412 43.5445 38.1517 0.0000 0.0000 0.0000
# 3 55.0891 38.1517 180.5043 0.0000 0.0000 0.0000
# 4 0.0000 0.0000 0.0000 44.8138 0.0000 0.0000
# 5 0.0000 0.0000 0.0000 0.0000 53.3998 0.0000
# 6 0.0000 0.0000 0.0000 0.0000 0.0000 9.3483
#
#
#
# Elastic Compliance Matrix: (Units=1/GPa)
#
#
# Indices 1 2 3 4 5 6 
#
# 1 0.013513 -0.003846 -0.003311 0.000000 0.000000 0.000000
# 2 -0.003846 0.029279 -0.005015 0.000000 0.000000 0.000000
# 3 -0.003311 -0.005015 0.007611 0.000000 0.000000 0.000000
# 4 0.000000 0.000000 0.000000 0.022315 0.000000 0.000000
# 5 0.000000 0.000000 0.000000 0.000000 0.018727 0.000000
# 6 0.000000 0.000000 0.000000 0.000000 0.000000 0.106971
#
#
# Mechanical properties :
#
#
# Convention : Reuss Voigt Hill
#
# Bulk Modulus (GPa) = 38.37446 60.85573 49.61509
# Shear Modulus (GPa) = 21.60344 35.02943 28.31644
#
# Velocity S-wave (km/s) = 2.96125 3.77077 3.39025
# Velocity P-wave (km/s) = 5.22192 6.60757 5.95518
#
# Compressibility (1/GPa) = 0.02605900
#
# Stress axis : x y z
#
# Youngs Moduli (GPa) = 74.00232 34.15441 131.39655
#
# Poissons Ratio (x) = 0.13135 0.43509
# Poissons Ratio (y) = 0.28459 0.65892
# Poissons Ratio (z) = 0.24504 0.17128
#
# Static dielectric constant tensor:
#      x y z
#    x 1.951840 0.000000 0.000000 
#    y 0.000000 1.994600 0.000000 
#    z 0.000000 0.000000 2.141590 
# 
# From -- ./inp_files/23657.got.cif
#   From: 2010.05.17/outbox.cif.g08.bks.cpg/sg20_12_cif.got.tgz:23657.got - 2010.06.03 22:52:26.
