data_PCOD9316530
_publ_section_title
;
Structure prediction by ZEFSAII (Michael W. Deem and Ramdas Pophale) SiO2 
 PCOD9316530
Probable space group: C 2 2 21
;
_chemical_formula_sum "Si O2"
_cell_formula_units_Z 48
_cell_length_a 9.915340
_cell_length_b 10.670046
_cell_length_c 16.308274
_cell_angle_alpha 90.000000
_cell_angle_beta 90.000000
_cell_angle_gamma 90.000000
_cell_volume 1725.368648
_symmetry_space_group_name_H-M "C 2 2 21"
_symmetry_group_IT_number 20
_symmetry_cell_setting 'orthorhombic'
loop_
_space_group_symop_operation_xyz
x,y,z
-x,-y,1/2+z
x,-y,-z
-x,y,1/2-z
1/2+x,1/2+y,z
1/2-x,1/2-y,1/2+z
1/2+x,1/2-y,-z
1/2-x,1/2+y,1/2-z
loop_
_atom_site_type_symbol
_atom_site_label
_atom_site_fract_x
_atom_site_fract_y
_atom_site_fract_z
Si Si1 0.791099 0.297354 0.297446
Si Si2 0.885338 0.941506 0.910561
Si Si3 0.860918 0.201301 0.455116
Si Si4 0.699549 0.268158 0.132497
Si Si5 0.500000 0.425730 0.750000
Si Si6 0.127036 0.508353 0.413204
Si Si7 0.500000 0.989501 0.750000
O O1 0.785317 0.301985 0.396692
O O2 0.674175 0.287534 0.228820
O O3 0.878671 0.170689 0.274937
O O4 0.879866 0.418258 0.277435
O O5 0.993210 0.829035 0.921360
O O6 0.949967 0.004125 0.829104
O O7 0.751652 0.872334 0.882550
O O8 0.878233 0.000000 0.000000
O O9 0.887904 0.213679 0.551457
O O10 0.759503 0.087009 0.437103
O O11 0.817180 0.372986 0.114646
O O12 0.047990 0.500000 0.500000
O O13 0.052940 0.570271 0.335173
#
# Coordination Sequence:
#
# PCOD9316530 Si02
#       7
#     8   8   8   8   4   8   4
#     4   8  15  30  50  68  90 129 166 199 242 295
#     4  10  18  32  53  74  96 130 167 206 247 293
#     4  10  18  32  53  76  98 130 174 209 241 297
#     4   9  18  33  51  73 102 133 167 202 250 308
#     4   7  14  28  48  65  88 122 162 191 234 297
#     4   9  17  30  50  73  96 129 169 201 239 301
#     4   9  16  32  52  69  94 134 172 205 250 297
#
# _framework density 27.820143000000002
#
# number of rings (size 3 to 8) (size 9 to 14) (size 15 to 20)
#    0.000    3.000    0.000    4.500    0.000    0.000 
#    0.000   16.667    0.000    4.000    0.000    0.000 
#    0.000    0.000    0.000    0.000    0.000    0.000 
#
# Total GULP energy -133836.843181 kJ/mol
# GULP energy per Si atom -5576.535133 kJ/mol
# Density = 2.775682 g / cm^3
# Si number density = 27.820143 Si / 1000 Ang^3
#
#
#
# Elastic Constant Matrix: (Units=GPa)
#
#
# Indices 1 2 3 4 5 6 
#
# 1 38.5999 14.6201 16.3704 0.0000 0.0000 0.0000
# 2 14.6201 50.2223 59.1536 0.0000 0.0000 0.0000
# 3 16.3704 59.1536 176.9267 0.0000 0.0000 0.0000
# 4 0.0000 0.0000 0.0000 66.6790 0.0000 0.0000
# 5 0.0000 0.0000 0.0000 0.0000 34.8271 0.0000
# 6 0.0000 0.0000 0.0000 0.0000 0.0000 13.0663
#
#
#
# Elastic Compliance Matrix: (Units=1/GPa)
#
#
# Indices 1 2 3 4 5 6 
#
# 1 0.029123 -0.008750 0.000231 0.000000 0.000000 0.000000
# 2 -0.008750 0.035475 -0.011051 0.000000 0.000000 0.000000
# 3 0.000231 -0.011051 0.009326 0.000000 0.000000 0.000000
# 4 0.000000 0.000000 0.000000 0.014997 0.000000 0.000000
# 5 0.000000 0.000000 0.000000 0.000000 0.028713 0.000000
# 6 0.000000 0.000000 0.000000 0.000000 0.000000 0.076533
#
#
# Mechanical properties :
#
#
# Convention : Reuss Voigt Hill
#
# Bulk Modulus (GPa) = 28.74943 49.55968 39.15455
# Shear Modulus (GPa) = 20.41639 34.62146 27.51892
#
# Velocity S-wave (km/s) = 2.71194 3.53154 3.14852
# Velocity P-wave (km/s) = 4.49028 5.87214 5.22708
#
# Compressibility (1/GPa) = 0.03478330
#
# Stress axis : x y z
#
# Youngs Moduli (GPa) = 34.33716 28.18890 107.23250
#
# Poissons Ratio (x) = 0.24664 -0.02474
# Poissons Ratio (y) = 0.30044 1.18504
# Poissons Ratio (z) = -0.00792 0.31152
#
# Static dielectric constant tensor:
#      x y z
#    x 2.146460 0.000000 0.000000 
#    y 0.000000 2.206220 0.000000 
#    z 0.000000 0.000000 2.340350 
# 
# From -- ./inp_files/20827.got.cif
#   From: 2010.05.17/outbox.cif.g08.bks.cpg/sg20_11_cif.got.tgz:20827.got - 2010.06.03 22:52:26.
