data_PCOD9316638
_publ_section_title
;
Structure prediction by ZEFSAII (Michael W. Deem and Ramdas Pophale) SiO2 
 PCOD9316638
Probable space group: C 2 2 21
;
_chemical_formula_sum "Si O2"
_cell_formula_units_Z 60
_cell_length_a 22.184186
_cell_length_b 12.158144
_cell_length_c 11.375238
_cell_angle_alpha 90.000000
_cell_angle_beta 90.000000
_cell_angle_gamma 90.000000
_cell_volume 3068.112448
_symmetry_space_group_name_H-M "C 2 2 21"
_symmetry_group_IT_number 20
_symmetry_cell_setting 'orthorhombic'
loop_
_space_group_symop_operation_xyz
x,y,z
-x,-y,1/2+z
x,-y,-z
-x,y,1/2-z
1/2+x,1/2+y,z
1/2-x,1/2-y,1/2+z
1/2+x,1/2-y,-z
1/2-x,1/2+y,1/2-z
loop_
_atom_site_type_symbol
_atom_site_label
_atom_site_fract_x
_atom_site_fract_y
_atom_site_fract_z
Si Si1 0.144174 0.179355 0.748006
Si Si2 0.828275 0.604824 0.829224
Si Si3 0.036090 0.292265 0.629103
Si Si4 0.442192 0.624316 0.534650
Si Si5 0.923488 0.500000 0.000000
Si Si6 0.344000 0.713359 0.359145
Si Si7 0.260364 0.775607 0.571962
Si Si8 0.779640 0.025491 0.206614
O O1 0.103010 0.252949 0.664295
O O2 0.100098 0.130166 0.849087
O O3 0.194389 0.248370 0.819046
O O4 0.177735 0.079061 0.684733
O O5 0.854350 0.692080 0.736127
O O6 0.790170 0.681222 0.919236
O O7 0.780787 0.523590 0.766016
O O8 0.880142 0.540768 0.895683
O O9 0.038176 0.398864 0.548413
O O10 0.000000 0.314831 0.750000
O O11 0.001003 0.194308 0.564360
O O12 0.455928 0.500000 0.500000
O O13 0.402944 0.678113 0.430600
O O14 0.296785 0.762009 0.452968
O O15 0.313820 0.607239 0.297678
O O16 0.235286 0.896258 0.597279
#
# Coordination Sequence:
#
# PCOD9316638 Si02
#       8
#     8   8   8   8   4   8   8   8
#     4   9  18  36  61  86 119 158 198 246 302 365
#     4  10  22  35  58  89 122 162 193 241 294 379
#     4  10  24  43  63  87 114 157 208 257 310 357
#     4  10  19  39  64  88 112 157 205 254 307 354
#     4  12  24  44  62  82 124 158 198 248 316 366
#     4  10  20  36  58  90 119 152 212 243 301 360
#     4   9  19  33  57  88 122 158 198 240 295 371
#     4  10  18  34  58  86 124 163 193 242 304 363
#
# _framework density 19.555997000000001
#
# number of rings (size 3 to 8) (size 9 to 14) (size 15 to 20)
#    0.000    2.133    1.333    1.600    0.000    3.733 
#    4.800    1.333    0.000    0.000    0.000    0.000 
#    0.000    0.000    0.000    0.000    0.000    0.000 
#
# Total GULP energy -167674.790236 kJ/mol
# GULP energy per Si atom -5589.159675 kJ/mol
# Density = 1.951149 g / cm^3
# Si number density = 19.555997 Si / 1000 Ang^3
#
#
#
# Elastic Constant Matrix: (Units=GPa)
#
#
# Indices 1 2 3 4 5 6 
#
# 1 46.2524 20.2557 11.0957 0.0000 0.0000 0.0000
# 2 20.2557 101.2669 25.4786 0.0000 0.0000 0.0000
# 3 11.0957 25.4786 47.5463 0.0000 0.0000 0.0000
# 4 0.0000 0.0000 0.0000 25.5515 0.0000 0.0000
# 5 0.0000 0.0000 0.0000 0.0000 9.1702 0.0000
# 6 0.0000 0.0000 0.0000 0.0000 0.0000 25.0545
#
#
#
# Elastic Compliance Matrix: (Units=1/GPa)
#
#
# Indices 1 2 3 4 5 6 
#
# 1 0.024198 -0.003952 -0.003529 0.000000 0.000000 0.000000
# 2 -0.003952 0.012059 -0.005540 0.000000 0.000000 0.000000
# 3 -0.003529 -0.005540 0.024824 0.000000 0.000000 0.000000
# 4 0.000000 0.000000 0.000000 0.039137 0.000000 0.000000
# 5 0.000000 0.000000 0.000000 0.000000 0.109049 0.000000
# 6 0.000000 0.000000 0.000000 0.000000 0.000000 0.039913
#
#
# Mechanical properties :
#
#
# Convention : Reuss Voigt Hill
#
# Bulk Modulus (GPa) = 28.53948 34.30282 31.42115
# Shear Modulus (GPa) = 17.42752 21.17094 19.29923
#
# Velocity S-wave (km/s) = 2.98847 3.29383 3.14486
# Velocity P-wave (km/s) = 5.15105 5.66080 5.41193
#
# Compressibility (1/GPa) = 0.03503918
#
# Stress axis : x y z
#
# Youngs Moduli (GPa) = 41.32578 82.92392 40.28300
#
# Poissons Ratio (x) = 0.32773 0.14216
# Poissons Ratio (y) = 0.16333 0.22316
# Poissons Ratio (z) = 0.14584 0.45939
#
# Static dielectric constant tensor:
#      x y z
#    x 1.669520 0.000000 0.000000 
#    y 0.000000 1.660850 0.000000 
#    z 0.000000 0.000000 1.687680 
# 
# From -- ./inp_files/16362.got.cif
#   From: 2010.05.17/outbox.cif.g08.bks.cpg/sg20_9_cif.got.tgz:16362.got - 2010.06.03 22:52:26.
