data_PCOD9316138
_publ_section_title
;
Structure prediction by ZEFSAII (Michael W. Deem and Ramdas Pophale) SiO2 
 PCOD9316138
Probable space group: P 21 21 21
;
_chemical_formula_sum "Si O2"
_cell_formula_units_Z 28
_cell_length_a 15.000000
_cell_length_b 15.000000
_cell_length_c 6.000000
_cell_angle_alpha 90.000000
_cell_angle_beta 90.000000
_cell_angle_gamma 90.000000
_cell_volume 1350.000000
_symmetry_space_group_name_H-M "P 21 21 21"
_symmetry_group_IT_number 19
_symmetry_cell_setting 'orthorhombic'
loop_
_space_group_symop_operation_xyz
x,y,z
1/2-x,-y,1/2+z
1/2+x,1/2-y,-z
-x,1/2+y,1/2-z
loop_
_atom_site_type_symbol
_atom_site_label
_atom_site_fract_x
_atom_site_fract_y
_atom_site_fract_z
Si Si1 0.360354 0.065341 0.652986
Si Si2 0.461080 0.222157 0.910066
Si Si3 0.826340 0.616906 0.076606
Si Si4 0.351037 0.688086 0.706345
Si Si5 0.523458 0.882783 0.940511
Si Si6 0.049533 0.471423 0.429159
Si Si7 0.850289 0.133105 0.829202
O O1 0.403284 0.137744 0.825241
O O2 0.267779 0.104079 0.551896
O O3 0.447487 0.049503 0.491437
O O4 0.334731 0.969372 0.760218
O O5 0.564499 0.196680 0.966025
O O6 0.475475 0.294787 0.713128
O O7 0.403744 0.279616 0.083317
O O8 0.827184 0.713030 0.200927
O O9 0.923708 0.615890 0.949412
O O10 0.395668 0.619099 0.884175
O O11 0.255448 0.646228 0.635717
O O12 0.613930 0.875669 0.079465
O O13 0.531428 0.973585 0.799257
O O14 0.108355 0.543200 0.562735
#
# Coordination Sequence:
#
# PCOD9316138 Si02
#       7
#     4   4   4   4   4   4   4
#     4  10  21  39  60  88 127 160 199 257 308 351
#     4   9  21  42  58  90 132 157 193 264 299 346
#     4  10  22  37  63  88 123 159 204 254 301 370
#     4  10  22  41  61  90 124 160 204 252 311 355
#     4   9  20  40  60  93 125 156 202 251 298 362
#     4   9  22  42  59  88 131 156 194 267 301 348
#     4  11  22  37  71  89 116 168 208 235 306 378
#
# _framework density 20.740741
#
# number of rings (size 3 to 8) (size 9 to 14) (size 15 to 20)
#    0.000    2.286    0.000    1.714    6.000    1.143 
#    0.000   10.000    0.000    0.000    0.000    0.000 
#    0.000    0.000    0.000    0.000    0.000    0.000 
#
# Total GULP energy -155989.629327 kJ/mol
# GULP energy per Si atom -5571.058190 kJ/mol
# Density = 2.069353 g / cm^3
# Si number density = 20.740741 Si / 1000 Ang^3
#
#
#
# Elastic Constant Matrix: (Units=GPa)
#
#
# Indices 1 2 3 4 5 6 
#
# 1 158.8636 3.0717 9.8872 0.0000 0.0000 0.0000
# 2 3.0717 121.0532 -1.9902 0.0000 0.0000 0.0000
# 3 9.8872 -1.9902 7.0264 0.0000 0.0000 0.0000
# 4 0.0000 0.0000 0.0000 14.3547 0.0000 0.0000
# 5 0.0000 0.0000 0.0000 0.0000 23.1868 0.0000
# 6 0.0000 0.0000 0.0000 0.0000 0.0000 45.7122
#
#
#
# Elastic Compliance Matrix: (Units=1/GPa)
#
#
# Indices 1 2 3 4 5 6 
#
# 1 0.006913 -0.000337 -0.009822 0.000000 0.000000 0.000000
# 2 -0.000337 0.008316 0.002830 0.000000 0.000000 0.000000
# 3 -0.009822 0.002830 0.156942 0.000000 0.000000 0.000000
# 4 0.000000 0.000000 0.000000 0.069664 0.000000 0.000000
# 5 0.000000 0.000000 0.000000 0.000000 0.043128 0.000000
# 6 0.000000 0.000000 0.000000 0.000000 0.000000 0.021876
#
#
# Mechanical properties :
#
#
# Convention : Reuss Voigt Hill
#
# Bulk Modulus (GPa) = 6.34875 34.32007 20.33441
# Shear Modulus (GPa) = 13.36893 35.04905 24.20899
#
# Velocity S-wave (km/s) = 2.54160 4.11526 3.42017
# Velocity P-wave (km/s) = 3.41769 6.25808 5.04203
#
# Compressibility (1/GPa) = 0.15751133
#
# Stress axis : x y z
#
# Youngs Moduli (GPa) = 144.66487 120.25160 6.37177
#
# Poissons Ratio (x) = 0.04051 0.06259
# Poissons Ratio (y) = 0.04874 -0.01803
# Poissons Ratio (z) = 1.42094 -0.34025
#
# Static dielectric constant tensor:
#      x y z
#    x 1.757370 0.000000 0.000000 
#    y 0.000000 1.738680 0.000000 
#    z 0.000000 0.000000 1.810390 
# 
# From -- ./inp_files/1488.got.cif
#   From: 2010.05.17/outbox.ucp.g08.bks.cvg/sg19_1_cif.got.tgz:1488.got - 2010.06.11 13:13:52.
