data_PCOD9316396
_publ_section_title
;
Structure prediction by ZEFSAII (Michael W. Deem and Ramdas Pophale) SiO2 
 PCOD9316396
Probable space group: C 2 2 21
;
_chemical_formula_sum "Si O2"
_cell_formula_units_Z 48
_cell_length_a 12.493335
_cell_length_b 13.901340
_cell_length_c 12.293999
_cell_angle_alpha 90.000000
_cell_angle_beta 90.000000
_cell_angle_gamma 90.000000
_cell_volume 2135.149182
_symmetry_space_group_name_H-M "C 2 2 21"
_symmetry_group_IT_number 20
_symmetry_cell_setting 'orthorhombic'
loop_
_space_group_symop_operation_xyz
x,y,z
-x,-y,1/2+z
x,-y,-z
-x,y,1/2-z
1/2+x,1/2+y,z
1/2-x,1/2-y,1/2+z
1/2+x,1/2-y,-z
1/2-x,1/2+y,1/2-z
loop_
_atom_site_type_symbol
_atom_site_label
_atom_site_fract_x
_atom_site_fract_y
_atom_site_fract_z
Si Si1 0.883398 0.889176 0.028861
Si Si2 0.683202 0.966174 0.127379
Si Si3 0.991398 0.278324 0.596342
Si Si4 0.114514 0.241362 0.309934
Si Si5 0.183362 0.654390 0.256654
Si Si6 0.955947 0.416142 0.084281
O O1 0.780030 0.891454 0.108992
O O2 0.977747 0.832447 0.088957
O O3 0.869967 0.827737 0.916629
O O4 0.906855 0.000000 0.000000
O O5 0.557734 0.952658 0.150875
O O6 0.711885 0.047519 0.215615
O O7 0.677288 0.000000 0.000000
O O8 0.094086 0.332748 0.650595
O O9 0.985978 0.329511 0.481498
O O10 0.882506 0.297892 0.657633
O O11 0.206319 0.209008 0.227175
O O12 0.128501 0.352727 0.348518
O O13 0.000000 0.231560 0.250000
O O14 0.920480 0.500000 0.000000
#
# Coordination Sequence:
#
# PCOD9316396 Si02
#       6
#     8   8   8   8   8   8
#     4  10  20  42  65  89 129 183 208 249 336 402
#     4  10  17  37  70  86 121 177 214 251 328 399
#     4  10  22  37  65  93 130 164 214 272 316 388
#     4  11  24  39  64  97 131 164 222 273 315 387
#     4  11  21  42  61  96 128 166 215 271 326 381
#     4  10  20  39  63  94 122 165 219 268 327 375
#
# _framework density 22.480864
#
# number of rings (size 3 to 8) (size 9 to 14) (size 15 to 20)
#    0.000    1.667    6.667    0.000    2.333    1.333 
#    6.000    0.833    0.000    0.000    0.000    0.000 
#    0.000    0.000    0.000    0.000    0.000    0.000 
#
# Total GULP energy -133680.162667 kJ/mol
# GULP energy per Si atom -5570.006778 kJ/mol
# Density = 2.242970 g / cm^3
# Si number density = 22.480864 Si / 1000 Ang^3
#
#
#
# Elastic Constant Matrix: (Units=GPa)
#
#
# Indices 1 2 3 4 5 6 
#
# 1 96.0273 25.3966 8.8266 0.0000 0.0000 0.0000
# 2 25.3966 136.2095 26.2533 0.0000 0.0000 0.0000
# 3 8.8266 26.2533 37.7318 0.0000 0.0000 0.0000
# 4 0.0000 0.0000 0.0000 39.2646 0.0000 0.0000
# 5 0.0000 0.0000 0.0000 0.0000 11.7850 0.0000
# 6 0.0000 0.0000 0.0000 0.0000 0.0000 35.7229
#
#
#
# Elastic Compliance Matrix: (Units=1/GPa)
#
#
# Indices 1 2 3 4 5 6 
#
# 1 0.011011 -0.001798 -0.001325 0.000000 0.000000 0.000000
# 2 -0.001798 0.008772 -0.005683 0.000000 0.000000 0.000000
# 3 -0.001325 -0.005683 0.030767 0.000000 0.000000 0.000000
# 4 0.000000 0.000000 0.000000 0.025468 0.000000 0.000000
# 5 0.000000 0.000000 0.000000 0.000000 0.084854 0.000000
# 6 0.000000 0.000000 0.000000 0.000000 0.000000 0.027993
#
#
# Mechanical properties :
#
#
# Convention : Reuss Voigt Hill
#
# Bulk Modulus (GPa) = 30.35940 43.43573 36.89756
# Shear Modulus (GPa) = 22.99312 31.32063 27.15688
#
# Velocity S-wave (km/s) = 3.20157 3.73663 3.47940
# Velocity P-wave (km/s) = 5.21542 6.16276 5.70878
#
# Compressibility (1/GPa) = 0.03293873
#
# Stress axis : x y z
#
# Youngs Moduli (GPa) = 90.81899 113.99687 32.50231
#
# Poissons Ratio (x) = 0.20492 0.04307
# Poissons Ratio (y) = 0.16326 0.18471
# Poissons Ratio (z) = 0.12034 0.64785
#
# Static dielectric constant tensor:
#      x y z
#    x 1.854670 0.000000 0.000000 
#    y 0.000000 1.934250 0.000000 
#    z 0.000000 0.000000 2.037960 
# 
# From -- ./inp_files/19914.got.cif
#   From: 2010.05.17/outbox.cif.g08.bks.cpg/sg20_10_cif.got.tgz:19914.got - 2010.06.03 22:52:26.
