data_PCOD9316744
_publ_section_title
;
Structure prediction by ZEFSAII (Michael W. Deem and Ramdas Pophale) SiO2 
 PCOD9316744
Probable space group: C 2 2 21
;
_chemical_formula_sum "Si O2"
_cell_formula_units_Z 48
_cell_length_a 9.607534
_cell_length_b 27.052948
_cell_length_c 9.176939
_cell_angle_alpha 90.000000
_cell_angle_beta 90.000000
_cell_angle_gamma 90.000000
_cell_volume 2385.197650
_symmetry_space_group_name_H-M "C 2 2 21"
_symmetry_group_IT_number 20
_symmetry_cell_setting 'orthorhombic'
loop_
_space_group_symop_operation_xyz
x,y,z
-x,-y,1/2+z
x,-y,-z
-x,y,1/2-z
1/2+x,1/2+y,z
1/2-x,1/2-y,1/2+z
1/2+x,1/2-y,-z
1/2-x,1/2+y,1/2-z
loop_
_atom_site_type_symbol
_atom_site_label
_atom_site_fract_x
_atom_site_fract_y
_atom_site_fract_z
Si Si1 0.500000 0.481885 0.750000
Si Si2 0.877833 0.390428 0.520523
Si Si3 0.225360 0.473909 0.160019
Si Si4 0.426869 0.385241 0.890966
Si Si5 0.422797 0.294234 0.097017
Si Si6 0.000000 0.544093 0.250000
Si Si7 0.913496 0.715546 0.599783
O O1 0.627444 0.518236 0.731377
O O2 0.489735 0.441124 0.882909
O O3 0.828955 0.419391 0.375182
O O4 0.739969 0.390165 0.623506
O O5 0.928277 0.336325 0.484543
O O6 0.989060 0.422170 0.608094
O O7 0.126975 0.506864 0.258290
O O8 0.224452 0.500000 0.000000
O O9 0.500000 0.360932 0.750000
O O10 0.438798 0.349258 0.028041
O O11 0.500000 0.292472 0.250000
O O12 0.257137 0.279906 0.111275
O O13 0.509097 0.257875 0.991694
O O14 0.000000 0.712508 0.750000
#
# Coordination Sequence:
#
# PCOD9316744 Si02
#       7
#     4   8   8   8   8   4   8
#     4  10  18  38  66  91 123 182 216 268 332 382
#     4  10  22  40  64  93 133 173 223 277 336 404
#     4  10  19  38  60  89 131 167 217 270 326 391
#     4   9  18  39  66  92 129 173 218 272 331 398
#     4  11  24  44  70 100 133 177 222 283 345 407
#     4  10  18  36  64  87 119 174 216 272 320 396
#     4  11  25  47  67  99 135 178 223 287 345 414
#
# _framework density 20.124117999999999
#
# number of rings (size 3 to 8) (size 9 to 14) (size 15 to 20)
#    0.500    1.333    3.333    1.500    2.333    1.333 
#   15.000    2.500    0.000    0.000    0.000    0.000 
#    0.000    0.000    0.000    0.000    0.000    0.000 
#
# Total GULP energy -133663.327474 kJ/mol
# GULP energy per Si atom -5569.305311 kJ/mol
# Density = 2.007831 g / cm^3
# Si number density = 20.124118 Si / 1000 Ang^3
#
#
#
# Elastic Constant Matrix: (Units=GPa)
#
#
# Indices 1 2 3 4 5 6 
#
# 1 112.0295 28.0680 52.4059 0.0000 0.0000 0.0000
# 2 28.0680 80.5762 15.6217 0.0000 0.0000 0.0000
# 3 52.4059 15.6217 61.9278 0.0000 0.0000 0.0000
# 4 0.0000 0.0000 0.0000 17.6812 0.0000 0.0000
# 5 0.0000 0.0000 0.0000 0.0000 38.8411 0.0000
# 6 0.0000 0.0000 0.0000 0.0000 0.0000 26.4076
#
#
#
# Elastic Compliance Matrix: (Units=1/GPa)
#
#
# Indices 1 2 3 4 5 6 
#
# 1 0.015431 -0.002990 -0.012304 0.000000 0.000000 0.000000
# 2 -0.002990 0.013628 -0.000908 0.000000 0.000000 0.000000
# 3 -0.012304 -0.000908 0.026789 0.000000 0.000000 0.000000
# 4 0.000000 0.000000 0.000000 0.056557 0.000000 0.000000
# 5 0.000000 0.000000 0.000000 0.000000 0.025746 0.000000
# 6 0.000000 0.000000 0.000000 0.000000 0.000000 0.037868
#
#
# Mechanical properties :
#
#
# Convention : Reuss Voigt Hill
#
# Bulk Modulus (GPa) = 42.65323 49.63608 46.14466
# Shear Modulus (GPa) = 23.12273 27.14850 25.13562
#
# Velocity S-wave (km/s) = 3.39338 3.67693 3.53800
# Velocity P-wave (km/s) = 6.04933 6.53796 6.29839
#
# Compressibility (1/GPa) = 0.02344488
#
# Stress axis : x y z
#
# Youngs Moduli (GPa) = 64.80453 73.37807 37.32861
#
# Poissons Ratio (x) = 0.21939 0.45930
# Poissons Ratio (y) = 0.19375 0.03388
# Poissons Ratio (z) = 0.79737 0.06660
#
# Static dielectric constant tensor:
#      x y z
#    x 1.679780 0.000000 0.000000 
#    y 0.000000 1.724220 0.000000 
#    z 0.000000 0.000000 1.734190 
# 
# From -- ./inp_files/6573.got.cif
#   From: 2010.05.17/outbox.cif.g08.bks.cpg/sg20_4_cif.got.tgz:6573.got - 2010.06.03 22:52:26.
