data_PCOD9316490
_publ_section_title
;
Structure prediction by ZEFSAII (Michael W. Deem and Ramdas Pophale) SiO2 
 PCOD9316490
Probable space group: C 2 2 21
;
_chemical_formula_sum "Si O2"
_cell_formula_units_Z 32
_cell_length_a 8.600691
_cell_length_b 30.178407
_cell_length_c 5.458171
_cell_angle_alpha 90.000000
_cell_angle_beta 90.000000
_cell_angle_gamma 90.000000
_cell_volume 1416.696412
_symmetry_space_group_name_H-M "C 2 2 21"
_symmetry_group_IT_number 20
_symmetry_cell_setting 'orthorhombic'
loop_
_space_group_symop_operation_xyz
x,y,z
-x,-y,1/2+z
x,-y,-z
-x,y,1/2-z
1/2+x,1/2+y,z
1/2-x,1/2-y,1/2+z
1/2+x,1/2-y,-z
1/2-x,1/2+y,1/2-z
loop_
_atom_site_type_symbol
_atom_site_label
_atom_site_fract_x
_atom_site_fract_y
_atom_site_fract_z
Si Si1 0.693144 0.587783 0.995604
Si Si2 0.598128 0.223459 0.997243
Si Si3 0.677088 0.318860 0.820805
Si Si4 0.661281 0.552222 0.497372
O O1 0.729138 0.639630 0.020229
O O2 0.746698 0.565198 0.247557
O O3 0.748595 0.566855 0.742842
O O4 0.505971 0.577471 0.998334
O O5 0.500000 0.225622 0.250000
O O6 0.726927 0.187554 0.070489
O O7 0.500000 0.214816 0.750000
O O8 0.676087 0.271611 0.957410
O O9 0.500000 0.327349 0.750000
O O10 0.628226 0.500000 0.500000
#
# Coordination Sequence:
#
# PCOD9316490 Si02
#       4
#     8   8   8   8
#     4  10  19  29  51  79 109 158 203 245 295 398
#     4  11  26  42  60  87 128 170 214 290 337 379
#     4  11  22  40  63  88 117 166 231 268 323 385
#     4  10  18  31  47  80 126 160 181 251 333 390
#
# _framework density 22.587762999999999
#
# number of rings (size 3 to 8) (size 9 to 14) (size 15 to 20)
#    0.000    1.500    2.500    6.750    3.500    4.000 
#    0.000    0.000    0.000    0.000    0.000    0.000 
#    0.000    8.000    0.000    3.000    0.000    0.500 
#
# Total GULP energy -89368.940378 kJ/mol
# GULP energy per Si atom -5585.558774 kJ/mol
# Density = 2.253635 g / cm^3
# Si number density = 22.587763 Si / 1000 Ang^3
#
#
#
# Elastic Constant Matrix: (Units=GPa)
#
#
# Indices 1 2 3 4 5 6 
#
# 1 45.9261 26.3401 42.1419 0.0000 0.0000 0.0000
# 2 26.3401 138.8270 64.4632 0.0000 0.0000 0.0000
# 3 42.1419 64.4632 237.1022 0.0000 0.0000 0.0000
# 4 0.0000 0.0000 0.0000 37.3325 0.0000 0.0000
# 5 0.0000 0.0000 0.0000 0.0000 14.5865 0.0000
# 6 0.0000 0.0000 0.0000 0.0000 0.0000 3.4487
#
#
#
# Elastic Compliance Matrix: (Units=1/GPa)
#
#
# Indices 1 2 3 4 5 6 
#
# 1 0.027315 -0.003351 -0.003944 0.000000 0.000000 0.000000
# 2 -0.003351 0.008655 -0.001758 0.000000 0.000000 0.000000
# 3 -0.003944 -0.001758 0.005396 0.000000 0.000000 0.000000
# 4 0.000000 0.000000 0.000000 0.026786 0.000000 0.000000
# 5 0.000000 0.000000 0.000000 0.000000 0.068557 0.000000
# 6 0.000000 0.000000 0.000000 0.000000 0.000000 0.289968
#
#
# Mechanical properties :
#
#
# Convention : Reuss Voigt Hill
#
# Bulk Modulus (GPa) = 42.98973 76.41620 59.70297
# Shear Modulus (GPa) = 11.04884 30.33422 20.69153
#
# Velocity S-wave (km/s) = 2.21408 3.66860 3.02992
# Velocity P-wave (km/s) = 5.06061 7.20063 6.22330
#
# Compressibility (1/GPa) = 0.02326137
#
# Stress axis : x y z
#
# Youngs Moduli (GPa) = 36.60998 115.53820 185.30974
#
# Poissons Ratio (x) = 0.38720 0.73081
# Poissons Ratio (y) = 0.12269 0.32568
# Poissons Ratio (z) = 0.14438 0.20306
#
# Static dielectric constant tensor:
#      x y z
#    x 1.860490 0.000000 0.000000 
#    y 0.000000 1.805070 0.000000 
#    z 0.000000 0.000000 1.915690 
# 
# From -- ./inp_files/555.got.cif
#   From: 2010.05.17/outbox.cif.g08.bks.cpg/sg20_1_cif.got.tgz:555.got - 2010.06.03 22:52:26.
