data_PCOD9316570
_publ_section_title
;
Structure prediction by ZEFSAII (Michael W. Deem and Ramdas Pophale) SiO2 
 PCOD9316570
Probable space group: C 2 2 21
;
_chemical_formula_sum "Si O2"
_cell_formula_units_Z 48
_cell_length_a 9.651080
_cell_length_b 12.244124
_cell_length_c 14.997919
_cell_angle_alpha 90.000000
_cell_angle_beta 90.000000
_cell_angle_gamma 90.000000
_cell_volume 1772.289394
_symmetry_space_group_name_H-M "C 2 2 21"
_symmetry_group_IT_number 20
_symmetry_cell_setting 'orthorhombic'
loop_
_space_group_symop_operation_xyz
x,y,z
-x,-y,1/2+z
x,-y,-z
-x,y,1/2-z
1/2+x,1/2+y,z
1/2-x,1/2-y,1/2+z
1/2+x,1/2-y,-z
1/2-x,1/2+y,1/2-z
loop_
_atom_site_type_symbol
_atom_site_label
_atom_site_fract_x
_atom_site_fract_y
_atom_site_fract_z
Si Si1 0.897020 0.180341 0.646044
Si Si2 0.280511 0.644120 0.443406
Si Si3 0.401009 0.857045 0.414159
Si Si4 0.477174 0.084806 0.393287
Si Si5 0.944536 0.020267 0.103857
Si Si6 0.621723 0.262861 0.678065
O O1 0.834914 0.157803 0.545272
O O2 0.956509 0.301961 0.656476
O O3 0.753959 0.190066 0.700534
O O4 0.019348 0.092290 0.653045
O O5 0.283056 0.766540 0.402855
O O6 0.404436 0.577567 0.397790
O O7 0.138731 0.582548 0.421990
O O8 0.393777 0.893488 0.515776
O O9 0.545080 0.789573 0.407293
O O10 0.423894 0.967810 0.358371
O O11 0.850548 0.110183 0.153981
O O12 0.904352 0.000000 0.000000
O O13 0.500000 0.256584 0.750000
#
# Coordination Sequence:
#
# PCOD9316570 Si02
#       6
#     8   8   8   8   8   8
#     4  10  20  34  55  86 114 149 196 240 298 363
#     4   9  17  31  56  84 114 139 187 252 296 336
#     4   9  19  33  53  88 110 147 189 232 298 349
#     4  10  18  32  58  86 117 139 189 253 293 343
#     4   9  20  37  63  87 112 155 203 252 297 352
#     4  11  22  40  60  82 122 162 198 243 305 366
#
# _framework density 27.083611999999999
#
# number of rings (size 3 to 8) (size 9 to 14) (size 15 to 20)
#    0.000    2.333    1.667    2.000    4.667    1.333 
#    6.000    0.000    0.000    0.000    0.000    0.000 
#    0.000    0.000    0.000    0.000    0.000    0.000 
#
# Total GULP energy -134063.682376 kJ/mol
# GULP energy per Si atom -5585.986766 kJ/mol
# Density = 2.702197 g / cm^3
# Si number density = 27.083612 Si / 1000 Ang^3
#
#
#
# Elastic Constant Matrix: (Units=GPa)
#
#
# Indices 1 2 3 4 5 6 
#
# 1 93.5807 36.4926 3.7950 0.0000 0.0000 0.0000
# 2 36.4926 216.4472 6.5920 0.0000 0.0000 0.0000
# 3 3.7950 6.5920 73.2446 0.0000 0.0000 0.0000
# 4 0.0000 0.0000 0.0000 -5.4173 0.0000 0.0000
# 5 0.0000 0.0000 0.0000 0.0000 21.2501 0.0000
# 6 0.0000 0.0000 0.0000 0.0000 0.0000 38.9261
#
#
#
# Elastic Compliance Matrix: (Units=1/GPa)
#
#
# Indices 1 2 3 4 5 6 
#
# 1 0.011451 -0.001918 -0.000421 0.000000 0.000000 0.000000
# 2 -0.001918 0.004954 -0.000346 0.000000 0.000000 0.000000
# 3 -0.000421 -0.000346 0.013706 0.000000 0.000000 0.000000
# 4 0.000000 0.000000 0.000000 -0.184595 0.000000 0.000000
# 5 0.000000 0.000000 0.000000 0.000000 0.047059 0.000000
# 6 0.000000 0.000000 0.000000 0.000000 0.000000 0.025690
#
#
# Mechanical properties :
#
#
# Convention : Reuss Voigt Hill
#
# Bulk Modulus (GPa) = 40.41914 53.00352 46.71133
# Shear Modulus (GPa) = -73.40101 33.37798 -20.01152
#
# Velocity S-wave (km/s) = -5.21157 3.51437 -2.72118
# Velocity P-wave (km/s) = 4.61061 6.00671 2.72239
#
# Compressibility (1/GPa) = 0.02474076
#
# Stress axis : x y z
#
# Youngs Moduli (GPa) = 87.32954 201.85907 72.96149
#
# Poissons Ratio (x) = 0.38712 0.03069
# Poissons Ratio (y) = 0.16748 0.02528
# Poissons Ratio (z) = 0.03674 0.06994
#
# Static dielectric constant tensor:
#      x y z
#    x 2.090460 0.000000 0.000000 
#    y 0.000000 2.204600 0.000000 
#    z 0.000000 0.000000 2.220680 
# 
# From -- ./inp_files/24244.got.cif
#   From: 2010.05.17/outbox.cif.g08.bks.cpg/sg20_13_cif.got.tgz:24244.got - 2010.06.03 22:52:26.
