data_PCOD9316095
_publ_section_title
;
Structure prediction by ZEFSAII (Michael W. Deem and Ramdas Pophale) SiO2 
 PCOD9316095
Probable space group: P 21 21 21
;
_chemical_formula_sum "Si O2"
_cell_formula_units_Z 28
_cell_length_a 13.961291
_cell_length_b 8.284992
_cell_length_c 9.178393
_cell_angle_alpha 90.000000
_cell_angle_beta 90.000000
_cell_angle_gamma 90.000000
_cell_volume 1061.657231
_symmetry_space_group_name_H-M "P 21 21 21"
_symmetry_group_IT_number 19
_symmetry_cell_setting 'orthorhombic'
loop_
_space_group_symop_operation_xyz
x,y,z
1/2-x,-y,1/2+z
1/2+x,1/2-y,-z
-x,1/2+y,1/2-z
loop_
_atom_site_type_symbol
_atom_site_label
_atom_site_fract_x
_atom_site_fract_y
_atom_site_fract_z
Si Si1 0.430812 0.913114 0.952772
Si Si2 0.109843 0.933805 0.733734
Si Si3 0.962367 0.182557 0.172846
Si Si4 0.723826 0.614415 0.648797
Si Si5 0.189919 0.582932 0.809608
Si Si6 0.936817 0.940144 0.923386
Si Si7 0.662061 0.152954 0.925843
O O1 0.443802 0.740695 0.023659
O O2 0.441163 0.048936 0.077961
O O3 0.500975 0.910571 0.815517
O O4 0.322216 0.945562 0.903770
O O5 0.136515 0.752703 0.779149
O O6 0.036237 0.994131 0.853246
O O7 0.197912 0.057476 0.736633
O O8 0.058894 0.267513 0.109541
O O9 0.920279 0.061059 0.054176
O O10 0.871198 0.296111 0.207560
O O11 0.791684 0.887537 0.268436
O O12 0.773289 0.715244 0.517437
O O13 0.140961 0.453858 0.702094
O O14 0.174178 0.505854 0.969091
#
# Coordination Sequence:
#
# PCOD9316095 Si02
#       7
#     4   4   4   4   4   4   4
#     4  12  28  48  83 120 166 218 288 351 431 509
#     4  12  27  53  83 122 166 228 285 353 435 515
#     4  12  28  53  83 124 169 220 286 359 431 517
#     4  12  27  51  84 118 170 219 285 351 432 508
#     4  12  29  51  81 118 168 222 287 354 427 525
#     4  12  27  50  81 125 164 227 278 354 438 508
#     4  12  28  54  77 121 169 222 287 350 432 512
#
# _framework density 26.373860000000001
#
# number of rings (size 3 to 8) (size 9 to 14) (size 15 to 20)
#    0.000    0.000    4.286    3.429   10.000    2.286 
#    2.571    0.000    0.000    0.000    0.000    0.000 
#    0.000    0.000    0.000    0.000    0.000    0.000 
#
# Total GULP energy -156933.435120 kJ/mol
# GULP energy per Si atom -5604.765540 kJ/mol
# Density = 2.631383 g / cm^3
# Si number density = 26.373860 Si / 1000 Ang^3
#
#
#
# Elastic Constant Matrix: (Units=GPa)
#
#
# Indices 1 2 3 4 5 6 
#
# 1 118.4828 47.5852 42.4462 0.0000 0.0000 0.0000
# 2 47.5852 94.8317 53.4678 0.0000 0.0000 0.0000
# 3 42.4462 53.4678 123.0713 0.0000 0.0000 0.0000
# 4 0.0000 0.0000 0.0000 47.2741 0.0000 0.0000
# 5 0.0000 0.0000 0.0000 0.0000 43.7449 0.0000
# 6 0.0000 0.0000 0.0000 0.0000 0.0000 47.7232
#
#
#
# Elastic Compliance Matrix: (Units=1/GPa)
#
#
# Indices 1 2 3 4 5 6 
#
# 1 0.010872 -0.004425 -0.001827 0.000000 0.000000 0.000000
# 2 -0.004425 0.015767 -0.005324 0.000000 0.000000 0.000000
# 3 -0.001827 -0.005324 0.011068 0.000000 0.000000 0.000000
# 4 0.000000 0.000000 0.000000 0.021153 0.000000 0.000000
# 5 0.000000 0.000000 0.000000 0.000000 0.022860 0.000000
# 6 0.000000 0.000000 0.000000 0.000000 0.000000 0.020954
#
#
# Mechanical properties :
#
#
# Convention : Reuss Voigt Hill
#
# Bulk Modulus (GPa) = 68.70352 69.26491 68.98422
# Shear Modulus (GPa) = 38.26188 40.60757 39.43472
#
# Velocity S-wave (km/s) = 3.81300 3.92815 3.87100
# Velocity P-wave (km/s) = 6.74476 6.84788 6.79651
#
# Compressibility (1/GPa) = 0.01455529
#
# Stress axis : x y z
#
# Youngs Moduli (GPa) = 91.98069 63.42313 90.34730
#
# Poissons Ratio (x) = 0.28066 0.16507
# Poissons Ratio (y) = 0.40703 0.48099
# Poissons Ratio (z) = 0.16806 0.33765
#
# Static dielectric constant tensor:
#      x y z
#    x 2.073300 0.000000 0.000000 
#    y 0.000000 2.079730 0.000000 
#    z 0.000000 0.000000 2.043770 
# 
# From -- ./inp_files/6070.got.cif
#   From: 2010.05.17/outbox.cif.g08.bks.cpg/sg19_4_cif.got.tgz:6070.got - 2010.06.03 22:46:19.
