data_PCOD9316231
_publ_section_title
;
Structure prediction by ZEFSAII (Michael W. Deem and Ramdas Pophale) SiO2 
 PCOD9316231
Probable space group: C 2 2 21
;
_chemical_formula_sum "Si O2"
_cell_formula_units_Z 64
_cell_length_a 33.055930
_cell_length_b 5.592311
_cell_length_c 18.605072
_cell_angle_alpha 90.000000
_cell_angle_beta 90.000000
_cell_angle_gamma 90.000000
_cell_volume 3439.315767
_symmetry_space_group_name_H-M "C 2 2 21"
_symmetry_group_IT_number 20
_symmetry_cell_setting 'orthorhombic'
loop_
_space_group_symop_operation_xyz
x,y,z
-x,-y,1/2+z
x,-y,-z
-x,y,1/2-z
1/2+x,1/2+y,z
1/2-x,1/2-y,1/2+z
1/2+x,1/2-y,-z
1/2-x,1/2+y,1/2-z
loop_
_atom_site_type_symbol
_atom_site_label
_atom_site_fract_x
_atom_site_fract_y
_atom_site_fract_z
Si Si1 0.987694 0.347911 0.164797
Si Si2 0.826183 0.425050 0.073696
Si Si3 0.197652 0.908392 0.173466
Si Si4 0.769145 0.749402 0.176558
Si Si5 0.249358 0.355618 0.933400
Si Si6 0.606461 0.165735 0.688626
Si Si7 0.389887 0.337520 0.277661
Si Si8 0.480097 0.654588 0.669581
O O1 0.939362 0.352601 0.160338
O O2 0.000000 0.348778 0.250000
O O3 0.004952 0.597518 0.134751
O O4 0.005621 0.097391 0.136080
O O5 0.798828 0.595335 0.125460
O O6 0.790670 0.262382 0.040222
O O7 0.859629 0.323709 0.127190
O O8 0.848117 0.500000 0.000000
O O9 0.211836 0.765581 0.244890
O O10 0.215804 0.814926 0.099127
O O11 0.149797 0.887283 0.174929
O O12 0.223250 0.151813 0.183250
O O13 0.764613 0.995989 0.135129
O O14 0.232337 0.500000 0.000000
O O15 0.608509 0.422042 0.728788
O O16 0.613312 0.919571 0.735581
O O17 0.432069 0.334058 0.319991
O O18 0.500000 0.653471 0.750000
#
# Coordination Sequence:
#
# PCOD9316231 Si02
#       8
#     8   8   8   8   8   8   8   8
#     4  10  16  31  50  79 114 151 183 219 289 362
#     4  11  24  38  56  81 115 161 202 240 300 368
#     4  11  24  33  57  87 112 150 198 253 299 344
#     4  11  21  39  55  79 114 151 193 244 298 355
#     4  11  23  42  61  77 115 163 203 240 301 373
#     4  12  22  33  56  85 121 154 190 246 294 357
#     4  12  22  34  54  87 122 148 193 253 303 339
#     4  10  16  31  50  76 117 151 183 222 295 363
#
# _framework density 18.608353000000001
#
# number of rings (size 3 to 8) (size 9 to 14) (size 15 to 20)
#    0.000    1.000    8.750    0.750    3.500    0.000 
#    0.000    0.000    0.000    0.000    0.000    0.875 
#    0.000    0.000    0.000    0.000    0.000    0.000 
#
# Total GULP energy -178147.366738 kJ/mol
# GULP energy per Si atom -5567.105211 kJ/mol
# Density = 1.856600 g / cm^3
# Si number density = 18.608353 Si / 1000 Ang^3
#
#
#
# Elastic Constant Matrix: (Units=GPa)
#
#
# Indices 1 2 3 4 5 6 
#
# 1 121.7463 8.5082 10.0337 0.0000 0.0000 0.0000
# 2 8.5082 101.4116 7.7985 0.0000 0.0000 0.0000
# 3 10.0337 7.7985 31.8589 0.0000 0.0000 0.0000
# 4 0.0000 0.0000 0.0000 16.7667 0.0000 0.0000
# 5 0.0000 0.0000 0.0000 0.0000 3.3673 0.0000
# 6 0.0000 0.0000 0.0000 0.0000 0.0000 83.0007
#
#
#
# Elastic Compliance Matrix: (Units=1/GPa)
#
#
# Indices 1 2 3 4 5 6 
#
# 1 0.008459 -0.000515 -0.002538 0.000000 0.000000 0.000000
# 2 -0.000515 0.010081 -0.002306 0.000000 0.000000 0.000000
# 3 -0.002538 -0.002306 0.032752 0.000000 0.000000 0.000000
# 4 0.000000 0.000000 0.000000 0.059642 0.000000 0.000000
# 5 0.000000 0.000000 0.000000 0.000000 0.296975 0.000000
# 6 0.000000 0.000000 0.000000 0.000000 0.000000 0.012048
#
#
# Mechanical properties :
#
#
# Convention : Reuss Voigt Hill
#
# Bulk Modulus (GPa) = 24.64527 34.18861 29.41694
# Shear Modulus (GPa) = 11.25621 35.87205 23.56413
#
# Velocity S-wave (km/s) = 2.46214 4.39537 3.56240
# Velocity P-wave (km/s) = 4.62123 6.64617 5.72396
#
# Compressibility (1/GPa) = 0.04057574
#
# Stress axis : x y z
#
# Youngs Moduli (GPa) = 118.21821 99.19384 30.53239
#
# Poissons Ratio (x) = 0.05104 0.07749
# Poissons Ratio (y) = 0.06082 0.07040
# Poissons Ratio (z) = 0.30005 0.22871
#
# Static dielectric constant tensor:
#      x y z
#    x 1.613030 0.000000 0.000000 
#    y 0.000000 1.775890 0.000000 
#    z 0.000000 0.000000 1.623060 
# 
# From -- ./inp_files/25757.got.cif
#   From: 2010.05.17/outbox.cif.g08.bks.cpg/sg20_13_cif.got.tgz:25757.got - 2010.06.03 22:52:26.
