data_PCOD9316203
_publ_section_title
;
Structure prediction by ZEFSAII (Michael W. Deem and Ramdas Pophale) SiO2 
 PCOD9316203
Probable space group: C 2 2 21
;
_chemical_formula_sum "Si O2"
_cell_formula_units_Z 28
_cell_length_a 7.353298
_cell_length_b 32.506847
_cell_length_c 5.324396
_cell_angle_alpha 90.000000
_cell_angle_beta 90.000000
_cell_angle_gamma 90.000000
_cell_volume 1272.703863
_symmetry_space_group_name_H-M "C 2 2 21"
_symmetry_group_IT_number 20
_symmetry_cell_setting 'orthorhombic'
loop_
_space_group_symop_operation_xyz
x,y,z
-x,-y,1/2+z
x,-y,-z
-x,y,1/2-z
1/2+x,1/2+y,z
1/2-x,1/2-y,1/2+z
1/2+x,1/2-y,-z
1/2-x,1/2+y,1/2-z
loop_
_atom_site_type_symbol
_atom_site_label
_atom_site_fract_x
_atom_site_fract_y
_atom_site_fract_z
Si Si1 0.308665 0.898507 0.969369
Si Si2 0.703684 0.226749 0.848279
Si Si3 0.225353 0.365774 0.029320
Si Si4 0.000000 0.475041 0.750000
O O1 0.205709 0.875541 0.747474
O O2 0.350468 0.943987 0.867586
O O3 0.506289 0.875418 0.000863
O O4 0.220278 0.895163 0.241255
O O5 0.500000 0.222633 0.750000
O O6 0.798717 0.249621 0.614625
O O7 0.770300 0.180573 0.896581
O O8 0.939158 0.500000 0.500000
#
# Coordination Sequence:
#
# PCOD9316203 Si02
#       4
#     8   8   8   4
#     4   9  16  26  46  56  90 128 166 196 238 307
#     4  12  24  36  55  76 103 132 177 236 273 302
#     4   9  16  30  45  62  85 120 175 200 229 313
#     4  10  16  22  34  62  90 118 164 202 238 282
#
# _framework density 22.000402000000001
#
# number of rings (size 3 to 8) (size 9 to 14) (size 15 to 20)
#    0.000    2.286    2.857    6.000    4.000    0.000 
#    0.000    0.000    0.000    0.000    0.000    0.000 
#    0.000    0.000    0.000    0.000    0.000 1688.572 
#
# Total GULP energy -78011.501207 kJ/mol
# GULP energy per Si atom -5572.250086 kJ/mol
# Density = 2.195033 g / cm^3
# Si number density = 22.000402 Si / 1000 Ang^3
#
#
#
# Elastic Constant Matrix: (Units=GPa)
#
#
# Indices 1 2 3 4 5 6 
#
# 1 37.3460 -0.6394 7.7637 0.0000 0.0000 0.0000
# 2 -0.6394 133.7326 76.1186 0.0000 0.0000 0.0000
# 3 7.7637 76.1186 248.6461 0.0000 0.0000 0.0000
# 4 0.0000 0.0000 0.0000 40.7201 0.0000 0.0000
# 5 0.0000 0.0000 0.0000 0.0000 -0.4208 0.0000
# 6 0.0000 0.0000 0.0000 0.0000 0.0000 3.7608
#
#
#
# Elastic Compliance Matrix: (Units=1/GPa)
#
#
# Indices 1 2 3 4 5 6 
#
# 1 0.027012 0.000738 -0.001069 0.000000 0.000000 0.000000
# 2 0.000738 0.009076 -0.002801 0.000000 0.000000 0.000000
# 3 -0.001069 -0.002801 0.004913 0.000000 0.000000 0.000000
# 4 0.000000 0.000000 0.000000 0.024558 0.000000 0.000000
# 5 0.000000 0.000000 0.000000 0.000000 -2.376552 0.000000
# 6 0.000000 0.000000 0.000000 0.000000 0.000000 0.265904
#
#
# Mechanical properties :
#
#
# Convention : Reuss Voigt Hill
#
# Bulk Modulus (GPa) = 28.79007 65.13451 46.96229
# Shear Modulus (GPa) = -2.46640 31.24413 14.38886
#
# Velocity S-wave (km/s) = -1.05995 3.77259 2.56017
# Velocity P-wave (km/s) = 3.40831 6.97473 5.48924
#
# Compressibility (1/GPa) = 0.03473420
#
# Stress axis : x y z
#
# Youngs Moduli (GPa) = 37.02117 110.18501 203.55152
#
# Poissons Ratio (x) = -0.08129 0.21765
# Poissons Ratio (y) = -0.02731 0.57023
# Poissons Ratio (z) = 0.03959 0.30867
#
# Static dielectric constant tensor:
#      x y z
#    x 3.484440 0.000000 0.000000 
#    y 0.000000 1.823450 0.000000 
#    z 0.000000 0.000000 1.763310 
# 
# From -- ./inp_files/510.got.cif
#   From: 2010.05.17/outbox.cif.g08.bks.cpg/sg20_1_cif.got.tgz:510.got - 2010.06.03 22:52:26.
