data_PCOD9316068
_publ_section_title
;
Structure prediction by ZEFSAII (Michael W. Deem and Ramdas Pophale) SiO2 
 PCOD9316068
Probable space group: P 21 21 21
;
_chemical_formula_sum "Si O2"
_cell_formula_units_Z 24
_cell_length_a 5.171284
_cell_length_b 9.562280
_cell_length_c 17.686821
_cell_angle_alpha 90.000000
_cell_angle_beta 90.000000
_cell_angle_gamma 90.000000
_cell_volume 874.600309
_symmetry_space_group_name_H-M "P 21 21 21"
_symmetry_group_IT_number 19
_symmetry_cell_setting 'orthorhombic'
loop_
_space_group_symop_operation_xyz
x,y,z
1/2-x,-y,1/2+z
1/2+x,1/2-y,-z
-x,1/2+y,1/2-z
loop_
_atom_site_type_symbol
_atom_site_label
_atom_site_fract_x
_atom_site_fract_y
_atom_site_fract_z
Si Si1 0.821456 0.588157 0.158394
Si Si2 0.325129 0.391156 0.799213
Si Si3 0.502519 0.831798 0.529191
Si Si4 0.802094 0.061829 0.469067
Si Si5 0.022430 0.131632 0.752201
Si Si6 0.929746 0.678543 0.903219
O O1 0.625427 0.469189 0.183511
O O2 0.658518 0.714683 0.122288
O O3 0.969875 0.639422 0.233106
O O4 0.030490 0.518440 0.102511
O O5 0.442257 0.358115 0.881728
O O6 0.078583 0.287013 0.784055
O O7 0.228579 0.548838 0.779864
O O8 0.235472 0.759692 0.507163
O O9 0.542775 0.979347 0.486232
O O10 0.757340 0.224790 0.451595
O O11 0.964059 0.055270 0.545958
O O12 0.190803 0.127293 0.674611
#
# Coordination Sequence:
#
# PCOD9316068 Si02
#       6
#     4   4   4   4   4   4
#     4  12  27  47  79 111 158 199 270 335 402 481
#     4  12  29  48  80 113 157 213 264 336 406 487
#     4  12  32  52  80 117 168 219 269 336 413 488
#     4  12  26  50  79 112 155 208 267 334 404 490
#     4  12  26  48  73 114 153 200 263 332 400 481
#     4  12  26  47  77 113 151 205 269 327 407 485
#
# _framework density 27.441105
#
# number of rings (size 3 to 8) (size 9 to 14) (size 15 to 20)
#    0.000    0.000    6.667    1.000   11.667    1.333 
#    0.000    0.000    0.000    0.000    0.000    0.000 
#    0.000    0.000    0.000    0.000    0.000    0.000 
#
# Total GULP energy -134507.790616 kJ/mol
# GULP energy per Si atom -5604.491276 kJ/mol
# Density = 2.737865 g / cm^3
# Si number density = 27.441105 Si / 1000 Ang^3
#
#
#
# Elastic Constant Matrix: (Units=GPa)
#
#
# Indices 1 2 3 4 5 6 
#
# 1 82.5115 12.5641 15.8066 0.0000 0.0000 0.0000
# 2 12.5641 90.3409 14.7455 0.0000 0.0000 0.0000
# 3 15.8066 14.7455 186.1423 0.0000 0.0000 0.0000
# 4 0.0000 0.0000 0.0000 29.3020 0.0000 0.0000
# 5 0.0000 0.0000 0.0000 0.0000 49.8987 0.0000
# 6 0.0000 0.0000 0.0000 0.0000 0.0000 43.9874
#
#
#
# Elastic Compliance Matrix: (Units=1/GPa)
#
#
# Indices 1 2 3 4 5 6 
#
# 1 0.012542 -0.001591 -0.000939 0.000000 0.000000 0.000000
# 2 -0.001591 0.011416 -0.000769 0.000000 0.000000 0.000000
# 3 -0.000939 -0.000769 0.005513 0.000000 0.000000 0.000000
# 4 0.000000 0.000000 0.000000 0.034127 0.000000 0.000000
# 5 0.000000 0.000000 0.000000 0.000000 0.020041 0.000000
# 6 0.000000 0.000000 0.000000 0.000000 0.000000 0.022734
#
#
# Mechanical properties :
#
#
# Convention : Reuss Voigt Hill
#
# Bulk Modulus (GPa) = 43.72113 49.46967 46.59540
# Shear Modulus (GPa) = 41.46120 45.69619 43.57869
#
# Velocity S-wave (km/s) = 3.89127 4.08517 3.98940
# Velocity P-wave (km/s) = 6.01303 6.34966 6.18364
#
# Compressibility (1/GPa) = 0.02287224
#
# Stress axis : x y z
#
# Youngs Moduli (GPa) = 79.73427 87.59633 181.39259
#
# Poissons Ratio (x) = 0.13936 0.17032
# Poissons Ratio (y) = 0.12685 0.13953
# Poissons Ratio (z) = 0.07487 0.06738
#
# Static dielectric constant tensor:
#      x y z
#    x 2.184530 0.000000 0.000000 
#    y 0.000000 2.149870 0.000000 
#    z 0.000000 0.000000 2.127650 
# 
# From -- ./inp_files/1698.got.cif
#   From: 2010.05.17/outbox.cif.g08.bks.cpg/sg19_1_cif.got.tgz:1698.got - 2010.06.03 22:46:19.
