data_PCOD9316568
_publ_section_title
;
Structure prediction by ZEFSAII (Michael W. Deem and Ramdas Pophale) SiO2 
 PCOD9316568
Probable space group: C 2 2 21
;
_chemical_formula_sum "Si O2"
_cell_formula_units_Z 48
_cell_length_a 16.591049
_cell_length_b 15.722362
_cell_length_c 7.681083
_cell_angle_alpha 90.000000
_cell_angle_beta 90.000000
_cell_angle_gamma 90.000000
_cell_volume 2003.614175
_symmetry_space_group_name_H-M "C 2 2 21"
_symmetry_group_IT_number 20
_symmetry_cell_setting 'orthorhombic'
loop_
_space_group_symop_operation_xyz
x,y,z
-x,-y,1/2+z
x,-y,-z
-x,y,1/2-z
1/2+x,1/2+y,z
1/2-x,1/2-y,1/2+z
1/2+x,1/2-y,-z
1/2-x,1/2+y,1/2-z
loop_
_atom_site_type_symbol
_atom_site_label
_atom_site_fract_x
_atom_site_fract_y
_atom_site_fract_z
Si Si1 0.972182 0.237411 0.476322
Si Si2 0.427792 0.417756 0.116499
Si Si3 0.596897 0.094527 0.043413
Si Si4 0.321727 0.092255 0.082106
Si Si5 0.812176 0.162482 0.640626
Si Si6 0.849967 0.700395 0.770249
O O1 0.974360 0.335677 0.540058
O O2 0.893781 0.207397 0.588634
O O3 0.924283 0.242371 0.289575
O O4 0.039448 0.168026 0.522119
O O5 0.500000 0.438127 0.250000
O O6 0.343096 0.400870 0.211578
O O7 0.419378 0.500000 0.000000
O O8 0.648272 0.095023 0.220735
O O9 0.649167 0.126975 0.877530
O O10 0.567571 0.000000 0.000000
O O11 0.229154 0.115100 0.023966
O O12 0.365008 0.161276 0.958433
O O13 0.338249 0.000000 0.000000
O O14 0.743569 0.226420 0.714408
#
# Coordination Sequence:
#
# PCOD9316568 Si02
#       6
#     8   8   8   8   8   8
#     4   9  20  37  60  89 133 180 226 282 343 420
#     4  10  22  44  64  92 138 190 232 280 346 427
#     4  10  18  34  61  96 138 174 216 287 353 405
#     4  10  18  32  57  96 136 173 218 286 343 418
#     4   9  20  34  59  92 130 177 234 273 352 410
#     4   8  20  33  57  97 132 171 228 277 350 403
#
# _framework density 23.956707999999999
#
# number of rings (size 3 to 8) (size 9 to 14) (size 15 to 20)
#    2.000    0.667    1.667    0.000    2.333    4.667 
#    0.000    5.000    0.000    0.000    0.000   15.167 
#    0.000    0.000    0.000    0.000    0.000    0.000 
#
# Total GULP energy -133628.467240 kJ/mol
# GULP energy per Si atom -5567.852802 kJ/mol
# Density = 2.390218 g / cm^3
# Si number density = 23.956708 Si / 1000 Ang^3
#
#
#
# Elastic Constant Matrix: (Units=GPa)
#
#
# Indices 1 2 3 4 5 6 
#
# 1 114.6120 25.9666 41.7390 0.0000 0.0000 0.0000
# 2 25.9666 123.7761 45.5583 0.0000 0.0000 0.0000
# 3 41.7390 45.5583 84.6093 0.0000 0.0000 0.0000
# 4 0.0000 0.0000 0.0000 50.8397 0.0000 0.0000
# 5 0.0000 0.0000 0.0000 0.0000 24.9830 0.0000
# 6 0.0000 0.0000 0.0000 0.0000 0.0000 4.4243
#
#
#
# Elastic Compliance Matrix: (Units=1/GPa)
#
#
# Indices 1 2 3 4 5 6 
#
# 1 0.010650 -0.000375 -0.005052 0.000000 0.000000 0.000000
# 2 -0.000375 0.010089 -0.005248 0.000000 0.000000 0.000000
# 3 -0.005052 -0.005248 0.017137 0.000000 0.000000 0.000000
# 4 0.000000 0.000000 0.000000 0.019670 0.000000 0.000000
# 5 0.000000 0.000000 0.000000 0.000000 0.040027 0.000000
# 6 0.000000 0.000000 0.000000 0.000000 0.000000 0.226024
#
#
# Mechanical properties :
#
#
# Convention : Reuss Voigt Hill
#
# Bulk Modulus (GPa) = 60.50656 61.05837 60.78247
# Shear Modulus (GPa) = 14.26720 30.03163 22.14941
#
# Velocity S-wave (km/s) = 2.44302 3.54443 3.04396
# Velocity P-wave (km/s) = 5.76795 6.50330 6.14663
#
# Compressibility (1/GPa) = 0.01652713
#
# Stress axis : x y z
#
# Youngs Moduli (GPa) = 93.89865 99.11523 58.35359
#
# Poissons Ratio (x) = 0.03714 0.29480
# Poissons Ratio (y) = 0.03519 0.30623
# Poissons Ratio (z) = 0.47437 0.52013
#
# Static dielectric constant tensor:
#      x y z
#    x 1.964590 0.000000 0.000000 
#    y 0.000000 1.777620 0.000000 
#    z 0.000000 0.000000 1.927240 
# 
# From -- ./inp_files/9464.got.cif
#   From: 2010.05.17/outbox.cif.g08.bks.cpg/sg20_5_cif.got.tgz:9464.got - 2010.06.03 22:52:26.
