data_PCOD9316160
_publ_section_title
;
Structure prediction by ZEFSAII (Michael W. Deem and Ramdas Pophale) SiO2 
 PCOD9316160
Probable space group: P 21 21 21
;
_chemical_formula_sum "Si O2"
_cell_formula_units_Z 32
_cell_length_a 15.000000
_cell_length_b 18.000000
_cell_length_c 6.000000
_cell_angle_alpha 90.000000
_cell_angle_beta 90.000000
_cell_angle_gamma 90.000000
_cell_volume 1620.000000
_symmetry_space_group_name_H-M "P 21 21 21"
_symmetry_group_IT_number 19
_symmetry_cell_setting 'orthorhombic'
loop_
_space_group_symop_operation_xyz
x,y,z
1/2-x,-y,1/2+z
1/2+x,1/2-y,-z
-x,1/2+y,1/2-z
loop_
_atom_site_type_symbol
_atom_site_label
_atom_site_fract_x
_atom_site_fract_y
_atom_site_fract_z
Si Si1 0.703926 0.592538 0.502706
Si Si2 0.165810 0.069861 0.351419
Si Si3 0.369982 0.543721 0.268523
Si Si4 0.684499 0.905929 0.543626
Si Si5 0.045884 0.866934 0.809550
Si Si6 0.117842 0.711384 0.789218
Si Si7 0.694132 0.673575 0.899269
Si Si8 0.456882 0.420173 0.568919
O O1 0.698164 0.515184 0.631290
O O2 0.799122 0.595307 0.386638
O O3 0.618839 0.589753 0.339404
O O4 0.697856 0.668815 0.637688
O O5 0.223939 0.123205 0.513695
O O6 0.060916 0.073441 0.380815
O O7 0.282664 0.586729 0.352545
O O8 0.334631 0.481776 0.094920
O O9 0.449048 0.597462 0.183174
O O10 0.417202 0.495152 0.461592
O O11 0.673704 0.833104 0.392627
O O12 0.605390 0.902675 0.721984
O O13 0.054527 0.781262 0.726714
O O14 0.098309 0.864978 0.044232
O O15 0.184986 0.749840 0.968745
O O16 0.058268 0.647873 0.900733
#
# Coordination Sequence:
#
# PCOD9316160 Si02
#       8
#     4   4   4   4   4   4   4   4
#     4  11  20  36  65  93 130 160 207 262 321 385
#     4  11  22  36  64  99 124 165 205 265 327 379
#     4  11  22  43  69  95 125 173 228 263 327 380
#     4  11  24  43  66  94 130 170 219 280 321 376
#     4   9  22  41  65  93 123 172 217 257 323 398
#     4   9  24  45  59  92 131 173 214 266 325 384
#     4   9  22  41  61  89 133 167 205 257 324 388
#     4  11  24  41  65  93 132 162 219 278 314 386
#
# _framework density 19.753086
#
# number of rings (size 3 to 8) (size 9 to 14) (size 15 to 20)
#    0.750    1.000    3.750    0.000    3.500    2.000 
#    4.500    0.000    0.000    0.000    0.000    0.000 
#    0.000    0.000    0.000    0.000    0.000    0.000 
#
# Total GULP energy -178144.329827 kJ/mol
# GULP energy per Si atom -5567.010307 kJ/mol
# Density = 1.970813 g / cm^3
# Si number density = 19.753086 Si / 1000 Ang^3
#
#
#
# Elastic Constant Matrix: (Units=GPa)
#
#
# Indices 1 2 3 4 5 6 
#
# 1 132.6431 13.2861 16.4771 0.0000 0.0000 0.0000
# 2 13.2861 64.5782 6.9667 0.0000 0.0000 0.0000
# 3 16.4771 6.9667 28.3108 0.0000 0.0000 0.0000
# 4 0.0000 0.0000 0.0000 27.8199 0.0000 0.0000
# 5 0.0000 0.0000 0.0000 0.0000 16.3561 0.0000
# 6 0.0000 0.0000 0.0000 0.0000 0.0000 22.0858
#
#
#
# Elastic Compliance Matrix: (Units=1/GPa)
#
#
# Indices 1 2 3 4 5 6 
#
# 1 0.008217 -0.001207 -0.004485 0.000000 0.000000 0.000000
# 2 -0.001207 0.016085 -0.003256 0.000000 0.000000 0.000000
# 3 -0.004485 -0.003256 0.038734 0.000000 0.000000 0.000000
# 4 0.000000 0.000000 0.000000 0.035946 0.000000 0.000000
# 5 0.000000 0.000000 0.000000 0.000000 0.061139 0.000000
# 6 0.000000 0.000000 0.000000 0.000000 0.000000 0.045278
#
#
# Mechanical properties :
#
#
# Convention : Reuss Voigt Hill
#
# Bulk Modulus (GPa) = 22.15340 33.22133 27.68737
# Shear Modulus (GPa) = 20.97835 25.83916 23.40876
#
# Velocity S-wave (km/s) = 3.26241 3.62070 3.44622
# Velocity P-wave (km/s) = 5.04288 5.85953 5.46648
#
# Compressibility (1/GPa) = 0.04513979
#
# Stress axis : x y z
#
# Youngs Moduli (GPa) = 121.69765 62.17131 25.81710
#
# Poissons Ratio (x) = 0.07502 0.11580
# Poissons Ratio (y) = 0.14685 0.08406
# Poissons Ratio (z) = 0.54587 0.20242
#
# Static dielectric constant tensor:
#      x y z
#    x 1.627500 0.000000 0.000000 
#    y 0.000000 1.706260 0.000000 
#    z 0.000000 0.000000 1.823600 
# 
# From -- ./inp_files/1576.got.cif
#   From: 2010.05.17/outbox.ucp.g08.bks.cvg/sg19_1_cif.got.tgz:1576.got - 2010.06.11 13:13:52.
