data_PCOD9316685
_publ_section_title
;
Structure prediction by ZEFSAII (Michael W. Deem and Ramdas Pophale) SiO2 
 PCOD9316685
Probable space group: C 2 2 21
;
_chemical_formula_sum "Si O2"
_cell_formula_units_Z 64
_cell_length_a 17.894920
_cell_length_b 10.738588
_cell_length_c 17.054912
_cell_angle_alpha 90.000000
_cell_angle_beta 90.000000
_cell_angle_gamma 90.000000
_cell_volume 3277.377173
_symmetry_space_group_name_H-M "C 2 2 21"
_symmetry_group_IT_number 20
_symmetry_cell_setting 'orthorhombic'
loop_
_space_group_symop_operation_xyz
x,y,z
-x,-y,1/2+z
x,-y,-z
-x,y,1/2-z
1/2+x,1/2+y,z
1/2-x,1/2-y,1/2+z
1/2+x,1/2-y,-z
1/2-x,1/2+y,1/2-z
loop_
_atom_site_type_symbol
_atom_site_label
_atom_site_fract_x
_atom_site_fract_y
_atom_site_fract_z
Si Si1 0.680055 0.404642 0.166305
Si Si2 0.925023 0.963226 0.793686
Si Si3 0.967789 0.111950 0.948297
Si Si4 0.296439 0.712216 0.220466
Si Si5 0.715147 0.059044 0.109335
Si Si6 0.102435 0.720087 0.046727
Si Si7 0.695107 0.667164 0.097763
Si Si8 0.201125 0.829841 0.471015
O O1 0.629167 0.454078 0.238072
O O2 0.757173 0.340217 0.193993
O O3 0.635318 0.303043 0.117320
O O4 0.687099 0.520745 0.107769
O O5 0.873231 0.844550 0.815339
O O6 0.000000 0.920917 0.750000
O O7 0.953767 0.050521 0.863625
O O8 0.884619 0.139933 0.977452
O O9 0.016942 0.236101 0.953752
O O10 0.002586 0.000000 0.000000
O O11 0.234733 0.605201 0.196371
O O12 0.311667 0.717219 0.313374
O O13 0.631989 0.083807 0.075425
O O14 0.754549 0.930798 0.083930
O O15 0.761626 0.156604 0.055425
O O16 0.139291 0.766495 0.964352
O O17 0.777403 0.699942 0.066430
#
# Coordination Sequence:
#
# PCOD9316685 Si02
#       8
#     8   8   8   8   8   8   8   8
#     4  10  20  37  55  82 113 152 189 239 293 348
#     4  11  21  34  53  85 116 145 192 243 292 341
#     4  12  20  32  56  86 118 147 188 247 299 337
#     4  10  20  33  53  79 115 148 185 235 291 347
#     4   9  18  36  53  79 111 152 186 231 286 348
#     4  10  21  34  54  85 118 144 184 241 298 345
#     4  10  21  33  56  85 113 150 195 238 286 350
#     4  10  18  35  58  83 108 148 198 236 280 352
#
# _framework density 19.527811
#
# number of rings (size 3 to 8) (size 9 to 14) (size 15 to 20)
#    0.000    1.750    3.750    1.875    3.500    0.000 
#    0.000    0.000    0.000    3.000   29.250    0.000 
#    0.000    0.000    0.000    0.000    0.000    0.000 
#
# Total GULP energy -178145.440749 kJ/mol
# GULP energy per Si atom -5567.045023 kJ/mol
# Density = 1.948336 g / cm^3
# Si number density = 19.527811 Si / 1000 Ang^3
#
#
#
# Elastic Constant Matrix: (Units=GPa)
#
#
# Indices 1 2 3 4 5 6 
#
# 1 98.4580 28.6870 14.1620 0.0000 0.0000 0.0000
# 2 28.6870 35.4802 7.2622 0.0000 0.0000 0.0000
# 3 14.1620 7.2622 76.3621 0.0000 0.0000 0.0000
# 4 0.0000 0.0000 0.0000 25.0634 0.0000 0.0000
# 5 0.0000 0.0000 0.0000 0.0000 18.1536 0.0000
# 6 0.0000 0.0000 0.0000 0.0000 0.0000 35.8871
#
#
#
# Elastic Compliance Matrix: (Units=1/GPa)
#
#
# Indices 1 2 3 4 5 6 
#
# 1 0.013451 -0.010571 -0.001489 0.000000 0.000000 0.000000
# 2 -0.010571 0.037051 -0.001563 0.000000 0.000000 0.000000
# 3 -0.001489 -0.001563 0.013520 0.000000 0.000000 0.000000
# 4 0.000000 0.000000 0.000000 0.039899 0.000000 0.000000
# 5 0.000000 0.000000 0.000000 0.000000 0.055085 0.000000
# 6 0.000000 0.000000 0.000000 0.000000 0.000000 0.027865
#
#
# Mechanical properties :
#
#
# Convention : Reuss Voigt Hill
#
# Bulk Modulus (GPa) = 27.19145 34.50254 30.84700
# Shear Modulus (GPa) = 22.08706 26.50008 24.29357
#
# Velocity S-wave (km/s) = 3.36677 3.68780 3.53094
# Velocity P-wave (km/s) = 5.39149 5.98665 5.69685
#
# Compressibility (1/GPa) = 0.03677626
#
# Stress axis : x y z
#
# Youngs Moduli (GPa) = 74.34562 26.98955 73.96249
#
# Poissons Ratio (x) = 0.28529 0.11015
# Poissons Ratio (y) = 0.78587 0.11562
# Poissons Ratio (z) = 0.11072 0.04219
#
# Static dielectric constant tensor:
#      x y z
#    x 1.745450 0.000000 0.000000 
#    y 0.000000 1.747940 0.000000 
#    z 0.000000 0.000000 1.764850 
# 
# From -- ./inp_files/25340.got.cif
#   From: 2010.05.17/outbox.cif.g08.bks.cpg/sg20_13_cif.got.tgz:25340.got - 2010.06.03 22:52:26.
