data_PCOD9316843
_publ_section_title
;
Structure prediction by ZEFSAII (Michael W. Deem and Ramdas Pophale) SiO2 
 PCOD9316843
Probable space group: C 2 2 21
;
_chemical_formula_sum "Si O2"
_cell_formula_units_Z 48
_cell_length_a 8.852184
_cell_length_b 26.779862
_cell_length_c 10.376934
_cell_angle_alpha 90.000000
_cell_angle_beta 90.000000
_cell_angle_gamma 90.000000
_cell_volume 2459.958733
_symmetry_space_group_name_H-M "C 2 2 21"
_symmetry_group_IT_number 20
_symmetry_cell_setting 'orthorhombic'
loop_
_space_group_symop_operation_xyz
x,y,z
-x,-y,1/2+z
x,-y,-z
-x,y,1/2-z
1/2+x,1/2+y,z
1/2-x,1/2-y,1/2+z
1/2+x,1/2-y,-z
1/2-x,1/2+y,1/2-z
loop_
_atom_site_type_symbol
_atom_site_label
_atom_site_fract_x
_atom_site_fract_y
_atom_site_fract_z
Si Si1 0.575745 0.199533 0.390531
Si Si2 0.816004 0.425570 0.730780
Si Si3 0.843739 0.632621 0.521628
Si Si4 0.443240 0.314476 0.104371
Si Si5 0.888031 0.524608 0.632007
Si Si6 0.118597 0.853975 0.867764
O O1 0.500000 0.192652 0.250000
O O2 0.501044 0.160308 0.490003
O O3 0.542630 0.256109 0.431434
O O4 0.751780 0.188366 0.370981
O O5 0.786445 0.385559 0.618419
O O6 0.774687 0.480915 0.680464
O O7 0.715555 0.405029 0.847124
O O8 0.000000 0.425278 0.750000
O O9 0.730622 0.670290 0.589086
O O10 0.844124 0.580640 0.598080
O O11 0.500000 0.320890 0.250000
O O12 0.533392 0.348481 0.002964
O O13 0.953557 0.500000 0.500000
O O14 0.000000 0.529259 0.750000
O O15 0.000000 0.848581 0.750000
#
# Coordination Sequence:
#
# PCOD9316843 Si02
#       6
#     8   8   8   8   8   8
#     4  11  21  40  66  94 127 172 225 268 320 398
#     4  10  18  39  69  94 116 158 225 271 317 399
#     4  11  19  41  63  87 133 168 211 276 326 376
#     4  11  26  40  56  94 140 171 212 278 328 387
#     4   9  21  37  66  96 125 160 217 279 324 384
#     4  12  21  38  69  90 121 173 222 263 334 401
#
# _framework density 19.512523999999999
#
# number of rings (size 3 to 8) (size 9 to 14) (size 15 to 20)
#    0.000    1.333    5.000    1.000    0.000    2.667 
#    0.000    2.500    0.000    2.000    0.000    0.000 
#    0.000    0.000    0.000    0.000    0.000    0.000 
#
# Total GULP energy -133703.159889 kJ/mol
# GULP energy per Si atom -5570.964995 kJ/mol
# Density = 1.946811 g / cm^3
# Si number density = 19.512524 Si / 1000 Ang^3
#
#
#
# Elastic Constant Matrix: (Units=GPa)
#
#
# Indices 1 2 3 4 5 6 
#
# 1 94.6088 28.4992 33.4618 0.0000 0.0000 0.0000
# 2 28.4992 128.8508 41.0615 0.0000 0.0000 0.0000
# 3 33.4618 41.0615 73.0541 0.0000 0.0000 0.0000
# 4 0.0000 0.0000 0.0000 33.2993 0.0000 0.0000
# 5 0.0000 0.0000 0.0000 0.0000 33.3058 0.0000
# 6 0.0000 0.0000 0.0000 0.0000 0.0000 18.4068
#
#
#
# Elastic Compliance Matrix: (Units=1/GPa)
#
#
# Indices 1 2 3 4 5 6 
#
# 1 0.012756 -0.001169 -0.005186 0.000000 0.000000 0.000000
# 2 -0.001169 0.009561 -0.004839 0.000000 0.000000 0.000000
# 3 -0.005186 -0.004839 0.018784 0.000000 0.000000 0.000000
# 4 0.000000 0.000000 0.000000 0.030031 0.000000 0.000000
# 5 0.000000 0.000000 0.000000 0.000000 0.030025 0.000000
# 6 0.000000 0.000000 0.000000 0.000000 0.000000 0.054328
#
#
# Mechanical properties :
#
#
# Convention : Reuss Voigt Hill
#
# Bulk Modulus (GPa) = 53.43560 55.83986 54.63773
# Shear Modulus (GPa) = 27.15778 29.90180 28.52979
#
# Velocity S-wave (km/s) = 3.73475 3.91889 3.82793
# Velocity P-wave (km/s) = 6.78546 7.01117 6.89924
#
# Compressibility (1/GPa) = 0.01871412
#
# Stress axis : x y z
#
# Youngs Moduli (GPa) = 78.39395 104.58664 53.23791
#
# Poissons Ratio (x) = 0.12224 0.27609
# Poissons Ratio (y) = 0.09162 0.25761
# Poissons Ratio (z) = 0.40654 0.50608
#
# Static dielectric constant tensor:
#      x y z
#    x 1.729240 0.000000 0.000000 
#    y 0.000000 1.729420 0.000000 
#    z 0.000000 0.000000 1.702600 
# 
# From -- ./inp_files/13096.got.cif
#   From: 2010.05.17/outbox.cif.g08.bks.cpg/sg20_7_cif.got.tgz:13096.got - 2010.06.03 22:52:26.
