data_PCOD9316936
_publ_section_title
;
Structure prediction by ZEFSAII (Michael W. Deem and Ramdas Pophale) SiO2 
 PCOD9316936
Probable space group: C 2 2 21
;
_chemical_formula_sum "Si O2"
_cell_formula_units_Z 32
_cell_length_a 15.295491
_cell_length_b 14.254379
_cell_length_c 5.609963
_cell_angle_alpha 90.000000
_cell_angle_beta 90.000000
_cell_angle_gamma 90.000000
_cell_volume 1223.127474
_symmetry_space_group_name_H-M "C 2 2 21"
_symmetry_group_IT_number 20
_symmetry_cell_setting 'orthorhombic'
loop_
_space_group_symop_operation_xyz
x,y,z
-x,-y,1/2+z
x,-y,-z
-x,y,1/2-z
1/2+x,1/2+y,z
1/2-x,1/2-y,1/2+z
1/2+x,1/2-y,-z
1/2-x,1/2+y,1/2-z
loop_
_atom_site_type_symbol
_atom_site_label
_atom_site_fract_x
_atom_site_fract_y
_atom_site_fract_z
Si Si1 0.216332 0.131755 0.500002
Si Si2 0.996402 0.693102 1.000000
Si Si3 0.700966 0.856122 0.500002
Si Si4 0.553491 0.500000 0.500000
Si Si5 0.048403 0.500000 0.000000
O O1 0.259379 0.103849 0.754500
O O2 0.218362 0.244413 0.500002
O O3 0.119735 0.088676 0.500001
O O4 0.259380 0.103849 0.245505
O O5 0.000000 0.746171 0.250000
O O6 0.072413 0.612824 1.000000
O O7 0.903600 0.639633 0.000000
O O8 0.000000 0.746172 0.750000
O O9 0.500000 0.500000 0.250000
O O10 0.000000 0.500000 0.250000
#
# Coordination Sequence:
#
# PCOD9316936 Si02
#       5
#     8   8   8   4   4
#     4  10  23  41  61  88 122 164 212 265 329 390
#     4  10  19  31  51  80 111 146 190 241 298 359
#     4  10  21  40  62  86 122 166 214 262 316 397
#     4  12  26  44  68 100 134 170 220 284 344 398
#     4   8  16  28  40  64 100 128 160 210 262 318
#
# _framework density 26.162438999999999
#
# number of rings (size 3 to 8) (size 9 to 14) (size 15 to 20)
#    0.000    2.000    0.000    3.000    0.000    4.000 
#    0.000    2.500    0.000    0.000    0.000    0.000 
#    0.000    0.000    0.000    0.000    0.000    0.000 
#
# Total GULP energy -89162.431781 kJ/mol
# GULP energy per Si atom -5572.651986 kJ/mol
# Density = 2.610289 g / cm^3
# Si number density = 26.162439 Si / 1000 Ang^3
#
#
#
# Elastic Constant Matrix: (Units=GPa)
#
#
# Indices 1 2 3 4 5 6 
#
# 1 146.4380 5.8208 120.8456 0.0000 0.0000 0.0000
# 2 5.8208 105.9211 35.1668 0.0000 0.0000 0.0000
# 3 120.8456 35.1668 362.8632 0.0000 0.0000 0.0000
# 4 0.0000 0.0000 0.0000 10.2936 0.0000 0.0000
# 5 0.0000 0.0000 0.0000 0.0000 63.2296 0.0000
# 6 0.0000 0.0000 0.0000 0.0000 0.0000 35.0897
#
#
#
# Elastic Compliance Matrix: (Units=1/GPa)
#
#
# Indices 1 2 3 4 5 6 
#
# 1 0.009447 0.000543 -0.003199 0.000000 0.000000 0.000000
# 2 0.000543 0.009786 -0.001129 0.000000 0.000000 0.000000
# 3 -0.003199 -0.001129 0.003931 0.000000 0.000000 0.000000
# 4 0.000000 0.000000 0.000000 0.097148 0.000000 0.000000
# 5 0.000000 0.000000 0.000000 0.000000 0.015815 0.000000
# 6 0.000000 0.000000 0.000000 0.000000 0.000000 0.028498
#
#
# Mechanical properties :
#
#
# Convention : Reuss Voigt Hill
#
# Bulk Modulus (GPa) = 64.12959 104.32095 84.22527
# Shear Modulus (GPa) = 28.18601 51.94852 40.06726
#
# Velocity S-wave (km/s) = 3.28586 4.46086 3.91766
# Velocity P-wave (km/s) = 6.24188 8.15434 7.26135
#
# Compressibility (1/GPa) = 0.01559343
#
# Stress axis : x y z
#
# Youngs Moduli (GPa) = 105.85381 102.18613 254.41429
#
# Poissons Ratio (x) = -0.05547 0.81381
# Poissons Ratio (y) = -0.05747 0.28729
# Poissons Ratio (z) = 0.33860 0.11539
#
# Static dielectric constant tensor:
#      x y z
#    x 2.118580 0.000000 0.000000 
#    y 0.000000 2.135610 0.000000 
#    z 0.000000 0.000000 2.073190 
# 
# From -- ./inp_files/1668.got.cif
#   From: 2010.05.17/outbox.cif.g08.bks.cpg/sg20_1_cif.got.tgz:1668.got - 2010.06.03 22:52:26.
