data_PCOD9316751
_publ_section_title
;
Structure prediction by ZEFSAII (Michael W. Deem and Ramdas Pophale) SiO2 
 PCOD9316751
Probable space group: C 2 2 21
;
_chemical_formula_sum "Si O2"
_cell_formula_units_Z 32
_cell_length_a 16.970424
_cell_length_b 5.188817
_cell_length_c 16.441328
_cell_angle_alpha 90.000000
_cell_angle_beta 90.000000
_cell_angle_gamma 90.000000
_cell_volume 1447.764559
_symmetry_space_group_name_H-M "C 2 2 21"
_symmetry_group_IT_number 20
_symmetry_cell_setting 'orthorhombic'
loop_
_space_group_symop_operation_xyz
x,y,z
-x,-y,1/2+z
x,-y,-z
-x,y,1/2-z
1/2+x,1/2+y,z
1/2-x,1/2-y,1/2+z
1/2+x,1/2-y,-z
1/2-x,1/2+y,1/2-z
loop_
_atom_site_type_symbol
_atom_site_label
_atom_site_fract_x
_atom_site_fract_y
_atom_site_fract_z
Si Si1 0.622153 0.500000 0.500000
Si Si2 0.267184 0.000000 0.000000
Si Si3 0.356012 0.529025 0.829416
Si Si4 0.810411 0.383671 0.591034
Si Si5 0.592833 0.968778 0.237435
O O1 0.674796 0.758656 0.508134
O O2 0.587804 0.517280 0.409302
O O3 0.210751 0.916368 0.074072
O O4 0.266531 0.486614 0.860343
O O5 0.368535 0.811720 0.794405
O O6 0.375628 0.310258 0.764024
O O7 0.819239 0.500000 0.500000
O O8 0.883497 0.451849 0.646475
O O9 0.500000 0.975370 0.250000
#
# Coordination Sequence:
#
# PCOD9316751 Si02
#       5
#     4   4   8   8   8
#     4  10  20  38  71 106 125 166 220 300 328 388
#     4  10  18  36  65  98 133 152 224 284 338 376
#     4  11  22  45  72  95 133 173 237 281 330 402
#     4  11  24  43  72 103 130 176 230 291 330 397
#     4  12  28  45  64 101 145 182 218 273 351 413
#
# _framework density 22.10304
#
# number of rings (size 3 to 8) (size 9 to 14) (size 15 to 20)
#    0.000    1.000    5.000    5.250    3.500    0.000 
#    4.500    0.000    0.000    0.000    0.000    0.000 
#    0.000    0.000    0.000    0.000    0.000    0.000 
#
# Total GULP energy -89246.585785 kJ/mol
# GULP energy per Si atom -5577.911612 kJ/mol
# Density = 2.205273 g / cm^3
# Si number density = 22.103040 Si / 1000 Ang^3
#
#
#
# Elastic Constant Matrix: (Units=GPa)
#
#
# Indices 1 2 3 4 5 6 
#
# 1 88.6811 4.3771 25.5780 0.0000 0.0000 0.0000
# 2 4.3771 93.2245 -3.4174 0.0000 0.0000 0.0000
# 3 25.5780 -3.4174 96.1010 0.0000 0.0000 0.0000
# 4 0.0000 0.0000 0.0000 51.1805 0.0000 0.0000
# 5 0.0000 0.0000 0.0000 0.0000 12.7095 0.0000
# 6 0.0000 0.0000 0.0000 0.0000 0.0000 6.0378
#
#
#
# Elastic Compliance Matrix: (Units=1/GPa)
#
#
# Indices 1 2 3 4 5 6 
#
# 1 0.012259 -0.000696 -0.003288 0.000000 0.000000 0.000000
# 2 -0.000696 0.010780 0.000569 0.000000 0.000000 0.000000
# 3 -0.003288 0.000569 0.011301 0.000000 0.000000 0.000000
# 4 0.000000 0.000000 0.000000 0.019539 0.000000 0.000000
# 5 0.000000 0.000000 0.000000 0.000000 0.078682 0.000000
# 6 0.000000 0.000000 0.000000 0.000000 0.000000 0.165624
#
#
# Mechanical properties :
#
#
# Convention : Reuss Voigt Hill
#
# Bulk Modulus (GPa) = 36.35022 36.78688 36.56855
# Shear Modulus (GPa) = 15.91422 30.75014 23.33218
#
# Velocity S-wave (km/s) = 2.68619 3.73395 3.25254
# Velocity P-wave (km/s) = 5.10905 5.93880 5.53948
#
# Compressibility (1/GPa) = 0.02751015
#
# Stress axis : x y z
#
# Youngs Moduli (GPa) = 81.57314 92.76160 88.48807
#
# Poissons Ratio (x) = 0.06457 0.29091
# Poissons Ratio (y) = 0.05678 -0.05032
# Poissons Ratio (z) = 0.26818 -0.05275
#
# Static dielectric constant tensor:
#      x y z
#    x 1.815100 0.000000 0.000000 
#    y 0.000000 1.854720 0.000000 
#    z 0.000000 0.000000 1.938410 
# 
# From -- ./inp_files/21066.got.cif
#   From: 2010.05.17/outbox.cif.g08.bks.cpg/sg20_11_cif.got.tgz:21066.got - 2010.06.03 22:52:26.
