data_PCOD9316096
_publ_section_title
;
Structure prediction by ZEFSAII (Michael W. Deem and Ramdas Pophale) SiO2 
 PCOD9316096
Probable space group: P 21 21 21
;
_chemical_formula_sum "Si O2"
_cell_formula_units_Z 20
_cell_length_a 9.709762
_cell_length_b 9.740007
_cell_length_c 8.992982
_cell_angle_alpha 90.000000
_cell_angle_beta 90.000000
_cell_angle_gamma 90.000000
_cell_volume 850.494634
_symmetry_space_group_name_H-M "P 21 21 21"
_symmetry_group_IT_number 19
_symmetry_cell_setting 'orthorhombic'
loop_
_space_group_symop_operation_xyz
x,y,z
1/2-x,-y,1/2+z
1/2+x,1/2-y,-z
-x,1/2+y,1/2-z
loop_
_atom_site_type_symbol
_atom_site_label
_atom_site_fract_x
_atom_site_fract_y
_atom_site_fract_z
Si Si1 0.517754 0.821870 0.394176
Si Si2 0.242359 0.118366 0.091730
Si Si3 0.141028 0.612888 0.075478
Si Si4 0.639620 0.068733 0.201459
Si Si5 0.328373 0.843629 0.931421
O O1 0.406477 0.860474 0.518123
O O2 0.650584 0.738488 0.452321
O O3 0.438267 0.713246 0.288159
O O4 0.565491 0.953820 0.302001
O O5 0.229063 0.122013 0.268552
O O6 0.301529 0.974259 0.035842
O O7 0.132824 0.480895 0.968474
O O8 0.247316 0.714619 0.995326
O O9 0.206610 0.578214 0.234191
O O10 0.991176 0.678977 0.083624
#
# Coordination Sequence:
#
# PCOD9316096 Si02
#       5
#     4   4   4   4   4
#     4  12  27  51  79 114 155 204 260 328 393 471
#     4  12  29  50  79 117 154 211 261 326 397 469
#     4  12  29  50  79 117 154 211 261 326 397 469
#     4  12  27  51  79 114 155 204 260 328 393 471
#     4  12  30  50  80 116 156 208 270 322 396 468
#
# _framework density 23.515726999999998
#
# number of rings (size 3 to 8) (size 9 to 14) (size 15 to 20)
#    0.000    0.000    4.000    3.600   11.200    0.000 
#    0.000    0.000    0.000    0.000    0.000    0.000 
#    0.000    0.000    0.000    0.000    0.000    0.000 
#
# Total GULP energy -112233.607095 kJ/mol
# GULP energy per Si atom -5611.680355 kJ/mol
# Density = 2.346220 g / cm^3
# Si number density = 23.515727 Si / 1000 Ang^3
#
#
#
# Elastic Constant Matrix: (Units=GPa)
#
#
# Indices 1 2 3 4 5 6 
#
# 1 147.0811 10.5643 10.4005 0.0000 0.0000 0.0000
# 2 10.5643 75.7079 -7.4240 0.0000 0.0000 0.0000
# 3 10.4005 -7.4240 40.1701 0.0000 0.0000 0.0000
# 4 0.0000 0.0000 0.0000 35.1921 0.0000 0.0000
# 5 0.0000 0.0000 0.0000 0.0000 45.2867 0.0000
# 6 0.0000 0.0000 0.0000 0.0000 0.0000 39.7069
#
#
#
# Elastic Compliance Matrix: (Units=1/GPa)
#
#
# Indices 1 2 3 4 5 6 
#
# 1 0.007028 -0.001180 -0.002038 0.000000 0.000000 0.000000
# 2 -0.001180 0.013651 0.002828 0.000000 0.000000 0.000000
# 3 -0.002038 0.002828 0.025945 0.000000 0.000000 0.000000
# 4 0.000000 0.000000 0.000000 0.028415 0.000000 0.000000
# 5 0.000000 0.000000 0.000000 0.000000 0.022082 0.000000
# 6 0.000000 0.000000 0.000000 0.000000 0.000000 0.025185
#
#
# Mechanical properties :
#
#
# Convention : Reuss Voigt Hill
#
# Bulk Modulus (GPa) = 21.81330 32.22675 27.02002
# Shear Modulus (GPa) = 36.13621 40.66503 38.40062
#
# Velocity S-wave (km/s) = 3.92431 4.16296 4.04539
# Velocity P-wave (km/s) = 5.46166 6.06968 5.77368
#
# Compressibility (1/GPa) = 0.04584359
#
# Stress axis : x y z
#
# Youngs Moduli (GPa) = 142.29093 73.25602 38.54380
#
# Poissons Ratio (x) = 0.08648 0.07854
# Poissons Ratio (y) = 0.16797 -0.10902
# Poissons Ratio (z) = 0.28996 -0.20720
#
# Static dielectric constant tensor:
#      x y z
#    x 1.885100 0.000000 0.000000 
#    y 0.000000 1.851090 0.000000 
#    z 0.000000 0.000000 1.863880 
# 
# From -- ./inp_files/2559.got.cif
#   From: 2010.05.17/outbox.cif.g08.bks.cpg/sg19_2_cif.got.tgz:2559.got - 2010.06.03 22:46:19.
