data_PCOD9316334
_publ_section_title
;
Structure prediction by ZEFSAII (Michael W. Deem and Ramdas Pophale) SiO2 
 PCOD9316334
Probable space group: C 2 2 21
;
_chemical_formula_sum "Si O2"
_cell_formula_units_Z 56
_cell_length_a 24.107855
_cell_length_b 16.768575
_cell_length_c 8.797380
_cell_angle_alpha 90.000000
_cell_angle_beta 90.000000
_cell_angle_gamma 90.000000
_cell_volume 3556.379351
_symmetry_space_group_name_H-M "C 2 2 21"
_symmetry_group_IT_number 20
_symmetry_cell_setting 'orthorhombic'
loop_
_space_group_symop_operation_xyz
x,y,z
-x,-y,1/2+z
x,-y,-z
-x,y,1/2-z
1/2+x,1/2+y,z
1/2-x,1/2-y,1/2+z
1/2+x,1/2-y,-z
1/2-x,1/2+y,1/2-z
loop_
_atom_site_type_symbol
_atom_site_label
_atom_site_fract_x
_atom_site_fract_y
_atom_site_fract_z
Si Si1 0.558478 0.996405 0.819357
Si Si2 0.870940 0.649716 0.310431
Si Si3 0.819978 0.795520 0.189133
Si Si4 0.283067 0.783096 0.107057
Si Si5 0.342075 0.884944 0.341570
Si Si6 0.280595 0.465247 0.162887
Si Si7 0.724991 0.929082 0.609487
O O1 0.500000 0.019916 0.750000
O O2 0.576130 0.906048 0.778588
O O3 0.609856 0.055591 0.785141
O O4 0.553196 0.000000 0.000000
O O5 0.870066 0.739249 0.243836
O O6 0.858163 0.646239 0.490798
O O7 0.821699 0.603416 0.222474
O O8 0.768386 0.760377 0.287749
O O9 0.818475 0.890360 0.210993
O O10 0.805360 0.780604 0.012430
O O11 0.330371 0.816250 0.218994
O O12 0.261818 0.856564 0.002834
O O13 0.282593 0.930085 0.353660
O O14 0.274154 0.533234 0.290447
O O15 0.296879 0.500000 0.000000
O O16 0.704067 0.000000 0.500000
#
# Coordination Sequence:
#
# PCOD9316334 Si02
#       7
#     8   8   8   8   8   8   8
#     4  10  20  32  49  69  89 122 158 195 233 273
#     4  10  19  32  45  59  91 120 152 194 229 267
#     4  10  20  28  41  64  85 120 155 194 224 276
#     4  10  20  27  43  63  87 116 163 189 227 274
#     4  10  17  32  46  61  87 124 157 192 231 264
#     4  11  18  30  44  60  90 125 155 192 227 267
#     4  11  17  27  43  61  81 119 153 185 223 259
#
# _framework density 15.746352
#
# number of rings (size 3 to 8) (size 9 to 14) (size 15 to 20)
#    0.000    1.714    5.714    2.143    2.000    2.857 
#    0.000    0.000    0.000    0.000    0.000    0.000 
#    0.000    0.000    4.857    0.286    0.000    0.143 
#
# Total GULP energy -156011.997332 kJ/mol
# GULP energy per Si atom -5571.857048 kJ/mol
# Density = 1.571051 g / cm^3
# Si number density = 15.746352 Si / 1000 Ang^3
#
#
#
# Elastic Constant Matrix: (Units=GPa)
#
#
# Indices 1 2 3 4 5 6 
#
# 1 35.2258 16.5474 5.8670 0.0000 0.0000 0.0000
# 2 16.5474 55.6598 13.8242 0.0000 0.0000 0.0000
# 3 5.8670 13.8242 72.6759 0.0000 0.0000 0.0000
# 4 0.0000 0.0000 0.0000 30.9282 0.0000 0.0000
# 5 0.0000 0.0000 0.0000 0.0000 16.1066 0.0000
# 6 0.0000 0.0000 0.0000 0.0000 0.0000 13.1896
#
#
#
# Elastic Compliance Matrix: (Units=1/GPa)
#
#
# Indices 1 2 3 4 5 6 
#
# 1 0.033045 -0.009616 -0.000839 0.000000 0.000000 0.000000
# 2 -0.009616 0.021655 -0.003343 0.000000 0.000000 0.000000
# 3 -0.000839 -0.003343 0.014463 0.000000 0.000000 0.000000
# 4 0.000000 0.000000 0.000000 0.032333 0.000000 0.000000
# 5 0.000000 0.000000 0.000000 0.000000 0.062087 0.000000
# 6 0.000000 0.000000 0.000000 0.000000 0.000000 0.075817
#
#
# Mechanical properties :
#
#
# Convention : Reuss Voigt Hill
#
# Bulk Modulus (GPa) = 24.05646 26.22653 25.14149
# Shear Modulus (GPa) = 17.80301 20.53306 19.16803
#
# Velocity S-wave (km/s) = 3.36610 3.61500 3.49277
# Velocity P-wave (km/s) = 5.51527 5.84089 5.68041
#
# Compressibility (1/GPa) = 0.04156888
#
# Stress axis : x y z
#
# Youngs Moduli (GPa) = 30.26180 46.17806 69.14051
#
# Poissons Ratio (x) = 0.44404 0.05798
# Poissons Ratio (y) = 0.29099 0.23113
# Poissons Ratio (z) = 0.02538 0.15437
#
# Static dielectric constant tensor:
#      x y z
#    x 1.511470 0.000000 0.000000 
#    y 0.000000 1.585840 0.000000 
#    z 0.000000 0.000000 1.566820 
# 
# From -- ./inp_files/10849.got.cif
#   From: 2010.05.17/outbox.cif.g08.bks.cpg/sg20_6_cif.got.tgz:10849.got - 2010.06.03 22:52:26.
