data_PCOD9316904
_publ_section_title
;
Structure prediction by ZEFSAII (Michael W. Deem and Ramdas Pophale) SiO2 
 PCOD9316904
Probable space group: C 2 2 21
;
_chemical_formula_sum "Si O2"
_cell_formula_units_Z 40
_cell_length_a 16.896206
_cell_length_b 25.962299
_cell_length_c 5.011292
_cell_angle_alpha 90.000000
_cell_angle_beta 90.000000
_cell_angle_gamma 90.000000
_cell_volume 2198.275159
_symmetry_space_group_name_H-M "C 2 2 21"
_symmetry_group_IT_number 20
_symmetry_cell_setting 'orthorhombic'
loop_
_space_group_symop_operation_xyz
x,y,z
-x,-y,1/2+z
x,-y,-z
-x,y,1/2-z
1/2+x,1/2+y,z
1/2-x,1/2-y,1/2+z
1/2+x,1/2-y,-z
1/2-x,1/2+y,1/2-z
loop_
_atom_site_type_symbol
_atom_site_label
_atom_site_fract_x
_atom_site_fract_y
_atom_site_fract_z
Si Si1 0.412740 0.317533 0.143012
Si Si2 0.729370 0.443057 0.545473
Si Si3 0.447756 0.576669 0.013609
Si Si4 0.295772 0.233803 0.949881
Si Si5 0.234017 0.873259 0.067492
O O1 0.500000 0.305867 0.250000
O O2 0.349440 0.344514 0.349885
O O3 0.426187 0.363457 0.930541
O O4 0.371950 0.267272 0.022631
O O5 0.764338 0.500000 0.500000
O O6 0.636787 0.447781 0.467878
O O7 0.762322 0.402051 0.334184
O O8 0.729083 0.416266 0.836281
O O9 0.500000 0.554107 0.250000
O O10 0.500000 0.576174 0.750000
O O11 0.271866 0.242134 0.642892
O O12 0.292394 0.173247 0.009181
#
# Coordination Sequence:
#
# PCOD9316904 Si02
#       5
#     8   8   8   8   8
#     4   9  18  31  50  73  97 128 159 189 231 286
#     4  11  21  33  48  64  87 124 167 203 233 269
#     4  10  19  30  43  63  93 123 154 193 232 271
#     4  10  19  32  50  70  96 130 159 189 239 291
#     4  10  20  34  48  68  97 125 157 198 239 279
#
# _framework density 18.196085
#
# number of rings (size 3 to 8) (size 9 to 14) (size 15 to 20)
#    0.000    2.000    0.000    7.800    0.000    4.000 
#    0.000    0.000    0.000    0.000    0.000    0.000 
#    0.000    3.200    0.000    0.600    0.000    0.000 
#
# Total GULP energy -111457.444825 kJ/mol
# GULP energy per Si atom -5572.872241 kJ/mol
# Density = 1.815467 g / cm^3
# Si number density = 18.196085 Si / 1000 Ang^3
#
#
#
# Elastic Constant Matrix: (Units=GPa)
#
#
# Indices 1 2 3 4 5 6 
#
# 1 32.7974 30.6140 -5.5846 0.0000 0.0000 0.0000
# 2 30.6140 113.9517 6.1956 0.0000 0.0000 0.0000
# 3 -5.5846 6.1956 68.4381 0.0000 0.0000 0.0000
# 4 0.0000 0.0000 0.0000 6.3106 0.0000 0.0000
# 5 0.0000 0.0000 0.0000 0.0000 15.6907 0.0000
# 6 0.0000 0.0000 0.0000 0.0000 0.0000 -5.8889
#
#
#
# Elastic Compliance Matrix: (Units=1/GPa)
#
#
# Indices 1 2 3 4 5 6 
#
# 1 0.042015 -0.011531 0.004472 0.000000 0.000000 0.000000
# 2 -0.011531 0.011984 -0.002026 0.000000 0.000000 0.000000
# 3 0.004472 -0.002026 0.015160 0.000000 0.000000 0.000000
# 4 0.000000 0.000000 0.000000 0.158463 0.000000 0.000000
# 5 0.000000 0.000000 0.000000 0.000000 0.063732 0.000000
# 6 0.000000 0.000000 0.000000 0.000000 0.000000 -0.169812
#
#
# Mechanical properties :
#
#
# Convention : Reuss Voigt Hill
#
# Bulk Modulus (GPa) = 19.61164 30.84858 25.23011
# Shear Modulus (GPa) = 31.90669 15.48664 23.69666
#
# Velocity S-wave (km/s) = 4.19201 2.92052 3.61265
# Velocity P-wave (km/s) = 5.85081 5.32568 5.59441
#
# Compressibility (1/GPa) = 0.05099012
#
# Stress axis : x y z
#
# Youngs Moduli (GPa) = 23.80106 83.44717 65.96269
#
# Poissons Ratio (x) = 0.96221 -0.29501
# Poissons Ratio (y) = 0.27445 0.13363
# Poissons Ratio (z) = -0.10645 0.16905
#
# Static dielectric constant tensor:
#      x y z
#    x 1.609960 0.000000 0.000000 
#    y 0.000000 1.699240 0.000000 
#    z 0.000000 0.000000 1.740850 
# 
# From -- ./inp_files/2783.got.cif
#   From: 2010.05.17/outbox.cif.g08.bks.cpg/sg20_2_cif.got.tgz:2783.got - 2010.06.03 22:52:26.
