data_PCOD9316935
_publ_section_title
;
Structure prediction by ZEFSAII (Michael W. Deem and Ramdas Pophale) SiO2 
 PCOD9316935
Probable space group: C 2 2 21
;
_chemical_formula_sum "Si O2"
_cell_formula_units_Z 48
_cell_length_a 30.425272
_cell_length_b 5.212789
_cell_length_c 12.928604
_cell_angle_alpha 90.000000
_cell_angle_beta 90.000000
_cell_angle_gamma 90.000000
_cell_volume 2050.483359
_symmetry_space_group_name_H-M "C 2 2 21"
_symmetry_group_IT_number 20
_symmetry_cell_setting 'orthorhombic'
loop_
_space_group_symop_operation_xyz
x,y,z
-x,-y,1/2+z
x,-y,-z
-x,y,1/2-z
1/2+x,1/2+y,z
1/2-x,1/2-y,1/2+z
1/2+x,1/2-y,-z
1/2-x,1/2+y,1/2-z
loop_
_atom_site_type_symbol
_atom_site_label
_atom_site_fract_x
_atom_site_fract_y
_atom_site_fract_z
Si Si1 0.986198 0.749608 0.426936
Si Si2 0.077983 0.573843 0.376098
Si Si3 0.706174 0.245932 0.666552
Si Si4 0.801294 0.753985 0.305055
Si Si5 0.884173 0.926272 0.888180
Si Si6 0.390558 0.249345 0.428900
O O1 0.984385 0.500000 0.500000
O O2 0.938421 0.767886 0.373993
O O3 0.029826 0.693078 0.361304
O O4 0.991950 0.000000 0.500000
O O5 0.082756 0.500000 0.500000
O O6 0.088726 0.294328 0.329285
O O7 0.112464 0.790601 0.340537
O O8 0.756181 0.272146 0.627787
O O9 0.700646 0.465310 0.753824
O O10 0.664344 0.309037 0.595494
O O11 0.701623 0.968040 0.718410
O O12 0.845991 0.728388 0.366072
O O13 0.903660 0.000000 0.000000
O O14 0.387793 0.500000 0.500000
O O15 0.392323 0.000000 0.500000
#
# Coordination Sequence:
#
# PCOD9316935 Si02
#       6
#     8   8   8   8   8   8
#     4   9  16  28  48  74 103 133 165 205 257 310
#     4   9  16  28  47  73 104 133 164 207 256 305
#     4  10  21  37  55  74 102 144 178 206 260 325
#     4  10  21  38  56  74 103 141 175 209 262 324
#     4  10  19  31  51  78 103 132 174 218 252 290
#     4  10  20  34  56  83 104 129 172 223 262 296
#
# _framework density 23.409116999999998
#
# number of rings (size 3 to 8) (size 9 to 14) (size 15 to 20)
#    0.000    2.333    0.000    4.500    0.000    0.667 
#    0.000    2.500    0.000    6.000    0.000    0.000 
#    0.000    0.000    0.000    0.000    0.000    0.000 
#
# Total GULP energy -133853.495177 kJ/mol
# GULP energy per Si atom -5577.228966 kJ/mol
# Density = 2.335584 g / cm^3
# Si number density = 23.409117 Si / 1000 Ang^3
#
#
#
# Elastic Constant Matrix: (Units=GPa)
#
#
# Indices 1 2 3 4 5 6 
#
# 1 204.0879 37.0504 30.4979 0.0000 0.0000 0.0000
# 2 37.0504 161.2946 11.8191 0.0000 0.0000 0.0000
# 3 30.4979 11.8191 25.3328 0.0000 0.0000 0.0000
# 4 0.0000 0.0000 0.0000 6.3592 0.0000 0.0000
# 5 0.0000 0.0000 0.0000 0.0000 39.3766 0.0000
# 6 0.0000 0.0000 0.0000 0.0000 0.0000 24.6809
#
#
#
# Elastic Compliance Matrix: (Units=1/GPa)
#
#
# Indices 1 2 3 4 5 6 
#
# 1 0.006096 -0.000893 -0.006923 0.000000 0.000000 0.000000
# 2 -0.000893 0.006550 -0.001981 0.000000 0.000000 0.000000
# 3 -0.006923 -0.001981 0.048733 0.000000 0.000000 0.000000
# 4 0.000000 0.000000 0.000000 0.157252 0.000000 0.000000
# 5 0.000000 0.000000 0.000000 0.000000 0.025396 0.000000
# 6 0.000000 0.000000 0.000000 0.000000 0.000000 0.040517
#
#
# Mechanical properties :
#
#
# Convention : Reuss Voigt Hill
#
# Bulk Modulus (GPa) = 23.93140 61.05002 42.49071
# Shear Modulus (GPa) = 15.72000 34.83987 25.27994
#
# Velocity S-wave (km/s) = 2.59421 3.86204 3.28978
# Velocity P-wave (km/s) = 4.38389 6.78405 5.71147
#
# Compressibility (1/GPa) = 0.04178611
#
# Stress axis : x y z
#
# Youngs Moduli (GPa) = 164.02862 152.66859 20.52004
#
# Poissons Ratio (x) = 0.13635 0.14206
# Poissons Ratio (y) = 0.14650 0.04065
# Poissons Ratio (z) = 1.13554 0.30240
#
# Static dielectric constant tensor:
#      x y z
#    x 1.972530 0.000000 0.000000 
#    y 0.000000 1.908930 0.000000 
#    z 0.000000 0.000000 1.937790 
# 
# From -- ./inp_files/22164.got.cif
#   From: 2010.05.17/outbox.cif.g08.bks.cpg/sg20_12_cif.got.tgz:22164.got - 2010.06.03 22:52:26.
