data_PCOD9316669
_publ_section_title
;
Structure prediction by ZEFSAII (Michael W. Deem and Ramdas Pophale) SiO2 
 PCOD9316669
Probable space group: C 2 2 21
;
_chemical_formula_sum "Si O2"
_cell_formula_units_Z 60
_cell_length_a 10.726966
_cell_length_b 20.215031
_cell_length_c 11.955605
_cell_angle_alpha 90.000000
_cell_angle_beta 90.000000
_cell_angle_gamma 90.000000
_cell_volume 2592.524527
_symmetry_space_group_name_H-M "C 2 2 21"
_symmetry_group_IT_number 20
_symmetry_cell_setting 'orthorhombic'
loop_
_space_group_symop_operation_xyz
x,y,z
-x,-y,1/2+z
x,-y,-z
-x,y,1/2-z
1/2+x,1/2+y,z
1/2-x,1/2-y,1/2+z
1/2+x,1/2-y,-z
1/2-x,1/2+y,1/2-z
loop_
_atom_site_type_symbol
_atom_site_label
_atom_site_fract_x
_atom_site_fract_y
_atom_site_fract_z
Si Si1 0.945898 0.659487 0.073702
Si Si2 0.451785 0.299438 0.506823
Si Si3 0.921927 0.546968 0.906421
Si Si4 0.246210 0.783080 0.175033
Si Si5 0.302958 0.015188 0.677683
Si Si6 0.400059 0.380722 0.160540
Si Si7 0.195433 0.366592 0.790578
Si Si8 0.500000 0.750742 0.250000
O O1 0.834847 0.645422 0.159978
O O2 0.978175 0.734216 0.042057
O O3 0.065750 0.633809 0.141744
O O4 0.933926 0.617175 0.963282
O O5 0.316803 0.300944 0.444195
O O6 0.529929 0.358093 0.451234
O O7 0.456879 0.291142 0.640343
O O8 0.833675 0.542335 0.800960
O O9 0.060466 0.519917 0.878310
O O10 0.865650 0.500000 0.000000
O O11 0.158334 0.817755 0.269376
O O12 0.254779 0.702618 0.172071
O O13 0.385107 0.797228 0.215342
O O14 0.205116 0.066673 0.628840
O O15 0.253946 0.939881 0.686637
O O16 0.500000 0.408898 0.250000
#
# Coordination Sequence:
#
# PCOD9316669 Si02
#       8
#     8   8   8   8   8   8   8   4
#     4  10  18  34  64  93 134 176 224 282 365 419
#     4  10  24  44  71  98 142 190 240 304 361 441
#     4  11  20  35  58 104 141 166 223 304 362 412
#     4  10  24  44  68  99 141 183 240 300 360 434
#     4  11  23  36  65 100 137 177 240 289 357 446
#     4  10  23  47  67  97 143 197 238 298 376 430
#     4  10  18  38  62  94 131 187 229 278 351 435
#     4  12  28  42  70 114 132 186 252 302 374 434
#
# _framework density 23.143463000000001
#
# number of rings (size 3 to 8) (size 9 to 14) (size 15 to 20)
#    0.000    1.600    4.000    0.800    5.600    1.067 
#    3.600    0.000    0.000    0.800    0.000    0.000 
#    0.000    0.000    0.000    0.000    0.000    0.000 
#
# Total GULP energy -167597.257693 kJ/mol
# GULP energy per Si atom -5586.575256 kJ/mol
# Density = 2.309079 g / cm^3
# Si number density = 23.143463 Si / 1000 Ang^3
#
#
#
# Elastic Constant Matrix: (Units=GPa)
#
#
# Indices 1 2 3 4 5 6 
#
# 1 86.1941 19.0918 27.0946 0.0000 0.0000 0.0000
# 2 19.0918 103.5880 16.5503 0.0000 0.0000 0.0000
# 3 27.0946 16.5503 149.3544 0.0000 0.0000 0.0000
# 4 0.0000 0.0000 0.0000 28.1523 0.0000 0.0000
# 5 0.0000 0.0000 0.0000 0.0000 7.3360 0.0000
# 6 0.0000 0.0000 0.0000 0.0000 0.0000 1.5160
#
#
#
# Elastic Compliance Matrix: (Units=1/GPa)
#
#
# Indices 1 2 3 4 5 6 
#
# 1 0.012701 -0.002008 -0.002082 0.000000 0.000000 0.000000
# 2 -0.002008 0.010145 -0.000760 0.000000 0.000000 0.000000
# 3 -0.002082 -0.000760 0.007157 0.000000 0.000000 0.000000
# 4 0.000000 0.000000 0.000000 0.035521 0.000000 0.000000
# 5 0.000000 0.000000 0.000000 0.000000 0.136314 0.000000
# 6 0.000000 0.000000 0.000000 0.000000 0.000000 0.659623
#
#
# Mechanical properties :
#
#
# Convention : Reuss Voigt Hill
#
# Bulk Modulus (GPa) = 49.25147 51.62331 50.43739
# Shear Modulus (GPa) = 5.69522 25.82751 15.76136
#
# Velocity S-wave (km/s) = 1.57041 3.34424 2.61248
# Velocity P-wave (km/s) = 4.96139 6.10460 5.56244
#
# Compressibility (1/GPa) = 0.02030396
#
# Stress axis : x y z
#
# Youngs Moduli (GPa) = 78.73474 98.56910 139.71743
#
# Poissons Ratio (x) = 0.19795 0.29083
# Poissons Ratio (y) = 0.15812 0.10617
# Poissons Ratio (z) = 0.16389 0.07490
#
# Static dielectric constant tensor:
#      x y z
#    x 1.960830 0.000000 0.000000 
#    y 0.000000 1.893420 0.000000 
#    z 0.000000 0.000000 1.896290 
# 
# From -- ./inp_files/14373.got.cif
#   From: 2010.05.17/outbox.cif.g08.bks.cpg/sg20_8_cif.got.tgz:14373.got - 2010.06.03 22:52:26.
