data_PCOD9316040
_publ_section_title
;
Structure prediction by ZEFSAII (Michael W. Deem and Ramdas Pophale) SiO2 
 PCOD9316040
Probable space group: P 21 21 21
;
_chemical_formula_sum "Si O2"
_cell_formula_units_Z 24
_cell_length_a 19.052947
_cell_length_b 9.203860
_cell_length_c 4.852822
_cell_angle_alpha 90.000000
_cell_angle_beta 90.000000
_cell_angle_gamma 90.000000
_cell_volume 850.994053
_symmetry_space_group_name_H-M "P 21 21 21"
_symmetry_group_IT_number 19
_symmetry_cell_setting 'orthorhombic'
loop_
_space_group_symop_operation_xyz
x,y,z
1/2-x,-y,1/2+z
1/2+x,1/2-y,-z
-x,1/2+y,1/2-z
loop_
_atom_site_type_symbol
_atom_site_label
_atom_site_fract_x
_atom_site_fract_y
_atom_site_fract_z
Si Si1 0.771195 0.079779 0.561763
Si Si2 0.133146 0.955900 0.538382
Si Si3 0.232221 0.176079 0.791684
Si Si4 0.030442 0.714100 0.753756
Si Si5 0.916435 0.048148 0.247165
Si Si6 0.898756 0.723812 0.372282
O O1 0.738335 0.235354 0.491305
O O2 0.844621 0.075021 0.407290
O O3 0.775027 0.029035 0.872898
O O4 0.188411 0.850031 0.385870
O O5 0.070785 0.867085 0.690032
O O6 0.188110 0.029407 0.748829
O O7 0.108892 0.080819 0.321404
O O8 0.176961 0.256166 0.989026
O O9 0.073161 0.604227 0.558350
O O10 0.952713 0.706127 0.627195
O O11 0.033858 0.650636 0.061114
O O12 0.925246 0.874383 0.236874
#
# Coordination Sequence:
#
# PCOD9316040 Si02
#       6
#     4   4   4   4   4   4
#     4  12  25  47  77 113 150 198 259 326 395 467
#     4  12  28  50  78 118 157 212 264 333 399 478
#     4  12  27  45  80 112 155 208 265 329 395 472
#     4  12  31  51  82 114 162 212 269 327 402 482
#     4  12  28  52  78 114 156 213 261 332 395 481
#     4  12  29  51  79 113 162 209 270 329 404 478
#
# _framework density 28.202311999999999
#
# number of rings (size 3 to 8) (size 9 to 14) (size 15 to 20)
#    0.000    0.000    5.000    3.000   11.667    0.000 
#    0.000    0.000    0.000    0.000    0.000    0.000 
#    0.000    0.000    0.000    0.000    0.000    0.000 
#
# Total GULP energy -134579.315113 kJ/mol
# GULP energy per Si atom -5607.471463 kJ/mol
# Density = 2.813812 g / cm^3
# Si number density = 28.202312 Si / 1000 Ang^3
#
#
#
# Elastic Constant Matrix: (Units=GPa)
#
#
# Indices 1 2 3 4 5 6 
#
# 1 154.8227 28.9800 12.3432 0.0000 0.0000 0.0000
# 2 28.9800 169.3908 25.8307 0.0000 0.0000 0.0000
# 3 12.3432 25.8307 98.6250 0.0000 0.0000 0.0000
# 4 0.0000 0.0000 0.0000 57.6525 0.0000 0.0000
# 5 0.0000 0.0000 0.0000 0.0000 39.9426 0.0000
# 6 0.0000 0.0000 0.0000 0.0000 0.0000 52.4929
#
#
#
# Elastic Compliance Matrix: (Units=1/GPa)
#
#
# Indices 1 2 3 4 5 6 
#
# 1 0.006702 -0.001061 -0.000561 0.000000 0.000000 0.000000
# 2 -0.001061 0.006317 -0.001522 0.000000 0.000000 0.000000
# 3 -0.000561 -0.001522 0.010608 0.000000 0.000000 0.000000
# 4 0.000000 0.000000 0.000000 0.017345 0.000000 0.000000
# 5 0.000000 0.000000 0.000000 0.000000 0.025036 0.000000
# 6 0.000000 0.000000 0.000000 0.000000 0.000000 0.019050
#
#
# Mechanical properties :
#
#
# Convention : Reuss Voigt Hill
#
# Bulk Modulus (GPa) = 57.66962 61.90514 59.78738
# Shear Modulus (GPa) = 51.47925 53.72991 52.60458
#
# Velocity S-wave (km/s) = 4.27705 4.36955 4.32355
# Velocity P-wave (km/s) = 6.69954 6.88878 6.79482
#
# Compressibility (1/GPa) = 0.01734015
#
# Stress axis : x y z
#
# Youngs Moduli (GPa) = 149.20161 158.30063 94.26707
#
# Poissons Ratio (x) = 0.16798 0.05287
# Poissons Ratio (y) = 0.15832 0.14345
# Poissons Ratio (z) = 0.08369 0.24089
#
# Static dielectric constant tensor:
#      x y z
#    x 2.245450 0.000000 0.000000 
#    y 0.000000 2.306710 0.000000 
#    z 0.000000 0.000000 2.165100 
# 
# From -- ./inp_files/432.got.cif
#   From: 2010.05.17/outbox.cif.g08.bks.cpg/sg19_1_cif.got.tgz:432.got - 2010.06.03 22:46:19.
