data_PCOD9316032
_publ_section_title
;
Structure prediction by ZEFSAII (Michael W. Deem and Ramdas Pophale) SiO2 
 PCOD9316032
Probable space group: P 21 21 21
;
_chemical_formula_sum "Si O2"
_cell_formula_units_Z 28
_cell_length_a 15.144679
_cell_length_b 5.205228
_cell_length_c 14.127199
_cell_angle_alpha 90.000000
_cell_angle_beta 90.000000
_cell_angle_gamma 90.000000
_cell_volume 1113.668389
_symmetry_space_group_name_H-M "P 21 21 21"
_symmetry_group_IT_number 19
_symmetry_cell_setting 'orthorhombic'
loop_
_space_group_symop_operation_xyz
x,y,z
1/2-x,-y,1/2+z
1/2+x,1/2-y,-z
-x,1/2+y,1/2-z
loop_
_atom_site_type_symbol
_atom_site_label
_atom_site_fract_x
_atom_site_fract_y
_atom_site_fract_z
Si Si1 0.133224 0.106205 0.091004
Si Si2 0.644555 0.201858 0.231514
Si Si3 0.888476 0.542387 0.188938
Si Si4 0.035037 0.622483 0.033225
Si Si5 0.187146 0.608067 0.592542
Si Si6 0.958919 0.447319 0.847353
Si Si7 0.701919 0.972206 0.619350
O O1 0.099341 0.063707 0.198803
O O2 0.083707 0.349753 0.045472
O O3 0.236976 0.174364 0.092867
O O4 0.106133 0.849037 0.036922
O O5 0.615701 0.474986 0.271520
O O6 0.549400 0.083464 0.208400
O O7 0.704471 0.158591 0.141621
O O8 0.698562 0.073872 0.317434
O O9 0.864219 0.251763 0.157157
O O10 0.968728 0.635012 0.122632
O O11 0.812488 0.753628 0.168074
O O12 0.981143 0.633034 0.935028
O O13 0.087492 0.710868 0.601499
O O14 0.193285 0.479065 0.491211
#
# Coordination Sequence:
#
# PCOD9316032 Si02
#       7
#     4   4   4   4   4   4   4
#     4  12  27  47  76 112 154 201 261 323 387 470
#     4  12  27  49  78 114 155 208 263 323 395 473
#     4  12  24  50  75 109 154 201 258 322 391 456
#     4  12  27  48  77 112 153 203 262 318 392 467
#     4  12  27  50  75 111 157 203 259 330 393 468
#     4  12  27  49  78 111 159 204 262 327 391 472
#     4  12  27  47  81 111 154 208 259 323 393 466
#
# _framework density 25.142133999999999
#
# number of rings (size 3 to 8) (size 9 to 14) (size 15 to 20)
#    0.000    0.000    4.286    5.143    4.000    2.286 
#    0.000    0.000    0.000    0.000    0.000    0.000 
#    0.000    0.000    0.000    0.000    0.000    0.000 
#
# Total GULP energy -156854.192206 kJ/mol
# GULP energy per Si atom -5601.935436 kJ/mol
# Density = 2.508491 g / cm^3
# Si number density = 25.142134 Si / 1000 Ang^3
#
#
#
# Elastic Constant Matrix: (Units=GPa)
#
#
# Indices 1 2 3 4 5 6 
#
# 1 74.9424 3.9619 6.8520 0.0000 0.0000 0.0000
# 2 3.9619 64.3591 -2.2894 0.0000 0.0000 0.0000
# 3 6.8520 -2.2894 84.2950 0.0000 0.0000 0.0000
# 4 0.0000 0.0000 0.0000 20.7709 0.0000 0.0000
# 5 0.0000 0.0000 0.0000 0.0000 46.6960 0.0000
# 6 0.0000 0.0000 0.0000 0.0000 0.0000 47.0623
#
#
#
# Elastic Compliance Matrix: (Units=1/GPa)
#
#
# Indices 1 2 3 4 5 6 
#
# 1 0.013492 -0.000870 -0.001120 0.000000 0.000000 0.000000
# 2 -0.000870 0.015609 0.000495 0.000000 0.000000 0.000000
# 3 -0.001120 0.000495 0.011968 0.000000 0.000000 0.000000
# 4 0.000000 0.000000 0.000000 0.048144 0.000000 0.000000
# 5 0.000000 0.000000 0.000000 0.000000 0.021415 0.000000
# 6 0.000000 0.000000 0.000000 0.000000 0.000000 0.021248
#
#
# Mechanical properties :
#
#
# Convention : Reuss Voigt Hill
#
# Bulk Modulus (GPa) = 26.26296 26.73841 26.50068
# Shear Modulus (GPa) = 33.88436 37.24397 35.56416
#
# Velocity S-wave (km/s) = 3.67510 3.85299 3.76510
# Velocity P-wave (km/s) = 5.33638 5.51834 5.42812
#
# Compressibility (1/GPa) = 0.03807644
#
# Stress axis : x y z
#
# Youngs Moduli (GPa) = 74.11787 64.06560 83.55890
#
# Poissons Ratio (x) = 0.05576 0.09362
# Poissons Ratio (y) = 0.06451 -0.04133
# Poissons Ratio (z) = 0.08304 -0.03169
#
# Static dielectric constant tensor:
#      x y z
#    x 2.011970 0.000000 0.000000 
#    y 0.000000 2.009940 0.000000 
#    z 0.000000 0.000000 1.951420 
# 
# From -- ./inp_files/6247.got.cif
#   From: 2010.05.17/outbox.cif.g08.bks.cpg/sg19_4_cif.got.tgz:6247.got - 2010.06.03 22:46:19.
