data_PCOD9316789
_publ_section_title
;
Structure prediction by ZEFSAII (Michael W. Deem and Ramdas Pophale) SiO2 
 PCOD9316789
Probable space group: C 2 2 21
;
_chemical_formula_sum "Si O2"
_cell_formula_units_Z 56
_cell_length_a 15.069688
_cell_length_b 9.203838
_cell_length_c 21.116484
_cell_angle_alpha 90.000000
_cell_angle_beta 90.000000
_cell_angle_gamma 90.000000
_cell_volume 2928.834519
_symmetry_space_group_name_H-M "C 2 2 21"
_symmetry_group_IT_number 20
_symmetry_cell_setting 'orthorhombic'
loop_
_space_group_symop_operation_xyz
x,y,z
-x,-y,1/2+z
x,-y,-z
-x,y,1/2-z
1/2+x,1/2+y,z
1/2-x,1/2-y,1/2+z
1/2+x,1/2-y,-z
1/2-x,1/2+y,1/2-z
loop_
_atom_site_type_symbol
_atom_site_label
_atom_site_fract_x
_atom_site_fract_y
_atom_site_fract_z
Si Si1 0.005805 0.232073 0.108521
Si Si2 0.793054 0.182341 0.879969
Si Si3 0.383796 0.993083 0.424266
Si Si4 0.718154 0.751737 0.881590
Si Si5 0.861178 0.912819 0.804534
Si Si6 0.170006 0.930183 0.841328
Si Si7 0.140621 0.826378 0.509855
O O1 0.039531 0.397715 0.108103
O O2 0.093263 0.134033 0.113876
O O3 0.940900 0.179619 0.164683
O O4 0.951017 0.206807 0.044512
O O5 0.708548 0.091352 0.907795
O O6 0.751114 0.316152 0.842643
O O7 0.850222 0.068136 0.839577
O O8 0.846972 0.238691 0.940551
O O9 0.394930 0.000000 0.500000
O O10 0.368753 0.153173 0.396547
O O11 0.772442 0.824822 0.824008
O O12 0.698843 0.586720 0.865546
O O13 0.782207 0.772146 0.942783
O O14 0.866711 0.934547 0.730033
O O15 0.147405 0.000000 0.500000
#
# Coordination Sequence:
#
# PCOD9316789 Si02
#       7
#     8   8   8   8   8   8   8
#     4  10  23  36  62  86 120 168 198 249 317 368
#     4  10  19  38  65  82 117 165 202 251 302 364
#     4  10  18  38  59  87 117 158 197 249 309 372
#     4  10  20  37  64  89 120 157 204 261 304 361
#     4  10  20  42  62  83 125 166 207 246 304 370
#     4  11  23  37  61  97 118 159 214 252 298 372
#     4  11  18  41  60  83 119 162 198 249 323 367
#
# _framework density 19.120234
#
# number of rings (size 3 to 8) (size 9 to 14) (size 15 to 20)
#    0.000    1.714    5.714    1.286    0.000    1.714 
#    5.143    0.000    0.000    5.143    0.000    0.000 
#    0.000    0.000    0.000    0.000    0.000    0.000 
#
# Total GULP energy -156250.437536 kJ/mol
# GULP energy per Si atom -5580.372769 kJ/mol
# Density = 1.907672 g / cm^3
# Si number density = 19.120234 Si / 1000 Ang^3
#
#
#
# Elastic Constant Matrix: (Units=GPa)
#
#
# Indices 1 2 3 4 5 6 
#
# 1 63.2257 35.1617 28.8134 0.0000 0.0000 0.0000
# 2 35.1617 111.0737 27.6538 0.0000 0.0000 0.0000
# 3 28.8134 27.6538 72.2056 0.0000 0.0000 0.0000
# 4 0.0000 0.0000 0.0000 21.0718 0.0000 0.0000
# 5 0.0000 0.0000 0.0000 0.0000 24.0252 0.0000
# 6 0.0000 0.0000 0.0000 0.0000 0.0000 23.8290
#
#
#
# Elastic Compliance Matrix: (Units=1/GPa)
#
#
# Indices 1 2 3 4 5 6 
#
# 1 0.021770 -0.005227 -0.006685 0.000000 0.000000 0.000000
# 2 -0.005227 0.011207 -0.002206 0.000000 0.000000 0.000000
# 3 -0.006685 -0.002206 0.017362 0.000000 0.000000 0.000000
# 4 0.000000 0.000000 0.000000 0.047457 0.000000 0.000000
# 5 0.000000 0.000000 0.000000 0.000000 0.041623 0.000000
# 6 0.000000 0.000000 0.000000 0.000000 0.000000 0.041966
#
#
# Mechanical properties :
#
#
# Convention : Reuss Voigt Hill
#
# Bulk Modulus (GPa) = 45.24549 47.75142 46.49846
# Shear Modulus (GPa) = 23.04264 24.11029 23.57647
#
# Velocity S-wave (km/s) = 3.47529 3.55488 3.51531
# Velocity P-wave (km/s) = 6.31019 6.47133 6.39127
#
# Compressibility (1/GPa) = 0.02210165
#
# Stress axis : x y z
#
# Youngs Moduli (GPa) = 45.93485 89.22973 57.59682
#
# Poissons Ratio (x) = 0.46641 0.38505
# Poissons Ratio (y) = 0.24011 0.12707
# Poissons Ratio (z) = 0.30709 0.19687
#
# Static dielectric constant tensor:
#      x y z
#    x 1.687540 0.000000 0.000000 
#    y 0.000000 1.659550 0.000000 
#    z 0.000000 0.000000 1.669760 
# 
# From -- ./inp_files/27560.got.cif
#   From: 2010.05.17/outbox.cif.g08.bks.cpg/sg20_14_cif.got.tgz:27560.got - 2010.06.03 22:52:26.
