data_PCOD9316598
_publ_section_title
;
Structure prediction by ZEFSAII (Michael W. Deem and Ramdas Pophale) SiO2 
 PCOD9316598
Probable space group: C 2 2 21
;
_chemical_formula_sum "Si O2"
_cell_formula_units_Z 52
_cell_length_a 23.704126
_cell_length_b 5.397499
_cell_length_c 17.770751
_cell_angle_alpha 90.000000
_cell_angle_beta 90.000000
_cell_angle_gamma 90.000000
_cell_volume 2273.643131
_symmetry_space_group_name_H-M "C 2 2 21"
_symmetry_group_IT_number 20
_symmetry_cell_setting 'orthorhombic'
loop_
_space_group_symop_operation_xyz
x,y,z
-x,-y,1/2+z
x,-y,-z
-x,y,1/2-z
1/2+x,1/2+y,z
1/2-x,1/2-y,1/2+z
1/2+x,1/2-y,-z
1/2-x,1/2+y,1/2-z
loop_
_atom_site_type_symbol
_atom_site_label
_atom_site_fract_x
_atom_site_fract_y
_atom_site_fract_z
Si Si1 0.792777 0.500000 0.500000
Si Si2 0.351867 0.824656 0.647892
Si Si3 0.703191 0.322594 0.788906
Si Si4 0.971117 0.720958 0.832791
Si Si5 0.703309 0.193029 0.409262
Si Si6 0.843517 0.811940 0.868045
Si Si7 0.483625 0.276855 0.338689
O O1 0.829907 0.369651 0.563533
O O2 0.752681 0.289186 0.464117
O O3 0.326742 0.571251 0.681189
O O4 0.418707 0.793696 0.653723
O O5 0.331117 0.074774 0.688936
O O6 0.763514 0.317809 0.829250
O O7 0.702034 0.327368 0.699159
O O8 0.904705 0.773478 0.831401
O O9 0.000000 0.699438 0.750000
O O10 0.981216 0.454537 0.869826
O O11 0.001129 0.955180 0.871520
O O12 0.659735 0.421572 0.407425
O O13 0.674206 0.925878 0.417220
O O14 0.500000 0.301199 0.250000
#
# Coordination Sequence:
#
# PCOD9316598 Si02
#       7
#     4   8   8   8   8   8   8
#     4  10  26  46  64  94 128 184 240 268 326 402
#     4  11  22  38  65  92 129 175 219 276 330 401
#     4  11  21  37  59  94 129 162 207 270 341 401
#     4  10  20  34  56  88 126 158 198 251 323 405
#     4  11  24  39  61  88 128 170 219 272 315 399
#     4  12  22  38  62  95 129 169 206 266 345 398
#     4  10  18  33  56  90 124 162 206 266 335 393
#
# _framework density 22.870781999999998
#
# number of rings (size 3 to 8) (size 9 to 14) (size 15 to 20)
#    0.000    1.231    0.000    9.231    0.000    5.538 
#    0.000    0.000    0.000    3.692    0.000    0.000 
#    0.000    0.000    0.000    0.000    0.000    0.000 
#
# Total GULP energy -145414.354137 kJ/mol
# GULP energy per Si atom -5592.859775 kJ/mol
# Density = 2.281873 g / cm^3
# Si number density = 22.870782 Si / 1000 Ang^3
#
#
#
# Elastic Constant Matrix: (Units=GPa)
#
#
# Indices 1 2 3 4 5 6 
#
# 1 89.0674 8.1403 13.7647 0.0000 0.0000 0.0000
# 2 8.1403 186.2183 24.4763 0.0000 0.0000 0.0000
# 3 13.7647 24.4763 66.9659 0.0000 0.0000 0.0000
# 4 0.0000 0.0000 0.0000 29.5429 0.0000 0.0000
# 5 0.0000 0.0000 0.0000 0.0000 33.1181 0.0000
# 6 0.0000 0.0000 0.0000 0.0000 0.0000 39.2712
#
#
#
# Elastic Compliance Matrix: (Units=1/GPa)
#
#
# Indices 1 2 3 4 5 6 
#
# 1 0.011603 -0.000204 -0.002311 0.000000 0.000000 0.000000
# 2 -0.000204 0.005645 -0.002021 0.000000 0.000000 0.000000
# 3 -0.002311 -0.002021 0.016147 0.000000 0.000000 0.000000
# 4 0.000000 0.000000 0.000000 0.033849 0.000000 0.000000
# 5 0.000000 0.000000 0.000000 0.000000 0.030195 0.000000
# 6 0.000000 0.000000 0.000000 0.000000 0.000000 0.025464
#
#
# Mechanical properties :
#
#
# Convention : Reuss Voigt Hill
#
# Bulk Modulus (GPa) = 41.11231 48.33491 44.72361
# Shear Modulus (GPa) = 35.69359 40.11114 37.90237
#
# Velocity S-wave (km/s) = 3.95481 4.19240 4.07534
# Velocity P-wave (km/s) = 6.23450 6.67943 6.46079
#
# Compressibility (1/GPa) = 0.02432361
#
# Stress axis : x y z
#
# Youngs Moduli (GPa) = 86.18353 177.16003 61.93211
#
# Poissons Ratio (x) = 0.03605 0.14310
# Poissons Ratio (y) = 0.01754 0.12518
# Poissons Ratio (z) = 0.19914 0.35809
#
# Static dielectric constant tensor:
#      x y z
#    x 1.804270 0.000000 0.000000 
#    y 0.000000 1.917850 0.000000 
#    z 0.000000 0.000000 2.081630 
# 
# From -- ./inp_files/27912.got.cif
#   From: 2010.05.17/outbox.cif.g08.bks.cpg/sg20_14_cif.got.tgz:27912.got - 2010.06.03 22:52:26.
