data_PCOD9316250
_publ_section_title
;
Structure prediction by ZEFSAII (Michael W. Deem and Ramdas Pophale) SiO2 
 PCOD9316250
Probable space group: C 2 2 21
;
_chemical_formula_sum "Si O2"
_cell_formula_units_Z 64
_cell_length_a 15.075909
_cell_length_b 8.565642
_cell_length_c 21.947516
_cell_angle_alpha 90.000000
_cell_angle_beta 90.000000
_cell_angle_gamma 90.000000
_cell_volume 2834.188952
_symmetry_space_group_name_H-M "C 2 2 21"
_symmetry_group_IT_number 20
_symmetry_cell_setting 'orthorhombic'
loop_
_space_group_symop_operation_xyz
x,y,z
-x,-y,1/2+z
x,-y,-z
-x,y,1/2-z
1/2+x,1/2+y,z
1/2-x,1/2-y,1/2+z
1/2+x,1/2-y,-z
1/2-x,1/2+y,1/2-z
loop_
_atom_site_type_symbol
_atom_site_label
_atom_site_fract_x
_atom_site_fract_y
_atom_site_fract_z
Si Si1 0.949094 0.388165 0.605024
Si Si2 0.748982 0.509615 0.267717
Si Si3 0.797818 0.808251 0.327432
Si Si4 0.777988 0.976284 0.565741
Si Si5 0.427604 0.950897 0.195781
Si Si6 0.165601 0.320478 0.125435
Si Si7 0.000994 0.874686 0.820992
Si Si8 0.514201 0.571135 0.938831
O O1 0.881788 0.287068 0.647512
O O2 0.891137 0.543989 0.590963
O O3 0.980567 0.258902 0.557024
O O4 0.034670 0.443525 0.641933
O O5 0.739059 0.682757 0.291789
O O6 0.676408 0.434595 0.223742
O O7 0.836461 0.505858 0.225102
O O8 0.772001 0.404264 0.325677
O O9 0.750994 0.899779 0.382718
O O10 0.776322 0.796874 0.585550
O O11 0.735925 0.000000 0.500000
O O12 0.883332 0.014130 0.560976
O O13 0.500000 0.962754 0.250000
O O14 0.433957 0.771880 0.174705
O O15 0.093732 0.212514 0.160746
O O16 0.000000 0.923896 0.750000
O O17 0.980810 0.003362 0.873475
O O18 0.471476 0.500000 0.000000
#
# Coordination Sequence:
#
# PCOD9316250 Si02
#       8
#     8   8   8   8   8   8   8   8
#     4   9  18  33  51  78 109 147 191 233 282 347
#     4  11  19  33  53  82 119 142 180 235 291 354
#     4  10  20  32  51  79 111 144 179 232 289 338
#     4   9  18  34  51  73 108 145 186 233 284 346
#     4  10  16  33  54  76 111 147 185 227 282 353
#     4   9  16  30  52  74 107 137 181 234 282 340
#     4   9  15  29  48  74 100 140 181 225 286 338
#     4   9  18  31  47  75 112 140 184 241 289 337
#
# _framework density 22.581416000000001
#
# number of rings (size 3 to 8) (size 9 to 14) (size 15 to 20)
#    0.000    2.500    5.000    0.750    0.000    0.500 
#    2.250   21.250    0.000    1.500    0.000    0.000 
#    0.000    0.000    0.000    0.000    0.000    0.000 
#
# Total GULP energy -178492.789247 kJ/mol
# GULP energy per Si atom -5577.899664 kJ/mol
# Density = 2.253002 g / cm^3
# Si number density = 22.581416 Si / 1000 Ang^3
#
#
#
# Elastic Constant Matrix: (Units=GPa)
#
#
# Indices 1 2 3 4 5 6 
#
# 1 26.8606 12.5463 -3.9425 0.0000 0.0000 0.0000
# 2 12.5463 137.3918 62.0428 0.0000 0.0000 0.0000
# 3 -3.9425 62.0428 112.2535 0.0000 0.0000 0.0000
# 4 0.0000 0.0000 0.0000 28.2293 0.0000 0.0000
# 5 0.0000 0.0000 0.0000 0.0000 12.9305 0.0000
# 6 0.0000 0.0000 0.0000 0.0000 0.0000 15.9731
#
#
#
# Elastic Compliance Matrix: (Units=1/GPa)
#
#
# Indices 1 2 3 4 5 6 
#
# 1 0.040619 -0.005801 0.004633 0.000000 0.000000 0.000000
# 2 -0.005801 0.010528 -0.006023 0.000000 0.000000 0.000000
# 3 0.004633 -0.006023 0.012400 0.000000 0.000000 0.000000
# 4 0.000000 0.000000 0.000000 0.035424 0.000000 0.000000
# 5 0.000000 0.000000 0.000000 0.000000 0.077336 0.000000
# 6 0.000000 0.000000 0.000000 0.000000 0.000000 0.062605
#
#
# Mechanical properties :
#
#
# Convention : Reuss Voigt Hill
#
# Bulk Modulus (GPa) = 20.33971 46.42213 33.38092
# Shear Modulus (GPa) = 18.54031 25.15052 21.84542
#
# Velocity S-wave (km/s) = 2.86849 3.34094 3.11369
# Velocity P-wave (km/s) = 4.47189 5.95691 5.26700
#
# Compressibility (1/GPa) = 0.04916490
#
# Stress axis : x y z
#
# Youngs Moduli (GPa) = 24.61900 94.98608 80.64645
#
# Poissons Ratio (x) = 0.55105 -0.37364
# Poissons Ratio (y) = 0.14283 0.48570
# Poissons Ratio (z) = -0.11406 0.57206
#
# Static dielectric constant tensor:
#      x y z
#    x 1.906050 0.000000 0.000000 
#    y 0.000000 1.888930 0.000000 
#    z 0.000000 0.000000 1.920030 
# 
# From -- ./inp_files/27960.got.cif
#   From: 2010.05.17/outbox.cif.g08.bks.cpg/sg20_14_cif.got.tgz:27960.got - 2010.06.03 22:52:26.
