data_PCOD9316105
_publ_section_title
;
Structure prediction by ZEFSAII (Michael W. Deem and Ramdas Pophale) SiO2 
 PCOD9316105
Probable space group: P 21 21 21
;
_chemical_formula_sum "Si O2"
_cell_formula_units_Z 16
_cell_length_a 22.042408
_cell_length_b 5.638421
_cell_length_c 4.921002
_cell_angle_alpha 90.000000
_cell_angle_beta 90.000000
_cell_angle_gamma 90.000000
_cell_volume 611.603664
_symmetry_space_group_name_H-M "P 21 21 21"
_symmetry_group_IT_number 19
_symmetry_cell_setting 'orthorhombic'
loop_
_space_group_symop_operation_xyz
x,y,z
1/2-x,-y,1/2+z
1/2+x,1/2-y,-z
-x,1/2+y,1/2-z
loop_
_atom_site_type_symbol
_atom_site_label
_atom_site_fract_x
_atom_site_fract_y
_atom_site_fract_z
Si Si1 0.152880 0.006457 0.301156
Si Si2 0.927288 0.842701 0.551707
Si Si3 0.558216 0.846352 0.536459
Si Si4 0.745863 0.835900 0.972490
O O1 0.098168 0.890222 0.469999
O O2 0.187184 0.794390 0.146011
O O3 0.125155 0.187864 0.083146
O O4 0.202624 0.139770 0.480787
O O5 0.989604 0.694815 0.557514
O O6 0.913840 0.953987 0.842447
O O7 0.941315 0.057381 0.342721
O O8 0.765336 0.035145 0.757409
#
# Coordination Sequence:
#
# PCOD9316105 Si02
#       4
#     4   4   4   4
#     4  12  30  54  86 120 166 216 264 344 400 484
#     4  12  28  52  81 122 166 212 268 330 407 483
#     4  12  28  52  81 122 166 212 268 330 407 483
#     4  12  30  56  82 122 162 216 276 328 402 482
#
# _framework density 26.160730999999998
#
# number of rings (size 3 to 8) (size 9 to 14) (size 15 to 20)
#    0.000    0.000    2.500    4.500    0.000   20.000 
#    0.000    0.000    0.000    0.000    0.000    0.000 
#    0.000    0.000    0.000    0.000    0.000    0.000 
#
# Total GULP energy -90049.345982 kJ/mol
# GULP energy per Si atom -5628.084124 kJ/mol
# Density = 2.610119 g / cm^3
# Si number density = 26.160731 Si / 1000 Ang^3
#
#
#
# Elastic Constant Matrix: (Units=GPa)
#
#
# Indices 1 2 3 4 5 6 
#
# 1 106.0730 14.8065 16.8734 0.0000 0.0000 0.0000
# 2 14.8065 72.8084 3.4427 0.0000 0.0000 0.0000
# 3 16.8734 3.4427 83.1421 0.0000 0.0000 0.0000
# 4 0.0000 0.0000 0.0000 56.4715 0.0000 0.0000
# 5 0.0000 0.0000 0.0000 0.0000 31.6468 0.0000
# 6 0.0000 0.0000 0.0000 0.0000 0.0000 59.2468
#
#
#
# Elastic Compliance Matrix: (Units=1/GPa)
#
#
# Indices 1 2 3 4 5 6 
#
# 1 0.010009 -0.001943 -0.001951 0.000000 0.000000 0.000000
# 2 -0.001943 0.014139 -0.000191 0.000000 0.000000 0.000000
# 3 -0.001951 -0.000191 0.012431 0.000000 0.000000 0.000000
# 4 0.000000 0.000000 0.000000 0.017708 0.000000 0.000000
# 5 0.000000 0.000000 0.000000 0.000000 0.031599 0.000000
# 6 0.000000 0.000000 0.000000 0.000000 0.000000 0.016879
#
#
# Mechanical properties :
#
#
# Convention : Reuss Voigt Hill
#
# Bulk Modulus (GPa) = 35.20003 36.91876 36.05940
# Shear Modulus (GPa) = 41.52662 44.59975 43.06319
#
# Velocity S-wave (km/s) = 3.98850 4.13345 4.06162
# Velocity P-wave (km/s) = 5.89027 6.07646 5.98409
#
# Compressibility (1/GPa) = 0.02840906
#
# Stress axis : x y z
#
# Youngs Moduli (GPa) = 99.90956 70.72693 80.44127
#
# Poissons Ratio (x) = 0.13744 0.15693
# Poissons Ratio (y) = 0.19415 0.01537
# Poissons Ratio (z) = 0.19491 0.01352
#
# Static dielectric constant tensor:
#      x y z
#    x 2.020060 0.000000 0.000000 
#    y 0.000000 2.035380 0.000000 
#    z 0.000000 0.000000 1.977920 
# 
# From -- ./inp_files/114.got.cif
#   From: 2010.05.17/outbox.cif.g08.bks.cpg/sg19_1_cif.got.tgz:114.got - 2010.06.03 22:46:19.
