data_PCOD9316288
_publ_section_title
;
Structure prediction by ZEFSAII (Michael W. Deem and Ramdas Pophale) SiO2 
 PCOD9316288
Probable space group: C 2 2 21
;
_chemical_formula_sum "Si O2"
_cell_formula_units_Z 60
_cell_length_a 28.536822
_cell_length_b 24.928263
_cell_length_c 5.556897
_cell_angle_alpha 90.000000
_cell_angle_beta 90.000000
_cell_angle_gamma 90.000000
_cell_volume 3953.028735
_symmetry_space_group_name_H-M "C 2 2 21"
_symmetry_group_IT_number 20
_symmetry_cell_setting 'orthorhombic'
loop_
_space_group_symop_operation_xyz
x,y,z
-x,-y,1/2+z
x,-y,-z
-x,y,1/2-z
1/2+x,1/2+y,z
1/2-x,1/2-y,1/2+z
1/2+x,1/2-y,-z
1/2-x,1/2+y,1/2-z
loop_
_atom_site_type_symbol
_atom_site_label
_atom_site_fract_x
_atom_site_fract_y
_atom_site_fract_z
Si Si1 0.500000 0.346120 0.750000
Si Si2 0.147341 0.262535 0.561402
Si Si3 0.582688 0.366665 0.049762
Si Si4 0.056536 0.970745 0.252183
Si Si5 0.811480 0.854514 0.572800
Si Si6 0.210439 0.158743 0.569616
Si Si7 0.453204 0.269274 0.144011
Si Si8 0.694278 0.774104 0.063443
O O1 0.460238 0.381200 0.625531
O O2 0.527494 0.308133 0.564220
O O3 0.165837 0.200145 0.564881
O O4 0.091165 0.264379 0.558912
O O5 0.167442 0.285860 0.812551
O O6 0.167662 0.286413 0.313607
O O7 0.580609 0.412356 0.249665
O O8 0.632816 0.362280 0.929358
O O9 0.568274 0.308847 0.153672
O O10 0.000000 0.964883 0.250000
O O11 0.069255 0.000000 0.500000
O O12 0.070066 0.000000 0.000000
O O13 0.791181 0.874452 0.823884
O O14 0.799533 0.790535 0.567094
O O15 0.792400 0.873959 0.316552
O O16 0.256136 0.196370 0.566641
O O17 0.500000 0.241751 0.250000
#
# Coordination Sequence:
#
# PCOD9316288 Si02
#       8
#     4   8   8   8   8   8   8   8
#     4  10  20  28  46  58  74  96 124 152 200 240
#     4  10  17  27  38  54  74  99 125 148 177 221
#     4  11  21  32  46  62  76  99 124 161 202 249
#     4  10  23  37  49  60  74  95 126 163 207 255
#     4  10  18  27  42  59  79  95 120 145 182 227
#     4  10  17  27  41  59  80 101 119 146 178 224
#     4  10  20  29  40  58  77 101 125 160 197 236
#     4  10  17  27  41  57  79 101 123 146 178 222
#
# _framework density 15.178236
#
# number of rings (size 3 to 8) (size 9 to 14) (size 15 to 20)
#    0.000    1.867    2.667    6.800    6.533    0.000 
#    0.000    0.000    0.000    0.000    0.000    0.000 
#    0.000    0.000    0.000    0.000    0.000    0.000 
#
# Total GULP energy -167205.826279 kJ/mol
# GULP energy per Si atom -5573.527543 kJ/mol
# Density = 1.514369 g / cm^3
# Si number density = 15.178236 Si / 1000 Ang^3
#
#
#
# Elastic Constant Matrix: (Units=GPa)
#
#
# Indices 1 2 3 4 5 6 
#
# 1 81.0557 12.2374 32.4768 0.0000 0.0000 0.0000
# 2 12.2374 6.5576 7.8256 0.0000 0.0000 0.0000
# 3 32.4768 7.8256 127.6725 0.0000 0.0000 0.0000
# 4 0.0000 0.0000 0.0000 9.8363 0.0000 0.0000
# 5 0.0000 0.0000 0.0000 0.0000 23.8484 0.0000
# 6 0.0000 0.0000 0.0000 0.0000 0.0000 2.1532
#
#
#
# Elastic Compliance Matrix: (Units=1/GPa)
#
#
# Indices 1 2 3 4 5 6 
#
# 1 0.018012 -0.030366 -0.002720 0.000000 0.000000 0.000000
# 2 -0.030366 0.215726 -0.005498 0.000000 0.000000 0.000000
# 3 -0.002720 -0.005498 0.008862 0.000000 0.000000 0.000000
# 4 0.000000 0.000000 0.000000 0.101664 0.000000 0.000000
# 5 0.000000 0.000000 0.000000 0.000000 0.041931 0.000000
# 6 0.000000 0.000000 0.000000 0.000000 0.000000 0.464429
#
#
# Mechanical properties :
#
#
# Convention : Reuss Voigt Hill
#
# Bulk Modulus (GPa) = 6.04489 35.59614 20.82052
# Shear Modulus (GPa) = 5.08680 18.01732 11.55206
#
# Velocity S-wave (km/s) = 1.83266 3.44910 2.76179
# Velocity P-wave (km/s) = 2.91023 6.27413 4.89051
#
# Compressibility (1/GPa) = 0.16542887
#
# Stress axis : x y z
#
# Youngs Moduli (GPa) = 55.51922 4.63552 112.84671
#
# Poissons Ratio (x) = 0.14076 0.30700
# Poissons Ratio (y) = 1.68591 0.62046
# Poissons Ratio (z) = 0.15104 0.02549
#
# Static dielectric constant tensor:
#      x y z
#    x 1.528380 0.000000 0.000000 
#    y 0.000000 1.458490 0.000000 
#    z 0.000000 0.000000 1.637610 
# 
# From -- ./inp_files/3940.got.cif
#   From: 2010.05.17/outbox.cif.g08.bks.cpg/sg20_2_cif.got.tgz:3940.got - 2010.06.03 22:52:26.
