data_PCOD9316845
_publ_section_title
;
Structure prediction by ZEFSAII (Michael W. Deem and Ramdas Pophale) SiO2 
 PCOD9316845
Probable space group: C 2 2 21
;
_chemical_formula_sum "Si O2"
_cell_formula_units_Z 48
_cell_length_a 9.142722
_cell_length_b 15.456184
_cell_length_c 18.053891
_cell_angle_alpha 90.000000
_cell_angle_beta 90.000000
_cell_angle_gamma 90.000000
_cell_volume 2551.224106
_symmetry_space_group_name_H-M "C 2 2 21"
_symmetry_group_IT_number 20
_symmetry_cell_setting 'orthorhombic'
loop_
_space_group_symop_operation_xyz
x,y,z
-x,-y,1/2+z
x,-y,-z
-x,y,1/2-z
1/2+x,1/2+y,z
1/2-x,1/2-y,1/2+z
1/2+x,1/2-y,-z
1/2-x,1/2+y,1/2-z
loop_
_atom_site_type_symbol
_atom_site_label
_atom_site_fract_x
_atom_site_fract_y
_atom_site_fract_z
Si Si1 0.460147 0.346963 0.664826
Si Si2 0.778708 0.305819 0.413491
Si Si3 0.098096 0.487820 0.139091
Si Si4 0.681996 0.054052 0.302352
Si Si5 0.483991 0.238270 0.171769
Si Si6 0.766058 0.652468 0.416844
O O1 0.500000 0.322473 0.750000
O O2 0.375664 0.270804 0.621656
O O3 0.347309 0.427588 0.672838
O O4 0.607509 0.362863 0.618803
O O5 0.844954 0.395200 0.384063
O O6 0.615530 0.291685 0.383401
O O7 0.769683 0.307171 0.501952
O O8 0.165304 0.519128 0.218573
O O9 0.150137 0.560905 0.082116
O O10 0.922573 0.492618 0.149044
O O11 0.603329 0.148384 0.310158
O O12 0.500000 0.284924 0.250000
O O13 0.638576 0.212864 0.137385
#
# Coordination Sequence:
#
# PCOD9316845 Si02
#       6
#     8   8   8   8   8   8
#     4  11  21  38  62  91 114 160 213 244 289 373
#     4  11  24  34  59  94 119 149 199 257 299 349
#     4  10  19  38  59  84 120 154 196 246 306 356
#     4   9  18  37  63  83 107 159 204 237 290 363
#     4  10  18  40  60  80 113 162 200 233 288 359
#     4  11  20  39  61  84 123 159 190 242 310 364
#
# _framework density 18.814496999999999
#
# number of rings (size 3 to 8) (size 9 to 14) (size 15 to 20)
#    0.000    1.667    5.000    2.500    2.333    0.000 
#    3.000    0.000    0.000    6.000    0.000    0.000 
#    0.000    0.000    0.000    0.000    0.000    0.000 
#
# Total GULP energy -133875.726690 kJ/mol
# GULP energy per Si atom -5578.155279 kJ/mol
# Density = 1.877167 g / cm^3
# Si number density = 18.814497 Si / 1000 Ang^3
#
#
#
# Elastic Constant Matrix: (Units=GPa)
#
#
# Indices 1 2 3 4 5 6 
#
# 1 139.0999 22.9007 54.9290 0.0000 0.0000 0.0000
# 2 22.9007 34.3194 25.0708 0.0000 0.0000 0.0000
# 3 54.9290 25.0708 118.5394 0.0000 0.0000 0.0000
# 4 0.0000 0.0000 0.0000 9.8003 0.0000 0.0000
# 5 0.0000 0.0000 0.0000 0.0000 25.2542 0.0000
# 6 0.0000 0.0000 0.0000 0.0000 0.0000 12.3316
#
#
#
# Elastic Compliance Matrix: (Units=1/GPa)
#
#
# Indices 1 2 3 4 5 6 
#
# 1 0.009153 -0.003559 -0.003488 0.000000 0.000000 0.000000
# 2 -0.003559 0.035846 -0.005932 0.000000 0.000000 0.000000
# 3 -0.003488 -0.005932 0.011307 0.000000 0.000000 0.000000
# 4 0.000000 0.000000 0.000000 0.102037 0.000000 0.000000
# 5 0.000000 0.000000 0.000000 0.000000 0.039597 0.000000
# 6 0.000000 0.000000 0.000000 0.000000 0.000000 0.081092
#
#
# Mechanical properties :
#
#
# Convention : Reuss Voigt Hill
#
# Bulk Modulus (GPa) = 32.95239 55.30662 44.12950
# Shear Modulus (GPa) = 15.86756 22.08111 18.97434
#
# Velocity S-wave (km/s) = 2.90723 3.42953 3.17913
# Velocity P-wave (km/s) = 5.36859 6.71877 6.08126
#
# Compressibility (1/GPa) = 0.03034681
#
# Stress axis : x y z
#
# Youngs Moduli (GPa) = 109.25929 27.89678 88.43973
#
# Poissons Ratio (x) = 0.09928 0.30851
# Poissons Ratio (y) = 0.38885 0.52465
# Poissons Ratio (z) = 0.38114 0.16549
#
# Static dielectric constant tensor:
#      x y z
#    x 1.697830 0.000000 0.000000 
#    y 0.000000 1.638730 0.000000 
#    z 0.000000 0.000000 1.661140 
# 
# From -- ./inp_files/23608.got.cif
#   From: 2010.05.17/outbox.cif.g08.bks.cpg/sg20_12_cif.got.tgz:23608.got - 2010.06.03 22:52:26.
