data_PCOD9316146
_publ_section_title
;
Structure prediction by ZEFSAII (Michael W. Deem and Ramdas Pophale) SiO2 
 PCOD9316146
Probable space group: P 21 21 21
;
_chemical_formula_sum "Si O2"
_cell_formula_units_Z 32
_cell_length_a 21.000000
_cell_length_b 6.000000
_cell_length_c 12.000000
_cell_angle_alpha 90.000000
_cell_angle_beta 90.000000
_cell_angle_gamma 90.000000
_cell_volume 1512.000000
_symmetry_space_group_name_H-M "P 21 21 21"
_symmetry_group_IT_number 19
_symmetry_cell_setting 'orthorhombic'
loop_
_space_group_symop_operation_xyz
x,y,z
1/2-x,-y,1/2+z
1/2+x,1/2-y,-z
-x,1/2+y,1/2-z
loop_
_atom_site_type_symbol
_atom_site_label
_atom_site_fract_x
_atom_site_fract_y
_atom_site_fract_z
Si Si1 0.228633 0.723041 0.490184
Si Si2 0.464199 0.561206 0.759866
Si Si3 0.636858 0.272380 0.904334
Si Si4 0.668256 0.666332 0.288859
Si Si5 0.703188 0.447802 0.697138
Si Si6 0.876836 0.845227 0.037450
Si Si7 0.074425 0.109643 0.867241
Si Si8 0.433976 0.558536 0.183266
O O1 0.299701 0.672261 0.535825
O O2 0.196793 0.880606 0.587124
O O3 0.182208 0.512398 0.482018
O O4 0.229068 0.835962 0.367929
O O5 0.497965 0.311036 0.742223
O O6 0.408492 0.605237 0.666761
O O7 0.430350 0.547681 0.881213
O O8 0.664985 0.450889 0.814306
O O9 0.596434 0.376521 0.005386
O O10 0.734589 0.706471 0.221100
O O11 0.628963 0.498426 0.210736
O O12 0.616426 0.858019 0.310297
O O13 0.652339 0.350682 0.610775
O O14 0.906929 0.788783 0.917627
O O15 0.064551 0.346561 0.807661
O O16 0.006008 0.995287 0.851731
#
# Coordination Sequence:
#
# PCOD9316146 Si02
#       8
#     4   4   4   4   4   4   4   4
#     4  10  21  43  68  97 138 178 233 300 363 435
#     4  11  26  50  75 107 149 194 248 310 367 445
#     4  10  24  43  67 107 135 187 247 294 374 438
#     4  10  22  40  63  94 129 168 225 277 351 425
#     4  10  21  42  67  95 132 173 226 295 360 427
#     4  10  24  42  67  98 133 181 237 294 370 426
#     4  12  22  42  62  95 132 178 228 282 350 426
#     4  11  24  40  63  91 130 177 224 284 347 418
#
# _framework density 21.164021000000002
#
# number of rings (size 3 to 8) (size 9 to 14) (size 15 to 20)
#    0.000    1.500    2.500    1.500    5.250    1.000 
#    4.500    0.000    0.000    0.000    0.000    0.000 
#    0.000    0.000    0.000    0.000    0.000    0.000 
#
# Total GULP energy -178253.841554 kJ/mol
# GULP energy per Si atom -5570.432549 kJ/mol
# Density = 2.111585 g / cm^3
# Si number density = 21.164021 Si / 1000 Ang^3
#
#
#
# Elastic Constant Matrix: (Units=GPa)
#
#
# Indices 1 2 3 4 5 6 
#
# 1 129.3876 24.1017 34.1319 0.0000 0.0000 0.0000
# 2 24.1017 30.6915 15.4629 0.0000 0.0000 0.0000
# 3 34.1319 15.4629 129.3730 0.0000 0.0000 0.0000
# 4 0.0000 0.0000 0.0000 9.6593 0.0000 0.0000
# 5 0.0000 0.0000 0.0000 0.0000 51.2340 0.0000
# 6 0.0000 0.0000 0.0000 0.0000 0.0000 25.8103
#
#
#
# Elastic Compliance Matrix: (Units=1/GPa)
#
#
# Indices 1 2 3 4 5 6 
#
# 1 0.009391 -0.006519 -0.001698 0.000000 0.000000 0.000000
# 2 -0.006519 0.039195 -0.002965 0.000000 0.000000 0.000000
# 3 -0.001698 -0.002965 0.008532 0.000000 0.000000 0.000000
# 4 0.000000 0.000000 0.000000 0.103527 0.000000 0.000000
# 5 0.000000 0.000000 0.000000 0.000000 0.019518 0.000000
# 6 0.000000 0.000000 0.000000 0.000000 0.000000 0.038744
#
#
# Mechanical properties :
#
#
# Convention : Reuss Voigt Hill
#
# Bulk Modulus (GPa) = 28.77376 48.53834 38.65605
# Shear Modulus (GPa) = 19.77403 31.72444 25.74924
#
# Velocity S-wave (km/s) = 3.05999 3.87587 3.49184
# Velocity P-wave (km/s) = 5.10978 6.55850 5.87893
#
# Compressibility (1/GPa) = 0.03475388
#
# Stress axis : x y z
#
# Youngs Moduli (GPa) = 106.48396 25.51327 117.20523
#
# Poissons Ratio (x) = 0.16632 0.19907
# Poissons Ratio (y) = 0.69417 0.34749
# Poissons Ratio (z) = 0.18086 0.07564
#
# Static dielectric constant tensor:
#      x y z
#    x 1.786440 0.000000 0.000000 
#    y 0.000000 1.817430 0.000000 
#    z 0.000000 0.000000 1.771480 
# 
# From -- ./inp_files/5518.got.cif
#   From: 2010.05.17/outbox.ucp.g08.bks.cvg/sg19_3_cif.got.tgz:5518.got - 2010.06.11 13:13:52.
