data_PCOD9316434
_publ_section_title
;
Structure prediction by ZEFSAII (Michael W. Deem and Ramdas Pophale) SiO2 
 PCOD9316434
Probable space group: C 2 2 21
;
_chemical_formula_sum "Si O2"
_cell_formula_units_Z 44
_cell_length_a 25.031902
_cell_length_b 13.075527
_cell_length_c 5.483604
_cell_angle_alpha 90.000000
_cell_angle_beta 90.000000
_cell_angle_gamma 90.000000
_cell_volume 1794.812710
_symmetry_space_group_name_H-M "C 2 2 21"
_symmetry_group_IT_number 20
_symmetry_cell_setting 'orthorhombic'
loop_
_space_group_symop_operation_xyz
x,y,z
-x,-y,1/2+z
x,-y,-z
-x,y,1/2-z
1/2+x,1/2+y,z
1/2-x,1/2-y,1/2+z
1/2+x,1/2-y,-z
1/2-x,1/2+y,1/2-z
loop_
_atom_site_type_symbol
_atom_site_label
_atom_site_fract_x
_atom_site_fract_y
_atom_site_fract_z
Si Si1 0.162245 0.838388 0.422836
Si Si2 0.034016 0.720243 0.000041
Si Si3 0.864849 0.851308 0.573346
Si Si4 0.965247 0.500000 0.500000
Si Si5 0.339424 0.103025 0.079692
Si Si6 0.711527 0.152667 0.917963
O O1 0.138342 0.891740 0.656961
O O2 0.137837 0.720553 0.417349
O O3 0.225920 0.827940 0.446909
O O4 0.151588 0.901047 0.178172
O O5 0.000000 0.728140 0.250000
O O6 0.063872 0.608938 0.005512
O O7 0.076601 0.808292 0.975269
O O8 0.000000 0.720004 0.750000
O O9 0.821949 0.757636 0.581588
O O10 0.000000 0.500183 0.250000
O O11 0.310676 0.095372 0.341610
O O12 0.299188 0.106223 0.848796
O O13 0.372705 0.000000 0.000000
#
# Coordination Sequence:
#
# PCOD9316434 Si02
#       6
#     8   8   8   4   8   8
#     4  10  19  33  48  67  91 124 160 189 227 297
#     4  10  19  32  45  61  87 117 154 199 242 276
#     4  10  18  30  47  67  82 114 163 194 228 279
#     4   8  16  30  44  54  76 116 154 184 236 282
#     4  10  18  29  44  67  93 117 152 195 234 257
#     4  10  19  33  49  64  94 125 159 186 231 295
#
# _framework density 24.515091999999999
#
# number of rings (size 3 to 8) (size 9 to 14) (size 15 to 20)
#    0.000    2.182    0.000    7.091    0.000    0.000 
#   13.091    0.000    4.000    0.000    0.000    0.000 
#    0.000    0.000    0.000    0.000    0.000  616.364 
#
# Total GULP energy -122771.725059 kJ/mol
# GULP energy per Si atom -5580.532957 kJ/mol
# Density = 2.445930 g / cm^3
# Si number density = 24.515092 Si / 1000 Ang^3
#
#
#
# Elastic Constant Matrix: (Units=GPa)
#
#
# Indices 1 2 3 4 5 6 
#
# 1 68.6436 -1.4297 30.2256 0.0000 0.0000 0.0000
# 2 -1.4297 47.4390 24.4266 0.0000 0.0000 0.0000
# 3 30.2256 24.4266 264.8753 0.0000 0.0000 0.0000
# 4 0.0000 0.0000 0.0000 22.4326 0.0000 0.0000
# 5 0.0000 0.0000 0.0000 0.0000 21.2935 0.0000
# 6 0.0000 0.0000 0.0000 0.0000 0.0000 -6.3763
#
#
#
# Elastic Compliance Matrix: (Units=1/GPa)
#
#
# Indices 1 2 3 4 5 6 
#
# 1 0.015432 0.001440 -0.001894 0.000000 0.000000 0.000000
# 2 0.001440 0.022265 -0.002218 0.000000 0.000000 0.000000
# 3 -0.001894 -0.002218 0.004196 0.000000 0.000000 0.000000
# 4 0.000000 0.000000 0.000000 0.044578 0.000000 0.000000
# 5 0.000000 0.000000 0.000000 0.000000 0.046963 0.000000
# 6 0.000000 0.000000 0.000000 0.000000 0.000000 -0.156831
#
#
# Mechanical properties :
#
#
# Convention : Reuss Voigt Hill
#
# Bulk Modulus (GPa) = 27.35945 54.15588 40.75766
# Shear Modulus (GPa) = -851.51650 29.31900 -411.09875
#
# Velocity S-wave (km/s) = -18.65738 3.46201 -12.96365
# Velocity P-wave (km/s) = 21.28253 6.17410 14.40185
#
# Compressibility (1/GPa) = 0.03655044
#
# Stress axis : x y z
#
# Youngs Moduli (GPa) = 64.80091 44.91365 238.32380
#
# Poissons Ratio (x) = -0.06469 0.45133
# Poissons Ratio (y) = -0.09333 0.52851
# Poissons Ratio (z) = 0.12272 0.09960
#
# Static dielectric constant tensor:
#      x y z
#    x 1.872440 0.000000 0.000000 
#    y 0.000000 2.033200 0.000000 
#    z 0.000000 0.000000 2.068760 
# 
# From -- ./inp_files/2671.got.cif
#   From: 2010.05.17/outbox.cif.g08.bks.cpg/sg20_2_cif.got.tgz:2671.got - 2010.06.03 22:52:26.
