data_PCOD9316624
_publ_section_title
;
Structure prediction by ZEFSAII (Michael W. Deem and Ramdas Pophale) SiO2 
 PCOD9316624
Probable space group: C 2 2 21
;
_chemical_formula_sum "Si O2"
_cell_formula_units_Z 44
_cell_length_a 34.129572
_cell_length_b 9.004461
_cell_length_c 7.480110
_cell_angle_alpha 90.000000
_cell_angle_beta 90.000000
_cell_angle_gamma 90.000000
_cell_volume 2298.775437
_symmetry_space_group_name_H-M "C 2 2 21"
_symmetry_group_IT_number 20
_symmetry_cell_setting 'orthorhombic'
loop_
_space_group_symop_operation_xyz
x,y,z
-x,-y,1/2+z
x,-y,-z
-x,y,1/2-z
1/2+x,1/2+y,z
1/2-x,1/2-y,1/2+z
1/2+x,1/2-y,-z
1/2-x,1/2+y,1/2-z
loop_
_atom_site_type_symbol
_atom_site_label
_atom_site_fract_x
_atom_site_fract_y
_atom_site_fract_z
Si Si1 0.566867 0.057326 0.197226
Si Si2 0.196690 0.846549 0.429939
Si Si3 0.270507 0.902512 0.177594
Si Si4 0.000000 0.340528 0.250000
Si Si5 0.529197 0.648446 0.909724
Si Si6 0.655649 0.068734 0.302165
O O1 0.556470 0.231124 0.190684
O O2 0.612773 0.038812 0.230636
O O3 0.536413 0.950364 0.300462
O O4 0.559289 0.000000 0.000000
O O5 0.233484 0.880513 0.302430
O O6 0.213199 0.751516 0.597463
O O7 0.166639 0.740912 0.324874
O O8 0.179391 0.000000 0.500000
O O9 0.306264 0.986287 0.278013
O O10 0.260452 0.000000 0.000000
O O11 0.990364 0.238572 0.423323
O O12 0.500000 0.601433 0.750000
O O13 0.546812 0.500000 0.000000
O O14 0.654945 0.000000 0.500000
#
# Coordination Sequence:
#
# PCOD9316624 Si02
#       6
#     8   8   8   4   8   8
#     4  10  22  39  62  86 116 154 209 240 287 361
#     4  10  18  34  55  80 112 145 196 235 295 357
#     4   9  19  34  54  83 108 148 190 241 292 349
#     4  10  22  40  64  94 114 162 214 250 280 370
#     4  11  22  39  62  93 125 156 196 249 315 351
#     4   9  21  36  54  81 115 149 193 244 293 339
#
# _framework density 19.140623999999999
#
# number of rings (size 3 to 8) (size 9 to 14) (size 15 to 20)
#    0.000    2.545    1.818    2.182    2.545    2.182 
#    0.000    9.091    0.000    0.000    0.000    0.000 
#    0.000    0.000    0.000    0.000    0.000    0.000 
#
# Total GULP energy -122496.888489 kJ/mol
# GULP energy per Si atom -5568.040386 kJ/mol
# Density = 1.909706 g / cm^3
# Si number density = 19.140624 Si / 1000 Ang^3
#
#
#
# Elastic Constant Matrix: (Units=GPa)
#
#
# Indices 1 2 3 4 5 6 
#
# 1 65.1917 23.1296 2.9762 0.0000 0.0000 0.0000
# 2 23.1296 123.0443 10.1985 0.0000 0.0000 0.0000
# 3 2.9762 10.1985 46.7357 0.0000 0.0000 0.0000
# 4 0.0000 0.0000 0.0000 16.4668 0.0000 0.0000
# 5 0.0000 0.0000 0.0000 0.0000 26.6752 0.0000
# 6 0.0000 0.0000 0.0000 0.0000 0.0000 14.0974
#
#
#
# Elastic Compliance Matrix: (Units=1/GPa)
#
#
# Indices 1 2 3 4 5 6 
#
# 1 0.016442 -0.003059 -0.000379 0.000000 0.000000 0.000000
# 2 -0.003059 0.008846 -0.001736 0.000000 0.000000 0.000000
# 3 -0.000379 -0.001736 0.021800 0.000000 0.000000 0.000000
# 4 0.000000 0.000000 0.000000 0.060728 0.000000 0.000000
# 5 0.000000 0.000000 0.000000 0.000000 0.037488 0.000000
# 6 0.000000 0.000000 0.000000 0.000000 0.000000 0.070935
#
#
# Mechanical properties :
#
#
# Convention : Reuss Voigt Hill
#
# Bulk Modulus (GPa) = 27.21871 34.17556 30.69713
# Shear Modulus (GPa) = 20.93503 24.69239 22.81371
#
# Velocity S-wave (km/s) = 3.31077 3.59563 3.45614
# Velocity P-wave (km/s) = 5.37273 5.92721 5.65677
#
# Compressibility (1/GPa) = 0.03673944
#
# Stress axis : x y z
#
# Youngs Moduli (GPa) = 60.81936 113.04435 45.87193
#
# Poissons Ratio (x) = 0.34584 0.01741
# Poissons Ratio (y) = 0.18606 0.07961
# Poissons Ratio (z) = 0.02308 0.19619
#
# Static dielectric constant tensor:
#      x y z
#    x 1.705810 0.000000 0.000000 
#    y 0.000000 1.723650 0.000000 
#    z 0.000000 0.000000 1.683900 
# 
# From -- ./inp_files/11363.got.cif
#   From: 2010.05.17/outbox.cif.g08.bks.cpg/sg20_6_cif.got.tgz:11363.got - 2010.06.03 22:52:26.
