data_PCOD9316447
_publ_section_title
;
Structure prediction by ZEFSAII (Michael W. Deem and Ramdas Pophale) SiO2 
 PCOD9316447
Probable space group: C 2 2 21
;
_chemical_formula_sum "Si O2"
_cell_formula_units_Z 64
_cell_length_a 7.472364
_cell_length_b 18.504117
_cell_length_c 24.838662
_cell_angle_alpha 90.000000
_cell_angle_beta 90.000000
_cell_angle_gamma 90.000000
_cell_volume 3434.429319
_symmetry_space_group_name_H-M "C 2 2 21"
_symmetry_group_IT_number 20
_symmetry_cell_setting 'orthorhombic'
loop_
_space_group_symop_operation_xyz
x,y,z
-x,-y,1/2+z
x,-y,-z
-x,y,1/2-z
1/2+x,1/2+y,z
1/2-x,1/2-y,1/2+z
1/2+x,1/2-y,-z
1/2-x,1/2+y,1/2-z
loop_
_atom_site_type_symbol
_atom_site_label
_atom_site_fract_x
_atom_site_fract_y
_atom_site_fract_z
Si Si1 0.270230 0.445731 0.545640
Si Si2 0.783467 0.957554 0.130943
Si Si3 0.973002 0.750463 0.907109
Si Si4 0.993112 0.364736 0.188223
Si Si5 0.178212 0.834201 0.034511
Si Si6 0.262296 0.656484 0.966309
Si Si7 0.657066 0.595149 0.426185
Si Si8 0.803763 0.951231 0.369183
O O1 0.198992 0.500000 0.500000
O O2 0.240023 0.366984 0.520453
O O3 0.489055 0.448765 0.547906
O O4 0.223491 0.475028 0.604767
O O5 0.658094 0.917528 0.173442
O O6 0.758456 0.907787 0.077631
O O7 0.991218 0.958277 0.148515
O O8 0.745337 0.040066 0.113609
O O9 0.134252 0.719297 0.944138
O O10 0.989191 0.703930 0.852287
O O11 0.795115 0.727451 0.939438
O O12 0.942995 0.835832 0.899399
O O13 0.819694 0.412976 0.174154
O O14 0.000000 0.342633 0.250000
O O15 0.191154 0.898105 0.078960
O O16 0.968670 0.818190 0.029216
O O17 0.221156 0.622155 0.024503
#
# Coordination Sequence:
#
# PCOD9316447 Si02
#       8
#     8   8   8   8   8   8   8   8
#     4   8  14  27  48  71 105 137 163 199 246 299
#     4   9  18  35  54  79 104 136 179 220 260 316
#     4  10  21  32  48  79 108 139 178 210 260 322
#     4  10  21  37  57  74  97 132 184 235 271 313
#     4   8  15  29  46  70 107 142 167 196 239 313
#     4   9  18  31  50  75 112 145 171 199 251 317
#     4  10  18  29  51  78 114 140 169 208 262 319
#     4   8  15  30  52  77  97 127 168 218 259 304
#
# _framework density 18.634829
#
# number of rings (size 3 to 8) (size 9 to 14) (size 15 to 20)
#    0.000    3.000    0.000    2.625    3.500    1.500 
#    0.000    6.250    5.500    0.000    0.000    0.000 
#    0.000    0.000    0.000    0.000    0.000    0.000 
#
# Total GULP energy -178200.561261 kJ/mol
# GULP energy per Si atom -5568.767539 kJ/mol
# Density = 1.859241 g / cm^3
# Si number density = 18.634829 Si / 1000 Ang^3
#
#
#
# Elastic Constant Matrix: (Units=GPa)
#
#
# Indices 1 2 3 4 5 6 
#
# 1 58.9123 21.8770 19.0310 0.0000 0.0000 0.0000
# 2 21.8770 99.5844 31.5879 0.0000 0.0000 0.0000
# 3 19.0310 31.5879 78.7232 0.0000 0.0000 0.0000
# 4 0.0000 0.0000 0.0000 12.6350 0.0000 0.0000
# 5 0.0000 0.0000 0.0000 0.0000 14.9130 0.0000
# 6 0.0000 0.0000 0.0000 0.0000 0.0000 20.2555
#
#
#
# Elastic Compliance Matrix: (Units=1/GPa)
#
#
# Indices 1 2 3 4 5 6 
#
# 1 0.019239 -0.003152 -0.003386 0.000000 0.000000 0.000000
# 2 -0.003152 0.012023 -0.004062 0.000000 0.000000 0.000000
# 3 -0.003386 -0.004062 0.015151 0.000000 0.000000 0.000000
# 4 0.000000 0.000000 0.000000 0.079145 0.000000 0.000000
# 5 0.000000 0.000000 0.000000 0.000000 0.067056 0.000000
# 6 0.000000 0.000000 0.000000 0.000000 0.000000 0.049369
#
#
# Mechanical properties :
#
#
# Convention : Reuss Voigt Hill
#
# Bulk Modulus (GPa) = 39.66393 42.46796 41.06595
# Shear Modulus (GPa) = 18.41024 20.54229 19.47626
#
# Velocity S-wave (km/s) = 3.14657 3.32378 3.23639
# Velocity P-wave (km/s) = 5.87642 6.12936 6.00422
#
# Compressibility (1/GPa) = 0.02521182
#
# Stress axis : x y z
#
# Youngs Moduli (GPa) = 51.97814 83.17565 66.00128
#
# Poissons Ratio (x) = 0.26220 0.22348
# Poissons Ratio (y) = 0.16386 0.26810
# Poissons Ratio (z) = 0.17600 0.33787
#
# Static dielectric constant tensor:
#      x y z
#    x 1.675850 0.000000 0.000000 
#    y 0.000000 1.767900 0.000000 
#    z 0.000000 0.000000 1.643970 
# 
# From -- ./inp_files/28959.got.cif
#   From: 2010.05.17/outbox.cif.g08.bks.cpg/sg20_15_cif.got.tgz:28959.got - 2010.06.03 22:52:26.
