data_PCOD9316657
_publ_section_title
;
Structure prediction by ZEFSAII (Michael W. Deem and Ramdas Pophale) SiO2 
 PCOD9316657
Probable space group: C 2 2 21
;
_chemical_formula_sum "Si O2"
_cell_formula_units_Z 64
_cell_length_a 18.426841
_cell_length_b 9.380629
_cell_length_c 20.328629
_cell_angle_alpha 90.000000
_cell_angle_beta 90.000000
_cell_angle_gamma 90.000000
_cell_volume 3513.912465
_symmetry_space_group_name_H-M "C 2 2 21"
_symmetry_group_IT_number 20
_symmetry_cell_setting 'orthorhombic'
loop_
_space_group_symop_operation_xyz
x,y,z
-x,-y,1/2+z
x,-y,-z
-x,y,1/2-z
1/2+x,1/2+y,z
1/2-x,1/2-y,1/2+z
1/2+x,1/2-y,-z
1/2-x,1/2+y,1/2-z
loop_
_atom_site_type_symbol
_atom_site_label
_atom_site_fract_x
_atom_site_fract_y
_atom_site_fract_z
Si Si1 0.456750 0.233535 0.186640
Si Si2 0.693258 0.367012 0.452724
Si Si3 0.524102 0.551361 0.178387
Si Si4 0.295408 0.649022 0.800359
Si Si5 0.297689 0.623202 0.452415
Si Si6 0.196179 0.089290 0.193012
Si Si7 0.971473 0.142560 0.461316
Si Si8 0.938771 0.356590 0.958617
O O1 0.500000 0.174005 0.250000
O O2 0.495974 0.387371 0.171789
O O3 0.373594 0.271138 0.207080
O O4 0.456857 0.139135 0.119939
O O5 0.683567 0.500000 0.500000
O O6 0.700854 0.406206 0.375629
O O7 0.764371 0.275320 0.469141
O O8 0.628041 0.254406 0.460556
O O9 0.500000 0.603478 0.250000
O O10 0.610532 0.568507 0.182063
O O11 0.498442 0.633355 0.113103
O O12 0.228809 0.757127 0.789372
O O13 0.285650 0.523366 0.748700
O O14 0.272691 0.500000 0.500000
O O15 0.272063 0.573421 0.380267
O O16 0.384444 0.635926 0.456365
O O17 0.996876 0.277481 0.502323
O O18 0.995060 0.000000 0.500000
O O19 0.923273 0.500000 0.000000
#
# Coordination Sequence:
#
# PCOD9316657 Si02
#       8
#     8   8   8   8   8   8   8   8
#     4  10  19  37  64  85 113 156 206 237 291 365
#     4  10  22  38  59  82 114 156 200 237 287 362
#     4  10  18  34  62  84 110 149 207 240 282 349
#     4  10  21  37  58  90 116 153 197 245 297 354
#     4   9  20  36  56  81 117 150 190 237 298 346
#     4  10  20  36  56  86 118 150 190 249 288 354
#     4  10  19  34  58  87 110 149 198 239 287 356
#     4  11  23  37  57  88 122 152 194 254 301 343
#
# _framework density 18.213317
#
# number of rings (size 3 to 8) (size 9 to 14) (size 15 to 20)
#    0.000    2.000    3.750    0.750    1.750    1.500 
#    0.000    8.125    0.000    0.000    0.000    0.000 
#    0.000    0.000    0.000    0.000    0.000    0.000 
#
# Total GULP energy -178233.287881 kJ/mol
# GULP energy per Si atom -5569.790246 kJ/mol
# Density = 1.817186 g / cm^3
# Si number density = 18.213317 Si / 1000 Ang^3
#
#
#
# Elastic Constant Matrix: (Units=GPa)
#
#
# Indices 1 2 3 4 5 6 
#
# 1 39.1158 18.0897 7.1077 0.0000 0.0000 0.0000
# 2 18.0897 74.1040 59.3803 0.0000 0.0000 0.0000
# 3 7.1077 59.3803 111.1310 0.0000 0.0000 0.0000
# 4 0.0000 0.0000 0.0000 28.0973 0.0000 0.0000
# 5 0.0000 0.0000 0.0000 0.0000 35.7623 0.0000
# 6 0.0000 0.0000 0.0000 0.0000 0.0000 23.8152
#
#
#
# Elastic Compliance Matrix: (Units=1/GPa)
#
#
# Indices 1 2 3 4 5 6 
#
# 1 0.029550 -0.009966 0.003435 0.000000 0.000000 0.000000
# 2 -0.009966 0.026960 -0.013768 0.000000 0.000000 0.000000
# 3 0.003435 -0.013768 0.016135 0.000000 0.000000 0.000000
# 4 0.000000 0.000000 0.000000 0.035591 0.000000 0.000000
# 5 0.000000 0.000000 0.000000 0.000000 0.027962 0.000000
# 6 0.000000 0.000000 0.000000 0.000000 0.000000 0.041990
#
#
# Mechanical properties :
#
#
# Convention : Reuss Voigt Hill
#
# Bulk Modulus (GPa) = 31.20393 43.72291 37.46342
# Shear Modulus (GPa) = 21.78950 26.85316 24.32133
#
# Velocity S-wave (km/s) = 3.46258 3.84392 3.65822
# Velocity P-wave (km/s) = 5.75809 6.61506 6.20140
#
# Compressibility (1/GPa) = 0.03204724
#
# Stress axis : x y z
#
# Youngs Moduli (GPa) = 33.84098 37.09223 61.97606
#
# Poissons Ratio (x) = 0.36967 -0.21291
# Poissons Ratio (y) = 0.33727 0.85328
# Poissons Ratio (z) = -0.11625 0.51068
#
# Static dielectric constant tensor:
#      x y z
#    x 1.685140 0.000000 0.000000 
#    y 0.000000 1.617140 0.000000 
#    z 0.000000 0.000000 1.672080 
# 
# From -- ./inp_files/27766.got.cif
#   From: 2010.05.17/outbox.cif.g08.bks.cpg/sg20_14_cif.got.tgz:27766.got - 2010.06.03 22:52:26.
