data_PCOD9316543
_publ_section_title
;
Structure prediction by ZEFSAII (Michael W. Deem and Ramdas Pophale) SiO2 
 PCOD9316543
Probable space group: C 2 2 21
;
_chemical_formula_sum "Si O2"
_cell_formula_units_Z 60
_cell_length_a 9.216911
_cell_length_b 16.931766
_cell_length_c 17.181598
_cell_angle_alpha 90.000000
_cell_angle_beta 90.000000
_cell_angle_gamma 90.000000
_cell_volume 2681.335791
_symmetry_space_group_name_H-M "C 2 2 21"
_symmetry_group_IT_number 20
_symmetry_cell_setting 'orthorhombic'
loop_
_space_group_symop_operation_xyz
x,y,z
-x,-y,1/2+z
x,-y,-z
-x,y,1/2-z
1/2+x,1/2+y,z
1/2-x,1/2-y,1/2+z
1/2+x,1/2-y,-z
1/2-x,1/2+y,1/2-z
loop_
_atom_site_type_symbol
_atom_site_label
_atom_site_fract_x
_atom_site_fract_y
_atom_site_fract_z
Si Si1 0.886882 0.987747 0.637547
Si Si2 0.868319 0.314129 0.086512
Si Si3 0.603463 0.911409 0.176792
Si Si4 0.808100 0.579462 0.387163
Si Si5 0.063007 0.169180 0.327327
Si Si6 0.900454 0.000000 0.000000
Si Si7 0.111472 0.577638 0.450708
Si Si8 0.344642 0.647330 0.724019
O O1 0.733335 0.958984 0.604684
O O2 0.965535 0.908295 0.663863
O O3 0.865849 0.054969 0.701062
O O4 0.989980 0.023654 0.569537
O O5 0.934184 0.227366 0.098858
O O6 0.736027 0.317808 0.148298
O O7 0.997265 0.371231 0.115487
O O8 0.825570 0.352493 0.004739
O O9 0.500000 0.930089 0.250000
O O10 0.729744 0.853435 0.205953
O O11 0.672388 0.991453 0.145604
O O12 0.725475 0.634234 0.325550
O O13 0.703954 0.566770 0.462729
O O14 0.966932 0.608536 0.409506
O O15 0.000000 0.210912 0.250000
O O16 0.065678 0.500000 0.500000
O O17 0.500000 0.679859 0.750000
#
# Coordination Sequence:
#
# PCOD9316543 Si02
#       8
#     8   8   8   8   8   4   8   8
#     4  11  21  37  62  91 124 166 206 268 321 379
#     4  11  23  41  63  86 129 172 200 260 325 379
#     4  10  19  34  58  85 113 157 208 250 303 363
#     4  11  21  36  62  91 119 160 211 266 310 376
#     4  11  25  43  59  88 133 170 205 256 328 387
#     4  10  18  32  54  84 116 156 198 246 318 368
#     4  12  20  39  64  95 125 156 215 273 320 369
#     4  11  20  34  59  90 116 159 220 258 302 376
#
# _framework density 22.376906999999999
#
# number of rings (size 3 to 8) (size 9 to 14) (size 15 to 20)
#    0.000    1.067    4.000    4.800    0.000    1.067 
#    0.000    3.333    0.000    0.000    0.000    0.000 
#    0.000    0.000    0.000    0.000    0.000    0.000 
#
# Total GULP energy -167601.267267 kJ/mol
# GULP energy per Si atom -5586.708909 kJ/mol
# Density = 2.232598 g / cm^3
# Si number density = 22.376907 Si / 1000 Ang^3
#
#
#
# Elastic Constant Matrix: (Units=GPa)
#
#
# Indices 1 2 3 4 5 6 
#
# 1 142.0899 3.0240 33.0485 0.0000 0.0000 0.0000
# 2 3.0240 63.0745 -5.1734 0.0000 0.0000 0.0000
# 3 33.0485 -5.1734 33.0552 0.0000 0.0000 0.0000
# 4 0.0000 0.0000 0.0000 16.4124 0.0000 0.0000
# 5 0.0000 0.0000 0.0000 0.0000 26.7903 0.0000
# 6 0.0000 0.0000 0.0000 0.0000 0.0000 22.2970
#
#
#
# Elastic Compliance Matrix: (Units=1/GPa)
#
#
# Indices 1 2 3 4 5 6 
#
# 1 0.009262 -0.001219 -0.009451 0.000000 0.000000 0.000000
# 2 -0.001219 0.016221 0.003758 0.000000 0.000000 0.000000
# 3 -0.009451 0.003758 0.040289 0.000000 0.000000 0.000000
# 4 0.000000 0.000000 0.000000 0.060929 0.000000 0.000000
# 5 0.000000 0.000000 0.000000 0.000000 0.037327 0.000000
# 6 0.000000 0.000000 0.000000 0.000000 0.000000 0.044849
#
#
# Mechanical properties :
#
#
# Convention : Reuss Voigt Hill
#
# Bulk Modulus (GPa) = 19.25022 33.33533 26.29278
# Shear Modulus (GPa) = 20.83172 26.92129 23.87651
#
# Velocity S-wave (km/s) = 3.05445 3.47231 3.27006
# Velocity P-wave (km/s) = 4.58922 5.56826 5.10228
#
# Compressibility (1/GPa) = 0.05194746
#
# Stress axis : x y z
#
# Youngs Moduli (GPa) = 107.96905 61.64877 24.82038
#
# Poissons Ratio (x) = 0.07516 0.23457
# Poissons Ratio (y) = 0.13164 -0.09327
# Poissons Ratio (z) = 1.02040 -0.23165
#
# Static dielectric constant tensor:
#      x y z
#    x 1.860370 0.000000 0.000000 
#    y 0.000000 1.822960 0.000000 
#    z 0.000000 0.000000 1.893180 
# 
# From -- ./inp_files/23781.got.cif
#   From: 2010.05.17/outbox.cif.g08.bks.cpg/sg20_12_cif.got.tgz:23781.got - 2010.06.03 22:52:26.
