data_PCOD9316407
_publ_section_title
;
Structure prediction by ZEFSAII (Michael W. Deem and Ramdas Pophale) SiO2 
 PCOD9316407
Probable space group: C 2 2 21
;
_chemical_formula_sum "Si O2"
_cell_formula_units_Z 48
_cell_length_a 34.259857
_cell_length_b 7.673157
_cell_length_c 8.005224
_cell_angle_alpha 90.000000
_cell_angle_beta 90.000000
_cell_angle_gamma 90.000000
_cell_volume 2104.423384
_symmetry_space_group_name_H-M "C 2 2 21"
_symmetry_group_IT_number 20
_symmetry_cell_setting 'orthorhombic'
loop_
_space_group_symop_operation_xyz
x,y,z
-x,-y,1/2+z
x,-y,-z
-x,y,1/2-z
1/2+x,1/2+y,z
1/2-x,1/2-y,1/2+z
1/2+x,1/2-y,-z
1/2-x,1/2+y,1/2-z
loop_
_atom_site_type_symbol
_atom_site_label
_atom_site_fract_x
_atom_site_fract_y
_atom_site_fract_z
Si Si1 0.377271 0.732898 0.244284
Si Si2 0.405240 0.000000 0.500000
Si Si3 0.704253 0.585232 0.242973
Si Si4 0.158789 0.500000 0.500000
Si Si5 0.722106 0.232390 0.402850
Si Si6 0.959533 0.231833 0.150120
Si Si7 0.543877 0.150588 0.288315
O O1 0.341716 0.606332 0.282887
O O2 0.420599 0.654234 0.233633
O O3 0.379448 0.880839 0.383180
O O4 0.367076 0.845647 0.076961
O O5 0.430325 0.132785 0.380721
O O6 0.715297 0.387801 0.275729
O O7 0.713262 0.689454 0.415048
O O8 0.734056 0.665550 0.111630
O O9 0.189549 0.584485 0.370376
O O10 0.957283 0.442837 0.170262
O O11 0.000000 0.181919 0.250000
O O12 0.950427 0.224849 0.950150
O O13 0.500000 0.199769 0.250000
#
# Coordination Sequence:
#
# PCOD9316407 Si02
#       7
#     8   4   8   4   8   8   8
#     4  10  19  31  48  77 111 150 192 238 290 348
#     4  10  18  26  41  70 108 144 188 240 299 350
#     4  10  21  36  57  81 115 150 193 239 291 354
#     4  10  20  36  57  78 112 144 184 232 289 354
#     4  10  21  38  58  85 113 149 188 236 294 351
#     4   9  16  27  44  69 108 150 191 241 297 351
#     4   9  14  23  40  64  99 143 188 241 300 355
#
# _framework density 22.809100000000001
#
# number of rings (size 3 to 8) (size 9 to 14) (size 15 to 20)
#    0.000    2.333    0.000    7.000    0.000    2.667 
#    0.000    0.000    0.000    0.000    0.000    1.167 
#    0.000   44.000    0.000    5.333    0.000    2.833 
#
# Total GULP energy -133683.727558 kJ/mol
# GULP energy per Si atom -5570.155315 kJ/mol
# Density = 2.275719 g / cm^3
# Si number density = 22.809100 Si / 1000 Ang^3
#
#
#
# Elastic Constant Matrix: (Units=GPa)
#
#
# Indices 1 2 3 4 5 6 
#
# 1 169.8346 35.5868 40.2015 0.0000 0.0000 0.0000
# 2 35.5868 49.4125 4.7970 0.0000 0.0000 0.0000
# 3 40.2015 4.7970 78.7048 0.0000 0.0000 0.0000
# 4 0.0000 0.0000 0.0000 -24.0744 0.0000 0.0000
# 5 0.0000 0.0000 0.0000 0.0000 18.8425 0.0000
# 6 0.0000 0.0000 0.0000 0.0000 0.0000 9.4689
#
#
#
# Elastic Compliance Matrix: (Units=1/GPa)
#
#
# Indices 1 2 3 4 5 6 
#
# 1 0.007877 -0.005314 -0.003700 0.000000 0.000000 0.000000
# 2 -0.005314 0.023943 0.001255 0.000000 0.000000 0.000000
# 3 -0.003700 0.001255 0.014519 0.000000 0.000000 0.000000
# 4 0.000000 0.000000 0.000000 -0.041538 0.000000 0.000000
# 5 0.000000 0.000000 0.000000 0.000000 0.053072 0.000000
# 6 0.000000 0.000000 0.000000 0.000000 0.000000 0.105609
#
#
# Mechanical properties :
#
#
# Convention : Reuss Voigt Hill
#
# Bulk Modulus (GPa) = 32.44446 51.01362 41.72904
# Shear Modulus (GPa) = 26.41681 15.33851 20.87766
#
# Velocity S-wave (km/s) = 3.40688 2.59602 3.02871
# Velocity P-wave (km/s) = 5.45262 5.60355 5.52860
#
# Compressibility (1/GPa) = 0.03082190
#
# Stress axis : x y z
#
# Youngs Moduli (GPa) = 126.94616 41.76561 68.87525
#
# Poissons Ratio (x) = 0.22195 0.25482
# Poissons Ratio (y) = 0.67460 -0.08644
# Poissons Ratio (z) = 0.46967 -0.05242
#
# Static dielectric constant tensor:
#      x y z
#    x 2.025700 0.000000 0.000000 
#    y 0.000000 1.861230 0.000000 
#    z 0.000000 0.000000 2.042800 
# 
# From -- ./inp_files/11481.got.cif
#   From: 2010.05.17/outbox.cif.g08.bks.cpg/sg20_6_cif.got.tgz:11481.got - 2010.06.03 22:52:26.
