data_PCOD9316052
_publ_section_title
;
Structure prediction by ZEFSAII (Michael W. Deem and Ramdas Pophale) SiO2 
 PCOD9316052
Probable space group: P 21 21 21
;
_chemical_formula_sum "Si O2"
_cell_formula_units_Z 24
_cell_length_a 9.542100
_cell_length_b 11.360598
_cell_length_c 8.677560
_cell_angle_alpha 90.000000
_cell_angle_beta 90.000000
_cell_angle_gamma 90.000000
_cell_volume 940.681886
_symmetry_space_group_name_H-M "P 21 21 21"
_symmetry_group_IT_number 19
_symmetry_cell_setting 'orthorhombic'
loop_
_space_group_symop_operation_xyz
x,y,z
1/2-x,-y,1/2+z
1/2+x,1/2-y,-z
-x,1/2+y,1/2-z
loop_
_atom_site_type_symbol
_atom_site_label
_atom_site_fract_x
_atom_site_fract_y
_atom_site_fract_z
Si Si1 0.030676 0.939718 0.174574
Si Si2 0.728943 0.895119 0.072317
Si Si3 0.225670 0.221034 0.667010
Si Si4 0.430399 0.839452 0.482786
Si Si5 0.564717 0.493128 0.476794
Si Si6 0.812011 0.271678 0.837240
O O1 0.864106 0.939404 0.162305
O O2 0.111803 0.816909 0.161998
O O3 0.078367 0.985841 0.341396
O O4 0.078937 0.025893 0.036195
O O5 0.673254 0.781454 0.168214
O O6 0.782163 0.849208 0.906865
O O7 0.599833 0.982609 0.060150
O O8 0.157990 0.198427 0.833195
O O9 0.140203 0.128266 0.563666
O O10 0.590102 0.807450 0.448124
O O11 0.351029 0.769312 0.617142
O O12 0.630801 0.597793 0.374167
#
# Coordination Sequence:
#
# PCOD9316052 Si02
#       6
#     4   4   4   4   4   4
#     4  12  27  50  77 111 154 203 261 316 386 466
#     4  12  30  46  80 113 155 202 264 319 383 467
#     4  12  25  51  74 112 145 205 247 320 386 460
#     4  12  28  46  79 108 155 199 257 318 387 459
#     4  12  27  50  76 109 156 204 256 316 390 453
#     4  12  27  49  74 115 153 203 261 319 392 463
#
# _framework density 25.513408999999999
#
# number of rings (size 3 to 8) (size 9 to 14) (size 15 to 20)
#    0.000    0.000    5.000    3.000    9.333    0.000 
#    0.000    0.000    0.000    0.000    0.000    0.000 
#    0.000    0.000    0.000    0.000    0.000    0.000 
#
# Total GULP energy -134520.444279 kJ/mol
# GULP energy per Si atom -5605.018512 kJ/mol
# Density = 2.545534 g / cm^3
# Si number density = 25.513409 Si / 1000 Ang^3
#
#
#
# Elastic Constant Matrix: (Units=GPa)
#
#
# Indices 1 2 3 4 5 6 
#
# 1 86.5417 -3.3977 10.2024 0.0000 0.0000 0.0000
# 2 -3.3977 35.7937 22.9892 0.0000 0.0000 0.0000
# 3 10.2024 22.9892 100.7197 0.0000 0.0000 0.0000
# 4 0.0000 0.0000 0.0000 36.9215 0.0000 0.0000
# 5 0.0000 0.0000 0.0000 0.0000 43.2579 0.0000
# 6 0.0000 0.0000 0.0000 0.0000 0.0000 40.9089
#
#
#
# Elastic Compliance Matrix: (Units=1/GPa)
#
#
# Indices 1 2 3 4 5 6 
#
# 1 0.011843 0.002220 -0.001706 0.000000 0.000000 0.000000
# 2 0.002220 0.033153 -0.007792 0.000000 0.000000 0.000000
# 3 -0.001706 -0.007792 0.011880 0.000000 0.000000 0.000000
# 4 0.000000 0.000000 0.000000 0.027085 0.000000 0.000000
# 5 0.000000 0.000000 0.000000 0.000000 0.023117 0.000000
# 6 0.000000 0.000000 0.000000 0.000000 0.000000 0.024445
#
#
# Mechanical properties :
#
#
# Convention : Reuss Voigt Hill
#
# Bulk Modulus (GPa) = 23.62946 31.40475 27.51711
# Shear Modulus (GPa) = 31.21367 37.10173 34.15770
#
# Velocity S-wave (km/s) = 3.50154 3.81754 3.66295
# Velocity P-wave (km/s) = 5.06255 5.63625 5.35709
#
# Compressibility (1/GPa) = 0.04232004
#
# Stress axis : x y z
#
# Youngs Moduli (GPa) = 84.43478 30.16293 84.17552
#
# Poissons Ratio (x) = -0.06697 0.14364
# Poissons Ratio (y) = -0.18746 0.65590
# Poissons Ratio (z) = 0.14408 0.23503
#
# Static dielectric constant tensor:
#      x y z
#    x 2.003190 0.000000 0.000000 
#    y 0.000000 2.002600 0.000000 
#    z 0.000000 0.000000 2.006980 
# 
# From -- ./inp_files/2683.got.cif
#   From: 2010.05.17/outbox.cif.g08.bks.cpg/sg19_2_cif.got.tgz:2683.got - 2010.06.03 22:46:19.
