data_PCOD9316743
_publ_section_title
;
Structure prediction by ZEFSAII (Michael W. Deem and Ramdas Pophale) SiO2 
 PCOD9316743
Probable space group: C 2 2 21
;
_chemical_formula_sum "Si O2"
_cell_formula_units_Z 60
_cell_length_a 13.882538
_cell_length_b 18.758672
_cell_length_c 9.356600
_cell_angle_alpha 90.000000
_cell_angle_beta 90.000000
_cell_angle_gamma 90.000000
_cell_volume 2436.626842
_symmetry_space_group_name_H-M "C 2 2 21"
_symmetry_group_IT_number 20
_symmetry_cell_setting 'orthorhombic'
loop_
_space_group_symop_operation_xyz
x,y,z
-x,-y,1/2+z
x,-y,-z
-x,y,1/2-z
1/2+x,1/2+y,z
1/2-x,1/2-y,1/2+z
1/2+x,1/2-y,-z
1/2-x,1/2+y,1/2-z
loop_
_atom_site_type_symbol
_atom_site_label
_atom_site_fract_x
_atom_site_fract_y
_atom_site_fract_z
Si Si1 0.114740 0.645396 0.403661
Si Si2 0.449547 0.604337 0.442739
Si Si3 0.175195 0.523647 0.221522
Si Si4 0.611078 0.871644 0.267922
Si Si5 0.647691 0.600923 0.366645
Si Si6 0.547686 0.735585 0.888884
Si Si7 0.756558 0.236798 0.235296
Si Si8 0.302743 0.500000 0.500000
O O1 0.106528 0.586864 0.277968
O O2 0.124748 0.614978 0.562345
O O3 0.212219 0.690325 0.366617
O O4 0.022551 0.697186 0.406559
O O5 0.559808 0.582678 0.469408
O O6 0.404360 0.589213 0.287453
O O7 0.451669 0.687859 0.471418
O O8 0.374444 0.564179 0.542226
O O9 0.128890 0.447333 0.188286
O O10 0.254307 0.557332 0.115987
O O11 0.237736 0.513718 0.364776
O O12 0.500000 0.849825 0.250000
O O13 0.685241 0.808432 0.227727
O O14 0.677269 0.684006 0.358758
O O15 0.500000 0.696835 0.750000
O O16 0.657644 0.749677 0.849544
#
# Coordination Sequence:
#
# PCOD9316743 Si02
#       8
#     8   8   8   8   8   8   8   4
#     4  10  22  42  65  92 134 174 211 271 334 388
#     4  10  20  38  60  92 124 165 216 267 317 384
#     4  10  20  41  64  94 131 173 217 257 336 398
#     4  12  25  38  66 101 128 171 225 273 315 399
#     4   9  21  38  64  89 126 171 208 266 328 384
#     4  10  22  39  62  94 125 168 214 267 323 390
#     4  10  23  38  61  95 125 170 214 267 332 378
#     4  10  18  36  64  86 120 178 204 256 328 380
#
# _framework density 24.624206999999998
#
# number of rings (size 3 to 8) (size 9 to 14) (size 15 to 20)
#    0.000    1.867    1.333    1.600    7.467    2.667 
#    9.600    0.000    0.000    0.000    0.000    0.000 
#    0.000    0.000    0.000    0.000    0.000    0.000 
#
# Total GULP energy -167596.425731 kJ/mol
# GULP energy per Si atom -5586.547524 kJ/mol
# Density = 2.456816 g / cm^3
# Si number density = 24.624207 Si / 1000 Ang^3
#
#
#
# Elastic Constant Matrix: (Units=GPa)
#
#
# Indices 1 2 3 4 5 6 
#
# 1 166.6429 65.4539 1.2883 0.0000 0.0000 0.0000
# 2 65.4539 142.5005 -6.1145 0.0000 0.0000 0.0000
# 3 1.2883 -6.1145 23.8708 0.0000 0.0000 0.0000
# 4 0.0000 0.0000 0.0000 23.3777 0.0000 0.0000
# 5 0.0000 0.0000 0.0000 0.0000 9.7504 0.0000
# 6 0.0000 0.0000 0.0000 0.0000 0.0000 44.2271
#
#
#
# Elastic Compliance Matrix: (Units=1/GPa)
#
#
# Indices 1 2 3 4 5 6 
#
# 1 0.007360 -0.003435 -0.001277 0.000000 0.000000 0.000000
# 2 -0.003435 0.008699 0.002414 0.000000 0.000000 0.000000
# 3 -0.001277 0.002414 0.042579 0.000000 0.000000 0.000000
# 4 0.000000 0.000000 0.000000 0.042776 0.000000 0.000000
# 5 0.000000 0.000000 0.000000 0.000000 0.102560 0.000000
# 6 0.000000 0.000000 0.000000 0.000000 0.000000 0.022611
#
#
# Mechanical properties :
#
#
# Convention : Reuss Voigt Hill
#
# Bulk Modulus (GPa) = 18.50463 50.47440 34.48952
# Shear Modulus (GPa) = 20.06447 33.63013 26.84730
#
# Velocity S-wave (km/s) = 2.85761 3.69959 3.30552
# Velocity P-wave (km/s) = 4.29174 6.22830 5.34840
#
# Compressibility (1/GPa) = 0.05404054
#
# Stress axis : x y z
#
# Youngs Moduli (GPa) = 135.86732 114.95452 23.48555
#
# Poissons Ratio (x) = 0.39492 0.03000
# Poissons Ratio (y) = 0.46677 -0.05669
# Poissons Ratio (z) = 0.17353 -0.27746
#
# Static dielectric constant tensor:
#      x y z
#    x 1.933560 0.000000 0.000000 
#    y 0.000000 2.068140 0.000000 
#    z 0.000000 0.000000 2.057170 
# 
# From -- ./inp_files/15313.got.cif
#   From: 2010.05.17/outbox.cif.g08.bks.cpg/sg20_8_cif.got.tgz:15313.got - 2010.06.03 22:52:26.
