data_PCOD9316690
_publ_section_title
;
Structure prediction by ZEFSAII (Michael W. Deem and Ramdas Pophale) SiO2 
 PCOD9316690
Probable space group: C 2 2 21
;
_chemical_formula_sum "Si O2"
_cell_formula_units_Z 48
_cell_length_a 17.139991
_cell_length_b 11.102584
_cell_length_c 10.639391
_cell_angle_alpha 90.000000
_cell_angle_beta 90.000000
_cell_angle_gamma 90.000000
_cell_volume 2024.656848
_symmetry_space_group_name_H-M "C 2 2 21"
_symmetry_group_IT_number 20
_symmetry_cell_setting 'orthorhombic'
loop_
_space_group_symop_operation_xyz
x,y,z
-x,-y,1/2+z
x,-y,-z
-x,y,1/2-z
1/2+x,1/2+y,z
1/2-x,1/2-y,1/2+z
1/2+x,1/2-y,-z
1/2-x,1/2+y,1/2-z
loop_
_atom_site_type_symbol
_atom_site_label
_atom_site_fract_x
_atom_site_fract_y
_atom_site_fract_z
Si Si1 0.420204 0.765867 0.365108
Si Si2 0.903098 0.500000 0.500000
Si Si3 0.238473 0.452435 0.819690
Si Si4 0.876356 0.903649 0.108489
Si Si5 0.000000 0.045948 0.250000
Si Si6 0.149858 0.735096 0.592194
Si Si7 0.719922 0.616498 0.046641
O O1 0.471289 0.643199 0.355140
O O2 0.399110 0.793464 0.217512
O O3 0.339747 0.724427 0.430714
O O4 0.447458 0.884545 0.440403
O O5 0.843654 0.540989 0.388961
O O6 0.287259 0.575668 0.845398
O O7 0.296495 0.351644 0.876695
O O8 0.237689 0.412697 0.676856
O O9 0.890101 0.776872 0.039309
O O10 0.930024 0.955657 0.218181
O O11 0.894987 0.000000 0.000000
O O12 0.213764 0.638444 0.555637
O O13 0.673394 0.500000 0.000000
#
# Coordination Sequence:
#
# PCOD9316690 Si02
#       7
#     8   4   8   8   4   8   8
#     4  11  24  39  65  94 128 178 214 273 330 386
#     4  12  20  42  70  92 122 170 222 272 332 398
#     4  10  18  35  60  92 124 158 208 263 329 384
#     4  10  18  38  62  87 129 177 206 261 333 385
#     4  12  22  40  60  96 130 178 230 264 312 402
#     4  10  19  39  62  92 129 172 201 266 350 380
#     4  11  21  35  59 102 136 161 210 274 334 398
#
# _framework density 23.707722
#
# number of rings (size 3 to 8) (size 9 to 14) (size 15 to 20)
#    0.000    1.333    9.167    1.000    0.000    2.000 
#    0.000    0.000    5.500    0.000    0.000    0.000 
#    0.000    0.000    0.000    0.000    0.000    0.000 
#
# Total GULP energy -133813.413035 kJ/mol
# GULP energy per Si atom -5575.558876 kJ/mol
# Density = 2.365376 g / cm^3
# Si number density = 23.707722 Si / 1000 Ang^3
#
#
#
# Elastic Constant Matrix: (Units=GPa)
#
#
# Indices 1 2 3 4 5 6 
#
# 1 45.2858 22.8575 10.8192 0.0000 0.0000 0.0000
# 2 22.8575 99.3817 36.6220 0.0000 0.0000 0.0000
# 3 10.8192 36.6220 55.5253 0.0000 0.0000 0.0000
# 4 0.0000 0.0000 0.0000 44.7568 0.0000 0.0000
# 5 0.0000 0.0000 0.0000 0.0000 28.5924 0.0000
# 6 0.0000 0.0000 0.0000 0.0000 0.0000 18.0271
#
#
#
# Elastic Compliance Matrix: (Units=1/GPa)
#
#
# Indices 1 2 3 4 5 6 
#
# 1 0.025068 -0.005239 -0.001429 0.000000 0.000000 0.000000
# 2 -0.005239 0.014388 -0.008469 0.000000 0.000000 0.000000
# 3 -0.001429 -0.008469 0.023874 0.000000 0.000000 0.000000
# 4 0.000000 0.000000 0.000000 0.022343 0.000000 0.000000
# 5 0.000000 0.000000 0.000000 0.000000 0.034974 0.000000
# 6 0.000000 0.000000 0.000000 0.000000 0.000000 0.055472
#
#
# Mechanical properties :
#
#
# Convention : Reuss Voigt Hill
#
# Bulk Modulus (GPa) = 30.25181 37.86557 34.05869
# Shear Modulus (GPa) = 22.99791 26.93487 24.96639
#
# Velocity S-wave (km/s) = 3.11796 3.37430 3.24866
# Velocity P-wave (km/s) = 5.07447 5.58459 5.33563
#
# Compressibility (1/GPa) = 0.03305587
#
# Stress axis : x y z
#
# Youngs Moduli (GPa) = 39.89198 69.50293 41.88666
#
# Poissons Ratio (x) = 0.36412 0.05986
# Poissons Ratio (y) = 0.20899 0.35473
# Poissons Ratio (z) = 0.05701 0.58861
#
# Static dielectric constant tensor:
#      x y z
#    x 1.939930 0.000000 0.000000 
#    y 0.000000 2.014370 0.000000 
#    z 0.000000 0.000000 1.990230 
# 
# From -- ./inp_files/16283.got.cif
#   From: 2010.05.17/outbox.cif.g08.bks.cpg/sg20_9_cif.got.tgz:16283.got - 2010.06.03 22:52:26.
