data_PCOD9316289
_publ_section_title
;
Structure prediction by ZEFSAII (Michael W. Deem and Ramdas Pophale) SiO2 
 PCOD9316289
Probable space group: C 2 2 21
;
_chemical_formula_sum "Si O2"
_cell_formula_units_Z 64
_cell_length_a 8.500366
_cell_length_b 23.620603
_cell_length_c 14.087823
_cell_angle_alpha 90.000000
_cell_angle_beta 90.000000
_cell_angle_gamma 90.000000
_cell_volume 2828.606222
_symmetry_space_group_name_H-M "C 2 2 21"
_symmetry_group_IT_number 20
_symmetry_cell_setting 'orthorhombic'
loop_
_space_group_symop_operation_xyz
x,y,z
-x,-y,1/2+z
x,-y,-z
-x,y,1/2-z
1/2+x,1/2+y,z
1/2-x,1/2-y,1/2+z
1/2+x,1/2-y,-z
1/2-x,1/2+y,1/2-z
loop_
_atom_site_type_symbol
_atom_site_label
_atom_site_fract_x
_atom_site_fract_y
_atom_site_fract_z
Si Si1 0.488184 0.279335 0.367746
Si Si2 0.420869 0.957591 0.146623
Si Si3 0.310105 0.037213 0.427390
Si Si4 0.087069 0.653712 0.109167
Si Si5 0.335860 0.779957 0.353702
Si Si6 0.659500 0.533638 0.220761
Si Si7 0.661055 0.169600 0.640302
Si Si8 0.256459 0.348459 0.691947
O O1 0.500000 0.272782 0.250000
O O2 0.440014 0.219286 0.412440
O O3 0.665523 0.295450 0.399330
O O4 0.338627 0.317627 0.392938
O O5 0.500000 0.950596 0.250000
O O6 0.377709 0.894834 0.116403
O O7 0.544903 0.994230 0.089303
O O8 0.266159 0.995296 0.155764
O O9 0.351853 0.101853 0.454909
O O10 0.245030 0.042232 0.321257
O O11 0.206416 0.000000 0.500000
O O12 0.206575 0.658332 0.198295
O O13 0.910966 0.636404 0.143075
O O14 0.331880 0.813381 0.252414
O O15 0.507195 0.795809 0.393998
O O16 0.324038 0.711902 0.339971
O O17 0.500000 0.504015 0.250000
O O18 0.635630 0.596545 0.178735
#
# Coordination Sequence:
#
# PCOD9316289 Si02
#       8
#     8   8   8   8   8   8   8   8
#     4   9  15  25  43  76 103 133 167 225 280 311
#     4  10  19  35  51  76 108 142 185 217 261 330
#     4  10  21  36  55  77 106 150 188 227 284 339
#     4   9  13  27  49  71 102 128 175 224 269 316
#     4   9  16  24  41  72 108 132 164 218 279 310
#     4  10  21  32  54  85 109 140 180 240 285 329
#     4  10  17  27  44  73 109 140 169 217 267 332
#     4   9  14  26  46  76 107 126 168 231 275 313
#
# _framework density 22.625986000000001
#
# number of rings (size 3 to 8) (size 9 to 14) (size 15 to 20)
#    0.000    2.500    6.250    0.000    1.750    1.500 
#    0.000    0.625    0.000    0.000    6.500    0.000 
#    0.000    0.000    0.000    0.000    0.000    0.000 
#
# Total GULP energy -178245.875910 kJ/mol
# GULP energy per Si atom -5570.183622 kJ/mol
# Density = 2.257449 g / cm^3
# Si number density = 22.625986 Si / 1000 Ang^3
#
#
#
# Elastic Constant Matrix: (Units=GPa)
#
#
# Indices 1 2 3 4 5 6 
#
# 1 115.5632 58.4309 -0.3063 0.0000 0.0000 0.0000
# 2 58.4309 119.2171 9.7127 0.0000 0.0000 0.0000
# 3 -0.3063 9.7127 30.2089 0.0000 0.0000 0.0000
# 4 0.0000 0.0000 0.0000 -9.0510 0.0000 0.0000
# 5 0.0000 0.0000 0.0000 0.0000 -4.1003 0.0000
# 6 0.0000 0.0000 0.0000 0.0000 0.0000 -4.2827
#
#
#
# Elastic Compliance Matrix: (Units=1/GPa)
#
#
# Indices 1 2 3 4 5 6 
#
# 1 0.011621 -0.005859 0.002001 0.000000 0.000000 0.000000
# 2 -0.005859 0.011567 -0.003779 0.000000 0.000000 0.000000
# 3 0.002001 -0.003779 0.034338 0.000000 0.000000 0.000000
# 4 0.000000 0.000000 0.000000 -0.110485 0.000000 0.000000
# 5 0.000000 0.000000 0.000000 0.000000 -0.243886 0.000000
# 6 0.000000 0.000000 0.000000 0.000000 0.000000 -0.233499
#
#
# Mechanical properties :
#
#
# Convention : Reuss Voigt Hill
#
# Bulk Modulus (GPa) = 23.66595 44.51821 34.09208
# Shear Modulus (GPa) = -9.98028 9.65667 -0.16180
#
# Velocity S-wave (km/s) = -2.10251 2.06814 -0.26771
# Velocity P-wave (km/s) = 2.14202 5.04196 3.87361
#
# Compressibility (1/GPa) = 0.04225480
#
# Stress axis : x y z
#
# Youngs Moduli (GPa) = 86.05230 86.45011 29.12224
#
# Poissons Ratio (x) = 0.50648 -0.05829
# Poissons Ratio (y) = 0.50415 0.11004
# Poissons Ratio (z) = -0.17223 0.32665
#
# Static dielectric constant tensor:
#      x y z
#    x 1.887050 0.000000 0.000000 
#    y 0.000000 1.830820 0.000000 
#    z 0.000000 0.000000 2.206320 
# 
# From -- ./inp_files/23982.got.cif
#   From: 2010.05.17/outbox.cif.g08.bks.cpg/sg20_12_cif.got.tgz:23982.got - 2010.06.03 22:52:26.
