data_PCOD9316978
_publ_section_title
;
Structure prediction by ZEFSAII (Michael W. Deem and Ramdas Pophale) SiO2 
 PCOD9316978
Probable space group: C 2 2 21
;
_chemical_formula_sum "Si O2"
_cell_formula_units_Z 48
_cell_length_a 28.617686
_cell_length_b 13.699488
_cell_length_c 5.359178
_cell_angle_alpha 90.000000
_cell_angle_beta 90.000000
_cell_angle_gamma 90.000000
_cell_volume 2101.053119
_symmetry_space_group_name_H-M "C 2 2 21"
_symmetry_group_IT_number 20
_symmetry_cell_setting 'orthorhombic'
loop_
_space_group_symop_operation_xyz
x,y,z
-x,-y,1/2+z
x,-y,-z
-x,y,1/2-z
1/2+x,1/2+y,z
1/2-x,1/2-y,1/2+z
1/2+x,1/2-y,-z
1/2-x,1/2+y,1/2-z
loop_
_atom_site_type_symbol
_atom_site_label
_atom_site_fract_x
_atom_site_fract_y
_atom_site_fract_z
Si Si1 0.629357 0.869546 0.881322
Si Si2 0.140452 0.827621 0.367657
Si Si3 0.551486 0.596304 0.857466
Si Si4 0.970336 0.693477 0.503506
Si Si5 0.826900 0.352476 0.128098
Si Si6 0.266181 0.439169 0.245523
O O1 0.639983 0.753213 0.851894
O O2 0.654345 0.901884 0.626329
O O3 0.574023 0.873157 0.930241
O O4 0.651384 0.904192 0.134797
O O5 0.089705 0.876291 0.353566
O O6 0.152600 0.757118 0.598972
O O7 0.183121 0.898795 0.323637
O O8 0.500000 0.576025 0.750000
O O9 0.567972 0.500000 0.000000
O O10 0.545809 0.693129 0.029207
O O11 0.000000 0.665814 0.750000
O O12 0.000000 0.693672 0.250000
O O13 0.771811 0.356586 0.179827
O O14 0.269366 0.500000 0.500000
O O15 0.250587 0.500000 0.000000
#
# Coordination Sequence:
#
# PCOD9316978 Si02
#       6
#     8   8   8   8   8   8
#     4   9  20  35  62  85 117 166 212 260 306 378
#     4   9  24  39  64  86 127 174 229 260 318 393
#     4  10  20  36  54  89 129 182 217 271 319 379
#     4  10  19  32  54  83 122 159 212 263 309 364
#     4  10  22  41  63  87 122 168 222 264 328 390
#     4  12  27  41  64  96 130 164 219 285 342 392
#
# _framework density 22.845687999999999
#
# number of rings (size 3 to 8) (size 9 to 14) (size 15 to 20)
#    1.000    1.000    0.000    3.000    7.000    0.667 
#    0.000    0.000    0.000    0.000    0.000    0.000 
#    0.000   44.000    0.000    0.000    0.000    0.000 
#
# Total GULP energy -133772.583488 kJ/mol
# GULP energy per Si atom -5573.857645 kJ/mol
# Density = 2.279369 g / cm^3
# Si number density = 22.845688 Si / 1000 Ang^3
#
#
#
# Elastic Constant Matrix: (Units=GPa)
#
#
# Indices 1 2 3 4 5 6 
#
# 1 153.1602 33.3735 49.7974 0.0000 0.0000 0.0000
# 2 33.3735 46.2264 19.4662 0.0000 0.0000 0.0000
# 3 49.7974 19.4662 161.1231 0.0000 0.0000 0.0000
# 4 0.0000 0.0000 0.0000 28.9370 0.0000 0.0000
# 5 0.0000 0.0000 0.0000 0.0000 133.4401 0.0000
# 6 0.0000 0.0000 0.0000 0.0000 0.0000 -5.4852
#
#
#
# Elastic Compliance Matrix: (Units=1/GPa)
#
#
# Indices 1 2 3 4 5 6 
#
# 1 0.008284 -0.005165 -0.001936 0.000000 0.000000 0.000000
# 2 -0.005165 0.026013 -0.001546 0.000000 0.000000 0.000000
# 3 -0.001936 -0.001546 0.006992 0.000000 0.000000 0.000000
# 4 0.000000 0.000000 0.000000 0.034558 0.000000 0.000000
# 5 0.000000 0.000000 0.000000 0.000000 0.007494 0.000000
# 6 0.000000 0.000000 0.000000 0.000000 0.000000 -0.182309
#
#
# Mechanical properties :
#
#
# Convention : Reuss Voigt Hill
#
# Bulk Modulus (GPa) = 41.67912 62.86485 52.27199
# Shear Modulus (GPa) = -67.86598 48.56991 -9.64804
#
# Velocity S-wave (km/s) = -5.45626 4.61586 -2.05726
# Velocity P-wave (km/s) = 4.62720 7.48232 4.15777
#
# Compressibility (1/GPa) = 0.02399283
#
# Stress axis : x y z
#
# Youngs Moduli (GPa) = 120.71161 38.44222 143.02689
#
# Poissons Ratio (x) = 0.19857 0.27694
# Poissons Ratio (y) = 0.62353 0.22117
# Poissons Ratio (z) = 0.23373 0.05944
#
# Static dielectric constant tensor:
#      x y z
#    x 1.897110 0.000000 0.000000 
#    y 0.000000 1.760170 0.000000 
#    z 0.000000 0.000000 1.848570 
# 
# From -- ./inp_files/3743.got.cif
#   From: 2010.05.17/outbox.cif.g08.bks.cpg/sg20_2_cif.got.tgz:3743.got - 2010.06.03 22:52:26.
