data_PCOD9316133
_publ_section_title
;
Structure prediction by ZEFSAII (Michael W. Deem and Ramdas Pophale) SiO2 
 PCOD9316133
Probable space group: P 21 21 21
;
_chemical_formula_sum "Si O2"
_cell_formula_units_Z 28
_cell_length_a 9.000000
_cell_length_b 12.000000
_cell_length_c 12.000000
_cell_angle_alpha 90.000000
_cell_angle_beta 90.000000
_cell_angle_gamma 90.000000
_cell_volume 1296.000000
_symmetry_space_group_name_H-M "P 21 21 21"
_symmetry_group_IT_number 19
_symmetry_cell_setting 'orthorhombic'
loop_
_space_group_symop_operation_xyz
x,y,z
1/2-x,-y,1/2+z
1/2+x,1/2-y,-z
-x,1/2+y,1/2-z
loop_
_atom_site_type_symbol
_atom_site_label
_atom_site_fract_x
_atom_site_fract_y
_atom_site_fract_z
Si Si1 0.272107 0.218464 0.372624
Si Si2 0.576971 0.782409 0.924980
Si Si3 0.793144 0.445219 0.320997
Si Si4 0.403290 0.342865 0.952202
Si Si5 0.819270 0.787689 0.359710
Si Si6 0.666886 0.472431 0.067717
Si Si7 0.614060 0.975281 0.753264
O O1 0.370505 0.300657 0.447821
O O2 0.261597 0.222631 0.239910
O O3 0.101189 0.230347 0.414094
O O4 0.345534 0.101469 0.403035
O O5 0.659137 0.675713 0.869439
O O6 0.621828 0.886730 0.850980
O O7 0.715986 0.429413 0.195279
O O8 0.748634 0.513131 0.440369
O O9 0.943306 0.506162 0.282275
O O10 0.515431 0.257994 0.887875
O O11 0.323939 0.422000 0.860719
O O12 0.278662 0.286535 0.028725
O O13 0.514952 0.412517 0.031940
O O14 0.828988 0.909535 0.303296
#
# Coordination Sequence:
#
# PCOD9316133 Si02
#       7
#     4   4   4   4   4   4   4
#     4  11  23  44  67 100 140 184 235 297 358 441
#     4  11  23  39  69  99 136 183 235 290 360 425
#     4  10  20  40  69  94 136 187 242 291 359 438
#     4  11  27  47  73 105 144 191 240 304 366 432
#     4  12  27  48  72 106 149 186 247 299 365 431
#     4  10  22  42  69  99 137 185 244 292 366 435
#     4  11  22  44  69  93 142 190 223 287 368 422
#
# _framework density 21.604938000000001
#
# number of rings (size 3 to 8) (size 9 to 14) (size 15 to 20)
#    0.000    1.143    4.286    0.857    6.000    2.286 
#    2.571    0.000    0.000    0.000    0.000    0.000 
#    0.000    0.000    0.000    0.000    0.000    0.000 
#
# Total GULP energy -155908.557487 kJ/mol
# GULP energy per Si atom -5568.162767 kJ/mol
# Density = 2.155576 g / cm^3
# Si number density = 21.604938 Si / 1000 Ang^3
#
#
#
# Elastic Constant Matrix: (Units=GPa)
#
#
# Indices 1 2 3 4 5 6 
#
# 1 10.6592 -5.6456 -0.2846 0.0000 0.0000 0.0000
# 2 -5.6456 72.8378 25.0077 0.0000 0.0000 0.0000
# 3 -0.2846 25.0077 128.9903 0.0000 0.0000 0.0000
# 4 0.0000 0.0000 0.0000 40.8044 0.0000 0.0000
# 5 0.0000 0.0000 0.0000 0.0000 49.1820 0.0000
# 6 0.0000 0.0000 0.0000 0.0000 0.0000 27.4406
#
#
#
# Elastic Compliance Matrix: (Units=1/GPa)
#
#
# Indices 1 2 3 4 5 6 
#
# 1 0.098050 0.008062 -0.001347 0.000000 0.000000 0.000000
# 2 0.008062 0.015371 -0.002962 0.000000 0.000000 0.000000
# 3 -0.001347 -0.002962 0.008324 0.000000 0.000000 0.000000
# 4 0.000000 0.000000 0.000000 0.024507 0.000000 0.000000
# 5 0.000000 0.000000 0.000000 0.000000 0.020333 0.000000
# 6 0.000000 0.000000 0.000000 0.000000 0.000000 0.036442
#
#
# Mechanical properties :
#
#
# Convention : Reuss Voigt Hill
#
# Bulk Modulus (GPa) = 7.73686 27.84914 17.79300
# Shear Modulus (GPa) = 20.95517 36.37936 28.66727
#
# Velocity S-wave (km/s) = 3.11774 4.10792 3.64659
# Velocity P-wave (km/s) = 4.06808 5.95132 5.09742
#
# Compressibility (1/GPa) = 0.12925143
#
# Stress axis : x y z
#
# Youngs Moduli (GPa) = 10.19887 65.05728 120.13671
#
# Poissons Ratio (x) = -0.52450 0.16179
# Poissons Ratio (y) = -0.08222 0.35587
# Poissons Ratio (z) = 0.01373 0.19272
#
# Static dielectric constant tensor:
#      x y z
#    x 1.778800 0.000000 0.000000 
#    y 0.000000 1.910350 0.000000 
#    z 0.000000 0.000000 1.879800 
# 
# From -- ./inp_files/4615.got.cif
#   From: 2010.05.17/outbox.ucp.g08.bks.cvg/sg19_3_cif.got.tgz:4615.got - 2010.06.11 13:13:52.
