data_PCOD9316401
_publ_section_title
;
Structure prediction by ZEFSAII (Michael W. Deem and Ramdas Pophale) SiO2 
 PCOD9316401
Probable space group: C 2 2 21
;
_chemical_formula_sum "Si O2"
_cell_formula_units_Z 48
_cell_length_a 9.921761
_cell_length_b 26.411388
_cell_length_c 7.680801
_cell_angle_alpha 90.000000
_cell_angle_beta 90.000000
_cell_angle_gamma 90.000000
_cell_volume 2012.734542
_symmetry_space_group_name_H-M "C 2 2 21"
_symmetry_group_IT_number 20
_symmetry_cell_setting 'orthorhombic'
loop_
_space_group_symop_operation_xyz
x,y,z
-x,-y,1/2+z
x,-y,-z
-x,y,1/2-z
1/2+x,1/2+y,z
1/2-x,1/2-y,1/2+z
1/2+x,1/2-y,-z
1/2-x,1/2+y,1/2-z
loop_
_atom_site_type_symbol
_atom_site_label
_atom_site_fract_x
_atom_site_fract_y
_atom_site_fract_z
Si Si1 0.349925 0.465541 0.823912
Si Si2 0.966892 0.801381 0.046052
Si Si3 0.693997 0.846901 0.118567
Si Si4 0.340473 0.564987 0.693536
Si Si5 0.921801 0.314301 0.013723
Si Si6 0.186298 0.131605 0.148049
O O1 0.645543 0.500000 0.500000
O O2 0.500000 0.459333 0.750000
O O3 0.285929 0.508054 0.700187
O O4 0.302941 0.407426 0.810371
O O5 0.810623 0.815814 0.022084
O O6 0.000000 0.813523 0.250000
O O7 0.061627 0.832544 0.914046
O O8 0.977402 0.741729 0.017123
O O9 0.757016 0.899693 0.177325
O O10 0.551290 0.850246 0.025089
O O11 0.656754 0.817788 0.301154
O O12 0.500000 0.566463 0.750000
O O13 0.320406 0.590770 0.508836
O O14 0.816594 0.333258 0.871170
#
# Coordination Sequence:
#
# PCOD9316401 Si02
#       6
#     8   8   8   8   8   8
#     4  11  24  40  68 109 138 173 237 314 369 433
#     4  12  21  40  65  99 143 193 246 299 361 443
#     4  10  20  39  64  92 136 188 239 294 366 432
#     4  10  17  38  68  94 130 175 230 298 358 425
#     4  10  23  39  62  99 144 189 241 300 359 446
#     4  11  21  43  66 100 140 187 239 296 361 432
#
# _framework density 23.848151999999999
#
# number of rings (size 3 to 8) (size 9 to 14) (size 15 to 20)
#    0.000    1.333    5.000    3.500    0.000    0.000 
#    9.000    0.000    0.000    8.000    0.000    0.000 
#    0.000    0.000    0.000    0.000    0.000    0.000 
#
# Total GULP energy -134081.844858 kJ/mol
# GULP energy per Si atom -5586.743536 kJ/mol
# Density = 2.379387 g / cm^3
# Si number density = 23.848152 Si / 1000 Ang^3
#
#
#
# Elastic Constant Matrix: (Units=GPa)
#
#
# Indices 1 2 3 4 5 6 
#
# 1 126.5475 47.1446 26.4367 0.0000 0.0000 0.0000
# 2 47.1446 172.0091 43.3599 0.0000 0.0000 0.0000
# 3 26.4367 43.3599 122.9134 0.0000 0.0000 0.0000
# 4 0.0000 0.0000 0.0000 54.5697 0.0000 0.0000
# 5 0.0000 0.0000 0.0000 0.0000 12.6311 0.0000
# 6 0.0000 0.0000 0.0000 0.0000 0.0000 -13.1951
#
#
#
# Elastic Compliance Matrix: (Units=1/GPa)
#
#
# Indices 1 2 3 4 5 6 
#
# 1 0.008950 -0.002160 -0.001163 0.000000 0.000000 0.000000
# 2 -0.002160 0.006902 -0.001970 0.000000 0.000000 0.000000
# 3 -0.001163 -0.001970 0.009081 0.000000 0.000000 0.000000
# 4 0.000000 0.000000 0.000000 0.018325 0.000000 0.000000
# 5 0.000000 0.000000 0.000000 0.000000 0.079170 0.000000
# 6 0.000000 0.000000 0.000000 0.000000 0.000000 -0.075786
#
#
# Mechanical properties :
#
#
# Convention : Reuss Voigt Hill
#
# Bulk Modulus (GPa) = 69.70251 72.81694 71.25973
# Shear Modulus (GPa) = 80.63043 31.10304 55.86673
#
# Velocity S-wave (km/s) = 5.82094 3.61531 4.84529
# Velocity P-wave (km/s) = 8.62953 6.93016 7.82611
#
# Compressibility (1/GPa) = 0.01434669
#
# Stress axis : x y z
#
# Youngs Moduli (GPa) = 111.73492 144.87935 110.11943
#
# Poissons Ratio (x) = 0.31291 0.12807
# Poissons Ratio (y) = 0.24132 0.21698
# Poissons Ratio (z) = 0.12995 0.28547
#
# Static dielectric constant tensor:
#      x y z
#    x 1.659700 0.000000 0.000000 
#    y 0.000000 1.929880 0.000000 
#    z 0.000000 0.000000 2.160160 
# 
# From -- ./inp_files/13315.got.cif
#   From: 2010.05.17/outbox.cif.g08.bks.cpg/sg20_7_cif.got.tgz:13315.got - 2010.06.03 22:52:26.
