data_PCOD9316456
_publ_section_title
;
Structure prediction by ZEFSAII (Michael W. Deem and Ramdas Pophale) SiO2 
 PCOD9316456
Probable space group: C 2 2 21
;
_chemical_formula_sum "Si O2"
_cell_formula_units_Z 40
_cell_length_a 7.033819
_cell_length_b 24.783926
_cell_length_c 8.615780
_cell_angle_alpha 90.000000
_cell_angle_beta 90.000000
_cell_angle_gamma 90.000000
_cell_volume 1501.951445
_symmetry_space_group_name_H-M "C 2 2 21"
_symmetry_group_IT_number 20
_symmetry_cell_setting 'orthorhombic'
loop_
_space_group_symop_operation_xyz
x,y,z
-x,-y,1/2+z
x,-y,-z
-x,y,1/2-z
1/2+x,1/2+y,z
1/2-x,1/2-y,1/2+z
1/2+x,1/2-y,-z
1/2-x,1/2+y,1/2-z
loop_
_atom_site_type_symbol
_atom_site_label
_atom_site_fract_x
_atom_site_fract_y
_atom_site_fract_z
Si Si1 0.814628 0.330577 0.522130
Si Si2 0.296807 0.028215 0.828575
Si Si3 0.750190 0.637535 0.962648
Si Si4 0.269798 0.762871 0.232341
Si Si5 0.267332 0.081274 0.276632
O O1 0.812564 0.293953 0.677279
O O2 0.723292 0.292343 0.393602
O O3 0.719238 0.386748 0.568271
O O4 0.022247 0.350004 0.469314
O O5 0.500000 0.038406 0.750000
O O6 0.209303 0.086989 0.851101
O O7 0.206291 0.980570 0.727148
O O8 0.319090 0.000000 0.000000
O O9 0.691450 0.694800 0.895538
O O10 0.693588 0.615608 0.130792
O O11 0.500000 0.756269 0.250000
O O12 0.500000 0.080462 0.250000
#
# Coordination Sequence:
#
# PCOD9316456 Si02
#       5
#     8   8   8   8   8
#     4  10  18  30  45  64  96 135 172 210 259 304
#     4   9  15  24  40  64  95 123 151 195 256 311
#     4   9  17  29  44  66  96 128 163 208 253 305
#     4  10  20  31  46  68  97 134 177 214 248 306
#     4   8  15  26  43  66  94 126 156 197 256 314
#
# _framework density 26.632019
#
# number of rings (size 3 to 8) (size 9 to 14) (size 15 to 20)
#    0.000    2.800    0.000    4.200    0.000    1.600 
#    0.000    0.000    0.000    0.000    0.000    0.000 
#    0.000  105.600    0.000    0.000    0.000    9.600 
#
# Total GULP energy -111731.741615 kJ/mol
# GULP energy per Si atom -5586.587081 kJ/mol
# Density = 2.657140 g / cm^3
# Si number density = 26.632019 Si / 1000 Ang^3
#
#
#
# Elastic Constant Matrix: (Units=GPa)
#
#
# Indices 1 2 3 4 5 6 
#
# 1 132.7978 1.7473 -0.1382 0.0000 0.0000 0.0000
# 2 1.7473 197.7269 29.3965 0.0000 0.0000 0.0000
# 3 -0.1382 29.3965 38.3339 0.0000 0.0000 0.0000
# 4 0.0000 0.0000 0.0000 27.0867 0.0000 0.0000
# 5 0.0000 0.0000 0.0000 0.0000 0.8723 0.0000
# 6 0.0000 0.0000 0.0000 0.0000 0.0000 8.5521
#
#
#
# Elastic Compliance Matrix: (Units=1/GPa)
#
#
# Indices 1 2 3 4 5 6 
#
# 1 0.007531 -0.000080 0.000088 0.000000 0.000000 0.000000
# 2 -0.000080 0.005709 -0.004378 0.000000 0.000000 0.000000
# 3 0.000088 -0.004378 0.029444 0.000000 0.000000 0.000000
# 4 0.000000 0.000000 0.000000 0.036919 0.000000 0.000000
# 5 0.000000 0.000000 0.000000 0.000000 1.146380 0.000000
# 6 0.000000 0.000000 0.000000 0.000000 0.000000 0.116930
#
#
# Mechanical properties :
#
#
# Convention : Reuss Voigt Hill
#
# Bulk Modulus (GPa) = 29.45906 47.87441 38.66674
# Shear Modulus (GPa) = 3.66847 29.82576 16.74711
#
# Velocity S-wave (km/s) = 1.17493 3.35015 2.51038
# Velocity P-wave (km/s) = 3.59529 5.74282 4.79094
#
# Compressibility (1/GPa) = 0.03394541
#
# Stress axis : x y z
#
# Youngs Moduli (GPa) = 132.77771 175.15823 33.96225
#
# Poissons Ratio (x) = 0.01396 -0.00300
# Poissons Ratio (y) = 0.01058 0.14870
# Poissons Ratio (z) = -0.01172 0.76690
#
# Static dielectric constant tensor:
#      x y z
#    x 2.202750 0.000000 0.000000 
#    y 0.000000 2.020800 0.000000 
#    z 0.000000 0.000000 2.113380 
# 
# From -- ./inp_files/6281.got.cif
#   From: 2010.05.17/outbox.cif.g08.bks.cpg/sg20_4_cif.got.tgz:6281.got - 2010.06.03 22:52:26.
