data_PCOD9316121
_publ_section_title
;
Structure prediction by ZEFSAII (Michael W. Deem and Ramdas Pophale) SiO2 
 PCOD9316121
Probable space group: P 21 21 21
;
_chemical_formula_sum "Si O2"
_cell_formula_units_Z 24
_cell_length_a 9.000000
_cell_length_b 9.000000
_cell_length_c 15.000000
_cell_angle_alpha 90.000000
_cell_angle_beta 90.000000
_cell_angle_gamma 90.000000
_cell_volume 1215.000000
_symmetry_space_group_name_H-M "P 21 21 21"
_symmetry_group_IT_number 19
_symmetry_cell_setting 'orthorhombic'
loop_
_space_group_symop_operation_xyz
x,y,z
1/2-x,-y,1/2+z
1/2+x,1/2-y,-z
-x,1/2+y,1/2-z
loop_
_atom_site_type_symbol
_atom_site_label
_atom_site_fract_x
_atom_site_fract_y
_atom_site_fract_z
Si Si1 0.308355 0.450039 0.844718
Si Si2 0.263517 0.047036 0.500001
Si Si3 0.691645 0.950040 0.344719
Si Si4 0.591057 0.167737 0.500001
Si Si5 0.904741 0.692647 0.400779
Si Si6 0.095259 0.192647 0.900780
O O1 0.249999 0.499998 0.750000
O O2 0.463555 0.358961 0.837397
O O3 0.181617 0.341522 0.881865
O O4 0.342811 0.583583 0.913369
O O5 0.414837 0.142943 0.500001
O O6 0.130022 0.159587 0.500000
O O7 0.281838 0.937379 0.584529
O O8 0.281839 0.937380 0.415472
O O9 0.818384 0.841523 0.381864
O O10 0.536445 0.858961 0.337397
O O11 0.657188 0.083581 0.413371
O O12 0.976932 0.700769 0.500000
#
# Coordination Sequence:
#
# PCOD9316121 Si02
#       6
#     4   4   4   4   4   4
#     4  11  22  37  64  88 119 159 209 248 298 367
#     4   8  19  32  60  74 118 156 193 234 304 348
#     4  11  22  37  64  88 119 159 209 248 298 367
#     4  10  19  38  52  90 116 156 197 254 286 352
#     4   9  19  41  60  81 120 164 194 241 314 360
#     4   9  19  41  60  81 120 164 194 241 314 360
#
# _framework density 19.753086
#
# number of rings (size 3 to 8) (size 9 to 14) (size 15 to 20)
#    1.000    1.333    3.333    0.000    0.000    8.000 
#    0.000    3.333    0.000    0.000    0.000    0.000 
#    0.000    0.000    0.000    0.000    0.000    0.000 
#
# Total GULP energy -133721.201833 kJ/mol
# GULP energy per Si atom -5571.716743 kJ/mol
# Density = 1.970813 g / cm^3
# Si number density = 19.753086 Si / 1000 Ang^3
#
#
#
# Elastic Constant Matrix: (Units=GPa)
#
#
# Indices 1 2 3 4 5 6 
#
# 1 -2.3262 6.7821 -7.1702 0.0000 0.0000 0.0000
# 2 6.7821 26.2941 12.1174 0.0000 0.0000 0.0000
# 3 -7.1702 12.1174 32.1063 0.0000 0.0000 0.0000
# 4 0.0000 0.0000 0.0000 20.2499 0.0000 0.0000
# 5 0.0000 0.0000 0.0000 0.0000 20.3104 0.0000
# 6 0.0000 0.0000 0.0000 0.0000 0.0000 39.7043
#
#
#
# Elastic Compliance Matrix: (Units=1/GPa)
#
#
# Indices 1 2 3 4 5 6 
#
# 1 -0.123882 0.054115 -0.048090 0.000000 0.000000 0.000000
# 2 0.054115 0.022400 0.003631 0.000000 0.000000 0.000000
# 3 -0.048090 0.003631 0.019036 0.000000 0.000000 0.000000
# 4 0.000000 0.000000 0.000000 0.049383 0.000000 0.000000
# 5 0.000000 0.000000 0.000000 0.000000 0.049236 0.000000
# 6 0.000000 0.000000 0.000000 0.000000 0.000000 0.025186
#
#
# Mechanical properties :
#
#
# Convention : Reuss Voigt Hill
#
# Bulk Modulus (GPa) = -15.83935 8.83696 -3.50120
# Shear Modulus (GPa) = 4989.34261 19.00923 2504.17592
#
# Velocity S-wave (km/s) = 50.31241 3.10553 35.64395
# Velocity P-wave (km/s) = 58.02656 4.16443 41.13650
#
# Compressibility (1/GPa) = -0.06313390
#
# Stress axis : x y z
#
# Youngs Moduli (GPa) = -8.07217 44.64285 52.53141
#
# Poissons Ratio (x) = -2.41585 2.52624
# Poissons Ratio (y) = 0.43683 -0.19076
# Poissons Ratio (z) = -0.38819 -0.16211
#
# Static dielectric constant tensor:
#      x y z
#    x 1.694440 0.000000 0.000000 
#    y 0.000000 1.732630 0.000000 
#    z 0.000000 0.000000 1.599220 
# 
# From -- ./inp_files/2792.got.cif
#   From: 2010.05.17/outbox.ucp.g08.bks.cvg/sg19_2_cif.got.tgz:2792.got - 2010.06.11 13:13:52.
