data_PCOD9316840
_publ_section_title
;
Structure prediction by ZEFSAII (Michael W. Deem and Ramdas Pophale) SiO2 
 PCOD9316840
Probable space group: C 2 2 21
;
_chemical_formula_sum "Si O2"
_cell_formula_units_Z 44
_cell_length_a 25.847751
_cell_length_b 8.481248
_cell_length_c 9.586243
_cell_angle_alpha 90.000000
_cell_angle_beta 90.000000
_cell_angle_gamma 90.000000
_cell_volume 2101.507564
_symmetry_space_group_name_H-M "C 2 2 21"
_symmetry_group_IT_number 20
_symmetry_cell_setting 'orthorhombic'
loop_
_space_group_symop_operation_xyz
x,y,z
-x,-y,1/2+z
x,-y,-z
-x,y,1/2-z
1/2+x,1/2+y,z
1/2-x,1/2-y,1/2+z
1/2+x,1/2-y,-z
1/2-x,1/2+y,1/2-z
loop_
_atom_site_type_symbol
_atom_site_label
_atom_site_fract_x
_atom_site_fract_y
_atom_site_fract_z
Si Si1 0.142799 0.096355 0.353919
Si Si2 0.000000 0.399682 0.250000
Si Si3 0.228108 0.311919 0.476725
Si Si4 0.814262 0.791590 0.261087
Si Si5 0.907317 0.400829 0.857261
Si Si6 0.535161 0.666767 0.454545
O O1 0.180945 0.243132 0.381405
O O2 0.082755 0.143401 0.344676
O O3 0.144501 0.000000 0.500000
O O4 0.162546 0.968874 0.243174
O O5 0.051334 0.501689 0.269736
O O6 0.996730 0.289072 0.385465
O O7 0.225237 0.500000 0.500000
O O8 0.222933 0.227804 0.626164
O O9 0.280716 0.268666 0.398048
O O10 0.858483 0.662896 0.227573
O O11 0.895186 0.500000 0.000000
O O12 0.937305 0.247460 0.914187
O O13 0.513201 0.500000 0.500000
#
# Coordination Sequence:
#
# PCOD9316840 Si02
#       6
#     8   4   8   8   8   8
#     4   9  18  35  59  91 117 168 221 252 318 410
#     4  10  24  34  66 102 114 162 232 274 326 394
#     4  11  22  36  65  98 128 176 221 274 324 398
#     4  11  21  39  65  98 134 176 221 269 338 413
#     4  10  20  39  67  93 129 167 222 275 339 409
#     4  10  18  39  66  87 122 170 225 265 333 409
#
# _framework density 20.937349000000001
#
# number of rings (size 3 to 8) (size 9 to 14) (size 15 to 20)
#    0.000    1.818    5.455    1.636    2.545    0.727 
#    0.000    0.000   24.000    0.000    0.000    0.000 
#    0.000    0.000    0.000    0.000    0.000    0.000 
#
# Total GULP energy -122792.741082 kJ/mol
# GULP energy per Si atom -5581.488231 kJ/mol
# Density = 2.088969 g / cm^3
# Si number density = 20.937349 Si / 1000 Ang^3
#
#
#
# Elastic Constant Matrix: (Units=GPa)
#
#
# Indices 1 2 3 4 5 6 
#
# 1 112.1332 59.0838 59.7977 0.0000 0.0000 0.0000
# 2 59.0838 126.9106 31.6522 0.0000 0.0000 0.0000
# 3 59.7977 31.6522 44.8138 0.0000 0.0000 0.0000
# 4 0.0000 0.0000 0.0000 24.5942 0.0000 0.0000
# 5 0.0000 0.0000 0.0000 0.0000 38.7662 0.0000
# 6 0.0000 0.0000 0.0000 0.0000 0.0000 28.3406
#
#
#
# Elastic Compliance Matrix: (Units=1/GPa)
#
#
# Indices 1 2 3 4 5 6 
#
# 1 0.033754 -0.005439 -0.041198 0.000000 0.000000 0.000000
# 2 -0.005439 0.010441 -0.000117 0.000000 0.000000 0.000000
# 3 -0.041198 -0.000117 0.077370 0.000000 0.000000 0.000000
# 4 0.000000 0.000000 0.000000 0.040660 0.000000 0.000000
# 5 0.000000 0.000000 0.000000 0.000000 0.025796 0.000000
# 6 0.000000 0.000000 0.000000 0.000000 0.000000 0.035285
#
#
# Mechanical properties :
#
#
# Convention : Reuss Voigt Hill
#
# Bulk Modulus (GPa) = 35.64178 64.99168 50.31673
# Shear Modulus (GPa) = 15.32970 27.22847 21.27909
#
# Velocity S-wave (km/s) = 2.70880 3.61012 3.19144
# Velocity P-wave (km/s) = 5.18107 6.96317 6.13715
#
# Compressibility (1/GPa) = 0.02805696
#
# Stress axis : x y z
#
# Youngs Moduli (GPa) = 29.62645 95.77733 12.92497
#
# Poissons Ratio (x) = 0.52095 0.53248
# Poissons Ratio (y) = 0.16114 0.00151
# Poissons Ratio (z) = 1.22054 0.01117
#
# Static dielectric constant tensor:
#      x y z
#    x 1.793370 0.000000 0.000000 
#    y 0.000000 1.813150 0.000000 
#    z 0.000000 0.000000 1.763270 
# 
# From -- ./inp_files/16601.got.cif
#   From: 2010.05.17/outbox.cif.g08.bks.cpg/sg20_9_cif.got.tgz:16601.got - 2010.06.03 22:52:26.
