data_PCOD9316306
_publ_section_title
;
Structure prediction by ZEFSAII (Michael W. Deem and Ramdas Pophale) SiO2 
 PCOD9316306
Probable space group: C 2 2 21
;
_chemical_formula_sum "Si O2"
_cell_formula_units_Z 60
_cell_length_a 19.128896
_cell_length_b 12.957340
_cell_length_c 14.057937
_cell_angle_alpha 90.000000
_cell_angle_beta 90.000000
_cell_angle_gamma 90.000000
_cell_volume 3484.394772
_symmetry_space_group_name_H-M "C 2 2 21"
_symmetry_group_IT_number 20
_symmetry_cell_setting 'orthorhombic'
loop_
_space_group_symop_operation_xyz
x,y,z
-x,-y,1/2+z
x,-y,-z
-x,y,1/2-z
1/2+x,1/2+y,z
1/2-x,1/2-y,1/2+z
1/2+x,1/2-y,-z
1/2-x,1/2+y,1/2-z
loop_
_atom_site_type_symbol
_atom_site_label
_atom_site_fract_x
_atom_site_fract_y
_atom_site_fract_z
Si Si1 0.348351 0.592545 0.114265
Si Si2 0.537701 0.889962 0.457169
Si Si3 0.078411 0.274439 0.275381
Si Si4 0.379220 0.822257 0.436006
Si Si5 0.433698 0.682577 0.945845
Si Si6 0.274745 0.000000 0.500000
Si Si7 0.904820 0.114055 0.543281
Si Si8 0.081832 0.083269 0.740503
O O1 0.369214 0.697071 0.170523
O O2 0.272575 0.552332 0.082714
O O3 0.380593 0.507459 0.184082
O O4 0.385719 0.612439 0.012677
O O5 0.560549 0.867379 0.348366
O O6 0.454626 0.869197 0.465297
O O7 0.571545 0.798360 0.517816
O O8 0.555375 0.000000 0.500000
O O9 0.113187 0.304223 0.176458
O O10 0.000000 0.229012 0.250000
O O11 0.370071 0.711032 0.488509
O O12 0.321334 0.906499 0.460113
O O13 0.512188 0.639867 0.962296
O O14 0.416407 0.676134 0.834926
O O15 0.888754 0.108425 0.655813
O O16 0.891992 0.000000 0.500000
O O17 0.000000 0.054455 0.750000
#
# Coordination Sequence:
#
# PCOD9316306 Si02
#       8
#     8   8   8   8   8   4   8   8
#     4  11  19  35  57  83 112 150 190 228 280 348
#     4   9  17  34  59  86 115 142 185 246 289 330
#     4   9  19  36  65  89 105 142 194 250 290 326
#     4  10  21  40  54  84 118 157 195 220 283 353
#     4   9  17  30  52  86 117 136 179 242 297 341
#     4  12  24  38  58  74 124 172 182 224 268 360
#     4  10  19  32  57  83 114 141 179 251 295 322
#     4  10  17  29  51  87 112 134 173 240 305 328
#
# _framework density 17.219633000000002
#
# number of rings (size 3 to 8) (size 9 to 14) (size 15 to 20)
#    0.000    2.133    2.000    3.600    0.000    0.000 
#    4.800    2.000    2.933    0.800    0.000    0.000 
#    0.000    0.000    0.000    0.000    0.000    0.000 
#
# Total GULP energy -167032.416996 kJ/mol
# GULP energy per Si atom -5567.747233 kJ/mol
# Density = 1.718044 g / cm^3
# Si number density = 17.219633 Si / 1000 Ang^3
#
#
#
# Elastic Constant Matrix: (Units=GPa)
#
#
# Indices 1 2 3 4 5 6 
#
# 1 53.7030 50.5308 52.3832 0.0000 0.0000 0.0000
# 2 50.5308 143.6390 78.8299 0.0000 0.0000 0.0000
# 3 52.3832 78.8299 150.4780 0.0000 0.0000 0.0000
# 4 0.0000 0.0000 0.0000 20.6237 0.0000 0.0000
# 5 0.0000 0.0000 0.0000 0.0000 14.6557 0.0000
# 6 0.0000 0.0000 0.0000 0.0000 0.0000 11.5003
#
#
#
# Elastic Compliance Matrix: (Units=1/GPa)
#
#
# Indices 1 2 3 4 5 6 
#
# 1 0.033048 -0.007456 -0.007599 0.000000 0.000000 0.000000
# 2 -0.007456 0.011453 -0.003404 0.000000 0.000000 0.000000
# 3 -0.007599 -0.003404 0.011074 0.000000 0.000000 0.000000
# 4 0.000000 0.000000 0.000000 0.048488 0.000000 0.000000
# 5 0.000000 0.000000 0.000000 0.000000 0.068233 0.000000
# 6 0.000000 0.000000 0.000000 0.000000 0.000000 0.086954
#
#
# Mechanical properties :
#
#
# Convention : Reuss Voigt Hill
#
# Bulk Modulus (GPa) = 53.59715 79.03421 66.31568
# Shear Modulus (GPa) = 16.53506 20.42768 18.48137
#
# Velocity S-wave (km/s) = 3.10214 3.44801 3.27964
# Velocity P-wave (km/s) = 6.63508 7.86442 7.27576
#
# Compressibility (1/GPa) = 0.01865771
#
# Stress axis : x y z
#
# Youngs Moduli (GPa) = 30.25870 87.31206 90.30067
#
# Poissons Ratio (x) = 0.65099 0.68616
# Poissons Ratio (y) = 0.22561 0.30742
# Poissons Ratio (z) = 0.22993 0.29725
#
# Static dielectric constant tensor:
#      x y z
#    x 1.582880 0.000000 0.000000 
#    y 0.000000 1.595690 0.000000 
#    z 0.000000 0.000000 1.606190 
# 
# From -- ./inp_files/21462.got.cif
#   From: 2010.05.17/outbox.cif.g08.bks.cpg/sg20_11_cif.got.tgz:21462.got - 2010.06.03 22:52:26.
