data_PCOD9316942
_publ_section_title
;
Structure prediction by ZEFSAII (Michael W. Deem and Ramdas Pophale) SiO2 
 PCOD9316942
Probable space group: C 2 2 21
;
_chemical_formula_sum "Si O2"
_cell_formula_units_Z 56
_cell_length_a 12.380121
_cell_length_b 15.347785
_cell_length_c 14.696197
_cell_angle_alpha 90.000000
_cell_angle_beta 90.000000
_cell_angle_gamma 90.000000
_cell_volume 2792.386702
_symmetry_space_group_name_H-M "C 2 2 21"
_symmetry_group_IT_number 20
_symmetry_cell_setting 'orthorhombic'
loop_
_space_group_symop_operation_xyz
x,y,z
-x,-y,1/2+z
x,-y,-z
-x,y,1/2-z
1/2+x,1/2+y,z
1/2-x,1/2-y,1/2+z
1/2+x,1/2-y,-z
1/2-x,1/2+y,1/2-z
loop_
_atom_site_type_symbol
_atom_site_label
_atom_site_fract_x
_atom_site_fract_y
_atom_site_fract_z
Si Si1 0.915123 0.214586 0.958985
Si Si2 0.649296 0.088696 0.452003
Si Si3 0.461926 0.472403 0.658443
Si Si4 0.752508 0.892738 0.730686
Si Si5 0.638803 0.630619 0.933080
Si Si6 0.875569 0.219315 0.759883
Si Si7 0.811074 0.924698 0.927601
O O1 0.916725 0.320002 0.954166
O O2 0.882000 0.175762 0.859489
O O3 0.037310 0.181857 0.976298
O O4 0.827581 0.170523 0.026400
O O5 0.679884 0.064018 0.348094
O O6 0.758147 0.120594 0.503607
O O7 0.608293 0.000000 0.500000
O O8 0.500000 0.522498 0.750000
O O9 0.376420 0.403036 0.697589
O O10 0.399807 0.534708 0.591860
O O11 0.567886 0.442779 0.607643
O O12 0.711580 0.794788 0.730170
O O13 0.742535 0.925532 0.834482
O O14 0.656229 0.670558 0.832321
O O15 0.000000 0.252402 0.750000
O O16 0.781447 0.000000 0.000000
#
# Coordination Sequence:
#
# PCOD9316942 Si02
#       7
#     8   8   8   8   8   8   8
#     4  10  21  34  55  87 116 151 196 247 294 350
#     4  11  22  36  58  86 115 156 203 242 292 354
#     4  10  19  31  55  88 113 144 187 242 296 340
#     4  10  21  35  52  85 115 152 189 247 288 351
#     4  11  19  35  60  84 114 153 195 239 289 353
#     4   9  20  36  57  80 111 156 203 233 284 352
#     4  11  21  33  54  88 126 147 185 246 315 348
#
# _framework density 20.054528999999999
#
# number of rings (size 3 to 8) (size 9 to 14) (size 15 to 20)
#    0.000    1.714    2.857    3.000    2.000    0.000 
#    0.000    0.000    0.000   13.714   11.143    0.000 
#    0.000    0.000    0.000    0.000    0.000    0.000 
#
# Total GULP energy -155991.972382 kJ/mol
# GULP energy per Si atom -5571.141871 kJ/mol
# Density = 2.000888 g / cm^3
# Si number density = 20.054529 Si / 1000 Ang^3
#
#
#
# Elastic Constant Matrix: (Units=GPa)
#
#
# Indices 1 2 3 4 5 6 
#
# 1 30.6215 10.7557 2.6226 0.0000 0.0000 0.0000
# 2 10.7557 69.6551 23.9379 0.0000 0.0000 0.0000
# 3 2.6226 23.9379 96.2461 0.0000 0.0000 0.0000
# 4 0.0000 0.0000 0.0000 36.5348 0.0000 0.0000
# 5 0.0000 0.0000 0.0000 0.0000 16.0982 0.0000
# 6 0.0000 0.0000 0.0000 0.0000 0.0000 30.0013
#
#
#
# Elastic Compliance Matrix: (Units=1/GPa)
#
#
# Indices 1 2 3 4 5 6 
#
# 1 0.034545 -0.005479 0.000421 0.000000 0.000000 0.000000
# 2 -0.005479 0.016567 -0.003971 0.000000 0.000000 0.000000
# 3 0.000421 -0.003971 0.011366 0.000000 0.000000 0.000000
# 4 0.000000 0.000000 0.000000 0.027371 0.000000 0.000000
# 5 0.000000 0.000000 0.000000 0.000000 0.062119 0.000000
# 6 0.000000 0.000000 0.000000 0.000000 0.000000 0.033332
#
#
# Mechanical properties :
#
#
# Convention : Reuss Voigt Hill
#
# Bulk Modulus (GPa) = 22.51192 30.12835 26.32013
# Shear Modulus (GPa) = 22.91842 27.14064 25.02953
#
# Velocity S-wave (km/s) = 3.38421 3.68277 3.53664
# Velocity P-wave (km/s) = 5.14978 5.75670 5.46167
#
# Compressibility (1/GPa) = 0.04442092
#
# Stress axis : x y z
#
# Youngs Moduli (GPa) = 28.94760 60.35998 87.97968
#
# Poissons Ratio (x) = 0.33072 -0.03708
# Poissons Ratio (y) = 0.15861 0.34939
# Poissons Ratio (z) = -0.01220 0.23970
#
# Static dielectric constant tensor:
#      x y z
#    x 1.703220 0.000000 0.000000 
#    y 0.000000 1.745100 0.000000 
#    z 0.000000 0.000000 1.810750 
# 
# From -- ./inp_files/20870.got.cif
#   From: 2010.05.17/outbox.cif.g08.bks.cpg/sg20_11_cif.got.tgz:20870.got - 2010.06.03 22:52:26.
