data_PCOD9316299
_publ_section_title
;
Structure prediction by ZEFSAII (Michael W. Deem and Ramdas Pophale) SiO2 
 PCOD9316299
Probable space group: C 2 2 21
;
_chemical_formula_sum "Si O2"
_cell_formula_units_Z 52
_cell_length_a 28.300871
_cell_length_b 20.821910
_cell_length_c 5.528768
_cell_angle_alpha 90.000000
_cell_angle_beta 90.000000
_cell_angle_gamma 90.000000
_cell_volume 3257.982394
_symmetry_space_group_name_H-M "C 2 2 21"
_symmetry_group_IT_number 20
_symmetry_cell_setting 'orthorhombic'
loop_
_space_group_symop_operation_xyz
x,y,z
-x,-y,1/2+z
x,-y,-z
-x,y,1/2-z
1/2+x,1/2+y,z
1/2-x,1/2-y,1/2+z
1/2+x,1/2-y,-z
1/2-x,1/2+y,1/2-z
loop_
_atom_site_type_symbol
_atom_site_label
_atom_site_fract_x
_atom_site_fract_y
_atom_site_fract_z
Si Si1 0.403496 0.731349 0.695102
Si Si2 0.174417 0.883670 0.234324
Si Si3 0.000000 0.164839 0.750000
Si Si4 0.145218 0.106503 0.259578
Si Si5 0.863242 0.740540 0.800278
Si Si6 0.259977 0.788102 0.221069
Si Si7 0.546689 0.564156 0.384113
O O1 0.368097 0.669624 0.711685
O O2 0.456952 0.707979 0.656345
O O3 0.388219 0.770334 0.457057
O O4 0.394714 0.764170 0.956962
O O5 0.163491 0.919207 0.483735
O O6 0.224148 0.847188 0.244762
O O7 0.170317 0.919068 0.978867
O O8 0.026162 0.118462 0.559954
O O9 0.152851 0.183853 0.284695
O O10 0.089142 0.094785 0.234353
O O11 0.815479 0.699676 0.817636
O O12 0.255470 0.750026 0.476824
O O13 0.567294 0.500000 0.500000
O O14 0.500000 0.540505 0.250000
#
# Coordination Sequence:
#
# PCOD9316299 Si02
#       7
#     8   8   4   8   8   8   8
#     4  10  19  28  42  53  74  97 121 150 189 234
#     4  10  17  30  42  60  76  96 112 145 188 249
#     4  12  22  34  44  54  72 104 132 172 214 246
#     4  10  19  31  43  53  77  93 117 153 200 238
#     4  10  17  29  40  60  76  93 114 145 186 238
#     4  12  16  24  43  61  79  95 112 135 180 245
#     4  12  24  34  45  57  70  97 137 184 216 251
#
# _framework density 15.960796999999999
#
# number of rings (size 3 to 8) (size 9 to 14) (size 15 to 20)
#    0.000    1.231   10.000    1.846    0.000    0.000 
#    0.000    0.000    0.000    0.000    0.000    0.000 
#    0.000    0.000    0.000    0.000    0.000    0.000 
#
# Total GULP energy -144800.368923 kJ/mol
# GULP energy per Si atom -5569.244959 kJ/mol
# Density = 1.592447 g / cm^3
# Si number density = 15.960797 Si / 1000 Ang^3
#
#
#
# Elastic Constant Matrix: (Units=GPa)
#
#
# Indices 1 2 3 4 5 6 
#
# 1 95.2000 27.0514 15.8991 0.0000 0.0000 0.0000
# 2 27.0514 14.5061 6.4806 0.0000 0.0000 0.0000
# 3 15.8991 6.4806 135.2200 0.0000 0.0000 0.0000
# 4 0.0000 0.0000 0.0000 1.4078 0.0000 0.0000
# 5 0.0000 0.0000 0.0000 0.0000 16.4312 0.0000
# 6 0.0000 0.0000 0.0000 0.0000 0.0000 18.6463
#
#
#
# Elastic Compliance Matrix: (Units=1/GPa)
#
#
# Indices 1 2 3 4 5 6 
#
# 1 0.022399 -0.041482 -0.000646 0.000000 0.000000 0.000000
# 2 -0.041482 0.147268 -0.002181 0.000000 0.000000 0.000000
# 3 -0.000646 -0.002181 0.007576 0.000000 0.000000 0.000000
# 4 0.000000 0.000000 0.000000 0.710353 0.000000 0.000000
# 5 0.000000 0.000000 0.000000 0.000000 0.060860 0.000000
# 6 0.000000 0.000000 0.000000 0.000000 0.000000 0.053630
#
#
# Mechanical properties :
#
#
# Convention : Reuss Voigt Hill
#
# Bulk Modulus (GPa) = 11.28340 38.19871 24.74106
# Shear Modulus (GPa) = 4.46331 20.33006 12.39669
#
# Velocity S-wave (km/s) = 1.67406 3.57283 2.78995
# Velocity P-wave (km/s) = 3.28960 6.40351 5.09050
#
# Compressibility (1/GPa) = 0.08862577
#
# Stress axis : x y z
#
# Youngs Moduli (GPa) = 44.64409 6.79035 131.99976
#
# Poissons Ratio (x) = 0.28168 0.08522
# Poissons Ratio (y) = 1.85194 0.28783
# Poissons Ratio (z) = 0.02882 0.01481
#
# Static dielectric constant tensor:
#      x y z
#    x 1.537090 0.000000 0.000000 
#    y 0.000000 1.508310 0.000000 
#    z 0.000000 0.000000 1.698940 
# 
# From -- ./inp_files/4280.got.cif
#   From: 2010.05.17/outbox.cif.g08.bks.cpg/sg20_3_cif.got.tgz:4280.got - 2010.06.03 22:52:26.
