data_PCOD9316046
_publ_section_title
;
Structure prediction by ZEFSAII (Michael W. Deem and Ramdas Pophale) SiO2 
 PCOD9316046
Probable space group: P 21 21 21
;
_chemical_formula_sum "Si O2"
_cell_formula_units_Z 24
_cell_length_a 5.231402
_cell_length_b 10.055362
_cell_length_c 17.600648
_cell_angle_alpha 90.000000
_cell_angle_beta 90.000000
_cell_angle_gamma 90.000000
_cell_volume 925.858167
_symmetry_space_group_name_H-M "P 21 21 21"
_symmetry_group_IT_number 19
_symmetry_cell_setting 'orthorhombic'
loop_
_space_group_symop_operation_xyz
x,y,z
1/2-x,-y,1/2+z
1/2+x,1/2-y,-z
-x,1/2+y,1/2-z
loop_
_atom_site_type_symbol
_atom_site_label
_atom_site_fract_x
_atom_site_fract_y
_atom_site_fract_z
Si Si1 0.914497 0.849986 0.637115
Si Si2 0.097130 0.083253 0.051877
Si Si3 0.426058 0.930156 0.372880
Si Si4 0.723485 0.048772 0.745191
Si Si5 0.578261 0.337913 0.684436
Si Si6 0.784701 0.278522 0.451474
O O1 0.688147 0.893874 0.581128
O O2 0.827374 0.705283 0.668372
O O3 0.181863 0.833467 0.593101
O O4 0.937376 0.967593 0.698463
O O5 0.096139 0.099208 0.961419
O O6 0.176063 0.931933 0.067215
O O7 0.700445 0.939567 0.333183
O O8 0.279830 0.066998 0.357764
O O9 0.678040 0.194123 0.711659
O O10 0.508037 0.934207 0.746803
O O11 0.355237 0.302169 0.624185
O O12 0.005608 0.243378 0.513211
#
# Coordination Sequence:
#
# PCOD9316046 Si02
#       6
#     4   4   4   4   4   4
#     4  12  29  51  80 115 161 205 266 324 403 469
#     4  12  27  50  80 117 158 206 264 328 397 476
#     4  12  28  48  81 110 160 207 267 326 401 468
#     4  12  29  49  78 114 159 213 266 328 399 478
#     4  12  28  48  78 112 161 207 268 331 394 481
#     4  12  25  48  81 118 157 204 265 329 400 472
#
# _framework density 25.921896
#
# number of rings (size 3 to 8) (size 9 to 14) (size 15 to 20)
#    0.000    0.000    3.333    5.000    9.333    1.333 
#    0.000    0.000    0.000    0.000    0.000    0.000 
#    0.000    0.000    0.000    0.000    0.000    0.000 
#
# Total GULP energy -134418.621430 kJ/mol
# GULP energy per Si atom -5600.775893 kJ/mol
# Density = 2.586290 g / cm^3
# Si number density = 25.921896 Si / 1000 Ang^3
#
#
#
# Elastic Constant Matrix: (Units=GPa)
#
#
# Indices 1 2 3 4 5 6 
#
# 1 61.7877 0.4294 24.8108 0.0000 0.0000 0.0000
# 2 0.4294 224.9830 32.0906 0.0000 0.0000 0.0000
# 3 24.8108 32.0906 90.6323 0.0000 0.0000 0.0000
# 4 0.0000 0.0000 0.0000 42.1676 0.0000 0.0000
# 5 0.0000 0.0000 0.0000 0.0000 44.2266 0.0000
# 6 0.0000 0.0000 0.0000 0.0000 0.0000 37.2438
#
#
#
# Elastic Compliance Matrix: (Units=1/GPa)
#
#
# Indices 1 2 3 4 5 6 
#
# 1 0.018292 0.000715 -0.005261 0.000000 0.000000 0.000000
# 2 0.000715 0.004709 -0.001863 0.000000 0.000000 0.000000
# 3 -0.005261 -0.001863 0.013133 0.000000 0.000000 0.000000
# 4 0.000000 0.000000 0.000000 0.023715 0.000000 0.000000
# 5 0.000000 0.000000 0.000000 0.000000 0.022611 0.000000
# 6 0.000000 0.000000 0.000000 0.000000 0.000000 0.026850
#
#
# Mechanical properties :
#
#
# Convention : Reuss Voigt Hill
#
# Bulk Modulus (GPa) = 42.88635 54.67382 48.78009
# Shear Modulus (GPa) = 38.49113 46.06575 42.27844
#
# Velocity S-wave (km/s) = 3.85761 4.22014 4.04294
# Velocity P-wave (km/s) = 6.03505 6.69952 6.37595
#
# Compressibility (1/GPa) = 0.02331744
#
# Stress axis : x y z
#
# Youngs Moduli (GPa) = 54.66890 212.35111 76.14130
#
# Poissons Ratio (x) = -0.15193 0.40056
# Poissons Ratio (y) = -0.03911 0.14187
# Poissons Ratio (z) = 0.28760 0.39567
#
# Static dielectric constant tensor:
#      x y z
#    x 2.108750 0.000000 0.000000 
#    y 0.000000 2.058180 0.000000 
#    z 0.000000 0.000000 2.119680 
# 
# From -- ./inp_files/6389.got.cif
#   From: 2010.05.17/outbox.cif.g08.bks.cpg/sg19_4_cif.got.tgz:6389.got - 2010.06.03 22:46:19.
