data_PCOD9316126
_publ_section_title
;
Structure prediction by ZEFSAII (Michael W. Deem and Ramdas Pophale) SiO2 
 PCOD9316126
Probable space group: P 21 21 21
;
_chemical_formula_sum "Si O2"
_cell_formula_units_Z 32
_cell_length_a 15.000000
_cell_length_b 9.000000
_cell_length_c 12.000000
_cell_angle_alpha 90.000000
_cell_angle_beta 90.000000
_cell_angle_gamma 90.000000
_cell_volume 1620.000000
_symmetry_space_group_name_H-M "P 21 21 21"
_symmetry_group_IT_number 19
_symmetry_cell_setting 'orthorhombic'
loop_
_space_group_symop_operation_xyz
x,y,z
1/2-x,-y,1/2+z
1/2+x,1/2-y,-z
-x,1/2+y,1/2-z
loop_
_atom_site_type_symbol
_atom_site_label
_atom_site_fract_x
_atom_site_fract_y
_atom_site_fract_z
Si Si1 0.239092 0.349799 0.939835
Si Si2 0.156277 0.640444 0.983845
Si Si3 0.258853 0.773415 0.677366
Si Si4 0.224917 0.877728 0.140512
Si Si5 0.079267 0.432655 0.182866
Si Si6 0.928824 0.320941 0.695835
Si Si7 0.086697 0.730138 0.304223
Si Si8 0.396872 0.830746 0.297960
O O1 0.213225 0.519969 0.914007
O O2 0.329727 0.297663 0.883585
O O3 0.156007 0.248213 0.899244
O O4 0.258268 0.324354 0.068600
O O5 0.078665 0.722560 0.915936
O O6 0.217903 0.774611 0.030705
O O7 0.115587 0.531385 0.078928
O O8 0.344670 0.683838 0.725779
O O9 0.167011 0.785160 0.746020
O O10 0.280113 0.943209 0.638339
O O11 0.136985 0.819382 0.205260
O O12 0.317877 0.839229 0.204090
O O13 0.055528 0.565180 0.268366
O O14 0.993976 0.331851 0.153898
O O15 0.927684 0.499426 0.678703
O O16 0.016831 0.265325 0.761318
#
# Coordination Sequence:
#
# PCOD9316126 Si02
#       8
#     4   4   4   4   4   4   4   4
#     4  10  21  37  58  83 113 149 189 236 288 344
#     4  10  21  38  58  84 117 151 191 239 290 347
#     4  10  21  37  58  83 113 150 192 238 289 340
#     4   9  20  39  58  82 115 150 192 240 288 344
#     4  10  21  36  58  85 114 150 191 240 289 344
#     4  11  22  38  60  86 117 155 194 240 292 350
#     4  10  20  37  58  82 113 150 190 235 287 342
#     4  10  22  38  60  85 116 153 193 240 291 345
#
# _framework density 19.753086
#
# number of rings (size 3 to 8) (size 9 to 14) (size 15 to 20)
#    0.000    2.000    0.000    3.000    0.000    8.000 
#    0.000   10.000    0.000    0.000    0.000    0.000 
#    0.000    0.000    0.000    0.000    0.000    0.000 
#
# Total GULP energy -178295.755443 kJ/mol
# GULP energy per Si atom -5571.742358 kJ/mol
# Density = 1.970813 g / cm^3
# Si number density = 19.753086 Si / 1000 Ang^3
#
#
#
# Elastic Constant Matrix: (Units=GPa)
#
#
# Indices 1 2 3 4 5 6 
#
# 1 98.6596 49.4585 5.4153 0.0000 0.0000 0.0000
# 2 49.4585 140.4157 12.2926 0.0000 0.0000 0.0000
# 3 5.4153 12.2926 16.9682 0.0000 0.0000 0.0000
# 4 0.0000 0.0000 0.0000 31.1262 0.0000 0.0000
# 5 0.0000 0.0000 0.0000 0.0000 8.3558 0.0000
# 6 0.0000 0.0000 0.0000 0.0000 0.0000 41.7922
#
#
#
# Elastic Compliance Matrix: (Units=1/GPa)
#
#
# Indices 1 2 3 4 5 6 
#
# 1 0.012321 -0.004266 -0.000842 0.000000 0.000000 0.000000
# 2 -0.004266 0.009081 -0.005217 0.000000 0.000000 0.000000
# 3 -0.000842 -0.005217 0.062982 0.000000 0.000000 0.000000
# 4 0.000000 0.000000 0.000000 0.032127 0.000000 0.000000
# 5 0.000000 0.000000 0.000000 0.000000 0.119678 0.000000
# 6 0.000000 0.000000 0.000000 0.000000 0.000000 0.023928
#
#
# Mechanical properties :
#
#
# Convention : Reuss Voigt Hill
#
# Bulk Modulus (GPa) = 15.69017 43.37513 29.53265
# Shear Modulus (GPa) = 16.55567 28.84664 22.70115
#
# Velocity S-wave (km/s) = 2.89819 3.82561 3.39373
# Velocity P-wave (km/s) = 4.37718 6.44361 5.50817
#
# Compressibility (1/GPa) = 0.06373416
#
# Stress axis : x y z
#
# Youngs Moduli (GPa) = 81.16470 110.11917 15.87751
#
# Poissons Ratio (x) = 0.46977 0.01336
# Poissons Ratio (y) = 0.34625 0.08284
# Poissons Ratio (z) = 0.06830 0.57453
#
# Static dielectric constant tensor:
#      x y z
#    x 1.670360 0.000000 0.000000 
#    y 0.000000 1.686020 0.000000 
#    z 0.000000 0.000000 1.786400 
# 
# From -- ./inp_files/3622.got.cif
#   From: 2010.05.17/outbox.ucp.g08.bks.cvg/sg19_2_cif.got.tgz:3622.got - 2010.06.11 13:13:52.
