data_PCOD9316337
_publ_section_title
;
Structure prediction by ZEFSAII (Michael W. Deem and Ramdas Pophale) SiO2 
 PCOD9316337
Probable space group: C 2 2 21
;
_chemical_formula_sum "Si O2"
_cell_formula_units_Z 40
_cell_length_a 25.130329
_cell_length_b 4.995740
_cell_length_c 17.172007
_cell_angle_alpha 90.000000
_cell_angle_beta 90.000000
_cell_angle_gamma 90.000000
_cell_volume 2155.852575
_symmetry_space_group_name_H-M "C 2 2 21"
_symmetry_group_IT_number 20
_symmetry_cell_setting 'orthorhombic'
loop_
_space_group_symop_operation_xyz
x,y,z
-x,-y,1/2+z
x,-y,-z
-x,y,1/2-z
1/2+x,1/2+y,z
1/2-x,1/2-y,1/2+z
1/2+x,1/2-y,-z
1/2-x,1/2+y,1/2-z
loop_
_atom_site_type_symbol
_atom_site_label
_atom_site_fract_x
_atom_site_fract_y
_atom_site_fract_z
Si Si1 0.138511 0.046714 0.683882
Si Si2 0.133076 0.547696 0.794106
Si Si3 0.252623 0.070008 0.303197
Si Si4 0.481753 0.923919 0.660847
Si Si5 0.033837 0.924756 0.589804
O O1 0.132687 0.340283 0.721015
O O2 0.198323 0.999108 0.652388
O O3 0.092438 0.982202 0.623430
O O4 0.132138 0.841094 0.756327
O O5 0.189313 0.494368 0.836721
O O6 0.080511 0.491136 0.843050
O O7 0.249350 0.873651 0.227368
O O8 0.500000 0.968080 0.750000
O O9 0.515813 0.123601 0.607517
O O10 0.494682 0.621515 0.637436
O O11 0.030908 0.000000 0.500000
#
# Coordination Sequence:
#
# PCOD9316337 Si02
#       5
#     8   8   8   8   8
#     4  10  17  32  50  75 107 132 170 218 267 313
#     4  10  18  30  53  79 101 132 173 225 261 300
#     4   8  16  27  46  75 102 125 161 214 264 303
#     4  12  21  36  57  79 108 142 185 223 264 319
#     4  12  24  36  52  79 112 146 177 219 277 327
#
# _framework density 18.554144999999998
#
# number of rings (size 3 to 8) (size 9 to 14) (size 15 to 20)
#    0.000    1.600    4.000    2.400    0.000    0.000 
#    0.000    0.000    0.000    2.400    0.000    0.000 
#    0.000    0.000    0.000    0.000    0.000    0.000 
#
# Total GULP energy -111596.441010 kJ/mol
# GULP energy per Si atom -5579.822051 kJ/mol
# Density = 1.851191 g / cm^3
# Si number density = 18.554145 Si / 1000 Ang^3
#
#
#
# Elastic Constant Matrix: (Units=GPa)
#
#
# Indices 1 2 3 4 5 6 
#
# 1 129.6316 -16.3619 25.2500 0.0000 0.0000 0.0000
# 2 -16.3619 61.2933 -8.3582 0.0000 0.0000 0.0000
# 3 25.2500 -8.3582 23.7274 0.0000 0.0000 0.0000
# 4 0.0000 0.0000 0.0000 14.2042 0.0000 0.0000
# 5 0.0000 0.0000 0.0000 0.0000 7.4270 0.0000
# 6 0.0000 0.0000 0.0000 0.0000 0.0000 17.7696
#
#
#
# Elastic Compliance Matrix: (Units=1/GPa)
#
#
# Indices 1 2 3 4 5 6 
#
# 1 0.009823 0.001257 -0.010010 0.000000 0.000000 0.000000
# 2 0.001257 0.017299 0.004756 0.000000 0.000000 0.000000
# 3 -0.010010 0.004756 0.054473 0.000000 0.000000 0.000000
# 4 0.000000 0.000000 0.000000 0.070402 0.000000 0.000000
# 5 0.000000 0.000000 0.000000 0.000000 0.134643 0.000000
# 6 0.000000 0.000000 0.000000 0.000000 0.000000 0.056276
#
#
# Mechanical properties :
#
#
# Convention : Reuss Voigt Hill
#
# Bulk Modulus (GPa) = 13.58677 23.96802 18.77740
# Shear Modulus (GPa) = 13.31756 22.15498 17.73627
#
# Velocity S-wave (km/s) = 2.68202 3.45928 3.09515
# Velocity P-wave (km/s) = 4.11457 5.37601 4.78702
#
# Compressibility (1/GPa) = 0.07360099
#
# Stress axis : x y z
#
# Youngs Moduli (GPa) = 101.80553 57.80640 18.35759
#
# Poissons Ratio (x) = -0.07267 0.18376
# Poissons Ratio (y) = -0.12798 -0.08731
# Poissons Ratio (z) = 1.01909 -0.27493
#
# Static dielectric constant tensor:
#      x y z
#    x 1.716110 0.000000 0.000000 
#    y 0.000000 1.630160 0.000000 
#    z 0.000000 0.000000 1.572780 
# 
# From -- ./inp_files/17619.got.cif
#   From: 2010.05.17/outbox.cif.g08.bks.cpg/sg20_9_cif.got.tgz:17619.got - 2010.06.03 22:52:26.
