data_PCOD9316412
_publ_section_title
;
Structure prediction by ZEFSAII (Michael W. Deem and Ramdas Pophale) SiO2 
 PCOD9316412
Probable space group: C 2 2 21
;
_chemical_formula_sum "Si O2"
_cell_formula_units_Z 48
_cell_length_a 16.169972
_cell_length_b 16.169603
_cell_length_c 11.211391
_cell_angle_alpha 90.000000
_cell_angle_beta 90.000000
_cell_angle_gamma 90.000000
_cell_volume 2931.353025
_symmetry_space_group_name_H-M "C 2 2 21"
_symmetry_group_IT_number 20
_symmetry_cell_setting 'orthorhombic'
loop_
_space_group_symop_operation_xyz
x,y,z
-x,-y,1/2+z
x,-y,-z
-x,y,1/2-z
1/2+x,1/2+y,z
1/2-x,1/2-y,1/2+z
1/2+x,1/2-y,-z
1/2-x,1/2+y,1/2-z
loop_
_atom_site_type_symbol
_atom_site_label
_atom_site_fract_x
_atom_site_fract_y
_atom_site_fract_z
Si Si1 0.500000 0.376099 0.750000
Si Si2 0.161321 0.983322 0.742162
Si Si3 0.411234 0.790777 0.692774
Si Si4 0.790772 0.588770 0.442775
Si Si5 0.016675 0.161317 0.992157
Si Si6 0.123906 0.000000 0.000000
Si Si7 0.661446 0.338554 0.374998
O O1 0.574933 0.437369 0.719821
O O2 0.477904 0.323760 0.633572
O O3 0.225884 0.937410 0.658909
O O4 0.158372 0.079097 0.705812
O O5 0.176245 0.977898 0.883576
O O6 0.500000 0.815924 0.750000
O O7 0.362958 0.862959 0.624997
O O8 0.437419 0.725886 0.591094
O O9 0.353523 0.741884 0.790246
O O10 0.815912 0.500000 0.500000
O O11 0.741882 0.646483 0.540247
O O12 0.920902 0.158361 0.955805
O O13 0.062636 0.074932 0.969814
#
# Coordination Sequence:
#
# PCOD9316412 Si02
#       7
#     4   8   8   8   8   4   8
#     4  10  18  26  52  86 122 146 176 218 284 358
#     4  10  18  30  51  82 117 147 178 221 284 348
#     4  10  22  38  60  79 113 151 194 235 281 335
#     4  10  22  38  60  79 113 151 194 235 281 335
#     4  10  18  30  51  82 117 147 178 221 284 348
#     4  10  18  26  52  86 122 146 176 218 284 358
#     4  10  18  34  52  82 110 142 182 228 290 332
#
# _framework density 16.374692
#
# number of rings (size 3 to 8) (size 9 to 14) (size 15 to 20)
#    0.000    2.000    3.333    2.000    2.333    2.667 
#    0.000    0.000    3.667    0.000    0.000    0.000 
#    0.000    0.000    0.000    0.000    0.000    0.000 
#
# Total GULP energy -133674.302170 kJ/mol
# GULP energy per Si atom -5569.762590 kJ/mol
# Density = 1.633742 g / cm^3
# Si number density = 16.374692 Si / 1000 Ang^3
#
#
#
# Elastic Constant Matrix: (Units=GPa)
#
#
# Indices 1 2 3 4 5 6 
#
# 1 75.7007 66.0487 45.7546 0.0000 0.0000 0.0000
# 2 66.0487 75.6553 45.7392 0.0000 0.0000 0.0000
# 3 45.7546 45.7392 105.4495 0.0000 0.0000 0.0000
# 4 0.0000 0.0000 0.0000 12.9858 0.0000 0.0000
# 5 0.0000 0.0000 0.0000 0.0000 13.0054 0.0000
# 6 0.0000 0.0000 0.0000 0.0000 0.0000 19.7983
#
#
#
# Elastic Compliance Matrix: (Units=1/GPa)
#
#
# Indices 1 2 3 4 5 6 
#
# 1 0.056809 -0.047025 -0.004252 0.000000 0.000000 0.000000
# 2 -0.047025 0.056842 -0.004251 0.000000 0.000000 0.000000
# 3 -0.004252 -0.004251 0.013172 0.000000 0.000000 0.000000
# 4 0.000000 0.000000 0.000000 0.077007 0.000000 0.000000
# 5 0.000000 0.000000 0.000000 0.000000 0.076891 0.000000
# 6 0.000000 0.000000 0.000000 0.000000 0.000000 0.050509
#
#
# Mechanical properties :
#
#
# Convention : Reuss Voigt Hill
#
# Bulk Modulus (GPa) = 63.42590 63.54340 63.48465
# Shear Modulus (GPa) = 11.17210 15.77542 13.47376
#
# Velocity S-wave (km/s) = 2.61488 3.10724 2.87163
# Velocity P-wave (km/s) = 6.92351 7.19468 7.06039
#
# Compressibility (1/GPa) = 0.01576643
#
# Stress axis : x y z
#
# Youngs Moduli (GPa) = 17.60277 17.59270 75.91689
#
# Poissons Ratio (x) = 0.82729 0.32282
# Poissons Ratio (y) = 0.82777 0.32274
# Poissons Ratio (z) = 0.07485 0.07479
#
# Static dielectric constant tensor:
#      x y z
#    x 1.542820 0.000000 0.000000 
#    y 0.000000 1.542810 0.000000 
#    z 0.000000 0.000000 1.598080 
# 
# From -- ./inp_files/14170.got.cif
#   From: 2010.05.17/outbox.cif.g08.bks.cpg/sg20_8_cif.got.tgz:14170.got - 2010.06.03 22:52:26.
