data_PCOD9316707
_publ_section_title
;
Structure prediction by ZEFSAII (Michael W. Deem and Ramdas Pophale) SiO2 
 PCOD9316707
Probable space group: C 2 2 21
;
_chemical_formula_sum "Si O2"
_cell_formula_units_Z 56
_cell_length_a 20.822874
_cell_length_b 19.174384
_cell_length_c 8.303432
_cell_angle_alpha 90.000000
_cell_angle_beta 90.000000
_cell_angle_gamma 90.000000
_cell_volume 3315.276271
_symmetry_space_group_name_H-M "C 2 2 21"
_symmetry_group_IT_number 20
_symmetry_cell_setting 'orthorhombic'
loop_
_space_group_symop_operation_xyz
x,y,z
-x,-y,1/2+z
x,-y,-z
-x,y,1/2-z
1/2+x,1/2+y,z
1/2-x,1/2-y,1/2+z
1/2+x,1/2-y,-z
1/2-x,1/2+y,1/2-z
loop_
_atom_site_type_symbol
_atom_site_label
_atom_site_fract_x
_atom_site_fract_y
_atom_site_fract_z
Si Si1 0.000000 0.896672 0.750000
Si Si2 0.881987 0.810334 0.888739
Si Si3 0.436983 0.500000 0.500000
Si Si4 0.778728 0.081393 0.964666
Si Si5 0.576161 0.256079 0.274418
Si Si6 0.312941 0.177014 0.365770
Si Si7 0.151917 0.891120 0.146166
Si Si8 0.792098 0.799118 0.612129
O O1 0.057475 0.848256 0.689760
O O2 0.021747 0.945188 0.898443
O O3 0.842138 0.773399 0.747433
O O4 0.833554 0.871058 0.950654
O O5 0.904238 0.762689 0.037563
O O6 0.391600 0.541296 0.623926
O O7 0.792222 0.097006 0.776739
O O8 0.711554 0.109127 0.038748
O O9 0.787313 0.000000 0.000000
O O10 0.500000 0.253305 0.250000
O O11 0.613974 0.194471 0.180865
O O12 0.605840 0.327732 0.201587
O O13 0.273783 0.183722 0.199853
O O14 0.287390 0.240282 0.477463
O O15 0.180354 0.867481 0.975298
#
# Coordination Sequence:
#
# PCOD9316707 Si02
#       8
#     4   8   4   8   8   8   8   8
#     4  12  24  32  46  76 114 164 196 212 254 318
#     4  10  21  34  52  75 110 150 183 230 261 319
#     4  12  24  32  46  76 114 164 196 212 254 318
#     4  10  21  36  54  77 107 141 183 229 277 329
#     4  10  21  36  54  77 107 141 183 229 277 329
#     4  10  20  34  56  78 100 140 178 234 288 330
#     4  10  21  34  52  75 110 150 183 230 261 319
#     4  10  18  36  52  78 102 138 188 228 282 316
#
# _framework density 16.891504000000001
#
# number of rings (size 3 to 8) (size 9 to 14) (size 15 to 20)
#    0.000    1.714    1.429    5.143   10.000    0.000 
#    0.000    0.000    0.000    0.000    0.000    4.000 
#    0.000    0.000    0.000    0.000    0.000    0.000 
#
# Total GULP energy -156187.118975 kJ/mol
# GULP energy per Si atom -5578.111392 kJ/mol
# Density = 1.685306 g / cm^3
# Si number density = 16.891504 Si / 1000 Ang^3
#
#
#
# Elastic Constant Matrix: (Units=GPa)
#
#
# Indices 1 2 3 4 5 6 
#
# 1 95.1025 28.9515 38.5712 0.0000 0.0000 0.0000
# 2 28.9515 26.7220 3.8571 0.0000 0.0000 0.0000
# 3 38.5712 3.8571 70.8232 0.0000 0.0000 0.0000
# 4 0.0000 0.0000 0.0000 20.7101 0.0000 0.0000
# 5 0.0000 0.0000 0.0000 0.0000 20.5919 0.0000
# 6 0.0000 0.0000 0.0000 0.0000 0.0000 14.8804
#
#
#
# Elastic Compliance Matrix: (Units=1/GPa)
#
#
# Indices 1 2 3 4 5 6 
#
# 1 0.021321 -0.021594 -0.010436 0.000000 0.000000 0.000000
# 2 -0.021594 0.059589 0.008515 0.000000 0.000000 0.000000
# 3 -0.010436 0.008515 0.019339 0.000000 0.000000 0.000000
# 4 0.000000 0.000000 0.000000 0.048286 0.000000 0.000000
# 5 0.000000 0.000000 0.000000 0.000000 0.048563 0.000000
# 6 0.000000 0.000000 0.000000 0.000000 0.000000 0.067202
#
#
# Mechanical properties :
#
#
# Convention : Reuss Voigt Hill
#
# Bulk Modulus (GPa) = 18.78988 37.26748 28.02868
# Shear Modulus (GPa) = 15.19438 19.32100 17.25769
#
# Velocity S-wave (km/s) = 3.00247 3.38572 3.19984
# Velocity P-wave (km/s) = 4.81329 6.11514 5.50285
#
# Compressibility (1/GPa) = 0.05322014
#
# Stress axis : x y z
#
# Youngs Moduli (GPa) = 46.90193 16.78172 51.70801
#
# Poissons Ratio (x) = 0.36238 0.53961
# Poissons Ratio (y) = 1.01279 -0.44029
# Poissons Ratio (z) = 0.48946 -0.14289
#
# Static dielectric constant tensor:
#      x y z
#    x 1.581320 0.000000 0.000000 
#    y 0.000000 1.555910 0.000000 
#    z 0.000000 0.000000 1.618100 
# 
# From -- ./inp_files/10327.got.cif
#   From: 2010.05.17/outbox.cif.g08.bks.cpg/sg20_6_cif.got.tgz:10327.got - 2010.06.03 22:52:26.
