data_PCOD9316248
_publ_section_title
;
Structure prediction by ZEFSAII (Michael W. Deem and Ramdas Pophale) SiO2 
 PCOD9316248
Probable space group: C 2 2 21
;
_chemical_formula_sum "Si O2"
_cell_formula_units_Z 44
_cell_length_a 14.295041
_cell_length_b 16.074288
_cell_length_c 8.673509
_cell_angle_alpha 90.000000
_cell_angle_beta 90.000000
_cell_angle_gamma 90.000000
_cell_volume 1993.021501
_symmetry_space_group_name_H-M "C 2 2 21"
_symmetry_group_IT_number 20
_symmetry_cell_setting 'orthorhombic'
loop_
_space_group_symop_operation_xyz
x,y,z
-x,-y,1/2+z
x,-y,-z
-x,y,1/2-z
1/2+x,1/2+y,z
1/2-x,1/2-y,1/2+z
1/2+x,1/2-y,-z
1/2-x,1/2+y,1/2-z
loop_
_atom_site_type_symbol
_atom_site_label
_atom_site_fract_x
_atom_site_fract_y
_atom_site_fract_z
Si Si1 0.719071 0.873504 0.245877
Si Si2 0.321148 0.871092 0.744256
Si Si3 0.209516 0.500000 0.000000
Si Si4 0.949864 0.404397 0.033625
Si Si5 0.611483 0.768577 0.028325
Si Si6 0.149993 0.094717 0.035973
O O1 0.758220 0.932461 0.109444
O O2 0.621820 0.905354 0.322665
O O3 0.689971 0.789217 0.158098
O O4 0.787954 0.879727 0.388182
O O5 0.391163 0.873066 0.886145
O O6 0.341128 0.791293 0.636683
O O7 0.220263 0.896762 0.817097
O O8 0.344071 0.944014 0.622976
O O9 0.976202 0.500000 0.000000
O O10 0.029385 0.335195 0.053699
O O11 0.579975 0.673026 0.045458
O O12 0.118934 0.000000 0.000000
#
# Coordination Sequence:
#
# PCOD9316248 Si02
#       6
#     8   8   4   8   8   8
#     4  10  20  36  57  87 115 143 189 236 291 345
#     4  10  20  36  57  87 115 143 189 236 291 345
#     4  10  16  32  60  92 102 146 186 224 290 344
#     4  11  21  35  58  87 124 146 175 235 304 353
#     4  11  24  32  55  90 118 151 184 230 293 352
#     4  11  21  40  58  77 117 157 196 236 273 330
#
# _framework density 22.077031000000002
#
# number of rings (size 3 to 8) (size 9 to 14) (size 15 to 20)
#    0.000    1.455    3.636    3.273    5.091    1.455 
#    0.000    0.000    0.000    4.364    0.000    2.545 
#    0.000    0.000    0.000    0.000    0.000    0.000 
#
# Total GULP energy -122551.571147 kJ/mol
# GULP energy per Si atom -5570.525961 kJ/mol
# Density = 2.202678 g / cm^3
# Si number density = 22.077031 Si / 1000 Ang^3
#
#
#
# Elastic Constant Matrix: (Units=GPa)
#
#
# Indices 1 2 3 4 5 6 
#
# 1 17.6550 6.7029 6.2210 0.0000 0.0000 0.0000
# 2 6.7029 177.9587 17.8218 0.0000 0.0000 0.0000
# 3 6.2210 17.8218 118.7591 0.0000 0.0000 0.0000
# 4 0.0000 0.0000 0.0000 15.2230 0.0000 0.0000
# 5 0.0000 0.0000 0.0000 0.0000 -9.2833 0.0000
# 6 0.0000 0.0000 0.0000 0.0000 0.0000 10.6331
#
#
#
# Elastic Compliance Matrix: (Units=1/GPa)
#
#
# Indices 1 2 3 4 5 6 
#
# 1 0.058346 -0.001920 -0.002768 0.000000 0.000000 0.000000
# 2 -0.001920 0.005768 -0.000765 0.000000 0.000000 0.000000
# 3 -0.002768 -0.000765 0.008680 0.000000 0.000000 0.000000
# 4 0.000000 0.000000 0.000000 0.065690 0.000000 0.000000
# 5 0.000000 0.000000 0.000000 0.000000 -0.107721 0.000000
# 6 0.000000 0.000000 0.000000 0.000000 0.000000 0.094046
#
#
# Mechanical properties :
#
#
# Convention : Reuss Voigt Hill
#
# Bulk Modulus (GPa) = 16.15853 41.76271 28.96062
# Shear Modulus (GPa) = 31.98052 22.22304 27.10178
#
# Velocity S-wave (km/s) = 3.81016 3.17616 3.50751
# Velocity P-wave (km/s) = 5.16638 5.69285 5.43599
#
# Compressibility (1/GPa) = 0.06188681
#
# Stress axis : x y z
#
# Youngs Moduli (GPa) = 17.13927 173.36344 115.20446
#
# Poissons Ratio (x) = 0.33293 0.31890
# Poissons Ratio (y) = 0.03291 0.08813
# Poissons Ratio (z) = 0.04744 0.13263
#
# Static dielectric constant tensor:
#      x y z
#    x 1.840430 0.000000 0.000000 
#    y 0.000000 1.911370 0.000000 
#    z 0.000000 0.000000 1.815950 
# 
# From -- ./inp_files/9272.got.cif
#   From: 2010.05.17/outbox.cif.g08.bks.cpg/sg20_5_cif.got.tgz:9272.got - 2010.06.03 22:52:26.
