data_PCOD9316391
_publ_section_title
;
Structure prediction by ZEFSAII (Michael W. Deem and Ramdas Pophale) SiO2 
 PCOD9316391
Probable space group: C 2 2 21
;
_chemical_formula_sum "Si O2"
_cell_formula_units_Z 52
_cell_length_a 13.874750
_cell_length_b 12.049084
_cell_length_c 17.463028
_cell_angle_alpha 90.000000
_cell_angle_beta 90.000000
_cell_angle_gamma 90.000000
_cell_volume 2919.434588
_symmetry_space_group_name_H-M "C 2 2 21"
_symmetry_group_IT_number 20
_symmetry_cell_setting 'orthorhombic'
loop_
_space_group_symop_operation_xyz
x,y,z
-x,-y,1/2+z
x,-y,-z
-x,y,1/2-z
1/2+x,1/2+y,z
1/2-x,1/2-y,1/2+z
1/2+x,1/2-y,-z
1/2-x,1/2+y,1/2-z
loop_
_atom_site_type_symbol
_atom_site_label
_atom_site_fract_x
_atom_site_fract_y
_atom_site_fract_z
Si Si1 0.500000 0.195538 0.750000
Si Si2 0.393526 0.368322 0.516312
Si Si3 0.028403 0.345915 0.958906
Si Si4 0.925400 0.158720 0.124154
Si Si5 0.324739 0.220560 0.015872
Si Si6 0.686911 0.548393 0.586703
Si Si7 0.598873 0.950174 0.120063
O O1 0.570830 0.276487 0.703321
O O2 0.450371 0.117953 0.687054
O O3 0.399329 0.500000 0.500000
O O4 0.438981 0.282462 0.454045
O O5 0.466976 0.345116 0.587120
O O6 0.281498 0.331331 0.522868
O O7 0.913930 0.359510 0.967345
O O8 0.062605 0.424762 0.891441
O O9 0.076450 0.389709 0.038421
O O10 0.889128 0.032596 0.125785
O O11 0.853644 0.225722 0.066599
O O12 0.336106 0.323425 0.074068
O O13 0.700087 0.500000 0.500000
O O14 0.787482 0.543549 0.629624
#
# Coordination Sequence:
#
# PCOD9316391 Si02
#       7
#     4   8   8   8   8   8   8
#     4  12  22  38  56  84 130 164 204 252 320 370
#     4  11  20  34  59  93 120 149 203 266 299 349
#     4  10  19  36  55  89 112 154 202 249 300 352
#     4  10  21  36  57  86 122 165 196 245 311 379
#     4  10  18  32  58  88 115 141 202 256 301 340
#     4  10  17  36  63  85 108 155 204 250 296 362
#     4  11  20  37  61  82 120 160 199 251 304 375
#
# _framework density 17.811669999999999
#
# number of rings (size 3 to 8) (size 9 to 14) (size 15 to 20)
#    0.000    1.538    6.154    3.231    2.154    0.000 
#    0.000    4.615    0.000    3.692    0.000    0.000 
#    0.000    0.000    0.000    0.000    0.000    0.000 
#
# Total GULP energy -144813.499691 kJ/mol
# GULP energy per Si atom -5569.749988 kJ/mol
# Density = 1.777113 g / cm^3
# Si number density = 17.811670 Si / 1000 Ang^3
#
#
#
# Elastic Constant Matrix: (Units=GPa)
#
#
# Indices 1 2 3 4 5 6 
#
# 1 115.3896 33.2568 16.6823 0.0000 0.0000 0.0000
# 2 33.2568 120.1572 38.3149 0.0000 0.0000 0.0000
# 3 16.6823 38.3149 57.8954 0.0000 0.0000 0.0000
# 4 0.0000 0.0000 0.0000 25.3106 0.0000 0.0000
# 5 0.0000 0.0000 0.0000 0.0000 11.0874 0.0000
# 6 0.0000 0.0000 0.0000 0.0000 0.0000 34.6697
#
#
#
# Elastic Compliance Matrix: (Units=1/GPa)
#
#
# Indices 1 2 3 4 5 6 
#
# 1 0.009490 -0.002224 -0.001263 0.000000 0.000000 0.000000
# 2 -0.002224 0.011070 -0.006685 0.000000 0.000000 0.000000
# 3 -0.001263 -0.006685 0.022060 0.000000 0.000000 0.000000
# 4 0.000000 0.000000 0.000000 0.039509 0.000000 0.000000
# 5 0.000000 0.000000 0.000000 0.000000 0.090193 0.000000
# 6 0.000000 0.000000 0.000000 0.000000 0.000000 0.028844
#
#
# Mechanical properties :
#
#
# Convention : Reuss Voigt Hill
#
# Bulk Modulus (GPa) = 44.88997 52.21670 48.55334
# Shear Modulus (GPa) = 21.84035 27.89277 24.86656
#
# Velocity S-wave (km/s) = 3.50549 3.96154 3.74047
# Velocity P-wave (km/s) = 6.45305 7.09258 6.78036
#
# Compressibility (1/GPa) = 0.02227669
#
# Stress axis : x y z
#
# Youngs Moduli (GPa) = 105.37624 90.33721 45.32998
#
# Poissons Ratio (x) = 0.20090 0.05724
# Poissons Ratio (y) = 0.23435 0.30303
# Poissons Ratio (z) = 0.13305 0.60391
#
# Static dielectric constant tensor:
#      x y z
#    x 1.636430 0.000000 0.000000 
#    y 0.000000 1.672210 0.000000 
#    z 0.000000 0.000000 1.597030 
# 
# From -- ./inp_files/24928.got.cif
#   From: 2010.05.17/outbox.cif.g08.bks.cpg/sg20_13_cif.got.tgz:24928.got - 2010.06.03 22:52:26.
