data_PCOD9316759
_publ_section_title
;
Structure prediction by ZEFSAII (Michael W. Deem and Ramdas Pophale) SiO2 
 PCOD9316759
Probable space group: C 2 2 21
;
_chemical_formula_sum "Si O2"
_cell_formula_units_Z 64
_cell_length_a 15.901038
_cell_length_b 10.748130
_cell_length_c 18.399595
_cell_angle_alpha 90.000000
_cell_angle_beta 90.000000
_cell_angle_gamma 90.000000
_cell_volume 3144.608976
_symmetry_space_group_name_H-M "C 2 2 21"
_symmetry_group_IT_number 20
_symmetry_cell_setting 'orthorhombic'
loop_
_space_group_symop_operation_xyz
x,y,z
-x,-y,1/2+z
x,-y,-z
-x,y,1/2-z
1/2+x,1/2+y,z
1/2-x,1/2-y,1/2+z
1/2+x,1/2-y,-z
1/2-x,1/2+y,1/2-z
loop_
_atom_site_type_symbol
_atom_site_label
_atom_site_fract_x
_atom_site_fract_y
_atom_site_fract_z
Si Si1 0.339149 0.982078 0.806586
Si Si2 0.860408 0.416560 0.349741
Si Si3 0.463930 0.067319 0.923922
Si Si4 0.320149 0.350960 0.709924
Si Si5 0.645044 0.308050 0.544082
Si Si6 0.738359 0.266775 0.157204
Si Si7 0.097913 0.890562 0.235998
Si Si8 0.171140 0.075202 0.605151
O O1 0.364978 0.996068 0.722179
O O2 0.416549 0.992221 0.860191
O O3 0.282845 0.104307 0.821226
O O4 0.271466 0.876088 0.825153
O O5 0.859492 0.274554 0.320158
O O6 0.771972 0.439835 0.389428
O O7 0.939059 0.430115 0.402069
O O8 0.421799 0.204567 0.930297
O O9 0.450170 0.000000 0.000000
O O10 0.289924 0.330080 0.792916
O O11 0.380406 0.470492 0.706034
O O12 0.736097 0.263399 0.575270
O O13 0.630873 0.444044 0.579401
O O14 0.648017 0.327638 0.458005
O O15 0.643332 0.290969 0.182936
O O16 0.141366 0.886241 0.315005
O O17 0.000000 0.871556 0.250000
#
# Coordination Sequence:
#
# PCOD9316759 Si02
#       8
#     8   8   8   8   8   8   8   8
#     4   9  19  38  62  89 124 159 213 269 322 380
#     4  11  22  40  67  97 124 169 230 268 324 391
#     4  11  26  41  62  98 131 167 221 276 321 399
#     4  10  18  36  67  86 124 165 218 256 328 388
#     4  10  23  42  66  84 132 184 218 258 344 399
#     4   9  17  38  59  90 120 166 213 262 318 394
#     4  11  22  36  64  99 129 158 219 285 326 383
#     4  11  22  42  66  92 129 177 218 273 331 405
#
# _framework density 20.35229
#
# number of rings (size 3 to 8) (size 9 to 14) (size 15 to 20)
#    0.000    1.750    5.000    0.375    5.250    0.000 
#    2.250    2.500    0.000    0.000    0.000    0.000 
#    0.000    0.000    0.000    0.000    0.000    0.000 
#
# Total GULP energy -178527.993705 kJ/mol
# GULP energy per Si atom -5578.999803 kJ/mol
# Density = 2.030597 g / cm^3
# Si number density = 20.352290 Si / 1000 Ang^3
#
#
#
# Elastic Constant Matrix: (Units=GPa)
#
#
# Indices 1 2 3 4 5 6 
#
# 1 103.0530 10.5898 -1.7953 0.0000 0.0000 0.0000
# 2 10.5898 53.0471 14.0259 0.0000 0.0000 0.0000
# 3 -1.7953 14.0259 33.8480 0.0000 0.0000 0.0000
# 4 0.0000 0.0000 0.0000 30.6536 0.0000 0.0000
# 5 0.0000 0.0000 0.0000 0.0000 19.9861 0.0000
# 6 0.0000 0.0000 0.0000 0.0000 0.0000 20.6795
#
#
#
# Elastic Compliance Matrix: (Units=1/GPa)
#
#
# Indices 1 2 3 4 5 6 
#
# 1 0.009976 -0.002394 0.001521 0.000000 0.000000 0.000000
# 2 -0.002394 0.021745 -0.009138 0.000000 0.000000 0.000000
# 3 0.001521 -0.009138 0.033411 0.000000 0.000000 0.000000
# 4 0.000000 0.000000 0.000000 0.032623 0.000000 0.000000
# 5 0.000000 0.000000 0.000000 0.000000 0.050035 0.000000
# 6 0.000000 0.000000 0.000000 0.000000 0.000000 0.048357
#
#
# Mechanical properties :
#
#
# Convention : Reuss Voigt Hill
#
# Bulk Modulus (GPa) = 22.16727 26.17657 24.17192
# Shear Modulus (GPa) = 21.62587 25.40570 23.51578
#
# Velocity S-wave (km/s) = 3.26326 3.53696 3.40286
# Velocity P-wave (km/s) = 5.01137 5.43781 5.22894
#
# Compressibility (1/GPa) = 0.04511155
#
# Stress axis : x y z
#
# Youngs Moduli (GPa) = 100.23835 45.98739 29.93025
#
# Poissons Ratio (x) = 0.11008 -0.04553
# Poissons Ratio (y) = 0.23994 0.27349
# Poissons Ratio (z) = -0.15247 0.42022
#
# Static dielectric constant tensor:
#      x y z
#    x 1.708650 0.000000 0.000000 
#    y 0.000000 1.793290 0.000000 
#    z 0.000000 0.000000 1.723060 
# 
# From -- ./inp_files/24978.got.cif
#   From: 2010.05.17/outbox.cif.g08.bks.cpg/sg20_13_cif.got.tgz:24978.got - 2010.06.03 22:52:26.
