data_PCOD9316175
_publ_section_title
;
Structure prediction by ZEFSAII (Michael W. Deem and Ramdas Pophale) SiO2 
 PCOD9316175
Probable space group: P 21 21 21
;
_chemical_formula_sum "Si O2"
_cell_formula_units_Z 28
_cell_length_a 24.000000
_cell_length_b 6.000000
_cell_length_c 9.000000
_cell_angle_alpha 90.000000
_cell_angle_beta 90.000000
_cell_angle_gamma 90.000000
_cell_volume 1296.000000
_symmetry_space_group_name_H-M "P 21 21 21"
_symmetry_group_IT_number 19
_symmetry_cell_setting 'orthorhombic'
loop_
_space_group_symop_operation_xyz
x,y,z
1/2-x,-y,1/2+z
1/2+x,1/2-y,-z
-x,1/2+y,1/2-z
loop_
_atom_site_type_symbol
_atom_site_label
_atom_site_fract_x
_atom_site_fract_y
_atom_site_fract_z
Si Si1 0.660811 0.498695 0.713459
Si Si2 0.936840 0.827795 0.115736
Si Si3 0.132675 0.683048 0.562328
Si Si4 0.327580 0.373304 0.566196
Si Si5 0.458355 0.476083 0.575314
Si Si6 0.242697 0.651945 0.768611
Si Si7 0.484959 0.202259 0.180589
O O1 0.606492 0.341405 0.696278
O O2 0.649656 0.675959 0.582653
O O3 0.664723 0.623134 0.871349
O O4 0.719746 0.371012 0.697356
O O5 0.992992 0.711914 0.052439
O O6 0.957034 0.988090 0.247787
O O7 0.898010 0.957594 0.996677
O O8 0.189848 0.662322 0.655667
O O9 0.082003 0.799781 0.653153
O O10 0.392411 0.443538 0.536951
O O11 0.291078 0.495724 0.695978
O O12 0.288784 0.406945 0.422134
O O13 0.482517 0.678547 0.476756
O O14 0.499048 0.456363 0.243454
#
# Coordination Sequence:
#
# PCOD9316175 Si02
#       7
#     4   4   4   4   4   4   4
#     4  12  23  48  74 106 147 197 263 324 397 478
#     4  12  24  47  77 112 154 196 261 339 408 475
#     4  12  26  50  77 110 159 205 260 340 402 481
#     4  12  26  48  72 111 148 201 262 321 403 485
#     4  12  24  46  78 111 148 202 262 326 403 490
#     4  12  27  48  75 106 154 204 260 328 396 491
#     4  12  28  51  75 118 166 211 266 332 415 486
#
# _framework density 21.604938000000001
#
# number of rings (size 3 to 8) (size 9 to 14) (size 15 to 20)
#    0.000    0.000    4.286    6.000    0.000    2.286 
#    7.714    0.000    0.000    0.000    0.000    0.000 
#    0.000    0.000    0.000    0.000    0.000    0.000 
#
# Total GULP energy -156303.435772 kJ/mol
# GULP energy per Si atom -5582.265563 kJ/mol
# Density = 2.155576 g / cm^3
# Si number density = 21.604938 Si / 1000 Ang^3
#
#
#
# Elastic Constant Matrix: (Units=GPa)
#
#
# Indices 1 2 3 4 5 6 
#
# 1 212.6298 56.2692 36.7023 0.0000 0.0000 0.0000
# 2 56.2692 85.4469 37.6628 0.0000 0.0000 0.0000
# 3 36.7023 37.6628 82.7728 0.0000 0.0000 0.0000
# 4 0.0000 0.0000 0.0000 40.7569 0.0000 0.0000
# 5 0.0000 0.0000 0.0000 0.0000 61.9006 0.0000
# 6 0.0000 0.0000 0.0000 0.0000 0.0000 53.6516
#
#
#
# Elastic Compliance Matrix: (Units=1/GPa)
#
#
# Indices 1 2 3 4 5 6 
#
# 1 0.005766 -0.003340 -0.001037 0.000000 0.000000 0.000000
# 2 -0.003340 0.016574 -0.006060 0.000000 0.000000 0.000000
# 3 -0.001037 -0.006060 0.015299 0.000000 0.000000 0.000000
# 4 0.000000 0.000000 0.000000 0.024536 0.000000 0.000000
# 5 0.000000 0.000000 0.000000 0.000000 0.016155 0.000000
# 6 0.000000 0.000000 0.000000 0.000000 0.000000 0.018639
#
#
# Mechanical properties :
#
#
# Convention : Reuss Voigt Hill
#
# Bulk Modulus (GPa) = 59.65217 71.34647 65.49932
# Shear Modulus (GPa) = 40.50871 47.94283 44.22577
#
# Velocity S-wave (km/s) = 4.33480 4.71581 4.52931
# Velocity P-wave (km/s) = 7.26115 7.92128 7.59839
#
# Compressibility (1/GPa) = 0.01676385
#
# Stress axis : x y z
#
# Youngs Moduli (GPa) = 173.43484 60.33588 65.36539
#
# Poissons Ratio (x) = 0.20152 0.06778
# Poissons Ratio (y) = 0.57926 0.39614
# Poissons Ratio (z) = 0.17984 0.36566
#
# Static dielectric constant tensor:
#      x y z
#    x 1.745050 0.000000 0.000000 
#    y 0.000000 1.875130 0.000000 
#    z 0.000000 0.000000 1.849450 
# 
# From -- ./inp_files/4344.got.cif
#   From: 2010.05.17/outbox.ucp.g08.bks.cvg/sg19_3_cif.got.tgz:4344.got - 2010.06.11 13:13:52.
