data_PCOD9316204
_publ_section_title
;
Structure prediction by ZEFSAII (Michael W. Deem and Ramdas Pophale) SiO2 
 PCOD9316204
Probable space group: C 2 2 21
;
_chemical_formula_sum "Si O2"
_cell_formula_units_Z 40
_cell_length_a 6.948135
_cell_length_b 26.882014
_cell_length_c 8.628777
_cell_angle_alpha 90.000000
_cell_angle_beta 90.000000
_cell_angle_gamma 90.000000
_cell_volume 1611.681780
_symmetry_space_group_name_H-M "C 2 2 21"
_symmetry_group_IT_number 20
_symmetry_cell_setting 'orthorhombic'
loop_
_space_group_symop_operation_xyz
x,y,z
-x,-y,1/2+z
x,-y,-z
-x,y,1/2-z
1/2+x,1/2+y,z
1/2-x,1/2-y,1/2+z
1/2+x,1/2-y,-z
1/2-x,1/2+y,1/2-z
loop_
_atom_site_type_symbol
_atom_site_label
_atom_site_fract_x
_atom_site_fract_y
_atom_site_fract_z
Si Si1 0.313575 0.596505 0.025546
Si Si2 0.295662 0.698362 0.534229
Si Si3 0.733217 0.099226 0.374428
Si Si4 0.000000 0.963695 0.250000
Si Si5 0.753753 0.194896 0.883808
Si Si6 0.281217 0.000000 0.000000
O O1 0.214817 0.586977 0.192827
O O2 0.538848 0.598761 0.079282
O O3 0.356234 0.565021 0.868370
O O4 0.194916 0.644136 0.965251
O O5 0.202488 0.657257 0.420859
O O6 0.296913 0.752861 0.460610
O O7 0.201376 0.696738 0.703497
O O8 0.516993 0.688989 0.581561
O O9 0.631000 0.055068 0.475250
O O10 0.857651 0.995292 0.353528
#
# Coordination Sequence:
#
# PCOD9316204 Si02
#       6
#     8   8   8   4   8   4
#     4   9  16  27  41  60  89 121 153 191 236 283
#     4  10  20  33  49  71  98 128 162 199 241 288
#     4   9  17  27  41  62  89 121 155 193 237 282
#     4  10  16  24  38  60  88 122 154 190 234 288
#     4  10  19  32  49  69  98 130 160 198 241 287
#     4  10  16  24  38  58  88 120 154 190 236 282
#
# _framework density 24.818795999999999
#
# number of rings (size 3 to 8) (size 9 to 14) (size 15 to 20)
#    0.000    2.400    0.000    7.200    0.000    2.400 
#    0.000    0.000    0.000    0.000    0.000    0.000 
#    0.000   40.000    0.000    0.000    0.000    0.200 
#
# Total GULP energy -111366.365558 kJ/mol
# GULP energy per Si atom -5568.318278 kJ/mol
# Density = 2.476231 g / cm^3
# Si number density = 24.818796 Si / 1000 Ang^3
#
#
#
# Elastic Constant Matrix: (Units=GPa)
#
#
# Indices 1 2 3 4 5 6 
#
# 1 35.8742 -20.3899 -4.8436 0.0000 0.0000 0.0000
# 2 -20.3899 170.8914 73.6503 0.0000 0.0000 0.0000
# 3 -4.8436 73.6503 173.6818 0.0000 0.0000 0.0000
# 4 0.0000 0.0000 0.0000 37.9615 0.0000 0.0000
# 5 0.0000 0.0000 0.0000 0.0000 23.8718 0.0000
# 6 0.0000 0.0000 0.0000 0.0000 0.0000 -52.5969
#
#
#
# Elastic Compliance Matrix: (Units=1/GPa)
#
#
# Indices 1 2 3 4 5 6 
#
# 1 0.030001 0.003939 -0.000834 0.000000 0.000000 0.000000
# 2 0.003939 0.007677 -0.003146 0.000000 0.000000 0.000000
# 3 -0.000834 -0.003146 0.007068 0.000000 0.000000 0.000000
# 4 0.000000 0.000000 0.000000 0.026342 0.000000 0.000000
# 5 0.000000 0.000000 0.000000 0.000000 0.041890 0.000000
# 6 0.000000 0.000000 0.000000 0.000000 0.000000 -0.019013
#
#
# Mechanical properties :
#
#
# Convention : Reuss Voigt Hill
#
# Bulk Modulus (GPa) = 22.38832 53.03122 37.70977
# Shear Modulus (GPa) = 45.89796 23.98265 34.94031
#
# Velocity S-wave (km/s) = 4.30504 3.11193 3.75616
# Velocity P-wave (km/s) = 5.80960 5.85883 5.83427
#
# Compressibility (1/GPa) = 0.04466614
#
# Stress axis : x y z
#
# Youngs Moduli (GPa) = 33.33178 130.25248 141.47501
#
# Poissons Ratio (x) = -0.51305 0.11794
# Poissons Ratio (y) = -0.13129 0.44505
# Poissons Ratio (z) = 0.02779 0.40975
#
# Static dielectric constant tensor:
#      x y z
#    x 2.149650 0.000000 0.000000 
#    y 0.000000 2.057030 0.000000 
#    z 0.000000 0.000000 6.121940 
# 
# From -- ./inp_files/6304.got.cif
#   From: 2010.05.17/outbox.cif.g08.bks.cpg/sg20_4_cif.got.tgz:6304.got - 2010.06.03 22:52:26.
