data_PCOD9316806
_publ_section_title
;
Structure prediction by ZEFSAII (Michael W. Deem and Ramdas Pophale) SiO2 
 PCOD9316806
Probable space group: C 2 2 21
;
_chemical_formula_sum "Si O2"
_cell_formula_units_Z 48
_cell_length_a 14.562420
_cell_length_b 9.532116
_cell_length_c 14.439537
_cell_angle_alpha 90.000000
_cell_angle_beta 90.000000
_cell_angle_gamma 90.000000
_cell_volume 2004.361902
_symmetry_space_group_name_H-M "C 2 2 21"
_symmetry_group_IT_number 20
_symmetry_cell_setting 'orthorhombic'
loop_
_space_group_symop_operation_xyz
x,y,z
-x,-y,1/2+z
x,-y,-z
-x,y,1/2-z
1/2+x,1/2+y,z
1/2-x,1/2-y,1/2+z
1/2+x,1/2-y,-z
1/2-x,1/2+y,1/2-z
loop_
_atom_site_type_symbol
_atom_site_label
_atom_site_fract_x
_atom_site_fract_y
_atom_site_fract_z
Si Si1 0.411957 0.321934 0.927848
Si Si2 0.097114 0.772868 0.205735
Si Si3 0.322878 0.624438 0.891768
Si Si4 0.877416 0.495115 0.399822
Si Si5 0.099574 0.257879 0.237527
Si Si6 0.390775 0.553968 0.406289
O O1 0.374985 0.475100 0.897243
O O2 0.375639 0.223559 0.844560
O O3 0.521374 0.350670 0.938104
O O4 0.368363 0.285501 0.026390
O O5 0.163417 0.811746 0.290818
O O6 0.134127 0.649630 0.140895
O O7 0.000000 0.729086 0.250000
O O8 0.080980 0.913093 0.146739
O O9 0.219193 0.583681 0.915074
O O10 0.925611 0.500000 0.500000
O O11 0.919080 0.398784 0.319134
O O12 0.156045 0.151780 0.171861
O O13 0.000000 0.183301 0.250000
O O14 0.342707 0.500000 0.500000
#
# Coordination Sequence:
#
# PCOD9316806 Si02
#       6
#     8   8   8   8   8   8
#     4  10  18  38  65  86 113 157 214 247 293 356
#     4  12  23  41  65  95 121 162 213 257 301 364
#     4  11  22  39  64  90 121 164 206 251 305 362
#     4  12  27  41  59  91 135 165 191 255 328 371
#     4  10  22  40  63  92 122 162 207 255 308 365
#     4  11  18  35  66  94 114 156 212 263 287 358
#
# _framework density 23.947770999999999
#
# number of rings (size 3 to 8) (size 9 to 14) (size 15 to 20)
#    0.000    1.000    6.667    2.000    2.333    1.333 
#    0.000    0.833    0.000    0.000    0.000    0.000 
#    0.000    0.000    0.000    0.000    0.000    0.000 
#
# Total GULP energy -134008.648017 kJ/mol
# GULP energy per Si atom -5583.693667 kJ/mol
# Density = 2.389326 g / cm^3
# Si number density = 23.947771 Si / 1000 Ang^3
#
#
#
# Elastic Constant Matrix: (Units=GPa)
#
#
# Indices 1 2 3 4 5 6 
#
# 1 34.8454 -9.9633 8.5682 0.0000 0.0000 0.0000
# 2 -9.9633 87.9698 48.7286 0.0000 0.0000 0.0000
# 3 8.5682 48.7286 182.9174 0.0000 0.0000 0.0000
# 4 0.0000 0.0000 0.0000 43.1965 0.0000 0.0000
# 5 0.0000 0.0000 0.0000 0.0000 18.8624 0.0000
# 6 0.0000 0.0000 0.0000 0.0000 0.0000 12.2320
#
#
#
# Elastic Compliance Matrix: (Units=1/GPa)
#
#
# Indices 1 2 3 4 5 6 
#
# 1 0.030822 0.005033 -0.002785 0.000000 0.000000 0.000000
# 2 0.005033 0.014157 -0.004007 0.000000 0.000000 0.000000
# 3 -0.002785 -0.004007 0.006665 0.000000 0.000000 0.000000
# 4 0.000000 0.000000 0.000000 0.023150 0.000000 0.000000
# 5 0.000000 0.000000 0.000000 0.000000 0.053016 0.000000
# 6 0.000000 0.000000 0.000000 0.000000 0.000000 0.081753
#
#
# Mechanical properties :
#
#
# Convention : Reuss Voigt Hill
#
# Bulk Modulus (GPa) = 20.77827 44.48885 32.63356
# Shear Modulus (GPa) = 21.82242 32.08478 26.95360
#
# Velocity S-wave (km/s) = 3.02197 3.66427 3.35851
# Velocity P-wave (km/s) = 4.56856 6.04320 5.35687
#
# Compressibility (1/GPa) = 0.04812721
#
# Stress axis : x y z
#
# Youngs Moduli (GPa) = 32.44429 70.63492 150.03982
#
# Poissons Ratio (x) = -0.35553 0.41780
# Poissons Ratio (y) = -0.16330 0.60124
# Poissons Ratio (z) = 0.09035 0.28305
#
# Static dielectric constant tensor:
#      x y z
#    x 1.978670 0.000000 0.000000 
#    y 0.000000 1.925250 0.000000 
#    z 0.000000 0.000000 2.073570 
# 
# From -- ./inp_files/21310.got.cif
#   From: 2010.05.17/outbox.cif.g08.bks.cpg/sg20_11_cif.got.tgz:21310.got - 2010.06.03 22:52:26.
