data_PCOD9316856
_publ_section_title
;
Structure prediction by ZEFSAII (Michael W. Deem and Ramdas Pophale) SiO2 
 PCOD9316856
Probable space group: C 2 2 21
;
_chemical_formula_sum "Si O2"
_cell_formula_units_Z 48
_cell_length_a 9.036535
_cell_length_b 18.123334
_cell_length_c 13.750221
_cell_angle_alpha 90.000000
_cell_angle_beta 90.000000
_cell_angle_gamma 90.000000
_cell_volume 2251.903146
_symmetry_space_group_name_H-M "C 2 2 21"
_symmetry_group_IT_number 20
_symmetry_cell_setting 'orthorhombic'
loop_
_space_group_symop_operation_xyz
x,y,z
-x,-y,1/2+z
x,-y,-z
-x,y,1/2-z
1/2+x,1/2+y,z
1/2-x,1/2-y,1/2+z
1/2+x,1/2-y,-z
1/2-x,1/2+y,1/2-z
loop_
_atom_site_type_symbol
_atom_site_label
_atom_site_fract_x
_atom_site_fract_y
_atom_site_fract_z
Si Si1 0.211514 0.221177 0.669276
Si Si2 0.500000 0.603984 0.750000
Si Si3 0.324246 0.320262 0.955281
Si Si4 0.111822 0.349044 0.445694
Si Si5 0.000000 0.315702 0.250000
Si Si6 0.074966 0.921358 0.038020
Si Si7 0.521967 0.855119 0.854947
O O1 0.246465 0.189235 0.562829
O O2 0.365012 0.237114 0.719957
O O3 0.138646 0.157702 0.733943
O O4 0.088801 0.284591 0.658596
O O5 0.483238 0.564699 0.647498
O O6 0.399662 0.240366 0.943171
O O7 0.193137 0.335065 0.878276
O O8 0.448503 0.382921 0.971901
O O9 0.044379 0.367545 0.340957
O O10 0.285042 0.367468 0.455107
O O11 0.035408 0.384792 0.540729
O O12 0.123759 0.000000 0.000000
O O13 0.500000 0.894618 0.750000
#
# Coordination Sequence:
#
# PCOD9316856 Si02
#       7
#     8   4   8   8   4   8   8
#     4  10  19  32  63  95 127 168 226 279 317 393
#     4  10  18  40  67  88 125 180 226 266 336 404
#     4  10  21  40  65  98 131 170 225 280 338 398
#     4  11  22  39  66 102 131 173 229 281 333 394
#     4  12  20  34  63 102 131 178 230 280 324 410
#     4  11  25  45  68  97 138 178 224 284 338 412
#     4  11  21  37  57  94 139 169 207 284 349 385
#
# _framework density 21.315304000000001
#
# number of rings (size 3 to 8) (size 9 to 14) (size 15 to 20)
#    0.000    1.333    4.167    4.000    2.333    0.000 
#    3.000    0.833    1.833    0.000    0.000    0.000 
#    0.000    0.000    0.000    0.000    0.000    0.000 
#
# Total GULP energy -133761.727428 kJ/mol
# GULP energy per Si atom -5573.405310 kJ/mol
# Density = 2.126679 g / cm^3
# Si number density = 21.315304 Si / 1000 Ang^3
#
#
#
# Elastic Constant Matrix: (Units=GPa)
#
#
# Indices 1 2 3 4 5 6 
#
# 1 99.1955 -4.3057 57.6356 0.0000 0.0000 0.0000
# 2 -4.3057 25.9758 12.2776 0.0000 0.0000 0.0000
# 3 57.6356 12.2776 137.8879 0.0000 0.0000 0.0000
# 4 0.0000 0.0000 0.0000 6.1005 0.0000 0.0000
# 5 0.0000 0.0000 0.0000 0.0000 51.5992 0.0000
# 6 0.0000 0.0000 0.0000 0.0000 0.0000 -3.7273
#
#
#
# Elastic Compliance Matrix: (Units=1/GPa)
#
#
# Indices 1 2 3 4 5 6 
#
# 1 0.013981 0.005303 -0.006316 0.000000 0.000000 0.000000
# 2 0.005303 0.042200 -0.005974 0.000000 0.000000 0.000000
# 3 -0.006316 -0.005974 0.010424 0.000000 0.000000 0.000000
# 4 0.000000 0.000000 0.000000 0.163920 0.000000 0.000000
# 5 0.000000 0.000000 0.000000 0.000000 0.019380 0.000000
# 6 0.000000 0.000000 0.000000 0.000000 0.000000 -0.268288
#
#
# Mechanical properties :
#
#
# Convention : Reuss Voigt Hill
#
# Bulk Modulus (GPa) = 19.00030 43.80825 31.40428
# Shear Modulus (GPa) = 380.64902 23.95794 202.30348
#
# Velocity S-wave (km/s) = 13.37789 3.35622 9.75274
# Velocity P-wave (km/s) = 15.73395 5.96792 11.89901
#
# Compressibility (1/GPa) = 0.05263074
#
# Stress axis : x y z
#
# Youngs Moduli (GPa) = 71.52500 23.69670 95.93011
#
# Poissons Ratio (x) = -0.12566 0.60591
# Poissons Ratio (y) = -0.37928 0.57309
# Poissons Ratio (z) = 0.45176 0.14156
#
# Static dielectric constant tensor:
#      x y z
#    x 1.813430 0.000000 0.000000 
#    y 0.000000 1.705560 0.000000 
#    z 0.000000 0.000000 1.916920 
# 
# From -- ./inp_files/19081.got.cif
#   From: 2010.05.17/outbox.cif.g08.bks.cpg/sg20_10_cif.got.tgz:19081.got - 2010.06.03 22:52:26.
