data_PCOD9316975
_publ_section_title
;
Structure prediction by ZEFSAII (Michael W. Deem and Ramdas Pophale) SiO2 
 PCOD9316975
Probable space group: C 2 2 21
;
_chemical_formula_sum "Si O2"
_cell_formula_units_Z 40
_cell_length_a 21.355408
_cell_length_b 21.137857
_cell_length_c 5.017268
_cell_angle_alpha 90.000000
_cell_angle_beta 90.000000
_cell_angle_gamma 90.000000
_cell_volume 2264.832708
_symmetry_space_group_name_H-M "C 2 2 21"
_symmetry_group_IT_number 20
_symmetry_cell_setting 'orthorhombic'
loop_
_space_group_symop_operation_xyz
x,y,z
-x,-y,1/2+z
x,-y,-z
-x,y,1/2-z
1/2+x,1/2+y,z
1/2-x,1/2-y,1/2+z
1/2+x,1/2-y,-z
1/2-x,1/2+y,1/2-z
loop_
_atom_site_type_symbol
_atom_site_label
_atom_site_fract_x
_atom_site_fract_y
_atom_site_fract_z
Si Si1 0.249087 0.163647 0.365549
Si Si2 0.456911 0.245293 0.505826
Si Si3 0.956510 0.398625 0.492443
Si Si4 0.175981 0.204896 0.875299
Si Si5 0.169495 0.458489 0.771757
O O1 0.212348 0.165141 0.647265
O O2 0.294807 0.224504 0.358191
O O3 0.289145 0.104559 0.260623
O O4 0.195635 0.175781 0.153176
O O5 0.500000 0.238017 0.250000
O O6 0.436575 0.173267 0.587467
O O7 0.398219 0.285431 0.400617
O O8 0.500000 0.269697 0.750000
O O9 0.895953 0.436415 0.591963
O O10 0.000000 0.395989 0.750000
O O11 0.000000 0.424137 0.250000
O O12 0.162145 0.500000 0.500000
O O13 0.201783 0.500000 0.000000
#
# Coordination Sequence:
#
# PCOD9316975 Si02
#       5
#     8   8   8   8   8
#     4  10  21  35  54  80 106 146 189 228 290 328
#     4  10  19  32  54  82 112 141 178 227 282 334
#     4  10  21  36  52  73 106 147 193 235 271 312
#     4  10  19  35  57  78 111 140 182 233 280 357
#     4  12  24  38  55  77 111 150 201 245 274 327
#
# _framework density 17.661348
#
# number of rings (size 3 to 8) (size 9 to 14) (size 15 to 20)
#    0.000    1.600    2.000    3.600    0.000    1.600 
#    0.000    0.000    0.000    0.000    0.000    0.000 
#    0.000   44.800    0.000    0.000    0.000    0.000 
#
# Total GULP energy -111372.820740 kJ/mol
# GULP energy per Si atom -5568.641037 kJ/mol
# Density = 1.762115 g / cm^3
# Si number density = 17.661348 Si / 1000 Ang^3
#
#
#
# Elastic Constant Matrix: (Units=GPa)
#
#
# Indices 1 2 3 4 5 6 
#
# 1 86.7323 20.3825 8.1362 0.0000 0.0000 0.0000
# 2 20.3825 37.5290 -11.0642 0.0000 0.0000 0.0000
# 3 8.1362 -11.0642 81.0731 0.0000 0.0000 0.0000
# 4 0.0000 0.0000 0.0000 24.5945 0.0000 0.0000
# 5 0.0000 0.0000 0.0000 0.0000 19.3540 0.0000
# 6 0.0000 0.0000 0.0000 0.0000 0.0000 17.3400
#
#
#
# Elastic Compliance Matrix: (Units=1/GPa)
#
#
# Indices 1 2 3 4 5 6 
#
# 1 0.013682 -0.008164 -0.002487 0.000000 0.000000 0.000000
# 2 -0.008164 0.032635 0.005273 0.000000 0.000000 0.000000
# 3 -0.002487 0.005273 0.013304 0.000000 0.000000 0.000000
# 4 0.000000 0.000000 0.000000 0.040659 0.000000 0.000000
# 5 0.000000 0.000000 0.000000 0.000000 0.051669 0.000000
# 6 0.000000 0.000000 0.000000 0.000000 0.000000 0.057670
#
#
# Mechanical properties :
#
#
# Convention : Reuss Voigt Hill
#
# Bulk Modulus (GPa) = 20.46509 26.69372 23.57941
# Shear Modulus (GPa) = 21.12713 24.78303 22.95508
#
# Velocity S-wave (km/s) = 3.46242 3.75004 3.60910
# Velocity P-wave (km/s) = 5.25329 5.82215 5.54502
#
# Compressibility (1/GPa) = 0.04886369
#
# Stress axis : x y z
#
# Youngs Moduli (GPa) = 73.09073 30.64234 75.16667
#
# Poissons Ratio (x) = 0.25016 0.18695
# Poissons Ratio (y) = 0.59671 -0.39635
# Poissons Ratio (z) = 0.18179 -0.16158
#
# Static dielectric constant tensor:
#      x y z
#    x 1.621640 0.000000 0.000000 
#    y 0.000000 1.687230 0.000000 
#    z 0.000000 0.000000 1.606520 
# 
# From -- ./inp_files/2483.got.cif
#   From: 2010.05.17/outbox.cif.g08.bks.cpg/sg20_2_cif.got.tgz:2483.got - 2010.06.03 22:52:26.
