data_PCOD9316073
_publ_section_title
;
Structure prediction by ZEFSAII (Michael W. Deem and Ramdas Pophale) SiO2 
 PCOD9316073
Probable space group: P 21 21 21
;
_chemical_formula_sum "Si O2"
_cell_formula_units_Z 16
_cell_length_a 5.801886
_cell_length_b 21.581502
_cell_length_c 4.611677
_cell_angle_alpha 90.000000
_cell_angle_beta 90.000000
_cell_angle_gamma 90.000000
_cell_volume 577.443823
_symmetry_space_group_name_H-M "P 21 21 21"
_symmetry_group_IT_number 19
_symmetry_cell_setting 'orthorhombic'
loop_
_space_group_symop_operation_xyz
x,y,z
1/2-x,-y,1/2+z
1/2+x,1/2-y,-z
-x,1/2+y,1/2-z
loop_
_atom_site_type_symbol
_atom_site_label
_atom_site_fract_x
_atom_site_fract_y
_atom_site_fract_z
Si Si1 0.302727 0.742945 0.342845
Si Si2 0.512786 0.850398 0.975436
Si Si3 0.267856 0.545639 0.707720
Si Si4 0.207637 0.955138 0.947934
O O1 0.553813 0.738598 0.505624
O O2 0.363957 0.794447 0.103835
O O3 0.225324 0.678547 0.197764
O O4 0.607443 0.896184 0.222500
O O5 0.341105 0.897146 0.815654
O O6 0.268288 0.478973 0.884035
O O7 0.507401 0.569351 0.844793
O O8 0.158491 0.000915 0.679830
#
# Coordination Sequence:
#
# PCOD9316073 Si02
#       4
#     4   4   4   4
#     4  12  32  56  86 126 172 242 294 364 430 522
#     4  12  30  54  82 122 170 222 298 358 436 532
#     4  12  26  49  82 123 164 216 279 363 444 520
#     4  12  26  49  82 123 164 216 279 363 444 520
#
# _framework density 27.708317999999998
#
# number of rings (size 3 to 8) (size 9 to 14) (size 15 to 20)
#    0.000    0.000    5.000    1.500   17.500    0.000 
#    0.000    0.000    0.000    0.000    0.000    0.000 
#    0.000    0.000    0.000    0.000    0.000    0.000 
#
# Total GULP energy -89307.276423 kJ/mol
# GULP energy per Si atom -5581.704776 kJ/mol
# Density = 2.764525 g / cm^3
# Si number density = 27.708318 Si / 1000 Ang^3
#
#
#
# Elastic Constant Matrix: (Units=GPa)
#
#
# Indices 1 2 3 4 5 6 
#
# 1 124.8298 17.9071 7.1629 0.0000 0.0000 0.0000
# 2 17.9071 94.8376 12.3690 0.0000 0.0000 0.0000
# 3 7.1629 12.3690 70.0011 0.0000 0.0000 0.0000
# 4 0.0000 0.0000 0.0000 16.4198 0.0000 0.0000
# 5 0.0000 0.0000 0.0000 0.0000 59.0642 0.0000
# 6 0.0000 0.0000 0.0000 0.0000 0.0000 65.0835
#
#
#
# Elastic Compliance Matrix: (Units=1/GPa)
#
#
# Indices 1 2 3 4 5 6 
#
# 1 0.008257 -0.001483 -0.000583 0.000000 0.000000 0.000000
# 2 -0.001483 0.011059 -0.001802 0.000000 0.000000 0.000000
# 3 -0.000583 -0.001802 0.014664 0.000000 0.000000 0.000000
# 4 0.000000 0.000000 0.000000 0.060902 0.000000 0.000000
# 5 0.000000 0.000000 0.000000 0.000000 0.016931 0.000000
# 6 0.000000 0.000000 0.000000 0.000000 0.000000 0.015365
#
#
# Mechanical properties :
#
#
# Convention : Reuss Voigt Hill
#
# Bulk Modulus (GPa) = 38.10470 40.50515 39.30492
# Shear Modulus (GPa) = 34.80385 44.92881 39.86633
#
# Velocity S-wave (km/s) = 3.54797 4.03114 3.79725
# Velocity P-wave (km/s) = 5.52865 6.02636 5.78286
#
# Compressibility (1/GPa) = 0.02624348
#
# Stress axis : x y z
#
# Youngs Moduli (GPa) = 121.10783 90.42047 68.19598
#
# Poissons Ratio (x) = 0.13410 0.03975
# Poissons Ratio (y) = 0.17961 0.12292
# Poissons Ratio (z) = 0.07059 0.16298
#
# Static dielectric constant tensor:
#      x y z
#    x 2.509160 0.000000 0.000000 
#    y 0.000000 2.050870 0.000000 
#    z 0.000000 0.000000 2.354270 
# 
# From -- ./inp_files/152.got.cif
#   From: 2010.05.17/outbox.cif.g08.bks.cpg/sg19_1_cif.got.tgz:152.got - 2010.06.03 22:46:19.
