data_PCOD9316907
_publ_section_title
;
Structure prediction by ZEFSAII (Michael W. Deem and Ramdas Pophale) SiO2 
 PCOD9316907
Probable space group: C 2 2 21
;
_chemical_formula_sum "Si O2"
_cell_formula_units_Z 56
_cell_length_a 13.531859
_cell_length_b 5.629089
_cell_length_c 27.247455
_cell_angle_alpha 90.000000
_cell_angle_beta 90.000000
_cell_angle_gamma 90.000000
_cell_volume 2075.494195
_symmetry_space_group_name_H-M "C 2 2 21"
_symmetry_group_IT_number 20
_symmetry_cell_setting 'orthorhombic'
loop_
_space_group_symop_operation_xyz
x,y,z
-x,-y,1/2+z
x,-y,-z
-x,y,1/2-z
1/2+x,1/2+y,z
1/2-x,1/2-y,1/2+z
1/2+x,1/2-y,-z
1/2-x,1/2+y,1/2-z
loop_
_atom_site_type_symbol
_atom_site_label
_atom_site_fract_x
_atom_site_fract_y
_atom_site_fract_z
Si Si1 0.800506 0.500000 0.500000
Si Si2 0.632998 0.500000 0.223137
Si Si3 0.770163 0.000000 0.500000
Si Si4 0.253315 0.500000 0.114288
Si Si5 0.050597 0.000000 0.115387
Si Si6 0.782932 0.500000 0.896305
Si Si7 0.130168 0.500000 0.280095
Si Si8 0.022994 0.500000 0.130145
O O1 0.839282 0.767327 0.500000
O O2 0.752260 0.500000 0.554832
O O3 0.564509 0.500000 0.174693
O O4 0.750360 0.500000 0.210039
O O5 0.616118 0.251385 0.251406
O O6 0.616118 0.748615 0.251406
O O7 0.695094 0.000000 0.546170
O O8 0.304621 0.254132 0.127843
O O9 0.142815 0.500000 0.137537
O O10 0.304621 0.745868 0.127843
O O11 0.006010 0.746625 0.101429
O O12 0.163795 0.000000 0.098972
O O13 0.006010 0.253375 0.101429
O O14 0.046390 0.500000 0.322490
#
# Coordination Sequence:
#
# PCOD9316907 Si02
#       8
#     4   8   4   8   8   8   8   8
#     4   8  12  20  34  52  79 110 133 158 200 246
#     4  10  21  35  48  63  86 116 147 177 214 262
#     4   8  12  20  34  52  79 110 133 158 200 246
#     4   8  14  23  36  57  83 108 134 167 205 245
#     4  10  19  30  46  68  90 111 142 182 218 251
#     4   8  14  23  36  57  83 108 134 167 205 245
#     4  10  21  35  48  63  86 116 147 177 214 262
#     4  10  19  30  46  68  90 111 142 182 218 251
#
# _framework density 26.981528999999998
#
# number of rings (size 3 to 8) (size 9 to 14) (size 15 to 20)
#    0.000    2.857    0.000    1.714    0.000    3.429 
#    0.000    0.000    0.000    0.000    0.000    1.000 
#    0.000    0.000    0.000   76.857    0.000    2.857 
#
# Total GULP energy -156182.137436 kJ/mol
# GULP energy per Si atom -5577.933480 kJ/mol
# Density = 2.692012 g / cm^3
# Si number density = 26.981529 Si / 1000 Ang^3
#
#
#
# Elastic Constant Matrix: (Units=GPa)
#
#
# Indices 1 2 3 4 5 6 
#
# 1 140.3913 14.9108 2.9444 0.0000 0.0000 0.0000
# 2 14.9108 336.2946 37.9197 0.0000 0.0000 0.0000
# 3 2.9444 37.9197 79.5238 0.0000 0.0000 0.0000
# 4 0.0000 0.0000 0.0000 41.7468 0.0000 0.0000
# 5 0.0000 0.0000 0.0000 0.0000 12.8306 0.0000
# 6 0.0000 0.0000 0.0000 0.0000 0.0000 -8.6833
#
#
#
# Elastic Compliance Matrix: (Units=1/GPa)
#
#
# Indices 1 2 3 4 5 6 
#
# 1 0.007158 -0.000304 -0.000120 0.000000 0.000000 0.000000
# 2 -0.000304 0.003155 -0.001493 0.000000 0.000000 0.000000
# 3 -0.000120 -0.001493 0.013291 0.000000 0.000000 0.000000
# 4 0.000000 0.000000 0.000000 0.023954 0.000000 0.000000
# 5 0.000000 0.000000 0.000000 0.000000 0.077939 0.000000
# 6 0.000000 0.000000 0.000000 0.000000 0.000000 -0.115164
#
#
# Mechanical properties :
#
#
# Convention : Reuss Voigt Hill
#
# Bulk Modulus (GPa) = 50.58194 74.19549 62.38872
# Shear Modulus (GPa) = 240.86525 42.54114 141.70319
#
# Velocity S-wave (km/s) = 9.45855 3.97505 7.25483
# Velocity P-wave (km/s) = 11.75046 6.97326 9.66177
#
# Compressibility (1/GPa) = 0.01976990
#
# Stress axis : x y z
#
# Youngs Moduli (GPa) = 139.70896 316.91272 75.23664
#
# Poissons Ratio (x) = 0.09628 0.00904
# Poissons Ratio (y) = 0.04245 0.11236
# Poissons Ratio (z) = 0.01679 0.47327
#
# Static dielectric constant tensor:
#      x y z
#    x 2.060130 0.000000 0.000000 
#    y 0.000000 2.177660 0.000000 
#    z 0.000000 0.000000 2.249530 
# 
# From -- ./inp_files/31306.got.cif
#   From: 2010.05.17/outbox.cif.g08.bks.cpg/sg20_16_cif.got.tgz:31306.got - 2010.06.03 22:52:26.
