data_PCOD9316699
_publ_section_title
;
Structure prediction by ZEFSAII (Michael W. Deem and Ramdas Pophale) SiO2 
 PCOD9316699
Probable space group: C 2 2 21
;
_chemical_formula_sum "Si O2"
_cell_formula_units_Z 40
_cell_length_a 12.401015
_cell_length_b 7.089766
_cell_length_c 19.016172
_cell_angle_alpha 90.000000
_cell_angle_beta 90.000000
_cell_angle_gamma 90.000000
_cell_volume 1671.907443
_symmetry_space_group_name_H-M "C 2 2 21"
_symmetry_group_IT_number 20
_symmetry_cell_setting 'orthorhombic'
loop_
_space_group_symop_operation_xyz
x,y,z
-x,-y,1/2+z
x,-y,-z
-x,y,1/2-z
1/2+x,1/2+y,z
1/2-x,1/2-y,1/2+z
1/2+x,1/2-y,-z
1/2-x,1/2+y,1/2-z
loop_
_atom_site_type_symbol
_atom_site_label
_atom_site_fract_x
_atom_site_fract_y
_atom_site_fract_z
Si Si1 0.858237 0.656988 0.098996
Si Si2 0.377679 0.447992 0.581332
Si Si3 0.116588 0.460564 0.264565
Si Si4 0.899152 0.773689 0.950632
Si Si5 0.781181 0.702716 0.350054
O O1 0.895592 0.636390 0.179713
O O2 0.885498 0.446000 0.070311
O O3 0.728382 0.671324 0.101313
O O4 0.903172 0.786539 0.035719
O O5 0.360472 0.500000 0.500000
O O6 0.491663 0.346044 0.584698
O O7 0.367016 0.641433 0.624658
O O8 0.164351 0.539052 0.192878
O O9 0.197840 0.311394 0.298640
O O10 0.000000 0.376141 0.250000
O O11 0.791297 0.860165 0.916314
#
# Coordination Sequence:
#
# PCOD9316699 Si02
#       5
#     8   8   8   8   8
#     4   9  19  39  58  89 119 151 201 246 292 357
#     4  10  18  35  65  84 119 155 186 254 301 334
#     4  10  23  38  62  84 124 162 191 245 300 354
#     4   9  18  36  64  84 115 156 196 247 297 341
#     4  10  23  42  58  90 123 153 206 242 293 363
#
# _framework density 23.924766999999999
#
# number of rings (size 3 to 8) (size 9 to 14) (size 15 to 20)
#    0.000    2.800    4.000    0.000    2.800    8.000 
#    0.000    0.000    4.400    0.000    0.000    0.000 
#    0.000    0.000    0.000    0.000    0.000    0.000 
#
# Total GULP energy -111775.532456 kJ/mol
# GULP energy per Si atom -5588.776623 kJ/mol
# Density = 2.387031 g / cm^3
# Si number density = 23.924767 Si / 1000 Ang^3
#
#
#
# Elastic Constant Matrix: (Units=GPa)
#
#
# Indices 1 2 3 4 5 6 
#
# 1 109.1269 45.5552 2.6966 0.0000 0.0000 0.0000
# 2 45.5552 64.3069 25.8710 0.0000 0.0000 0.0000
# 3 2.6966 25.8710 68.4210 0.0000 0.0000 0.0000
# 4 0.0000 0.0000 0.0000 35.2776 0.0000 0.0000
# 5 0.0000 0.0000 0.0000 0.0000 34.0755 0.0000
# 6 0.0000 0.0000 0.0000 0.0000 0.0000 15.1603
#
#
#
# Elastic Compliance Matrix: (Units=1/GPa)
#
#
# Indices 1 2 3 4 5 6 
#
# 1 0.013766 -0.011244 0.003709 0.000000 0.000000 0.000000
# 2 -0.011244 0.027524 -0.009964 0.000000 0.000000 0.000000
# 3 0.003709 -0.009964 0.018237 0.000000 0.000000 0.000000
# 4 0.000000 0.000000 0.000000 0.028347 0.000000 0.000000
# 5 0.000000 0.000000 0.000000 0.000000 0.029347 0.000000
# 6 0.000000 0.000000 0.000000 0.000000 0.000000 0.065962
#
#
# Mechanical properties :
#
#
# Convention : Reuss Voigt Hill
#
# Bulk Modulus (GPa) = 40.76865 43.34448 42.05657
# Shear Modulus (GPa) = 22.08909 28.08482 25.08696
#
# Velocity S-wave (km/s) = 3.04184 3.42991 3.24169
# Velocity P-wave (km/s) = 5.42350 5.81739 5.62390
#
# Compressibility (1/GPa) = 0.02452865
#
# Stress axis : x y z
#
# Youngs Moduli (GPa) = 72.64418 36.33169 54.83416
#
# Poissons Ratio (x) = 0.40851 -0.20338
# Poissons Ratio (y) = 0.81680 0.54638
# Poissons Ratio (z) = -0.26943 0.36201
#
# Static dielectric constant tensor:
#      x y z
#    x 1.886920 0.000000 0.000000 
#    y 0.000000 1.959090 0.000000 
#    z 0.000000 0.000000 1.986040 
# 
# From -- ./inp_files/27076.got.cif
#   From: 2010.05.17/outbox.cif.g08.bks.cpg/sg20_14_cif.got.tgz:27076.got - 2010.06.03 22:52:26.
