data_PCOD9316732
_publ_section_title
;
Structure prediction by ZEFSAII (Michael W. Deem and Ramdas Pophale) SiO2 
 PCOD9316732
Probable space group: C 2 2 21
;
_chemical_formula_sum "Si O2"
_cell_formula_units_Z 60
_cell_length_a 6.393329
_cell_length_b 26.529147
_cell_length_c 16.439621
_cell_angle_alpha 90.000000
_cell_angle_beta 90.000000
_cell_angle_gamma 90.000000
_cell_volume 2788.316964
_symmetry_space_group_name_H-M "C 2 2 21"
_symmetry_group_IT_number 20
_symmetry_cell_setting 'orthorhombic'
loop_
_space_group_symop_operation_xyz
x,y,z
-x,-y,1/2+z
x,-y,-z
-x,y,1/2-z
1/2+x,1/2+y,z
1/2-x,1/2-y,1/2+z
1/2+x,1/2-y,-z
1/2-x,1/2+y,1/2-z
loop_
_atom_site_type_symbol
_atom_site_label
_atom_site_fract_x
_atom_site_fract_y
_atom_site_fract_z
Si Si1 0.621334 0.182758 0.028116
Si Si2 0.688781 0.447941 0.360137
Si Si3 0.567503 0.407467 0.513248
Si Si4 0.258627 0.658783 0.775958
Si Si5 0.891850 0.964007 0.667977
Si Si6 0.500000 0.987647 0.750000
Si Si7 0.111451 0.764863 0.397552
Si Si8 0.757268 0.346194 0.094194
O O1 0.485963 0.208977 0.099626
O O2 0.788885 0.138749 0.044163
O O3 0.451076 0.162240 0.964604
O O4 0.754840 0.225037 0.979104
O O5 0.706328 0.444267 0.457088
O O6 0.729985 0.391028 0.330815
O O7 0.470488 0.477552 0.341225
O O8 0.852988 0.479909 0.308724
O O9 0.466114 0.435556 0.588507
O O10 0.388158 0.388358 0.449554
O O11 0.500000 0.661778 0.750000
O O12 0.242817 0.711566 0.825803
O O13 0.845585 0.649002 0.812689
O O14 0.000000 0.944197 0.750000
O O15 0.649329 0.958824 0.687877
O O16 0.905661 0.799991 0.401638
#
# Coordination Sequence:
#
# PCOD9316732 Si02
#       8
#     8   8   8   8   8   4   8   8
#     4  11  21  38  64  93 127 182 218 276 340 409
#     4  11  21  39  65 103 140 171 220 282 354 422
#     4  11  24  41  64  99 132 179 223 284 347 409
#     4  10  18  36  60  95 133 168 205 273 348 401
#     4  10  24  45  66  87 138 181 229 291 339 409
#     4  10  24  38  70 100 132 196 226 280 350 430
#     4  10  20  36  58  87 130 167 216 268 333 398
#     4  10  22  35  63  91 133 167 216 278 343 418
#
# _framework density 21.518359
#
# number of rings (size 3 to 8) (size 9 to 14) (size 15 to 20)
#    0.000    1.600    5.333    1.600    1.867    2.667 
#    0.000    2.667    8.800    0.000    0.000    0.000 
#    0.000    0.000    0.000    0.000    0.000    0.000 
#
# Total GULP energy -167117.209849 kJ/mol
# GULP energy per Si atom -5570.573662 kJ/mol
# Density = 2.146938 g / cm^3
# Si number density = 21.518359 Si / 1000 Ang^3
#
#
#
# Elastic Constant Matrix: (Units=GPa)
#
#
# Indices 1 2 3 4 5 6 
#
# 1 75.5200 35.6586 34.0622 0.0000 0.0000 0.0000
# 2 35.6586 77.2861 69.0213 0.0000 0.0000 0.0000
# 3 34.0622 69.0213 151.8523 0.0000 0.0000 0.0000
# 4 0.0000 0.0000 0.0000 32.2356 0.0000 0.0000
# 5 0.0000 0.0000 0.0000 0.0000 31.7695 0.0000
# 6 0.0000 0.0000 0.0000 0.0000 0.0000 15.1975
#
#
#
# Elastic Compliance Matrix: (Units=1/GPa)
#
#
# Indices 1 2 3 4 5 6 
#
# 1 0.016945 -0.007446 -0.000416 0.000000 0.000000 0.000000
# 2 -0.007446 0.025052 -0.009717 0.000000 0.000000 0.000000
# 3 -0.000416 -0.009717 0.011095 0.000000 0.000000 0.000000
# 4 0.000000 0.000000 0.000000 0.031022 0.000000 0.000000
# 5 0.000000 0.000000 0.000000 0.000000 0.031477 0.000000
# 6 0.000000 0.000000 0.000000 0.000000 0.000000 0.065800
#
#
# Mechanical properties :
#
#
# Convention : Reuss Voigt Hill
#
# Bulk Modulus (GPa) = 55.76060 64.68252 60.22156
# Shear Modulus (GPa) = 22.46904 26.90160 24.68532
#
# Velocity S-wave (km/s) = 3.23488 3.53961 3.39067
# Velocity P-wave (km/s) = 6.31838 6.84322 6.58603
#
# Compressibility (1/GPa) = 0.01793381
#
# Stress axis : x y z
#
# Youngs Moduli (GPa) = 59.01315 39.91665 90.12872
#
# Poissons Ratio (x) = 0.29724 0.03753
# Poissons Ratio (y) = 0.43944 0.87575
# Poissons Ratio (z) = 0.02457 0.38786
#
# Static dielectric constant tensor:
#      x y z
#    x 1.916480 0.000000 0.000000 
#    y 0.000000 1.823210 0.000000 
#    z 0.000000 0.000000 1.869440 
# 
# From -- ./inp_files/22985.got.cif
#   From: 2010.05.17/outbox.cif.g08.bks.cpg/sg20_12_cif.got.tgz:22985.got - 2010.06.03 22:52:26.
