data_PCOD9316044
_publ_section_title
;
Structure prediction by ZEFSAII (Michael W. Deem and Ramdas Pophale) SiO2 
 PCOD9316044
Probable space group: P 21 21 21
;
_chemical_formula_sum "Si O2"
_cell_formula_units_Z 32
_cell_length_a 8.467408
_cell_length_b 13.722960
_cell_length_c 11.744376
_cell_angle_alpha 90.000000
_cell_angle_beta 90.000000
_cell_angle_gamma 90.000000
_cell_volume 1364.671843
_symmetry_space_group_name_H-M "P 21 21 21"
_symmetry_group_IT_number 19
_symmetry_cell_setting 'orthorhombic'
loop_
_space_group_symop_operation_xyz
x,y,z
1/2-x,-y,1/2+z
1/2+x,1/2-y,-z
-x,1/2+y,1/2-z
loop_
_atom_site_type_symbol
_atom_site_label
_atom_site_fract_x
_atom_site_fract_y
_atom_site_fract_z
Si Si1 0.990688 0.750000 0.076982
Si Si2 0.134676 0.579867 0.226942
Si Si3 0.179009 0.141352 0.938628
Si Si4 0.320991 0.641353 0.438628
Si Si5 0.367980 0.250000 0.335479
Si Si6 0.130394 0.921490 0.653210
Si Si7 0.130395 0.578511 0.653210
Si Si8 0.365324 0.079867 0.726941
O O1 0.073331 0.656388 0.134785
O O2 0.073330 0.843613 0.134786
O O3 0.808016 0.749999 0.112518
O O4 0.013372 0.750000 0.941638
O O5 0.183541 0.630465 0.345190
O O6 0.290589 0.522660 0.187049
O O7 0.999999 0.500000 0.250000
O O8 0.110717 0.250000 0.930631
O O9 0.316458 0.130465 0.845190
O O10 0.037767 0.068552 0.908359
O O11 0.250183 0.124564 0.061725
O O12 0.462232 0.568552 0.408359
O O13 0.249817 0.624564 0.561725
O O14 0.385647 0.153961 0.257326
O O15 0.385646 0.346038 0.257326
O O16 0.209411 0.022661 0.687048
#
# Coordination Sequence:
#
# PCOD9316044 Si02
#       8
#     4   4   4   4   4   4   4   4
#     4  12  30  49  75 106 158 199 254 314 388 443
#     4  12  27  49  77 110 152 203 256 314 381 458
#     4  12  25  48  78 109 152 197 257 318 376 443
#     4  12  25  48  78 109 152 197 257 318 376 443
#     4  12  28  49  77 112 152 197 252 310 386 457
#     4  12  27  47  78 113 151 199 255 313 379 458
#     4  12  27  47  78 113 151 199 255 313 379 458
#     4  12  27  49  77 110 152 203 256 314 381 458
#
# _framework density 23.448858999999999
#
# number of rings (size 3 to 8) (size 9 to 14) (size 15 to 20)
#    0.000    0.000    6.250    2.250    7.000    2.000 
#    0.000    0.000    0.000    0.000    0.000    0.000 
#    0.000    0.000    0.000    0.000    0.000    0.000 
#
# Total GULP energy -179514.544263 kJ/mol
# GULP energy per Si atom -5609.829508 kJ/mol
# Density = 2.339549 g / cm^3
# Si number density = 23.448859 Si / 1000 Ang^3
#
#
#
# Elastic Constant Matrix: (Units=GPa)
#
#
# Indices 1 2 3 4 5 6 
#
# 1 92.9587 24.5006 35.0628 0.0000 0.0000 0.0000
# 2 24.5006 68.5761 35.6125 0.0000 0.0000 0.0000
# 3 35.0628 35.6125 143.4688 0.0000 0.0000 0.0000
# 4 0.0000 0.0000 0.0000 28.7704 0.0000 0.0000
# 5 0.0000 0.0000 0.0000 0.0000 49.1143 0.0000
# 6 0.0000 0.0000 0.0000 0.0000 0.0000 41.4503
#
#
#
# Elastic Compliance Matrix: (Units=1/GPa)
#
#
# Indices 1 2 3 4 5 6 
#
# 1 0.012467 -0.003297 -0.002228 0.000000 0.000000 0.000000
# 2 -0.003297 0.017612 -0.003566 0.000000 0.000000 0.000000
# 3 -0.002228 -0.003566 0.008400 0.000000 0.000000 0.000000
# 4 0.000000 0.000000 0.000000 0.034758 0.000000 0.000000
# 5 0.000000 0.000000 0.000000 0.000000 0.020361 0.000000
# 6 0.000000 0.000000 0.000000 0.000000 0.000000 0.024125
#
#
# Mechanical properties :
#
#
# Convention : Reuss Voigt Hill
#
# Bulk Modulus (GPa) = 49.27006 55.03946 52.15476
# Shear Modulus (GPa) = 35.04565 37.85553 36.45059
#
# Velocity S-wave (km/s) = 3.87014 4.02230 3.94696
# Velocity P-wave (km/s) = 6.40531 6.71528 6.56213
#
# Compressibility (1/GPa) = 0.02029630
#
# Stress axis : x y z
#
# Youngs Moduli (GPa) = 80.21205 56.77907 119.04827
#
# Poissons Ratio (x) = 0.18719 0.26530
# Poissons Ratio (y) = 0.26445 0.42453
# Poissons Ratio (z) = 0.17875 0.20248
#
# Static dielectric constant tensor:
#      x y z
#    x 1.881160 0.000000 0.000000 
#    y 0.000000 1.872320 0.000000 
#    z 0.000000 0.000000 1.860250 
# 
# From -- ./inp_files/4682.got.cif
#   From: 2010.05.17/outbox.cif.g08.bks.cpg/sg19_3_cif.got.tgz:4682.got - 2010.06.03 22:46:19.
