data_PCOD9316647
_publ_section_title
;
Structure prediction by ZEFSAII (Michael W. Deem and Ramdas Pophale) SiO2 
 PCOD9316647
Probable space group: C 2 2 21
;
_chemical_formula_sum "Si O2"
_cell_formula_units_Z 36
_cell_length_a 17.923278
_cell_length_b 9.193299
_cell_length_c 9.261258
_cell_angle_alpha 90.000000
_cell_angle_beta 90.000000
_cell_angle_gamma 90.000000
_cell_volume 1526.015023
_symmetry_space_group_name_H-M "C 2 2 21"
_symmetry_group_IT_number 20
_symmetry_cell_setting 'orthorhombic'
loop_
_space_group_symop_operation_xyz
x,y,z
-x,-y,1/2+z
x,-y,-z
-x,y,1/2-z
1/2+x,1/2+y,z
1/2-x,1/2-y,1/2+z
1/2+x,1/2-y,-z
1/2-x,1/2+y,1/2-z
loop_
_atom_site_type_symbol
_atom_site_label
_atom_site_fract_x
_atom_site_fract_y
_atom_site_fract_z
Si Si1 0.777608 0.932781 0.154507
Si Si2 0.100434 0.434355 0.162040
Si Si3 0.080770 0.829379 0.996248
Si Si4 0.240035 0.127113 0.092555
Si Si5 0.500000 0.161252 0.250000
O O1 0.688598 0.934162 0.181325
O O2 0.791242 0.759480 0.145742
O O3 0.803201 0.045055 0.276904
O O4 0.796173 0.000000 0.000000
O O5 0.068757 0.271675 0.144823
O O6 0.064959 0.542303 0.277866
O O7 0.087354 0.500000 0.000000
O O8 0.172021 0.813000 0.009267
O O9 0.032237 0.760874 0.124176
O O10 0.065252 0.000000 0.000000
O O11 0.277841 0.000000 0.000000
#
# Coordination Sequence:
#
# PCOD9316647 Si02
#       5
#     8   8   8   8   4
#     4  10  19  34  58  87 121 165 208 251 309 372
#     4   8  17  33  54  80 112 154 202 246 297 363
#     4   9  19  35  58  88 118 155 203 261 311 356
#     4  10  20  36  60  90 127 165 204 254 308 367
#     4  10  18  34  60  84 120 166 206 252 312 370
#
# _framework density 23.590855999999999
#
# number of rings (size 3 to 8) (size 9 to 14) (size 15 to 20)
#    0.000    2.667    0.000    2.667    0.000    4.444 
#    0.000    3.333    0.000   44.000    0.000    0.000 
#    0.000    0.000    0.000    0.000    0.000    0.000 
#
# Total GULP energy -100211.787435 kJ/mol
# GULP energy per Si atom -5567.321524 kJ/mol
# Density = 2.353716 g / cm^3
# Si number density = 23.590856 Si / 1000 Ang^3
#
#
#
# Elastic Constant Matrix: (Units=GPa)
#
#
# Indices 1 2 3 4 5 6 
#
# 1 43.3784 23.0073 8.2707 0.0000 0.0000 0.0000
# 2 23.0073 196.6828 38.5689 0.0000 0.0000 0.0000
# 3 8.2707 38.5689 80.9090 0.0000 0.0000 0.0000
# 4 0.0000 0.0000 0.0000 35.9797 0.0000 0.0000
# 5 0.0000 0.0000 0.0000 0.0000 35.2448 0.0000
# 6 0.0000 0.0000 0.0000 0.0000 0.0000 28.9009
#
#
#
# Elastic Compliance Matrix: (Units=1/GPa)
#
#
# Indices 1 2 3 4 5 6 
#
# 1 0.024695 -0.002641 -0.001266 0.000000 0.000000 0.000000
# 2 -0.002641 0.005891 -0.002538 0.000000 0.000000 0.000000
# 3 -0.001266 -0.002538 0.013699 0.000000 0.000000 0.000000
# 4 0.000000 0.000000 0.000000 0.027793 0.000000 0.000000
# 5 0.000000 0.000000 0.000000 0.000000 0.028373 0.000000
# 6 0.000000 0.000000 0.000000 0.000000 0.000000 0.034601
#
#
# Mechanical properties :
#
#
# Convention : Reuss Voigt Hill
#
# Bulk Modulus (GPa) = 31.85142 51.18490 41.51816
# Shear Modulus (GPa) = 31.56444 36.76664 34.16554
#
# Velocity S-wave (km/s) = 3.66183 3.95208 3.80972
# Velocity P-wave (km/s) = 5.60442 6.52452 6.08189
#
# Compressibility (1/GPa) = 0.03139577
#
# Stress axis : x y z
#
# Youngs Moduli (GPa) = 40.49441 169.75170 72.99849
#
# Poissons Ratio (x) = 0.44823 0.09239
# Poissons Ratio (y) = 0.10693 0.18529
# Poissons Ratio (z) = 0.05125 0.43087
#
# Static dielectric constant tensor:
#      x y z
#    x 1.929490 0.000000 0.000000 
#    y 0.000000 2.028860 0.000000 
#    z 0.000000 0.000000 2.007650 
# 
# From -- ./inp_files/5890.got.cif
#   From: 2010.05.17/outbox.cif.g08.bks.cpg/sg20_3_cif.got.tgz:5890.got - 2010.06.03 22:52:26.
