data_PCOD9316577
_publ_section_title
;
Structure prediction by ZEFSAII (Michael W. Deem and Ramdas Pophale) SiO2 
 PCOD9316577
Probable space group: C 2 2 21
;
_chemical_formula_sum "Si O2"
_cell_formula_units_Z 64
_cell_length_a 13.580898
_cell_length_b 13.896613
_cell_length_c 17.571171
_cell_angle_alpha 90.000000
_cell_angle_beta 90.000000
_cell_angle_gamma 90.000000
_cell_volume 3316.180460
_symmetry_space_group_name_H-M "C 2 2 21"
_symmetry_group_IT_number 20
_symmetry_cell_setting 'orthorhombic'
loop_
_space_group_symop_operation_xyz
x,y,z
-x,-y,1/2+z
x,-y,-z
-x,y,1/2-z
1/2+x,1/2+y,z
1/2-x,1/2-y,1/2+z
1/2+x,1/2-y,-z
1/2-x,1/2+y,1/2-z
loop_
_atom_site_type_symbol
_atom_site_label
_atom_site_fract_x
_atom_site_fract_y
_atom_site_fract_z
Si Si1 0.143164 0.108227 0.469019
Si Si2 0.791340 0.568234 0.337007
Si Si3 0.091479 0.574950 0.928606
Si Si4 0.992186 0.308907 0.666257
Si Si5 0.454116 0.279711 0.491497
Si Si6 0.699566 0.086332 0.335769
Si Si7 0.624571 0.069694 0.572726
Si Si8 0.243085 0.711407 0.478626
O O1 0.203404 0.103661 0.390433
O O2 0.212938 0.176638 0.521467
O O3 0.034326 0.154580 0.466678
O O4 0.137066 0.000000 0.500000
O O5 0.829309 0.464088 0.367820
O O6 0.888991 0.635223 0.344137
O O7 0.761740 0.578168 0.249234
O O8 0.078436 0.681256 0.964754
O O9 0.983026 0.568564 0.891143
O O10 0.101489 0.500000 0.000000
O O11 0.998905 0.244115 0.591240
O O12 0.000000 0.261134 0.750000
O O13 0.084741 0.381128 0.666797
O O14 0.659271 0.167503 0.534260
O O15 0.345129 0.322345 0.483537
O O16 0.743247 0.163223 0.395296
O O17 0.701664 0.980762 0.372497
O O18 0.616308 0.000000 0.500000
#
# Coordination Sequence:
#
# PCOD9316577 Si02
#       8
#     8   8   8   8   8   8   8   8
#     4  12  25  41  59  92 130 171 226 261 310 394
#     4  11  21  36  63  95 130 157 202 279 334 378
#     4  11  17  33  63  92 118 151 206 268 320 371
#     4  10  18  32  60  95 120 150 203 273 322 370
#     4  12  22  39  64  90 126 179 221 254 322 395
#     4  10  20  37  61  94 128 154 205 276 346 381
#     4   9  17  32  59  90 115 142 202 266 316 380
#     4  11  21  39  64  89 121 176 215 264 322 390
#
# _framework density 19.299313000000001
#
# number of rings (size 3 to 8) (size 9 to 14) (size 15 to 20)
#    0.000    1.250    6.250    1.875    0.000    1.500 
#    0.000    4.375    2.750    0.000    0.000    0.000 
#    0.000    0.000    0.000    0.000    0.000    0.000 
#
# Total GULP energy -178179.300291 kJ/mol
# GULP energy per Si atom -5568.103134 kJ/mol
# Density = 1.925539 g / cm^3
# Si number density = 19.299313 Si / 1000 Ang^3
#
#
#
# Elastic Constant Matrix: (Units=GPa)
#
#
# Indices 1 2 3 4 5 6 
#
# 1 69.4613 21.4319 9.8179 0.0000 0.0000 0.0000
# 2 21.4319 78.7237 41.4039 0.0000 0.0000 0.0000
# 3 9.8179 41.4039 110.5133 0.0000 0.0000 0.0000
# 4 0.0000 0.0000 0.0000 13.6332 0.0000 0.0000
# 5 0.0000 0.0000 0.0000 0.0000 20.3931 0.0000
# 6 0.0000 0.0000 0.0000 0.0000 0.0000 13.3201
#
#
#
# Elastic Compliance Matrix: (Units=1/GPa)
#
#
# Indices 1 2 3 4 5 6 
#
# 1 0.015723 -0.004416 0.000258 0.000000 0.000000 0.000000
# 2 -0.004416 0.017060 -0.005999 0.000000 0.000000 0.000000
# 3 0.000258 -0.005999 0.011273 0.000000 0.000000 0.000000
# 4 0.000000 0.000000 0.000000 0.073350 0.000000 0.000000
# 5 0.000000 0.000000 0.000000 0.000000 0.049036 0.000000
# 6 0.000000 0.000000 0.000000 0.000000 0.000000 0.075075
#
#
# Mechanical properties :
#
#
# Convention : Reuss Voigt Hill
#
# Bulk Modulus (GPa) = 42.12106 44.88953 43.50529
# Shear Modulus (GPa) = 18.53594 21.87223 20.20409
#
# Velocity S-wave (km/s) = 3.10247 3.37013 3.23906
# Velocity P-wave (km/s) = 5.89120 6.20112 6.04815
#
# Compressibility (1/GPa) = 0.02374110
#
# Stress axis : x y z
#
# Youngs Moduli (GPa) = 63.60283 58.61630 88.70408
#
# Poissons Ratio (x) = 0.25884 -0.02285
# Poissons Ratio (y) = 0.28086 0.53216
# Poissons Ratio (z) = -0.01639 0.35166
#
# Static dielectric constant tensor:
#      x y z
#    x 1.770860 0.000000 0.000000 
#    y 0.000000 1.764580 0.000000 
#    z 0.000000 0.000000 1.717600 
# 
# From -- ./inp_files/25047.got.cif
#   From: 2010.05.17/outbox.cif.g08.bks.cpg/sg20_13_cif.got.tgz:25047.got - 2010.06.03 22:52:26.
