data_PCOD9316186
_publ_section_title
;
Structure prediction by ZEFSAII (Michael W. Deem and Ramdas Pophale) SiO2 
 PCOD9316186
Probable space group: C 2 2 21
;
_chemical_formula_sum "Si O2"
_cell_formula_units_Z 48
_cell_length_a 17.416411
_cell_length_b 8.203600
_cell_length_c 17.809248
_cell_angle_alpha 90.000000
_cell_angle_beta 90.000000
_cell_angle_gamma 90.000000
_cell_volume 2544.536722
_symmetry_space_group_name_H-M "C 2 2 21"
_symmetry_group_IT_number 20
_symmetry_cell_setting 'orthorhombic'
loop_
_space_group_symop_operation_xyz
x,y,z
-x,-y,1/2+z
x,-y,-z
-x,y,1/2-z
1/2+x,1/2+y,z
1/2-x,1/2-y,1/2+z
1/2+x,1/2-y,-z
1/2-x,1/2+y,1/2-z
loop_
_atom_site_type_symbol
_atom_site_label
_atom_site_fract_x
_atom_site_fract_y
_atom_site_fract_z
Si Si1 0.618676 0.539824 0.321106
Si Si2 0.500000 0.239378 0.750000
Si Si3 0.962093 0.254804 0.883443
Si Si4 0.370921 0.656826 0.664895
Si Si5 0.292139 0.843158 0.125065
Si Si6 0.114196 0.528669 0.255325
Si Si7 0.400798 0.000000 0.000000
O O1 0.542354 0.651344 0.311509
O O2 0.600100 0.389494 0.375521
O O3 0.629525 0.464747 0.237055
O O4 0.683857 0.659189 0.352215
O O5 0.433349 0.120338 0.720128
O O6 0.941623 0.374656 0.813571
O O7 0.951064 0.366540 0.955863
O O8 0.045217 0.173141 0.871990
O O9 0.297765 0.626681 0.612648
O O10 0.357774 0.837145 0.698413
O O11 0.317614 0.951436 0.196664
O O12 0.346021 0.905632 0.058307
#
# Coordination Sequence:
#
# PCOD9316186 Si02
#       7
#     8   4   8   8   8   8   4
#     4  10  19  33  60  92 112 143 184 250 300 341
#     4  10  14  28  52  90 116 136 174 222 296 352
#     4  10  19  37  60  78 115 151 200 231 273 355
#     4  11  18  35  59  93 113 139 189 259 293 329
#     4  10  22  35  58  81 124 150 188 230 296 351
#     4   9  17  31  56  85 118 147 174 234 304 351
#     4  10  24  44  54  74 114 180 196 214 284 362
#
# _framework density 18.863945000000001
#
# number of rings (size 3 to 8) (size 9 to 14) (size 15 to 20)
#    0.000    2.000    3.333    2.000    0.000    0.667 
#    0.000    3.333    0.000    0.000    0.000    0.000 
#    0.000    0.000    0.000    0.000    0.000    0.000 
#
# Total GULP energy -133736.340394 kJ/mol
# GULP energy per Si atom -5572.347516 kJ/mol
# Density = 1.882101 g / cm^3
# Si number density = 18.863945 Si / 1000 Ang^3
#
#
#
# Elastic Constant Matrix: (Units=GPa)
#
#
# Indices 1 2 3 4 5 6 
#
# 1 104.0234 18.3911 17.1257 0.0000 0.0000 0.0000
# 2 18.3911 89.1254 14.6588 0.0000 0.0000 0.0000
# 3 17.1257 14.6588 35.5513 0.0000 0.0000 0.0000
# 4 0.0000 0.0000 0.0000 20.2879 0.0000 0.0000
# 5 0.0000 0.0000 0.0000 0.0000 11.5535 0.0000
# 6 0.0000 0.0000 0.0000 0.0000 0.0000 11.0754
#
#
#
# Elastic Compliance Matrix: (Units=1/GPa)
#
#
# Indices 1 2 3 4 5 6 
#
# 1 0.010612 -0.001447 -0.004515 0.000000 0.000000 0.000000
# 2 -0.001447 0.012234 -0.004347 0.000000 0.000000 0.000000
# 3 -0.004515 -0.004347 0.032096 0.000000 0.000000 0.000000
# 4 0.000000 0.000000 0.000000 0.049291 0.000000 0.000000
# 5 0.000000 0.000000 0.000000 0.000000 0.086554 0.000000
# 6 0.000000 0.000000 0.000000 0.000000 0.000000 0.090290
#
#
# Mechanical properties :
#
#
# Convention : Reuss Voigt Hill
#
# Bulk Modulus (GPa) = 29.13542 36.56128 32.84835
# Shear Modulus (GPa) = 15.96743 20.48499 18.22621
#
# Velocity S-wave (km/s) = 2.91254 3.29893 3.11174
# Velocity P-wave (km/s) = 5.17582 5.82531 5.51014
#
# Compressibility (1/GPa) = 0.03432248
#
# Stress axis : x y z
#
# Youngs Moduli (GPa) = 94.22864 81.74092 31.15653
#
# Poissons Ratio (x) = 0.11830 0.14069
# Poissons Ratio (y) = 0.13637 0.13544
# Poissons Ratio (z) = 0.42549 0.35534
#
# Static dielectric constant tensor:
#      x y z
#    x 1.684980 0.000000 0.000000 
#    y 0.000000 1.685440 0.000000 
#    z 0.000000 0.000000 1.646300 
# 
# From -- ./inp_files/26609.got.cif
#   From: 2010.05.17/outbox.cif.g08.bks.cpg/sg20_14_cif.got.tgz:26609.got - 2010.06.03 22:52:26.
