data_PCOD9316394
_publ_section_title
;
Structure prediction by ZEFSAII (Michael W. Deem and Ramdas Pophale) SiO2 
 PCOD9316394
Probable space group: C 2 2 21
;
_chemical_formula_sum "Si O2"
_cell_formula_units_Z 48
_cell_length_a 8.399462
_cell_length_b 16.191402
_cell_length_c 18.880772
_cell_angle_alpha 90.000000
_cell_angle_beta 90.000000
_cell_angle_gamma 90.000000
_cell_volume 2567.767354
_symmetry_space_group_name_H-M "C 2 2 21"
_symmetry_group_IT_number 20
_symmetry_cell_setting 'orthorhombic'
loop_
_space_group_symop_operation_xyz
x,y,z
-x,-y,1/2+z
x,-y,-z
-x,y,1/2-z
1/2+x,1/2+y,z
1/2-x,1/2-y,1/2+z
1/2+x,1/2-y,-z
1/2-x,1/2+y,1/2-z
loop_
_atom_site_type_symbol
_atom_site_label
_atom_site_fract_x
_atom_site_fract_y
_atom_site_fract_z
Si Si1 0.405229 0.506810 0.422391
Si Si2 0.438679 0.173816 0.173265
Si Si3 0.451225 0.075892 0.040350
Si Si4 0.603823 0.242309 0.544221
Si Si5 0.057961 0.160143 0.169182
Si Si6 0.446900 0.318106 0.414285
O O1 0.484537 0.500000 0.500000
O O2 0.227793 0.543253 0.439297
O O3 0.478923 0.571282 0.367268
O O4 0.404961 0.412359 0.396883
O O5 0.500000 0.152143 0.250000
O O6 0.512028 0.112189 0.114332
O O7 0.248376 0.169456 0.169731
O O8 0.487125 0.266107 0.150983
O O9 0.446436 0.153242 0.987151
O O10 0.532033 0.000000 0.000000
O O11 0.516436 0.272911 0.615084
O O12 0.566744 0.306435 0.480739
O O13 0.788380 0.228743 0.559843
O O14 0.000000 0.166387 0.250000
#
# Coordination Sequence:
#
# PCOD9316394 Si02
#       6
#     8   8   8   8   8   8
#     4  10  17  37  61  89 114 158 194 243 292 356
#     4  10  22  39  61  85 121 157 199 246 306 354
#     4   9  17  34  62  87 111 154 195 239 295 347
#     4  11  19  34  61  91 114 154 197 239 290 351
#     4  11  23  39  62  84 121 159 202 244 306 357
#     4  11  20  34  66  87 120 151 198 240 292 356
#
# _framework density 18.693280999999999
#
# number of rings (size 3 to 8) (size 9 to 14) (size 15 to 20)
#    0.000    1.667    5.000    3.000    0.000    0.667 
#    0.000    0.833   36.667    0.000    0.000    0.000 
#    0.000    0.000    0.000    0.000    0.000    0.000 
#
# Total GULP energy -133739.652103 kJ/mol
# GULP energy per Si atom -5572.485504 kJ/mol
# Density = 1.865073 g / cm^3
# Si number density = 18.693281 Si / 1000 Ang^3
#
#
#
# Elastic Constant Matrix: (Units=GPa)
#
#
# Indices 1 2 3 4 5 6 
#
# 1 42.2323 32.9809 16.2697 0.0000 0.0000 0.0000
# 2 32.9809 150.5471 71.8432 0.0000 0.0000 0.0000
# 3 16.2697 71.8432 134.6012 0.0000 0.0000 0.0000
# 4 0.0000 0.0000 0.0000 26.1216 0.0000 0.0000
# 5 0.0000 0.0000 0.0000 0.0000 26.8471 0.0000
# 6 0.0000 0.0000 0.0000 0.0000 0.0000 17.5683
#
#
#
# Elastic Compliance Matrix: (Units=1/GPa)
#
#
# Indices 1 2 3 4 5 6 
#
# 1 0.028568 -0.006186 -0.000151 0.000000 0.000000 0.000000
# 2 -0.006186 0.010252 -0.004724 0.000000 0.000000 0.000000
# 3 -0.000151 -0.004724 0.009969 0.000000 0.000000 0.000000
# 4 0.000000 0.000000 0.000000 0.038283 0.000000 0.000000
# 5 0.000000 0.000000 0.000000 0.000000 0.037248 0.000000
# 6 0.000000 0.000000 0.000000 0.000000 0.000000 0.056921
#
#
# Mechanical properties :
#
#
# Convention : Reuss Voigt Hill
#
# Bulk Modulus (GPa) = 37.50133 63.28534 50.39334
# Shear Modulus (GPa) = 23.55682 27.85986 25.70834
#
# Velocity S-wave (km/s) = 3.55375 3.86472 3.71249
# Velocity P-wave (km/s) = 6.07814 7.33777 6.73745
#
# Compressibility (1/GPa) = 0.02666572
#
# Stress axis : x y z
#
# Youngs Moduli (GPa) = 35.00429 97.53982 100.30857
#
# Poissons Ratio (x) = 0.60341 0.01516
# Poissons Ratio (y) = 0.21655 0.47389
# Poissons Ratio (z) = 0.00529 0.46081
#
# Static dielectric constant tensor:
#      x y z
#    x -0.745620 0.000000 0.000000 
#    y 0.000000 1.679810 0.000000 
#    z 0.000000 0.000000 1.672290 
# 
# From -- ./inp_files/26583.got.cif
#   From: 2010.05.17/outbox.cif.g08.bks.cpg/sg20_14_cif.got.tgz:26583.got - 2010.06.03 22:52:26.
