data_PCOD9316139
_publ_section_title
;
Structure prediction by ZEFSAII (Michael W. Deem and Ramdas Pophale) SiO2 
 PCOD9316139
Probable space group: P 21 21 21
;
_chemical_formula_sum "Si O2"
_cell_formula_units_Z 32
_cell_length_a 9.000000
_cell_length_b 12.000000
_cell_length_c 15.000000
_cell_angle_alpha 90.000000
_cell_angle_beta 90.000000
_cell_angle_gamma 90.000000
_cell_volume 1620.000000
_symmetry_space_group_name_H-M "P 21 21 21"
_symmetry_group_IT_number 19
_symmetry_cell_setting 'orthorhombic'
loop_
_space_group_symop_operation_xyz
x,y,z
1/2-x,-y,1/2+z
1/2+x,1/2-y,-z
-x,1/2+y,1/2-z
loop_
_atom_site_type_symbol
_atom_site_label
_atom_site_fract_x
_atom_site_fract_y
_atom_site_fract_z
Si Si1 0.283836 0.318008 0.088626
Si Si2 0.661854 0.549072 0.625364
Si Si3 0.089514 0.744114 0.924601
Si Si4 0.427103 0.633615 0.754612
Si Si5 0.081368 0.191830 0.406167
Si Si6 0.644333 0.970437 0.184068
Si Si7 0.505430 0.011214 0.374412
Si Si8 0.975205 0.856461 0.540616
O O1 0.185917 0.319384 0.178767
O O2 0.369035 0.436622 0.076878
O O3 0.415894 0.228844 0.090643
O O4 0.164201 0.300117 0.010252
O O5 0.583256 0.613298 0.705971
O O6 0.603960 0.424346 0.641705
O O7 0.840056 0.542862 0.618160
O O8 0.581346 0.589494 0.535068
O O9 0.258059 0.776898 0.944099
O O10 0.095453 0.654696 0.844891
O O11 0.005865 0.860344 0.904969
O O12 0.027076 0.685229 0.011493
O O13 0.459504 0.715653 0.835209
O O14 0.321868 0.535289 0.795373
O O15 0.557135 0.006019 0.272215
O O16 0.595679 0.053072 0.106096
#
# Coordination Sequence:
#
# PCOD9316139 Si02
#       8
#     4   4   4   4   4   4   4   4
#     4  10  23  41  62  88 125 163 205 256 305 365
#     4  10  21  42  58  92 121 161 201 255 307 361
#     4  10  22  38  63  89 122 158 205 250 306 358
#     4   9  22  41  60  87 124 162 203 250 305 363
#     4  10  21  39  61  89 121 158 202 254 299 365
#     4  10  22  39  62  89 118 166 198 252 308 364
#     4  10  23  39  62  91 126 157 205 252 306 369
#     4  11  22  41  64  87 123 163 207 253 306 373
#
# _framework density 19.753086
#
# number of rings (size 3 to 8) (size 9 to 14) (size 15 to 20)
#    0.000    2.000    1.250    0.750   10.500    2.000 
#    6.750    0.000    0.000    0.000    0.000    0.000 
#    0.000    0.000    0.000    0.000    0.000    0.000 
#
# Total GULP energy -178436.797944 kJ/mol
# GULP energy per Si atom -5576.149936 kJ/mol
# Density = 1.970813 g / cm^3
# Si number density = 19.753086 Si / 1000 Ang^3
#
#
#
# Elastic Constant Matrix: (Units=GPa)
#
#
# Indices 1 2 3 4 5 6 
#
# 1 21.2758 5.7668 6.4949 0.0000 0.0000 0.0000
# 2 5.7668 14.3928 -11.9434 0.0000 0.0000 0.0000
# 3 6.4949 -11.9434 29.5814 0.0000 0.0000 0.0000
# 4 0.0000 0.0000 0.0000 32.0866 0.0000 0.0000
# 5 0.0000 0.0000 0.0000 0.0000 21.6006 0.0000
# 6 0.0000 0.0000 0.0000 0.0000 0.0000 26.8816
#
#
#
# Elastic Compliance Matrix: (Units=1/GPa)
#
#
# Indices 1 2 3 4 5 6 
#
# 1 0.080024 -0.070145 -0.045891 0.000000 0.000000 0.000000
# 2 -0.070145 0.165973 0.082412 0.000000 0.000000 0.000000
# 3 -0.045891 0.082412 0.077155 0.000000 0.000000 0.000000
# 4 0.000000 0.000000 0.000000 0.031166 0.000000 0.000000
# 5 0.000000 0.000000 0.000000 0.000000 0.046295 0.000000
# 6 0.000000 0.000000 0.000000 0.000000 0.000000 0.037200
#
#
# Mechanical properties :
#
#
# Convention : Reuss Voigt Hill
#
# Bulk Modulus (GPa) = 3.90773 7.32073 5.61423
# Shear Modulus (GPa) = 8.46938 20.44254 14.45596
#
# Velocity S-wave (km/s) = 2.07290 3.22048 2.70818
# Velocity P-wave (km/s) = 2.77702 4.18842 3.55350
#
# Compressibility (1/GPa) = 0.25590288
#
# Stress axis : x y z
#
# Youngs Moduli (GPa) = 12.49621 6.02509 12.96097
#
# Poissons Ratio (x) = 0.42263 0.59480
# Poissons Ratio (y) = 0.87655 -1.06814
# Poissons Ratio (z) = 0.57347 -0.49654
#
# Static dielectric constant tensor:
#      x y z
#    x 1.646230 0.000000 0.000000 
#    y 0.000000 1.745790 0.000000 
#    z 0.000000 0.000000 1.679980 
# 
# From -- ./inp_files/3933.got.cif
#   From: 2010.05.17/outbox.ucp.g08.bks.cvg/sg19_2_cif.got.tgz:3933.got - 2010.06.11 13:13:52.
