data_PCOD9316688
_publ_section_title
;
Structure prediction by ZEFSAII (Michael W. Deem and Ramdas Pophale) SiO2 
 PCOD9316688
Probable space group: C 2 2 21
;
_chemical_formula_sum "Si O2"
_cell_formula_units_Z 52
_cell_length_a 12.096207
_cell_length_b 6.560321
_cell_length_c 24.467879
_cell_angle_alpha 90.000000
_cell_angle_beta 90.000000
_cell_angle_gamma 90.000000
_cell_volume 1941.648558
_symmetry_space_group_name_H-M "C 2 2 21"
_symmetry_group_IT_number 20
_symmetry_cell_setting 'orthorhombic'
loop_
_space_group_symop_operation_xyz
x,y,z
-x,-y,1/2+z
x,-y,-z
-x,y,1/2-z
1/2+x,1/2+y,z
1/2-x,1/2-y,1/2+z
1/2+x,1/2-y,-z
1/2-x,1/2+y,1/2-z
loop_
_atom_site_type_symbol
_atom_site_label
_atom_site_fract_x
_atom_site_fract_y
_atom_site_fract_z
Si Si1 0.010450 0.247789 0.310721
Si Si2 0.694499 0.572952 0.817529
Si Si3 0.309062 0.423453 0.195835
Si Si4 0.962299 0.879673 0.450857
Si Si5 0.002002 0.330606 0.654610
Si Si6 0.321782 0.000000 0.500000
Si Si7 0.781191 0.202252 0.404860
O O1 0.125933 0.131163 0.315833
O O2 0.003186 0.429457 0.352769
O O3 0.000000 0.337691 0.250000
O O4 0.910864 0.086432 0.314318
O O5 0.741396 0.570710 0.756418
O O6 0.623670 0.771607 0.830431
O O7 0.766820 0.491780 0.868318
O O8 0.410333 0.258242 0.197871
O O9 0.233169 0.357289 0.146075
O O10 0.896668 0.673701 0.469326
O O11 0.032050 0.795584 0.400205
O O12 0.021205 0.000000 0.500000
O O13 0.881705 0.062161 0.429376
O O14 0.258927 0.854441 0.456087
#
# Coordination Sequence:
#
# PCOD9316688 Si02
#       7
#     8   8   8   8   8   4   8
#     4   9  17  32  56  82 116 158 197 242 305 373
#     4   9  19  37  56  85 123 160 207 254 310 392
#     4  10  21  36  54  89 130 159 199 264 323 391
#     4   9  20  38  64  86 112 156 218 265 308 381
#     4  10  18  35  60  84 115 161 205 258 318 378
#     4  10  20  40  64  82 118 166 220 270 326 374
#     4  10  21  39  58  88 122 167 207 267 323 384
#
# _framework density 26.781366999999999
#
# number of rings (size 3 to 8) (size 9 to 14) (size 15 to 20)
#    0.000    2.462    0.000    3.231    0.000    2.462 
#   15.231    0.000    5.077    0.000    0.000    0.000 
#    0.000    0.000    0.000    0.000    0.000    0.000 
#
# Total GULP energy -144898.738718 kJ/mol
# GULP energy per Si atom -5573.028412 kJ/mol
# Density = 2.672041 g / cm^3
# Si number density = 26.781367 Si / 1000 Ang^3
#
#
#
# Elastic Constant Matrix: (Units=GPa)
#
#
# Indices 1 2 3 4 5 6 
#
# 1 90.6370 48.9049 29.5764 0.0000 0.0000 0.0000
# 2 48.9049 181.7876 35.0598 0.0000 0.0000 0.0000
# 3 29.5764 35.0598 122.1773 0.0000 0.0000 0.0000
# 4 0.0000 0.0000 0.0000 58.4728 0.0000 0.0000
# 5 0.0000 0.0000 0.0000 0.0000 33.4038 0.0000
# 6 0.0000 0.0000 0.0000 0.0000 0.0000 39.3674
#
#
#
# Elastic Compliance Matrix: (Units=1/GPa)
#
#
# Indices 1 2 3 4 5 6 
#
# 1 0.013520 -0.003182 -0.002360 0.000000 0.000000 0.000000
# 2 -0.003182 0.006572 -0.001116 0.000000 0.000000 0.000000
# 3 -0.002360 -0.001116 0.009076 0.000000 0.000000 0.000000
# 4 0.000000 0.000000 0.000000 0.017102 0.000000 0.000000
# 5 0.000000 0.000000 0.000000 0.000000 0.029937 0.000000
# 6 0.000000 0.000000 0.000000 0.000000 0.000000 0.025402
#
#
# Mechanical properties :
#
#
# Convention : Reuss Voigt Hill
#
# Bulk Modulus (GPa) = 63.07787 69.07601 66.07694
# Shear Modulus (GPa) = 41.59451 44.98619 43.29035
#
# Velocity S-wave (km/s) = 3.94523 4.10293 4.02485
# Velocity P-wave (km/s) = 6.66012 6.94938 6.80629
#
# Compressibility (1/GPa) = 0.01585342
#
# Stress axis : x y z
#
# Youngs Moduli (GPa) = 73.96452 152.15769 110.17816
#
# Poissons Ratio (x) = 0.48418 0.26000
# Poissons Ratio (y) = 0.23536 0.12292
# Poissons Ratio (z) = 0.17454 0.16975
#
# Static dielectric constant tensor:
#      x y z
#    x 2.195870 0.000000 0.000000 
#    y 0.000000 2.179410 0.000000 
#    z 0.000000 0.000000 2.177010 
# 
# From -- ./inp_files/30482.got.cif
#   From: 2010.05.17/outbox.cif.g08.bks.cpg/sg20_16_cif.got.tgz:30482.got - 2010.06.03 22:52:26.
