data_PCOD9316423
_publ_section_title
;
Structure prediction by ZEFSAII (Michael W. Deem and Ramdas Pophale) SiO2 
 PCOD9316423
Probable space group: C 2 2 21
;
_chemical_formula_sum "Si O2"
_cell_formula_units_Z 44
_cell_length_a 17.101317
_cell_length_b 33.166238
_cell_length_c 5.207161
_cell_angle_alpha 90.000000
_cell_angle_beta 90.000000
_cell_angle_gamma 90.000000
_cell_volume 2953.430640
_symmetry_space_group_name_H-M "C 2 2 21"
_symmetry_group_IT_number 20
_symmetry_cell_setting 'orthorhombic'
loop_
_space_group_symop_operation_xyz
x,y,z
-x,-y,1/2+z
x,-y,-z
-x,y,1/2-z
1/2+x,1/2+y,z
1/2-x,1/2-y,1/2+z
1/2+x,1/2-y,-z
1/2-x,1/2+y,1/2-z
loop_
_atom_site_type_symbol
_atom_site_label
_atom_site_fract_x
_atom_site_fract_y
_atom_site_fract_z
Si Si1 0.427032 0.218995 0.115587
Si Si2 0.206595 0.765354 0.646159
Si Si3 0.500000 0.154039 0.750000
Si Si4 0.662507 0.113142 0.773511
Si Si5 0.209682 0.340007 0.744807
Si Si6 0.907747 0.527461 0.750556
O O1 0.500000 0.241127 0.250000
O O2 0.360187 0.193888 0.270436
O O3 0.377958 0.247520 0.924919
O O4 0.471338 0.183346 0.970851
O O5 0.254678 0.760236 0.378158
O O6 0.214463 0.811330 0.740619
O O7 0.574034 0.128014 0.825342
O O8 0.694297 0.136180 0.520218
O O9 0.650475 0.065485 0.743075
O O10 0.708526 0.128895 0.021297
O O11 0.895746 0.500000 0.500000
O O12 0.000000 0.540268 0.750000
O O13 0.896728 0.500000 0.000000
#
# Coordination Sequence:
#
# PCOD9316423 Si02
#       6
#     8   8   4   8   8   8
#     4  10  19  29  45  63  89 111 156 197 235 263
#     4  10  20  33  45  60  89 119 146 194 244 276
#     4  10  18  28  40  66  82 110 152 192 226 254
#     4  11  19  31  47  61  86 110 152 188 227 266
#     4  10  20  31  44  64  83 116 151 190 232 266
#     4  10  20  32  44  63  87 112 139 182 241 280
#
# _framework density 14.897929
#
# number of rings (size 3 to 8) (size 9 to 14) (size 15 to 20)
#    0.000    1.818    2.727    4.364    2.545    0.000 
#    0.000    0.000    0.000    0.000    0.000    0.000 
#    0.000    0.000    0.000    0.000    0.000    5.455 
#
# Total GULP energy -122490.182606 kJ/mol
# GULP energy per Si atom -5567.735573 kJ/mol
# Density = 1.486402 g / cm^3
# Si number density = 14.897929 Si / 1000 Ang^3
#
#
#
# Elastic Constant Matrix: (Units=GPa)
#
#
# Indices 1 2 3 4 5 6 
#
# 1 24.6441 20.6019 20.7874 0.0000 0.0000 0.0000
# 2 20.6019 95.3950 38.1834 0.0000 0.0000 0.0000
# 3 20.7874 38.1834 91.8050 0.0000 0.0000 0.0000
# 4 0.0000 0.0000 0.0000 16.8486 0.0000 0.0000
# 5 0.0000 0.0000 0.0000 0.0000 26.3097 0.0000
# 6 0.0000 0.0000 0.0000 0.0000 0.0000 55.7921
#
#
#
# Elastic Compliance Matrix: (Units=1/GPa)
#
#
# Indices 1 2 3 4 5 6 
#
# 1 0.055128 -0.008289 -0.009035 0.000000 0.000000 0.000000
# 2 -0.008289 0.013823 -0.003872 0.000000 0.000000 0.000000
# 3 -0.009035 -0.003872 0.014549 0.000000 0.000000 0.000000
# 4 0.000000 0.000000 0.000000 0.059352 0.000000 0.000000
# 5 0.000000 0.000000 0.000000 0.000000 0.038009 0.000000
# 6 0.000000 0.000000 0.000000 0.000000 0.000000 0.017924
#
#
# Mechanical properties :
#
#
# Convention : Reuss Voigt Hill
#
# Bulk Modulus (GPa) = 24.32676 41.22107 32.77392
# Shear Modulus (GPa) = 19.61706 28.60817 24.11262
#
# Velocity S-wave (km/s) = 3.63266 4.38685 4.02745
# Velocity P-wave (km/s) = 5.82747 7.30673 6.60862
#
# Compressibility (1/GPa) = 0.04110700
#
# Stress axis : x y z
#
# Youngs Moduli (GPa) = 18.13949 72.34398 68.73324
#
# Poissons Ratio (x) = 0.59968 0.62101
# Poissons Ratio (y) = 0.15036 0.26615
# Poissons Ratio (z) = 0.16389 0.28013
#
# Static dielectric constant tensor:
#      x y z
#    x 1.251420 0.000000 0.000000 
#    y 0.000000 1.500160 0.000000 
#    z 0.000000 0.000000 1.498320 
# 
# From -- ./inp_files/2162.got.cif
#   From: 2010.05.17/outbox.cif.g08.bks.cpg/sg20_2_cif.got.tgz:2162.got - 2010.06.03 22:52:26.
