data_PCOD9316382
_publ_section_title
;
Structure prediction by ZEFSAII (Michael W. Deem and Ramdas Pophale) SiO2 
 PCOD9316382
Probable space group: C 2 2 21
;
_chemical_formula_sum "Si O2"
_cell_formula_units_Z 64
_cell_length_a 15.052442
_cell_length_b 8.529448
_cell_length_c 21.917516
_cell_angle_alpha 90.000000
_cell_angle_beta 90.000000
_cell_angle_gamma 90.000000
_cell_volume 2813.968429
_symmetry_space_group_name_H-M "C 2 2 21"
_symmetry_group_IT_number 20
_symmetry_cell_setting 'orthorhombic'
loop_
_space_group_symop_operation_xyz
x,y,z
-x,-y,1/2+z
x,-y,-z
-x,y,1/2-z
1/2+x,1/2+y,z
1/2-x,1/2-y,1/2+z
1/2+x,1/2-y,-z
1/2-x,1/2+y,1/2-z
loop_
_atom_site_type_symbol
_atom_site_label
_atom_site_fract_x
_atom_site_fract_y
_atom_site_fract_z
Si Si1 0.716678 0.666102 0.964307
Si Si2 0.010283 0.185014 0.988466
Si Si3 0.048717 0.621672 0.893477
Si Si4 0.443356 0.582467 0.311353
Si Si5 0.754664 0.345481 0.421125
Si Si6 0.248059 0.989947 0.846056
Si Si7 0.065104 0.574089 0.306202
Si Si8 0.580658 0.373854 0.374251
O O1 0.611292 0.699987 0.964719
O O2 0.748437 0.628044 0.896397
O O3 0.726957 0.500000 0.000000
O O4 0.758126 0.798632 0.007931
O O5 0.942383 0.223893 0.935143
O O6 0.005046 0.290342 0.048706
O O7 0.996123 0.000000 0.000000
O O8 0.062188 0.744084 0.838288
O O9 0.148642 0.578232 0.913383
O O10 0.986507 0.491592 0.865068
O O11 0.500000 0.579209 0.250000
O O12 0.344533 0.511498 0.309375
O O13 0.500981 0.490510 0.361591
O O14 0.676415 0.443537 0.389937
O O15 0.752896 0.176947 0.383981
O O16 0.336525 0.999163 0.805521
O O17 0.081382 0.758059 0.317014
O O18 0.000000 0.547971 0.250000
#
# Coordination Sequence:
#
# PCOD9316382 Si02
#       8
#     8   8   8   8   8   8   8   8
#     4   8  13  29  55  84 110 148 194 233 280 363
#     4  10  17  34  64  91 119 145 195 261 301 350
#     4  10  21  40  61  86 119 161 198 245 302 361
#     4  11  21  38  64  87 111 157 214 245 286 356
#     4   8  18  32  58  85 120 154 188 242 308 361
#     4   9  18  36  57  83 111 159 206 235 285 366
#     4  11  25  41  57  83 126 164 201 246 297 358
#     4  11  21  37  61  91 121 155 197 251 310 350
#
# _framework density 22.743682
#
# number of rings (size 3 to 8) (size 9 to 14) (size 15 to 20)
#    0.000    2.250    2.500    2.250    1.750    1.500 
#    0.000    5.000    5.500    0.000    0.000    0.000 
#    0.000    0.000    0.000    0.000    0.000    0.000 
#
# Total GULP energy -178667.871609 kJ/mol
# GULP energy per Si atom -5583.370988 kJ/mol
# Density = 2.269192 g / cm^3
# Si number density = 22.743682 Si / 1000 Ang^3
#
#
#
# Elastic Constant Matrix: (Units=GPa)
#
#
# Indices 1 2 3 4 5 6 
#
# 1 126.5906 23.3186 50.1673 0.0000 0.0000 0.0000
# 2 23.3186 31.3685 4.9811 0.0000 0.0000 0.0000
# 3 50.1673 4.9811 101.3129 0.0000 0.0000 0.0000
# 4 0.0000 0.0000 0.0000 22.8307 0.0000 0.0000
# 5 0.0000 0.0000 0.0000 0.0000 32.6209 0.0000
# 6 0.0000 0.0000 0.0000 0.0000 0.0000 8.2528
#
#
#
# Elastic Compliance Matrix: (Units=1/GPa)
#
#
# Indices 1 2 3 4 5 6 
#
# 1 0.011392 -0.007633 -0.005266 0.000000 0.000000 0.000000
# 2 -0.007633 0.037244 0.001948 0.000000 0.000000 0.000000
# 3 -0.005266 0.001948 0.012382 0.000000 0.000000 0.000000
# 4 0.000000 0.000000 0.000000 0.043801 0.000000 0.000000
# 5 0.000000 0.000000 0.000000 0.000000 0.030655 0.000000
# 6 0.000000 0.000000 0.000000 0.000000 0.000000 0.121171
#
#
# Mechanical properties :
#
#
# Convention : Reuss Voigt Hill
#
# Bulk Modulus (GPa) = 25.56379 46.24509 35.90444
# Shear Modulus (GPa) = 17.14769 24.79455 20.97112
#
# Velocity S-wave (km/s) = 2.74880 3.30536 3.03984
# Velocity P-wave (km/s) = 4.61940 5.91139 5.30487
#
# Compressibility (1/GPa) = 0.03911783
#
# Stress axis : x y z
#
# Youngs Moduli (GPa) = 87.77875 26.85022 80.76152
#
# Poissons Ratio (x) = 0.20494 0.42528
# Poissons Ratio (y) = 0.66998 -0.15735
# Poissons Ratio (z) = 0.46223 -0.05231
#
# Static dielectric constant tensor:
#      x y z
#    x 1.866250 0.000000 0.000000 
#    y 0.000000 1.859370 0.000000 
#    z 0.000000 0.000000 1.863240 
# 
# From -- ./inp_files/29339.got.cif
#   From: 2010.05.17/outbox.cif.g08.bks.cpg/sg20_15_cif.got.tgz:29339.got - 2010.06.03 22:52:26.
