data_PCOD9316990
_publ_section_title
;
Structure prediction by ZEFSAII (Michael W. Deem and Ramdas Pophale) SiO2 
 PCOD9316990
Probable space group: C 2 2 21
;
_chemical_formula_sum "Si O2"
_cell_formula_units_Z 48
_cell_length_a 8.986294
_cell_length_b 18.258813
_cell_length_c 15.477281
_cell_angle_alpha 90.000000
_cell_angle_beta 90.000000
_cell_angle_gamma 90.000000
_cell_volume 2539.497744
_symmetry_space_group_name_H-M "C 2 2 21"
_symmetry_group_IT_number 20
_symmetry_cell_setting 'orthorhombic'
loop_
_space_group_symop_operation_xyz
x,y,z
-x,-y,1/2+z
x,-y,-z
-x,y,1/2-z
1/2+x,1/2+y,z
1/2-x,1/2-y,1/2+z
1/2+x,1/2-y,-z
1/2-x,1/2+y,1/2-z
loop_
_atom_site_type_symbol
_atom_site_label
_atom_site_fract_x
_atom_site_fract_y
_atom_site_fract_z
Si Si1 0.000000 0.219302 0.250000
Si Si2 0.871294 0.813044 0.017094
Si Si3 0.597322 0.335416 0.162935
Si Si4 0.036290 0.688684 0.924045
Si Si5 0.500000 0.069045 0.250000
Si Si6 0.233240 0.328392 0.837969
Si Si7 0.894306 0.428983 0.170380
O O1 0.994837 0.267633 0.335758
O O2 0.850692 0.173115 0.240195
O O3 0.711725 0.807334 0.062147
O O4 0.990422 0.850337 0.080758
O O5 0.825131 0.848191 0.924761
O O6 0.944029 0.734045 0.994983
O O7 0.500000 0.335049 0.250000
O O8 0.668478 0.254156 0.151979
O O9 0.732232 0.392720 0.172418
O O10 0.975893 0.606470 0.912333
O O11 0.398195 0.117953 0.311774
O O12 0.401642 0.015390 0.188408
O O13 0.000000 0.403747 0.250000
#
# Coordination Sequence:
#
# PCOD9316990 Si02
#       7
#     4   8   8   8   4   8   8
#     4  10  19  32  62  85 122 164 208 260 321 366
#     4  11  22  33  63 102 132 156 223 289 327 367
#     4  12  21  37  69 100 124 174 235 271 326 394
#     4  11  18  36  58  95 124 161 211 273 317 381
#     4  10  25  42  64  95 132 178 220 258 347 406
#     4  11  21  40  61 101 132 169 215 282 327 385
#     4  10  20  40  62  91 126 175 221 260 321 409
#
# _framework density 18.901375999999999
#
# number of rings (size 3 to 8) (size 9 to 14) (size 15 to 20)
#    0.500    0.667    6.667    2.000    0.000    0.000 
#    1.500    0.833    0.000    0.000    4.333    0.000 
#    0.000    0.000    0.000    0.000    0.000    0.000 
#
# Total GULP energy -133662.607166 kJ/mol
# GULP energy per Si atom -5569.275299 kJ/mol
# Density = 1.885836 g / cm^3
# Si number density = 18.901376 Si / 1000 Ang^3
#
#
#
# Elastic Constant Matrix: (Units=GPa)
#
#
# Indices 1 2 3 4 5 6 
#
# 1 144.7519 48.0406 35.9736 0.0000 0.0000 0.0000
# 2 48.0406 75.2699 22.9524 0.0000 0.0000 0.0000
# 3 35.9736 22.9524 55.9230 0.0000 0.0000 0.0000
# 4 0.0000 0.0000 0.0000 13.7111 0.0000 0.0000
# 5 0.0000 0.0000 0.0000 0.0000 52.4990 0.0000
# 6 0.0000 0.0000 0.0000 0.0000 0.0000 24.0941
#
#
#
# Elastic Compliance Matrix: (Units=1/GPa)
#
#
# Indices 1 2 3 4 5 6 
#
# 1 0.009542 -0.004822 -0.004159 0.000000 0.000000 0.000000
# 2 -0.004822 0.017623 -0.004131 0.000000 0.000000 0.000000
# 3 -0.004159 -0.004131 0.022253 0.000000 0.000000 0.000000
# 4 0.000000 0.000000 0.000000 0.072934 0.000000 0.000000
# 5 0.000000 0.000000 0.000000 0.000000 0.019048 0.000000
# 6 0.000000 0.000000 0.000000 0.000000 0.000000 0.041504
#
#
# Mechanical properties :
#
#
# Convention : Reuss Voigt Hill
#
# Bulk Modulus (GPa) = 43.11583 54.43088 48.77336
# Shear Modulus (GPa) = 23.05642 29.32605 26.19123
#
# Velocity S-wave (km/s) = 3.49639 3.94322 3.72651
# Velocity P-wave (km/s) = 6.25781 7.04214 6.66153
#
# Compressibility (1/GPa) = 0.02319334
#
# Stress axis : x y z
#
# Youngs Moduli (GPa) = 104.79571 56.74439 44.93833
#
# Poissons Ratio (x) = 0.27363 0.18691
# Poissons Ratio (y) = 0.50533 0.18564
# Poissons Ratio (z) = 0.43587 0.23441
#
# Static dielectric constant tensor:
#      x y z
#    x 1.753310 0.000000 0.000000 
#    y 0.000000 1.680760 0.000000 
#    z 0.000000 0.000000 1.710460 
# 
# From -- ./inp_files/18937.got.cif
#   From: 2010.05.17/outbox.cif.g08.bks.cpg/sg20_10_cif.got.tgz:18937.got - 2010.06.03 22:52:26.
