data_PCOD9316326
_publ_section_title
;
Structure prediction by ZEFSAII (Michael W. Deem and Ramdas Pophale) SiO2 
 PCOD9316326
Probable space group: C 2 2 21
;
_chemical_formula_sum "Si O2"
_cell_formula_units_Z 52
_cell_length_a 11.763303
_cell_length_b 31.364213
_cell_length_c 7.601022
_cell_angle_alpha 90.000000
_cell_angle_beta 90.000000
_cell_angle_gamma 90.000000
_cell_volume 2804.372294
_symmetry_space_group_name_H-M "C 2 2 21"
_symmetry_group_IT_number 20
_symmetry_cell_setting 'orthorhombic'
loop_
_space_group_symop_operation_xyz
x,y,z
-x,-y,1/2+z
x,-y,-z
-x,y,1/2-z
1/2+x,1/2+y,z
1/2-x,1/2-y,1/2+z
1/2+x,1/2-y,-z
1/2-x,1/2+y,1/2-z
loop_
_atom_site_type_symbol
_atom_site_label
_atom_site_fract_x
_atom_site_fract_y
_atom_site_fract_z
Si Si1 0.299990 0.352671 0.410707
Si Si2 0.366195 0.467167 0.727805
Si Si3 0.131730 0.057944 0.813772
Si Si4 0.819573 0.209232 0.024333
Si Si5 0.865085 0.123465 0.205704
Si Si6 0.367256 0.785868 0.263660
Si Si7 0.500000 0.700087 0.750000
O O1 0.304556 0.397048 0.302595
O O2 0.299389 0.362815 0.617236
O O3 0.201786 0.320959 0.348634
O O4 0.418559 0.328822 0.370364
O O5 0.500000 0.473693 0.750000
O O6 0.359380 0.453326 0.522739
O O7 0.318893 0.514173 0.769389
O O8 0.332137 0.425368 0.838014
O O9 0.000000 0.064243 0.750000
O O10 0.692035 0.213343 0.953700
O O11 0.910444 0.223890 0.875399
O O12 0.843482 0.159835 0.064042
O O13 0.842589 0.238852 0.189121
O O14 0.000000 0.122519 0.250000
O O15 0.500000 0.794050 0.250000
#
# Coordination Sequence:
#
# PCOD9316326 Si02
#       7
#     8   8   8   8   8   8   4
#     4  10  19  33  52  78 107 151 181 222 274 319
#     4   8  16  24  42  76 112 145 170 222 274 328
#     4   9  15  27  46  74 111 143 182 218 273 332
#     4  11  23  38  60  78 107 144 177 227 282 329
#     4  10  17  31  54  82 116 143 180 223 276 338
#     4  11  26  40  54  80 108 138 188 228 271 328
#     4  10  20  32  56  78 100 140 182 214 266 336
#
# _framework density 18.542475
#
# number of rings (size 3 to 8) (size 9 to 14) (size 15 to 20)
#    0.000    2.154    2.308    1.385    4.308    0.000 
#    0.000    0.000    0.000    0.000    0.000    8.615 
#    0.000    0.000    0.000    0.000    0.000    0.000 
#
# Total GULP energy -144904.231658 kJ/mol
# GULP energy per Si atom -5573.239679 kJ/mol
# Density = 1.850027 g / cm^3
# Si number density = 18.542475 Si / 1000 Ang^3
#
#
#
# Elastic Constant Matrix: (Units=GPa)
#
#
# Indices 1 2 3 4 5 6 
#
# 1 86.2145 20.6423 7.7687 0.0000 0.0000 0.0000
# 2 20.6423 90.5359 5.2062 0.0000 0.0000 0.0000
# 3 7.7687 5.2062 23.2452 0.0000 0.0000 0.0000
# 4 0.0000 0.0000 0.0000 15.5922 0.0000 0.0000
# 5 0.0000 0.0000 0.0000 0.0000 17.1647 0.0000
# 6 0.0000 0.0000 0.0000 0.0000 0.0000 10.4913
#
#
#
# Elastic Compliance Matrix: (Units=1/GPa)
#
#
# Indices 1 2 3 4 5 6 
#
# 1 0.012560 -0.002656 -0.003603 0.000000 0.000000 0.000000
# 2 -0.002656 0.011751 -0.001744 0.000000 0.000000 0.000000
# 3 -0.003603 -0.001744 0.044614 0.000000 0.000000 0.000000
# 4 0.000000 0.000000 0.000000 0.064135 0.000000 0.000000
# 5 0.000000 0.000000 0.000000 0.000000 0.058259 0.000000
# 6 0.000000 0.000000 0.000000 0.000000 0.000000 0.095317
#
#
# Mechanical properties :
#
#
# Convention : Reuss Voigt Hill
#
# Bulk Modulus (GPa) = 18.89681 29.69222 24.29451
# Shear Modulus (GPa) = 15.61123 19.74152 17.67638
#
# Velocity S-wave (km/s) = 2.90473 3.26646 3.09089
# Velocity P-wave (km/s) = 4.63283 5.50220 5.08613
#
# Compressibility (1/GPa) = 0.05291898
#
# Stress axis : x y z
#
# Youngs Moduli (GPa) = 79.62021 85.09687 22.41438
#
# Poissons Ratio (x) = 0.22606 0.08075
# Poissons Ratio (y) = 0.21151 0.03909
# Poissons Ratio (z) = 0.28683 0.14842
#
# Static dielectric constant tensor:
#      x y z
#    x 1.594070 0.000000 0.000000 
#    y 0.000000 1.707610 0.000000 
#    z 0.000000 0.000000 1.743340 
# 
# From -- ./inp_files/7605.got.cif
#   From: 2010.05.17/outbox.cif.g08.bks.cpg/sg20_4_cif.got.tgz:7605.got - 2010.06.03 22:52:26.
