data_PCOD9316188
_publ_section_title
;
Structure prediction by ZEFSAII (Michael W. Deem and Ramdas Pophale) SiO2 
 PCOD9316188
Probable space group: C 2 2 21
;
_chemical_formula_sum "Si O2"
_cell_formula_units_Z 36
_cell_length_a 11.337049
_cell_length_b 13.932273
_cell_length_c 10.162573
_cell_angle_alpha 90.000000
_cell_angle_beta 90.000000
_cell_angle_gamma 90.000000
_cell_volume 1605.187162
_symmetry_space_group_name_H-M "C 2 2 21"
_symmetry_group_IT_number 20
_symmetry_cell_setting 'orthorhombic'
loop_
_space_group_symop_operation_xyz
x,y,z
-x,-y,1/2+z
x,-y,-z
-x,y,1/2-z
1/2+x,1/2+y,z
1/2-x,1/2-y,1/2+z
1/2+x,1/2-y,-z
1/2-x,1/2+y,1/2-z
loop_
_atom_site_type_symbol
_atom_site_label
_atom_site_fract_x
_atom_site_fract_y
_atom_site_fract_z
Si Si1 0.247846 0.298992 0.049235
Si Si2 0.670158 0.000000 0.500000
Si Si3 0.373486 0.743944 0.218322
Si Si4 0.801264 0.452372 0.274976
Si Si5 0.962264 0.374524 0.613728
O O1 0.331107 0.277557 0.927750
O O2 0.118875 0.313125 0.982045
O O3 0.225189 0.223681 0.168127
O O4 0.281430 0.400452 0.118582
O O5 0.744582 0.017812 0.631880
O O6 0.577016 0.083032 0.457419
O O7 0.500000 0.700675 0.250000
O O8 0.378600 0.859068 0.236710
O O9 0.880111 0.535121 0.339774
O O10 0.000000 0.324763 0.750000
#
# Coordination Sequence:
#
# PCOD9316188 Si02
#       5
#     8   4   8   8   8
#     4  10  21  34  52  84 119 151 194 230 284 351
#     4  10  14  28  54  84 116 144 172 244 306 332
#     4  10  21  37  55  82 122 158 191 229 286 345
#     4   9  19  31  53  84 118 141 189 233 294 344
#     4  10  17  29  55  90 116 140 182 244 302 338
#
# _framework density 22.427289999999999
#
# number of rings (size 3 to 8) (size 9 to 14) (size 15 to 20)
#    1.333    0.889    2.222    3.333    0.000    5.333 
#    0.000    0.000    0.000    0.000   11.556    0.000 
#    0.000    0.000    0.000    0.000    0.000    0.000 
#
# Total GULP energy -100203.179216 kJ/mol
# GULP energy per Si atom -5566.843290 kJ/mol
# Density = 2.237624 g / cm^3
# Si number density = 22.427290 Si / 1000 Ang^3
#
#
#
# Elastic Constant Matrix: (Units=GPa)
#
#
# Indices 1 2 3 4 5 6 
#
# 1 50.8028 12.0838 40.5056 0.0000 0.0000 0.0000
# 2 12.0838 33.8532 24.0117 0.0000 0.0000 0.0000
# 3 40.5056 24.0117 194.4151 0.0000 0.0000 0.0000
# 4 0.0000 0.0000 0.0000 42.6099 0.0000 0.0000
# 5 0.0000 0.0000 0.0000 0.0000 25.8233 0.0000
# 6 0.0000 0.0000 0.0000 0.0000 0.0000 13.1400
#
#
#
# Elastic Compliance Matrix: (Units=1/GPa)
#
#
# Indices 1 2 3 4 5 6 
#
# 1 0.024546 -0.005627 -0.004419 0.000000 0.000000 0.000000
# 2 -0.005627 0.033666 -0.002986 0.000000 0.000000 0.000000
# 3 -0.004419 -0.002986 0.006433 0.000000 0.000000 0.000000
# 4 0.000000 0.000000 0.000000 0.023469 0.000000 0.000000
# 5 0.000000 0.000000 0.000000 0.000000 0.038725 0.000000
# 6 0.000000 0.000000 0.000000 0.000000 0.000000 0.076103
#
#
# Mechanical properties :
#
#
# Convention : Reuss Voigt Hill
#
# Bulk Modulus (GPa) = 25.91955 48.03035 36.97495
# Shear Modulus (GPa) = 20.67269 29.81264 25.24266
#
# Velocity S-wave (km/s) = 3.03935 3.64991 3.35854
# Velocity P-wave (km/s) = 4.88867 6.26299 5.61801
#
# Compressibility (1/GPa) = 0.03858092
#
# Stress axis : x y z
#
# Youngs Moduli (GPa) = 40.74024 29.70396 155.44719
#
# Poissons Ratio (x) = 0.16715 0.68692
# Poissons Ratio (y) = 0.22925 0.46409
# Poissons Ratio (z) = 0.18003 0.08868
#
# Static dielectric constant tensor:
#      x y z
#    x 1.823950 0.000000 0.000000 
#    y 0.000000 1.947030 0.000000 
#    z 0.000000 0.000000 1.970120 
# 
# From -- ./inp_files/13985.got.cif
#   From: 2010.05.17/outbox.cif.g08.bks.cpg/sg20_7_cif.got.tgz:13985.got - 2010.06.03 22:52:26.
