data_PCOD9316111
_publ_section_title
;
Structure prediction by ZEFSAII (Michael W. Deem and Ramdas Pophale) SiO2 
 PCOD9316111
Probable space group: P 21 21 21
;
_chemical_formula_sum "Si O2"
_cell_formula_units_Z 12
_cell_length_a 9.216649
_cell_length_b 9.606355
_cell_length_c 5.063920
_cell_angle_alpha 90.000000
_cell_angle_beta 90.000000
_cell_angle_gamma 90.000000
_cell_volume 448.351386
_symmetry_space_group_name_H-M "P 21 21 21"
_symmetry_group_IT_number 19
_symmetry_cell_setting 'orthorhombic'
loop_
_space_group_symop_operation_xyz
x,y,z
1/2-x,-y,1/2+z
1/2+x,1/2-y,-z
-x,1/2+y,1/2-z
loop_
_atom_site_type_symbol
_atom_site_label
_atom_site_fract_x
_atom_site_fract_y
_atom_site_fract_z
Si Si1 0.067172 0.593128 0.037366
Si Si2 0.183645 0.071298 0.107320
Si Si3 0.366028 0.683277 0.251832
O O1 0.233506 0.632862 0.072952
O O2 0.985658 0.565385 0.314761
O O3 0.058819 0.449153 0.880990
O O4 0.977584 0.716683 0.899332
O O5 0.263544 0.033996 0.380540
O O6 0.206564 0.222469 0.982301
#
# Coordination Sequence:
#
# PCOD9316111 Si02
#       3
#     4   4   4
#     4  12  34  58  95 142 185 249 315 386 468 559
#     4  12  30  56  94 130 184 242 304 384 468 542
#     4  12  34  58  95 142 185 249 315 386 468 559
#
# _framework density 26.764723
#
# number of rings (size 3 to 8) (size 9 to 14) (size 15 to 20)
#    0.000    0.000    3.333    0.000   23.333    0.000 
#    6.000    0.000    0.000    0.000    0.000    0.000 
#    0.000    0.000    0.000    0.000    0.000    0.000 
#
# Total GULP energy -67476.455248 kJ/mol
# GULP energy per Si atom -5623.037937 kJ/mol
# Density = 2.670381 g / cm^3
# Si number density = 26.764723 Si / 1000 Ang^3
#
#
#
# Elastic Constant Matrix: (Units=GPa)
#
#
# Indices 1 2 3 4 5 6 
#
# 1 74.5879 24.3761 5.8940 0.0000 0.0000 0.0000
# 2 24.3761 141.2177 30.7542 0.0000 0.0000 0.0000
# 3 5.8940 30.7542 122.8191 0.0000 0.0000 0.0000
# 4 0.0000 0.0000 0.0000 40.6731 0.0000 0.0000
# 5 0.0000 0.0000 0.0000 0.0000 70.5544 0.0000
# 6 0.0000 0.0000 0.0000 0.0000 0.0000 64.8074
#
#
#
# Elastic Compliance Matrix: (Units=1/GPa)
#
#
# Indices 1 2 3 4 5 6 
#
# 1 0.014209 -0.002437 -0.000072 0.000000 0.000000 0.000000
# 2 -0.002437 0.007908 -0.001863 0.000000 0.000000 0.000000
# 3 -0.000072 -0.001863 0.008612 0.000000 0.000000 0.000000
# 4 0.000000 0.000000 0.000000 0.024586 0.000000 0.000000
# 5 0.000000 0.000000 0.000000 0.000000 0.014173 0.000000
# 6 0.000000 0.000000 0.000000 0.000000 0.000000 0.015430
#
#
# Mechanical properties :
#
#
# Convention : Reuss Voigt Hill
#
# Bulk Modulus (GPa) = 45.48533 51.18592 48.33563
# Shear Modulus (GPa) = 49.50937 53.71370 51.61154
#
# Velocity S-wave (km/s) = 4.30560 4.48469 4.39605
# Velocity P-wave (km/s) = 6.46134 6.78104 6.62312
#
# Compressibility (1/GPa) = 0.02198511
#
# Stress axis : x y z
#
# Youngs Moduli (GPa) = 70.37735 126.45913 116.11662
#
# Poissons Ratio (x) = 0.30819 0.00832
# Poissons Ratio (y) = 0.17152 0.21634
# Poissons Ratio (z) = 0.00504 0.23561
#
# Static dielectric constant tensor:
#      x y z
#    x 2.072770 0.000000 0.000000 
#    y 0.000000 2.048360 0.000000 
#    z 0.000000 0.000000 2.112480 
# 
# From -- ./inp_files/254.got.cif
#   From: 2010.05.17/outbox.cif.g08.bks.cpg/sg19_1_cif.got.tgz:254.got - 2010.06.03 22:46:19.
