data_PCOD9316906
_publ_section_title
;
Structure prediction by ZEFSAII (Michael W. Deem and Ramdas Pophale) SiO2 
 PCOD9316906
Probable space group: C 2 2 21
;
_chemical_formula_sum "Si O2"
_cell_formula_units_Z 64
_cell_length_a 24.198400
_cell_length_b 19.936160
_cell_length_c 7.631201
_cell_angle_alpha 90.000000
_cell_angle_beta 90.000000
_cell_angle_gamma 90.000000
_cell_volume 3681.468209
_symmetry_space_group_name_H-M "C 2 2 21"
_symmetry_group_IT_number 20
_symmetry_cell_setting 'orthorhombic'
loop_
_space_group_symop_operation_xyz
x,y,z
-x,-y,1/2+z
x,-y,-z
-x,y,1/2-z
1/2+x,1/2+y,z
1/2-x,1/2-y,1/2+z
1/2+x,1/2-y,-z
1/2-x,1/2+y,1/2-z
loop_
_atom_site_type_symbol
_atom_site_label
_atom_site_fract_x
_atom_site_fract_y
_atom_site_fract_z
Si Si1 0.729747 0.645573 0.789614
Si Si2 0.663719 0.770764 0.288940
Si Si3 0.729707 0.645766 0.209289
Si Si4 0.836247 0.270577 0.790080
Si Si5 0.436342 0.858879 0.789829
Si Si6 0.436338 0.859071 0.210385
Si Si7 0.113511 0.499901 0.714056
Si Si8 0.757171 0.500107 0.214168
O O1 0.784784 0.683996 0.722806
O O2 0.678350 0.693895 0.751499
O O3 0.729695 0.569262 0.725250
O O4 0.735099 0.642491 0.999474
O O5 0.678299 0.694113 0.246990
O O6 0.663935 0.775894 0.499450
O O7 0.606630 0.802789 0.224762
O O8 0.784711 0.684255 0.276114
O O9 0.729658 0.569525 0.274207
O O10 0.893312 0.302565 0.725503
O O11 0.500000 0.846110 0.750000
O O12 0.416600 0.932157 0.725539
O O13 0.431209 0.860997 0.000103
O O14 0.500000 0.846347 0.250000
O O15 0.416585 0.932357 0.274539
O O16 0.112476 0.500000 0.500000
O O17 0.178022 0.499856 0.763642
O O18 0.755849 0.500000 0.000000
#
# Coordination Sequence:
#
# PCOD9316906 Si02
#       8
#     8   8   8   8   8   8   8   8
#     4   9  16  27  46  66  85 112 147 182 214 257
#     4   9  17  29  43  62  88 117 145 178 221 260
#     4   9  16  27  46  66  85 112 147 182 214 257
#     4   9  17  29  43  62  88 117 145 178 221 260
#     4  10  19  30  45  63  87 121 155 184 214 251
#     4  10  19  30  45  63  87 121 155 184 214 251
#     4   9  15  27  44  62  88 121 153 179 208 252
#     4   9  14  25  46  68  87 115 150 177 211 262
#
# _framework density 17.384369
#
# number of rings (size 3 to 8) (size 9 to 14) (size 15 to 20)
#    0.000    2.750    2.500    0.375    0.000    1.000 
#    0.000    0.625    0.000    1.500    0.000    0.875 
#    0.000    0.000    0.000    0.000    0.000    0.000 
#
# Total GULP energy -178396.979710 kJ/mol
# GULP energy per Si atom -5574.905616 kJ/mol
# Density = 1.734480 g / cm^3
# Si number density = 17.384369 Si / 1000 Ang^3
#
#
#
# Elastic Constant Matrix: (Units=GPa)
#
#
# Indices 1 2 3 4 5 6 
#
# 1 122.6451 100.6184 1.5332 0.0000 0.0000 0.0000
# 2 100.6184 172.5817 6.2943 0.0000 0.0000 0.0000
# 3 1.5332 6.2943 31.2714 0.0000 0.0000 0.0000
# 4 0.0000 0.0000 0.0000 12.4923 0.0000 0.0000
# 5 0.0000 0.0000 0.0000 0.0000 15.8982 0.0000
# 6 0.0000 0.0000 0.0000 0.0000 0.0000 21.3510
#
#
#
# Elastic Compliance Matrix: (Units=1/GPa)
#
#
# Indices 1 2 3 4 5 6 
#
# 1 0.015665 -0.009172 0.001078 0.000000 0.000000 0.000000
# 2 -0.009172 0.011208 -0.001806 0.000000 0.000000 0.000000
# 3 0.001078 -0.001806 0.032289 0.000000 0.000000 0.000000
# 4 0.000000 0.000000 0.000000 0.080049 0.000000 0.000000
# 5 0.000000 0.000000 0.000000 0.000000 0.062900 0.000000
# 6 0.000000 0.000000 0.000000 0.000000 0.000000 0.046836
#
#
# Mechanical properties :
#
#
# Convention : Reuss Voigt Hill
#
# Bulk Modulus (GPa) = 25.40586 60.37667 42.89127
# Shear Modulus (GPa) = 17.73876 24.48513 21.11194
#
# Velocity S-wave (km/s) = 3.19781 3.75701 3.48864
# Velocity P-wave (km/s) = 5.31795 7.32298 6.39948
#
# Compressibility (1/GPa) = 0.03936099
#
# Stress axis : x y z
#
# Youngs Moduli (GPa) = 63.83561 89.22242 30.97050
#
# Poissons Ratio (x) = 0.81839 -0.03339
# Poissons Ratio (y) = 0.58553 0.05594
# Poissons Ratio (z) = -0.06883 0.16116
#
# Static dielectric constant tensor:
#      x y z
#    x 1.570610 0.000000 0.000000 
#    y 0.000000 1.611490 0.000000 
#    z 0.000000 0.000000 1.660900 
# 
# From -- ./inp_files/15970.got.cif
#   From: 2010.05.17/outbox.cif.g08.bks.cpg/sg20_8_cif.got.tgz:15970.got - 2010.06.03 22:52:26.
