data_PCOD9316535
_publ_section_title
;
Structure prediction by ZEFSAII (Michael W. Deem and Ramdas Pophale) SiO2 
 PCOD9316535
Probable space group: C 2 2 21
;
_chemical_formula_sum "Si O2"
_cell_formula_units_Z 64
_cell_length_a 9.919109
_cell_length_b 14.385578
_cell_length_c 18.051102
_cell_angle_alpha 90.000000
_cell_angle_beta 90.000000
_cell_angle_gamma 90.000000
_cell_volume 2575.749944
_symmetry_space_group_name_H-M "C 2 2 21"
_symmetry_group_IT_number 20
_symmetry_cell_setting 'orthorhombic'
loop_
_space_group_symop_operation_xyz
x,y,z
-x,-y,1/2+z
x,-y,-z
-x,y,1/2-z
1/2+x,1/2+y,z
1/2-x,1/2-y,1/2+z
1/2+x,1/2-y,-z
1/2-x,1/2+y,1/2-z
loop_
_atom_site_type_symbol
_atom_site_label
_atom_site_fract_x
_atom_site_fract_y
_atom_site_fract_z
Si Si1 0.374526 0.766163 0.193781
Si Si2 0.800088 0.987194 0.191961
Si Si3 0.614546 0.980283 0.315120
Si Si4 0.411773 0.061188 0.425063
Si Si5 0.045193 0.771233 0.077428
Si Si6 0.461093 0.481778 0.417538
Si Si7 0.944024 0.820043 0.584249
Si Si8 0.288719 0.269342 0.177082
O O1 0.500000 0.770839 0.250000
O O2 0.366939 0.871346 0.163017
O O3 0.426549 0.691085 0.136385
O O4 0.246620 0.731029 0.241122
O O5 0.701954 0.025610 0.129872
O O6 0.946979 0.992293 0.155642
O O7 0.749556 0.017015 0.273558
O O8 0.771739 0.877511 0.193386
O O9 0.500000 0.983426 0.250000
O O10 0.553421 0.038372 0.382929
O O11 0.384544 0.171602 0.430680
O O12 0.408571 0.000000 0.500000
O O13 0.933058 0.756408 0.140378
O O14 0.099270 0.877827 0.088952
O O15 0.997590 0.786046 0.993465
O O16 0.532231 0.500000 0.500000
O O17 0.379259 0.577358 0.419467
O O18 0.824954 0.758261 0.617950
#
# Coordination Sequence:
#
# PCOD9316535 Si02
#       8
#     8   8   8   8   8   8   8   8
#     4   8  14  28  52  76  95 125 171 212 240 278
#     4   9  17  32  53  73  95 127 167 204 238 288
#     4   8  15  27  45  72 101 125 155 199 249 291
#     4  11  19  29  50  76 102 127 157 201 254 300
#     4  10  21  33  48  75 104 129 160 203 255 298
#     4   9  19  33  49  71  95 128 170 203 237 288
#     4  10  18  32  54  73  96 132 174 205 239 292
#     4   9  18  34  54  76 102 129 164 211 250 285
#
# _framework density 24.847131999999998
#
# number of rings (size 3 to 8) (size 9 to 14) (size 15 to 20)
#    0.000    2.750    0.000    4.125    0.000    3.000 
#    0.000    1.875    0.000    9.750    0.000    0.000 
#    0.000    0.000    0.000    0.000    0.000    0.000 
#
# Total GULP energy -178287.618456 kJ/mol
# GULP energy per Si atom -5571.488077 kJ/mol
# Density = 2.479058 g / cm^3
# Si number density = 24.847132 Si / 1000 Ang^3
#
#
#
# Elastic Constant Matrix: (Units=GPa)
#
#
# Indices 1 2 3 4 5 6 
#
# 1 57.3395 -12.1751 18.7964 0.0000 0.0000 0.0000
# 2 -12.1751 82.7038 -10.7980 0.0000 0.0000 0.0000
# 3 18.7964 -10.7980 58.0917 0.0000 0.0000 0.0000
# 4 0.0000 0.0000 0.0000 24.9101 0.0000 0.0000
# 5 0.0000 0.0000 0.0000 0.0000 11.7780 0.0000
# 6 0.0000 0.0000 0.0000 0.0000 0.0000 -17.5592
#
#
#
# Elastic Compliance Matrix: (Units=1/GPa)
#
#
# Indices 1 2 3 4 5 6 
#
# 1 0.019871 0.002138 -0.006032 0.000000 0.000000 0.000000
# 2 0.002138 0.012622 0.001654 0.000000 0.000000 0.000000
# 3 -0.006032 0.001654 0.019474 0.000000 0.000000 0.000000
# 4 0.000000 0.000000 0.000000 0.040144 0.000000 0.000000
# 5 0.000000 0.000000 0.000000 0.000000 0.084904 0.000000
# 6 0.000000 0.000000 0.000000 0.000000 0.000000 -0.056950
#
#
# Mechanical properties :
#
#
# Convention : Reuss Voigt Hill
#
# Bulk Modulus (GPa) = 21.05851 21.08685 21.07268
# Shear Modulus (GPa) = 35.61914 17.31324 26.46619
#
# Velocity S-wave (km/s) = 3.79031 2.64254 3.26722
# Velocity P-wave (km/s) = 5.25822 4.22087 4.76784
#
# Compressibility (1/GPa) = 0.04748675
#
# Stress axis : x y z
#
# Youngs Moduli (GPa) = 50.32375 79.22638 51.35180
#
# Poissons Ratio (x) = -0.16937 0.30977
# Poissons Ratio (y) = -0.10758 -0.08496
# Poissons Ratio (z) = 0.30357 -0.13108
#
# Static dielectric constant tensor:
#      x y z
#    x 2.054570 0.000000 0.000000 
#    y 0.000000 2.002180 0.000000 
#    z 0.000000 0.000000 2.063010 
# 
# From -- ./inp_files/24474.got.cif
#   From: 2010.05.17/outbox.cif.g08.bks.cpg/sg20_13_cif.got.tgz:24474.got - 2010.06.03 22:52:26.
