data_PCOD9316703
_publ_section_title
;
Structure prediction by ZEFSAII (Michael W. Deem and Ramdas Pophale) SiO2 
 PCOD9316703
Probable space group: C 2 2 21
;
_chemical_formula_sum "Si O2"
_cell_formula_units_Z 60
_cell_length_a 8.280779
_cell_length_b 19.477976
_cell_length_c 16.555511
_cell_angle_alpha 90.000000
_cell_angle_beta 90.000000
_cell_angle_gamma 90.000000
_cell_volume 2670.284967
_symmetry_space_group_name_H-M "C 2 2 21"
_symmetry_group_IT_number 20
_symmetry_cell_setting 'orthorhombic'
loop_
_space_group_symop_operation_xyz
x,y,z
-x,-y,1/2+z
x,-y,-z
-x,y,1/2-z
1/2+x,1/2+y,z
1/2-x,1/2-y,1/2+z
1/2+x,1/2-y,-z
1/2-x,1/2+y,1/2-z
loop_
_atom_site_type_symbol
_atom_site_label
_atom_site_fract_x
_atom_site_fract_y
_atom_site_fract_z
Si Si1 0.014024 0.682446 0.491209
Si Si2 0.310519 0.936234 0.454469
Si Si3 0.000000 0.752713 0.750000
Si Si4 0.293394 0.851294 0.153372
Si Si5 0.126268 0.040844 0.081461
Si Si6 0.645815 0.693081 0.082699
Si Si7 0.527887 0.589167 0.654944
Si Si8 0.071749 0.502215 0.667587
O O1 0.108323 0.659505 0.571988
O O2 0.157967 0.692802 0.426796
O O3 0.887501 0.619117 0.483794
O O4 0.919874 0.750318 0.519626
O O5 0.195641 0.897913 0.390136
O O6 0.444216 0.975582 0.400405
O O7 0.225009 0.000000 0.500000
O O8 0.144934 0.705509 0.714973
O O9 0.077343 0.790943 0.827342
O O10 0.340439 0.925654 0.189191
O O11 0.108910 0.857747 0.126984
O O12 0.074652 0.117609 0.063107
O O13 0.292763 0.045899 0.130618
O O14 0.013539 0.989647 0.131658
O O15 0.165479 0.000000 0.000000
O O16 0.500000 0.594942 0.750000
O O17 0.000000 0.473973 0.750000
#
# Coordination Sequence:
#
# PCOD9316703 Si02
#       8
#     8   8   4   8   8   8   8   8
#     4  10  24  42  70  96 134 185 238 284 351 425
#     4  11  22  39  66 105 136 176 230 293 345 409
#     4  10  22  42  74 100 142 188 224 294 368 428
#     4   9  19  40  64  97 127 174 226 287 346 407
#     4  11  23  42  65  96 138 179 227 288 354 415
#     4  11  24  44  71 100 141 187 233 295 361 425
#     4  11  24  36  65 105 133 173 227 289 342 419
#     4  10  18  35  67  92 129 171 227 280 340 413
#
# _framework density 22.469512999999999
#
# number of rings (size 3 to 8) (size 9 to 14) (size 15 to 20)
#    0.000    1.600    0.667    5.600    4.667    3.200 
#    0.000    0.000    5.867    0.000    0.000    0.000 
#    0.000    0.000    0.000    0.000    0.000    0.000 
#
# Total GULP energy -167505.582065 kJ/mol
# GULP energy per Si atom -5583.519402 kJ/mol
# Density = 2.241837 g / cm^3
# Si number density = 22.469513 Si / 1000 Ang^3
#
#
#
# Elastic Constant Matrix: (Units=GPa)
#
#
# Indices 1 2 3 4 5 6 
#
# 1 75.9665 26.6027 4.1100 0.0000 0.0000 0.0000
# 2 26.6027 120.0795 38.6888 0.0000 0.0000 0.0000
# 3 4.1100 38.6888 71.0614 0.0000 0.0000 0.0000
# 4 0.0000 0.0000 0.0000 22.9522 0.0000 0.0000
# 5 0.0000 0.0000 0.0000 0.0000 38.7055 0.0000
# 6 0.0000 0.0000 0.0000 0.0000 0.0000 7.6910
#
#
#
# Elastic Compliance Matrix: (Units=1/GPa)
#
#
# Indices 1 2 3 4 5 6 
#
# 1 0.014340 -0.003529 0.001092 0.000000 0.000000 0.000000
# 2 -0.003529 0.010968 -0.005767 0.000000 0.000000 0.000000
# 3 0.001092 -0.005767 0.017149 0.000000 0.000000 0.000000
# 4 0.000000 0.000000 0.000000 0.043569 0.000000 0.000000
# 5 0.000000 0.000000 0.000000 0.000000 0.025836 0.000000
# 6 0.000000 0.000000 0.000000 0.000000 0.000000 0.130022
#
#
# Mechanical properties :
#
#
# Convention : Reuss Voigt Hill
#
# Bulk Modulus (GPa) = 38.38937 45.10114 41.74526
# Shear Modulus (GPa) = 18.72833 27.05013 22.88923
#
# Velocity S-wave (km/s) = 2.89017 3.47343 3.19514
# Velocity P-wave (km/s) = 5.31598 6.01681 5.67722
#
# Compressibility (1/GPa) = 0.02604888
#
# Stress axis : x y z
#
# Youngs Moduli (GPa) = 69.73319 91.17652 58.31213
#
# Poissons Ratio (x) = 0.32174 -0.06367
# Poissons Ratio (y) = 0.24607 0.33630
# Poissons Ratio (z) = -0.07614 0.52583
#
# Static dielectric constant tensor:
#      x y z
#    x 1.937360 0.000000 0.000000 
#    y 0.000000 1.823920 0.000000 
#    z 0.000000 0.000000 1.849220 
# 
# From -- ./inp_files/23794.got.cif
#   From: 2010.05.17/outbox.cif.g08.bks.cpg/sg20_12_cif.got.tgz:23794.got - 2010.06.03 22:52:26.
