data_PCOD9316305
_publ_section_title
;
Structure prediction by ZEFSAII (Michael W. Deem and Ramdas Pophale) SiO2 
 PCOD9316305
Probable space group: C 2 2 21
;
_chemical_formula_sum "Si O2"
_cell_formula_units_Z 56
_cell_length_a 21.351158
_cell_length_b 30.198471
_cell_length_c 5.241913
_cell_angle_alpha 90.000000
_cell_angle_beta 90.000000
_cell_angle_gamma 90.000000
_cell_volume 3379.840436
_symmetry_space_group_name_H-M "C 2 2 21"
_symmetry_group_IT_number 20
_symmetry_cell_setting 'orthorhombic'
loop_
_space_group_symop_operation_xyz
x,y,z
-x,-y,1/2+z
x,-y,-z
-x,y,1/2-z
1/2+x,1/2+y,z
1/2-x,1/2-y,1/2+z
1/2+x,1/2-y,-z
1/2-x,1/2+y,1/2-z
loop_
_atom_site_type_symbol
_atom_site_label
_atom_site_fract_x
_atom_site_fract_y
_atom_site_fract_z
Si Si1 0.333807 0.740517 0.038112
Si Si2 0.264178 0.899703 0.921541
Si Si3 0.288154 0.696390 0.537587
Si Si4 0.584141 0.102475 0.422981
Si Si5 0.232970 0.548394 0.919030
Si Si6 0.959560 0.702957 0.002711
Si Si7 0.919220 0.548981 0.578223
O O1 0.329355 0.715037 0.305327
O O2 0.276536 0.775600 0.034324
O O3 0.321180 0.707124 0.804847
O O4 0.397248 0.767740 0.007096
O O5 0.339875 0.894011 0.930410
O O6 0.248851 0.916989 0.639310
O O7 0.230656 0.854111 0.991002
O O8 0.248143 0.935581 0.139079
O O9 0.558282 0.151055 0.476909
O O10 0.564210 0.067771 0.643228
O O11 0.566033 0.083750 0.145781
O O12 0.156935 0.546374 0.917709
O O13 0.255676 0.500000 0.000000
O O14 0.000000 0.714486 0.250000
O O15 0.000000 0.709650 0.750000
O O16 0.941951 0.500000 0.500000
#
# Coordination Sequence:
#
# PCOD9316305 Si02
#       7
#     8   8   8   8   8   8   8
#     4  10  21  35  51  75  96 126 160 204 259 293
#     4  10  17  29  48  70  96 127 161 201 247 282
#     4  10  19  33  54  74 101 121 159 210 250 298
#     4  10  19  32  48  69  92 117 165 204 249 300
#     4   9  17  26  41  68 100 129 161 192 230 296
#     4  12  24  38  54  71  97 129 167 205 253 305
#     4   9  17  29  48  67  88 119 155 208 256 296
#
# _framework density 16.568828
#
# number of rings (size 3 to 8) (size 9 to 14) (size 15 to 20)
#    0.000    2.000    1.429    3.429    0.000    3.429 
#    0.000    0.000    0.000    8.571    0.000    0.000 
#    0.000    0.000    0.000    0.000    0.000  180.000 
#
# Total GULP energy -156436.753610 kJ/mol
# GULP energy per Si atom -5587.026915 kJ/mol
# Density = 1.653112 g / cm^3
# Si number density = 16.568828 Si / 1000 Ang^3
#
#
#
# Elastic Constant Matrix: (Units=GPa)
#
#
# Indices 1 2 3 4 5 6 
#
# 1 43.4960 16.8115 15.0052 0.0000 0.0000 0.0000
# 2 16.8115 45.0994 -7.3324 0.0000 0.0000 0.0000
# 3 15.0052 -7.3324 83.9045 0.0000 0.0000 0.0000
# 4 0.0000 0.0000 0.0000 34.2010 0.0000 0.0000
# 5 0.0000 0.0000 0.0000 0.0000 19.4875 0.0000
# 6 0.0000 0.0000 0.0000 0.0000 0.0000 20.7963
#
#
#
# Elastic Compliance Matrix: (Units=1/GPa)
#
#
# Indices 1 2 3 4 5 6 
#
# 1 0.029918 -0.012195 -0.006416 0.000000 0.000000 0.000000
# 2 -0.012195 0.027464 0.004581 0.000000 0.000000 0.000000
# 3 -0.006416 0.004581 0.013466 0.000000 0.000000 0.000000
# 4 0.000000 0.000000 0.000000 0.029239 0.000000 0.000000
# 5 0.000000 0.000000 0.000000 0.000000 0.051315 0.000000
# 6 0.000000 0.000000 0.000000 0.000000 0.000000 0.048086
#
#
# Mechanical properties :
#
#
# Convention : Reuss Voigt Hill
#
# Bulk Modulus (GPa) = 23.37166 24.60762 23.98964
# Shear Modulus (GPa) = 20.67735 24.76466 22.72100
#
# Velocity S-wave (km/s) = 3.53649 3.87027 3.70714
# Velocity P-wave (km/s) = 5.55087 5.90390 5.73010
#
# Compressibility (1/GPa) = 0.04278686
#
# Stress axis : x y z
#
# Youngs Moduli (GPa) = 33.42510 36.41116 74.26062
#
# Poissons Ratio (x) = 0.44405 0.47647
# Poissons Ratio (y) = 0.40763 -0.34019
# Poissons Ratio (z) = 0.21446 -0.16680
#
# Static dielectric constant tensor:
#      x y z
#    x 1.536820 0.000000 0.000000 
#    y 0.000000 1.540830 0.000000 
#    z 0.000000 0.000000 1.563700 
# 
# From -- ./inp_files/3294.got.cif
#   From: 2010.05.17/outbox.cif.g08.bks.cpg/sg20_2_cif.got.tgz:3294.got - 2010.06.03 22:52:26.
