data_PCOD9316074
_publ_section_title
;
Structure prediction by ZEFSAII (Michael W. Deem and Ramdas Pophale) SiO2 
 PCOD9316074
Probable space group: P 21 21 21
;
_chemical_formula_sum "Si O2"
_cell_formula_units_Z 28
_cell_length_a 15.858578
_cell_length_b 13.262987
_cell_length_c 4.779910
_cell_angle_alpha 90.000000
_cell_angle_beta 90.000000
_cell_angle_gamma 90.000000
_cell_volume 1005.368574
_symmetry_space_group_name_H-M "P 21 21 21"
_symmetry_group_IT_number 19
_symmetry_cell_setting 'orthorhombic'
loop_
_space_group_symop_operation_xyz
x,y,z
1/2-x,-y,1/2+z
1/2+x,1/2-y,-z
-x,1/2+y,1/2-z
loop_
_atom_site_type_symbol
_atom_site_label
_atom_site_fract_x
_atom_site_fract_y
_atom_site_fract_z
Si Si1 0.516540 0.184126 0.483153
Si Si2 0.483460 0.315874 0.983153
Si Si3 0.134793 0.065834 0.761701
Si Si4 0.161228 0.594594 0.849004
Si Si5 0.161228 0.405406 0.150996
Si Si6 0.750000 0.255056 0.250000
Si Si7 0.134793 0.934166 0.238300
O O1 0.507095 0.215065 0.161585
O O2 0.603840 0.138864 0.600425
O O3 0.444276 0.107270 0.567875
O O4 0.492905 0.284934 0.661585
O O5 0.555724 0.392730 0.067875
O O6 0.396160 0.361136 0.100425
O O7 0.182338 0.163948 0.638119
O O8 0.110404 1.000000 0.500000
O O9 0.183874 0.000000 0.000000
O O10 0.250000 0.548966 0.750000
O O11 0.116491 0.500000 1.000000
O O12 0.196806 0.686105 0.038636
O O13 0.196806 0.313895 0.961364
O O14 0.817662 0.336052 0.138119
#
# Coordination Sequence:
#
# PCOD9316074 Si02
#       7
#     4   4   4   4   4   4   4
#     4  12  26  50  79 111 154 201 253 315 383 449
#     4  12  26  50  79 111 154 201 253 315 383 449
#     4  12  27  48  77 111 150 201 251 309 377 447
#     4  12  27  47  77 110 152 201 255 315 384 456
#     4  12  27  47  77 110 152 201 255 315 384 456
#     4  12  26  50  72 108 154 194 252 316 372 458
#     4  12  27  48  77 111 150 201 251 309 377 447
#
# _framework density 27.850480999999998
#
# number of rings (size 3 to 8) (size 9 to 14) (size 15 to 20)
#    0.000    0.000    4.286    5.143    4.000    1.143 
#    0.000    0.000    0.000    0.000    0.000    0.000 
#    0.000    0.000    0.000    0.000    0.000    0.000 
#
# Total GULP energy -157096.042303 kJ/mol
# GULP energy per Si atom -5610.572939 kJ/mol
# Density = 2.778709 g / cm^3
# Si number density = 27.850481 Si / 1000 Ang^3
#
#
#
# Elastic Constant Matrix: (Units=GPa)
#
#
# Indices 1 2 3 4 5 6 
#
# 1 105.8082 9.3003 -3.3877 0.0000 0.0000 0.0000
# 2 9.3003 162.2163 39.4751 0.0000 0.0000 0.0000
# 3 -3.3877 39.4751 100.8001 0.0000 0.0000 0.0000
# 4 0.0000 0.0000 0.0000 77.2344 0.0000 0.0000
# 5 0.0000 0.0000 0.0000 0.0000 37.9783 0.0000
# 6 0.0000 0.0000 0.0000 0.0000 0.0000 34.7938
#
#
#
# Elastic Compliance Matrix: (Units=1/GPa)
#
#
# Indices 1 2 3 4 5 6 
#
# 1 0.009531 -0.000690 0.000591 0.000000 0.000000 0.000000
# 2 -0.000690 0.006864 -0.002711 0.000000 0.000000 0.000000
# 3 0.000591 -0.002711 0.011002 0.000000 0.000000 0.000000
# 4 0.000000 0.000000 0.000000 0.012948 0.000000 0.000000
# 5 0.000000 0.000000 0.000000 0.000000 0.026331 0.000000
# 6 0.000000 0.000000 0.000000 0.000000 0.000000 0.028741
#
#
# Mechanical properties :
#
#
# Convention : Reuss Voigt Hill
#
# Bulk Modulus (GPa) = 45.92372 51.06665 48.49519
# Shear Modulus (GPa) = 46.16978 51.56378 48.86678
#
# Velocity S-wave (km/s) = 4.07599 4.30752 4.19335
# Velocity P-wave (km/s) = 6.21907 6.56623 6.39501
#
# Compressibility (1/GPa) = 0.02177524
#
# Stress axis : x y z
#
# Youngs Moduli (GPa) = 104.92481 145.68863 90.89058
#
# Poissons Ratio (x) = 0.10054 -0.05368
# Poissons Ratio (y) = 0.07241 0.24643
# Poissons Ratio (z) = -0.06197 0.39500
#
# Static dielectric constant tensor:
#      x y z
#    x 2.260060 0.000000 0.000000 
#    y 0.000000 2.138440 0.000000 
#    z 0.000000 0.000000 2.208640 
# 
# From -- ./inp_files/1752.got.cif
#   From: 2010.05.17/outbox.cif.g08.bks.cpg/sg19_1_cif.got.tgz:1752.got - 2010.06.03 22:46:19.
