data_PCOD9316038
_publ_section_title
;
Structure prediction by ZEFSAII (Michael W. Deem and Ramdas Pophale) SiO2 
 PCOD9316038
Probable space group: P 21 21 21
;
_chemical_formula_sum "Si O2"
_cell_formula_units_Z 16
_cell_length_a 7.744751
_cell_length_b 4.836820
_cell_length_c 17.414037
_cell_angle_alpha 90.000000
_cell_angle_beta 90.000000
_cell_angle_gamma 90.000000
_cell_volume 652.329243
_symmetry_space_group_name_H-M "P 21 21 21"
_symmetry_group_IT_number 19
_symmetry_cell_setting 'orthorhombic'
loop_
_space_group_symop_operation_xyz
x,y,z
1/2-x,-y,1/2+z
1/2+x,1/2-y,-z
-x,1/2+y,1/2-z
loop_
_atom_site_type_symbol
_atom_site_label
_atom_site_fract_x
_atom_site_fract_y
_atom_site_fract_z
Si Si1 0.729288 0.813006 0.810670
Si Si2 0.135199 0.834199 0.602503
Si Si3 0.764699 0.586718 0.561235
Si Si4 0.356230 0.562175 0.848790
O O1 0.859669 0.566466 0.831550
O O2 0.539527 0.683106 0.822311
O O3 0.763589 0.066948 0.867292
O O4 0.736456 0.932267 0.725189
O O5 0.227186 0.963800 0.527824
O O6 0.947266 0.729780 0.577893
O O7 0.744608 0.309055 0.609873
O O8 0.626688 0.811196 0.591649
#
# Coordination Sequence:
#
# PCOD9316038 Si02
#       4
#     4   4   4   4
#     4  12  25  46  72 103 142 185 232 284 349 417
#     4  12  26  46  73 105 142 183 233 290 348 413
#     4  12  26  46  73 105 142 183 233 290 348 413
#     4  12  25  46  72 103 142 185 232 284 349 417
#
# _framework density 24.527491999999999
#
# number of rings (size 3 to 8) (size 9 to 14) (size 15 to 20)
#    0.000    0.000    0.000   12.000    0.000    4.000 
#    0.000    2.500    0.000    0.000    0.000    0.000 
#    0.000    0.000    0.000    0.000    0.000    0.000 
#
# Total GULP energy -89813.021507 kJ/mol
# GULP energy per Si atom -5613.313844 kJ/mol
# Density = 2.447167 g / cm^3
# Si number density = 24.527492 Si / 1000 Ang^3
#
#
#
# Elastic Constant Matrix: (Units=GPa)
#
#
# Indices 1 2 3 4 5 6 
#
# 1 60.7604 8.0958 16.6433 0.0000 0.0000 0.0000
# 2 8.0958 150.0676 37.3304 0.0000 0.0000 0.0000
# 3 16.6433 37.3304 93.7184 0.0000 0.0000 0.0000
# 4 0.0000 0.0000 0.0000 56.8031 0.0000 0.0000
# 5 0.0000 0.0000 0.0000 0.0000 28.1765 0.0000
# 6 0.0000 0.0000 0.0000 0.0000 0.0000 44.9005
#
#
#
# Elastic Compliance Matrix: (Units=1/GPa)
#
#
# Indices 1 2 3 4 5 6 
#
# 1 0.017304 -0.000188 -0.002998 0.000000 0.000000 0.000000
# 2 -0.000188 0.007399 -0.002914 0.000000 0.000000 0.000000
# 3 -0.002998 -0.002914 0.012363 0.000000 0.000000 0.000000
# 4 0.000000 0.000000 0.000000 0.017605 0.000000 0.000000
# 5 0.000000 0.000000 0.000000 0.000000 0.035491 0.000000
# 6 0.000000 0.000000 0.000000 0.000000 0.000000 0.022271
#
#
# Mechanical properties :
#
#
# Convention : Reuss Voigt Hill
#
# Bulk Modulus (GPa) = 40.21408 47.63173 43.92290
# Shear Modulus (GPa) = 37.61622 42.14115 39.87868
#
# Velocity S-wave (km/s) = 3.92041 4.14952 4.03659
# Velocity P-wave (km/s) = 6.07651 6.51305 6.29856
#
# Compressibility (1/GPa) = 0.02486691
#
# Stress axis : x y z
#
# Youngs Moduli (GPa) = 57.78879 135.16078 80.88432
#
# Poissons Ratio (x) = 0.02537 0.24252
# Poissons Ratio (y) = 0.01085 0.23567
# Poissons Ratio (z) = 0.17327 0.39382
#
# Static dielectric constant tensor:
#      x y z
#    x 1.971880 0.000000 0.000000 
#    y 0.000000 1.885080 0.000000 
#    z 0.000000 0.000000 1.920270 
# 
# From -- ./inp_files/2354.got.cif
#   From: 2010.05.17/outbox.cif.g08.bks.cpg/sg19_2_cif.got.tgz:2354.got - 2010.06.03 22:46:19.
