data_PCOD9316431
_publ_section_title
;
Structure prediction by ZEFSAII (Michael W. Deem and Ramdas Pophale) SiO2 
 PCOD9316431
Probable space group: C 2 2 21
;
_chemical_formula_sum "Si O2"
_cell_formula_units_Z 56
_cell_length_a 9.494734
_cell_length_b 16.824093
_cell_length_c 14.354855
_cell_angle_alpha 90.000000
_cell_angle_beta 90.000000
_cell_angle_gamma 90.000000
_cell_volume 2293.048669
_symmetry_space_group_name_H-M "C 2 2 21"
_symmetry_group_IT_number 20
_symmetry_cell_setting 'orthorhombic'
loop_
_space_group_symop_operation_xyz
x,y,z
-x,-y,1/2+z
x,-y,-z
-x,y,1/2-z
1/2+x,1/2+y,z
1/2-x,1/2-y,1/2+z
1/2+x,1/2-y,-z
1/2-x,1/2+y,1/2-z
loop_
_atom_site_type_symbol
_atom_site_label
_atom_site_fract_x
_atom_site_fract_y
_atom_site_fract_z
Si Si1 0.306642 0.610554 0.194501
Si Si2 0.601603 0.192692 0.913106
Si Si3 0.456871 0.629195 0.464670
Si Si4 0.869433 0.500833 0.190394
Si Si5 0.587272 0.669617 0.654420
Si Si6 0.982855 0.655256 0.391950
Si Si7 0.762250 0.500000 0.000000
Si Si8 0.000000 0.236043 0.250000
O O1 0.259774 0.527388 0.241639
O O2 0.168012 0.651456 0.155942
O O3 0.372158 0.675110 0.264823
O O4 0.420395 0.609972 0.110640
O O5 0.742022 0.164407 0.858419
O O6 0.480130 0.208979 0.838155
O O7 0.609603 0.282070 0.957467
O O8 0.552737 0.141081 0.999803
O O9 0.522826 0.621197 0.567797
O O10 0.334708 0.566575 0.454391
O O11 0.833516 0.461048 0.091831
O O12 0.000000 0.466200 0.250000
O O13 0.929036 0.584866 0.152289
O O14 0.500000 0.651965 0.750000
O O15 0.555134 0.761628 0.629580
#
# Coordination Sequence:
#
# PCOD9316431 Si02
#       8
#     8   8   8   8   8   8   4   4
#     4  10  18  38  60  90 115 159 222 240 296 364
#     4  10  20  36  59  90 127 159 203 252 310 372
#     4  10  23  39  63  88 124 168 202 262 306 364
#     4  10  22  41  70  89 116 166 210 263 302 367
#     4  11  20  36  57  92 128 162 197 255 325 375
#     4  10  19  35  63  91 122 157 207 256 305 369
#     4  12  24  46  62  92 124 154 222 254 306 368
#     4  10  18  28  52  90 122 164 190 244 296 360
#
# _framework density 24.421635999999999
#
# number of rings (size 3 to 8) (size 9 to 14) (size 15 to 20)
#    0.000    1.714    1.429    5.571    0.000    0.000 
#    5.143    4.286    0.000    0.000    0.000    0.000 
#    0.000    0.000    0.000    0.000    0.000    0.000 
#
# Total GULP energy -156327.477007 kJ/mol
# GULP energy per Si atom -5583.124179 kJ/mol
# Density = 2.436605 g / cm^3
# Si number density = 24.421636 Si / 1000 Ang^3
#
#
#
# Elastic Constant Matrix: (Units=GPa)
#
#
# Indices 1 2 3 4 5 6 
#
# 1 104.2107 16.5363 50.2249 0.0000 0.0000 0.0000
# 2 16.5363 37.0897 -1.4377 0.0000 0.0000 0.0000
# 3 50.2249 -1.4377 127.1100 0.0000 0.0000 0.0000
# 4 0.0000 0.0000 0.0000 23.6366 0.0000 0.0000
# 5 0.0000 0.0000 0.0000 0.0000 46.4025 0.0000
# 6 0.0000 0.0000 0.0000 0.0000 0.0000 19.8850
#
#
#
# Elastic Compliance Matrix: (Units=1/GPa)
#
#
# Indices 1 2 3 4 5 6 
#
# 1 0.013076 -0.006033 -0.005235 0.000000 0.000000 0.000000
# 2 -0.006033 0.029757 0.002720 0.000000 0.000000 0.000000
# 3 -0.005235 0.002720 0.009967 0.000000 0.000000 0.000000
# 4 0.000000 0.000000 0.000000 0.042307 0.000000 0.000000
# 5 0.000000 0.000000 0.000000 0.000000 0.021551 0.000000
# 6 0.000000 0.000000 0.000000 0.000000 0.000000 0.050289
#
#
# Mechanical properties :
#
#
# Convention : Reuss Voigt Hill
#
# Bulk Modulus (GPa) = 28.00774 44.33971 36.17373
# Shear Modulus (GPa) = 25.51755 31.52394 28.52075
#
# Velocity S-wave (km/s) = 3.23596 3.59670 3.42109
# Velocity P-wave (km/s) = 5.04532 5.95346 5.51810
#
# Compressibility (1/GPa) = 0.03570441
#
# Stress axis : x y z
#
# Youngs Moduli (GPa) = 76.47400 33.60562 100.33605
#
# Poissons Ratio (x) = 0.20274 0.52527
# Poissons Ratio (y) = 0.46137 -0.27295
# Poissons Ratio (z) = 0.40035 -0.09142
#
# Static dielectric constant tensor:
#      x y z
#    x 1.970600 0.000000 0.000000 
#    y 0.000000 1.949760 0.000000 
#    z 0.000000 0.000000 2.059490 
# 
# From -- ./inp_files/19239.got.cif
#   From: 2010.05.17/outbox.cif.g08.bks.cpg/sg20_10_cif.got.tgz:19239.got - 2010.06.03 22:52:26.
