data_PCOD9316081
_publ_section_title
;
Structure prediction by ZEFSAII (Michael W. Deem and Ramdas Pophale) SiO2 
 PCOD9316081
Probable space group: P 21 21 21
;
_chemical_formula_sum "Si O2"
_cell_formula_units_Z 16
_cell_length_a 7.397176
_cell_length_b 8.851098
_cell_length_c 9.104375
_cell_angle_alpha 90.000000
_cell_angle_beta 90.000000
_cell_angle_gamma 90.000000
_cell_volume 596.091925
_symmetry_space_group_name_H-M "P 21 21 21"
_symmetry_group_IT_number 19
_symmetry_cell_setting 'orthorhombic'
loop_
_space_group_symop_operation_xyz
x,y,z
1/2-x,-y,1/2+z
1/2+x,1/2-y,-z
-x,1/2+y,1/2-z
loop_
_atom_site_type_symbol
_atom_site_label
_atom_site_fract_x
_atom_site_fract_y
_atom_site_fract_z
Si Si1 0.577933 0.935146 0.153724
Si Si2 0.300967 0.115001 0.000076
Si Si3 0.244340 0.300476 0.718669
Si Si4 0.842245 0.676492 0.175208
O O1 0.501928 0.066282 0.049134
O O2 0.406762 0.823262 0.174912
O O3 0.747341 0.828830 0.122155
O O4 0.650859 0.036283 0.288728
O O5 0.198527 0.148032 0.152039
O O6 0.250589 0.964018 0.909150
O O7 0.795724 0.250595 0.114956
O O8 0.443851 0.308386 0.648588
#
# Coordination Sequence:
#
# PCOD9316081 Si02
#       4
#     4   4   4   4
#     4  12  27  50  78 117 163 206 276 328 396 494
#     4  12  26  53  77 120 163 210 272 331 409 486
#     4  12  26  52  78 114 160 215 268 330 406 480
#     4  12  29  51  83 119 162 219 266 341 413 480
#
# _framework density 26.841498000000001
#
# number of rings (size 3 to 8) (size 9 to 14) (size 15 to 20)
#    0.000    0.000    5.000    3.000    3.500    0.000 
#    0.000    0.000    0.000    0.000    0.000    0.000 
#    0.000    0.000    0.000    0.000    0.000    0.000 
#
# Total GULP energy -89521.909880 kJ/mol
# GULP energy per Si atom -5595.119368 kJ/mol
# Density = 2.678041 g / cm^3
# Si number density = 26.841498 Si / 1000 Ang^3
#
#
#
# Elastic Constant Matrix: (Units=GPa)
#
#
# Indices 1 2 3 4 5 6 
#
# 1 217.6753 77.9798 33.7833 0.0000 0.0000 0.0000
# 2 77.9798 101.8080 6.7465 0.0000 0.0000 0.0000
# 3 33.7833 6.7465 109.0569 0.0000 0.0000 0.0000
# 4 0.0000 0.0000 0.0000 51.5850 0.0000 0.0000
# 5 0.0000 0.0000 0.0000 0.0000 40.1279 0.0000
# 6 0.0000 0.0000 0.0000 0.0000 0.0000 67.5263
#
#
#
# Elastic Compliance Matrix: (Units=1/GPa)
#
#
# Indices 1 2 3 4 5 6 
#
# 1 0.006649 -0.004976 -0.001752 0.000000 0.000000 0.000000
# 2 -0.004976 0.013588 0.000701 0.000000 0.000000 0.000000
# 3 -0.001752 0.000701 0.009669 0.000000 0.000000 0.000000
# 4 0.000000 0.000000 0.000000 0.019385 0.000000 0.000000
# 5 0.000000 0.000000 0.000000 0.000000 0.024920 0.000000
# 6 0.000000 0.000000 0.000000 0.000000 0.000000 0.014809
#
#
# Mechanical properties :
#
#
# Convention : Reuss Voigt Hill
#
# Bulk Modulus (GPa) = 56.01990 73.95104 64.98547
# Shear Modulus (GPa) = 46.71831 52.51656 49.61743
#
# Velocity S-wave (km/s) = 4.17649 4.42808 4.30412
# Velocity P-wave (km/s) = 6.64630 7.33176 6.99743
#
# Compressibility (1/GPa) = 0.01785080
#
# Stress axis : x y z
#
# Youngs Moduli (GPa) = 150.40719 73.59624 103.42535
#
# Poissons Ratio (x) = 0.36625 0.18117
# Poissons Ratio (y) = 0.74849 -0.07250
# Poissons Ratio (z) = 0.26347 -0.05159
#
# Static dielectric constant tensor:
#      x y z
#    x 2.044120 0.000000 0.000000 
#    y 0.000000 2.030780 0.000000 
#    z 0.000000 0.000000 2.307450 
# 
# From -- ./inp_files/4534.got.cif
#   From: 2010.05.17/outbox.cif.g08.bks.cpg/sg19_3_cif.got.tgz:4534.got - 2010.06.03 22:46:19.
