data_PCOD9316626
_publ_section_title
;
Structure prediction by ZEFSAII (Michael W. Deem and Ramdas Pophale) SiO2 
 PCOD9316626
Probable space group: C 2 2 21
;
_chemical_formula_sum "Si O2"
_cell_formula_units_Z 48
_cell_length_a 8.608515
_cell_length_b 35.402708
_cell_length_c 7.454978
_cell_angle_alpha 90.000000
_cell_angle_beta 90.000000
_cell_angle_gamma 90.000000
_cell_volume 2272.014453
_symmetry_space_group_name_H-M "C 2 2 21"
_symmetry_group_IT_number 20
_symmetry_cell_setting 'orthorhombic'
loop_
_space_group_symop_operation_xyz
x,y,z
-x,-y,1/2+z
x,-y,-z
-x,y,1/2-z
1/2+x,1/2+y,z
1/2-x,1/2-y,1/2+z
1/2+x,1/2-y,-z
1/2-x,1/2+y,1/2-z
loop_
_atom_site_type_symbol
_atom_site_label
_atom_site_fract_x
_atom_site_fract_y
_atom_site_fract_z
Si Si1 0.327498 0.955160 0.535547
Si Si2 0.899946 0.232145 0.926991
Si Si3 0.559333 0.341487 0.044383
Si Si4 0.500557 0.424700 0.954073
Si Si5 0.345059 0.804217 0.173689
Si Si6 0.671301 0.955223 0.534776
O O1 0.499311 0.942413 0.468187
O O2 0.329747 0.948647 0.750419
O O3 0.165995 0.937081 0.466007
O O4 0.318040 0.000000 0.500000
O O5 0.746367 0.213334 0.843932
O O6 0.000000 0.242315 0.750000
O O7 0.987574 0.197748 0.025721
O O8 0.875969 0.268237 0.047768
O O9 0.500000 0.344501 0.250000
O O10 0.741338 0.333798 0.065208
O O11 0.509931 0.379468 0.951062
O O12 0.500000 0.439862 0.750000
O O13 0.665612 0.438198 0.035830
O O14 0.500000 0.821799 0.250000
O O15 0.677869 0.000000 0.500000
#
# Coordination Sequence:
#
# PCOD9316626 Si02
#       6
#     8   8   8   8   8   8
#     4   9  18  33  54  78 106 138 177 223 270 314
#     4   9  19  34  55  80 107 137 179 227 274 330
#     4   9  21  37  50  75 109 138 178 220 267 331
#     4  10  20  35  53  76 110 147 175 221 276 322
#     4  10  18  34  56  78 105 138 179 231 276 324
#     4   9  18  33  53  79 107 134 180 223 261 327
#
# _framework density 21.126624
#
# number of rings (size 3 to 8) (size 9 to 14) (size 15 to 20)
#    0.000    3.000    0.000    2.500    0.000    3.333 
#    6.000    0.000    3.667    0.000    0.000    0.000 
#    0.000    0.000    0.000    0.000    0.000    0.000 
#
# Total GULP energy -133720.531602 kJ/mol
# GULP energy per Si atom -5571.688817 kJ/mol
# Density = 2.107854 g / cm^3
# Si number density = 21.126624 Si / 1000 Ang^3
#
#
#
# Elastic Constant Matrix: (Units=GPa)
#
#
# Indices 1 2 3 4 5 6 
#
# 1 202.2240 53.9714 20.3547 0.0000 0.0000 0.0000
# 2 53.9714 61.9154 -0.4337 0.0000 0.0000 0.0000
# 3 20.3547 -0.4337 48.2139 0.0000 0.0000 0.0000
# 4 0.0000 0.0000 0.0000 18.4003 0.0000 0.0000
# 5 0.0000 0.0000 0.0000 0.0000 -6.7542 0.0000
# 6 0.0000 0.0000 0.0000 0.0000 0.0000 15.6476
#
#
#
# Elastic Compliance Matrix: (Units=1/GPa)
#
#
# Indices 1 2 3 4 5 6 
#
# 1 0.006837 -0.005980 -0.002940 0.000000 0.000000 0.000000
# 2 -0.005980 0.021383 0.002717 0.000000 0.000000 0.000000
# 3 -0.002940 0.002717 0.022007 0.000000 0.000000 0.000000
# 4 0.000000 0.000000 0.000000 0.054347 0.000000 0.000000
# 5 0.000000 0.000000 0.000000 0.000000 -0.148057 0.000000
# 6 0.000000 0.000000 0.000000 0.000000 0.000000 0.063908
#
#
# Mechanical properties :
#
#
# Convention : Reuss Voigt Hill
#
# Bulk Modulus (GPa) = 26.44116 51.12646 38.78381
# Shear Modulus (GPa) = 110.03955 21.35615 65.69785
#
# Velocity S-wave (km/s) = 7.22487 3.18286 5.58253
# Velocity P-wave (km/s) = 9.06317 6.14492 7.74277
#
# Compressibility (1/GPa) = 0.03781982
#
# Stress axis : x y z
#
# Youngs Moduli (GPa) = 146.26149 46.76568 45.44086
#
# Poissons Ratio (x) = 0.27968 0.13361
# Poissons Ratio (y) = 0.87471 -0.12347
# Poissons Ratio (z) = 0.43004 -0.12707
#
# Static dielectric constant tensor:
#      x y z
#    x 1.862530 0.000000 0.000000 
#    y 0.000000 1.713000 0.000000 
#    z 0.000000 0.000000 1.773400 
# 
# From -- ./inp_files/6550.got.cif
#   From: 2010.05.17/outbox.cif.g08.bks.cpg/sg20_4_cif.got.tgz:6550.got - 2010.06.03 22:52:26.
