data_PCOD9316531
_publ_section_title
;
Structure prediction by ZEFSAII (Michael W. Deem and Ramdas Pophale) SiO2 
 PCOD9316531
Probable space group: C 2 2 21
;
_chemical_formula_sum "Si O2"
_cell_formula_units_Z 44
_cell_length_a 14.790805
_cell_length_b 15.354587
_cell_length_c 7.320372
_cell_angle_alpha 90.000000
_cell_angle_beta 90.000000
_cell_angle_gamma 90.000000
_cell_volume 1662.505544
_symmetry_space_group_name_H-M "C 2 2 21"
_symmetry_group_IT_number 20
_symmetry_cell_setting 'orthorhombic'
loop_
_space_group_symop_operation_xyz
x,y,z
-x,-y,1/2+z
x,-y,-z
-x,y,1/2-z
1/2+x,1/2+y,z
1/2-x,1/2-y,1/2+z
1/2+x,1/2-y,-z
1/2-x,1/2+y,1/2-z
loop_
_atom_site_type_symbol
_atom_site_label
_atom_site_fract_x
_atom_site_fract_y
_atom_site_fract_z
Si Si1 0.699528 0.318524 0.716314
Si Si2 0.266232 0.876627 0.121296
Si Si3 0.000000 0.873584 0.750000
Si Si4 0.917007 0.105204 0.625387
Si Si5 0.454243 0.094837 0.005525
Si Si6 0.612406 0.184204 0.115247
O O1 0.714990 0.215122 0.716071
O O2 0.728523 0.355385 0.914787
O O3 0.593838 0.330942 0.667680
O O4 0.783840 0.345537 0.586896
O O5 0.364106 0.918356 0.112284
O O6 0.180133 0.930158 0.192409
O O7 0.951638 0.915882 0.576911
O O8 0.901623 0.211637 0.638174
O O9 0.000000 0.082600 0.750000
O O10 0.538122 0.158131 0.964639
O O11 0.415940 0.135494 0.195812
O O12 0.497913 0.000000 0.000000
#
# Coordination Sequence:
#
# PCOD9316531 Si02
#       6
#     8   8   4   8   8   8
#     4   9  18  31  50  79 110 136 188 233 283 340
#     4   9  19  31  50  81 106 148 187 227 296 334
#     4  10  20  28  52  90 108 146 182 216 290 364
#     4  10  18  34  58  81 119 142 181 241 295 333
#     4  10  18  32  53  76 111 155 191 221 274 349
#     4   9  18  34  54  73 109 156 176 234 291 320
#
# _framework density 26.466079000000001
#
# number of rings (size 3 to 8) (size 9 to 14) (size 15 to 20)
#    0.000    2.545    1.818    1.091    5.091    0.000 
#    0.000   14.545    0.000    0.000   21.273    1.273 
#    0.000    0.000    0.000    0.000    0.000    0.000 
#
# Total GULP energy -122591.095228 kJ/mol
# GULP energy per Si atom -5572.322510 kJ/mol
# Density = 2.640584 g / cm^3
# Si number density = 26.466079 Si / 1000 Ang^3
#
#
#
# Elastic Constant Matrix: (Units=GPa)
#
#
# Indices 1 2 3 4 5 6 
#
# 1 286.5713 11.4530 36.4846 0.0000 0.0000 0.0000
# 2 11.4530 65.1054 6.5581 0.0000 0.0000 0.0000
# 3 36.4846 6.5581 46.5360 0.0000 0.0000 0.0000
# 4 0.0000 0.0000 0.0000 15.0774 0.0000 0.0000
# 5 0.0000 0.0000 0.0000 0.0000 36.8852 0.0000
# 6 0.0000 0.0000 0.0000 0.0000 0.0000 25.0156
#
#
#
# Elastic Compliance Matrix: (Units=1/GPa)
#
#
# Indices 1 2 3 4 5 6 
#
# 1 0.003886 -0.000382 -0.002993 0.000000 0.000000 0.000000
# 2 -0.000382 0.015618 -0.001901 0.000000 0.000000 0.000000
# 3 -0.002993 -0.001901 0.024103 0.000000 0.000000 0.000000
# 4 0.000000 0.000000 0.000000 0.066324 0.000000 0.000000
# 5 0.000000 0.000000 0.000000 0.000000 0.027111 0.000000
# 6 0.000000 0.000000 0.000000 0.000000 0.000000 0.039975
#
#
# Mechanical properties :
#
#
# Convention : Reuss Voigt Hill
#
# Bulk Modulus (GPa) = 30.25281 56.35600 43.30441
# Shear Modulus (GPa) = 25.17770 38.31012 31.74391
#
# Velocity S-wave (km/s) = 3.08769 3.80875 3.46702
# Velocity P-wave (km/s) = 4.91604 6.37825 5.69427
#
# Compressibility (1/GPa) = 0.03305478
#
# Stress axis : x y z
#
# Youngs Moduli (GPa) = 257.34647 64.02682 41.48868
#
# Poissons Ratio (x) = 0.02447 0.12416
# Poissons Ratio (y) = 0.09834 0.07889
# Poissons Ratio (z) = 0.77015 0.12174
#
# Static dielectric constant tensor:
#      x y z
#    x 2.250600 0.000000 0.000000 
#    y 0.000000 2.069890 0.000000 
#    z 0.000000 0.000000 2.106930 
# 
# From -- ./inp_files/8328.got.cif
#   From: 2010.05.17/outbox.cif.g08.bks.cpg/sg20_5_cif.got.tgz:8328.got - 2010.06.03 22:52:26.
