data_PCOD9316841
_publ_section_title
;
Structure prediction by ZEFSAII (Michael W. Deem and Ramdas Pophale) SiO2 
 PCOD9316841
Probable space group: C 2 2 21
;
_chemical_formula_sum "Si O2"
_cell_formula_units_Z 56
_cell_length_a 13.284713
_cell_length_b 8.457114
_cell_length_c 20.949180
_cell_angle_alpha 90.000000
_cell_angle_beta 90.000000
_cell_angle_gamma 90.000000
_cell_volume 2353.647334
_symmetry_space_group_name_H-M "C 2 2 21"
_symmetry_group_IT_number 20
_symmetry_cell_setting 'orthorhombic'
loop_
_space_group_symop_operation_xyz
x,y,z
-x,-y,1/2+z
x,-y,-z
-x,y,1/2-z
1/2+x,1/2+y,z
1/2-x,1/2-y,1/2+z
1/2+x,1/2-y,-z
1/2-x,1/2+y,1/2-z
loop_
_atom_site_type_symbol
_atom_site_label
_atom_site_fract_x
_atom_site_fract_y
_atom_site_fract_z
Si Si1 0.154085 0.500000 0.500000
Si Si2 0.400052 0.225888 0.167888
Si Si3 0.281759 0.797621 0.718632
Si Si4 0.625425 0.659179 0.530771
Si Si5 0.919106 0.831665 0.699499
Si Si6 0.914486 0.499211 0.641607
Si Si7 0.675533 0.000000 0.000000
Si Si8 0.231031 0.980211 0.128862
O O1 0.092968 0.334865 0.507941
O O2 0.228384 0.514923 0.558721
O O3 0.368288 0.285486 0.237430
O O4 0.384100 0.339963 0.107536
O O5 0.504374 0.135424 0.158395
O O6 0.315855 0.087367 0.162993
O O7 0.177982 0.801167 0.756118
O O8 0.321420 0.961438 0.689071
O O9 0.266459 0.692452 0.656560
O O10 0.578680 0.500000 0.500000
O O11 0.743614 0.642372 0.511185
O O12 0.953146 0.670535 0.664148
O O13 0.877404 0.946768 0.644637
O O14 0.000000 0.890530 0.750000
O O15 0.884239 0.490645 0.566961
#
# Coordination Sequence:
#
# PCOD9316841 Si02
#       8
#     4   8   8   8   8   8   4   8
#     4  10  18  39  66  99 130 176 234 275 350 413
#     4  10  22  41  68  97 137 171 236 281 343 427
#     4  11  22  39  65  95 133 176 221 292 355 403
#     4   9  21  40  69  95 134 182 227 278 342 406
#     4  11  23  41  64  95 131 172 231 279 340 419
#     4  12  23  40  70  98 132 182 226 284 348 414
#     4  10  22  41  66  99 136 184 238 277 346 423
#     4  10  22  39  64  92 132 173 218 289 340 414
#
# _framework density 23.792859
#
# number of rings (size 3 to 8) (size 9 to 14) (size 15 to 20)
#    0.429    1.143    0.000    7.286    0.000    3.429 
#    0.000    1.429   18.857    0.857    0.000    0.000 
#    0.000    0.000    0.000    0.000    0.000    0.000 
#
# Total GULP energy -156335.519673 kJ/mol
# GULP energy per Si atom -5583.411417 kJ/mol
# Density = 2.373871 g / cm^3
# Si number density = 23.792859 Si / 1000 Ang^3
#
#
#
# Elastic Constant Matrix: (Units=GPa)
#
#
# Indices 1 2 3 4 5 6 
#
# 1 70.5357 6.0890 23.0686 0.0000 0.0000 0.0000
# 2 6.0890 72.3511 15.9875 0.0000 0.0000 0.0000
# 3 23.0686 15.9875 81.1391 0.0000 0.0000 0.0000
# 4 0.0000 0.0000 0.0000 33.4487 0.0000 0.0000
# 5 0.0000 0.0000 0.0000 0.0000 30.1886 0.0000
# 6 0.0000 0.0000 0.0000 0.0000 0.0000 28.5344
#
#
#
# Elastic Compliance Matrix: (Units=1/GPa)
#
#
# Indices 1 2 3 4 5 6 
#
# 1 0.015639 -0.000349 -0.004378 0.000000 0.000000 0.000000
# 2 -0.000349 0.014458 -0.002750 0.000000 0.000000 0.000000
# 3 -0.004378 -0.002750 0.014111 0.000000 0.000000 0.000000
# 4 0.000000 0.000000 0.000000 0.029897 0.000000 0.000000
# 5 0.000000 0.000000 0.000000 0.000000 0.033125 0.000000
# 6 0.000000 0.000000 0.000000 0.000000 0.000000 0.035045
#
#
# Mechanical properties :
#
#
# Convention : Reuss Voigt Hill
#
# Bulk Modulus (GPa) = 34.18086 34.92401 34.55244
# Shear Modulus (GPa) = 29.94376 30.35972 30.15174
#
# Velocity S-wave (km/s) = 3.55141 3.57599 3.56372
# Velocity P-wave (km/s) = 5.58694 5.63565 5.61135
#
# Compressibility (1/GPa) = 0.02925614
#
# Stress axis : x y z
#
# Youngs Moduli (GPa) = 63.94261 69.16374 70.86726
#
# Poissons Ratio (x) = 0.02413 0.31023
# Poissons Ratio (y) = 0.02231 0.19486
# Poissons Ratio (z) = 0.27991 0.19018
#
# Static dielectric constant tensor:
#      x y z
#    x 1.923630 0.000000 0.000000 
#    y 0.000000 1.860100 0.000000 
#    z 0.000000 0.000000 0.199190 
# 
# From -- ./inp_files/27625.got.cif
#   From: 2010.05.17/outbox.cif.g08.bks.cpg/sg20_14_cif.got.tgz:27625.got - 2010.06.03 22:52:26.
