data_PCOD9316296
_publ_section_title
;
Structure prediction by ZEFSAII (Michael W. Deem and Ramdas Pophale) SiO2 
 PCOD9316296
Probable space group: C 2 2 21
;
_chemical_formula_sum "Si O2"
_cell_formula_units_Z 48
_cell_length_a 9.444793
_cell_length_b 13.828007
_cell_length_c 15.662728
_cell_angle_alpha 90.000000
_cell_angle_beta 90.000000
_cell_angle_gamma 90.000000
_cell_volume 2045.593998
_symmetry_space_group_name_H-M "C 2 2 21"
_symmetry_group_IT_number 20
_symmetry_cell_setting 'orthorhombic'
loop_
_space_group_symop_operation_xyz
x,y,z
-x,-y,1/2+z
x,-y,-z
-x,y,1/2-z
1/2+x,1/2+y,z
1/2-x,1/2-y,1/2+z
1/2+x,1/2-y,-z
1/2-x,1/2+y,1/2-z
loop_
_atom_site_type_symbol
_atom_site_label
_atom_site_fract_x
_atom_site_fract_y
_atom_site_fract_z
Si Si1 0.920445 0.978227 0.342958
Si Si2 0.345596 0.991151 0.241387
Si Si3 0.827249 0.251553 0.908589
Si Si4 0.352357 0.268486 0.421042
Si Si5 0.839260 0.744343 0.765354
Si Si6 0.808641 0.979808 0.087441
O O1 0.768155 0.025237 0.328034
O O2 0.885687 0.873819 0.381634
O O3 0.000000 0.966925 0.250000
O O4 0.035585 0.026955 0.404017
O O5 0.500000 0.033065 0.250000
O O6 0.352931 0.873699 0.231331
O O7 0.277625 0.009729 0.332003
O O8 0.760420 0.269776 0.815058
O O9 0.828869 0.134685 0.910509
O O10 0.992036 0.282354 0.922262
O O11 0.723424 0.278664 0.987093
O O12 0.238192 0.225860 0.353227
O O13 0.000000 0.781977 0.750000
O O14 0.732975 0.000000 0.000000
#
# Coordination Sequence:
#
# PCOD9316296 Si02
#       6
#     8   8   8   8   8   8
#     4   8  15  29  49  69  87 119 159 192 225 266
#     4   8  14  26  47  69  86 110 151 196 230 260
#     4  10  19  29  47  73  95 124 155 190 237 277
#     4  10  17  28  45  68  97 118 149 193 232 275
#     4   9  16  28  46  69  93 119 152 193 236 275
#     4   9  17  30  47  66  92 122 155 188 220 269
#
# _framework density 23.465067999999999
#
# number of rings (size 3 to 8) (size 9 to 14) (size 15 to 20)
#    0.000    3.000    0.000    4.500    0.000    1.333 
#    0.000    0.833    0.000   18.000    0.000    0.000 
#    0.000    0.000    0.000    0.000    0.000    0.000 
#
# Total GULP energy -133858.675357 kJ/mol
# GULP energy per Si atom -5577.444807 kJ/mol
# Density = 2.341166 g / cm^3
# Si number density = 23.465068 Si / 1000 Ang^3
#
#
#
# Elastic Constant Matrix: (Units=GPa)
#
#
# Indices 1 2 3 4 5 6 
#
# 1 151.7441 -20.1445 8.5001 0.0000 0.0000 0.0000
# 2 -20.1445 56.0969 -34.1062 0.0000 0.0000 0.0000
# 3 8.5001 -34.1062 66.5289 0.0000 0.0000 0.0000
# 4 0.0000 0.0000 0.0000 -1.2004 0.0000 0.0000
# 5 0.0000 0.0000 0.0000 0.0000 3.0308 0.0000
# 6 0.0000 0.0000 0.0000 0.0000 0.0000 -1.1845
#
#
#
# Elastic Compliance Matrix: (Units=1/GPa)
#
#
# Indices 1 2 3 4 5 6 
#
# 1 0.006935 0.002835 0.000568 0.000000 0.000000 0.000000
# 2 0.002835 0.027058 0.013509 0.000000 0.000000 0.000000
# 3 0.000568 0.013509 0.021884 0.000000 0.000000 0.000000
# 4 0.000000 0.000000 0.000000 -0.833064 0.000000 0.000000
# 5 0.000000 0.000000 0.000000 0.000000 0.329941 0.000000
# 6 0.000000 0.000000 0.000000 0.000000 0.000000 -0.844208
#
#
# Mechanical properties :
#
#
# Convention : Reuss Voigt Hill
#
# Bulk Modulus (GPa) = 11.14832 20.31875 15.73354
# Shear Modulus (GPa) = -3.85988 21.47055 8.80534
#
# Velocity S-wave (km/s) = -1.28395 3.02818 1.93925
# Velocity P-wave (km/s) = 1.60104 4.57214 3.42548
#
# Compressibility (1/GPa) = 0.08969963
#
# Stress axis : x y z
#
# Youngs Moduli (GPa) = 144.20347 36.95809 45.69566
#
# Poissons Ratio (x) = -0.10479 -0.02593
# Poissons Ratio (y) = -0.40886 -0.61730
# Poissons Ratio (z) = -0.08184 -0.49926
#
# Static dielectric constant tensor:
#      x y z
#    x 1.956620 0.000000 0.000000 
#    y 0.000000 1.933260 0.000000 
#    z 0.000000 0.000000 1.855930 
# 
# From -- ./inp_files/19036.got.cif
#   From: 2010.05.17/outbox.cif.g08.bks.cpg/sg20_10_cif.got.tgz:19036.got - 2010.06.03 22:52:26.
