data_PCOD9316404
_publ_section_title
;
Structure prediction by ZEFSAII (Michael W. Deem and Ramdas Pophale) SiO2 
 PCOD9316404
Probable space group: C 2 2 21
;
_chemical_formula_sum "Si O2"
_cell_formula_units_Z 40
_cell_length_a 10.706376
_cell_length_b 10.068371
_cell_length_c 17.338391
_cell_angle_alpha 90.000000
_cell_angle_beta 90.000000
_cell_angle_gamma 90.000000
_cell_volume 1869.005133
_symmetry_space_group_name_H-M "C 2 2 21"
_symmetry_group_IT_number 20
_symmetry_cell_setting 'orthorhombic'
loop_
_space_group_symop_operation_xyz
x,y,z
-x,-y,1/2+z
x,-y,-z
-x,y,1/2-z
1/2+x,1/2+y,z
1/2-x,1/2-y,1/2+z
1/2+x,1/2-y,-z
1/2-x,1/2+y,1/2-z
loop_
_atom_site_type_symbol
_atom_site_label
_atom_site_fract_x
_atom_site_fract_y
_atom_site_fract_z
Si Si1 0.043650 0.000000 0.000000
Si Si2 0.078918 0.500000 0.500000
Si Si3 0.371506 0.112807 0.597809
Si Si4 0.185143 0.926290 0.682670
Si Si5 0.823888 0.788433 0.973773
Si Si6 0.900664 0.094121 0.346215
O O1 0.127379 0.012502 0.076327
O O2 0.947110 0.124385 0.003548
O O3 0.985915 0.520171 0.573001
O O4 0.150553 0.360844 0.499875
O O5 0.291018 0.152331 0.522197
O O6 0.416632 0.250727 0.633743
O O7 0.277680 0.039798 0.654993
O O8 0.202264 0.811115 0.617527
O O9 0.193301 0.906890 0.774391
O O10 0.038780 0.960816 0.672979
#
# Coordination Sequence:
#
# PCOD9316404 Si02
#       6
#     4   4   8   8   8   8
#     4  10  17  41  66  84 120 170 203 249 318 368
#     4  12  23  39  66  96 126 164 211 267 308 380
#     4  12  21  43  65  89 129 167 209 259 324 377
#     4  10  20  41  64  90 128 166 203 264 317 374
#     4  11  21  40  68  94 121 167 214 253 315 385
#     4  10  22  39  66  91 125 169 209 261 318 373
#
# _framework density 21.401759999999999
#
# number of rings (size 3 to 8) (size 9 to 14) (size 15 to 20)
#    0.000    1.200   10.000    0.000    0.000    0.800 
#   10.800    0.000    0.000    0.000    0.000    0.000 
#    0.000    0.000    0.000    0.000    0.000    0.000 
#
# Total GULP energy -111545.271926 kJ/mol
# GULP energy per Si atom -5577.263596 kJ/mol
# Density = 2.135305 g / cm^3
# Si number density = 21.401760 Si / 1000 Ang^3
#
#
#
# Elastic Constant Matrix: (Units=GPa)
#
#
# Indices 1 2 3 4 5 6 
#
# 1 43.9601 28.8689 1.8227 0.0000 0.0000 0.0000
# 2 28.8689 126.4299 32.7031 0.0000 0.0000 0.0000
# 3 1.8227 32.7031 114.5796 0.0000 0.0000 0.0000
# 4 0.0000 0.0000 0.0000 0.6726 0.0000 0.0000
# 5 0.0000 0.0000 0.0000 0.0000 3.6709 0.0000
# 6 0.0000 0.0000 0.0000 0.0000 0.0000 27.4107
#
#
#
# Elastic Compliance Matrix: (Units=1/GPa)
#
#
# Indices 1 2 3 4 5 6 
#
# 1 0.026978 -0.006531 0.001435 0.000000 0.000000 0.000000
# 2 -0.006531 0.010121 -0.002785 0.000000 0.000000 0.000000
# 3 0.001435 -0.002785 0.009500 0.000000 0.000000 0.000000
# 4 0.000000 0.000000 0.000000 1.486714 0.000000 0.000000
# 5 0.000000 0.000000 0.000000 0.000000 0.272414 0.000000
# 6 0.000000 0.000000 0.000000 0.000000 0.000000 0.036482
#
#
# Mechanical properties :
#
#
# Convention : Reuss Voigt Hill
#
# Bulk Modulus (GPa) = 32.42955 45.75101 39.09028
# Shear Modulus (GPa) = 2.67630 21.12250 11.89940
#
# Velocity S-wave (km/s) = 1.11947 3.14499 2.36053
# Velocity P-wave (km/s) = 4.10568 5.88316 5.07288
#
# Compressibility (1/GPa) = 0.03083608
#
# Stress axis : x y z
#
# Youngs Moduli (GPa) = 37.06792 98.80243 105.26777
#
# Poissons Ratio (x) = 0.64530 -0.15106
# Poissons Ratio (y) = 0.24210 0.29316
# Poissons Ratio (z) = -0.05319 0.27515
#
# Static dielectric constant tensor:
#      x y z
#    x 1.794000 0.000000 0.000000 
#    y 0.000000 1.759800 0.000000 
#    z 0.000000 0.000000 1.891950 
# 
# From -- ./inp_files/24095.got.cif
#   From: 2010.05.17/outbox.cif.g08.bks.cpg/sg20_13_cif.got.tgz:24095.got - 2010.06.03 22:52:26.
