data_PCOD9316510
_publ_section_title
;
Structure prediction by ZEFSAII (Michael W. Deem and Ramdas Pophale) SiO2 
 PCOD9316510
Probable space group: C 2 2 21
;
_chemical_formula_sum "Si O2"
_cell_formula_units_Z 48
_cell_length_a 13.399161
_cell_length_b 13.047867
_cell_length_c 15.891475
_cell_angle_alpha 90.000000
_cell_angle_beta 90.000000
_cell_angle_gamma 90.000000
_cell_volume 2778.314053
_symmetry_space_group_name_H-M "C 2 2 21"
_symmetry_group_IT_number 20
_symmetry_cell_setting 'orthorhombic'
loop_
_space_group_symop_operation_xyz
x,y,z
-x,-y,1/2+z
x,-y,-z
-x,y,1/2-z
1/2+x,1/2+y,z
1/2-x,1/2-y,1/2+z
1/2+x,1/2-y,-z
1/2-x,1/2+y,1/2-z
loop_
_atom_site_type_symbol
_atom_site_label
_atom_site_fract_x
_atom_site_fract_y
_atom_site_fract_z
Si Si1 0.409657 0.362228 0.127684
Si Si2 0.632072 0.652701 0.824311
Si Si3 0.619906 0.885056 0.884820
Si Si4 0.090941 0.357104 0.550032
Si Si5 0.657594 0.925677 0.378013
Si Si6 0.500000 0.024807 0.750000
Si Si7 0.718399 0.500000 0.500000
O O1 0.378542 0.369499 0.225136
O O2 0.529368 0.379249 0.129338
O O3 0.389519 0.245151 0.101081
O O4 0.350600 0.432492 0.062073
O O5 0.643663 0.774383 0.844097
O O6 0.729361 0.593702 0.854237
O O7 0.528216 0.872162 0.949981
O O8 0.569413 0.955124 0.811554
O O9 0.710521 0.934557 0.936699
O O10 0.131021 0.353771 0.456198
O O11 0.138817 0.457015 0.593204
O O12 0.577626 0.909819 0.304294
#
# Coordination Sequence:
#
# PCOD9316510 Si02
#       7
#     8   8   8   8   8   4   4
#     4  10  22  37  52  75 107 143 179 216 261 324
#     4  10  20  36  56  75 105 147 180 208 263 329
#     4  10  19  34  56  80 108 143 176 215 268 327
#     4   9  19  35  53  76 104 134 172 213 260 318
#     4  10  18  31  56  81 102 131 175 222 261 306
#     4  10  18  32  54  80 106 136 176 222 264 316
#     4  12  22  34  56  86 110 134 180 236 270 298
#
# _framework density 17.276665000000001
#
# number of rings (size 3 to 8) (size 9 to 14) (size 15 to 20)
#    0.000    2.000    0.000    7.000    0.000    1.333 
#    0.000    0.000    0.000   14.000    0.000    0.000 
#    0.000    0.000    0.000    0.000    0.000    0.000 
#
# Total GULP energy -133807.518822 kJ/mol
# GULP energy per Si atom -5575.313284 kJ/mol
# Density = 1.723734 g / cm^3
# Si number density = 17.276665 Si / 1000 Ang^3
#
#
#
# Elastic Constant Matrix: (Units=GPa)
#
#
# Indices 1 2 3 4 5 6 
#
# 1 127.2304 47.1213 71.6681 0.0000 0.0000 0.0000
# 2 47.1213 44.3169 21.7126 0.0000 0.0000 0.0000
# 3 71.6681 21.7126 99.2035 0.0000 0.0000 0.0000
# 4 0.0000 0.0000 0.0000 19.1173 0.0000 0.0000
# 5 0.0000 0.0000 0.0000 0.0000 30.9942 0.0000
# 6 0.0000 0.0000 0.0000 0.0000 0.0000 -68.3949
#
#
#
# Elastic Compliance Matrix: (Units=1/GPa)
#
#
# Indices 1 2 3 4 5 6 
#
# 1 0.019810 -0.015740 -0.010867 0.000000 0.000000 0.000000
# 2 -0.015740 0.037781 0.003102 0.000000 0.000000 0.000000
# 3 -0.010867 0.003102 0.017252 0.000000 0.000000 0.000000
# 4 0.000000 0.000000 0.000000 0.052309 0.000000 0.000000
# 5 0.000000 0.000000 0.000000 0.000000 0.032264 0.000000
# 6 0.000000 0.000000 0.000000 0.000000 0.000000 -0.014621
#
#
# Mechanical properties :
#
#
# Convention : Reuss Voigt Hill
#
# Bulk Modulus (GPa) = 35.92744 61.30610 48.61677
# Shear Modulus (GPa) = 24.86539 5.02657 14.94598
#
# Velocity S-wave (km/s) = 3.79786 1.70756 2.94444
# Velocity P-wave (km/s) = 6.33025 6.28090 6.30562
#
# Compressibility (1/GPa) = 0.02783388
#
# Stress axis : x y z
#
# Youngs Moduli (GPa) = 50.47838 26.46830 57.96464
#
# Poissons Ratio (x) = 0.41661 0.62989
# Poissons Ratio (y) = 0.79453 -0.17981
# Poissons Ratio (z) = 0.54854 -0.08211
#
# Static dielectric constant tensor:
#      x y z
#    x 1.572760 0.000000 0.000000 
#    y 0.000000 1.578920 0.000000 
#    z 0.000000 0.000000 1.635710 
# 
# From -- ./inp_files/20696.got.cif
#   From: 2010.05.17/outbox.cif.g08.bks.cpg/sg20_11_cif.got.tgz:20696.got - 2010.06.03 22:52:26.
