data_PCOD9316972
_publ_section_title
;
Structure prediction by ZEFSAII (Michael W. Deem and Ramdas Pophale) SiO2 
 PCOD9316972
Probable space group: C 2 2 21
;
_chemical_formula_sum "Si O2"
_cell_formula_units_Z 48
_cell_length_a 29.457589
_cell_length_b 8.991108
_cell_length_c 10.058278
_cell_angle_alpha 90.000000
_cell_angle_beta 90.000000
_cell_angle_gamma 90.000000
_cell_volume 2663.998940
_symmetry_space_group_name_H-M "C 2 2 21"
_symmetry_group_IT_number 20
_symmetry_cell_setting 'orthorhombic'
loop_
_space_group_symop_operation_xyz
x,y,z
-x,-y,1/2+z
x,-y,-z
-x,y,1/2-z
1/2+x,1/2+y,z
1/2-x,1/2-y,1/2+z
1/2+x,1/2-y,-z
1/2-x,1/2+y,1/2-z
loop_
_atom_site_type_symbol
_atom_site_label
_atom_site_fract_x
_atom_site_fract_y
_atom_site_fract_z
Si Si1 0.275988 0.104496 0.129047
Si Si2 0.431385 0.328736 0.965492
Si Si3 0.211598 0.389951 0.126635
Si Si4 0.983832 0.363097 0.399292
Si Si5 0.390660 0.170605 0.709217
Si Si6 0.379766 0.108732 0.128057
O O1 0.243633 0.246042 0.114768
O O2 0.328040 0.158748 0.143962
O O3 0.269844 0.994674 0.254305
O O4 0.272582 0.000000 0.000000
O O5 0.481550 0.267370 0.937883
O O6 0.401208 0.275937 0.837106
O O7 0.429758 0.500000 0.000000
O O8 0.412121 0.241922 0.092696
O O9 0.161124 0.326358 0.160036
O O10 0.209484 0.500000 0.000000
O O11 0.988977 0.500000 0.500000
O O12 0.931930 0.307173 0.392240
O O13 0.000000 0.407705 0.250000
O O14 0.395410 0.998151 0.754828
O O15 0.380470 0.000000 0.000000
#
# Coordination Sequence:
#
# PCOD9316972 Si02
#       6
#     8   8   8   8   8   8
#     4  10  21  37  57  83 113 148 192 234 278 336
#     4  10  19  32  53  81 109 139 182 234 282 329
#     4  11  22  37  58  85 116 150 188 236 290 340
#     4  10  19  35  57  79 104 141 185 227 272 333
#     4   9  19  36  54  76 109 147 185 227 277 338
#     4   8  16  33  54  74 100 139 185 222 256 318
#
# _framework density 18.018025999999999
#
# number of rings (size 3 to 8) (size 9 to 14) (size 15 to 20)
#    0.000    2.333    0.000    5.000    0.000    2.000 
#    0.000    8.333    0.000    0.000    0.000    0.000 
#    0.000    0.000    0.000    0.000    0.000    0.000 
#
# Total GULP energy -133750.997011 kJ/mol
# GULP energy per Si atom -5572.958209 kJ/mol
# Density = 1.797702 g / cm^3
# Si number density = 18.018026 Si / 1000 Ang^3
#
#
#
# Elastic Constant Matrix: (Units=GPa)
#
#
# Indices 1 2 3 4 5 6 
#
# 1 126.1498 82.4193 28.0045 0.0000 0.0000 0.0000
# 2 82.4193 127.3438 49.7479 0.0000 0.0000 0.0000
# 3 28.0045 49.7479 74.2633 0.0000 0.0000 0.0000
# 4 0.0000 0.0000 0.0000 22.0468 0.0000 0.0000
# 5 0.0000 0.0000 0.0000 0.0000 -52.1566 0.0000
# 6 0.0000 0.0000 0.0000 0.0000 0.0000 17.4891
#
#
#
# Elastic Compliance Matrix: (Units=1/GPa)
#
#
# Indices 1 2 3 4 5 6 
#
# 1 0.013796 -0.009341 0.001055 0.000000 0.000000 0.000000
# 2 -0.009341 0.016961 -0.007839 0.000000 0.000000 0.000000
# 3 0.001055 -0.007839 0.018319 0.000000 0.000000 0.000000
# 4 0.000000 0.000000 0.000000 0.045358 0.000000 0.000000
# 5 0.000000 0.000000 0.000000 0.000000 -0.019173 0.000000
# 6 0.000000 0.000000 0.000000 0.000000 0.000000 0.057179
#
#
# Mechanical properties :
#
#
# Convention : Reuss Voigt Hill
#
# Bulk Modulus (GPa) = 59.43459 72.01113 65.72286
# Shear Modulus (GPa) = 29.36014 8.64820 19.00417
#
# Velocity S-wave (km/s) = 4.04107 2.19321 3.25119
# Velocity P-wave (km/s) = 7.40483 6.81663 7.11681
#
# Compressibility (1/GPa) = 0.01682522
#
# Stress axis : x y z
#
# Youngs Moduli (GPa) = 72.48586 58.95872 54.58733
#
# Poissons Ratio (x) = 0.55074 -0.05759
# Poissons Ratio (y) = 0.67710 0.42793
# Poissons Ratio (z) = -0.07648 0.46220
#
# Static dielectric constant tensor:
#      x y z
#    x 1.652120 0.000000 0.000000 
#    y 0.000000 1.584580 0.000000 
#    z 0.000000 0.000000 1.660760 
# 
# From -- ./inp_files/11466.got.cif
#   From: 2010.05.17/outbox.cif.g08.bks.cpg/sg20_6_cif.got.tgz:11466.got - 2010.06.03 22:52:26.
