data_PCOD9316208
_publ_section_title
;
Structure prediction by ZEFSAII (Michael W. Deem and Ramdas Pophale) SiO2 
 PCOD9316208
Probable space group: C 2 2 21
;
_chemical_formula_sum "Si O2"
_cell_formula_units_Z 56
_cell_length_a 33.556391
_cell_length_b 25.001279
_cell_length_c 5.439098
_cell_angle_alpha 90.000000
_cell_angle_beta 90.000000
_cell_angle_gamma 90.000000
_cell_volume 4563.145918
_symmetry_space_group_name_H-M "C 2 2 21"
_symmetry_group_IT_number 20
_symmetry_cell_setting 'orthorhombic'
loop_
_space_group_symop_operation_xyz
x,y,z
-x,-y,1/2+z
x,-y,-z
-x,y,1/2-z
1/2+x,1/2+y,z
1/2-x,1/2-y,1/2+z
1/2+x,1/2-y,-z
1/2-x,1/2+y,1/2-z
loop_
_atom_site_type_symbol
_atom_site_label
_atom_site_fract_x
_atom_site_fract_y
_atom_site_fract_z
Si Si1 0.112938 0.603988 0.500001
Si Si2 0.253672 0.648300 0.500000
Si Si3 0.524703 0.936275 0.500000
Si Si4 0.667257 0.797339 0.500000
Si Si5 0.263190 0.872985 0.500000
Si Si6 0.697116 0.242443 1.000000
Si Si7 0.654008 0.937109 0.999999
O O1 0.065768 0.596015 0.500000
O O2 0.129051 0.664710 0.500000
O O3 0.130330 0.577848 0.750604
O O4 0.130331 0.577847 0.249399
O O5 0.206370 0.663670 0.500000
O O6 0.260118 0.616610 0.750175
O O7 0.278074 0.703281 0.500000
O O8 0.260118 0.616610 0.249825
O O9 0.500000 0.925701 0.750000
O O10 0.534358 0.000000 0.500000
O O11 0.500000 0.925701 0.250000
O O12 0.671920 0.764046 0.249526
O O13 0.671920 0.764046 0.750475
O O14 0.272845 0.808777 0.500000
O O15 0.305119 0.903492 0.500000
O O16 0.662192 0.000000 0.000000
#
# Coordination Sequence:
#
# PCOD9316208 Si02
#       7
#     8   8   8   8   8   8   8
#     4  12  20  34  45  57  73  90 111 149 186 226
#     4  10  16  25  40  53  75  97 112 135 163 198
#     4  10  21  35  47  58  68  83 114 150 188 236
#     4  10  16  26  38  56  75  88 112 135 163 211
#     4  10  16  27  34  53  73  89 118 140 157 205
#     4  10  16  25  39  55  75  97 111 133 164 200
#     4  12  21  30  42  56  73  94 116 144 183 220
#
# _framework density 12.272235999999999
#
# number of rings (size 3 to 8) (size 9 to 14) (size 15 to 20)
#    0.000    1.429    5.714    6.429    0.000    1.143 
#    0.000    0.000    0.000    0.000    0.000    0.000 
#    0.000    0.000    0.000    0.000    0.000    0.000 
#
# Total GULP energy -156044.697635 kJ/mol
# GULP energy per Si atom -5573.024916 kJ/mol
# Density = 1.224430 g / cm^3
# Si number density = 12.272236 Si / 1000 Ang^3
#
#
#
# Elastic Constant Matrix: (Units=GPa)
#
#
# Indices 1 2 3 4 5 6 
#
# 1 60.3971 36.3763 35.1720 0.0000 0.0000 0.0000
# 2 36.3763 25.4793 25.1374 0.0000 0.0000 0.0000
# 3 35.1720 25.1374 143.7494 0.0000 0.0000 0.0000
# 4 0.0000 0.0000 0.0000 10.1411 0.0000 0.0000
# 5 0.0000 0.0000 0.0000 0.0000 13.2859 0.0000
# 6 0.0000 0.0000 0.0000 0.0000 0.0000 15.0689
#
#
#
# Elastic Compliance Matrix: (Units=1/GPa)
#
#
# Indices 1 2 3 4 5 6 
#
# 1 0.118218 -0.169481 0.000712 0.000000 0.000000 0.000000
# 2 -0.169481 0.290402 -0.009315 0.000000 0.000000 0.000000
# 3 0.000712 -0.009315 0.008411 0.000000 0.000000 0.000000
# 4 0.000000 0.000000 0.000000 0.098609 0.000000 0.000000
# 5 0.000000 0.000000 0.000000 0.000000 0.075268 0.000000
# 6 0.000000 0.000000 0.000000 0.000000 0.000000 0.066362
#
#
# Mechanical properties :
#
#
# Convention : Reuss Voigt Hill
#
# Bulk Modulus (GPa) = 16.42994 46.99970 31.71482
# Shear Modulus (GPa) = 4.83688 16.56184 10.69936
#
# Velocity S-wave (km/s) = 1.98743 3.67759 2.95589
# Velocity P-wave (km/s) = 4.32244 7.51090 6.12769
#
# Compressibility (1/GPa) = 0.06086448
#
# Stress axis : x y z
#
# Youngs Moduli (GPa) = 8.45892 3.44351 118.88864
#
# Poissons Ratio (x) = 0.58361 -0.08463
# Poissons Ratio (y) = 1.43362 1.10740
# Poissons Ratio (z) = -0.00602 0.03207
#
# Static dielectric constant tensor:
#      x y z
#    x 1.367250 0.000000 0.000000 
#    y 0.000000 1.377750 0.000000 
#    z 0.000000 0.000000 1.496030 
# 
# From -- ./inp_files/4394.got.cif
#   From: 2010.05.17/outbox.cif.g08.bks.cpg/sg20_3_cif.got.tgz:4394.got - 2010.06.03 22:52:26.
