data_PCOD9316472
_publ_section_title
;
Structure prediction by ZEFSAII (Michael W. Deem and Ramdas Pophale) SiO2 
 PCOD9316472
Probable space group: C 2 2 21
;
_chemical_formula_sum "Si O2"
_cell_formula_units_Z 56
_cell_length_a 8.872870
_cell_length_b 19.604027
_cell_length_c 16.382053
_cell_angle_alpha 90.000000
_cell_angle_beta 90.000000
_cell_angle_gamma 90.000000
_cell_volume 2849.559549
_symmetry_space_group_name_H-M "C 2 2 21"
_symmetry_group_IT_number 20
_symmetry_cell_setting 'orthorhombic'
loop_
_space_group_symop_operation_xyz
x,y,z
-x,-y,1/2+z
x,-y,-z
-x,y,1/2-z
1/2+x,1/2+y,z
1/2-x,1/2-y,1/2+z
1/2+x,1/2-y,-z
1/2-x,1/2+y,1/2-z
loop_
_atom_site_type_symbol
_atom_site_label
_atom_site_fract_x
_atom_site_fract_y
_atom_site_fract_z
Si Si1 0.819196 0.218164 0.250931
Si Si2 0.192107 0.757094 0.929476
Si Si3 0.683577 0.537383 0.375308
Si Si4 0.189096 0.404039 0.536177
Si Si5 0.438738 0.000000 0.500000
Si Si6 0.152890 0.196326 0.422667
Si Si7 0.328464 0.928509 0.779228
Si Si8 0.556025 0.500000 0.000000
O O1 0.790412 0.261648 0.333309
O O2 0.787509 0.238540 0.157028
O O3 0.724619 0.149654 0.266691
O O4 0.000000 0.203241 0.250000
O O5 0.293775 0.824045 0.949683
O O6 0.017846 0.779557 0.939330
O O7 0.244914 0.704129 0.997466
O O8 0.832078 0.513769 0.423336
O O9 0.655795 0.617604 0.394559
O O10 0.716658 0.529944 0.279722
O O11 0.546437 0.500840 0.419587
O O12 0.182841 0.440273 0.625056
O O13 0.338965 0.433919 0.496647
O O14 0.044990 0.433724 0.489926
O O15 0.500000 0.936408 0.750000
#
# Coordination Sequence:
#
# PCOD9316472 Si02
#       8
#     8   8   8   8   4   8   8   4
#     4   8  18  34  52  77 108 138 179 226 266 315
#     4  10  20  34  56  82 107 140 180 224 273 323
#     4  10  20  35  54  82 107 141 179 225 271 319
#     4  10  20  35  54  82 107 141 179 225 271 319
#     4  10  20  32  54  78 112 140 170 220 270 328
#     4  10  20  34  56  82 107 140 180 224 273 323
#     4  10  18  30  52  81 108 130 177 230 272 307
#     4  10  20  36  54  74 108 144 178 220 266 320
#
# _framework density 19.652159000000001
#
# number of rings (size 3 to 8) (size 9 to 14) (size 15 to 20)
#    0.000    2.286    2.857    0.000    4.000    1.143 
#    0.000    0.000    0.000   10.286    0.000    0.000 
#    0.000    0.000    0.000    0.000    0.000    0.000 
#
# Total GULP energy -155988.787365 kJ/mol
# GULP energy per Si atom -5571.028120 kJ/mol
# Density = 1.960743 g / cm^3
# Si number density = 19.652159 Si / 1000 Ang^3
#
#
#
# Elastic Constant Matrix: (Units=GPa)
#
#
# Indices 1 2 3 4 5 6 
#
# 1 62.7741 1.4802 21.5236 0.0000 0.0000 0.0000
# 2 1.4802 10.0443 9.0712 0.0000 0.0000 0.0000
# 3 21.5236 9.0712 105.0941 0.0000 0.0000 0.0000
# 4 0.0000 0.0000 0.0000 25.2730 0.0000 0.0000
# 5 0.0000 0.0000 0.0000 0.0000 25.4838 0.0000
# 6 0.0000 0.0000 0.0000 0.0000 0.0000 22.6724
#
#
#
# Elastic Compliance Matrix: (Units=1/GPa)
#
#
# Indices 1 2 3 4 5 6 
#
# 1 0.017138 0.000699 -0.003570 0.000000 0.000000 0.000000
# 2 0.000699 0.108004 -0.009465 0.000000 0.000000 0.000000
# 3 -0.003570 -0.009465 0.011063 0.000000 0.000000 0.000000
# 4 0.000000 0.000000 0.000000 0.039568 0.000000 0.000000
# 5 0.000000 0.000000 0.000000 0.000000 0.039241 0.000000
# 6 0.000000 0.000000 0.000000 0.000000 0.000000 0.044107
#
#
# Mechanical properties :
#
#
# Convention : Reuss Voigt Hill
#
# Bulk Modulus (GPa) = 8.96606 26.89583 17.93094
# Shear Modulus (GPa) = 15.57769 24.40833 19.99301
#
# Velocity S-wave (km/s) = 2.81849 3.52805 3.19304
# Velocity P-wave (km/s) = 3.89412 5.50562 4.76844
#
# Compressibility (1/GPa) = 0.11153177
#
# Stress axis : x y z
#
# Youngs Moduli (GPa) = 58.35056 9.25888 90.38746
#
# Poissons Ratio (x) = -0.00647 0.32270
# Poissons Ratio (y) = -0.04077 0.85556
# Poissons Ratio (z) = 0.20832 0.08764
#
# Static dielectric constant tensor:
#      x y z
#    x 1.709440 0.000000 0.000000 
#    y 0.000000 1.702420 0.000000 
#    z 0.000000 0.000000 1.747470 
# 
# From -- ./inp_files/23963.got.cif
#   From: 2010.05.17/outbox.cif.g08.bks.cpg/sg20_12_cif.got.tgz:23963.got - 2010.06.03 22:52:26.
