data_PCOD9316706
_publ_section_title
;
Structure prediction by ZEFSAII (Michael W. Deem and Ramdas Pophale) SiO2 
 PCOD9316706
Probable space group: C 2 2 21
;
_chemical_formula_sum "Si O2"
_cell_formula_units_Z 60
_cell_length_a 8.395713
_cell_length_b 13.547277
_cell_length_c 24.794290
_cell_angle_alpha 90.000000
_cell_angle_beta 90.000000
_cell_angle_gamma 90.000000
_cell_volume 2820.078981
_symmetry_space_group_name_H-M "C 2 2 21"
_symmetry_group_IT_number 20
_symmetry_cell_setting 'orthorhombic'
loop_
_space_group_symop_operation_xyz
x,y,z
-x,-y,1/2+z
x,-y,-z
-x,y,1/2-z
1/2+x,1/2+y,z
1/2-x,1/2-y,1/2+z
1/2+x,1/2-y,-z
1/2-x,1/2+y,1/2-z
loop_
_atom_site_type_symbol
_atom_site_label
_atom_site_fract_x
_atom_site_fract_y
_atom_site_fract_z
Si Si1 0.670875 0.917121 0.745443
Si Si2 0.804569 0.688235 0.428456
Si Si3 0.627333 0.885442 0.408421
Si Si4 0.686089 0.902224 0.036447
Si Si5 0.816247 0.000000 0.500000
Si Si6 0.972350 0.716260 0.326735
Si Si7 0.866367 0.940032 0.317738
Si Si8 0.563938 0.516922 0.413732
O O1 0.500000 0.973573 0.750000
O O2 0.668761 0.849443 0.798833
O O3 0.629185 0.835406 0.698601
O O4 0.810596 0.992282 0.731990
O O5 0.685524 0.774154 0.411754
O O6 0.832611 0.683899 0.492426
O O7 0.957902 0.702476 0.390694
O O8 0.712065 0.589145 0.412911
O O9 0.440296 0.895339 0.415898
O O10 0.706727 0.929327 0.354827
O O11 0.707510 0.935022 0.461092
O O12 0.861950 0.916359 0.060790
O O13 0.652472 0.000000 0.000000
O O14 0.933127 0.946948 0.543052
O O15 0.938586 0.829952 0.310631
O O16 0.987521 0.997334 0.356532
#
# Coordination Sequence:
#
# PCOD9316706 Si02
#       8
#     8   8   8   8   4   8   8   8
#     4   8  20  41  65  86 122 156 207 266 326 372
#     4  10  20  35  54  81 127 152 206 256 299 367
#     4  10  22  32  57  85 114 165 209 242 304 379
#     4  10  20  35  54  83 122 166 194 244 303 361
#     4  10  18  36  48  78 116 156 202 242 286 368
#     4   8  20  40  60  92 116 158 212 254 312 397
#     4  10  20  41  65  89 123 163 201 266 317 372
#     4  10  21  35  55  85 125 155 201 249 310 364
#
# _framework density 21.276001000000001
#
# number of rings (size 3 to 8) (size 9 to 14) (size 15 to 20)
#    0.800    1.600    2.667    0.000    5.600    1.067 
#    7.200    2.667    0.000    0.000    0.000    0.000 
#    0.000    0.000    0.000    0.000    0.000    0.000 
#
# Total GULP energy -167019.157814 kJ/mol
# GULP energy per Si atom -5567.305260 kJ/mol
# Density = 2.122758 g / cm^3
# Si number density = 21.276001 Si / 1000 Ang^3
#
#
#
# Elastic Constant Matrix: (Units=GPa)
#
#
# Indices 1 2 3 4 5 6 
#
# 1 38.6158 -5.2285 1.9413 0.0000 0.0000 0.0000
# 2 -5.2285 55.5695 6.9152 0.0000 0.0000 0.0000
# 3 1.9413 6.9152 46.6491 0.0000 0.0000 0.0000
# 4 0.0000 0.0000 0.0000 19.4595 0.0000 0.0000
# 5 0.0000 0.0000 0.0000 0.0000 40.7141 0.0000
# 6 0.0000 0.0000 0.0000 0.0000 0.0000 2.9960
#
#
#
# Elastic Compliance Matrix: (Units=1/GPa)
#
#
# Indices 1 2 3 4 5 6 
#
# 1 0.026332 0.002663 -0.001491 0.000000 0.000000 0.000000
# 2 0.002663 0.018603 -0.002869 0.000000 0.000000 0.000000
# 3 -0.001491 -0.002869 0.021924 0.000000 0.000000 0.000000
# 4 0.000000 0.000000 0.000000 0.051389 0.000000 0.000000
# 5 0.000000 0.000000 0.000000 0.000000 0.024562 0.000000
# 6 0.000000 0.000000 0.000000 0.000000 0.000000 0.333775
#
#
# Mechanical properties :
#
#
# Convention : Reuss Voigt Hill
#
# Bulk Modulus (GPa) = 15.75635 16.45448 16.10541
# Shear Modulus (GPa) = 9.97742 21.78101 15.87921
#
# Velocity S-wave (km/s) = 2.16788 3.20306 2.73489
# Velocity P-wave (km/s) = 3.69973 4.62926 4.19035
#
# Compressibility (1/GPa) = 0.06346649
#
# Stress axis : x y z
#
# Youngs Moduli (GPa) = 37.97712 53.75474 45.61234
#
# Poissons Ratio (x) = -0.14315 0.06799
# Poissons Ratio (y) = -0.10113 0.13084
# Poissons Ratio (z) = 0.05661 0.15420
#
# Static dielectric constant tensor:
#      x y z
#    x 1.758780 0.000000 0.000000 
#    y 0.000000 1.821320 0.000000 
#    z 0.000000 0.000000 1.851340 
# 
# From -- ./inp_files/28844.got.cif
#   From: 2010.05.17/outbox.cif.g08.bks.cpg/sg20_15_cif.got.tgz:28844.got - 2010.06.03 22:52:26.
