data_PCOD9316131
_publ_section_title
;
Structure prediction by ZEFSAII (Michael W. Deem and Ramdas Pophale) SiO2 
 PCOD9316131
Probable space group: P 21 21 21
;
_chemical_formula_sum "Si O2"
_cell_formula_units_Z 32
_cell_length_a 9.000000
_cell_length_b 15.000000
_cell_length_c 12.000000
_cell_angle_alpha 90.000000
_cell_angle_beta 90.000000
_cell_angle_gamma 90.000000
_cell_volume 1620.000000
_symmetry_space_group_name_H-M "P 21 21 21"
_symmetry_group_IT_number 19
_symmetry_cell_setting 'orthorhombic'
loop_
_space_group_symop_operation_xyz
x,y,z
1/2-x,-y,1/2+z
1/2+x,1/2-y,-z
-x,1/2+y,1/2-z
loop_
_atom_site_type_symbol
_atom_site_label
_atom_site_fract_x
_atom_site_fract_y
_atom_site_fract_z
Si Si1 0.531312 0.245702 0.230944
Si Si2 0.846611 0.987171 0.091608
Si Si3 0.163168 0.403194 0.637050
Si Si4 0.007627 0.063488 0.293350
Si Si5 0.278062 0.823012 0.645136
Si Si6 0.830461 0.838853 0.517630
Si Si7 0.117959 0.962841 0.503627
Si Si8 0.043203 0.556556 0.801154
O O1 0.612983 0.196101 0.332337
O O2 0.375997 0.194030 0.210236
O O3 0.502145 0.350433 0.245546
O O4 0.632816 0.221654 0.124571
O O5 0.962192 0.997591 0.191778
O O6 0.700693 0.936027 0.135940
O O7 0.793718 0.087109 0.050832
O O8 0.891570 0.933394 0.983329
O O9 0.343372 0.413501 0.654006
O O10 0.081653 0.473540 0.720028
O O11 0.095007 0.143382 0.230213
O O12 0.112143 0.018599 0.388303
O O13 0.302675 0.728863 0.582822
O O14 0.249684 0.899147 0.549519
O O15 0.976353 0.896820 0.491869
O O16 0.077204 0.027105 0.607178
#
# Coordination Sequence:
#
# PCOD9316131 Si02
#       8
#     4   4   4   4   4   4   4   4
#     4  11  23  39  67  97 127 170 225 271 329 397
#     4  10  21  40  68  94 125 179 217 266 325 401
#     4  11  20  42  71  93 126 174 229 260 335 407
#     4  11  23  41  66  96 131 176 212 270 337 398
#     4  11  25  38  64 100 134 162 221 286 322 379
#     4  10  20  39  65  96 122 167 229 264 318 386
#     4  10  22  45  62  93 138 172 212 274 333 398
#     4  10  20  40  67  89 129 174 209 275 325 382
#
# _framework density 19.753086
#
# number of rings (size 3 to 8) (size 9 to 14) (size 15 to 20)
#    0.000    1.500    7.500    0.750    7.000    2.000 
#    2.250    0.000    2.750    0.000    0.000    0.000 
#    0.000    0.000    0.000    0.000    0.000    0.000 
#
# Total GULP energy -178556.805419 kJ/mol
# GULP energy per Si atom -5579.900169 kJ/mol
# Density = 1.970813 g / cm^3
# Si number density = 19.753086 Si / 1000 Ang^3
#
#
#
# Elastic Constant Matrix: (Units=GPa)
#
#
# Indices 1 2 3 4 5 6 
#
# 1 18.3499 9.1872 -7.7167 0.0000 0.0000 0.0000
# 2 9.1872 82.3445 -3.5537 0.0000 0.0000 0.0000
# 3 -7.7167 -3.5537 42.9520 0.0000 0.0000 0.0000
# 4 0.0000 0.0000 0.0000 47.2783 0.0000 0.0000
# 5 0.0000 0.0000 0.0000 0.0000 17.9489 0.0000
# 6 0.0000 0.0000 0.0000 0.0000 0.0000 17.4000
#
#
#
# Elastic Compliance Matrix: (Units=1/GPa)
#
#
# Indices 1 2 3 4 5 6 
#
# 1 0.062217 -0.006482 0.010642 0.000000 0.000000 0.000000
# 2 -0.006482 0.012863 -0.000100 0.000000 0.000000 0.000000
# 3 0.010642 -0.000100 0.025185 0.000000 0.000000 0.000000
# 4 0.000000 0.000000 0.000000 0.021151 0.000000 0.000000
# 5 0.000000 0.000000 0.000000 0.000000 0.055714 0.000000
# 6 0.000000 0.000000 0.000000 0.000000 0.000000 0.057471
#
#
# Mechanical properties :
#
#
# Convention : Reuss Voigt Hill
#
# Bulk Modulus (GPa) = 9.22655 15.49777 12.36216
# Shear Modulus (GPa) = 19.03955 26.24075 22.64015
#
# Velocity S-wave (km/s) = 3.10801 3.64873 3.38917
# Velocity P-wave (km/s) = 4.19055 5.06100 4.64620
#
# Compressibility (1/GPa) = 0.10838283
#
# Stress axis : x y z
#
# Youngs Moduli (GPa) = 16.07284 77.74236 39.70564
#
# Poissons Ratio (x) = 0.50395 -0.42253
# Poissons Ratio (y) = 0.10419 0.00399
# Poissons Ratio (z) = -0.17104 0.00780
#
# Static dielectric constant tensor:
#      x y z
#    x 1.719930 0.000000 0.000000 
#    y 0.000000 1.677010 0.000000 
#    z 0.000000 0.000000 1.741800 
# 
# From -- ./inp_files/4694.got.cif
#   From: 2010.05.17/outbox.ucp.g08.bks.cvg/sg19_3_cif.got.tgz:4694.got - 2010.06.11 13:13:52.
