data_PCOD9316290
_publ_section_title
;
Structure prediction by ZEFSAII (Michael W. Deem and Ramdas Pophale) SiO2 
 PCOD9316290
Probable space group: C 2 2 21
;
_chemical_formula_sum "Si O2"
_cell_formula_units_Z 28
_cell_length_a 7.662741
_cell_length_b 30.440424
_cell_length_c 5.391004
_cell_angle_alpha 90.000000
_cell_angle_beta 90.000000
_cell_angle_gamma 90.000000
_cell_volume 1257.489878
_symmetry_space_group_name_H-M "C 2 2 21"
_symmetry_group_IT_number 20
_symmetry_cell_setting 'orthorhombic'
loop_
_space_group_symop_operation_xyz
x,y,z
-x,-y,1/2+z
x,-y,-z
-x,y,1/2-z
1/2+x,1/2+y,z
1/2-x,1/2-y,1/2+z
1/2+x,1/2-y,-z
1/2-x,1/2+y,1/2-z
loop_
_atom_site_type_symbol
_atom_site_label
_atom_site_fract_x
_atom_site_fract_y
_atom_site_fract_z
Si Si1 0.185966 0.633511 0.491934
Si Si2 0.787500 0.597127 0.507411
Si Si3 0.616883 0.000000 0.000000
Si Si4 0.170871 0.736103 0.390765
O O1 0.281937 0.615498 0.250313
O O2 0.152855 0.685013 0.461318
O O3 0.996036 0.609556 0.500357
O O4 0.278128 0.621327 0.747796
O O5 0.775269 0.544862 0.522694
O O6 0.500000 0.996549 0.750000
O O7 0.198250 0.759590 0.655462
O O8 0.000000 0.753367 0.250000
#
# Coordination Sequence:
#
# PCOD9316290 Si02
#       4
#     8   8   4   8
#     4  10  18  31  48  68 100 146 185 216 284 344
#     4  10  17  27  47  67 109 142 188 210 282 355
#     4  12  16  24  38  74  98 150 178 220 258 352
#     4  12  25  40  61  84 113 151 207 253 294 347
#
# _framework density 22.266583000000001
#
# number of rings (size 3 to 8) (size 9 to 14) (size 15 to 20)
#    0.000    1.143    8.571    2.571    4.000    0.000 
#    0.000    0.000    0.000    0.000    0.000    0.000 
#    0.000    0.000    0.000  115.714    2.286    0.000 
#
# Total GULP energy -78118.406018 kJ/mol
# GULP energy per Si atom -5579.886144 kJ/mol
# Density = 2.221590 g / cm^3
# Si number density = 22.266583 Si / 1000 Ang^3
#
#
#
# Elastic Constant Matrix: (Units=GPa)
#
#
# Indices 1 2 3 4 5 6 
#
# 1 37.9002 -6.3862 7.3102 0.0000 0.0000 0.0000
# 2 -6.3862 77.0716 11.2046 0.0000 0.0000 0.0000
# 3 7.3102 11.2046 217.5477 0.0000 0.0000 0.0000
# 4 0.0000 0.0000 0.0000 50.6097 0.0000 0.0000
# 5 0.0000 0.0000 0.0000 0.0000 8.8817 0.0000
# 6 0.0000 0.0000 0.0000 0.0000 0.0000 -17.9322
#
#
#
# Elastic Compliance Matrix: (Units=1/GPa)
#
#
# Indices 1 2 3 4 5 6 
#
# 1 0.026986 0.002386 -0.001030 0.000000 0.000000 0.000000
# 2 0.002386 0.013284 -0.000764 0.000000 0.000000 0.000000
# 3 -0.001030 -0.000764 0.004671 0.000000 0.000000 0.000000
# 4 0.000000 0.000000 0.000000 0.019759 0.000000 0.000000
# 5 0.000000 0.000000 0.000000 0.000000 0.112591 0.000000
# 6 0.000000 0.000000 0.000000 0.000000 0.000000 -0.055766
#
#
# Mechanical properties :
#
#
# Convention : Reuss Voigt Hill
#
# Bulk Modulus (GPa) = 21.68086 39.64182 30.66134
# Shear Modulus (GPa) = 36.84181 29.67124 33.25653
#
# Velocity S-wave (km/s) = 4.07206 3.65437 3.86886
# Velocity P-wave (km/s) = 5.64509 5.97058 5.81011
#
# Compressibility (1/GPa) = 0.04612363
#
# Stress axis : x y z
#
# Youngs Moduli (GPa) = 37.05665 75.27996 214.10253
#
# Poissons Ratio (x) = -0.17960 0.22045
# Poissons Ratio (y) = -0.08841 0.16365
# Poissons Ratio (z) = 0.03816 0.05754
#
# Static dielectric constant tensor:
#      x y z
#    x 1.881830 0.000000 0.000000 
#    y 0.000000 1.768610 0.000000 
#    z 0.000000 0.000000 1.919800 
# 
# From -- ./inp_files/451.got.cif
#   From: 2010.05.17/outbox.cif.g08.bks.cpg/sg20_1_cif.got.tgz:451.got - 2010.06.03 22:52:26.
