data_PCOD9316016
_publ_section_title
;
Structure prediction by ZEFSAII (Michael W. Deem and Ramdas Pophale) SiO2 
 PCOD9316016
Probable space group: P 21 21 21
;
_chemical_formula_sum "Si O2"
_cell_formula_units_Z 16
_cell_length_a 12.065065
_cell_length_b 10.422843
_cell_length_c 4.716989
_cell_angle_alpha 90.000000
_cell_angle_beta 90.000000
_cell_angle_gamma 90.000000
_cell_volume 593.172113
_symmetry_space_group_name_H-M "P 21 21 21"
_symmetry_group_IT_number 19
_symmetry_cell_setting 'orthorhombic'
loop_
_space_group_symop_operation_xyz
x,y,z
1/2-x,-y,1/2+z
1/2+x,1/2-y,-z
-x,1/2+y,1/2-z
loop_
_atom_site_type_symbol
_atom_site_label
_atom_site_fract_x
_atom_site_fract_y
_atom_site_fract_z
Si Si1 0.379814 0.826884 0.817420
Si Si2 0.773447 0.305445 0.154387
Si Si3 0.999283 0.427928 0.292214
Si Si4 0.180957 0.539949 0.648085
O O1 0.288582 0.881173 0.597740
O O2 0.427711 0.693803 0.687287
O O3 0.472233 0.936334 0.860125
O O4 0.320378 0.791068 0.108388
O O5 0.879159 0.364441 0.308103
O O6 0.816338 0.181176 0.982443
O O7 0.065518 0.473172 0.571505
O O8 0.221157 0.531621 0.969007
#
# Coordination Sequence:
#
# PCOD9316016 Si02
#       4
#     4   4   4   4
#     4  12  28  46  74 104 144 184 238 293 349 429
#     4  12  26  48  70 106 144 185 238 292 351 422
#     4  12  26  48  73 107 140 192 232 292 359 412
#     4  12  24  44  71 103 140 183 232 285 345 417
#
# _framework density 26.973621000000001
#
# number of rings (size 3 to 8) (size 9 to 14) (size 15 to 20)
#    0.000    0.000    7.500    1.500    0.000    8.000 
#    0.000    0.000    0.000    0.000    0.000    0.000 
#    0.000    0.000    0.000    0.000    0.000    0.000 
#
# Total GULP energy -89537.092893 kJ/mol
# GULP energy per Si atom -5596.068306 kJ/mol
# Density = 2.691223 g / cm^3
# Si number density = 26.973621 Si / 1000 Ang^3
#
#
#
# Elastic Constant Matrix: (Units=GPa)
#
#
# Indices 1 2 3 4 5 6 
#
# 1 106.4309 31.6309 34.2651 0.0000 0.0000 0.0000
# 2 31.6309 127.8969 -6.9642 0.0000 0.0000 0.0000
# 3 34.2651 -6.9642 90.5566 0.0000 0.0000 0.0000
# 4 0.0000 0.0000 0.0000 22.9675 0.0000 0.0000
# 5 0.0000 0.0000 0.0000 0.0000 16.1752 0.0000
# 6 0.0000 0.0000 0.0000 0.0000 0.0000 54.6144
#
#
#
# Elastic Compliance Matrix: (Units=1/GPa)
#
#
# Indices 1 2 3 4 5 6 
#
# 1 0.011870 -0.003194 -0.004737 0.000000 0.000000 0.000000
# 2 -0.003194 0.008711 0.001878 0.000000 0.000000 0.000000
# 3 -0.004737 0.001878 0.012980 0.000000 0.000000 0.000000
# 4 0.000000 0.000000 0.000000 0.043540 0.000000 0.000000
# 5 0.000000 0.000000 0.000000 0.000000 0.061823 0.000000
# 6 0.000000 0.000000 0.000000 0.000000 0.000000 0.018310
#
#
# Mechanical properties :
#
#
# Convention : Reuss Voigt Hill
#
# Bulk Modulus (GPa) = 46.60700 49.19421 47.90060
# Shear Modulus (GPa) = 28.33023 36.48161 32.40592
#
# Velocity S-wave (km/s) = 3.24434 3.68161 3.46987
# Velocity P-wave (km/s) = 5.59916 6.02908 5.81809
#
# Compressibility (1/GPa) = 0.02145600
#
# Stress axis : x y z
#
# Youngs Moduli (GPa) = 84.24640 114.79884 77.04359
#
# Poissons Ratio (x) = 0.36662 0.36495
# Poissons Ratio (y) = 0.26905 -0.14471
# Poissons Ratio (z) = 0.39907 -0.21563
#
# Static dielectric constant tensor:
#      x y z
#    x 2.117810 0.000000 0.000000 
#    y 0.000000 2.190520 0.000000 
#    z 0.000000 0.000000 1.996100 
# 
# From -- ./inp_files/767.got.cif
#   From: 2010.05.17/outbox.cif.g08.bks.cpg/sg19_1_cif.got.tgz:767.got - 2010.06.03 22:46:19.
