data_PCOD9316207
_publ_section_title
;
Structure prediction by ZEFSAII (Michael W. Deem and Ramdas Pophale) SiO2 
 PCOD9316207
Probable space group: C 2 2 21
;
_chemical_formula_sum "Si O2"
_cell_formula_units_Z 52
_cell_length_a 22.749669
_cell_length_b 28.123227
_cell_length_c 5.441021
_cell_angle_alpha 90.000000
_cell_angle_beta 90.000000
_cell_angle_gamma 90.000000
_cell_volume 3481.133163
_symmetry_space_group_name_H-M "C 2 2 21"
_symmetry_group_IT_number 20
_symmetry_cell_setting 'orthorhombic'
loop_
_space_group_symop_operation_xyz
x,y,z
-x,-y,1/2+z
x,-y,-z
-x,y,1/2-z
1/2+x,1/2+y,z
1/2-x,1/2-y,1/2+z
1/2+x,1/2-y,-z
1/2-x,1/2+y,1/2-z
loop_
_atom_site_type_symbol
_atom_site_label
_atom_site_fract_x
_atom_site_fract_y
_atom_site_fract_z
Si Si1 0.193294 0.051499 0.068291
Si Si2 0.087678 0.103071 0.570481
Si Si3 0.095441 0.864397 0.928722
Si Si4 0.241597 0.310869 0.030889
Si Si5 0.537525 0.500000 0.500000
Si Si6 0.726176 0.411944 0.430149
Si Si7 0.812214 0.784836 0.531257
O O1 0.143953 0.092461 0.082514
O O2 0.224901 0.054175 0.331929
O O3 0.233878 0.064143 0.834660
O O4 0.167257 0.000000 0.000000
O O5 0.065485 0.131182 0.333858
O O6 0.075305 0.047422 0.536733
O O7 0.158888 0.109073 0.581587
O O8 0.062172 0.121700 0.825458
O O9 0.127752 0.814242 0.961342
O O10 0.231306 0.367166 0.032571
O O11 0.188925 0.272521 0.031454
O O12 0.278066 0.300076 0.281804
O O13 0.277863 0.300482 0.779911
O O14 0.500000 0.493937 0.750000
#
# Coordination Sequence:
#
# PCOD9316207 Si02
#       7
#     8   8   8   8   4   8   8
#     4  10  18  23  34  48  71  85 108 146 168 202
#     4  10  20  30  46  52  69  84 111 152 180 232
#     4  10  17  28  40  61  70  88 117 132 178 223
#     4  10  16  25  37  54  78  98 108 133 159 208
#     4  12  26  40  46  58  70  92 124 162 222 262
#     4  10  17  28  38  57  68  86 119 132 176 221
#     4  10  16  25  37  54  80  96 108 131 161 210
#
# _framework density 14.937664
#
# number of rings (size 3 to 8) (size 9 to 14) (size 15 to 20)
#    0.000    1.846    6.154    1.385    8.615    0.000 
#    0.000    0.000    0.000    0.000    0.000    0.000 
#    0.000    0.000    0.000    0.000    0.000    0.000 
#
# Total GULP energy -144764.762760 kJ/mol
# GULP energy per Si atom -5567.875491 kJ/mol
# Density = 1.490367 g / cm^3
# Si number density = 14.937664 Si / 1000 Ang^3
#
#
#
# Elastic Constant Matrix: (Units=GPa)
#
#
# Indices 1 2 3 4 5 6 
#
# 1 15.2040 17.9116 3.9228 0.0000 0.0000 0.0000
# 2 17.9116 46.2524 3.9517 0.0000 0.0000 0.0000
# 3 3.9228 3.9517 140.6223 0.0000 0.0000 0.0000
# 4 0.0000 0.0000 0.0000 21.2676 0.0000 0.0000
# 5 0.0000 0.0000 0.0000 0.0000 -19.5514 0.0000
# 6 0.0000 0.0000 0.0000 0.0000 0.0000 11.2298
#
#
#
# Elastic Compliance Matrix: (Units=1/GPa)
#
#
# Indices 1 2 3 4 5 6 
#
# 1 0.121554 -0.046896 -0.002073 0.000000 0.000000 0.000000
# 2 -0.046896 0.039765 0.000191 0.000000 0.000000 0.000000
# 3 -0.002073 0.000191 0.007164 0.000000 0.000000 0.000000
# 4 0.000000 0.000000 0.000000 0.047020 0.000000 0.000000
# 5 0.000000 0.000000 0.000000 0.000000 -0.051147 0.000000
# 6 0.000000 0.000000 0.000000 0.000000 0.000000 0.089049
#
#
# Mechanical properties :
#
#
# Convention : Reuss Voigt Hill
#
# Bulk Modulus (GPa) = 14.09908 28.18345 21.14126
# Shear Modulus (GPa) = 13.34752 14.34206 13.84479
#
# Velocity S-wave (km/s) = 2.99247 3.10195 3.04770
# Velocity P-wave (km/s) = 4.62590 5.63363 5.15445
#
# Compressibility (1/GPa) = 0.07092664
#
# Stress axis : x y z
#
# Youngs Moduli (GPa) = 8.22681 25.14781 139.59233
#
# Poissons Ratio (x) = 1.17932 0.28938
# Poissons Ratio (y) = 0.38580 -0.02663
# Poissons Ratio (z) = 0.01705 -0.00480
#
# Static dielectric constant tensor:
#      x y z
#    x 1.472380 0.000000 0.000000 
#    y 0.000000 1.641260 0.000000 
#    z 0.000000 0.000000 1.541060 
# 
# From -- ./inp_files/3894.got.cif
#   From: 2010.05.17/outbox.cif.g08.bks.cpg/sg20_2_cif.got.tgz:3894.got - 2010.06.03 22:52:26.
