data_PCOD9316311
_publ_section_title
;
Structure prediction by ZEFSAII (Michael W. Deem and Ramdas Pophale) SiO2 
 PCOD9316311
Probable space group: C 2 2 21
;
_chemical_formula_sum "Si O2"
_cell_formula_units_Z 60
_cell_length_a 30.400961
_cell_length_b 5.090314
_cell_length_c 17.985048
_cell_angle_alpha 90.000000
_cell_angle_beta 90.000000
_cell_angle_gamma 90.000000
_cell_volume 2783.194045
_symmetry_space_group_name_H-M "C 2 2 21"
_symmetry_group_IT_number 20
_symmetry_cell_setting 'orthorhombic'
loop_
_space_group_symop_operation_xyz
x,y,z
-x,-y,1/2+z
x,-y,-z
-x,y,1/2-z
1/2+x,1/2+y,z
1/2-x,1/2-y,1/2+z
1/2+x,1/2-y,-z
1/2-x,1/2+y,1/2-z
loop_
_atom_site_type_symbol
_atom_site_label
_atom_site_fract_x
_atom_site_fract_y
_atom_site_fract_z
Si Si1 0.920037 0.194367 0.181535
Si Si2 0.643089 0.500000 0.000000
Si Si3 0.451552 0.219294 0.649331
Si Si4 0.712334 0.126199 0.923476
Si Si5 0.267753 0.147786 0.207765
Si Si6 0.629402 0.795732 0.705083
Si Si7 0.873454 0.621559 0.376481
Si Si8 0.502970 0.699807 0.659804
O O1 0.941936 0.250458 0.262199
O O2 0.901775 0.487828 0.163804
O O3 0.877495 0.005528 0.182317
O O4 0.954306 0.985898 0.144323
O O5 0.676694 0.337765 0.949006
O O6 0.617901 0.691745 0.945486
O O7 0.466200 0.507372 0.626696
O O8 0.406035 0.124224 0.614659
O O9 0.489584 0.996851 0.636551
O O10 0.747767 0.251490 0.869958
O O11 0.679037 0.931366 0.880124
O O12 0.729879 0.000000 0.000000
O O13 0.254122 0.376431 0.265872
O O14 0.320091 0.121139 0.200814
O O15 0.616492 0.787869 0.792771
O O16 0.500000 0.713513 0.750000
#
# Coordination Sequence:
#
# PCOD9316311 Si02
#       8
#     8   4   8   8   8   8   8   8
#     4  10  20  33  50  77 117 148 185 226 294 349
#     4  10  22  36  58  70 114 156 198 232 298 348
#     4  10  19  27  50  73 106 145 181 219 266 338
#     4  10  23  40  56  84 116 164 196 250 300 363
#     4  12  24  39  61  88 122 157 210 252 307 361
#     4  11  21  34  56  82 112 157 189 246 294 356
#     4  10  20  34  50  78 111 150 192 231 290 349
#     4  10  17  30  45  73 106 145 176 216 269 336
#
# _framework density 21.557964999999999
#
# number of rings (size 3 to 8) (size 9 to 14) (size 15 to 20)
#    0.000    1.600    1.333    6.800    9.333    0.000 
#    0.000    0.000    0.000    0.000    0.000    0.000 
#   12.000    0.000    0.000    0.000    0.000    0.000 
#
# Total GULP energy -167180.644593 kJ/mol
# GULP energy per Si atom -5572.688153 kJ/mol
# Density = 2.150890 g / cm^3
# Si number density = 21.557965 Si / 1000 Ang^3
#
#
#
# Elastic Constant Matrix: (Units=GPa)
#
#
# Indices 1 2 3 4 5 6 
#
# 1 94.9795 21.1855 15.6551 0.0000 0.0000 0.0000
# 2 21.1855 124.8735 6.4726 0.0000 0.0000 0.0000
# 3 15.6551 6.4726 34.6751 0.0000 0.0000 0.0000
# 4 0.0000 0.0000 0.0000 21.5078 0.0000 0.0000
# 5 0.0000 0.0000 0.0000 0.0000 19.5780 0.0000
# 6 0.0000 0.0000 0.0000 0.0000 0.0000 41.3851
#
#
#
# Elastic Compliance Matrix: (Units=1/GPa)
#
#
# Indices 1 2 3 4 5 6 
#
# 1 0.011735 -0.001733 -0.004975 0.000000 0.000000 0.000000
# 2 -0.001733 0.008342 -0.000775 0.000000 0.000000 0.000000
# 3 -0.004975 -0.000775 0.031230 0.000000 0.000000 0.000000
# 4 0.000000 0.000000 0.000000 0.046495 0.000000 0.000000
# 5 0.000000 0.000000 0.000000 0.000000 0.051078 0.000000
# 6 0.000000 0.000000 0.000000 0.000000 0.000000 0.024163
#
#
# Mechanical properties :
#
#
# Convention : Reuss Voigt Hill
#
# Bulk Modulus (GPa) = 27.51629 37.90606 32.71118
# Shear Modulus (GPa) = 24.98477 30.57518 27.77998
#
# Velocity S-wave (km/s) = 3.40804 3.77009 3.59363
# Velocity P-wave (km/s) = 5.31770 6.04755 5.69433
#
# Compressibility (1/GPa) = 0.03634211
#
# Stress axis : x y z
#
# Youngs Moduli (GPa) = 85.21438 119.87125 32.02079
#
# Poissons Ratio (x) = 0.20775 0.15929
# Poissons Ratio (y) = 0.14768 0.02481
# Poissons Ratio (z) = 0.42391 0.09287
#
# Static dielectric constant tensor:
#      x y z
#    x 1.849670 0.000000 0.000000 
#    y 0.000000 1.862850 0.000000 
#    z 0.000000 0.000000 1.780520 
# 
# From -- ./inp_files/25750.got.cif
#   From: 2010.05.17/outbox.cif.g08.bks.cpg/sg20_13_cif.got.tgz:25750.got - 2010.06.03 22:52:26.
