data_PCOD9316143
_publ_section_title
;
Structure prediction by ZEFSAII (Michael W. Deem and Ramdas Pophale) SiO2 
 PCOD9316143
Probable space group: P 21 21 21
;
_chemical_formula_sum "Si O2"
_cell_formula_units_Z 28
_cell_length_a 12.000000
_cell_length_b 6.000000
_cell_length_c 18.000000
_cell_angle_alpha 90.000000
_cell_angle_beta 90.000000
_cell_angle_gamma 90.000000
_cell_volume 1296.000000
_symmetry_space_group_name_H-M "P 21 21 21"
_symmetry_group_IT_number 19
_symmetry_cell_setting 'orthorhombic'
loop_
_space_group_symop_operation_xyz
x,y,z
1/2-x,-y,1/2+z
1/2+x,1/2-y,-z
-x,1/2+y,1/2-z
loop_
_atom_site_type_symbol
_atom_site_label
_atom_site_fract_x
_atom_site_fract_y
_atom_site_fract_z
Si Si1 0.129651 0.994709 0.309599
Si Si2 0.438858 0.369497 0.178486
Si Si3 0.419023 0.342280 0.939438
Si Si4 0.294461 0.627379 0.060570
Si Si5 0.866960 0.284768 0.662450
Si Si6 0.020609 0.003849 0.563405
Si Si7 0.422584 0.193479 0.645335
O O1 0.237358 0.148161 0.329659
O O2 0.014045 0.126269 0.326161
O O3 0.131082 0.792343 0.369248
O O4 0.127661 0.914945 0.222458
O O5 0.349160 0.510203 0.132497
O O6 0.557162 0.492469 0.167893
O O7 0.401792 0.348880 0.263256
O O8 0.446481 0.134300 0.136964
O O9 0.506617 0.516395 0.903678
O O10 0.323724 0.462212 0.990871
O O11 0.484666 0.172691 0.995604
O O12 0.172810 0.703993 0.090457
O O13 0.375039 0.837509 0.044425
O O14 0.913324 0.150620 0.589861
#
# Coordination Sequence:
#
# PCOD9316143 Si02
#       7
#     4   4   4   4   4   4   4
#     4  12  28  49  79 114 152 207 264 320 383 467
#     4  10  21  40  75 111 148 191 245 315 380 451
#     4  11  26  54  75 113 153 206 254 321 398 457
#     4  10  25  49  79 108 150 198 256 316 385 465
#     4  11  23  42  77 114 147 193 257 314 382 462
#     4  10  22  48  72 111 149 194 249 316 390 449
#     4  12  27  52  81 113 153 211 267 316 388 473
#
# _framework density 21.604938000000001
#
# number of rings (size 3 to 8) (size 9 to 14) (size 15 to 20)
#    0.000    1.143    2.857    1.714    4.000    3.429 
#   33.429    0.000    0.000    0.000    0.000    0.000 
#    0.000    0.000    0.000    0.000    0.000    0.000 
#
# Total GULP energy -156613.382107 kJ/mol
# GULP energy per Si atom -5593.335075 kJ/mol
# Density = 2.155576 g / cm^3
# Si number density = 21.604938 Si / 1000 Ang^3
#
#
#
# Elastic Constant Matrix: (Units=GPa)
#
#
# Indices 1 2 3 4 5 6 
#
# 1 136.1182 40.3523 39.3289 0.0000 0.0000 0.0000
# 2 40.3523 90.6125 44.3609 0.0000 0.0000 0.0000
# 3 39.3289 44.3609 150.3894 0.0000 0.0000 0.0000
# 4 0.0000 0.0000 0.0000 58.3414 0.0000 0.0000
# 5 0.0000 0.0000 0.0000 0.0000 31.1474 0.0000
# 6 0.0000 0.0000 0.0000 0.0000 0.0000 30.9974
#
#
#
# Elastic Compliance Matrix: (Units=1/GPa)
#
#
# Indices 1 2 3 4 5 6 
#
# 1 0.008683 -0.003220 -0.001321 0.000000 0.000000 0.000000
# 2 -0.003220 0.014093 -0.003315 0.000000 0.000000 0.000000
# 3 -0.001321 -0.003315 0.007973 0.000000 0.000000 0.000000
# 4 0.000000 0.000000 0.000000 0.017140 0.000000 0.000000
# 5 0.000000 0.000000 0.000000 0.000000 0.032105 0.000000
# 6 0.000000 0.000000 0.000000 0.000000 0.000000 0.032261
#
#
# Mechanical properties :
#
#
# Convention : Reuss Voigt Hill
#
# Bulk Modulus (GPa) = 66.50421 69.46714 67.98568
# Shear Modulus (GPa) = 37.60000 40.96912 39.28456
#
# Velocity S-wave (km/s) = 4.17627 4.35936 4.26880
# Velocity P-wave (km/s) = 7.35552 7.58695 7.47213
#
# Compressibility (1/GPa) = 0.01503664
#
# Stress axis : x y z
#
# Youngs Moduli (GPa) = 115.17065 70.95795 125.42902
#
# Poissons Ratio (x) = 0.22849 0.16567
# Poissons Ratio (y) = 0.37085 0.41579
# Poissons Ratio (z) = 0.15212 0.23522
#
# Static dielectric constant tensor:
#      x y z
#    x 1.771320 0.000000 0.000000 
#    y 0.000000 1.843910 0.000000 
#    z 0.000000 0.000000 1.770560 
# 
# From -- ./inp_files/6703.got.cif
#   From: 2010.05.17/outbox.ucp.g08.bks.cvg/sg19_4_cif.got.tgz:6703.got - 2010.06.11 13:13:52.
