data_PCOD9316572
_publ_section_title
;
Structure prediction by ZEFSAII (Michael W. Deem and Ramdas Pophale) SiO2 
 PCOD9316572
Probable space group: C 2 2 21
;
_chemical_formula_sum "Si O2"
_cell_formula_units_Z 36
_cell_length_a 14.978607
_cell_length_b 14.227205
_cell_length_c 8.996594
_cell_angle_alpha 90.000000
_cell_angle_beta 90.000000
_cell_angle_gamma 90.000000
_cell_volume 1917.207580
_symmetry_space_group_name_H-M "C 2 2 21"
_symmetry_group_IT_number 20
_symmetry_cell_setting 'orthorhombic'
loop_
_space_group_symop_operation_xyz
x,y,z
-x,-y,1/2+z
x,-y,-z
-x,y,1/2-z
1/2+x,1/2+y,z
1/2-x,1/2-y,1/2+z
1/2+x,1/2-y,-z
1/2-x,1/2+y,1/2-z
loop_
_atom_site_type_symbol
_atom_site_label
_atom_site_fract_x
_atom_site_fract_y
_atom_site_fract_z
Si Si1 0.997354 0.500000 0.000000
Si Si2 0.167595 0.408215 0.654704
Si Si3 0.919698 0.683741 0.639771
Si Si4 0.097016 0.229679 0.825288
Si Si5 0.759681 0.605585 0.821544
O O1 0.929769 0.548920 0.115658
O O2 0.053957 0.418356 0.073852
O O3 0.150278 0.319386 0.757602
O O4 0.211319 0.383483 0.494999
O O5 0.223389 0.496192 0.717416
O O6 0.913037 0.752463 0.500609
O O7 0.828237 0.669177 0.728104
O O8 0.000000 0.710689 0.750000
O O9 0.159700 0.140244 0.798578
O O10 0.000000 0.224242 0.750000
#
# Coordination Sequence:
#
# PCOD9316572 Si02
#       5
#     4   8   8   8   8
#     4  10  18  32  58  90 114 150 186 260 296 354
#     4  10  20  39  61  87 121 156 195 251 311 345
#     4  12  20  32  58  89 123 149 191 252 303 351
#     4  12  23  37  60  92 122 161 202 246 295 361
#     4  10  22  37  59  87 126 156 201 246 305 350
#
# _framework density 18.777308999999999
#
# number of rings (size 3 to 8) (size 9 to 14) (size 15 to 20)
#    0.000    1.333    6.667    2.667    0.000    0.000 
#    0.000    0.000    0.000   25.333    0.000    0.000 
#    0.000    0.000    0.000    0.000    0.000    0.000 
#
# Total GULP energy -100566.782420 kJ/mol
# GULP energy per Si atom -5587.043468 kJ/mol
# Density = 1.873457 g / cm^3
# Si number density = 18.777309 Si / 1000 Ang^3
#
#
#
# Elastic Constant Matrix: (Units=GPa)
#
#
# Indices 1 2 3 4 5 6 
#
# 1 120.3962 60.1014 43.4703 0.0000 0.0000 0.0000
# 2 60.1014 54.5775 34.5769 0.0000 0.0000 0.0000
# 3 43.4703 34.5769 54.3780 0.0000 0.0000 0.0000
# 4 0.0000 0.0000 0.0000 9.5118 0.0000 0.0000
# 5 0.0000 0.0000 0.0000 0.0000 1.3882 0.0000
# 6 0.0000 0.0000 0.0000 0.0000 0.0000 25.3001
#
#
#
# Elastic Compliance Matrix: (Units=1/GPa)
#
#
# Indices 1 2 3 4 5 6 
#
# 1 0.018756 -0.018681 -0.003116 0.000000 0.000000 0.000000
# 2 -0.018681 0.049288 -0.016407 0.000000 0.000000 0.000000
# 3 -0.003116 -0.016407 0.031313 0.000000 0.000000 0.000000
# 4 0.000000 0.000000 0.000000 0.105133 0.000000 0.000000
# 5 0.000000 0.000000 0.000000 0.000000 0.720351 0.000000
# 6 0.000000 0.000000 0.000000 0.000000 0.000000 0.039525
#
#
# Mechanical properties :
#
#
# Convention : Reuss Voigt Hill
#
# Bulk Modulus (GPa) = 43.57108 56.18320 49.87714
# Shear Modulus (GPa) = 4.76906 13.32024 9.04465
#
# Velocity S-wave (km/s) = 1.59540 2.66631 2.19710
# Velocity P-wave (km/s) = 5.16219 6.28209 5.74947
#
# Compressibility (1/GPa) = 0.02295100
#
# Stress axis : x y z
#
# Youngs Moduli (GPa) = 53.31595 20.28872 31.93555
#
# Poissons Ratio (x) = 0.37901 0.09950
# Poissons Ratio (y) = 0.99598 0.52397
# Poissons Ratio (z) = 0.16611 0.33288
#
# Static dielectric constant tensor:
#      x y z
#    x 1.641810 0.000000 0.000000 
#    y 0.000000 1.650140 0.000000 
#    z 0.000000 0.000000 1.693820 
# 
# From -- ./inp_files/8026.got.cif
#   From: 2010.05.17/outbox.cif.g08.bks.cpg/sg20_5_cif.got.tgz:8026.got - 2010.06.03 22:52:26.
