data_PCOD9316353
_publ_section_title
;
Structure prediction by ZEFSAII (Michael W. Deem and Ramdas Pophale) SiO2 
 PCOD9316353
Probable space group: C 2 2 21
;
_chemical_formula_sum "Si O2"
_cell_formula_units_Z 64
_cell_length_a 7.365585
_cell_length_b 22.764245
_cell_length_c 16.851403
_cell_angle_alpha 90.000000
_cell_angle_beta 90.000000
_cell_angle_gamma 90.000000
_cell_volume 2825.508132
_symmetry_space_group_name_H-M "C 2 2 21"
_symmetry_group_IT_number 20
_symmetry_cell_setting 'orthorhombic'
loop_
_space_group_symop_operation_xyz
x,y,z
-x,-y,1/2+z
x,-y,-z
-x,y,1/2-z
1/2+x,1/2+y,z
1/2-x,1/2-y,1/2+z
1/2+x,1/2-y,-z
1/2-x,1/2+y,1/2-z
loop_
_atom_site_type_symbol
_atom_site_label
_atom_site_fract_x
_atom_site_fract_y
_atom_site_fract_z
Si Si1 0.855961 0.457898 0.568987
Si Si2 0.698728 0.664110 0.210809
Si Si3 0.037995 0.791774 0.942121
Si Si4 0.319409 0.644456 0.576233
Si Si5 0.041947 0.673294 0.024406
Si Si6 0.730616 0.491271 0.090458
Si Si7 0.179398 0.741183 0.158405
Si Si8 0.702983 0.961612 0.753118
O O1 0.781597 0.500000 0.500000
O O2 0.865421 0.389976 0.540595
O O3 0.752018 0.464577 0.652985
O O4 0.065253 0.480665 0.581950
O O5 0.500000 0.654521 0.250000
O O6 0.661024 0.673831 0.119680
O O7 0.785215 0.720006 0.253739
O O8 0.810177 0.606941 0.232145
O O9 0.117117 0.729283 0.972797
O O10 0.857419 0.777698 0.893037
O O11 0.019672 0.835063 0.017110
O O12 0.294206 0.578128 0.600195
O O13 0.336430 0.689621 0.648541
O O14 0.140569 0.659091 0.523874
O O15 0.029777 0.703979 0.110860
O O16 0.677917 0.515449 0.178580
O O17 0.653153 0.500000 0.000000
O O18 0.500000 0.989177 0.750000
#
# Coordination Sequence:
#
# PCOD9316353 Si02
#       8
#     8   8   8   8   8   8   8   8
#     4  10  18  32  52  78 107 135 173 226 264 304
#     4  10  19  34  50  72 106 134 174 217 266 320
#     4   9  20  31  51  79 102 139 175 215 271 317
#     4  10  18  33  54  75 107 137 173 221 269 313
#     4  10  17  33  54  75 103 137 175 218 267 313
#     4  10  18  31  51  82 107 134 171 223 267 305
#     4   9  19  33  51  76 105 141 172 219 265 320
#     4  10  21  33  55  81 101 138 184 222 260 318
#
# _framework density 22.650793
#
# number of rings (size 3 to 8) (size 9 to 14) (size 15 to 20)
#    0.000    2.250    3.750    0.750    1.750    0.000 
#    2.250    1.875    2.750    0.000    0.000    0.875 
#    0.000    0.000    0.000    0.000    0.000    0.000 
#
# Total GULP energy -178251.451200 kJ/mol
# GULP energy per Si atom -5570.357850 kJ/mol
# Density = 2.259924 g / cm^3
# Si number density = 22.650793 Si / 1000 Ang^3
#
#
#
# Elastic Constant Matrix: (Units=GPa)
#
#
# Indices 1 2 3 4 5 6 
#
# 1 47.6341 7.3683 -4.0950 0.0000 0.0000 0.0000
# 2 7.3683 158.2810 54.1277 0.0000 0.0000 0.0000
# 3 -4.0950 54.1277 153.3769 0.0000 0.0000 0.0000
# 4 0.0000 0.0000 0.0000 20.2381 0.0000 0.0000
# 5 0.0000 0.0000 0.0000 0.0000 12.4660 0.0000
# 6 0.0000 0.0000 0.0000 0.0000 0.0000 12.6085
#
#
#
# Elastic Compliance Matrix: (Units=1/GPa)
#
#
# Indices 1 2 3 4 5 6 
#
# 1 0.021292 -0.001348 0.001044 0.000000 0.000000 0.000000
# 2 -0.001348 0.007270 -0.002602 0.000000 0.000000 0.000000
# 3 0.001044 -0.002602 0.007466 0.000000 0.000000 0.000000
# 4 0.000000 0.000000 0.000000 0.049412 0.000000 0.000000
# 5 0.000000 0.000000 0.000000 0.000000 0.080218 0.000000
# 6 0.000000 0.000000 0.000000 0.000000 0.000000 0.079312
#
#
# Mechanical properties :
#
#
# Convention : Reuss Voigt Hill
#
# Bulk Modulus (GPa) = 33.09453 52.67712 42.88583
# Shear Modulus (GPa) = 19.16785 29.18859 24.17822
#
# Velocity S-wave (km/s) = 2.91216 3.59365 3.27070
# Velocity P-wave (km/s) = 5.09412 6.36599 5.76523
#
# Compressibility (1/GPa) = 0.03021647
#
# Stress axis : x y z
#
# Youngs Moduli (GPa) = 46.96670 137.54452 133.94155
#
# Poissons Ratio (x) = 0.18545 -0.13987
# Poissons Ratio (y) = 0.06332 0.34848
# Poissons Ratio (z) = -0.04905 0.35786
#
# Static dielectric constant tensor:
#      x y z
#    x 2.021560 0.000000 0.000000 
#    y 0.000000 1.792120 0.000000 
#    z 0.000000 0.000000 1.873990 
# 
# From -- ./inp_files/23901.got.cif
#   From: 2010.05.17/outbox.cif.g08.bks.cpg/sg20_12_cif.got.tgz:23901.got - 2010.06.03 22:52:26.
