data_PCOD9316903
_publ_section_title
;
Structure prediction by ZEFSAII (Michael W. Deem and Ramdas Pophale) SiO2 
 PCOD9316903
Probable space group: C 2 2 21
;
_chemical_formula_sum "Si O2"
_cell_formula_units_Z 56
_cell_length_a 21.981082
_cell_length_b 19.500793
_cell_length_c 5.444030
_cell_angle_alpha 90.000000
_cell_angle_beta 90.000000
_cell_angle_gamma 90.000000
_cell_volume 2333.575457
_symmetry_space_group_name_H-M "C 2 2 21"
_symmetry_group_IT_number 20
_symmetry_cell_setting 'orthorhombic'
loop_
_space_group_symop_operation_xyz
x,y,z
-x,-y,1/2+z
x,-y,-z
-x,y,1/2-z
1/2+x,1/2+y,z
1/2-x,1/2-y,1/2+z
1/2+x,1/2-y,-z
1/2-x,1/2+y,1/2-z
loop_
_atom_site_type_symbol
_atom_site_label
_atom_site_fract_x
_atom_site_fract_y
_atom_site_fract_z
Si Si1 0.930106 0.971291 0.256302
Si Si2 0.223668 0.652534 0.104781
Si Si3 0.901813 0.818926 0.391189
Si Si4 0.076241 0.668624 0.108766
Si Si5 0.095883 0.627907 0.615514
Si Si6 0.722508 0.072668 0.600603
Si Si7 0.839975 0.777397 0.890862
O O1 0.932525 0.890476 0.318200
O O2 0.000000 0.997787 0.250000
O O3 0.898222 0.000000 0.500000
O O4 0.903099 0.000000 0.000000
O O5 0.151500 0.666906 0.104024
O O6 0.237495 0.620454 0.369587
O O7 0.267357 0.718102 0.099492
O O8 0.239242 0.603057 0.870199
O O9 0.941464 0.748729 0.405710
O O10 0.867706 0.818230 0.655605
O O11 0.860528 0.807279 0.151486
O O12 0.060066 0.633814 0.363862
O O13 0.059907 0.627569 0.866912
O O14 0.148644 0.571859 0.613385
O O15 0.132199 0.701547 0.622958
O O16 0.745021 0.000000 0.500000
#
# Coordination Sequence:
#
# PCOD9316903 Si02
#       7
#     8   8   8   8   8   8   8
#     4  10  21  38  57  72  90 120 154 188 235 298
#     4  10  19  31  45  61  84 118 154 182 224 276
#     4  10  19  32  49  69  87 106 142 190 230 265
#     4   8  16  27  44  65  84 107 141 182 220 258
#     4   8  16  27  42  60  77 104 141 178 221 259
#     4  10  19  30  41  55  80 113 151 186 214 255
#     4  10  19  31  48  66  86 112 146 190 231 271
#
# _framework density 23.997508
#
# number of rings (size 3 to 8) (size 9 to 14) (size 15 to 20)
#    0.000    2.571    0.000    2.143    0.000   10.286 
#    0.000    7.143    0.000    0.000    0.000    0.000 
#    0.000    0.000    0.000    0.000    0.000  231.429 
#
# Total GULP energy -156126.657487 kJ/mol
# GULP energy per Si atom -5575.952053 kJ/mol
# Density = 2.394289 g / cm^3
# Si number density = 23.997508 Si / 1000 Ang^3
#
#
#
# Elastic Constant Matrix: (Units=GPa)
#
#
# Indices 1 2 3 4 5 6 
#
# 1 60.4695 -1.1247 21.1192 0.0000 0.0000 0.0000
# 2 -1.1247 35.5465 17.7187 0.0000 0.0000 0.0000
# 3 21.1192 17.7187 248.4494 0.0000 0.0000 0.0000
# 4 0.0000 0.0000 0.0000 34.7398 0.0000 0.0000
# 5 0.0000 0.0000 0.0000 0.0000 -11.5717 0.0000
# 6 0.0000 0.0000 0.0000 0.0000 0.0000 6.0080
#
#
#
# Elastic Compliance Matrix: (Units=1/GPa)
#
#
# Indices 1 2 3 4 5 6 
#
# 1 0.017102 0.001312 -0.001547 0.000000 0.000000 0.000000
# 2 0.001312 0.029270 -0.002199 0.000000 0.000000 0.000000
# 3 -0.001547 -0.002199 0.004313 0.000000 0.000000 0.000000
# 4 0.000000 0.000000 0.000000 0.028785 0.000000 0.000000
# 5 0.000000 0.000000 0.000000 0.000000 -0.086418 0.000000
# 6 0.000000 0.000000 0.000000 0.000000 0.000000 0.166444
#
#
# Mechanical properties :
#
#
# Convention : Reuss Voigt Hill
#
# Bulk Modulus (GPa) = 21.82579 46.65464 34.24021
# Shear Modulus (GPa) = 27.83392 26.28537 27.05965
#
# Velocity S-wave (km/s) = 3.40938 3.31318 3.36162
# Velocity P-wave (km/s) = 4.96117 5.84122 5.41909
#
# Compressibility (1/GPa) = 0.04581737
#
# Stress axis : x y z
#
# Youngs Moduli (GPa) = 58.47236 34.16487 231.83988
#
# Poissons Ratio (x) = -0.04484 0.35874
# Poissons Ratio (y) = -0.07674 0.50982
# Poissons Ratio (z) = 0.09048 0.07513
#
# Static dielectric constant tensor:
#      x y z
#    x 1.985610 0.000000 0.000000 
#    y 0.000000 1.947990 0.000000 
#    z 0.000000 0.000000 2.006330 
# 
# From -- ./inp_files/4363.got.cif
#   From: 2010.05.17/outbox.cif.g08.bks.cpg/sg20_3_cif.got.tgz:4363.got - 2010.06.03 22:52:26.
