data_PCOD9316432
_publ_section_title
;
Structure prediction by ZEFSAII (Michael W. Deem and Ramdas Pophale) SiO2 
 PCOD9316432
Probable space group: C 2 2 21
;
_chemical_formula_sum "Si O2"
_cell_formula_units_Z 64
_cell_length_a 8.361508
_cell_length_b 22.836339
_cell_length_c 19.219493
_cell_angle_alpha 90.000000
_cell_angle_beta 90.000000
_cell_angle_gamma 90.000000
_cell_volume 3669.889755
_symmetry_space_group_name_H-M "C 2 2 21"
_symmetry_group_IT_number 20
_symmetry_cell_setting 'orthorhombic'
loop_
_space_group_symop_operation_xyz
x,y,z
-x,-y,1/2+z
x,-y,-z
-x,y,1/2-z
1/2+x,1/2+y,z
1/2-x,1/2-y,1/2+z
1/2+x,1/2-y,-z
1/2-x,1/2+y,1/2-z
loop_
_atom_site_type_symbol
_atom_site_label
_atom_site_fract_x
_atom_site_fract_y
_atom_site_fract_z
Si Si1 0.931294 0.146700 0.327326
Si Si2 0.668896 0.935508 0.274600
Si Si3 0.277053 0.701203 0.931131
Si Si4 0.429437 0.514945 0.329068
Si Si5 0.903456 0.098443 0.853541
Si Si6 0.076982 0.754767 0.574635
Si Si7 0.272603 0.675704 0.673073
Si Si8 0.656774 0.232431 0.292638
O O1 0.761373 0.176827 0.313072
O O2 0.000000 0.143645 0.250000
O O3 0.033289 0.191079 0.374470
O O4 0.925929 0.080837 0.356359
O O5 0.500000 0.958008 0.250000
O O6 0.758004 0.985089 0.318229
O O7 0.785265 0.913585 0.211721
O O8 0.644456 0.876045 0.317799
O O9 0.309481 0.633572 0.912527
O O10 0.359626 0.735342 0.866396
O O11 0.089890 0.718887 0.931866
O O12 0.361454 0.721008 0.001579
O O13 0.500000 0.516730 0.250000
O O14 0.530235 0.466191 0.370630
O O15 0.059566 0.139254 0.834002
O O16 0.216174 0.715212 0.608906
O O17 0.268642 0.718803 0.740054
O O18 0.500000 0.215069 0.250000
#
# Coordination Sequence:
#
# PCOD9316432 Si02
#       8
#     8   8   8   8   8   8   8   8
#     4  10  20  36  54  79 111 150 192 221 280 346
#     4  10  18  28  53  83 111 143 184 243 279 320
#     4  11  22  35  51  82 114 144 185 231 289 338
#     4   8  18  33  51  76 107 144 187 236 273 326
#     4  10  18  34  55  80 108 142 187 236 281 324
#     4  11  24  35  55  83 119 148 182 235 287 352
#     4  11  18  32  53  82 114 142 185 231 285 340
#     4  11  20  32  57  81 113 148 185 230 281 344
#
# _framework density 17.439214
#
# number of rings (size 3 to 8) (size 9 to 14) (size 15 to 20)
#    0.000    1.750    3.750    2.625    1.750    0.500 
#    0.000    0.625    0.000    0.000    0.000    7.000 
#    0.000    0.000    0.000    0.000    0.000    0.000 
#
# Total GULP energy -178184.093756 kJ/mol
# GULP energy per Si atom -5568.252930 kJ/mol
# Density = 1.739952 g / cm^3
# Si number density = 17.439214 Si / 1000 Ang^3
#
#
#
# Elastic Constant Matrix: (Units=GPa)
#
#
# Indices 1 2 3 4 5 6 
#
# 1 65.3882 36.9934 18.8078 0.0000 0.0000 0.0000
# 2 36.9934 118.0632 11.1930 0.0000 0.0000 0.0000
# 3 18.8078 11.1930 64.4403 0.0000 0.0000 0.0000
# 4 0.0000 0.0000 0.0000 46.0722 0.0000 0.0000
# 5 0.0000 0.0000 0.0000 0.0000 25.2783 0.0000
# 6 0.0000 0.0000 0.0000 0.0000 0.0000 -2.8742
#
#
#
# Elastic Compliance Matrix: (Units=1/GPa)
#
#
# Indices 1 2 3 4 5 6 
#
# 1 0.019959 -0.005797 -0.004818 0.000000 0.000000 0.000000
# 2 -0.005797 0.010296 -0.000096 0.000000 0.000000 0.000000
# 3 -0.004818 -0.000096 0.016941 0.000000 0.000000 0.000000
# 4 0.000000 0.000000 0.000000 0.021705 0.000000 0.000000
# 5 0.000000 0.000000 0.000000 0.000000 0.039560 0.000000
# 6 0.000000 0.000000 0.000000 0.000000 0.000000 -0.347925
#
#
# Mechanical properties :
#
#
# Convention : Reuss Voigt Hill
#
# Bulk Modulus (GPa) = 38.80139 42.43111 40.61625
# Shear Modulus (GPa) = -23.87195 25.75510 0.94158
#
# Velocity S-wave (km/s) = -3.70383 3.84715 0.73559
# Velocity P-wave (km/s) = 2.00166 6.64212 4.90532
#
# Compressibility (1/GPa) = 0.02577228
#
# Stress axis : x y z
#
# Youngs Moduli (GPa) = 50.10309 97.12899 59.02748
#
# Poissons Ratio (x) = 0.56306 0.28441
# Poissons Ratio (y) = 0.29045 0.00569
# Poissons Ratio (z) = 0.24141 0.00936
#
# Static dielectric constant tensor:
#      x y z
#    x 1.545080 0.000000 0.000000 
#    y 0.000000 1.618850 0.000000 
#    z 0.000000 0.000000 1.589100 
# 
# From -- ./inp_files/26950.got.cif
#   From: 2010.05.17/outbox.cif.g08.bks.cpg/sg20_14_cif.got.tgz:26950.got - 2010.06.03 22:52:26.
