data_PCOD9316848
_publ_section_title
;
Structure prediction by ZEFSAII (Michael W. Deem and Ramdas Pophale) SiO2 
 PCOD9316848
Probable space group: C 2 2 21
;
_chemical_formula_sum "Si O2"
_cell_formula_units_Z 48
_cell_length_a 23.002945
_cell_length_b 11.410236
_cell_length_c 7.966287
_cell_angle_alpha 90.000000
_cell_angle_beta 90.000000
_cell_angle_gamma 90.000000
_cell_volume 2090.903631
_symmetry_space_group_name_H-M "C 2 2 21"
_symmetry_group_IT_number 20
_symmetry_cell_setting 'orthorhombic'
loop_
_space_group_symop_operation_xyz
x,y,z
-x,-y,1/2+z
x,-y,-z
-x,y,1/2-z
1/2+x,1/2+y,z
1/2-x,1/2-y,1/2+z
1/2+x,1/2-y,-z
1/2-x,1/2+y,1/2-z
loop_
_atom_site_type_symbol
_atom_site_label
_atom_site_fract_x
_atom_site_fract_y
_atom_site_fract_z
Si Si1 0.396580 0.182370 0.171609
Si Si2 0.000000 0.695444 0.750000
Si Si3 0.476659 0.000000 0.000000
Si Si4 0.685108 0.473266 0.699774
Si Si5 0.370187 0.236840 0.793412
Si Si6 0.062733 0.937127 0.315248
Si Si7 0.814804 0.500243 0.202528
O O1 0.433853 0.296050 0.215864
O O2 0.343011 0.122117 0.269212
O O3 0.370235 0.226542 0.995070
O O4 0.437263 0.069899 0.134531
O O5 0.006724 0.607119 0.907085
O O6 0.061491 0.761757 0.742772
O O7 0.687091 0.500000 0.500000
O O8 0.674887 0.337790 0.746221
O O9 0.624748 0.528164 0.765071
O O10 0.746804 0.513516 0.766776
O O11 0.349622 0.111471 0.727120
O O12 0.000000 0.975542 0.250000
O O13 0.065616 0.000000 0.500000
O O14 0.822685 0.500000 0.000000
#
# Coordination Sequence:
#
# PCOD9316848 Si02
#       7
#     8   4   4   8   8   8   8
#     4  10  18  40  62  89 117 169 199 250 307 368
#     4  10  20  38  64  94 122 162 206 256 312 372
#     4  10  20  36  66  90 126 158 208 250 318 362
#     4  11  24  41  64  88 126 165 206 250 312 367
#     4  10  20  39  65  88 122 165 201 252 310 371
#     4  11  25  41  66  89 127 167 208 252 313 376
#     4  10  22  40  67  89 121 160 212 252 308 367
#
# _framework density 22.956582999999998
#
# number of rings (size 3 to 8) (size 9 to 14) (size 15 to 20)
#    0.000    1.667    7.500    0.000    4.667    0.667 
#    1.500    0.000    3.667    0.000    0.000    0.000 
#    0.000    0.000    0.000    0.000    0.000    0.000 
#
# Total GULP energy -133641.305496 kJ/mol
# GULP energy per Si atom -5568.387729 kJ/mol
# Density = 2.290433 g / cm^3
# Si number density = 22.956583 Si / 1000 Ang^3
#
#
#
# Elastic Constant Matrix: (Units=GPa)
#
#
# Indices 1 2 3 4 5 6 
#
# 1 164.6671 51.0115 13.5744 0.0000 0.0000 0.0000
# 2 51.0115 104.6428 -1.2205 0.0000 0.0000 0.0000
# 3 13.5744 -1.2205 13.2858 0.0000 0.0000 0.0000
# 4 0.0000 0.0000 0.0000 5.7362 0.0000 0.0000
# 5 0.0000 0.0000 0.0000 0.0000 28.3471 0.0000
# 6 0.0000 0.0000 0.0000 0.0000 0.0000 30.8292
#
#
#
# Elastic Compliance Matrix: (Units=1/GPa)
#
#
# Indices 1 2 3 4 5 6 
#
# 1 0.008021 -0.004010 -0.008564 0.000000 0.000000 0.000000
# 2 -0.004010 0.011571 0.005160 0.000000 0.000000 0.000000
# 3 -0.008564 0.005160 0.084492 0.000000 0.000000 0.000000
# 4 0.000000 0.000000 0.000000 0.174333 0.000000 0.000000
# 5 0.000000 0.000000 0.000000 0.000000 0.035277 0.000000
# 6 0.000000 0.000000 0.000000 0.000000 0.000000 0.032437
#
#
# Mechanical properties :
#
#
# Convention : Reuss Voigt Hill
#
# Bulk Modulus (GPa) = 11.20356 45.48072 28.34214
# Shear Modulus (GPa) = 12.79720 27.59785 20.19752
#
# Velocity S-wave (km/s) = 2.36360 3.47100 2.96938
# Velocity P-wave (km/s) = 3.51280 5.99320 4.91214
#
# Compressibility (1/GPa) = 0.08925734
#
# Stress axis : x y z
#
# Youngs Moduli (GPa) = 124.67192 86.42068 11.83542
#
# Poissons Ratio (x) = 0.34655 0.10135
# Poissons Ratio (y) = 0.49993 -0.06107
# Poissons Ratio (z) = 1.06765 -0.44594
#
# Static dielectric constant tensor:
#      x y z
#    x 1.854650 0.000000 0.000000 
#    y 0.000000 1.972960 0.000000 
#    z 0.000000 0.000000 1.965200 
# 
# From -- ./inp_files/15767.got.cif
#   From: 2010.05.17/outbox.cif.g08.bks.cpg/sg20_8_cif.got.tgz:15767.got - 2010.06.03 22:52:26.
