data_PCOD9316135
_publ_section_title
;
Structure prediction by ZEFSAII (Michael W. Deem and Ramdas Pophale) SiO2 
 PCOD9316135
Probable space group: P 21 21 21
;
_chemical_formula_sum "Si O2"
_cell_formula_units_Z 20
_cell_length_a 12.000000
_cell_length_b 9.000000
_cell_length_c 9.000000
_cell_angle_alpha 90.000000
_cell_angle_beta 90.000000
_cell_angle_gamma 90.000000
_cell_volume 972.000000
_symmetry_space_group_name_H-M "P 21 21 21"
_symmetry_group_IT_number 19
_symmetry_cell_setting 'orthorhombic'
loop_
_space_group_symop_operation_xyz
x,y,z
1/2-x,-y,1/2+z
1/2+x,1/2-y,-z
-x,1/2+y,1/2-z
loop_
_atom_site_type_symbol
_atom_site_label
_atom_site_fract_x
_atom_site_fract_y
_atom_site_fract_z
Si Si1 0.049722 0.878758 0.234832
Si Si2 0.243472 0.684443 0.091847
Si Si3 0.134312 0.181090 0.117671
Si Si4 0.134434 0.993442 0.557342
Si Si5 0.124363 0.440197 0.874392
O O1 0.131943 0.755111 0.165904
O O2 0.929439 0.798717 0.268258
O O3 0.058674 0.029449 0.133155
O O4 0.103933 0.933644 0.391784
O O5 0.315994 0.836012 0.051101
O O6 0.316418 0.594004 0.215408
O O7 0.194990 0.569293 0.965052
O O8 0.262894 0.111481 0.124399
O O9 0.131041 0.284065 0.968853
O O10 0.009670 0.983087 0.634508
#
# Coordination Sequence:
#
# PCOD9316135 Si02
#       5
#     4   4   4   4   4
#     4  10  20  42  70 101 133 191 231 296 360 425
#     4  11  25  47  68 107 140 191 244 291 367 432
#     4  10  21  41  70  98 142 176 244 289 354 434
#     4  10  23  45  69 102 146 187 240 299 362 424
#     4  11  25  47  71 106 145 191 241 303 363 427
#
# _framework density 20.576132000000001
#
# number of rings (size 3 to 8) (size 9 to 14) (size 15 to 20)
#    0.000    1.600    2.000    2.400    2.800    1.600 
#   10.800    0.000    0.000    0.000    0.000    0.000 
#    0.000    0.000    0.000    0.000    0.000    0.000 
#
# Total GULP energy -111544.617149 kJ/mol
# GULP energy per Si atom -5577.230857 kJ/mol
# Density = 2.052930 g / cm^3
# Si number density = 20.576132 Si / 1000 Ang^3
#
#
#
# Elastic Constant Matrix: (Units=GPa)
#
#
# Indices 1 2 3 4 5 6 
#
# 1 163.3371 64.1599 32.3951 0.0000 0.0000 0.0000
# 2 64.1599 153.1976 35.8083 0.0000 0.0000 0.0000
# 3 32.3951 35.8083 57.7624 0.0000 0.0000 0.0000
# 4 0.0000 0.0000 0.0000 49.8411 0.0000 0.0000
# 5 0.0000 0.0000 0.0000 0.0000 42.1042 0.0000
# 6 0.0000 0.0000 0.0000 0.0000 0.0000 55.8560
#
#
#
# Elastic Compliance Matrix: (Units=1/GPa)
#
#
# Indices 1 2 3 4 5 6 
#
# 1 0.007672 -0.002582 -0.002703 0.000000 0.000000 0.000000
# 2 -0.002582 0.008502 -0.003823 0.000000 0.000000 0.000000
# 3 -0.002703 -0.003823 0.021198 0.000000 0.000000 0.000000
# 4 0.000000 0.000000 0.000000 0.020064 0.000000 0.000000
# 5 0.000000 0.000000 0.000000 0.000000 0.023751 0.000000
# 6 0.000000 0.000000 0.000000 0.000000 0.000000 0.017903
#
#
# Mechanical properties :
#
#
# Convention : Reuss Voigt Hill
#
# Bulk Modulus (GPa) = 52.19626 71.00262 61.59944
# Shear Modulus (GPa) = 40.42357 45.68919 43.05638
#
# Velocity S-wave (km/s) = 4.43717 4.71732 4.57939
# Velocity P-wave (km/s) = 7.18845 8.01580 7.61337
#
# Compressibility (1/GPa) = 0.01915846
#
# Stress axis : x y z
#
# Youngs Moduli (GPa) = 130.33815 117.61608 47.17448
#
# Poissons Ratio (x) = 0.30363 0.12749
# Poissons Ratio (y) = 0.33647 0.18034
# Poissons Ratio (z) = 0.35225 0.44964
#
# Static dielectric constant tensor:
#      x y z
#    x 1.761200 0.000000 0.000000 
#    y 0.000000 1.754450 0.000000 
#    z 0.000000 0.000000 1.793390 
# 
# From -- ./inp_files/2637.got.cif
#   From: 2010.05.17/outbox.ucp.g08.bks.cvg/sg19_2_cif.got.tgz:2637.got - 2010.06.11 13:13:52.
