data_PCOD9316987
_publ_section_title
;
Structure prediction by ZEFSAII (Michael W. Deem and Ramdas Pophale) SiO2 
 PCOD9316987
Probable space group: C 2 2 21
;
_chemical_formula_sum "Si O2"
_cell_formula_units_Z 48
_cell_length_a 22.391833
_cell_length_b 9.555458
_cell_length_c 10.431331
_cell_angle_alpha 90.000000
_cell_angle_beta 90.000000
_cell_angle_gamma 90.000000
_cell_volume 2231.931599
_symmetry_space_group_name_H-M "C 2 2 21"
_symmetry_group_IT_number 20
_symmetry_cell_setting 'orthorhombic'
loop_
_space_group_symop_operation_xyz
x,y,z
-x,-y,1/2+z
x,-y,-z
-x,y,1/2-z
1/2+x,1/2+y,z
1/2-x,1/2-y,1/2+z
1/2+x,1/2-y,-z
1/2-x,1/2+y,1/2-z
loop_
_atom_site_type_symbol
_atom_site_label
_atom_site_fract_x
_atom_site_fract_y
_atom_site_fract_z
Si Si1 0.266796 0.000000 0.500000
Si Si2 0.127531 0.831608 0.469167
Si Si3 0.030824 0.340832 0.379510
Si Si4 0.069779 0.500000 0.000000
Si Si5 0.387373 0.913751 0.779788
Si Si6 0.749385 0.999310 0.707729
Si Si7 0.236687 0.217375 0.996623
O O1 0.237198 0.993638 0.642510
O O2 0.301960 0.855541 0.492297
O O3 0.080535 0.761545 0.565584
O O4 0.111964 0.746898 0.334308
O O5 0.195098 0.774841 0.494252
O O6 0.124869 0.000000 0.500000
O O7 0.064148 0.489295 0.351906
O O8 0.000000 0.288198 0.250000
O O9 0.974644 0.371175 0.468851
O O10 0.100466 0.451408 0.867923
O O11 0.321458 0.975570 0.809319
O O12 0.776806 0.881249 0.616053
O O13 0.768672 0.141999 0.639124
#
# Coordination Sequence:
#
# PCOD9316987 Si02
#       7
#     4   8   8   4   8   8   8
#     4  12  21  36  56  88 108 142 182 234 285 326
#     4  11  20  36  56  79 111 153 185 222 282 344
#     4  10  19  34  55  81 109 143 188 234 272 322
#     4  10  19  32  58  88 106 134 192 248 267 312
#     4  10  19  35  58  81 109 142 189 231 277 328
#     4  10  21  36  59  80 112 146 185 228 273 336
#     4  10  21  37  56  82 110 145 186 228 273 332
#
# _framework density 21.506035000000001
#
# number of rings (size 3 to 8) (size 9 to 14) (size 15 to 20)
#    0.000    1.667    4.167    1.500    0.000    0.000 
#    3.000    0.000    0.000    0.000    0.000    0.000 
#    0.000    0.000    0.000    0.000    0.000    0.000 
#
# Total GULP energy -133683.122586 kJ/mol
# GULP energy per Si atom -5570.130108 kJ/mol
# Density = 2.145709 g / cm^3
# Si number density = 21.506035 Si / 1000 Ang^3
#
#
#
# Elastic Constant Matrix: (Units=GPa)
#
#
# Indices 1 2 3 4 5 6 
#
# 1 46.7715 15.4385 20.1125 0.0000 0.0000 0.0000
# 2 15.4385 148.3452 61.3833 0.0000 0.0000 0.0000
# 3 20.1125 61.3833 151.6577 0.0000 0.0000 0.0000
# 4 0.0000 0.0000 0.0000 31.6615 0.0000 0.0000
# 5 0.0000 0.0000 0.0000 0.0000 39.7398 0.0000
# 6 0.0000 0.0000 0.0000 0.0000 0.0000 15.1533
#
#
#
# Elastic Compliance Matrix: (Units=1/GPa)
#
#
# Indices 1 2 3 4 5 6 
#
# 1 0.022897 -0.001353 -0.002489 0.000000 0.000000 0.000000
# 2 -0.001353 0.008177 -0.003130 0.000000 0.000000 0.000000
# 3 -0.002489 -0.003130 0.008191 0.000000 0.000000 0.000000
# 4 0.000000 0.000000 0.000000 0.031584 0.000000 0.000000
# 5 0.000000 0.000000 0.000000 0.000000 0.025164 0.000000
# 6 0.000000 0.000000 0.000000 0.000000 0.000000 0.065992
#
#
# Mechanical properties :
#
#
# Convention : Reuss Voigt Hill
#
# Bulk Modulus (GPa) = 39.49312 60.07143 49.78227
# Shear Modulus (GPa) = 27.11643 33.96694 30.54168
#
# Velocity S-wave (km/s) = 3.55473 3.97850 3.77257
# Velocity P-wave (km/s) = 5.93732 7.00697 6.49420
#
# Compressibility (1/GPa) = 0.02532087
#
# Stress axis : x y z
#
# Youngs Moduli (GPa) = 43.67301 122.29281 122.08774
#
# Poissons Ratio (x) = 0.16547 0.30387
# Poissons Ratio (y) = 0.05909 0.38216
# Poissons Ratio (z) = 0.10870 0.38280
#
# Static dielectric constant tensor:
#      x y z
#    x 1.794960 0.000000 0.000000 
#    y 0.000000 1.872740 0.000000 
#    z 0.000000 0.000000 1.812790 
# 
# From -- ./inp_files/16984.got.cif
#   From: 2010.05.17/outbox.cif.g08.bks.cpg/sg20_9_cif.got.tgz:16984.got - 2010.06.03 22:52:26.
