data_PCOD9316194
_publ_section_title
;
Structure prediction by ZEFSAII (Michael W. Deem and Ramdas Pophale) SiO2 
 PCOD9316194
Probable space group: C 2 2 21
;
_chemical_formula_sum "Si O2"
_cell_formula_units_Z 48
_cell_length_a 24.539673
_cell_length_b 7.180835
_cell_length_c 11.220615
_cell_angle_alpha 90.000000
_cell_angle_beta 90.000000
_cell_angle_gamma 90.000000
_cell_volume 1977.244518
_symmetry_space_group_name_H-M "C 2 2 21"
_symmetry_group_IT_number 20
_symmetry_cell_setting 'orthorhombic'
loop_
_space_group_symop_operation_xyz
x,y,z
-x,-y,1/2+z
x,-y,-z
-x,y,1/2-z
1/2+x,1/2+y,z
1/2-x,1/2-y,1/2+z
1/2+x,1/2-y,-z
1/2-x,1/2+y,1/2-z
loop_
_atom_site_type_symbol
_atom_site_label
_atom_site_fract_x
_atom_site_fract_y
_atom_site_fract_z
Si Si1 0.655334 0.794350 0.942919
Si Si2 0.442745 0.816300 0.713247
Si Si3 0.502168 0.000000 0.500000
Si Si4 0.092137 0.337151 0.371891
Si Si5 0.732302 0.963729 0.756507
Si Si6 0.338070 0.661579 0.299959
Si Si7 0.688418 0.000000 0.500000
O O1 0.608177 0.722910 0.852783
O O2 0.708809 0.830310 0.861306
O O3 0.657721 0.665724 0.058632
O O4 0.643066 0.000000 0.000000
O O5 0.500000 0.716890 0.750000
O O6 0.466322 0.951850 0.611995
O O7 0.417345 0.958114 0.810912
O O8 0.540249 0.172019 0.542772
O O9 0.105139 0.192269 0.268106
O O10 0.146394 0.344876 0.451091
O O11 0.797308 0.982859 0.761912
O O12 0.697811 0.149777 0.778275
O O13 0.720235 0.924214 0.615651
#
# Coordination Sequence:
#
# PCOD9316194 Si02
#       7
#     8   8   4   8   8   8   4
#     4  10  17  32  44  67 102 135 163 210 252 296
#     4  10  15  25  42  67  97 134 159 196 258 310
#     4   9  16  22  44  66  96 132 158 192 253 322
#     4   9  16  27  41  66  97 131 156 201 249 294
#     4  10  21  32  50  71  98 141 172 203 255 296
#     4  10  20  33  51  68 105 139 168 212 249 300
#     4   9  16  30  44  64 100 128 160 202 237 284
#
# _framework density 24.276209999999999
#
# number of rings (size 3 to 8) (size 9 to 14) (size 15 to 20)
#    0.000    2.333    5.833    0.000    4.667    0.000 
#    0.000    0.000    0.000    0.000    0.000    0.000 
#    0.000    9.333    0.000    0.000    0.000    2.333 
#
# Total GULP energy -133662.457627 kJ/mol
# GULP energy per Si atom -5569.269068 kJ/mol
# Density = 2.422096 g / cm^3
# Si number density = 24.276210 Si / 1000 Ang^3
#
#
#
# Elastic Constant Matrix: (Units=GPa)
#
#
# Indices 1 2 3 4 5 6 
#
# 1 110.3612 -5.0417 39.3574 0.0000 0.0000 0.0000
# 2 -5.0417 31.3933 12.3629 0.0000 0.0000 0.0000
# 3 39.3574 12.3629 148.5856 0.0000 0.0000 0.0000
# 4 0.0000 0.0000 0.0000 22.4088 0.0000 0.0000
# 5 0.0000 0.0000 0.0000 0.0000 43.6739 0.0000
# 6 0.0000 0.0000 0.0000 0.0000 0.0000 6.6918
#
#
#
# Elastic Compliance Matrix: (Units=1/GPa)
#
#
# Indices 1 2 3 4 5 6 
#
# 1 0.010240 0.002805 -0.002946 0.000000 0.000000 0.000000
# 2 0.002805 0.033701 -0.003547 0.000000 0.000000 0.000000
# 3 -0.002946 -0.003547 0.007805 0.000000 0.000000 0.000000
# 4 0.000000 0.000000 0.000000 0.044625 0.000000 0.000000
# 5 0.000000 0.000000 0.000000 0.000000 0.022897 0.000000
# 6 0.000000 0.000000 0.000000 0.000000 0.000000 0.149437
#
#
# Mechanical properties :
#
#
# Convention : Reuss Voigt Hill
#
# Bulk Modulus (GPa) = 22.53765 42.63304 32.58535
# Shear Modulus (GPa) = 17.18968 30.79900 23.99434
#
# Velocity S-wave (km/s) = 2.66388 3.56573 3.14728
# Velocity P-wave (km/s) = 4.33193 5.87813 5.16324
#
# Compressibility (1/GPa) = 0.04437019
#
# Stress axis : x y z
#
# Youngs Moduli (GPa) = 97.65852 29.67263 128.11492
#
# Poissons Ratio (x) = -0.08322 0.37738
# Poissons Ratio (y) = -0.27388 0.45441
# Poissons Ratio (z) = 0.28767 0.10525
#
# Static dielectric constant tensor:
#      x y z
#    x 2.010200 0.000000 0.000000 
#    y 0.000000 2.093830 0.000000 
#    z 0.000000 0.000000 1.972870 
# 
# From -- ./inp_files/16287.got.cif
#   From: 2010.05.17/outbox.cif.g08.bks.cpg/sg20_9_cif.got.tgz:16287.got - 2010.06.03 22:52:26.
