data_PCOD9316118
_publ_section_title
;
Structure prediction by ZEFSAII (Michael W. Deem and Ramdas Pophale) SiO2 
 PCOD9316118
Probable space group: P 21 21 21
;
_chemical_formula_sum "Si O2"
_cell_formula_units_Z 16
_cell_length_a 7.965355
_cell_length_b 9.727009
_cell_length_c 7.003325
_cell_angle_alpha 90.000000
_cell_angle_beta 90.000000
_cell_angle_gamma 90.000000
_cell_volume 542.611176
_symmetry_space_group_name_H-M "P 21 21 21"
_symmetry_group_IT_number 19
_symmetry_cell_setting 'orthorhombic'
loop_
_space_group_symop_operation_xyz
x,y,z
1/2-x,-y,1/2+z
1/2+x,1/2-y,-z
-x,1/2+y,1/2-z
loop_
_atom_site_type_symbol
_atom_site_label
_atom_site_fract_x
_atom_site_fract_y
_atom_site_fract_z
Si Si1 0.427391 0.962051 0.509277
Si Si2 0.238679 0.295660 0.074606
Si Si3 0.855275 0.793028 0.974055
Si Si4 0.024953 0.541204 0.061648
O O1 0.483123 0.110138 0.429538
O O2 0.097013 0.135145 0.566479
O O3 0.582898 0.864935 0.449770
O O4 0.439185 0.983324 0.736594
O O5 0.227025 0.143004 0.989848
O O6 0.182173 0.296592 0.296862
O O7 0.108924 0.404627 0.980463
O O8 0.186977 0.640077 0.108679
#
# Coordination Sequence:
#
# PCOD9316118 Si02
#       4
#     4   4   4   4
#     4   9  18  32  48  67  92 120 150 185 224 266
#     4   9  18  32  48  67  92 120 150 185 224 266
#     4   9  18  32  48  67  92 120 150 185 224 266
#     4   9  18  32  48  67  92 120 150 185 224 266
#
# _framework density 29.487044999999998
#
# number of rings (size 3 to 8) (size 9 to 14) (size 15 to 20)
#    0.000    3.000    0.000    0.000    0.000    4.000 
#    0.000    0.000    0.000    0.000    0.000    0.000 
#    0.000    0.000    0.000    0.000    0.000    0.000 
#
# Total GULP energy -89658.326509 kJ/mol
# GULP energy per Si atom -5603.645407 kJ/mol
# Density = 2.941993 g / cm^3
# Si number density = 29.487045 Si / 1000 Ang^3
#
#
#
# Elastic Constant Matrix: (Units=GPa)
#
#
# Indices 1 2 3 4 5 6 
#
# 1 90.5683 20.4949 22.5886 0.0000 0.0000 0.0000
# 2 20.4949 172.0030 21.8280 0.0000 0.0000 0.0000
# 3 22.5886 21.8280 118.5322 0.0000 0.0000 0.0000
# 4 0.0000 0.0000 0.0000 22.2856 0.0000 0.0000
# 5 0.0000 0.0000 0.0000 0.0000 39.2219 0.0000
# 6 0.0000 0.0000 0.0000 0.0000 0.0000 79.1243
#
#
#
# Elastic Compliance Matrix: (Units=1/GPa)
#
#
# Indices 1 2 3 4 5 6 
#
# 1 0.011810 -0.001148 -0.002039 0.000000 0.000000 0.000000
# 2 -0.001148 0.006065 -0.000898 0.000000 0.000000 0.000000
# 3 -0.002039 -0.000898 0.008990 0.000000 0.000000 0.000000
# 4 0.000000 0.000000 0.000000 0.044872 0.000000 0.000000
# 5 0.000000 0.000000 0.000000 0.000000 0.025496 0.000000
# 6 0.000000 0.000000 0.000000 0.000000 0.000000 0.012638
#
#
# Mechanical properties :
#
#
# Convention : Reuss Voigt Hill
#
# Bulk Modulus (GPa) = 53.49316 56.76962 55.13139
# Shear Modulus (GPa) = 40.23381 49.20583 44.71982
#
# Velocity S-wave (km/s) = 3.69786 4.08944 3.89857
# Velocity P-wave (km/s) = 6.03431 6.44920 6.24520
#
# Compressibility (1/GPa) = 0.01869398
#
# Stress axis : x y z
#
# Youngs Moduli (GPa) = 84.67509 164.89001 111.22877
#
# Poissons Ratio (x) = 0.18936 0.22681
# Poissons Ratio (y) = 0.09724 0.09988
# Poissons Ratio (z) = 0.17266 0.14807
#
# Static dielectric constant tensor:
#      x y z
#    x 2.333920 0.000000 0.000000 
#    y 0.000000 2.252240 0.000000 
#    z 0.000000 0.000000 2.227400 
# 
# From -- ./inp_files/2587.got.cif
#   From: 2010.05.17/outbox.cif.g08.bks.cpg/sg19_2_cif.got.tgz:2587.got - 2010.06.03 22:46:19.
