data_PCOD9316801
_publ_section_title
;
Structure prediction by ZEFSAII (Michael W. Deem and Ramdas Pophale) SiO2 
 PCOD9316801
Probable space group: C 2 2 21
;
_chemical_formula_sum "Si O2"
_cell_formula_units_Z 36
_cell_length_a 15.567458
_cell_length_b 9.832745
_cell_length_c 9.775279
_cell_angle_alpha 90.000000
_cell_angle_beta 90.000000
_cell_angle_gamma 90.000000
_cell_volume 1496.310215
_symmetry_space_group_name_H-M "C 2 2 21"
_symmetry_group_IT_number 20
_symmetry_cell_setting 'orthorhombic'
loop_
_space_group_symop_operation_xyz
x,y,z
-x,-y,1/2+z
x,-y,-z
-x,y,1/2-z
1/2+x,1/2+y,z
1/2-x,1/2-y,1/2+z
1/2+x,1/2-y,-z
1/2-x,1/2+y,1/2-z
loop_
_atom_site_type_symbol
_atom_site_label
_atom_site_fract_x
_atom_site_fract_y
_atom_site_fract_z
Si Si1 0.933543 0.284292 0.432336
Si Si2 0.900930 0.000000 0.500000
Si Si3 0.386205 0.838805 0.119934
Si Si4 0.257201 0.671806 0.934652
Si Si5 0.246850 0.048050 0.214431
O O1 0.954466 0.135707 0.489645
O O2 0.911648 0.283887 0.270690
O O3 0.840752 0.324133 0.494725
O O4 0.021805 0.363613 0.450036
O O5 0.836321 0.995417 0.627550
O O6 0.329259 0.971520 0.149766
O O7 0.328185 0.730675 0.037774
O O8 0.266564 0.527146 0.859310
O O9 0.259202 0.791775 0.815890
#
# Coordination Sequence:
#
# PCOD9316801 Si02
#       5
#     8   4   8   8   8
#     4   9  20  35  64  94 123 166 222 262 331 381
#     4  10  18  42  60  84 132 172 210 278 318 396
#     4  10  18  38  64  91 125 168 217 268 328 387
#     4  10  20  39  68  93 130 172 219 271 332 393
#     4  10  19  38  69  89 127 174 213 268 337 383
#
# _framework density 24.059180999999999
#
# number of rings (size 3 to 8) (size 9 to 14) (size 15 to 20)
#    0.000    2.222    4.444    0.000    0.000    0.000 
#   20.000    0.000   34.222    0.000    0.000    0.000 
#    0.000    0.000    0.000    0.000    0.000    0.000 
#
# Total GULP energy -100476.716647 kJ/mol
# GULP energy per Si atom -5582.039814 kJ/mol
# Density = 2.400442 g / cm^3
# Si number density = 24.059181 Si / 1000 Ang^3
#
#
#
# Elastic Constant Matrix: (Units=GPa)
#
#
# Indices 1 2 3 4 5 6 
#
# 1 169.6169 31.4670 25.5356 0.0000 0.0000 0.0000
# 2 31.4670 121.3082 15.9133 0.0000 0.0000 0.0000
# 3 25.5356 15.9133 64.7625 0.0000 0.0000 0.0000
# 4 0.0000 0.0000 0.0000 36.3943 0.0000 0.0000
# 5 0.0000 0.0000 0.0000 0.0000 18.1773 0.0000
# 6 0.0000 0.0000 0.0000 0.0000 0.0000 15.5354
#
#
#
# Elastic Compliance Matrix: (Units=1/GPa)
#
#
# Indices 1 2 3 4 5 6 
#
# 1 0.006488 -0.001392 -0.002216 0.000000 0.000000 0.000000
# 2 -0.001392 0.008817 -0.001618 0.000000 0.000000 0.000000
# 3 -0.002216 -0.001618 0.016712 0.000000 0.000000 0.000000
# 4 0.000000 0.000000 0.000000 0.027477 0.000000 0.000000
# 5 0.000000 0.000000 0.000000 0.000000 0.055014 0.000000
# 6 0.000000 0.000000 0.000000 0.000000 0.000000 0.064369
#
#
# Mechanical properties :
#
#
# Convention : Reuss Voigt Hill
#
# Bulk Modulus (GPa) = 46.37077 55.72438 51.04758
# Shear Modulus (GPa) = 25.44326 32.87285 29.15805
#
# Velocity S-wave (km/s) = 3.25549 3.70040 3.48506
# Velocity P-wave (km/s) = 5.78329 6.43964 6.12027
#
# Compressibility (1/GPa) = 0.02156531
#
# Stress axis : x y z
#
# Youngs Moduli (GPa) = 154.14226 113.42019 59.83645
#
# Poissons Ratio (x) = 0.15790 0.13259
# Poissons Ratio (y) = 0.21459 0.09679
# Poissons Ratio (z) = 0.34157 0.18346
#
# Static dielectric constant tensor:
#      x y z
#    x 1.908780 0.000000 0.000000 
#    y 0.000000 1.942190 0.000000 
#    z 0.000000 0.000000 2.096020 
# 
# From -- ./inp_files/14820.got.cif
#   From: 2010.05.17/outbox.cif.g08.bks.cpg/sg20_8_cif.got.tgz:14820.got - 2010.06.03 22:52:26.
