data_PCOD9316922
_publ_section_title
;
Structure prediction by ZEFSAII (Michael W. Deem and Ramdas Pophale) SiO2 
 PCOD9316922
Probable space group: C 2 2 21
;
_chemical_formula_sum "Si O2"
_cell_formula_units_Z 56
_cell_length_a 27.215039
_cell_length_b 24.304912
_cell_length_c 5.263926
_cell_angle_alpha 90.000000
_cell_angle_beta 90.000000
_cell_angle_gamma 90.000000
_cell_volume 3481.871902
_symmetry_space_group_name_H-M "C 2 2 21"
_symmetry_group_IT_number 20
_symmetry_cell_setting 'orthorhombic'
loop_
_space_group_symop_operation_xyz
x,y,z
-x,-y,1/2+z
x,-y,-z
-x,y,1/2-z
1/2+x,1/2+y,z
1/2-x,1/2-y,1/2+z
1/2+x,1/2-y,-z
1/2-x,1/2+y,1/2-z
loop_
_atom_site_type_symbol
_atom_site_label
_atom_site_fract_x
_atom_site_fract_y
_atom_site_fract_z
Si Si1 0.525154 0.734455 0.002151
Si Si2 0.693783 0.224182 0.474714
Si Si3 0.223436 0.168912 0.275766
Si Si4 0.523670 0.604952 0.998487
Si Si5 0.642555 0.740569 0.044189
Si Si6 0.190529 0.937658 0.464912
Si Si7 0.128304 0.062513 0.037257
O O1 0.500000 0.759561 0.250000
O O2 0.584060 0.736667 0.023179
O O3 0.500000 0.758336 0.750000
O O4 0.511294 0.669704 0.999980
O O5 0.731066 0.175142 0.414232
O O6 0.726751 0.278601 0.534707
O O7 0.659609 0.220057 0.722945
O O8 0.662681 0.238726 0.225095
O O9 0.172311 0.184346 0.126685
O O10 0.222812 0.113219 0.435669
O O11 0.500000 0.579323 0.750000
O O12 0.581969 0.600467 0.991689
O O13 0.500000 0.580080 0.250000
O O14 0.170359 0.929870 0.178847
O O15 0.210711 0.000000 0.500000
O O16 0.146789 0.934327 0.673588
O O17 0.110746 0.000000 0.000000
#
# Coordination Sequence:
#
# PCOD9316922 Si02
#       7
#     8   8   8   8   8   8   8
#     4  10  20  31  43  62  89 117 152 189 231 292
#     4  10  20  30  48  76  88 119 148 200 248 283
#     4  10  20  32  52  69 101 111 160 197 246 290
#     4  10  20  30  44  62  79 108 151 197 250 285
#     4  10  19  31  47  69  91 120 153 192 251 279
#     4  10  22  33  49  67  89 123 150 188 238 293
#     4  10  21  35  45  62  83 112 158 193 242 291
#
# _framework density 16.083303999999998
#
# number of rings (size 3 to 8) (size 9 to 14) (size 15 to 20)
#    0.857    1.143    1.429    2.571    4.000    1.714 
#    0.000    0.000    0.000    0.000    0.000    0.000 
#    0.000    0.000    0.000    0.000    0.000    4.286 
#
# Total GULP energy -155869.809531 kJ/mol
# GULP energy per Si atom -5566.778912 kJ/mol
# Density = 1.604670 g / cm^3
# Si number density = 16.083304 Si / 1000 Ang^3
#
#
#
# Elastic Constant Matrix: (Units=GPa)
#
#
# Indices 1 2 3 4 5 6 
#
# 1 44.2380 5.4604 45.2266 0.0000 0.0000 0.0000
# 2 5.4604 30.8432 6.5947 0.0000 0.0000 0.0000
# 3 45.2266 6.5947 112.1360 0.0000 0.0000 0.0000
# 4 0.0000 0.0000 0.0000 15.7163 0.0000 0.0000
# 5 0.0000 0.0000 0.0000 0.0000 25.6505 0.0000
# 6 0.0000 0.0000 0.0000 0.0000 0.0000 12.3462
#
#
#
# Elastic Compliance Matrix: (Units=1/GPa)
#
#
# Indices 1 2 3 4 5 6 
#
# 1 0.038850 -0.003573 -0.015459 0.000000 0.000000 0.000000
# 2 -0.003573 0.033163 -0.000509 0.000000 0.000000 0.000000
# 3 -0.015459 -0.000509 0.015183 0.000000 0.000000 0.000000
# 4 0.000000 0.000000 0.000000 0.063628 0.000000 0.000000
# 5 0.000000 0.000000 0.000000 0.000000 0.038986 0.000000
# 6 0.000000 0.000000 0.000000 0.000000 0.000000 0.080997
#
#
# Mechanical properties :
#
#
# Convention : Reuss Voigt Hill
#
# Bulk Modulus (GPa) = 20.78383 33.53119 27.15751
# Shear Modulus (GPa) = 15.34086 19.40498 17.37292
#
# Velocity S-wave (km/s) = 3.09178 3.47728 3.29018
# Velocity P-wave (km/s) = 5.06913 6.08405 5.59963
#
# Compressibility (1/GPa) = 0.04811432
#
# Stress axis : x y z
#
# Youngs Moduli (GPa) = 25.73975 30.15367 65.86478
#
# Poissons Ratio (x) = 0.10773 1.01820
# Poissons Ratio (y) = 0.09196 0.03355
# Poissons Ratio (z) = 0.39791 0.01536
#
# Static dielectric constant tensor:
#      x y z
#    x 1.539820 0.000000 0.000000 
#    y 0.000000 1.556010 0.000000 
#    z 0.000000 0.000000 1.576460 
# 
# From -- ./inp_files/4364.got.cif
#   From: 2010.05.17/outbox.cif.g08.bks.cpg/sg20_3_cif.got.tgz:4364.got - 2010.06.03 22:52:26.
