data_PCOD9316238
_publ_section_title
;
Structure prediction by ZEFSAII (Michael W. Deem and Ramdas Pophale) SiO2 
 PCOD9316238
Probable space group: C 2 2 21
;
_chemical_formula_sum "Si O2"
_cell_formula_units_Z 32
_cell_length_a 23.128888
_cell_length_b 5.240905
_cell_length_c 11.087808
_cell_angle_alpha 90.000000
_cell_angle_beta 90.000000
_cell_angle_gamma 90.000000
_cell_volume 1344.023114
_symmetry_space_group_name_H-M "C 2 2 21"
_symmetry_group_IT_number 20
_symmetry_cell_setting 'orthorhombic'
loop_
_space_group_symop_operation_xyz
x,y,z
-x,-y,1/2+z
x,-y,-z
-x,y,1/2-z
1/2+x,1/2+y,z
1/2-x,1/2-y,1/2+z
1/2+x,1/2-y,-z
1/2-x,1/2+y,1/2-z
loop_
_atom_site_type_symbol
_atom_site_label
_atom_site_fract_x
_atom_site_fract_y
_atom_site_fract_z
Si Si1 0.563526 0.864813 0.800812
Si Si2 0.363212 0.630338 0.886775
Si Si3 0.243331 0.784569 0.833407
Si Si4 0.118970 0.865051 0.859348
O O1 0.500000 0.814890 0.750000
O O2 0.602483 0.853271 0.679775
O O3 0.589095 0.638135 0.885580
O O4 0.574147 0.135208 0.861581
O O5 0.299094 0.726236 0.915303
O O6 0.363377 0.419684 0.781014
O O7 0.392195 0.500000 0.000000
O O8 0.244088 0.548101 0.738260
O O9 0.182841 0.794561 0.905925
#
# Coordination Sequence:
#
# PCOD9316238 Si02
#       4
#     8   8   8   8
#     4  10  19  32  51  73  98 137 175 205 243 301
#     4   9  20  32  52  80 105 125 170 218 259 287
#     4  10  16  32  49  74 101 133 160 206 251 311
#     4   9  18  32  52  72 100 130 171 203 249 303
#
# _framework density 23.809114999999998
#
# number of rings (size 3 to 8) (size 9 to 14) (size 15 to 20)
#    1.500    1.000    2.500    0.750    0.000    1.000 
#    0.000    0.000    0.000    3.000    0.000    0.000 
#    0.000    0.000    0.000    0.000    0.000    0.000 
#
# Total GULP energy -89164.319497 kJ/mol
# GULP energy per Si atom -5572.769969 kJ/mol
# Density = 2.375492 g / cm^3
# Si number density = 23.809115 Si / 1000 Ang^3
#
#
#
# Elastic Constant Matrix: (Units=GPa)
#
#
# Indices 1 2 3 4 5 6 
#
# 1 117.2789 26.6841 -20.6086 0.0000 0.0000 0.0000
# 2 26.6841 162.0288 4.1143 0.0000 0.0000 0.0000
# 3 -20.6086 4.1143 43.1686 0.0000 0.0000 0.0000
# 4 0.0000 0.0000 0.0000 35.2540 0.0000 0.0000
# 5 0.0000 0.0000 0.0000 0.0000 3.1451 0.0000
# 6 0.0000 0.0000 0.0000 0.0000 0.0000 26.1328
#
#
#
# Elastic Compliance Matrix: (Units=1/GPa)
#
#
# Indices 1 2 3 4 5 6 
#
# 1 0.009769 -0.001731 0.004829 0.000000 0.000000 0.000000
# 2 -0.001731 0.006494 -0.001445 0.000000 0.000000 0.000000
# 3 0.004829 -0.001445 0.025608 0.000000 0.000000 0.000000
# 4 0.000000 0.000000 0.000000 0.028366 0.000000 0.000000
# 5 0.000000 0.000000 0.000000 0.000000 0.317950 0.000000
# 6 0.000000 0.000000 0.000000 0.000000 0.000000 0.038266
#
#
# Mechanical properties :
#
#
# Convention : Reuss Voigt Hill
#
# Bulk Modulus (GPa) = 22.13642 38.09512 30.11577
# Shear Modulus (GPa) = 11.41012 33.72549 22.56781
#
# Velocity S-wave (km/s) = 2.19151 3.76772 3.08208
# Velocity P-wave (km/s) = 3.96501 5.91291 5.03408
#
# Compressibility (1/GPa) = 0.04517443
#
# Stress axis : x y z
#
# Youngs Moduli (GPa) = 102.36282 153.99775 39.05028
#
# Poissons Ratio (x) = 0.26664 -0.18857
# Poissons Ratio (y) = 0.17724 0.05645
# Poissons Ratio (z) = -0.49429 0.22260
#
# Static dielectric constant tensor:
#      x y z
#    x 1.920130 0.000000 0.000000 
#    y 0.000000 1.910320 0.000000 
#    z 0.000000 0.000000 2.481340 
# 
# From -- ./inp_files/11990.got.cif
#   From: 2010.05.17/outbox.cif.g08.bks.cpg/sg20_6_cif.got.tgz:11990.got - 2010.06.03 22:52:26.
