data_PCOD9316144
_publ_section_title
;
Structure prediction by ZEFSAII (Michael W. Deem and Ramdas Pophale) SiO2 
 PCOD9316144
Probable space group: P 21 21 21
;
_chemical_formula_sum "Si O2"
_cell_formula_units_Z 28
_cell_length_a 12.000000
_cell_length_b 12.000000
_cell_length_c 9.000000
_cell_angle_alpha 90.000000
_cell_angle_beta 90.000000
_cell_angle_gamma 90.000000
_cell_volume 1296.000000
_symmetry_space_group_name_H-M "P 21 21 21"
_symmetry_group_IT_number 19
_symmetry_cell_setting 'orthorhombic'
loop_
_space_group_symop_operation_xyz
x,y,z
1/2-x,-y,1/2+z
1/2+x,1/2-y,-z
-x,1/2+y,1/2-z
loop_
_atom_site_type_symbol
_atom_site_label
_atom_site_fract_x
_atom_site_fract_y
_atom_site_fract_z
Si Si1 0.700522 0.917696 0.663032
Si Si2 0.819160 0.146500 0.662141
Si Si3 0.748918 0.252929 0.933429
Si Si4 0.124908 0.907288 0.348237
Si Si5 0.961363 0.624330 0.994057
Si Si6 0.018489 0.207243 0.199996
Si Si7 0.748133 0.719819 0.886141
O O1 0.767628 0.859551 0.529148
O O2 0.568993 0.887166 0.645497
O O3 0.733449 0.836711 0.799191
O O4 0.729743 0.046623 0.680411
O O5 0.839230 0.210470 0.815173
O O6 0.779264 0.243810 0.552286
O O7 0.928729 0.091462 0.593394
O O8 0.644027 0.301737 0.848655
O O9 0.787968 0.348608 0.042685
O O10 0.019732 0.826090 0.360997
O O11 0.175290 0.879202 0.186515
O O12 0.093829 0.026817 0.408308
O O13 0.992937 0.711523 0.122295
O O14 0.873621 0.677023 0.883054
#
# Coordination Sequence:
#
# PCOD9316144 Si02
#       7
#     4   4   4   4   4   4   4
#     4  10  23  42  65  97 132 167 220 275 333 398
#     4  12  22  41  68  99 124 174 226 276 323 398
#     4  10  22  40  66  91 133 162 221 274 327 395
#     4  10  25  44  64  94 137 172 216 277 333 400
#     4  12  24  39  71  93 132 177 219 269 340 389
#     4  10  21  41  65  92 125 180 207 267 342 387
#     4  10  23  43  61  98 133 168 223 272 322 409
#
# _framework density 21.604938000000001
#
# number of rings (size 3 to 8) (size 9 to 14) (size 15 to 20)
#    0.000    1.714    4.286    1.714    4.000    5.714 
#    0.000    0.000    3.143    0.000    0.000    0.000 
#    0.000    0.000    0.000    0.000    0.000    0.000 
#
# Total GULP energy -155952.831498 kJ/mol
# GULP energy per Si atom -5569.743982 kJ/mol
# Density = 2.155576 g / cm^3
# Si number density = 21.604938 Si / 1000 Ang^3
#
#
#
# Elastic Constant Matrix: (Units=GPa)
#
#
# Indices 1 2 3 4 5 6 
#
# 1 76.5998 30.1226 7.3973 0.0000 0.0000 0.0000
# 2 30.1226 38.8298 4.1285 0.0000 0.0000 0.0000
# 3 7.3973 4.1285 -2.6791 0.0000 0.0000 0.0000
# 4 0.0000 0.0000 0.0000 14.5172 0.0000 0.0000
# 5 0.0000 0.0000 0.0000 0.0000 22.6546 0.0000
# 6 0.0000 0.0000 0.0000 0.0000 0.0000 11.7513
#
#
#
# Elastic Compliance Matrix: (Units=1/GPa)
#
#
# Indices 1 2 3 4 5 6 
#
# 1 0.016985 -0.015606 0.022850 0.000000 0.000000 0.000000
# 2 -0.015606 0.036466 0.013105 0.000000 0.000000 0.000000
# 3 0.022850 0.013105 -0.289976 0.000000 0.000000 0.000000
# 4 0.000000 0.000000 0.000000 0.068884 0.000000 0.000000
# 5 0.000000 0.000000 0.000000 0.000000 0.044141 0.000000
# 6 0.000000 0.000000 0.000000 0.000000 0.000000 0.085097
#
#
# Mechanical properties :
#
#
# Convention : Reuss Voigt Hill
#
# Bulk Modulus (GPa) = -5.10655 21.78301 8.33823
# Shear Modulus (GPa) = -34.63177 14.52478 -10.05349
#
# Velocity S-wave (km/s) = -4.00804 2.59567 -2.15950
# Velocity P-wave (km/s) = 4.87728 4.36894 1.53301
#
# Compressibility (1/GPa) = -0.19582691
#
# Stress axis : x y z
#
# Youngs Moduli (GPa) = 58.87479 27.42248 -3.44856
#
# Poissons Ratio (x) = 0.42795 0.07880
# Poissons Ratio (y) = 0.91879 0.04519
# Poissons Ratio (z) = -1.34527 -0.35937
#
# Static dielectric constant tensor:
#      x y z
#    x 1.843300 0.000000 0.000000 
#    y 0.000000 1.808730 0.000000 
#    z 0.000000 0.000000 1.852430 
# 
# From -- ./inp_files/3434.got.cif
#   From: 2010.05.17/outbox.ucp.g08.bks.cvg/sg19_2_cif.got.tgz:3434.got - 2010.06.11 13:13:52.
