data_PCOD9316322
_publ_section_title
;
Structure prediction by ZEFSAII (Michael W. Deem and Ramdas Pophale) SiO2 
 PCOD9316322
Probable space group: C 2 2 21
;
_chemical_formula_sum "Si O2"
_cell_formula_units_Z 64
_cell_length_a 13.406844
_cell_length_b 14.074272
_cell_length_c 17.609389
_cell_angle_alpha 90.000000
_cell_angle_beta 90.000000
_cell_angle_gamma 90.000000
_cell_volume 3322.743242
_symmetry_space_group_name_H-M "C 2 2 21"
_symmetry_group_IT_number 20
_symmetry_cell_setting 'orthorhombic'
loop_
_space_group_symop_operation_xyz
x,y,z
-x,-y,1/2+z
x,-y,-z
-x,y,1/2-z
1/2+x,1/2+y,z
1/2-x,1/2-y,1/2+z
1/2+x,1/2-y,-z
1/2-x,1/2+y,1/2-z
loop_
_atom_site_type_symbol
_atom_site_label
_atom_site_fract_x
_atom_site_fract_y
_atom_site_fract_z
Si Si1 0.905556 0.590611 0.448921
Si Si2 0.608962 0.980157 0.775814
Si Si3 0.704628 0.595649 0.770908
Si Si4 0.536059 0.272994 0.445754
Si Si5 0.939234 0.954955 0.817416
Si Si6 0.323045 0.398444 0.956162
Si Si7 0.388272 0.777117 0.783991
Si Si8 0.893752 0.950271 0.420708
O O1 0.928570 0.500000 0.500000
O O2 0.902487 0.557859 0.361381
O O3 0.983946 0.673526 0.462725
O O4 0.792941 0.623472 0.466799
O O5 0.500000 0.013656 0.750000
O O6 0.638311 0.887268 0.726078
O O7 0.693339 0.058602 0.764938
O O8 0.614409 0.543276 0.725008
O O9 0.684834 0.706985 0.760564
O O10 0.692412 0.564779 0.858480
O O11 0.607266 0.318939 0.507893
O O12 0.601188 0.257317 0.370023
O O13 0.447944 0.349380 0.432877
O O14 0.853234 0.907678 0.867844
O O15 0.000000 0.902760 0.750000
O O16 0.021060 0.987087 0.878993
O O17 0.340809 0.500000 0.000000
O O18 0.500000 0.767418 0.750000
O O19 0.866233 0.000000 0.500000
#
# Coordination Sequence:
#
# PCOD9316322 Si02
#       8
#     8   8   8   8   8   8   8   8
#     4  11  25  42  63  93 128 171 214 252 312 384
#     4  11  23  44  67  89 127 173 217 252 307 385
#     4  11  20  35  64  94 125 159 219 263 312 372
#     4  12  20  40  66  95 124 159 215 262 303 379
#     4  10  17  30  60  97 126 154 200 264 319 363
#     4  11  20  38  64  96 126 165 209 265 320 374
#     4  11  19  38  70  96 112 161 216 258 304 371
#     4  11  19  33  60 100 128 154 198 276 331 359
#
# _framework density 19.261192999999999
#
# number of rings (size 3 to 8) (size 9 to 14) (size 15 to 20)
#    0.000    1.000    8.750    0.375    1.750    0.000 
#    2.250    3.125    0.000    0.750    0.000    0.000 
#    0.000    0.000    0.000    0.000    0.000    0.000 
#
# Total GULP energy -178677.325086 kJ/mol
# GULP energy per Si atom -5583.666409 kJ/mol
# Density = 1.921735 g / cm^3
# Si number density = 19.261193 Si / 1000 Ang^3
#
#
#
# Elastic Constant Matrix: (Units=GPa)
#
#
# Indices 1 2 3 4 5 6 
#
# 1 80.6045 37.1031 14.2546 0.0000 0.0000 0.0000
# 2 37.1031 62.3120 22.1756 0.0000 0.0000 0.0000
# 3 14.2546 22.1756 83.7996 0.0000 0.0000 0.0000
# 4 0.0000 0.0000 0.0000 20.3972 0.0000 0.0000
# 5 0.0000 0.0000 0.0000 0.0000 12.2725 0.0000
# 6 0.0000 0.0000 0.0000 0.0000 0.0000 17.4424
#
#
#
# Elastic Compliance Matrix: (Units=1/GPa)
#
#
# Indices 1 2 3 4 5 6 
#
# 1 0.017095 -0.010095 -0.000237 0.000000 0.000000 0.000000
# 2 -0.010095 0.023678 -0.004549 0.000000 0.000000 0.000000
# 3 -0.000237 -0.004549 0.013177 0.000000 0.000000 0.000000
# 4 0.000000 0.000000 0.000000 0.049026 0.000000 0.000000
# 5 0.000000 0.000000 0.000000 0.000000 0.081483 0.000000
# 6 0.000000 0.000000 0.000000 0.000000 0.000000 0.057331
#
#
# Mechanical properties :
#
#
# Convention : Reuss Voigt Hill
#
# Bulk Modulus (GPa) = 41.33948 41.53141 41.43544
# Shear Modulus (GPa) = 17.88178 20.23460 19.05819
#
# Velocity S-wave (km/s) = 3.05024 3.24472 3.14898
# Velocity P-wave (km/s) = 5.82362 5.97048 5.89750
#
# Compressibility (1/GPa) = 0.02418995
#
# Stress axis : x y z
#
# Youngs Moduli (GPa) = 58.49733 42.23353 75.88885
#
# Poissons Ratio (x) = 0.42634 0.01795
# Poissons Ratio (y) = 0.59052 0.34519
# Poissons Ratio (z) = 0.01384 0.19211
#
# Static dielectric constant tensor:
#      x y z
#    x 1.665400 0.000000 0.000000 
#    y 0.000000 1.669820 0.000000 
#    z 0.000000 0.000000 1.732940 
# 
# From -- ./inp_files/25054.got.cif
#   From: 2010.05.17/outbox.cif.g08.bks.cpg/sg20_13_cif.got.tgz:25054.got - 2010.06.03 22:52:26.
