data_PCOD9316982
_publ_section_title
;
Structure prediction by ZEFSAII (Michael W. Deem and Ramdas Pophale) SiO2 
 PCOD9316982
Probable space group: C 2 2 21
;
_chemical_formula_sum "Si O2"
_cell_formula_units_Z 56
_cell_length_a 5.387585
_cell_length_b 31.242574
_cell_length_c 15.651829
_cell_angle_alpha 90.000000
_cell_angle_beta 90.000000
_cell_angle_gamma 90.000000
_cell_volume 2634.547522
_symmetry_space_group_name_H-M "C 2 2 21"
_symmetry_group_IT_number 20
_symmetry_cell_setting 'orthorhombic'
loop_
_space_group_symop_operation_xyz
x,y,z
-x,-y,1/2+z
x,-y,-z
-x,y,1/2-z
1/2+x,1/2+y,z
1/2-x,1/2-y,1/2+z
1/2+x,1/2-y,-z
1/2-x,1/2+y,1/2-z
loop_
_atom_site_type_symbol
_atom_site_label
_atom_site_fract_x
_atom_site_fract_y
_atom_site_fract_z
Si Si1 0.414091 0.889731 0.839598
Si Si2 0.091289 0.854199 0.605787
Si Si3 0.252304 0.725448 0.786662
Si Si4 0.614991 0.950599 0.491667
Si Si5 0.251913 0.626502 0.784466
Si Si6 0.606977 0.726997 0.516567
Si Si7 0.883427 0.085576 0.949375
O O1 0.500000 0.910724 0.750000
O O2 0.635303 0.855357 0.854285
O O3 0.151972 0.864405 0.838272
O O4 0.398696 0.923916 0.918359
O O5 0.061349 0.813749 0.543849
O O6 0.104401 0.894678 0.542696
O O7 0.500000 0.746489 0.750000
O O8 0.250901 0.675863 0.754346
O O9 0.278649 0.721949 0.888365
O O10 0.000000 0.745455 0.750000
O O11 0.341386 0.948008 0.449913
O O12 0.835394 0.929619 0.435119
O O13 0.683849 0.000000 0.500000
O O14 0.500000 0.604973 0.750000
O O15 0.285638 0.621992 0.885211
O O16 0.000000 0.606789 0.750000
O O17 0.331899 0.746828 0.527815
#
# Coordination Sequence:
#
# PCOD9316982 Si02
#       7
#     8   8   8   8   8   8   8
#     4  10  21  39  64  87 117 160 209 255 302 357
#     4  10  21  39  60  86 113 153 207 251 297 359
#     4  10  21  38  59  82 115 153 192 237 295 367
#     4  10  21  36  59  87 119 159 200 243 305 359
#     4  10  19  32  55  84 111 144 186 236 289 343
#     4  12  24  40  61  89 123 159 204 254 316 370
#     4  10  19  36  58  81 116 152 197 246 281 361
#
# _framework density 21.256022999999999
#
# number of rings (size 3 to 8) (size 9 to 14) (size 15 to 20)
#    0.000    1.714    1.429    3.429    0.000    0.000 
#    0.000    9.286    0.000    1.714    0.000    0.000 
#    0.000    0.000    0.000    0.000    0.000    0.000 
#
# Total GULP energy -155893.592706 kJ/mol
# GULP energy per Si atom -5567.628311 kJ/mol
# Density = 2.120764 g / cm^3
# Si number density = 21.256023 Si / 1000 Ang^3
#
#
#
# Elastic Constant Matrix: (Units=GPa)
#
#
# Indices 1 2 3 4 5 6 
#
# 1 188.0929 21.0969 39.4207 0.0000 0.0000 0.0000
# 2 21.0969 33.0850 -12.2158 0.0000 0.0000 0.0000
# 3 39.4207 -12.2158 63.5818 0.0000 0.0000 0.0000
# 4 0.0000 0.0000 0.0000 10.0358 0.0000 0.0000
# 5 0.0000 0.0000 0.0000 0.0000 34.0154 0.0000
# 6 0.0000 0.0000 0.0000 0.0000 0.0000 10.2814
#
#
#
# Elastic Compliance Matrix: (Units=1/GPa)
#
#
# Indices 1 2 3 4 5 6 
#
# 1 0.007304 -0.006813 -0.005837 0.000000 0.000000 0.000000
# 2 -0.006813 0.038888 0.011695 0.000000 0.000000 0.000000
# 3 -0.005837 0.011695 0.021594 0.000000 0.000000 0.000000
# 4 0.000000 0.000000 0.000000 0.099643 0.000000 0.000000
# 5 0.000000 0.000000 0.000000 0.000000 0.029398 0.000000
# 6 0.000000 0.000000 0.000000 0.000000 0.000000 0.097263
#
#
# Mechanical properties :
#
#
# Convention : Reuss Voigt Hill
#
# Bulk Modulus (GPa) = 15.18008 42.37372 28.77690
# Shear Modulus (GPa) = 15.72530 26.63038 21.17784
#
# Velocity S-wave (km/s) = 2.72289 3.54339 3.15988
# Velocity P-wave (km/s) = 4.12826 6.05962 5.18467
#
# Compressibility (1/GPa) = 0.06587580
#
# Stress axis : x y z
#
# Youngs Moduli (GPa) = 136.90963 25.71509 46.30919
#
# Poissons Ratio (x) = 0.17519 0.27033
# Poissons Ratio (y) = 0.93274 -0.54160
# Poissons Ratio (z) = 0.79921 -0.30075
#
# Static dielectric constant tensor:
#      x y z
#    x 1.865640 0.000000 0.000000 
#    y 0.000000 1.754120 0.000000 
#    z 0.000000 0.000000 1.830480 
# 
# From -- ./inp_files/17951.got.cif
#   From: 2010.05.17/outbox.cif.g08.bks.cpg/sg20_9_cif.got.tgz:17951.got - 2010.06.03 22:52:26.
