data_PCOD9316655
_publ_section_title
;
Structure prediction by ZEFSAII (Michael W. Deem and Ramdas Pophale) SiO2 
 PCOD9316655
Probable space group: C 2 2 21
;
_chemical_formula_sum "Si O2"
_cell_formula_units_Z 40
_cell_length_a 8.228595
_cell_length_b 22.088415
_cell_length_c 10.810471
_cell_angle_alpha 90.000000
_cell_angle_beta 90.000000
_cell_angle_gamma 90.000000
_cell_volume 1964.874683
_symmetry_space_group_name_H-M "C 2 2 21"
_symmetry_group_IT_number 20
_symmetry_cell_setting 'orthorhombic'
loop_
_space_group_symop_operation_xyz
x,y,z
-x,-y,1/2+z
x,-y,-z
-x,y,1/2-z
1/2+x,1/2+y,z
1/2-x,1/2-y,1/2+z
1/2+x,1/2-y,-z
1/2-x,1/2+y,1/2-z
loop_
_atom_site_type_symbol
_atom_site_label
_atom_site_fract_x
_atom_site_fract_y
_atom_site_fract_z
Si Si1 0.727974 0.161991 0.494493
Si Si2 0.930496 0.732426 0.388254
Si Si3 0.837191 0.991821 0.869177
Si Si4 0.330159 0.643535 0.221003
Si Si5 0.791208 0.960879 0.383846
O O1 0.862242 0.209672 0.540559
O O2 0.563809 0.199473 0.472891
O O3 0.758538 0.133929 0.358077
O O4 0.737571 0.107104 0.590067
O O5 0.787786 0.684539 0.359272
O O6 0.000000 0.747648 0.250000
O O7 0.741641 0.016764 0.751436
O O8 0.011158 0.027131 0.881071
O O9 0.865502 0.920714 0.843396
O O10 0.751538 0.000000 0.000000
O O11 0.500000 0.675790 0.250000
O O12 0.731243 0.000000 0.500000
#
# Coordination Sequence:
#
# PCOD9316655 Si02
#       5
#     8   8   8   8   8
#     4  11  22  41  63  92 133 174 228 279 334 406
#     4  10  25  41  65  99 131 182 223 280 341 397
#     4  10  19  33  60 100 125 167 219 273 339 403
#     4  11  19  40  67  93 130 169 217 277 337 409
#     4  10  18  34  61  95 123 167 223 272 340 399
#
# _framework density 20.357531999999999
#
# number of rings (size 3 to 8) (size 9 to 14) (size 15 to 20)
#    0.000    1.600    4.000    2.400    2.800    0.000 
#    3.600    1.000    0.000    0.000    0.000    0.000 
#    0.000    0.000    0.000    0.000    0.000    0.000 
#
# Total GULP energy -111561.439107 kJ/mol
# GULP energy per Si atom -5578.071955 kJ/mol
# Density = 2.031120 g / cm^3
# Si number density = 20.357532 Si / 1000 Ang^3
#
#
#
# Elastic Constant Matrix: (Units=GPa)
#
#
# Indices 1 2 3 4 5 6 
#
# 1 59.1293 36.5472 19.1689 0.0000 0.0000 0.0000
# 2 36.5472 110.6794 58.4089 0.0000 0.0000 0.0000
# 3 19.1689 58.4089 146.4434 0.0000 0.0000 0.0000
# 4 0.0000 0.0000 0.0000 22.9889 0.0000 0.0000
# 5 0.0000 0.0000 0.0000 0.0000 16.5434 0.0000
# 6 0.0000 0.0000 0.0000 0.0000 0.0000 3.3588
#
#
#
# Elastic Compliance Matrix: (Units=1/GPa)
#
#
# Indices 1 2 3 4 5 6 
#
# 1 0.021249 -0.007028 0.000022 0.000000 0.000000 0.000000
# 2 -0.007028 0.013768 -0.004572 0.000000 0.000000 0.000000
# 3 0.000022 -0.004572 0.008649 0.000000 0.000000 0.000000
# 4 0.000000 0.000000 0.000000 0.043499 0.000000 0.000000
# 5 0.000000 0.000000 0.000000 0.000000 0.060447 0.000000
# 6 0.000000 0.000000 0.000000 0.000000 0.000000 0.297729
#
#
# Mechanical properties :
#
#
# Convention : Reuss Voigt Hill
#
# Bulk Modulus (GPa) = 48.75507 60.50022 54.62765
# Shear Modulus (GPa) = 10.51891 22.05336 16.28614
#
# Velocity S-wave (km/s) = 2.27559 3.29493 2.83151
# Velocity P-wave (km/s) = 5.55930 6.65272 6.13044
#
# Compressibility (1/GPa) = 0.02051069
#
# Stress axis : x y z
#
# Youngs Moduli (GPa) = 47.06106 72.63021 115.61895
#
# Poissons Ratio (x) = 0.51045 -0.00251
# Poissons Ratio (y) = 0.33075 0.52856
# Poissons Ratio (z) = -0.00102 0.33203
#
# Static dielectric constant tensor:
#      x y z
#    x 1.777260 0.000000 0.000000 
#    y 0.000000 1.707950 0.000000 
#    z 0.000000 0.000000 1.774700 
# 
# From -- ./inp_files/12893.got.cif
#   From: 2010.05.17/outbox.cif.g08.bks.cpg/sg20_7_cif.got.tgz:12893.got - 2010.06.03 22:52:26.
