data_PCOD9316737
_publ_section_title
;
Structure prediction by ZEFSAII (Michael W. Deem and Ramdas Pophale) SiO2 
 PCOD9316737
Probable space group: C 2 2 21
;
_chemical_formula_sum "Si O2"
_cell_formula_units_Z 40
_cell_length_a 22.918524
_cell_length_b 13.879080
_cell_length_c 5.180681
_cell_angle_alpha 90.000000
_cell_angle_beta 90.000000
_cell_angle_gamma 90.000000
_cell_volume 1647.912603
_symmetry_space_group_name_H-M "C 2 2 21"
_symmetry_group_IT_number 20
_symmetry_cell_setting 'orthorhombic'
loop_
_space_group_symop_operation_xyz
x,y,z
-x,-y,1/2+z
x,-y,-z
-x,y,1/2-z
1/2+x,1/2+y,z
1/2-x,1/2-y,1/2+z
1/2+x,1/2-y,-z
1/2-x,1/2+y,1/2-z
loop_
_atom_site_type_symbol
_atom_site_label
_atom_site_fract_x
_atom_site_fract_y
_atom_site_fract_z
Si Si1 0.614990 0.336324 0.520833
Si Si2 0.773898 0.500000 0.000000
Si Si3 0.500000 0.657669 0.250000
Si Si4 0.561979 0.195693 0.123470
Si Si5 0.213718 0.282867 0.317136
Si Si6 0.199789 0.000000 0.500000
Si Si7 0.458773 0.000000 0.500000
O O1 0.552927 0.387342 0.589751
O O2 0.600446 0.250666 0.326176
O O3 0.654759 0.279474 0.728825
O O4 0.656795 0.416336 0.404474
O O5 0.799129 0.604542 0.896254
O O6 0.737020 0.530309 0.252864
O O7 0.460581 0.727224 0.421873
O O8 0.500000 0.166054 0.250000
O O9 0.582765 0.092821 0.029394
O O10 0.252529 0.266202 0.060936
O O11 0.500000 0.022756 0.750000
#
# Coordination Sequence:
#
# PCOD9316737 Si02
#       7
#     8   4   4   8   8   4   4
#     4  11  25  45  72 106 145 198 242 317 370 453
#     4  12  24  50  74 114 143 190 251 312 376 450
#     4  10  22  44  66  98 150 190 246 296 366 444
#     4   9  20  39  62  95 139 188 242 291 355 436
#     4  12  25  47  77 108 147 191 246 312 377 441
#     4  12  26  46  80 102 145 198 249 308 382 432
#     4  10  18  36  62  90 130 190 238 284 350 426
#
# _framework density 24.273130999999999
#
# number of rings (size 3 to 8) (size 9 to 14) (size 15 to 20)
#    0.000    1.200    5.000    0.000    5.600    0.000 
#    9.000    0.000    0.000    0.000    0.000    0.000 
#    0.000    0.000    0.000    0.000    0.000    0.000 
#
# Total GULP energy -111462.734149 kJ/mol
# GULP energy per Si atom -5573.136707 kJ/mol
# Density = 2.421788 g / cm^3
# Si number density = 24.273131 Si / 1000 Ang^3
#
#
#
# Elastic Constant Matrix: (Units=GPa)
#
#
# Indices 1 2 3 4 5 6 
#
# 1 99.6012 11.1200 23.0219 0.0000 0.0000 0.0000
# 2 11.1200 103.1778 -7.5777 0.0000 0.0000 0.0000
# 3 23.0219 -7.5777 94.7704 0.0000 0.0000 0.0000
# 4 0.0000 0.0000 0.0000 -118.3974 0.0000 0.0000
# 5 0.0000 0.0000 0.0000 0.0000 25.3216 0.0000
# 6 0.0000 0.0000 0.0000 0.0000 0.0000 23.8050
#
#
#
# Elastic Compliance Matrix: (Units=1/GPa)
#
#
# Indices 1 2 3 4 5 6 
#
# 1 0.010826 -0.001368 -0.002739 0.000000 0.000000 0.000000
# 2 -0.001368 0.009922 0.001126 0.000000 0.000000 0.000000
# 3 -0.002739 0.001126 0.011307 0.000000 0.000000 0.000000
# 4 0.000000 0.000000 0.000000 -0.008446 0.000000 0.000000
# 5 0.000000 0.000000 0.000000 0.000000 0.039492 0.000000
# 6 0.000000 0.000000 0.000000 0.000000 0.000000 0.042008
#
#
# Mechanical properties :
#
#
# Convention : Reuss Voigt Hill
#
# Bulk Modulus (GPa) = 38.32559 38.96420 38.64489
# Shear Modulus (GPa) = 41.74686 4.21153 22.97920
#
# Velocity S-wave (km/s) = 4.15164 1.31865 3.08018
# Velocity P-wave (km/s) = 6.22937 4.29018 5.34840
#
# Compressibility (1/GPa) = 0.02609223
#
# Stress axis : x y z
#
# Youngs Moduli (GPa) = 92.37100 100.78505 88.43883
#
# Poissons Ratio (x) = 0.13787 0.24226
# Poissons Ratio (y) = 0.12636 -0.09955
# Poissons Ratio (z) = 0.25303 -0.11345
#
# Static dielectric constant tensor:
#      x y z
#    x 3.300970 0.000000 0.000000 
#    y 0.000000 2.140890 0.000000 
#    z 0.000000 0.000000 1.878830 
# 
# From -- ./inp_files/3690.got.cif
#   From: 2010.05.17/outbox.cif.g08.bks.cpg/sg20_2_cif.got.tgz:3690.got - 2010.06.03 22:52:26.
