data_PCOD9316637
_publ_section_title
;
Structure prediction by ZEFSAII (Michael W. Deem and Ramdas Pophale) SiO2 
 PCOD9316637
Probable space group: C 2 2 21
;
_chemical_formula_sum "Si O2"
_cell_formula_units_Z 60
_cell_length_a 22.212297
_cell_length_b 12.517624
_cell_length_c 11.718508
_cell_angle_alpha 90.000000
_cell_angle_beta 90.000000
_cell_angle_gamma 90.000000
_cell_volume 3258.274690
_symmetry_space_group_name_H-M "C 2 2 21"
_symmetry_group_IT_number 20
_symmetry_cell_setting 'orthorhombic'
loop_
_space_group_symop_operation_xyz
x,y,z
-x,-y,1/2+z
x,-y,-z
-x,y,1/2-z
1/2+x,1/2+y,z
1/2-x,1/2-y,1/2+z
1/2+x,1/2-y,-z
1/2-x,1/2+y,1/2-z
loop_
_atom_site_type_symbol
_atom_site_label
_atom_site_fract_x
_atom_site_fract_y
_atom_site_fract_z
Si Si1 0.327888 0.576484 0.787253
Si Si2 0.412627 0.240002 0.140716
Si Si3 0.304063 0.356722 0.701606
Si Si4 0.546844 0.203095 0.096952
Si Si5 0.181651 0.557510 0.382234
Si Si6 0.609058 0.000000 0.000000
Si Si7 0.313690 0.887625 0.304510
Si Si8 0.629349 0.612421 0.969893
O O1 0.374994 0.648626 0.857926
O O2 0.333066 0.447377 0.782640
O O3 0.258755 0.599933 0.819641
O O4 0.339091 0.607494 0.653795
O O5 0.477070 0.232126 0.080317
O O6 0.431590 0.219687 0.272587
O O7 0.369940 0.144507 0.098580
O O8 0.233063 0.380478 0.690847
O O9 0.321533 0.236162 0.727748
O O10 0.323796 0.375096 0.571152
O O11 0.585030 0.288808 0.026809
O O12 0.566547 0.084508 0.063849
O O13 0.201237 0.500000 0.500000
O O14 0.163887 0.461682 0.298425
O O15 0.651455 0.069083 0.915373
O O16 0.597718 0.500000 0.000000
#
# Coordination Sequence:
#
# PCOD9316637 Si02
#       8
#     8   8   8   8   8   4   8   8
#     4   9  19  34  56  85 117 153 190 238 302 355
#     4  10  20  38  56  81 111 158 200 237 286 354
#     4  10  18  34  58  86 118 145 193 247 299 358
#     4  10  21  35  58  80 114 153 201 244 281 349
#     4  11  22  37  56  85 120 158 189 238 306 364
#     4  12  22  36  58  92 122 156 196 244 298 352
#     4  11  21  36  58  89 123 150 189 247 300 360
#     4   9  17  33  58  84 106 148 198 245 291 348
#
# _framework density 18.414653000000001
#
# number of rings (size 3 to 8) (size 9 to 14) (size 15 to 20)
#    0.000    1.867    4.000    2.000    0.933    0.000 
#    4.800    0.000    4.400    0.000    3.467    0.000 
#    0.000    0.000    0.000    0.000    0.000    0.000 
#
# Total GULP energy -167095.928576 kJ/mol
# GULP energy per Si atom -5569.864286 kJ/mol
# Density = 1.837274 g / cm^3
# Si number density = 18.414653 Si / 1000 Ang^3
#
#
#
# Elastic Constant Matrix: (Units=GPa)
#
#
# Indices 1 2 3 4 5 6 
#
# 1 84.4641 33.3841 3.6073 0.0000 0.0000 0.0000
# 2 33.3841 127.8538 7.7345 0.0000 0.0000 0.0000
# 3 3.6073 7.7345 18.4808 0.0000 0.0000 0.0000
# 4 0.0000 0.0000 0.0000 19.1681 0.0000 0.0000
# 5 0.0000 0.0000 0.0000 0.0000 10.6559 0.0000
# 6 0.0000 0.0000 0.0000 0.0000 0.0000 21.1303
#
#
#
# Elastic Compliance Matrix: (Units=1/GPa)
#
#
# Indices 1 2 3 4 5 6 
#
# 1 0.013226 -0.003383 -0.001166 0.000000 0.000000 0.000000
# 2 -0.003383 0.008890 -0.003060 0.000000 0.000000 0.000000
# 3 -0.001166 -0.003060 0.055618 0.000000 0.000000 0.000000
# 4 0.000000 0.000000 0.000000 0.052170 0.000000 0.000000
# 5 0.000000 0.000000 0.000000 0.000000 0.093845 0.000000
# 6 0.000000 0.000000 0.000000 0.000000 0.000000 0.047325
#
#
# Mechanical properties :
#
#
# Convention : Reuss Voigt Hill
#
# Bulk Modulus (GPa) = 15.99577 35.58339 25.78958
# Shear Modulus (GPa) = 16.27966 22.59571 19.43768
#
# Velocity S-wave (km/s) = 2.97654 3.50673 3.25246
# Velocity P-wave (km/s) = 4.52972 5.98010 5.30471
#
# Compressibility (1/GPa) = 0.06251653
#
# Stress axis : x y z
#
# Youngs Moduli (GPa) = 75.60718 112.48721 17.97966
#
# Poissons Ratio (x) = 0.38054 0.02096
# Poissons Ratio (y) = 0.25578 0.05502
# Poissons Ratio (z) = 0.08814 0.34423
#
# Static dielectric constant tensor:
#      x y z
#    x 1.629700 0.000000 0.000000 
#    y 0.000000 1.665920 0.000000 
#    z 0.000000 0.000000 1.636480 
# 
# From -- ./inp_files/16803.got.cif
#   From: 2010.05.17/outbox.cif.g08.bks.cpg/sg20_9_cif.got.tgz:16803.got - 2010.06.03 22:52:26.
