data_PCOD9316791
_publ_section_title
;
Structure prediction by ZEFSAII (Michael W. Deem and Ramdas Pophale) SiO2 
 PCOD9316791
Probable space group: C 2 2 21
;
_chemical_formula_sum "Si O2"
_cell_formula_units_Z 36
_cell_length_a 9.285013
_cell_length_b 10.576286
_cell_length_c 14.236830
_cell_angle_alpha 90.000000
_cell_angle_beta 90.000000
_cell_angle_gamma 90.000000
_cell_volume 1398.070274
_symmetry_space_group_name_H-M "C 2 2 21"
_symmetry_group_IT_number 20
_symmetry_cell_setting 'orthorhombic'
loop_
_space_group_symop_operation_xyz
x,y,z
-x,-y,1/2+z
x,-y,-z
-x,y,1/2-z
1/2+x,1/2+y,z
1/2-x,1/2-y,1/2+z
1/2+x,1/2-y,-z
1/2-x,1/2+y,1/2-z
loop_
_atom_site_type_symbol
_atom_site_label
_atom_site_fract_x
_atom_site_fract_y
_atom_site_fract_z
Si Si1 0.325648 0.892768 0.078986
Si Si2 0.000000 0.521811 0.250000
Si Si3 0.462942 0.446291 0.357253
Si Si4 0.552370 0.276217 0.857868
Si Si5 0.790698 0.477259 0.395617
O O1 0.422851 0.765928 0.071810
O O2 0.398647 0.949985 0.173821
O O3 0.157909 0.859842 0.095649
O O4 0.340961 0.000000 0.000000
O O5 0.874272 0.568503 0.321611
O O6 0.500000 0.410040 0.250000
O O7 0.387847 0.583885 0.369942
O O8 0.619857 0.477116 0.395706
O O9 0.500000 0.280505 0.750000
O O10 0.668186 0.166117 0.867609
O O11 0.844473 0.500000 0.500000
#
# Coordination Sequence:
#
# PCOD9316791 Si02
#       5
#     8   4   8   8   8
#     4  11  21  39  65  88 119 159 197 246 296 348
#     4  10  18  38  60  84 120 156 192 238 294 350
#     4  11  22  39  63  87 121 159 195 246 299 346
#     4  10  20  39  63  84 123 159 192 243 300 345
#     4  11  21  39  65  88 119 159 197 246 296 348
#
# _framework density 25.749779
#
# number of rings (size 3 to 8) (size 9 to 14) (size 15 to 20)
#    0.000    1.333    6.667    3.333    0.000    1.778 
#    0.000    4.444    4.889    0.000    0.000    0.000 
#    0.000    0.000    0.000    0.000    0.000    0.000 
#
# Total GULP energy -100393.329123 kJ/mol
# GULP energy per Si atom -5577.407173 kJ/mol
# Density = 2.569117 g / cm^3
# Si number density = 25.749779 Si / 1000 Ang^3
#
#
#
# Elastic Constant Matrix: (Units=GPa)
#
#
# Indices 1 2 3 4 5 6 
#
# 1 149.4971 1.6366 24.8138 0.0000 0.0000 0.0000
# 2 1.6366 44.9490 -18.3162 0.0000 0.0000 0.0000
# 3 24.8138 -18.3162 132.6432 0.0000 0.0000 0.0000
# 4 0.0000 0.0000 0.0000 12.6348 0.0000 0.0000
# 5 0.0000 0.0000 0.0000 0.0000 35.5976 0.0000
# 6 0.0000 0.0000 0.0000 0.0000 0.0000 17.2194
#
#
#
# Elastic Compliance Matrix: (Units=1/GPa)
#
#
# Indices 1 2 3 4 5 6 
#
# 1 0.006932 -0.000827 -0.001411 0.000000 0.000000 0.000000
# 2 -0.000827 0.023673 0.003424 0.000000 0.000000 0.000000
# 3 -0.001411 0.003424 0.008276 0.000000 0.000000 0.000000
# 4 0.000000 0.000000 0.000000 0.079147 0.000000 0.000000
# 5 0.000000 0.000000 0.000000 0.000000 0.028092 0.000000
# 6 0.000000 0.000000 0.000000 0.000000 0.000000 0.058074
#
#
# Mechanical properties :
#
#
# Convention : Reuss Voigt Hill
#
# Bulk Modulus (GPa) = 24.24179 38.15086 31.19632
# Shear Modulus (GPa) = 23.19399 34.35404 28.77401
#
# Velocity S-wave (km/s) = 3.00450 3.65656 3.34645
# Velocity P-wave (km/s) = 4.63366 5.71624 5.20318
#
# Compressibility (1/GPa) = 0.04125108
#
# Stress axis : x y z
#
# Youngs Moduli (GPa) = 144.25086 42.24278 120.83479
#
# Poissons Ratio (x) = 0.03495 0.17051
# Poissons Ratio (y) = 0.11936 -0.41370
# Poissons Ratio (z) = 0.20355 -0.14462
#
# Static dielectric constant tensor:
#      x y z
#    x 2.077710 0.000000 0.000000 
#    y 0.000000 2.091070 0.000000 
#    z 0.000000 0.000000 2.044480 
# 
# From -- ./inp_files/18430.got.cif
#   From: 2010.05.17/outbox.cif.g08.bks.cpg/sg20_10_cif.got.tgz:18430.got - 2010.06.03 22:52:26.
