data_PCOD9316454
_publ_section_title
;
Structure prediction by ZEFSAII (Michael W. Deem and Ramdas Pophale) SiO2 
 PCOD9316454
Probable space group: C 2 2 21
;
_chemical_formula_sum "Si O2"
_cell_formula_units_Z 28
_cell_length_a 21.943548
_cell_length_b 10.813957
_cell_length_c 4.917871
_cell_angle_alpha 90.000000
_cell_angle_beta 90.000000
_cell_angle_gamma 90.000000
_cell_volume 1166.993991
_symmetry_space_group_name_H-M "C 2 2 21"
_symmetry_group_IT_number 20
_symmetry_cell_setting 'orthorhombic'
loop_
_space_group_symop_operation_xyz
x,y,z
-x,-y,1/2+z
x,-y,-z
-x,y,1/2-z
1/2+x,1/2+y,z
1/2-x,1/2-y,1/2+z
1/2+x,1/2-y,-z
1/2-x,1/2+y,1/2-z
loop_
_atom_site_type_symbol
_atom_site_label
_atom_site_fract_x
_atom_site_fract_y
_atom_site_fract_z
Si Si1 0.000000 0.082498 0.250000
Si Si2 0.170696 0.711748 0.378030
Si Si3 0.958985 0.677457 0.982664
Si Si4 0.192918 0.869759 0.880659
O O1 0.047386 0.180659 0.373231
O O2 0.978083 0.000000 0.500000
O O3 0.109574 0.639861 0.457163
O O4 0.179553 0.831803 0.572228
O O5 0.233586 0.638338 0.410553
O O6 0.165804 0.761631 0.071440
O O7 0.000000 0.682492 0.250000
O O8 0.000000 0.612617 0.750000
O O9 0.171896 0.000000 0.000000
#
# Coordination Sequence:
#
# PCOD9316454 Si02
#       4
#     4   8   8   8
#     4  10  18  30  42  68 104 134 168 198 246 314
#     4  10  21  37  55  79 108 139 177 217 265 313
#     4  10  20  33  48  71 104 141 160 206 260 312
#     4  10  21  37  57  79 103 139 181 223 262 304
#
# _framework density 23.993268
#
# number of rings (size 3 to 8) (size 9 to 14) (size 15 to 20)
#    0.857    1.143    1.429    2.571    0.000    3.429 
#    0.000    0.000    0.000    1.714    0.000    0.000 
#    0.000    0.000    0.000    0.000    0.000    0.000 
#
# Total GULP energy -78178.975893 kJ/mol
# GULP energy per Si atom -5584.212564 kJ/mol
# Density = 2.393866 g / cm^3
# Si number density = 23.993268 Si / 1000 Ang^3
#
#
#
# Elastic Constant Matrix: (Units=GPa)
#
#
# Indices 1 2 3 4 5 6 
#
# 1 176.7750 -12.9304 9.7781 0.0000 0.0000 0.0000
# 2 -12.9304 70.9645 -6.7782 0.0000 0.0000 0.0000
# 3 9.7781 -6.7782 117.3117 0.0000 0.0000 0.0000
# 4 0.0000 0.0000 0.0000 2.2209 0.0000 0.0000
# 5 0.0000 0.0000 0.0000 0.0000 21.1113 0.0000
# 6 0.0000 0.0000 0.0000 0.0000 0.0000 -6.0522
#
#
#
# Elastic Compliance Matrix: (Units=1/GPa)
#
#
# Indices 1 2 3 4 5 6 
#
# 1 0.005754 0.001008 -0.000421 0.000000 0.000000 0.000000
# 2 0.001008 0.014346 0.000745 0.000000 0.000000 0.000000
# 3 -0.000421 0.000745 0.008602 0.000000 0.000000 0.000000
# 4 0.000000 0.000000 0.000000 0.450273 0.000000 0.000000
# 5 0.000000 0.000000 0.000000 0.000000 0.047368 0.000000
# 6 0.000000 0.000000 0.000000 0.000000 0.000000 -0.165229
#
#
# Mechanical properties :
#
#
# Convention : Reuss Voigt Hill
#
# Bulk Modulus (GPa) = 31.88137 38.35447 35.11792
# Shear Modulus (GPa) = 13.55355 28.45478 21.00416
#
# Velocity S-wave (km/s) = 2.37932 3.44750 2.96196
# Velocity P-wave (km/s) = 4.56779 5.64510 5.13478
#
# Compressibility (1/GPa) = 0.03136628
#
# Stress axis : x y z
#
# Youngs Moduli (GPa) = 173.79339 69.70386 116.24587
#
# Poissons Ratio (x) = -0.07027 0.04898
# Poissons Ratio (y) = -0.17522 -0.08659
# Poissons Ratio (z) = 0.07323 -0.05192
#
# Static dielectric constant tensor:
#      x y z
#    x 1.916440 0.000000 0.000000 
#    y 0.000000 1.934720 0.000000 
#    z 0.000000 0.000000 1.861920 
# 
# From -- ./inp_files/2980.got.cif
#   From: 2010.05.17/outbox.cif.g08.bks.cpg/sg20_2_cif.got.tgz:2980.got - 2010.06.03 22:52:26.
