data_PCOD9316429
_publ_section_title
;
Structure prediction by ZEFSAII (Michael W. Deem and Ramdas Pophale) SiO2 
 PCOD9316429
Probable space group: C 2 2 21
;
_chemical_formula_sum "Si O2"
_cell_formula_units_Z 56
_cell_length_a 16.384817
_cell_length_b 12.411620
_cell_length_c 12.346649
_cell_angle_alpha 90.000000
_cell_angle_beta 90.000000
_cell_angle_gamma 90.000000
_cell_volume 2510.840745
_symmetry_space_group_name_H-M "C 2 2 21"
_symmetry_group_IT_number 20
_symmetry_cell_setting 'orthorhombic'
loop_
_space_group_symop_operation_xyz
x,y,z
-x,-y,1/2+z
x,-y,-z
-x,y,1/2-z
1/2+x,1/2+y,z
1/2-x,1/2-y,1/2+z
1/2+x,1/2-y,-z
1/2-x,1/2+y,1/2-z
loop_
_atom_site_type_symbol
_atom_site_label
_atom_site_fract_x
_atom_site_fract_y
_atom_site_fract_z
Si Si1 0.705925 0.377437 0.694772
Si Si2 0.160353 0.641167 0.617439
Si Si3 0.926088 0.021031 0.679000
Si Si4 0.700327 0.065806 0.851696
Si Si5 0.075166 0.162767 0.018418
Si Si6 0.515615 0.859451 0.125531
Si Si7 0.255411 0.788125 0.906002
O O1 0.662247 0.270158 0.649514
O O2 0.640801 0.460645 0.747708
O O3 0.763359 0.450098 0.619437
O O4 0.767959 0.334646 0.787190
O O5 0.203300 0.585403 0.720374
O O6 0.071613 0.586582 0.607415
O O7 0.201420 0.646360 0.500422
O O8 0.959385 0.930545 0.595545
O O9 0.000000 0.061632 0.750000
O O10 0.901323 0.117129 0.598586
O O11 0.603295 0.081095 0.877121
O O12 0.758616 0.159158 0.900364
O O13 0.159484 0.194214 0.074500
O O14 0.019953 0.266523 0.034736
O O15 0.500000 0.816741 0.250000
#
# Coordination Sequence:
#
# PCOD9316429 Si02
#       7
#     8   8   8   8   8   8   8
#     4  10  20  34  54  80 109 144 186 233 282 335
#     4  10  19  33  57  80 106 146 189 234 274 327
#     4  10  18  28  46  76 107 136 174 218 269 327
#     4   9  19  34  54  80 111 145 182 227 282 336
#     4   9  17  30  48  70 104 141 170 218 276 323
#     4   9  17  33  54  75 106 145 184 224 273 328
#     4   9  19  34  52  77 106 141 186 228 274 330
#
# _framework density 22.303287000000001
#
# number of rings (size 3 to 8) (size 9 to 14) (size 15 to 20)
#    0.000    2.571    0.000    4.714    0.000    3.429 
#    0.000    0.000    0.000   20.571    0.000    6.000 
#    0.000    0.000    0.000    0.000    0.000    0.000 
#
# Total GULP energy -155903.594007 kJ/mol
# GULP energy per Si atom -5567.985500 kJ/mol
# Density = 2.225252 g / cm^3
# Si number density = 22.303287 Si / 1000 Ang^3
#
#
#
# Elastic Constant Matrix: (Units=GPa)
#
#
# Indices 1 2 3 4 5 6 
#
# 1 42.5947 6.0592 -0.5386 0.0000 0.0000 0.0000
# 2 6.0592 64.8553 6.9307 0.0000 0.0000 0.0000
# 3 -0.5386 6.9307 43.2369 0.0000 0.0000 0.0000
# 4 0.0000 0.0000 0.0000 26.0187 0.0000 0.0000
# 5 0.0000 0.0000 0.0000 0.0000 28.5211 0.0000
# 6 0.0000 0.0000 0.0000 0.0000 0.0000 -5.7912
#
#
#
# Elastic Compliance Matrix: (Units=1/GPa)
#
#
# Indices 1 2 3 4 5 6 
#
# 1 0.023812 -0.002296 0.000665 0.000000 0.000000 0.000000
# 2 -0.002296 0.015909 -0.002579 0.000000 0.000000 0.000000
# 3 0.000665 -0.002579 0.023550 0.000000 0.000000 0.000000
# 4 0.000000 0.000000 0.000000 0.038434 0.000000 0.000000
# 5 0.000000 0.000000 0.000000 0.000000 0.035062 0.000000
# 6 0.000000 0.000000 0.000000 0.000000 0.000000 -0.172675
#
#
# Mechanical properties :
#
#
# Convention : Reuss Voigt Hill
#
# Bulk Modulus (GPa) = 18.23106 19.50994 18.87050
# Shear Modulus (GPa) = -543.18925 18.96542 -262.11191
#
# Velocity S-wave (km/s) = -15.62291 2.91923 -10.85250
# Velocity P-wave (km/s) = 17.81129 4.48654 12.18837
#
# Compressibility (1/GPa) = 0.05485146
#
# Stress axis : x y z
#
# Youngs Moduli (GPa) = 41.99545 62.85751 42.46279
#
# Poissons Ratio (x) = 0.14430 -0.02822
# Poissons Ratio (y) = 0.09641 0.10950
# Poissons Ratio (z) = -0.02791 0.16209
#
# Static dielectric constant tensor:
#      x y z
#    x 1.801970 0.000000 0.000000 
#    y 0.000000 1.893180 0.000000 
#    z 0.000000 0.000000 1.923550 
# 
# From -- ./inp_files/20728.got.cif
#   From: 2010.05.17/outbox.cif.g08.bks.cpg/sg20_11_cif.got.tgz:20728.got - 2010.06.03 22:52:26.
