data_PCOD9316155
_publ_section_title
;
Structure prediction by ZEFSAII (Michael W. Deem and Ramdas Pophale) SiO2 
 PCOD9316155
Probable space group: P 21 21 21
;
_chemical_formula_sum "Si O2"
_cell_formula_units_Z 28
_cell_length_a 6.000000
_cell_length_b 15.000000
_cell_length_c 15.000000
_cell_angle_alpha 90.000000
_cell_angle_beta 90.000000
_cell_angle_gamma 90.000000
_cell_volume 1350.000000
_symmetry_space_group_name_H-M "P 21 21 21"
_symmetry_group_IT_number 19
_symmetry_cell_setting 'orthorhombic'
loop_
_space_group_symop_operation_xyz
x,y,z
1/2-x,-y,1/2+z
1/2+x,1/2-y,-z
-x,1/2+y,1/2-z
loop_
_atom_site_type_symbol
_atom_site_label
_atom_site_fract_x
_atom_site_fract_y
_atom_site_fract_z
Si Si1 0.757673 0.060755 0.804681
Si Si2 0.574622 0.684257 0.785073
Si Si3 0.587943 0.301369 0.131659
Si Si4 0.471508 0.782425 0.964527
Si Si5 0.793659 0.359192 0.941182
Si Si6 0.968086 0.996788 0.134974
Si Si7 0.396856 0.481578 0.510684
O O1 0.624441 0.150734 0.778281
O O2 0.713437 0.001310 0.716319
O O3 0.988971 0.102233 0.837694
O O4 0.655531 0.011181 0.888861
O O5 0.758187 0.721211 0.717058
O O6 0.498901 0.752116 0.861506
O O7 0.623349 0.588080 0.835238
O O8 0.415200 0.221186 0.111030
O O9 0.706193 0.319540 0.035944
O O10 0.476554 0.887834 0.984077
O O11 0.219265 0.749585 0.994950
O O12 0.600631 0.412233 0.886133
O O13 0.966252 0.438026 0.965971
O O14 0.829495 0.971083 0.046742
#
# Coordination Sequence:
#
# PCOD9316155 Si02
#       7
#     4   4   4   4   4   4   4
#     4  10  24  45  70 106 149 194 258 317 389 473
#     4  10  25  49  69 109 152 190 258 326 393 475
#     4  12  26  46  75 108 151 198 260 335 390 491
#     4  12  27  48  77 112 154 212 261 324 410 485
#     4  12  26  45  77 106 149 202 260 319 412 465
#     4  10  24  46  73 104 147 198 247 327 391 471
#     4  12  24  47  75 105 150 198 260 322 393 482
#
# _framework density 20.740741
#
# number of rings (size 3 to 8) (size 9 to 14) (size 15 to 20)
#    0.857    0.000    4.286    1.714    6.000    2.286 
#    0.000    0.000    0.000    0.000    0.000    0.000 
#    0.000    0.000    0.000    0.000    0.000    0.000 
#
# Total GULP energy -156086.818960 kJ/mol
# GULP energy per Si atom -5574.529249 kJ/mol
# Density = 2.069353 g / cm^3
# Si number density = 20.740741 Si / 1000 Ang^3
#
#
#
# Elastic Constant Matrix: (Units=GPa)
#
#
# Indices 1 2 3 4 5 6 
#
# 1 43.6655 16.8642 31.5187 0.0000 0.0000 0.0000
# 2 16.8642 94.0558 32.6920 0.0000 0.0000 0.0000
# 3 31.5187 32.6920 143.3338 0.0000 0.0000 0.0000
# 4 0.0000 0.0000 0.0000 46.9667 0.0000 0.0000
# 5 0.0000 0.0000 0.0000 0.0000 40.3017 0.0000
# 6 0.0000 0.0000 0.0000 0.0000 0.0000 49.5726
#
#
#
# Elastic Compliance Matrix: (Units=1/GPa)
#
#
# Indices 1 2 3 4 5 6 
#
# 1 0.028048 -0.003134 -0.005453 0.000000 0.000000 0.000000
# 2 -0.003134 0.011898 -0.002025 0.000000 0.000000 0.000000
# 3 -0.005453 -0.002025 0.008638 0.000000 0.000000 0.000000
# 4 0.000000 0.000000 0.000000 0.021292 0.000000 0.000000
# 5 0.000000 0.000000 0.000000 0.000000 0.024813 0.000000
# 6 0.000000 0.000000 0.000000 0.000000 0.000000 0.020172
#
#
# Mechanical properties :
#
#
# Convention : Reuss Voigt Hill
#
# Bulk Modulus (GPa) = 36.54883 49.24496 42.89690
# Shear Modulus (GPa) = 34.43479 40.70021 37.56750
#
# Velocity S-wave (km/s) = 4.07904 4.43463 4.26054
# Velocity P-wave (km/s) = 6.31227 7.07219 6.70301
#
# Compressibility (1/GPa) = 0.02736065
#
# Stress axis : x y z
#
# Youngs Moduli (GPa) = 35.65363 84.05096 115.77351
#
# Poissons Ratio (x) = 0.26338 0.63130
# Poissons Ratio (y) = 0.11173 0.23439
# Poissons Ratio (z) = 0.19441 0.17017
#
# Static dielectric constant tensor:
#      x y z
#    x 1.825670 0.000000 0.000000 
#    y 0.000000 1.735770 0.000000 
#    z 0.000000 0.000000 1.728090 
# 
# From -- ./inp_files/5721.got.cif
#   From: 2010.05.17/outbox.ucp.g08.bks.cvg/sg19_3_cif.got.tgz:5721.got - 2010.06.11 13:13:52.
