data_PCOD9316527
_publ_section_title
;
Structure prediction by ZEFSAII (Michael W. Deem and Ramdas Pophale) SiO2 
 PCOD9316527
Probable space group: C 2 2 21
;
_chemical_formula_sum "Si O2"
_cell_formula_units_Z 36
_cell_length_a 20.511710
_cell_length_b 11.532808
_cell_length_c 8.686351
_cell_angle_alpha 90.000000
_cell_angle_beta 90.000000
_cell_angle_gamma 90.000000
_cell_volume 2054.822460
_symmetry_space_group_name_H-M "C 2 2 21"
_symmetry_group_IT_number 20
_symmetry_cell_setting 'orthorhombic'
loop_
_space_group_symop_operation_xyz
x,y,z
-x,-y,1/2+z
x,-y,-z
-x,y,1/2-z
1/2+x,1/2+y,z
1/2-x,1/2-y,1/2+z
1/2+x,1/2-y,-z
1/2-x,1/2+y,1/2-z
loop_
_atom_site_type_symbol
_atom_site_label
_atom_site_fract_x
_atom_site_fract_y
_atom_site_fract_z
Si Si1 0.423148 0.574610 0.231576
Si Si2 0.363716 0.649286 0.913957
Si Si3 0.301706 0.182292 0.281621
Si Si4 0.760719 0.500000 0.500000
Si Si5 0.188621 0.870526 0.949674
O O1 0.500000 0.582304 0.250000
O O2 0.401082 0.441895 0.195950
O O3 0.383821 0.618941 0.379722
O O4 0.397981 0.642125 0.079424
O O5 0.355253 0.775395 0.841061
O O6 0.290670 0.594904 0.933957
O O7 0.304688 0.061543 0.372360
O O8 0.234165 0.171662 0.189487
O O9 0.303449 0.283261 0.409341
O O10 0.208749 0.000000 0.000000
#
# Coordination Sequence:
#
# PCOD9316527 Si02
#       5
#     8   8   8   4   8
#     4  10  21  37  56  85 123 150 189 235 286 353
#     4  10  20  35  52  83 121 151 188 228 286 346
#     4  12  20  35  55  80 126 150 189 239 283 355
#     4  10  18  32  52  80 116 150 186 226 286 342
#     4  12  22  34  56  86 118 157 185 234 298 339
#
# _framework density 17.519762
#
# number of rings (size 3 to 8) (size 9 to 14) (size 15 to 20)
#    0.000    1.333    8.889    0.000    3.111    0.000 
#    0.000    0.000    0.000    0.000    0.000    4.667 
#   13.333    0.000    0.000    0.000    0.000    0.000 
#
# Total GULP energy -100359.912451 kJ/mol
# GULP energy per Si atom -5575.550692 kJ/mol
# Density = 1.747989 g / cm^3
# Si number density = 17.519762 Si / 1000 Ang^3
#
#
#
# Elastic Constant Matrix: (Units=GPa)
#
#
# Indices 1 2 3 4 5 6 
#
# 1 95.1300 45.3391 46.6294 0.0000 0.0000 0.0000
# 2 45.3391 52.9806 37.2542 0.0000 0.0000 0.0000
# 3 46.6294 37.2542 78.7152 0.0000 0.0000 0.0000
# 4 0.0000 0.0000 0.0000 52.6537 0.0000 0.0000
# 5 0.0000 0.0000 0.0000 0.0000 15.3515 0.0000
# 6 0.0000 0.0000 0.0000 0.0000 0.0000 11.5757
#
#
#
# Elastic Compliance Matrix: (Units=1/GPa)
#
#
# Indices 1 2 3 4 5 6 
#
# 1 0.019161 -0.012614 -0.005381 0.000000 0.000000 0.000000
# 2 -0.012614 0.036593 -0.009846 0.000000 0.000000 0.000000
# 3 -0.005381 -0.009846 0.020552 0.000000 0.000000 0.000000
# 4 0.000000 0.000000 0.000000 0.018992 0.000000 0.000000
# 5 0.000000 0.000000 0.000000 0.000000 0.065140 0.000000
# 6 0.000000 0.000000 0.000000 0.000000 0.000000 0.086388
#
#
# Mechanical properties :
#
#
# Convention : Reuss Voigt Hill
#
# Bulk Modulus (GPa) = 48.48833 53.91902 51.20367
# Shear Modulus (GPa) = 16.16118 22.42305 19.29212
#
# Velocity S-wave (km/s) = 3.04049 3.58141 3.32198
# Velocity P-wave (km/s) = 6.32950 6.92423 6.63353
#
# Compressibility (1/GPa) = 0.02062352
#
# Stress axis : x y z
#
# Youngs Moduli (GPa) = 52.18855 27.32751 48.65785
#
# Poissons Ratio (x) = 0.34471 0.26182
# Poissons Ratio (y) = 0.65830 0.47911
# Poissons Ratio (z) = 0.28082 0.26908
#
# Static dielectric constant tensor:
#      x y z
#    x 1.569710 0.000000 0.000000 
#    y 0.000000 1.623640 0.000000 
#    z 0.000000 0.000000 1.667860 
# 
# From -- ./inp_files/7166.got.cif
#   From: 2010.05.17/outbox.cif.g08.bks.cpg/sg20_4_cif.got.tgz:7166.got - 2010.06.03 22:52:26.
