data_PCOD9316683
_publ_section_title
;
Structure prediction by ZEFSAII (Michael W. Deem and Ramdas Pophale) SiO2 
 PCOD9316683
Probable space group: C 2 2 21
;
_chemical_formula_sum "Si O2"
_cell_formula_units_Z 64
_cell_length_a 12.609491
_cell_length_b 18.123804
_cell_length_c 15.956934
_cell_angle_alpha 90.000000
_cell_angle_beta 90.000000
_cell_angle_gamma 90.000000
_cell_volume 3646.669138
_symmetry_space_group_name_H-M "C 2 2 21"
_symmetry_group_IT_number 20
_symmetry_cell_setting 'orthorhombic'
loop_
_space_group_symop_operation_xyz
x,y,z
-x,-y,1/2+z
x,-y,-z
-x,y,1/2-z
1/2+x,1/2+y,z
1/2-x,1/2-y,1/2+z
1/2+x,1/2-y,-z
1/2-x,1/2+y,1/2-z
loop_
_atom_site_type_symbol
_atom_site_label
_atom_site_fract_x
_atom_site_fract_y
_atom_site_fract_z
Si Si1 0.264062 0.408890 0.871297
Si Si2 0.868848 0.315689 0.029444
Si Si3 0.407761 0.355078 0.019998
Si Si4 0.362863 0.670357 0.473588
Si Si5 0.599490 0.845434 0.996851
Si Si6 0.239410 0.582707 0.859524
Si Si7 0.881856 0.164543 0.279394
Si Si8 0.617148 0.833155 0.271525
O O1 0.162378 0.369828 0.913901
O O2 0.245115 0.495067 0.859214
O O3 0.299867 0.371691 0.784869
O O4 0.356720 0.397472 0.940666
O O5 0.878340 0.230771 0.997943
O O6 0.876420 0.319146 0.129795
O O7 0.754517 0.346822 0.005314
O O8 0.973260 0.355264 0.993207
O O9 0.347596 0.383327 0.102394
O O10 0.534434 0.362588 0.020245
O O11 0.378284 0.759193 0.483419
O O12 0.368831 0.647619 0.376660
O O13 0.650484 0.891131 0.073306
O O14 0.205334 0.615509 0.770298
O O15 0.873660 0.252943 0.270959
O O16 0.000000 0.143632 0.250000
O O17 0.500000 0.862905 0.250000
#
# Coordination Sequence:
#
# PCOD9316683 Si02
#       8
#     8   8   8   8   8   8   8   8
#     4  11  21  36  60  85 115 155 197 235 286 350
#     4  11  19  33  61  90 116 143 192 249 292 324
#     4  10  18  35  57  90 113 150 194 237 282 346
#     4  11  19  33  61  90 116 143 192 249 292 324
#     4  10  18  35  57  90 113 150 194 237 282 346
#     4  11  21  36  60  85 115 155 197 235 286 350
#     4  11  18  35  60  87 112 147 199 244 275 335
#     4  11  18  35  60  87 112 147 199 244 275 335
#
# _framework density 17.550262
#
# number of rings (size 3 to 8) (size 9 to 14) (size 15 to 20)
#    0.000    1.250    7.500    3.000    0.000    0.000 
#    0.000    3.750    0.000    4.500    0.000    0.000 
#    0.000    0.000    0.000    0.000    0.000    0.000 
#
# Total GULP energy -178542.320848 kJ/mol
# GULP energy per Si atom -5579.447527 kJ/mol
# Density = 1.751032 g / cm^3
# Si number density = 17.550262 Si / 1000 Ang^3
#
#
#
# Elastic Constant Matrix: (Units=GPa)
#
#
# Indices 1 2 3 4 5 6 
#
# 1 141.8884 16.9619 30.2279 0.0000 0.0000 0.0000
# 2 16.9619 49.7005 9.3904 0.0000 0.0000 0.0000
# 3 30.2279 9.3904 61.1797 0.0000 0.0000 0.0000
# 4 0.0000 0.0000 0.0000 11.4831 0.0000 0.0000
# 5 0.0000 0.0000 0.0000 0.0000 27.3229 0.0000
# 6 0.0000 0.0000 0.0000 0.0000 0.0000 8.2497
#
#
#
# Elastic Compliance Matrix: (Units=1/GPa)
#
#
# Indices 1 2 3 4 5 6 
#
# 1 0.008077 -0.002062 -0.003674 0.000000 0.000000 0.000000
# 2 -0.002062 0.021248 -0.002242 0.000000 0.000000 0.000000
# 3 -0.003674 -0.002242 0.018505 0.000000 0.000000 0.000000
# 4 0.000000 0.000000 0.000000 0.087084 0.000000 0.000000
# 5 0.000000 0.000000 0.000000 0.000000 0.036599 0.000000
# 6 0.000000 0.000000 0.000000 0.000000 0.000000 0.121216
#
#
# Mechanical properties :
#
#
# Convention : Reuss Voigt Hill
#
# Bulk Modulus (GPa) = 31.37541 40.65878 36.01710
# Shear Modulus (GPa) = 15.65868 22.49039 19.07453
#
# Velocity S-wave (km/s) = 2.99024 3.58367 3.30032
# Velocity P-wave (km/s) = 5.46245 6.35145 5.92365
#
# Compressibility (1/GPa) = 0.03187209
#
# Stress axis : x y z
#
# Youngs Moduli (GPa) = 123.80700 47.06320 54.03995
#
# Poissons Ratio (x) = 0.09706 0.19855
# Poissons Ratio (y) = 0.25533 0.12118
# Poissons Ratio (z) = 0.45489 0.10553
#
# Static dielectric constant tensor:
#      x y z
#    x 1.627540 0.000000 0.000000 
#    y 0.000000 1.582820 0.000000 
#    z 0.000000 0.000000 1.589750 
# 
# From -- ./inp_files/20286.got.cif
#   From: 2010.05.17/outbox.cif.g08.bks.cpg/sg20_11_cif.got.tgz:20286.got - 2010.06.03 22:52:26.
