data_PCOD9316897
_publ_section_title
;
Structure prediction by ZEFSAII (Michael W. Deem and Ramdas Pophale) SiO2 
 PCOD9316897
Probable space group: C 2 2 21
;
_chemical_formula_sum "Si O2"
_cell_formula_units_Z 48
_cell_length_a 20.422863
_cell_length_b 20.052719
_cell_length_c 5.347466
_cell_angle_alpha 90.000000
_cell_angle_beta 90.000000
_cell_angle_gamma 90.000000
_cell_volume 2189.968782
_symmetry_space_group_name_H-M "C 2 2 21"
_symmetry_group_IT_number 20
_symmetry_cell_setting 'orthorhombic'
loop_
_space_group_symop_operation_xyz
x,y,z
-x,-y,1/2+z
x,-y,-z
-x,y,1/2-z
1/2+x,1/2+y,z
1/2-x,1/2-y,1/2+z
1/2+x,1/2-y,-z
1/2-x,1/2+y,1/2-z
loop_
_atom_site_type_symbol
_atom_site_label
_atom_site_fract_x
_atom_site_fract_y
_atom_site_fract_z
Si Si1 0.761578 0.312121 0.016113
Si Si2 0.544503 0.000000 0.000000
Si Si3 0.262679 0.655918 0.017821
Si Si4 0.591602 0.363256 0.512674
Si Si5 0.044896 0.646289 0.999025
Si Si6 0.500000 0.531737 0.750000
Si Si7 0.104939 0.788646 0.015063
O O1 0.779192 0.350086 0.766143
O O2 0.784415 0.235543 0.018279
O O3 0.682314 0.305344 0.012306
O O4 0.777102 0.351107 0.265432
O O5 0.578009 0.072819 0.003730
O O6 0.500000 0.999721 0.250000
O O7 0.331165 0.618182 0.020037
O O8 0.551210 0.425303 0.412519
O O9 0.575931 0.331591 0.783532
O O10 0.580821 0.310486 0.288424
O O11 0.000000 0.652070 0.250000
O O12 0.909467 0.711135 0.516643
O O13 0.000000 0.648893 0.750000
O O14 0.464429 0.500000 0.500000
#
# Coordination Sequence:
#
# PCOD9316897 Si02
#       7
#     8   4   8   8   8   4   8
#     4   8  14  25  43  68 101 118 147 185 247 305
#     4   8  16  30  42  58  88 130 168 182 200 264
#     4   8  14  27  45  68  93 123 145 190 245 303
#     4  10  21  34  52  72  98 125 165 214 264 309
#     4  10  19  29  44  66  98 134 165 192 231 281
#     4  12  26  42  54  70 100 142 182 220 268 330
#     4  10  19  30  48  78 101 127 158 209 263 299
#
# _framework density 21.918119000000001
#
# number of rings (size 3 to 8) (size 9 to 14) (size 15 to 20)
#    0.000    2.667    0.000    2.000    3.500    0.000 
#    0.000    0.000    0.000    0.000    2.167    0.000 
#   10.000    0.000    0.000    0.000    0.000    0.000 
#
# Total GULP energy -133696.521253 kJ/mol
# GULP energy per Si atom -5570.688386 kJ/mol
# Density = 2.186823 g / cm^3
# Si number density = 21.918119 Si / 1000 Ang^3
#
#
#
# Elastic Constant Matrix: (Units=GPa)
#
#
# Indices 1 2 3 4 5 6 
#
# 1 26.8590 -4.0650 -9.3433 0.0000 0.0000 0.0000
# 2 -4.0650 59.9898 -0.5134 0.0000 0.0000 0.0000
# 3 -9.3433 -0.5134 159.7027 0.0000 0.0000 0.0000
# 4 0.0000 0.0000 0.0000 29.1399 0.0000 0.0000
# 5 0.0000 0.0000 0.0000 0.0000 8.6922 0.0000
# 6 0.0000 0.0000 0.0000 0.0000 0.0000 -22.4906
#
#
#
# Elastic Compliance Matrix: (Units=1/GPa)
#
#
# Indices 1 2 3 4 5 6 
#
# 1 0.038413 0.002622 0.002256 0.000000 0.000000 0.000000
# 2 0.002622 0.016849 0.000208 0.000000 0.000000 0.000000
# 3 0.002256 0.000208 0.006394 0.000000 0.000000 0.000000
# 4 0.000000 0.000000 0.000000 0.034317 0.000000 0.000000
# 5 0.000000 0.000000 0.000000 0.000000 0.115045 0.000000
# 6 0.000000 0.000000 0.000000 0.000000 0.000000 -0.044463
#
#
# Mechanical properties :
#
#
# Convention : Reuss Voigt Hill
#
# Bulk Modulus (GPa) = 13.92226 24.30090 19.11158
# Shear Modulus (GPa) = 27.72737 20.43319 24.08028
#
# Velocity S-wave (km/s) = 3.56060 3.05659 3.31818
# Velocity P-wave (km/s) = 4.82386 4.85471 4.83931
#
# Compressibility (1/GPa) = 0.07182744
#
# Stress axis : x y z
#
# Youngs Moduli (GPa) = 26.03282 59.35085 156.38991
#
# Poissons Ratio (x) = -0.15563 -0.35278
# Poissons Ratio (y) = -0.06826 -0.03246
# Poissons Ratio (z) = -0.05872 -0.01232
#
# Static dielectric constant tensor:
#      x y z
#    x 1.867690 0.000000 0.000000 
#    y 0.000000 1.838650 0.000000 
#    z 0.000000 0.000000 1.979710 
# 
# From -- ./inp_files/3763.got.cif
#   From: 2010.05.17/outbox.cif.g08.bks.cpg/sg20_2_cif.got.tgz:3763.got - 2010.06.03 22:52:26.
