data_PCOD9316761
_publ_section_title
;
Structure prediction by ZEFSAII (Michael W. Deem and Ramdas Pophale) SiO2 
 PCOD9316761
Probable space group: C 2 2 21
;
_chemical_formula_sum "Si O2"
_cell_formula_units_Z 48
_cell_length_a 12.313639
_cell_length_b 7.240405
_cell_length_c 22.220305
_cell_angle_alpha 90.000000
_cell_angle_beta 90.000000
_cell_angle_gamma 90.000000
_cell_volume 1981.067588
_symmetry_space_group_name_H-M "C 2 2 21"
_symmetry_group_IT_number 20
_symmetry_cell_setting 'orthorhombic'
loop_
_space_group_symop_operation_xyz
x,y,z
-x,-y,1/2+z
x,-y,-z
-x,y,1/2-z
1/2+x,1/2+y,z
1/2-x,1/2-y,1/2+z
1/2+x,1/2-y,-z
1/2-x,1/2+y,1/2-z
loop_
_atom_site_type_symbol
_atom_site_label
_atom_site_fract_x
_atom_site_fract_y
_atom_site_fract_z
Si Si1 0.327509 0.200027 0.168467
Si Si2 0.000000 0.843951 0.750000
Si Si3 0.266060 0.618592 0.207377
Si Si4 0.512330 0.710634 0.564576
Si Si5 0.898643 0.121063 0.374648
Si Si6 0.847070 0.533064 0.404046
Si Si7 0.332309 0.500000 0.000000
O O1 0.301352 0.412777 0.186789
O O2 0.311188 0.112139 0.234271
O O3 0.431186 0.209802 0.125499
O O4 0.231238 0.106349 0.129839
O O5 0.119126 0.777054 0.721711
O O6 0.051248 0.931697 0.809679
O O7 0.187776 0.666010 0.151518
O O8 0.458743 0.511773 0.579359
O O9 0.418712 0.851089 0.550295
O O10 0.594915 0.680199 0.510551
O O11 0.906977 0.343967 0.384101
O O12 0.737503 0.496214 0.440097
#
# Coordination Sequence:
#
# PCOD9316761 Si02
#       7
#     8   4   8   8   8   8   4
#     4  10  22  41  66 107 143 180 230 286 347 429
#     4  10  18  36  72  98 146 190 210 288 356 408
#     4  10  21  39  66 104 142 179 229 285 341 428
#     4  12  26  47  76  97 140 197 225 301 364 400
#     4  10  22  45  67 106 141 176 239 282 346 424
#     4  11  27  47  70 104 140 182 242 297 343 423
#     4  12  26  54  66 104 146 170 260 296 330 440
#
# _framework density 24.229361000000001
#
# number of rings (size 3 to 8) (size 9 to 14) (size 15 to 20)
#    0.000    1.333    5.000    0.000    7.000    4.667 
#    3.000    1.667    0.000    0.000    0.000    0.000 
#    0.000    0.000    0.000    0.000    0.000    0.000 
#
# Total GULP energy -133629.613372 kJ/mol
# GULP energy per Si atom -5567.900557 kJ/mol
# Density = 2.417421 g / cm^3
# Si number density = 24.229361 Si / 1000 Ang^3
#
#
#
# Elastic Constant Matrix: (Units=GPa)
#
#
# Indices 1 2 3 4 5 6 
#
# 1 91.2074 40.9545 23.0419 0.0000 0.0000 0.0000
# 2 40.9545 68.0904 16.1333 0.0000 0.0000 0.0000
# 3 23.0419 16.1333 80.8267 0.0000 0.0000 0.0000
# 4 0.0000 0.0000 0.0000 16.9594 0.0000 0.0000
# 5 0.0000 0.0000 0.0000 0.0000 25.8791 0.0000
# 6 0.0000 0.0000 0.0000 0.0000 0.0000 24.7367
#
#
#
# Elastic Compliance Matrix: (Units=1/GPa)
#
#
# Indices 1 2 3 4 5 6 
#
# 1 0.015561 -0.008721 -0.002695 0.000000 0.000000 0.000000
# 2 -0.008721 0.020303 -0.001566 0.000000 0.000000 0.000000
# 3 -0.002695 -0.001566 0.013453 0.000000 0.000000 0.000000
# 4 0.000000 0.000000 0.000000 0.058964 0.000000 0.000000
# 5 0.000000 0.000000 0.000000 0.000000 0.038641 0.000000
# 6 0.000000 0.000000 0.000000 0.000000 0.000000 0.040426
#
#
# Mechanical properties :
#
#
# Convention : Reuss Voigt Hill
#
# Bulk Modulus (GPa) = 42.82334 44.48710 43.65522
# Shear Modulus (GPa) = 22.61452 24.18137 23.39794
#
# Velocity S-wave (km/s) = 3.05839 3.16257 3.11092
# Velocity P-wave (km/s) = 5.49402 5.63352 5.56420
#
# Compressibility (1/GPa) = 0.02335175
#
# Stress axis : x y z
#
# Youngs Moduli (GPa) = 64.26408 49.25430 74.33180
#
# Poissons Ratio (x) = 0.42953 0.20035
# Poissons Ratio (y) = 0.56043 0.11644
# Poissons Ratio (z) = 0.17321 0.07715
#
# Static dielectric constant tensor:
#      x y z
#    x 2.000140 0.000000 0.000000 
#    y 0.000000 1.936260 0.000000 
#    z 0.000000 0.000000 1.971840 
# 
# From -- ./inp_files/29112.got.cif
#   From: 2010.05.17/outbox.cif.g08.bks.cpg/sg20_15_cif.got.tgz:29112.got - 2010.06.03 22:52:26.
