data_PCOD9316225
_publ_section_title
;
Structure prediction by ZEFSAII (Michael W. Deem and Ramdas Pophale) SiO2 
 PCOD9316225
Probable space group: C 2 2 21
;
_chemical_formula_sum "Si O2"
_cell_formula_units_Z 60
_cell_length_a 18.633565
_cell_length_b 11.953857
_cell_length_c 15.577396
_cell_angle_alpha 90.000000
_cell_angle_beta 90.000000
_cell_angle_gamma 90.000000
_cell_volume 3469.755472
_symmetry_space_group_name_H-M "C 2 2 21"
_symmetry_group_IT_number 20
_symmetry_cell_setting 'orthorhombic'
loop_
_space_group_symop_operation_xyz
x,y,z
-x,-y,1/2+z
x,-y,-z
-x,y,1/2-z
1/2+x,1/2+y,z
1/2-x,1/2-y,1/2+z
1/2+x,1/2-y,-z
1/2-x,1/2+y,1/2-z
loop_
_atom_site_type_symbol
_atom_site_label
_atom_site_fract_x
_atom_site_fract_y
_atom_site_fract_z
Si Si1 0.313117 0.425095 0.918240
Si Si2 0.709224 0.059901 0.801670
Si Si3 0.664092 0.117495 0.334286
Si Si4 0.278414 0.706889 0.556026
Si Si5 0.854221 0.825370 0.269961
Si Si6 0.313655 0.000000 0.000000
Si Si7 0.325371 0.708869 0.368280
Si Si8 0.082579 0.056985 0.253825
O O1 0.243362 0.486530 0.877680
O O2 0.283037 0.302923 0.943552
O O3 0.374056 0.421036 0.843617
O O4 0.336206 0.500000 0.000000
O O5 0.780333 0.114441 0.759961
O O6 0.664933 0.165898 0.833618
O O7 0.668491 0.981558 0.734847
O O8 0.625074 0.224465 0.293496
O O9 0.643650 0.068991 0.427395
O O10 0.745489 0.163623 0.345847
O O11 0.330308 0.718765 0.637277
O O12 0.237072 0.587814 0.551070
O O13 0.325595 0.712408 0.470398
O O14 0.910326 0.925494 0.267470
O O15 0.377350 0.625030 0.320479
O O16 0.000000 0.090217 0.250000
#
# Coordination Sequence:
#
# PCOD9316225 Si02
#       8
#     8   8   8   8   8   4   8   8
#     4  11  20  35  57  87 116 144 190 247 304 355
#     4  10  16  30  51  80 111 138 173 240 309 337
#     4  10  17  29  51  79 111 139 174 242 310 349
#     4  11  18  30  55  87 118 137 178 250 313 342
#     4  10  18  32  51  76 110 147 186 234 288 349
#     4  10  20  26  44  84 114 142 170 224 308 358
#     4  10  19  31  52  80 115 145 184 237 290 350
#     4  11  24  41  54  76 119 169 202 225 276 365
#
# _framework density 17.292283999999999
#
# number of rings (size 3 to 8) (size 9 to 14) (size 15 to 20)
#    0.000    1.600    6.667    1.600    1.867    0.000 
#    2.400    0.000    0.000    0.800    0.000    1.867 
#    0.000    0.000    0.000    0.000    0.000    0.000 
#
# Total GULP energy -167162.143738 kJ/mol
# GULP energy per Si atom -5572.071458 kJ/mol
# Density = 1.725293 g / cm^3
# Si number density = 17.292284 Si / 1000 Ang^3
#
#
#
# Elastic Constant Matrix: (Units=GPa)
#
#
# Indices 1 2 3 4 5 6 
#
# 1 33.5630 12.8914 24.5723 0.0000 0.0000 0.0000
# 2 12.8914 109.7007 45.4955 0.0000 0.0000 0.0000
# 3 24.5723 45.4955 97.6484 0.0000 0.0000 0.0000
# 4 0.0000 0.0000 0.0000 32.4064 0.0000 0.0000
# 5 0.0000 0.0000 0.0000 0.0000 4.9185 0.0000
# 6 0.0000 0.0000 0.0000 0.0000 0.0000 2.3345
#
#
#
# Elastic Compliance Matrix: (Units=1/GPa)
#
#
# Indices 1 2 3 4 5 6 
#
# 1 0.036555 -0.000596 -0.008921 0.000000 0.000000 0.000000
# 2 -0.000596 0.011309 -0.005119 0.000000 0.000000 0.000000
# 3 -0.008921 -0.005119 0.014871 0.000000 0.000000 0.000000
# 4 0.000000 0.000000 0.000000 0.030858 0.000000 0.000000
# 5 0.000000 0.000000 0.000000 0.000000 0.203314 0.000000
# 6 0.000000 0.000000 0.000000 0.000000 0.000000 0.428358
#
#
# Mechanical properties :
#
#
# Convention : Reuss Voigt Hill
#
# Bulk Modulus (GPa) = 29.88419 45.20337 37.54378
# Shear Modulus (GPa) = 6.53006 18.46207 12.49607
#
# Velocity S-wave (km/s) = 1.94537 3.27103 2.69111
# Velocity P-wave (km/s) = 4.72920 6.36111 5.60487
#
# Compressibility (1/GPa) = 0.03346251
#
# Stress axis : x y z
#
# Youngs Moduli (GPa) = 27.35613 88.42780 67.24658
#
# Poissons Ratio (x) = 0.05270 0.59991
# Poissons Ratio (y) = 0.01630 0.34423
# Poissons Ratio (z) = 0.24404 0.45265
#
# Static dielectric constant tensor:
#      x y z
#    x 1.533690 0.000000 0.000000 
#    y 0.000000 1.646480 0.000000 
#    z 0.000000 0.000000 1.656240 
# 
# From -- ./inp_files/21874.got.cif
#   From: 2010.05.17/outbox.cif.g08.bks.cpg/sg20_11_cif.got.tgz:21874.got - 2010.06.03 22:52:26.
