data_PCOD9316705
_publ_section_title
;
Structure prediction by ZEFSAII (Michael W. Deem and Ramdas Pophale) SiO2 
 PCOD9316705
Probable space group: C 2 2 21
;
_chemical_formula_sum "Si O2"
_cell_formula_units_Z 60
_cell_length_a 7.888530
_cell_length_b 18.693577
_cell_length_c 18.159812
_cell_angle_alpha 90.000000
_cell_angle_beta 90.000000
_cell_angle_gamma 90.000000
_cell_volume 2677.933825
_symmetry_space_group_name_H-M "C 2 2 21"
_symmetry_group_IT_number 20
_symmetry_cell_setting 'orthorhombic'
loop_
_space_group_symop_operation_xyz
x,y,z
-x,-y,1/2+z
x,-y,-z
-x,y,1/2-z
1/2+x,1/2+y,z
1/2-x,1/2-y,1/2+z
1/2+x,1/2-y,-z
1/2-x,1/2+y,1/2-z
loop_
_atom_site_type_symbol
_atom_site_label
_atom_site_fract_x
_atom_site_fract_y
_atom_site_fract_z
Si Si1 0.622840 0.152890 0.504776
Si Si2 0.952188 0.586637 0.143096
Si Si3 0.166384 0.703888 0.085991
Si Si4 0.889155 0.000000 0.500000
Si Si5 0.809300 0.187953 0.721283
Si Si6 0.347064 0.317712 0.697589
Si Si7 0.013789 0.845149 0.963661
Si Si8 0.653161 0.935516 0.367286
O O1 0.618166 0.092005 0.441477
O O2 0.818992 0.173978 0.512276
O O3 0.675096 0.314880 0.535006
O O4 0.553978 0.120709 0.580211
O O5 0.818603 0.631162 0.192520
O O6 0.952017 0.503421 0.160549
O O7 0.123559 0.631831 0.134982
O O8 0.190513 0.763401 0.147636
O O9 0.998647 0.708510 0.035539
O O10 0.994757 0.931322 0.528149
O O11 0.790821 0.967144 0.427101
O O12 0.707989 0.237919 0.778671
O O13 0.732124 0.111899 0.697659
O O14 0.000000 0.179475 0.750000
O O15 0.500000 0.342204 0.750000
O O16 0.422797 0.319883 0.616269
#
# Coordination Sequence:
#
# PCOD9316705 Si02
#       8
#     8   8   8   4   8   8   8   8
#     4   8  18  37  62  90 128 163 216 271 347 403
#     4   9  18  37  67  88 115 176 222 259 344 404
#     4  10  20  37  65  95 126 180 216 270 340 409
#     4  10  18  40  64  96 126 160 226 280 360 410
#     4  12  24  39  62  96 136 183 234 278 332 412
#     4  11  20  37  67  83 128 180 227 260 330 415
#     4  10  18  35  68  95 120 170 219 274 324 412
#     4  11  19  39  68  91 133 176 216 298 344 383
#
# _framework density 22.405335000000001
#
# number of rings (size 3 to 8) (size 9 to 14) (size 15 to 20)
#    0.800    1.067    6.667    0.000    0.000    1.600 
#    4.800    0.000   11.733    0.000    0.000    0.000 
#    0.000    0.000    0.000    0.000    0.000    0.000 
#
# Total GULP energy -167128.537940 kJ/mol
# GULP energy per Si atom -5570.951265 kJ/mol
# Density = 2.235434 g / cm^3
# Si number density = 22.405335 Si / 1000 Ang^3
#
#
#
# Elastic Constant Matrix: (Units=GPa)
#
#
# Indices 1 2 3 4 5 6 
#
# 1 71.9106 36.2592 6.5856 0.0000 0.0000 0.0000
# 2 36.2592 134.2013 30.4041 0.0000 0.0000 0.0000
# 3 6.5856 30.4041 73.5200 0.0000 0.0000 0.0000
# 4 0.0000 0.0000 0.0000 38.0095 0.0000 0.0000
# 5 0.0000 0.0000 0.0000 0.0000 33.4448 0.0000
# 6 0.0000 0.0000 0.0000 0.0000 0.0000 20.6609
#
#
#
# Elastic Compliance Matrix: (Units=1/GPa)
#
#
# Indices 1 2 3 4 5 6 
#
# 1 0.016110 -0.004442 0.000394 0.000000 0.000000 0.000000
# 2 -0.004442 0.009447 -0.003509 0.000000 0.000000 0.000000
# 3 0.000394 -0.003509 0.015017 0.000000 0.000000 0.000000
# 4 0.000000 0.000000 0.000000 0.026309 0.000000 0.000000
# 5 0.000000 0.000000 0.000000 0.000000 0.029900 0.000000
# 6 0.000000 0.000000 0.000000 0.000000 0.000000 0.048401
#
#
# Mechanical properties :
#
#
# Convention : Reuss Voigt Hill
#
# Bulk Modulus (GPa) = 39.27665 47.34773 43.31219
# Shear Modulus (GPa) = 29.62370 32.18192 30.90281
#
# Velocity S-wave (km/s) = 3.64011 3.79403 3.71787
# Velocity P-wave (km/s) = 5.93594 6.35383 6.14843
#
# Compressibility (1/GPa) = 0.02546042
#
# Stress axis : x y z
#
# Youngs Moduli (GPa) = 62.07411 105.85889 66.58906
#
# Poissons Ratio (x) = 0.47021 -0.02623
# Poissons Ratio (y) = 0.27572 0.23364
# Poissons Ratio (z) = -0.02445 0.37143
#
# Static dielectric constant tensor:
#      x y z
#    x 1.896350 0.000000 0.000000 
#    y 0.000000 2.027460 0.000000 
#    z 0.000000 0.000000 1.871190 
# 
# From -- ./inp_files/24427.got.cif
#   From: 2010.05.17/outbox.cif.g08.bks.cpg/sg20_13_cif.got.tgz:24427.got - 2010.06.03 22:52:26.
