data_PCOD9316923
_publ_section_title
;
Structure prediction by ZEFSAII (Michael W. Deem and Ramdas Pophale) SiO2 
 PCOD9316923
Probable space group: C 2 2 21
;
_chemical_formula_sum "Si O2"
_cell_formula_units_Z 56
_cell_length_a 30.191677
_cell_length_b 13.153979
_cell_length_c 8.046693
_cell_angle_alpha 90.000000
_cell_angle_beta 90.000000
_cell_angle_gamma 90.000000
_cell_volume 3195.669172
_symmetry_space_group_name_H-M "C 2 2 21"
_symmetry_group_IT_number 20
_symmetry_cell_setting 'orthorhombic'
loop_
_space_group_symop_operation_xyz
x,y,z
-x,-y,1/2+z
x,-y,-z
-x,y,1/2-z
1/2+x,1/2+y,z
1/2-x,1/2-y,1/2+z
1/2+x,1/2-y,-z
1/2-x,1/2+y,1/2-z
loop_
_atom_site_type_symbol
_atom_site_label
_atom_site_fract_x
_atom_site_fract_y
_atom_site_fract_z
Si Si1 0.322364 0.169252 0.040308
Si Si2 0.390926 0.878270 0.493245
Si Si3 0.707255 0.825488 0.922525
Si Si4 0.300310 0.393157 0.039003
Si Si5 0.265582 0.395484 0.410905
Si Si6 0.950104 0.620161 0.810778
Si Si7 0.582388 0.112337 0.353752
O O1 0.301117 0.168910 0.224985
O O2 0.325909 0.289063 0.996766
O O3 0.368771 0.113770 0.063299
O O4 0.287827 0.116380 0.915891
O O5 0.338274 0.859896 0.492735
O O6 0.416403 0.839197 0.330283
O O7 0.410903 0.840056 0.670346
O O8 0.396855 0.000000 0.500000
O O9 0.717611 0.711281 0.986466
O O10 0.752256 0.886953 0.951066
O O11 0.287199 0.395025 0.231396
O O12 0.322983 0.500000 0.000000
O O13 0.277171 0.500000 0.500000
O O14 0.937449 0.500097 0.826442
O O15 0.000000 0.629538 0.750000
O O16 0.945716 0.662874 0.998132
#
# Coordination Sequence:
#
# PCOD9316923 Si02
#       7
#     8   8   8   8   8   8   8
#     4   9  19  34  47  68  94 128 173 201 245 288
#     4   9  18  31  49  68  94 132 161 200 241 294
#     4   9  18  33  46  67  93 130 170 204 244 286
#     4  10  19  31  48  68  96 130 166 212 244 281
#     4  10  20  29  47  67  97 130 168 207 238 286
#     4  10  21  31  48  74  97 128 163 195 249 303
#     4   9  20  32  48  67  99 128 158 200 234 298
#
# _framework density 17.523714999999999
#
# number of rings (size 3 to 8) (size 9 to 14) (size 15 to 20)
#    0.000    2.571    0.000    1.286   10.000    2.286 
#    0.000    0.000    0.000    0.000    0.000    0.000 
#    0.000    2.286    0.286    0.000    0.000    0.000 
#
# Total GULP energy -155938.857916 kJ/mol
# GULP energy per Si atom -5569.244926 kJ/mol
# Density = 1.748383 g / cm^3
# Si number density = 17.523715 Si / 1000 Ang^3
#
#
#
# Elastic Constant Matrix: (Units=GPa)
#
#
# Indices 1 2 3 4 5 6 
#
# 1 45.8451 -5.6791 17.4317 0.0000 0.0000 0.0000
# 2 -5.6791 50.0779 -2.9875 0.0000 0.0000 0.0000
# 3 17.4317 -2.9875 56.4937 0.0000 0.0000 0.0000
# 4 0.0000 0.0000 0.0000 17.1061 0.0000 0.0000
# 5 0.0000 0.0000 0.0000 0.0000 21.9814 0.0000
# 6 0.0000 0.0000 0.0000 0.0000 0.0000 13.4773
#
#
#
# Elastic Compliance Matrix: (Units=1/GPa)
#
#
# Indices 1 2 3 4 5 6 
#
# 1 0.024992 0.002382 -0.007586 0.000000 0.000000 0.000000
# 2 0.002382 0.020259 0.000336 0.000000 0.000000 0.000000
# 3 -0.007586 0.000336 0.020059 0.000000 0.000000 0.000000
# 4 0.000000 0.000000 0.000000 0.058459 0.000000 0.000000
# 5 0.000000 0.000000 0.000000 0.000000 0.045493 0.000000
# 6 0.000000 0.000000 0.000000 0.000000 0.000000 0.074199
#
#
# Mechanical properties :
#
#
# Convention : Reuss Voigt Hill
#
# Bulk Modulus (GPa) = 17.99353 18.88299 18.43826
# Shear Modulus (GPa) = 18.40123 20.08974 19.24548
#
# Velocity S-wave (km/s) = 3.24400 3.38957 3.31759
# Velocity P-wave (km/s) = 4.93171 5.11058 5.02194
#
# Compressibility (1/GPa) = 0.05557555
#
# Stress axis : x y z
#
# Youngs Moduli (GPa) = 40.01302 49.36069 49.85170
#
# Poissons Ratio (x) = -0.11756 0.37815
# Poissons Ratio (y) = -0.09530 -0.01677
# Poissons Ratio (z) = 0.30352 -0.01661
#
# Static dielectric constant tensor:
#      x y z
#    x 1.596620 0.000000 0.000000 
#    y 0.000000 1.626710 0.000000 
#    z 0.000000 0.000000 1.696980 
# 
# From -- ./inp_files/11647.got.cif
#   From: 2010.05.17/outbox.cif.g08.bks.cpg/sg20_6_cif.got.tgz:11647.got - 2010.06.03 22:52:26.
