data_PCOD9316259
_publ_section_title
;
Structure prediction by ZEFSAII (Michael W. Deem and Ramdas Pophale) SiO2 
 PCOD9316259
Probable space group: C 2 2 21
;
_chemical_formula_sum "Si O2"
_cell_formula_units_Z 60
_cell_length_a 22.666360
_cell_length_b 16.115864
_cell_length_c 7.692482
_cell_angle_alpha 90.000000
_cell_angle_beta 90.000000
_cell_angle_gamma 90.000000
_cell_volume 2809.971174
_symmetry_space_group_name_H-M "C 2 2 21"
_symmetry_group_IT_number 20
_symmetry_cell_setting 'orthorhombic'
loop_
_space_group_symop_operation_xyz
x,y,z
-x,-y,1/2+z
x,-y,-z
-x,y,1/2-z
1/2+x,1/2+y,z
1/2-x,1/2-y,1/2+z
1/2+x,1/2-y,-z
1/2-x,1/2+y,1/2-z
loop_
_atom_site_type_symbol
_atom_site_label
_atom_site_fract_x
_atom_site_fract_y
_atom_site_fract_z
Si Si1 0.368239 0.352598 0.733012
Si Si2 0.633235 0.466621 0.299390
Si Si3 0.250757 0.380376 0.223237
Si Si4 0.166947 0.500000 0.000000
Si Si5 0.575860 0.301009 0.397913
Si Si6 0.537566 0.756938 0.073651
Si Si7 0.623444 0.158880 0.152253
Si Si8 0.741312 0.282514 0.612739
O O1 0.384417 0.448285 0.709831
O O2 0.405983 0.302145 0.597192
O O3 0.298683 0.332706 0.747218
O O4 0.392911 0.317475 0.916167
O O5 0.644192 0.500000 0.500000
O O6 0.694376 0.434997 0.218856
O O7 0.590144 0.387852 0.301390
O O8 0.227367 0.314652 0.362370
O O9 0.205599 0.438987 0.122060
O O10 0.276075 0.318534 0.074391
O O11 0.135461 0.439500 0.860498
O O12 0.507929 0.285574 0.443228
O O13 0.599132 0.216871 0.307645
O O14 0.500000 0.771427 0.250000
O O15 0.571385 0.834089 0.992065
O O16 0.688785 0.199001 0.122134
#
# Coordination Sequence:
#
# PCOD9316259 Si02
#       8
#     8   8   8   4   8   8   8   8
#     4  10  19  36  62  89 125 160 209 256 323 371
#     4  10  16  34  59  85 121 166 207 248 310 373
#     4  11  19  34  59  91 127 161 202 250 320 386
#     4  10  22  36  62  96 124 162 206 264 322 382
#     4  10  20  37  61  87 118 173 215 249 306 370
#     4  10  23  41  60  87 124 169 212 260 302 375
#     4  11  21  39  63  88 120 159 217 258 312 371
#     4  11  19  33  63  94 118 160 200 257 317 386
#
# _framework density 21.352532
#
# number of rings (size 3 to 8) (size 9 to 14) (size 15 to 20)
#    0.000    1.600    4.667    2.800    0.000    0.000 
#    0.000   12.667    0.000   25.600    0.000    0.000 
#    0.000    0.000    0.000    0.000    0.000    0.000 
#
# Total GULP energy -167153.900304 kJ/mol
# GULP energy per Si atom -5571.796677 kJ/mol
# Density = 2.130393 g / cm^3
# Si number density = 21.352532 Si / 1000 Ang^3
#
#
#
# Elastic Constant Matrix: (Units=GPa)
#
#
# Indices 1 2 3 4 5 6 
#
# 1 104.9437 29.1162 20.0116 0.0000 0.0000 0.0000
# 2 29.1162 149.6960 35.2520 0.0000 0.0000 0.0000
# 3 20.0116 35.2520 44.0374 0.0000 0.0000 0.0000
# 4 0.0000 0.0000 0.0000 26.1087 0.0000 0.0000
# 5 0.0000 0.0000 0.0000 0.0000 22.7565 0.0000
# 6 0.0000 0.0000 0.0000 0.0000 0.0000 14.6852
#
#
#
# Elastic Compliance Matrix: (Units=1/GPa)
#
#
# Indices 1 2 3 4 5 6 
#
# 1 0.010589 -0.001142 -0.003898 0.000000 0.000000 0.000000
# 2 -0.001142 0.008355 -0.006169 0.000000 0.000000 0.000000
# 3 -0.003898 -0.006169 0.029418 0.000000 0.000000 0.000000
# 4 0.000000 0.000000 0.000000 0.038301 0.000000 0.000000
# 5 0.000000 0.000000 0.000000 0.000000 0.043943 0.000000
# 6 0.000000 0.000000 0.000000 0.000000 0.000000 0.068096
#
#
# Mechanical properties :
#
#
# Convention : Reuss Voigt Hill
#
# Bulk Modulus (GPa) = 38.54477 51.93740 45.24108
# Shear Modulus (GPa) = 21.76099 26.99657 24.37878
#
# Velocity S-wave (km/s) = 3.19584 3.55959 3.38261
# Velocity P-wave (km/s) = 5.63105 6.42424 6.04068
#
# Compressibility (1/GPa) = 0.02594386
#
# Stress axis : x y z
#
# Youngs Moduli (GPa) = 94.43792 119.68717 33.99279
#
# Poissons Ratio (x) = 0.13664 0.13250
# Poissons Ratio (y) = 0.10781 0.20972
# Poissons Ratio (z) = 0.36812 0.73841
#
# Static dielectric constant tensor:
#      x y z
#    x 1.789900 0.000000 0.000000 
#    y 0.000000 1.757310 0.000000 
#    z 0.000000 0.000000 1.888230 
# 
# From -- ./inp_files/10777.got.cif
#   From: 2010.05.17/outbox.cif.g08.bks.cpg/sg20_6_cif.got.tgz:10777.got - 2010.06.03 22:52:26.
