data_PCOD9316866
_publ_section_title
;
Structure prediction by ZEFSAII (Michael W. Deem and Ramdas Pophale) SiO2 
 PCOD9316866
Probable space group: C 2 2 21
;
_chemical_formula_sum "Si O2"
_cell_formula_units_Z 44
_cell_length_a 16.077140
_cell_length_b 8.869850
_cell_length_c 11.620319
_cell_angle_alpha 90.000000
_cell_angle_beta 90.000000
_cell_angle_gamma 90.000000
_cell_volume 1657.078641
_symmetry_space_group_name_H-M "C 2 2 21"
_symmetry_group_IT_number 20
_symmetry_cell_setting 'orthorhombic'
loop_
_space_group_symop_operation_xyz
x,y,z
-x,-y,1/2+z
x,-y,-z
-x,y,1/2-z
1/2+x,1/2+y,z
1/2-x,1/2-y,1/2+z
1/2+x,1/2-y,-z
1/2-x,1/2+y,1/2-z
loop_
_atom_site_type_symbol
_atom_site_label
_atom_site_fract_x
_atom_site_fract_y
_atom_site_fract_z
Si Si1 0.000000 0.680168 0.750000
Si Si2 0.168978 0.203847 0.364688
Si Si3 0.421804 0.274783 0.097351
Si Si4 0.218502 0.883375 0.269148
Si Si5 0.629679 0.205825 0.926337
Si Si6 0.949400 0.000000 0.500000
Si Si7 0.970392 0.500000 0.500000
O O1 0.919766 0.759331 0.803728
O O2 0.954383 0.618645 0.632898
O O3 0.143448 0.184027 0.495571
O O4 0.234962 0.339384 0.348675
O O5 0.203488 0.055786 0.302585
O O6 0.367670 0.295954 0.211094
O O7 0.458894 0.112836 0.066936
O O8 0.491952 0.403282 0.084216
O O9 0.288655 0.824254 0.358149
O O10 0.605299 0.378660 0.933528
O O11 0.611872 0.121965 0.042498
#
# Coordination Sequence:
#
# PCOD9316866 Si02
#       7
#     4   8   8   8   8   4   4
#     4  10  18  42  64  86 120 168 206 262 312 392
#     4  11  23  42  63  94 126 175 212 266 327 376
#     4  11  21  41  66  86 133 173 214 264 322 381
#     4  11  25  41  64  92 134 165 213 271 323 380
#     4  10  22  37  65  92 126 159 216 264 319 373
#     4  10  18  42  64  88 114 176 214 244 320 390
#     4  10  22  36  64  96 116 166 220 252 312 378
#
# _framework density 26.552752999999999
#
# number of rings (size 3 to 8) (size 9 to 14) (size 15 to 20)
#    0.000    1.455    5.455    0.000    5.091    0.727 
#    3.273    1.818    0.000    2.182    0.000    0.000 
#    0.000    0.000    0.000    0.000    0.000    0.000 
#
# Total GULP energy -122728.238399 kJ/mol
# GULP energy per Si atom -5578.556291 kJ/mol
# Density = 2.649232 g / cm^3
# Si number density = 26.552753 Si / 1000 Ang^3
#
#
#
# Elastic Constant Matrix: (Units=GPa)
#
#
# Indices 1 2 3 4 5 6 
#
# 1 121.9188 49.5309 29.7095 0.0000 0.0000 0.0000
# 2 49.5309 153.5885 18.4526 0.0000 0.0000 0.0000
# 3 29.7095 18.4526 74.1950 0.0000 0.0000 0.0000
# 4 0.0000 0.0000 0.0000 25.1354 0.0000 0.0000
# 5 0.0000 0.0000 0.0000 0.0000 55.5780 0.0000
# 6 0.0000 0.0000 0.0000 0.0000 0.0000 44.5261
#
#
#
# Elastic Compliance Matrix: (Units=1/GPa)
#
#
# Indices 1 2 3 4 5 6 
#
# 1 0.010193 -0.002883 -0.003365 0.000000 0.000000 0.000000
# 2 -0.002883 0.007527 -0.000718 0.000000 0.000000 0.000000
# 3 -0.003365 -0.000718 0.015004 0.000000 0.000000 0.000000
# 4 0.000000 0.000000 0.000000 0.039784 0.000000 0.000000
# 5 0.000000 0.000000 0.000000 0.000000 0.017993 0.000000
# 6 0.000000 0.000000 0.000000 0.000000 0.000000 0.022459
#
#
# Mechanical properties :
#
#
# Convention : Reuss Voigt Hill
#
# Bulk Modulus (GPa) = 53.20976 60.56536 56.88756
# Shear Modulus (GPa) = 37.55028 41.84854 39.69941
#
# Velocity S-wave (km/s) = 3.76463 3.97426 3.87087
# Velocity P-wave (km/s) = 6.24335 6.62711 6.43809
#
# Compressibility (1/GPa) = 0.01879355
#
# Stress axis : x y z
#
# Youngs Moduli (GPa) = 98.10315 132.85753 66.65003
#
# Poissons Ratio (x) = 0.38303 0.22425
# Poissons Ratio (y) = 0.28283 0.04782
# Poissons Ratio (z) = 0.33008 0.09533
#
# Static dielectric constant tensor:
#      x y z
#    x 2.081770 0.000000 0.000000 
#    y 0.000000 2.209040 0.000000 
#    z 0.000000 0.000000 2.374990 
# 
# From -- ./inp_files/18829.got.cif
#   From: 2010.05.17/outbox.cif.g08.bks.cpg/sg20_10_cif.got.tgz:18829.got - 2010.06.03 22:52:26.
