data_PCOD9316839
_publ_section_title
;
Structure prediction by ZEFSAII (Michael W. Deem and Ramdas Pophale) SiO2 
 PCOD9316839
Probable space group: C 2 2 21
;
_chemical_formula_sum "Si O2"
_cell_formula_units_Z 40
_cell_length_a 10.161670
_cell_length_b 18.774636
_cell_length_c 8.689704
_cell_angle_alpha 90.000000
_cell_angle_beta 90.000000
_cell_angle_gamma 90.000000
_cell_volume 1657.836114
_symmetry_space_group_name_H-M "C 2 2 21"
_symmetry_group_IT_number 20
_symmetry_cell_setting 'orthorhombic'
loop_
_space_group_symop_operation_xyz
x,y,z
-x,-y,1/2+z
x,-y,-z
-x,y,1/2-z
1/2+x,1/2+y,z
1/2-x,1/2-y,1/2+z
1/2+x,1/2-y,-z
1/2-x,1/2+y,1/2-z
loop_
_atom_site_type_symbol
_atom_site_label
_atom_site_fract_x
_atom_site_fract_y
_atom_site_fract_z
Si Si1 0.130792 0.925184 0.318922
Si Si2 0.412588 0.070317 0.606576
Si Si3 0.369567 0.416300 0.819958
Si Si4 0.286286 0.729053 0.177495
Si Si5 0.548101 0.773603 0.021201
O O1 0.278979 0.899365 0.314429
O O2 0.106999 0.926961 0.500700
O O3 0.000000 0.892404 0.250000
O O4 0.145460 0.005524 0.250562
O O5 0.500000 0.047185 0.750000
O O6 0.470114 0.140033 0.521713
O O7 0.386875 0.000000 0.500000
O O8 0.500000 0.383623 0.750000
O O9 0.262683 0.355974 0.799734
O O10 0.402096 0.740869 0.047569
O O11 0.359784 0.756334 0.329701
O O12 0.143368 0.753718 0.116830
#
# Coordination Sequence:
#
# PCOD9316839 Si02
#       5
#     8   8   8   8   8
#     4  10  21  39  68  98 125 165 222 272 322 390
#     4  12  24  50  65  94 142 179 222 283 338 403
#     4  10  18  39  65  90 127 166 208 267 329 375
#     4  11  22  43  65  91 137 169 217 272 330 395
#     4  11  24  44  66  98 131 177 218 276 330 410
#
# _framework density 24.127837
#
# number of rings (size 3 to 8) (size 9 to 14) (size 15 to 20)
#    0.000    1.200    8.000    0.000    0.000    2.400 
#   14.400    0.000    0.000    0.000    0.000    0.000 
#    0.000    0.000    0.000    0.000    0.000    0.000 
#
# Total GULP energy -111398.071850 kJ/mol
# GULP energy per Si atom -5569.903592 kJ/mol
# Density = 2.407292 g / cm^3
# Si number density = 24.127837 Si / 1000 Ang^3
#
#
#
# Elastic Constant Matrix: (Units=GPa)
#
#
# Indices 1 2 3 4 5 6 
#
# 1 108.8091 6.5153 19.1692 0.0000 0.0000 0.0000
# 2 6.5153 131.1656 -7.4517 0.0000 0.0000 0.0000
# 3 19.1692 -7.4517 32.3506 0.0000 0.0000 0.0000
# 4 0.0000 0.0000 0.0000 18.4553 0.0000 0.0000
# 5 0.0000 0.0000 0.0000 0.0000 34.6860 0.0000
# 6 0.0000 0.0000 0.0000 0.0000 0.0000 32.7169
#
#
#
# Elastic Compliance Matrix: (Units=1/GPa)
#
#
# Indices 1 2 3 4 5 6 
#
# 1 0.010360 -0.000875 -0.006340 0.000000 0.000000 0.000000
# 2 -0.000875 0.007799 0.002315 0.000000 0.000000 0.000000
# 3 -0.006340 0.002315 0.035201 0.000000 0.000000 0.000000
# 4 0.000000 0.000000 0.000000 0.054185 0.000000 0.000000
# 5 0.000000 0.000000 0.000000 0.000000 0.028830 0.000000
# 6 0.000000 0.000000 0.000000 0.000000 0.000000 0.030565
#
#
# Mechanical properties :
#
#
# Convention : Reuss Voigt Hill
#
# Bulk Modulus (GPa) = 22.95703 34.31012 28.63358
# Shear Modulus (GPa) = 26.14237 34.11115 30.12676
#
# Velocity S-wave (km/s) = 3.29522 3.76409 3.53743
# Velocity P-wave (km/s) = 4.90034 5.75692 5.34582
#
# Compressibility (1/GPa) = 0.04355964
#
# Stress axis : x y z
#
# Youngs Moduli (GPa) = 96.52753 128.22313 28.40807
#
# Poissons Ratio (x) = 0.11217 0.18011
# Poissons Ratio (y) = 0.08444 -0.06576
# Poissons Ratio (z) = 0.61199 -0.29681
#
# Static dielectric constant tensor:
#      x y z
#    x 1.945320 0.000000 0.000000 
#    y 0.000000 2.015320 0.000000 
#    z 0.000000 0.000000 1.930780 
# 
# From -- ./inp_files/7211.got.cif
#   From: 2010.05.17/outbox.cif.g08.bks.cpg/sg20_4_cif.got.tgz:7211.got - 2010.06.03 22:52:26.
