data_PCOD9316254
_publ_section_title
;
Structure prediction by ZEFSAII (Michael W. Deem and Ramdas Pophale) SiO2 
 PCOD9316254
Probable space group: C 2 2 21
;
_chemical_formula_sum "Si O2"
_cell_formula_units_Z 64
_cell_length_a 32.276352
_cell_length_b 8.744085
_cell_length_c 11.215426
_cell_angle_alpha 90.000000
_cell_angle_beta 90.000000
_cell_angle_gamma 90.000000
_cell_volume 3165.297888
_symmetry_space_group_name_H-M "C 2 2 21"
_symmetry_group_IT_number 20
_symmetry_cell_setting 'orthorhombic'
loop_
_space_group_symop_operation_xyz
x,y,z
-x,-y,1/2+z
x,-y,-z
-x,y,1/2-z
1/2+x,1/2+y,z
1/2-x,1/2-y,1/2+z
1/2+x,1/2-y,-z
1/2-x,1/2+y,1/2-z
loop_
_atom_site_type_symbol
_atom_site_label
_atom_site_fract_x
_atom_site_fract_y
_atom_site_fract_z
Si Si1 0.335356 0.646576 0.944792
Si Si2 0.268996 0.494412 0.770560
Si Si3 0.886553 0.596704 0.624313
Si Si4 0.477554 0.182964 0.629125
Si Si5 0.106619 0.587359 0.374501
Si Si6 0.794292 0.308786 0.363142
Si Si7 0.234658 0.336627 0.448215
Si Si8 0.990270 0.333427 0.877028
O O1 0.302241 0.571404 0.855672
O O2 0.364868 0.763566 0.879019
O O3 0.358283 0.500000 0.000000
O O4 0.307550 0.738172 0.041769
O O5 0.223266 0.523909 0.826225
O O6 0.281048 0.324907 0.730461
O O7 0.263663 0.601242 0.656617
O O8 0.889475 0.500000 0.500000
O O9 0.928072 0.698620 0.631725
O O10 0.886097 0.502525 0.750031
O O11 0.843004 0.685176 0.619918
O O12 0.500000 0.240069 0.750000
O O13 0.495675 0.239921 0.502462
O O14 0.486327 0.998520 0.628380
O O15 0.115087 0.500000 0.500000
O O16 0.058334 0.631500 0.380344
O O17 0.767136 0.258583 0.474374
O O18 0.220298 0.500000 0.500000
O O19 0.000000 0.254629 0.750000
#
# Coordination Sequence:
#
# PCOD9316254 Si02
#       8
#     8   8   8   8   8   8   8   8
#     4  11  25  39  59  89 123 162 211 262 306 365
#     4  10  22  43  60  83 123 163 206 254 310 364
#     4  12  24  36  62  98 130 152 208 263 315 367
#     4  10  16  34  54  88 128 151 190 254 313 354
#     4  12  24  37  64  96 124 162 207 255 310 377
#     4  10  24  36  63  87 121 163 206 254 307 369
#     4   9  20  41  61  82 114 162 206 251 314 364
#     4  10  16  34  57  89 123 155 193 248 316 358
#
# _framework density 20.219266000000001
#
# number of rings (size 3 to 8) (size 9 to 14) (size 15 to 20)
#    0.000    1.500    5.000    1.125   10.500    2.000 
#    0.000    0.000    0.000    0.000    3.250    0.000 
#    0.000    0.000    0.000    0.000    0.000    0.000 
#
# Total GULP energy -178221.085140 kJ/mol
# GULP energy per Si atom -5569.408911 kJ/mol
# Density = 2.017325 g / cm^3
# Si number density = 20.219266 Si / 1000 Ang^3
#
#
#
# Elastic Constant Matrix: (Units=GPa)
#
#
# Indices 1 2 3 4 5 6 
#
# 1 108.2264 36.1417 -17.7127 0.0000 0.0000 0.0000
# 2 36.1417 60.4606 37.9288 0.0000 0.0000 0.0000
# 3 -17.7127 37.9288 94.1834 0.0000 0.0000 0.0000
# 4 0.0000 0.0000 0.0000 14.9991 0.0000 0.0000
# 5 0.0000 0.0000 0.0000 0.0000 19.0876 0.0000
# 6 0.0000 0.0000 0.0000 0.0000 0.0000 7.6872
#
#
#
# Elastic Compliance Matrix: (Units=1/GPa)
#
#
# Indices 1 2 3 4 5 6 
#
# 1 0.015760 -0.015094 0.009042 0.000000 0.000000 0.000000
# 2 -0.015094 0.036586 -0.017572 0.000000 0.000000 0.000000
# 3 0.009042 -0.017572 0.019395 0.000000 0.000000 0.000000
# 4 0.000000 0.000000 0.000000 0.066670 0.000000 0.000000
# 5 0.000000 0.000000 0.000000 0.000000 0.052390 0.000000
# 6 0.000000 0.000000 0.000000 0.000000 0.000000 0.130086
#
#
# Mechanical properties :
#
#
# Convention : Reuss Voigt Hill
#
# Bulk Modulus (GPa) = 40.82650 41.73179 41.27915
# Shear Modulus (GPa) = 13.28732 22.12230 17.70481
#
# Velocity S-wave (km/s) = 2.56630 3.31134 2.96233
# Velocity P-wave (km/s) = 5.38673 5.94175 5.67103
#
# Compressibility (1/GPa) = 0.02449389
#
# Stress axis : x y z
#
# Youngs Moduli (GPa) = 63.45093 27.33305 51.56069
#
# Poissons Ratio (x) = 0.41255 -0.46623
# Poissons Ratio (y) = 0.95770 0.90603
# Poissons Ratio (z) = -0.57374 0.48030
#
# Static dielectric constant tensor:
#      x y z
#    x 1.691240 0.000000 0.000000 
#    y 0.000000 1.718700 0.000000 
#    z 0.000000 0.000000 1.878710 
# 
# From -- ./inp_files/17241.got.cif
#   From: 2010.05.17/outbox.cif.g08.bks.cpg/sg20_9_cif.got.tgz:17241.got - 2010.06.03 22:52:26.
