data_PCOD9316687
_publ_section_title
;
Structure prediction by ZEFSAII (Michael W. Deem and Ramdas Pophale) SiO2 
 PCOD9316687
Probable space group: C 2 2 21
;
_chemical_formula_sum "Si O2"
_cell_formula_units_Z 64
_cell_length_a 12.791593
_cell_length_b 9.846575
_cell_length_c 22.342087
_cell_angle_alpha 90.000000
_cell_angle_beta 90.000000
_cell_angle_gamma 90.000000
_cell_volume 2814.061370
_symmetry_space_group_name_H-M "C 2 2 21"
_symmetry_group_IT_number 20
_symmetry_cell_setting 'orthorhombic'
loop_
_space_group_symop_operation_xyz
x,y,z
-x,-y,1/2+z
x,-y,-z
-x,y,1/2-z
1/2+x,1/2+y,z
1/2-x,1/2-y,1/2+z
1/2+x,1/2-y,-z
1/2-x,1/2+y,1/2-z
loop_
_atom_site_type_symbol
_atom_site_label
_atom_site_fract_x
_atom_site_fract_y
_atom_site_fract_z
Si Si1 0.646475 0.049465 0.312334
Si Si2 0.268777 0.844875 0.014666
Si Si3 0.953716 0.809156 0.429779
Si Si4 0.462904 0.005360 0.399871
Si Si5 0.522295 0.277256 0.552466
Si Si6 0.792620 0.558721 0.684221
Si Si7 0.174771 0.833329 0.884820
Si Si8 0.565671 0.360055 0.307918
O O1 0.751414 0.056963 0.352437
O O2 0.608184 0.204587 0.299897
O O3 0.553542 0.983401 0.350542
O O4 0.667543 0.976090 0.250076
O O5 0.356235 0.762234 0.050803
O O6 0.165499 0.841998 0.055185
O O7 0.233621 0.794872 0.947798
O O8 0.302880 0.000000 0.000000
O O9 0.981491 0.648182 0.430628
O O10 0.011263 0.853564 0.489685
O O11 0.995537 0.857816 0.366790
O O12 0.466343 0.872026 0.440508
O O13 0.354529 0.028365 0.364579
O O14 0.446367 0.359161 0.598041
O O15 0.822767 0.709272 0.661912
O O16 0.668079 0.548826 0.683064
O O17 0.500000 0.398942 0.250000
#
# Coordination Sequence:
#
# PCOD9316687 Si02
#       8
#     8   8   8   8   8   8   8   8
#     4  10  18  35  60  82 112 153 197 241 301 368
#     4  11  21  37  62  89 119 163 206 249 312 383
#     4  10  21  37  57  84 117 154 194 239 303 368
#     4  10  19  34  58  88 113 146 198 248 298 359
#     4  10  19  35  60  87 115 147 192 251 301 352
#     4  10  20  35  58  84 114 153 197 251 301 350
#     4   9  21  36  56  91 123 148 199 259 304 364
#     4  10  21  37  56  79 114 154 197 242 294 368
#
# _framework density 22.742929
#
# number of rings (size 3 to 8) (size 9 to 14) (size 15 to 20)
#    0.000    2.000    0.000    6.000    0.000    2.000 
#    0.000    3.750    0.000   13.500    0.000    0.000 
#    0.000    0.000    0.000    0.000    0.000    0.000 
#
# Total GULP energy -178582.881692 kJ/mol
# GULP energy per Si atom -5580.715053 kJ/mol
# Density = 2.269117 g / cm^3
# Si number density = 22.742929 Si / 1000 Ang^3
#
#
#
# Elastic Constant Matrix: (Units=GPa)
#
#
# Indices 1 2 3 4 5 6 
#
# 1 147.0889 17.6593 63.6165 0.0000 0.0000 0.0000
# 2 17.6593 58.4971 39.3912 0.0000 0.0000 0.0000
# 3 63.6165 39.3912 130.7371 0.0000 0.0000 0.0000
# 4 0.0000 0.0000 0.0000 12.8406 0.0000 0.0000
# 5 0.0000 0.0000 0.0000 0.0000 27.6672 0.0000
# 6 0.0000 0.0000 0.0000 0.0000 0.0000 29.5176
#
#
#
# Elastic Compliance Matrix: (Units=1/GPa)
#
#
# Indices 1 2 3 4 5 6 
#
# 1 0.008614 0.000279 -0.004276 0.000000 0.000000 0.000000
# 2 0.000279 0.021455 -0.006600 0.000000 0.000000 0.000000
# 3 -0.004276 -0.006600 0.011718 0.000000 0.000000 0.000000
# 4 0.000000 0.000000 0.000000 0.077878 0.000000 0.000000
# 5 0.000000 0.000000 0.000000 0.000000 0.036144 0.000000
# 6 0.000000 0.000000 0.000000 0.000000 0.000000 0.033878
#
#
# Mechanical properties :
#
#
# Convention : Reuss Voigt Hill
#
# Bulk Modulus (GPa) = 48.55914 64.18412 56.37163
# Shear Modulus (GPa) = 22.96254 28.38217 25.67235
#
# Velocity S-wave (km/s) = 3.18096 3.53647 3.36342
# Velocity P-wave (km/s) = 5.90669 6.70510 6.31852
#
# Compressibility (1/GPa) = 0.02059344
#
# Stress axis : x y z
#
# Youngs Moduli (GPa) = 116.08440 46.60889 85.33797
#
# Poissons Ratio (x) = -0.01299 0.36488
# Poissons Ratio (y) = -0.03235 0.56324
# Poissons Ratio (z) = 0.49635 0.30762
#
# Static dielectric constant tensor:
#      x y z
#    x 1.886710 0.000000 0.000000 
#    y 0.000000 1.927460 0.000000 
#    z 0.000000 0.000000 1.819820 
# 
# From -- ./inp_files/29176.got.cif
#   From: 2010.05.17/outbox.cif.g08.bks.cpg/sg20_15_cif.got.tgz:29176.got - 2010.06.03 22:52:26.
