data_PCOD9316325
_publ_section_title
;
Structure prediction by ZEFSAII (Michael W. Deem and Ramdas Pophale) SiO2 
 PCOD9316325
Probable space group: C 2 2 21
;
_chemical_formula_sum "Si O2"
_cell_formula_units_Z 64
_cell_length_a 17.301285
_cell_length_b 5.480104
_cell_length_c 31.709927
_cell_angle_alpha 90.000000
_cell_angle_beta 90.000000
_cell_angle_gamma 90.000000
_cell_volume 3006.508271
_symmetry_space_group_name_H-M "C 2 2 21"
_symmetry_group_IT_number 20
_symmetry_cell_setting 'orthorhombic'
loop_
_space_group_symop_operation_xyz
x,y,z
-x,-y,1/2+z
x,-y,-z
-x,y,1/2-z
1/2+x,1/2+y,z
1/2-x,1/2-y,1/2+z
1/2+x,1/2-y,-z
1/2-x,1/2+y,1/2-z
loop_
_atom_site_type_symbol
_atom_site_label
_atom_site_fract_x
_atom_site_fract_y
_atom_site_fract_z
Si Si1 0.767359 0.500002 0.311782
Si Si2 0.456773 0.000002 0.385389
Si Si3 0.729309 0.999998 0.904892
Si Si4 0.945146 0.000002 0.404489
Si Si5 0.032893 0.500000 0.702743
Si Si6 0.106205 1.000000 0.721833
Si Si7 0.635843 0.499998 0.811996
Si Si8 0.784944 0.999998 0.549752
O O1 0.732612 0.500000 0.359015
O O2 0.699044 0.500002 0.278325
O O3 0.815642 0.249999 0.308648
O O4 0.815642 0.750006 0.308648
O O5 0.364354 0.000002 0.395219
O O6 0.489597 0.246573 0.405356
O O7 0.472495 0.000002 0.335491
O O8 0.489597 0.753431 0.405356
O O9 0.745869 0.750119 0.929483
O O10 0.745869 0.249876 0.929484
O O11 0.904799 0.000002 0.357672
O O12 0.876595 0.000002 0.438515
O O13 0.080453 0.750719 0.699866
O O14 0.000000 0.500000 0.750000
O O15 0.080454 0.249282 0.699867
O O16 0.080612 1.000000 0.771117
O O17 0.773806 0.000000 0.500000
#
# Coordination Sequence:
#
# PCOD9316325 Si02
#       8
#     8   8   8   8   8   8   8   8
#     4  12  21  37  55  75 109 138 186 218 262 316
#     4  10  18  33  52  70  99 139 179 203 257 325
#     4  10  19  34  54  79 104 146 166 208 270 323
#     4  10  17  31  52  76 100 142 171 198 266 321
#     4  12  24  39  52  72 107 139 183 233 268 300
#     4  12  26  36  53  81 102 143 191 235 260 291
#     4  12  19  36  53  73 106 143 183 215 261 310
#     4  10  18  30  50  81 115 133 162 207 261 333
#
# _framework density 21.287153
#
# number of rings (size 3 to 8) (size 9 to 14) (size 15 to 20)
#    0.000    1.000    5.000    5.250    0.000    0.000 
#    0.000    0.000    0.000    0.000    0.000    0.000 
#    0.000   80.000    0.000    0.000    0.000    0.000 
#
# Total GULP energy -178831.622933 kJ/mol
# GULP energy per Si atom -5588.488217 kJ/mol
# Density = 2.123870 g / cm^3
# Si number density = 21.287153 Si / 1000 Ang^3
#
#
#
# Elastic Constant Matrix: (Units=GPa)
#
#
# Indices 1 2 3 4 5 6 
#
# 1 20.9205 27.4405 -6.4640 0.0000 0.0000 0.0000
# 2 27.4405 241.7276 27.9601 0.0000 0.0000 0.0000
# 3 -6.4640 27.9601 81.8390 0.0000 0.0000 0.0000
# 4 0.0000 0.0000 0.0000 26.3895 0.0000 0.0000
# 5 0.0000 0.0000 0.0000 0.0000 13.3974 0.0000
# 6 0.0000 0.0000 0.0000 0.0000 0.0000 20.8774
#
#
#
# Elastic Compliance Matrix: (Units=1/GPa)
#
#
# Indices 1 2 3 4 5 6 
#
# 1 0.060155 -0.007682 0.007376 0.000000 0.000000 0.000000
# 2 -0.007682 0.005288 -0.002413 0.000000 0.000000 0.000000
# 3 0.007376 -0.002413 0.013626 0.000000 0.000000 0.000000
# 4 0.000000 0.000000 0.000000 0.037894 0.000000 0.000000
# 5 0.000000 0.000000 0.000000 0.000000 0.074641 0.000000
# 6 0.000000 0.000000 0.000000 0.000000 0.000000 0.047899
#
#
# Mechanical properties :
#
#
# Convention : Reuss Voigt Hill
#
# Bulk Modulus (GPa) = 13.58138 49.15115 31.36627
# Shear Modulus (GPa) = 18.55389 31.83622 25.19506
#
# Velocity S-wave (km/s) = 2.95549 3.87144 3.44405
# Velocity P-wave (km/s) = 4.24741 6.56687 5.53011
#
# Compressibility (1/GPa) = 0.07363023
#
# Stress axis : x y z
#
# Youngs Moduli (GPa) = 16.62375 189.10497 73.38799
#
# Poissons Ratio (x) = 1.45267 -0.54129
# Poissons Ratio (y) = 0.12770 0.17711
# Poissons Ratio (z) = -0.12261 0.45639
#
# Static dielectric constant tensor:
#      x y z
#    x 1.789690 0.000000 0.000000 
#    y 0.000000 1.864840 0.000000 
#    z 0.000000 0.000000 1.760210 
# 
# From -- ./inp_files/31373.got.cif
#   From: 2010.05.17/outbox.cif.g08.bks.cpg/sg20_16_cif.got.tgz:31373.got - 2010.06.03 22:52:26.
