data_PCOD9316316
_publ_section_title
;
Structure prediction by ZEFSAII (Michael W. Deem and Ramdas Pophale) SiO2 
 PCOD9316316
Probable space group: C 2 2 21
;
_chemical_formula_sum "Si O2"
_cell_formula_units_Z 48
_cell_length_a 26.240445
_cell_length_b 19.804912
_cell_length_c 5.477740
_cell_angle_alpha 90.000000
_cell_angle_beta 90.000000
_cell_angle_gamma 90.000000
_cell_volume 2846.725080
_symmetry_space_group_name_H-M "C 2 2 21"
_symmetry_group_IT_number 20
_symmetry_cell_setting 'orthorhombic'
loop_
_space_group_symop_operation_xyz
x,y,z
-x,-y,1/2+z
x,-y,-z
-x,y,1/2-z
1/2+x,1/2+y,z
1/2-x,1/2-y,1/2+z
1/2+x,1/2-y,-z
1/2-x,1/2+y,1/2-z
loop_
_atom_site_type_symbol
_atom_site_label
_atom_site_fract_x
_atom_site_fract_y
_atom_site_fract_z
Si Si1 0.938197 0.000000 0.500000
Si Si2 0.472571 0.649605 0.500000
Si Si3 0.779724 0.901069 1.000000
Si Si4 0.141005 0.206899 1.000000
Si Si5 0.756807 0.878995 0.500000
Si Si6 0.817212 0.748957 1.000000
Si Si7 0.627257 0.500000 0.500000
O O1 0.970653 0.931822 0.500000
O O2 0.904912 0.000000 0.250057
O O3 0.500000 0.671620 0.250000
O O4 0.414526 0.674794 0.500000
O O5 0.500000 0.671620 0.750000
O O6 0.751618 0.918677 0.750821
O O7 0.751618 0.918677 0.249178
O O8 0.785382 0.819383 1.000000
O O9 0.835119 0.935498 0.000000
O O10 0.150904 0.247964 0.249459
O O11 0.184569 0.148608 1.000000
O O12 0.150904 0.247964 0.750541
O O13 0.720455 0.814065 0.500000
#
# Coordination Sequence:
#
# PCOD9316316 Si02
#       7
#     4   8   8   8   8   8   4
#     4  12  22  37  50  60  78 116 170 222 250 269
#     4  12  24  37  48  63  86 120 163 208 249 286
#     4  10  18  28  41  65  91 114 139 178 230 281
#     4  10  18  30  46  64  86 108 136 183 240 279
#     4  10  18  30  49  69  88 107 140 191 236 278
#     4  10  17  30  49  71  87 106 139 191 237 279
#     4  12  22  33  50  68  90 122 160 200 252 295
#
# _framework density 16.861481000000001
#
# number of rings (size 3 to 8) (size 9 to 14) (size 15 to 20)
#    0.000    1.333    0.000   12.500    0.000    0.000 
#    0.000    0.000    0.000    0.000    0.000    0.000 
#    0.000    0.000    0.000    0.000    0.000    0.000 
#
# Total GULP energy -134007.991936 kJ/mol
# GULP energy per Si atom -5583.666331 kJ/mol
# Density = 1.682310 g / cm^3
# Si number density = 16.861481 Si / 1000 Ang^3
#
#
#
# Elastic Constant Matrix: (Units=GPa)
#
#
# Indices 1 2 3 4 5 6 
#
# 1 74.8605 24.2773 40.6154 0.0000 0.0000 0.0000
# 2 24.2773 34.8556 23.6946 0.0000 0.0000 0.0000
# 3 40.6154 23.6946 203.3531 0.0000 0.0000 0.0000
# 4 0.0000 0.0000 0.0000 3.9911 0.0000 0.0000
# 5 0.0000 0.0000 0.0000 0.0000 35.0150 0.0000
# 6 0.0000 0.0000 0.0000 0.0000 0.0000 31.3573
#
#
#
# Elastic Compliance Matrix: (Units=1/GPa)
#
#
# Indices 1 2 3 4 5 6 
#
# 1 0.018233 -0.011103 -0.002348 0.000000 0.000000 0.000000
# 2 -0.011103 0.037919 -0.002201 0.000000 0.000000 0.000000
# 3 -0.002348 -0.002201 0.005643 0.000000 0.000000 0.000000
# 4 0.000000 0.000000 0.000000 0.250558 0.000000 0.000000
# 5 0.000000 0.000000 0.000000 0.000000 0.028559 0.000000
# 6 0.000000 0.000000 0.000000 0.000000 0.000000 0.031890
#
#
# Mechanical properties :
#
#
# Convention : Reuss Voigt Hill
#
# Bulk Modulus (GPa) = 32.79615 54.47155 43.63385
# Shear Modulus (GPa) = 12.06942 29.03815 20.55378
#
# Velocity S-wave (km/s) = 2.67834 4.15439 3.49518
# Velocity P-wave (km/s) = 5.39048 7.44227 6.49787
#
# Compressibility (1/GPa) = 0.03049138
#
# Stress axis : x y z
#
# Youngs Moduli (GPa) = 54.84621 26.37173 177.21337
#
# Poissons Ratio (x) = 0.29281 0.41607
# Poissons Ratio (y) = 0.60897 0.39000
# Poissons Ratio (z) = 0.12877 0.05804
#
# Static dielectric constant tensor:
#      x y z
#    x 1.540730 0.000000 0.000000 
#    y 0.000000 1.549560 0.000000 
#    z 0.000000 0.000000 1.700730 
# 
# From -- ./inp_files/2742.got.cif
#   From: 2010.05.17/outbox.cif.g08.bks.cpg/sg20_2_cif.got.tgz:2742.got - 2010.06.03 22:52:26.
