data_PCOD9316264
_publ_section_title
;
Structure prediction by ZEFSAII (Michael W. Deem and Ramdas Pophale) SiO2 
 PCOD9316264
Probable space group: C 2 2 21
;
_chemical_formula_sum "Si O2"
_cell_formula_units_Z 52
_cell_length_a 16.137701
_cell_length_b 10.641392
_cell_length_c 17.267068
_cell_angle_alpha 90.000000
_cell_angle_beta 90.000000
_cell_angle_gamma 90.000000
_cell_volume 2965.232187
_symmetry_space_group_name_H-M "C 2 2 21"
_symmetry_group_IT_number 20
_symmetry_cell_setting 'orthorhombic'
loop_
_space_group_symop_operation_xyz
x,y,z
-x,-y,1/2+z
x,-y,-z
-x,y,1/2-z
1/2+x,1/2+y,z
1/2-x,1/2-y,1/2+z
1/2+x,1/2-y,-z
1/2-x,1/2+y,1/2-z
loop_
_atom_site_type_symbol
_atom_site_label
_atom_site_fract_x
_atom_site_fract_y
_atom_site_fract_z
Si Si1 0.153521 0.375459 0.967602
Si Si2 0.070922 0.940906 0.417975
Si Si3 0.896803 0.142313 0.617940
Si Si4 0.218317 0.923533 0.671004
Si Si5 0.275119 0.500000 0.500000
Si Si6 0.730154 0.317192 0.251298
Si Si7 0.790453 0.255180 0.926469
O O1 0.095502 0.267072 0.934789
O O2 0.214344 0.412131 0.897123
O O3 0.111401 0.500000 0.000000
O O4 0.214849 0.320632 0.033268
O O5 0.124109 0.817601 0.440238
O O6 0.986953 0.915102 0.372213
O O7 0.047049 0.000000 0.500000
O O8 0.134061 0.026336 0.368295
O O9 0.851809 0.175664 0.698065
O O10 0.834220 0.054841 0.567941
O O11 0.211450 0.783300 0.706637
O O12 0.248396 0.035649 0.729104
O O13 0.219014 0.608630 0.463336
O O14 0.718924 0.252205 0.334385
#
# Coordination Sequence:
#
# PCOD9316264 Si02
#       7
#     8   8   8   8   4   8   8
#     4  10  16  35  56  80  99 154 190 231 264 343
#     4  11  19  37  56  83 107 151 188 233 271 344
#     4  10  22  32  56  82 118 141 188 233 294 326
#     4  10  19  33  59  81 115 143 196 225 280 334
#     4  10  20  36  54  86 112 146 190 252 266 334
#     4  10  20  34  53  89 111 151 181 241 282 338
#     4  10  19  33  59  80 112 143 197 229 282 326
#
# _framework density 17.536569
#
# number of rings (size 3 to 8) (size 9 to 14) (size 15 to 20)
#    0.000    1.846    5.385    0.923    0.000    2.462 
#    1.385    0.000    0.000    0.000    0.000   12.923 
#    0.000    0.000    0.000    0.000    0.000    0.000 
#
# Total GULP energy -144774.332791 kJ/mol
# GULP energy per Si atom -5568.243569 kJ/mol
# Density = 1.749666 g / cm^3
# Si number density = 17.536569 Si / 1000 Ang^3
#
#
#
# Elastic Constant Matrix: (Units=GPa)
#
#
# Indices 1 2 3 4 5 6 
#
# 1 61.0926 20.6579 5.2405 0.0000 0.0000 0.0000
# 2 20.6579 79.0074 24.8313 0.0000 0.0000 0.0000
# 3 5.2405 24.8313 44.8341 0.0000 0.0000 0.0000
# 4 0.0000 0.0000 0.0000 20.5280 0.0000 0.0000
# 5 0.0000 0.0000 0.0000 0.0000 12.2470 0.0000
# 6 0.0000 0.0000 0.0000 0.0000 0.0000 18.6295
#
#
#
# Elastic Compliance Matrix: (Units=1/GPa)
#
#
# Indices 1 2 3 4 5 6 
#
# 1 0.017970 -0.004889 0.000608 0.000000 0.000000 0.000000
# 2 -0.004889 0.016655 -0.008653 0.000000 0.000000 0.000000
# 3 0.000608 -0.008653 0.027026 0.000000 0.000000 0.000000
# 4 0.000000 0.000000 0.000000 0.048714 0.000000 0.000000
# 5 0.000000 0.000000 0.000000 0.000000 0.081653 0.000000
# 6 0.000000 0.000000 0.000000 0.000000 0.000000 0.053678
#
#
# Mechanical properties :
#
#
# Convention : Reuss Voigt Hill
#
# Bulk Modulus (GPa) = 27.94769 31.82152 29.88460
# Shear Modulus (GPa) = 17.63720 19.22788 18.43254
#
# Velocity S-wave (km/s) = 3.17478 3.31485 3.24557
# Velocity P-wave (km/s) = 5.42313 5.73029 5.57882
#
# Compressibility (1/GPa) = 0.03578114
#
# Stress axis : x y z
#
# Youngs Moduli (GPa) = 55.64890 60.04210 37.00172
#
# Poissons Ratio (x) = 0.29358 -0.02248
# Poissons Ratio (y) = 0.27209 0.32017
# Poissons Ratio (z) = -0.03381 0.51953
#
# Static dielectric constant tensor:
#      x y z
#    x 1.550420 0.000000 0.000000 
#    y 0.000000 1.661390 0.000000 
#    z 0.000000 0.000000 1.619810 
# 
# From -- ./inp_files/24921.got.cif
#   From: 2010.05.17/outbox.cif.g08.bks.cpg/sg20_13_cif.got.tgz:24921.got - 2010.06.03 22:52:26.
