data_PCOD9316537
_publ_section_title
;
Structure prediction by ZEFSAII (Michael W. Deem and Ramdas Pophale) SiO2 
 PCOD9316537
Probable space group: C 2 2 21
;
_chemical_formula_sum "Si O2"
_cell_formula_units_Z 48
_cell_length_a 17.110730
_cell_length_b 16.524875
_cell_length_c 8.223344
_cell_angle_alpha 90.000000
_cell_angle_beta 90.000000
_cell_angle_gamma 90.000000
_cell_volume 2325.172509
_symmetry_space_group_name_H-M "C 2 2 21"
_symmetry_group_IT_number 20
_symmetry_cell_setting 'orthorhombic'
loop_
_space_group_symop_operation_xyz
x,y,z
-x,-y,1/2+z
x,-y,-z
-x,y,1/2-z
1/2+x,1/2+y,z
1/2-x,1/2-y,1/2+z
1/2+x,1/2-y,-z
1/2-x,1/2+y,1/2-z
loop_
_atom_site_type_symbol
_atom_site_label
_atom_site_fract_x
_atom_site_fract_y
_atom_site_fract_z
Si Si1 0.067823 0.244821 0.376937
Si Si2 0.853090 0.694845 0.304015
Si Si3 0.798255 0.755556 0.620693
Si Si4 0.210935 0.084250 0.916883
Si Si5 0.109989 0.589610 0.484385
Si Si6 0.918800 0.850528 0.202686
O O1 0.146822 0.250380 0.274250
O O2 0.058932 0.335220 0.451682
O O3 0.077294 0.178323 0.516778
O O4 0.000000 0.226363 0.250000
O O5 0.817623 0.688961 0.483765
O O6 0.788833 0.738707 0.188215
O O7 0.873726 0.614711 0.204148
O O8 0.918270 0.764757 0.304586
O O9 0.811506 0.841097 0.532598
O O10 0.157595 0.098988 0.758004
O O11 0.306307 0.086988 0.917913
O O12 0.190203 0.000000 0.000000
O O13 0.075777 0.500000 0.500000
O O14 0.000000 0.893164 0.250000
#
# Coordination Sequence:
#
# PCOD9316537 Si02
#       6
#     8   8   8   8   8   8
#     4  11  21  34  54  80 110 147 186 227 277 341
#     4   9  17  31  54  78 102 139 181 227 277 331
#     4  10  18  32  54  79 103 136 186 228 271 336
#     4   9  18  35  57  80 107 142 181 231 286 337
#     4   9  19  36  56  78 109 143 183 235 288 336
#     4  10  19  34  54  77 107 141 181 226 274 331
#
# _framework density 20.643630000000002
#
# number of rings (size 3 to 8) (size 9 to 14) (size 15 to 20)
#    0.000    2.333    0.000    6.000    0.000    0.000 
#    0.000    9.167    0.000    8.000    0.000    0.000 
#    0.000    0.000    0.000    0.000    0.000    0.000 
#
# Total GULP energy -133731.395363 kJ/mol
# GULP energy per Si atom -5572.141473 kJ/mol
# Density = 2.059664 g / cm^3
# Si number density = 20.643630 Si / 1000 Ang^3
#
#
#
# Elastic Constant Matrix: (Units=GPa)
#
#
# Indices 1 2 3 4 5 6 
#
# 1 29.3379 7.9490 12.6959 0.0000 0.0000 0.0000
# 2 7.9490 57.1735 18.6009 0.0000 0.0000 0.0000
# 3 12.6959 18.6009 104.7413 0.0000 0.0000 0.0000
# 4 0.0000 0.0000 0.0000 24.8284 0.0000 0.0000
# 5 0.0000 0.0000 0.0000 0.0000 30.2979 0.0000
# 6 0.0000 0.0000 0.0000 0.0000 0.0000 15.8093
#
#
#
# Elastic Compliance Matrix: (Units=1/GPa)
#
#
# Indices 1 2 3 4 5 6 
#
# 1 0.036769 -0.003887 -0.003767 0.000000 0.000000 0.000000
# 2 -0.003887 0.018974 -0.002898 0.000000 0.000000 0.000000
# 3 -0.003767 -0.002898 0.010519 0.000000 0.000000 0.000000
# 4 0.000000 0.000000 0.000000 0.040277 0.000000 0.000000
# 5 0.000000 0.000000 0.000000 0.000000 0.033006 0.000000
# 6 0.000000 0.000000 0.000000 0.000000 0.000000 0.063254
#
#
# Mechanical properties :
#
#
# Convention : Reuss Voigt Hill
#
# Bulk Modulus (GPa) = 22.14450 29.97157 26.05804
# Shear Modulus (GPa) = 20.92461 24.32091 22.62276
#
# Velocity S-wave (km/s) = 3.18718 3.43612 3.31399
# Velocity P-wave (km/s) = 4.92894 5.50387 5.22432
#
# Compressibility (1/GPa) = 0.04515794
#
# Stress axis : x y z
#
# Youngs Moduli (GPa) = 27.19707 52.70381 95.06954
#
# Poissons Ratio (x) = 0.20484 0.35809
# Poissons Ratio (y) = 0.10571 0.27555
# Poissons Ratio (z) = 0.10244 0.15276
#
# Static dielectric constant tensor:
#      x y z
#    x 2.043670 0.000000 0.000000 
#    y 0.000000 1.724820 0.000000 
#    z 0.000000 0.000000 1.775000 
# 
# From -- ./inp_files/9439.got.cif
#   From: 2010.05.17/outbox.cif.g08.bks.cpg/sg20_5_cif.got.tgz:9439.got - 2010.06.03 22:52:26.
