data_PCOD9316428
_publ_section_title
;
Structure prediction by ZEFSAII (Michael W. Deem and Ramdas Pophale) SiO2 
 PCOD9316428
Probable space group: C 2 2 21
;
_chemical_formula_sum "Si O2"
_cell_formula_units_Z 36
_cell_length_a 18.464196
_cell_length_b 21.314278
_cell_length_c 5.066285
_cell_angle_alpha 90.000000
_cell_angle_beta 90.000000
_cell_angle_gamma 90.000000
_cell_volume 1993.841561
_symmetry_space_group_name_H-M "C 2 2 21"
_symmetry_group_IT_number 20
_symmetry_cell_setting 'orthorhombic'
loop_
_space_group_symop_operation_xyz
x,y,z
-x,-y,1/2+z
x,-y,-z
-x,y,1/2-z
1/2+x,1/2+y,z
1/2-x,1/2-y,1/2+z
1/2+x,1/2-y,-z
1/2-x,1/2+y,1/2-z
loop_
_atom_site_type_symbol
_atom_site_label
_atom_site_fract_x
_atom_site_fract_y
_atom_site_fract_z
Si Si1 0.194812 0.818927 0.740079
Si Si2 0.930096 0.354076 0.446576
Si Si3 0.722032 0.168434 0.729173
Si Si4 0.950978 0.787247 0.492568
Si Si5 0.000000 0.457437 0.750000
O O1 0.214700 0.842198 0.447175
O O2 0.207226 0.743664 0.727142
O O3 0.252365 0.848468 0.938982
O O4 0.118279 0.824474 0.893421
O O5 0.854296 0.361448 0.300417
O O6 0.928345 0.284573 0.578824
O O7 0.938573 0.409349 0.655266
O O8 0.000000 0.356996 0.250000
O O9 0.000000 0.811792 0.250000
O O10 0.000000 0.781030 0.750000
O O11 0.019473 0.500000 0.500000
#
# Coordination Sequence:
#
# PCOD9316428 Si02
#       5
#     8   8   8   8   4
#     4   9  17  28  40  65  87 114 145 186 227 260
#     4  10  21  33  49  65  84 118 161 199 239 268
#     4   9  18  28  44  60  88 111 146 193 229 264
#     4  10  18  28  46  65  91 121 156 189 222 266
#     4  12  24  36  48  64  88 112 158 216 246 272
#
# _framework density 18.055595
#
# number of rings (size 3 to 8) (size 9 to 14) (size 15 to 20)
#    0.000    2.222    2.222    1.333    3.111    5.333 
#    0.000    0.000    0.000    0.000    0.000    0.000 
#    0.000    0.000    0.000    0.000    0.000   62.222 
#
# Total GULP energy -100240.834820 kJ/mol
# GULP energy per Si atom -5568.935268 kJ/mol
# Density = 1.801450 g / cm^3
# Si number density = 18.055595 Si / 1000 Ang^3
#
#
#
# Elastic Constant Matrix: (Units=GPa)
#
#
# Indices 1 2 3 4 5 6 
#
# 1 52.2498 11.8826 -3.4442 0.0000 0.0000 0.0000
# 2 11.8826 22.7676 7.2782 0.0000 0.0000 0.0000
# 3 -3.4442 7.2782 74.7044 0.0000 0.0000 0.0000
# 4 0.0000 0.0000 0.0000 4.9813 0.0000 0.0000
# 5 0.0000 0.0000 0.0000 0.0000 30.1127 0.0000
# 6 0.0000 0.0000 0.0000 0.0000 0.0000 0.4940
#
#
#
# Elastic Compliance Matrix: (Units=1/GPa)
#
#
# Indices 1 2 3 4 5 6 
#
# 1 0.022064 -0.012221 0.002208 0.000000 0.000000 0.000000
# 2 -0.012221 0.052103 -0.005640 0.000000 0.000000 0.000000
# 3 0.002208 -0.005640 0.014037 0.000000 0.000000 0.000000
# 4 0.000000 0.000000 0.000000 0.200752 0.000000 0.000000
# 5 0.000000 0.000000 0.000000 0.000000 0.033209 0.000000
# 6 0.000000 0.000000 0.000000 0.000000 0.000000 2.024417
#
#
# Mechanical properties :
#
#
# Convention : Reuss Voigt Hill
#
# Bulk Modulus (GPa) = 17.57514 20.12834 18.85174
# Shear Modulus (GPa) = 2.08607 16.05127 9.06867
#
# Velocity S-wave (km/s) = 1.07604 2.98483 2.24356
# Velocity P-wave (km/s) = 3.36138 4.80116 4.14427
#
# Compressibility (1/GPa) = 0.05689856
#
# Stress axis : x y z
#
# Youngs Moduli (GPa) = 45.32337 19.19269 71.23861
#
# Poissons Ratio (x) = 0.23455 -0.15729
# Poissons Ratio (y) = 0.55390 0.40176
# Poissons Ratio (z) = -0.10007 0.10824
#
# Static dielectric constant tensor:
#      x y z
#    x 1.651310 0.000000 0.000000 
#    y 0.000000 1.599520 0.000000 
#    z 0.000000 0.000000 1.657350 
# 
# From -- ./inp_files/1846.got.cif
#   From: 2010.05.17/outbox.cif.g08.bks.cpg/sg20_1_cif.got.tgz:1846.got - 2010.06.03 22:52:26.
