data_PCOD9316538
_publ_section_title
;
Structure prediction by ZEFSAII (Michael W. Deem and Ramdas Pophale) SiO2 
 PCOD9316538
Probable space group: C 2 2 21
;
_chemical_formula_sum "Si O2"
_cell_formula_units_Z 40
_cell_length_a 15.255701
_cell_length_b 9.073911
_cell_length_c 11.828599
_cell_angle_alpha 90.000000
_cell_angle_beta 90.000000
_cell_angle_gamma 90.000000
_cell_volume 1637.419630
_symmetry_space_group_name_H-M "C 2 2 21"
_symmetry_group_IT_number 20
_symmetry_cell_setting 'orthorhombic'
loop_
_space_group_symop_operation_xyz
x,y,z
-x,-y,1/2+z
x,-y,-z
-x,y,1/2-z
1/2+x,1/2+y,z
1/2-x,1/2-y,1/2+z
1/2+x,1/2-y,-z
1/2-x,1/2+y,1/2-z
loop_
_atom_site_type_symbol
_atom_site_label
_atom_site_fract_x
_atom_site_fract_y
_atom_site_fract_z
Si Si1 0.093063 0.081146 0.748047
Si Si2 0.446466 0.175989 0.062176
Si Si3 0.722515 0.078478 0.843642
Si Si4 0.585522 0.854545 0.330571
Si Si5 0.855025 0.290356 0.558251
O O1 0.065147 0.214879 0.665935
O O2 0.180129 0.027987 0.686197
O O3 0.129712 0.142254 0.868545
O O4 0.000000 0.993537 0.750000
O O5 0.546664 0.172854 0.019700
O O6 0.420977 0.019127 0.115286
O O7 0.402190 0.234022 0.947432
O O8 0.672703 0.159471 0.742538
O O9 0.670110 0.927479 0.863089
O O10 0.709051 0.187153 0.951333
O O11 0.500000 0.835351 0.250000
#
# Coordination Sequence:
#
# PCOD9316538 Si02
#       5
#     8   8   8   8   8
#     4  10  22  37  53  79 112 149 185 222 271 328
#     4  10  18  32  54  79 113 138 173 228 280 316
#     4  11  20  32  57  82 110 144 184 225 274 330
#     4  11  16  29  53  84 107 136 174 232 275 318
#     4  10  19  36  56  80 108 142 182 224 280 328
#
# _framework density 24.42868
#
# number of rings (size 3 to 8) (size 9 to 14) (size 15 to 20)
#    0.000    1.600    6.000    1.800    2.800    0.000 
#    0.000    0.000    0.000   15.600    0.000    0.000 
#    0.000    0.000    0.000    0.000    0.000    0.000 
#
# Total GULP energy -111520.545868 kJ/mol
# GULP energy per Si atom -5576.027293 kJ/mol
# Density = 2.437308 g / cm^3
# Si number density = 24.428680 Si / 1000 Ang^3
#
#
#
# Elastic Constant Matrix: (Units=GPa)
#
#
# Indices 1 2 3 4 5 6 
#
# 1 141.4760 8.3638 41.9204 0.0000 0.0000 0.0000
# 2 8.3638 31.2763 20.2908 0.0000 0.0000 0.0000
# 3 41.9204 20.2908 156.6419 0.0000 0.0000 0.0000
# 4 0.0000 0.0000 0.0000 2.6143 0.0000 0.0000
# 5 0.0000 0.0000 0.0000 0.0000 21.3259 0.0000
# 6 0.0000 0.0000 0.0000 0.0000 0.0000 -7.2908
#
#
#
# Elastic Compliance Matrix: (Units=1/GPa)
#
#
# Indices 1 2 3 4 5 6 
#
# 1 0.007695 -0.000788 -0.001957 0.000000 0.000000 0.000000
# 2 -0.000788 0.034987 -0.004321 0.000000 0.000000 0.000000
# 3 -0.001957 -0.004321 0.007468 0.000000 0.000000 0.000000
# 4 0.000000 0.000000 0.000000 0.382505 0.000000 0.000000
# 5 0.000000 0.000000 0.000000 0.000000 0.046891 0.000000
# 6 0.000000 0.000000 0.000000 0.000000 0.000000 -0.137158
#
#
# Mechanical properties :
#
#
# Convention : Reuss Voigt Hill
#
# Bulk Modulus (GPa) = 27.76480 52.28268 40.02374
# Shear Modulus (GPa) = 13.56756 20.58450 17.07603
#
# Velocity S-wave (km/s) = 2.35924 2.90597 2.64676
# Velocity P-wave (km/s) = 4.33724 5.71911 5.07542
#
# Compressibility (1/GPa) = 0.03601682
#
# Stress axis : x y z
#
# Youngs Moduli (GPa) = 129.95690 28.58179 133.91297
#
# Poissons Ratio (x) = 0.02252 0.26210
# Poissons Ratio (y) = 0.10240 0.57867
# Poissons Ratio (z) = 0.25435 0.12351
#
# Static dielectric constant tensor:
#      x y z
#    x 2.036170 0.000000 0.000000 
#    y 0.000000 1.982380 0.000000 
#    z 0.000000 0.000000 2.067770 
# 
# From -- ./inp_files/13846.got.cif
#   From: 2010.05.17/outbox.cif.g08.bks.cpg/sg20_7_cif.got.tgz:13846.got - 2010.06.03 22:52:26.
