data_PCOD9316979
_publ_section_title
;
Structure prediction by ZEFSAII (Michael W. Deem and Ramdas Pophale) SiO2 
 PCOD9316979
Probable space group: C 2 2 21
;
_chemical_formula_sum "Si O2"
_cell_formula_units_Z 64
_cell_length_a 17.740873
_cell_length_b 18.394071
_cell_length_c 9.361594
_cell_angle_alpha 90.000000
_cell_angle_beta 90.000000
_cell_angle_gamma 90.000000
_cell_volume 3054.939739
_symmetry_space_group_name_H-M "C 2 2 21"
_symmetry_group_IT_number 20
_symmetry_cell_setting 'orthorhombic'
loop_
_space_group_symop_operation_xyz
x,y,z
-x,-y,1/2+z
x,-y,-z
-x,y,1/2-z
1/2+x,1/2+y,z
1/2-x,1/2-y,1/2+z
1/2+x,1/2-y,-z
1/2-x,1/2+y,1/2-z
loop_
_atom_site_type_symbol
_atom_site_label
_atom_site_fract_x
_atom_site_fract_y
_atom_site_fract_z
Si Si1 0.084008 0.029433 0.272454
Si Si2 0.742467 0.873352 0.269918
Si Si3 0.376700 0.603391 0.935495
Si Si4 0.420360 0.856879 0.226684
Si Si5 0.820051 0.115463 0.434183
Si Si6 0.709812 0.205823 0.232793
Si Si7 0.568442 0.766904 0.564114
Si Si8 0.900519 0.263192 0.504285
O O1 0.121139 0.066717 0.410584
O O2 0.133868 0.050478 0.137349
O O3 0.000000 0.058371 0.250000
O O4 0.078819 0.945761 0.320519
O O5 0.794904 0.893731 0.137257
O O6 0.657135 0.899657 0.256640
O O7 0.774537 0.900742 0.421477
O O8 0.748796 0.784603 0.274068
O O9 0.412203 0.682230 0.956164
O O10 0.500000 0.896823 0.250000
O O11 0.417599 0.796738 0.350924
O O12 0.418650 0.815749 0.076132
O O13 0.765603 0.150314 0.311594
O O14 0.877350 0.179545 0.483177
O O15 0.633772 0.209725 0.326998
O O16 0.672013 0.197357 0.076283
O O17 0.478541 0.771157 0.591832
#
# Coordination Sequence:
#
# PCOD9316979 Si02
#       8
#     8   8   8   8   8   8   8   8
#     4  11  25  42  59  84 116 161 211 249 282 339
#     4  10  21  36  56  85 115 154 195 246 299 356
#     4  10  24  39  61  82 115 159 203 252 289 340
#     4  10  19  32  54  86 120 151 187 233 298 365
#     4  11  21  35  54  81 115 160 200 240 293 347
#     4  10  20  31  51  80 115 147 191 238 299 354
#     4  10  19  36  55  81 119 148 194 236 299 359
#     4  10  20  30  52  82 111 157 182 238 297 351
#
# _framework density 20.949677999999999
#
# number of rings (size 3 to 8) (size 9 to 14) (size 15 to 20)
#    0.000    1.750    2.500    1.875    1.750    6.500 
#    0.000    0.000    0.000    0.000    0.000    5.250 
#    0.000    0.000    0.000    0.000    0.000    0.000 
#
# Total GULP energy -178565.441287 kJ/mol
# GULP energy per Si atom -5580.170040 kJ/mol
# Density = 2.090200 g / cm^3
# Si number density = 20.949678 Si / 1000 Ang^3
#
#
#
# Elastic Constant Matrix: (Units=GPa)
#
#
# Indices 1 2 3 4 5 6 
#
# 1 137.7738 -1.2710 30.6422 0.0000 0.0000 0.0000
# 2 -1.2710 13.9495 0.8678 0.0000 0.0000 0.0000
# 3 30.6422 0.8678 50.5066 0.0000 0.0000 0.0000
# 4 0.0000 0.0000 0.0000 23.4141 0.0000 0.0000
# 5 0.0000 0.0000 0.0000 0.0000 25.8130 0.0000
# 6 0.0000 0.0000 0.0000 0.0000 0.0000 11.8984
#
#
#
# Elastic Compliance Matrix: (Units=1/GPa)
#
#
# Indices 1 2 3 4 5 6 
#
# 1 0.008407 0.001084 -0.005119 0.000000 0.000000 0.000000
# 2 0.001084 0.071904 -0.001893 0.000000 0.000000 0.000000
# 3 -0.005119 -0.001893 0.022938 0.000000 0.000000 0.000000
# 4 0.000000 0.000000 0.000000 0.042709 0.000000 0.000000
# 5 0.000000 0.000000 0.000000 0.000000 0.038740 0.000000
# 6 0.000000 0.000000 0.000000 0.000000 0.000000 0.084045
#
#
# Mechanical properties :
#
#
# Convention : Reuss Voigt Hill
#
# Bulk Modulus (GPa) = 10.94186 29.18976 20.06581
# Shear Modulus (GPa) = 16.07396 23.69117 19.88256
#
# Velocity S-wave (km/s) = 2.77296 3.36648 3.08403
# Velocity P-wave (km/s) = 3.93531 5.39207 4.72023
#
# Compressibility (1/GPa) = 0.09139212
#
# Stress axis : x y z
#
# Youngs Moduli (GPa) = 118.95145 13.90752 43.59652
#
# Poissons Ratio (x) = -0.01508 0.22317
# Poissons Ratio (y) = -0.12900 0.08254
# Poissons Ratio (z) = 0.60891 0.02633
#
# Static dielectric constant tensor:
#      x y z
#    x 1.809780 0.000000 0.000000 
#    y 0.000000 1.750220 0.000000 
#    z 0.000000 0.000000 1.764820 
# 
# From -- ./inp_files/9644.got.cif
#   From: 2010.05.17/outbox.cif.g08.bks.cpg/sg20_5_cif.got.tgz:9644.got - 2010.06.03 22:52:26.
