data_PCOD9316515
_publ_section_title
;
Structure prediction by ZEFSAII (Michael W. Deem and Ramdas Pophale) SiO2 
 PCOD9316515
Probable space group: C 2 2 21
;
_chemical_formula_sum "Si O2"
_cell_formula_units_Z 56
_cell_length_a 13.951305
_cell_length_b 5.704970
_cell_length_c 28.094155
_cell_angle_alpha 90.000000
_cell_angle_beta 90.000000
_cell_angle_gamma 90.000000
_cell_volume 2236.063705
_symmetry_space_group_name_H-M "C 2 2 21"
_symmetry_group_IT_number 20
_symmetry_cell_setting 'orthorhombic'
loop_
_space_group_symop_operation_xyz
x,y,z
-x,-y,1/2+z
x,-y,-z
-x,y,1/2-z
1/2+x,1/2+y,z
1/2-x,1/2-y,1/2+z
1/2+x,1/2-y,-z
1/2-x,1/2+y,1/2-z
loop_
_atom_site_type_symbol
_atom_site_label
_atom_site_fract_x
_atom_site_fract_y
_atom_site_fract_z
Si Si1 0.445787 0.676157 0.378783
Si Si2 0.098548 0.599826 0.782509
Si Si3 0.127477 0.122808 0.640956
Si Si4 0.382167 0.397898 0.247641
Si Si5 0.210931 0.871075 0.547889
Si Si6 0.925447 0.518756 0.070807
Si Si7 0.904726 0.841167 0.453884
O O1 0.413739 0.856716 0.338918
O O2 0.526710 0.513864 0.355119
O O3 0.498700 0.814201 0.420676
O O4 0.379714 0.495266 0.406810
O O5 0.142867 0.343096 0.774709
O O6 0.000000 0.593210 0.750000
O O7 0.146114 0.846332 0.766931
O O8 0.161001 0.123999 0.694686
O O9 0.108802 0.383148 0.621745
O O10 0.182911 0.997601 0.597468
O O11 0.500000 0.400876 0.250000
O O12 0.163850 0.612098 0.547675
O O13 0.324747 0.856196 0.545480
O O14 0.177535 0.000000 0.500000
O O15 0.988969 0.728217 0.049017
O O16 0.896216 0.000000 0.500000
#
# Coordination Sequence:
#
# PCOD9316515 Si02
#       7
#     8   8   8   8   8   8   8
#     4  10  21  39  66 107 141 190 247 305 375 454
#     4  10  18  31  60 103 150 185 240 306 375 453
#     4  10  21  39  66 107 141 190 247 305 375 454
#     4  10  18  31  60 103 150 185 240 306 375 453
#     4  11  28  48  70 106 148 198 257 319 392 464
#     4  10  24  45  73  98 142 186 247 318 363 466
#     4  11  28  48  70 106 148 198 257 319 392 464
#
# _framework density 25.044008999999999
#
# number of rings (size 3 to 8) (size 9 to 14) (size 15 to 20)
#    0.000    1.714    2.857    1.714    8.000    6.286 
#    0.000    0.000    0.000    0.000    7.429    0.000 
#    0.000    0.000    0.000    0.000    0.000    0.000 
#
# Total GULP energy -156470.448291 kJ/mol
# GULP energy per Si atom -5588.230296 kJ/mol
# Density = 2.498701 g / cm^3
# Si number density = 25.044009 Si / 1000 Ang^3
#
#
#
# Elastic Constant Matrix: (Units=GPa)
#
#
# Indices 1 2 3 4 5 6 
#
# 1 75.6730 7.1399 20.2030 0.0000 0.0000 0.0000
# 2 7.1399 100.9483 14.9858 0.0000 0.0000 0.0000
# 3 20.2030 14.9858 112.9528 0.0000 0.0000 0.0000
# 4 0.0000 0.0000 0.0000 40.5417 0.0000 0.0000
# 5 0.0000 0.0000 0.0000 0.0000 13.4269 0.0000
# 6 0.0000 0.0000 0.0000 0.0000 0.0000 24.2520
#
#
#
# Elastic Compliance Matrix: (Units=1/GPa)
#
#
# Indices 1 2 3 4 5 6 
#
# 1 0.013916 -0.000627 -0.002406 0.000000 0.000000 0.000000
# 2 -0.000627 0.010133 -0.001232 0.000000 0.000000 0.000000
# 3 -0.002406 -0.001232 0.009447 0.000000 0.000000 0.000000
# 4 0.000000 0.000000 0.000000 0.024666 0.000000 0.000000
# 5 0.000000 0.000000 0.000000 0.000000 0.074477 0.000000
# 6 0.000000 0.000000 0.000000 0.000000 0.000000 0.041234
#
#
# Mechanical properties :
#
#
# Convention : Reuss Voigt Hill
#
# Bulk Modulus (GPa) = 40.05429 41.58130 40.81779
# Shear Modulus (GPa) = 26.21562 32.12717 29.17139
#
# Velocity S-wave (km/s) = 3.23891 3.58554 3.41663
# Velocity P-wave (km/s) = 5.47866 5.81213 5.64785
#
# Compressibility (1/GPa) = 0.02496612
#
# Stress axis : x y z
#
# Youngs Moduli (GPa) = 71.85845 98.68412 105.85295
#
# Poissons Ratio (x) = 0.06189 0.25467
# Poissons Ratio (y) = 0.04506 0.13044
# Poissons Ratio (z) = 0.17288 0.12160
#
# Static dielectric constant tensor:
#      x y z
#    x 1.994510 0.000000 0.000000 
#    y 0.000000 1.969660 0.000000 
#    z 0.000000 0.000000 2.048350 
# 
# From -- ./inp_files/31304.got.cif
#   From: 2010.05.17/outbox.cif.g08.bks.cpg/sg20_16_cif.got.tgz:31304.got - 2010.06.03 22:52:26.
