data_PCOD9316219
_publ_section_title
;
Structure prediction by ZEFSAII (Michael W. Deem and Ramdas Pophale) SiO2 
 PCOD9316219
Probable space group: C 2 2 21
;
_chemical_formula_sum "Si O2"
_cell_formula_units_Z 56
_cell_length_a 12.589090
_cell_length_b 7.871945
_cell_length_c 21.227174
_cell_angle_alpha 90.000000
_cell_angle_beta 90.000000
_cell_angle_gamma 90.000000
_cell_volume 2103.626191
_symmetry_space_group_name_H-M "C 2 2 21"
_symmetry_group_IT_number 20
_symmetry_cell_setting 'orthorhombic'
loop_
_space_group_symop_operation_xyz
x,y,z
-x,-y,1/2+z
x,-y,-z
-x,y,1/2-z
1/2+x,1/2+y,z
1/2-x,1/2-y,1/2+z
1/2+x,1/2-y,-z
1/2-x,1/2+y,1/2-z
loop_
_atom_site_type_symbol
_atom_site_label
_atom_site_fract_x
_atom_site_fract_y
_atom_site_fract_z
Si Si1 0.500000 0.382608 0.750000
Si Si2 0.654615 0.500000 0.500000
Si Si3 0.652140 0.884139 0.918297
Si Si4 0.393805 0.479265 0.357163
Si Si5 0.824499 0.654813 0.184592
Si Si6 0.153831 0.412427 0.203737
Si Si7 0.373678 0.159604 0.047208
Si Si8 0.379308 0.682422 0.468175
O O1 0.513322 0.514220 0.806872
O O2 0.406474 0.246487 0.736222
O O3 0.729326 0.569328 0.442853
O O4 0.585326 0.659891 0.521592
O O5 0.634975 0.703435 0.884836
O O6 0.622207 0.025263 0.866771
O O7 0.596059 0.836674 0.985277
O O8 0.279152 0.539933 0.332080
O O9 0.433170 0.631460 0.403490
O O10 0.863517 0.569876 0.249038
O O11 0.774602 0.841672 0.196244
O O12 0.897032 0.637964 0.121607
O O13 0.246743 0.201954 0.047166
O O14 0.386159 0.000000 0.000000
O O15 0.378679 0.500000 0.500000
#
# Coordination Sequence:
#
# PCOD9316219 Si02
#       8
#     4   4   8   8   8   8   8   8
#     4  10  24  38  54  82 124 164 198 238 302 380
#     4  10  16  28  52  90 120 144 194 272 302 352
#     4  10  18  30  56  87 117 149 199 259 303 344
#     4   9  18  36  56  83 119 159 195 246 310 362
#     4  10  19  34  53  82 117 158 200 243 292 362
#     4  11  22  37  57  88 124 159 200 245 301 368
#     4   9  16  28  49  81 119 152 192 250 313 348
#     4   7  13  26  50  80 108 138 190 252 296 335
#
# _framework density 26.620702000000001
#
# number of rings (size 3 to 8) (size 9 to 14) (size 15 to 20)
#    0.000    2.571    1.429    3.429    2.000    0.571 
#    0.000    0.000    0.000    1.714    0.000    4.000 
#    0.000    0.000    0.000    0.000    0.000    0.000 
#
# Total GULP energy -156156.888271 kJ/mol
# GULP energy per Si atom -5577.031724 kJ/mol
# Density = 2.656011 g / cm^3
# Si number density = 26.620702 Si / 1000 Ang^3
#
#
#
# Elastic Constant Matrix: (Units=GPa)
#
#
# Indices 1 2 3 4 5 6 
#
# 1 65.0642 25.1295 12.7869 0.0000 0.0000 0.0000
# 2 25.1295 159.1592 28.3456 0.0000 0.0000 0.0000
# 3 12.7869 28.3456 97.8862 0.0000 0.0000 0.0000
# 4 0.0000 0.0000 0.0000 48.3611 0.0000 0.0000
# 5 0.0000 0.0000 0.0000 0.0000 -4.2138 0.0000
# 6 0.0000 0.0000 0.0000 0.0000 0.0000 38.7714
#
#
#
# Elastic Compliance Matrix: (Units=1/GPa)
#
#
# Indices 1 2 3 4 5 6 
#
# 1 0.016569 -0.002352 -0.001483 0.000000 0.000000 0.000000
# 2 -0.002352 0.006959 -0.001708 0.000000 0.000000 0.000000
# 3 -0.001483 -0.001708 0.010904 0.000000 0.000000 0.000000
# 4 0.000000 0.000000 0.000000 0.020678 0.000000 0.000000
# 5 0.000000 0.000000 0.000000 0.000000 -0.237315 0.000000
# 6 0.000000 0.000000 0.000000 0.000000 0.000000 0.025792
#
#
# Mechanical properties :
#
#
# Convention : Reuss Voigt Hill
#
# Bulk Modulus (GPa) = 42.83411 50.51483 46.67447
# Shear Modulus (GPa) = -36.35181 33.64026 -1.35577
#
# Velocity S-wave (km/s) = -3.69934 3.55870 -0.71442
# Velocity P-wave (km/s) = 1.45649 5.99189 4.10983
#
# Compressibility (1/GPa) = 0.02334588
#
# Stress axis : x y z
#
# Youngs Moduli (GPa) = 60.35244 143.70888 91.70732
#
# Poissons Ratio (x) = 0.33799 0.13604
# Poissons Ratio (y) = 0.14194 0.15662
# Poissons Ratio (z) = 0.08953 0.24542
#
# Static dielectric constant tensor:
#      x y z
#    x 2.219070 0.000000 0.000000 
#    y 0.000000 2.075470 0.000000 
#    z 0.000000 0.000000 2.197090 
# 
# From -- ./inp_files/27756.got.cif
#   From: 2010.05.17/outbox.cif.g08.bks.cpg/sg20_14_cif.got.tgz:27756.got - 2010.06.03 22:52:26.
