data_PCOD9316106
_publ_section_title
;
Structure prediction by ZEFSAII (Michael W. Deem and Ramdas Pophale) SiO2 
 PCOD9316106
Probable space group: P 21 21 21
;
_chemical_formula_sum "Si O2"
_cell_formula_units_Z 16
_cell_length_a 8.726646
_cell_length_b 7.422345
_cell_length_c 8.796408
_cell_angle_alpha 90.000000
_cell_angle_beta 90.000000
_cell_angle_gamma 90.000000
_cell_volume 569.762499
_symmetry_space_group_name_H-M "P 21 21 21"
_symmetry_group_IT_number 19
_symmetry_cell_setting 'orthorhombic'
loop_
_space_group_symop_operation_xyz
x,y,z
1/2-x,-y,1/2+z
1/2+x,1/2-y,-z
-x,1/2+y,1/2-z
loop_
_atom_site_type_symbol
_atom_site_label
_atom_site_fract_x
_atom_site_fract_y
_atom_site_fract_z
Si Si1 0.279346 0.466274 0.680092
Si Si2 0.447071 0.074282 0.173065
Si Si3 0.723244 0.639784 0.017020
Si Si4 0.473927 0.816655 0.596067
O O1 0.277360 0.348700 0.525501
O O2 0.362539 0.656126 0.651653
O O3 0.386415 0.348468 0.791536
O O4 0.110923 0.461918 0.751868
O O5 0.326354 0.099293 0.310763
O O6 0.385540 0.927820 0.051279
O O7 0.466451 0.248032 0.066424
O O8 0.608142 0.507617 0.926788
#
# Coordination Sequence:
#
# PCOD9316106 Si02
#       4
#     4   4   4   4
#     4  12  30  54  91 126 179 240 297 380 455 536
#     4  12  30  56  87 129 179 240 298 374 451 543
#     4  12  30  53  84 129 181 230 304 368 446 551
#     4  12  28  55  86 128 177 234 305 362 458 538
#
# _framework density 28.081876999999999
#
# number of rings (size 3 to 8) (size 9 to 14) (size 15 to 20)
#    0.000    0.000    2.500    4.500   17.500    0.000 
#    0.000    2.500    0.000    0.000    0.000    0.000 
#    0.000    0.000    0.000    0.000    0.000    0.000 
#
# Total GULP energy -89927.059440 kJ/mol
# GULP energy per Si atom -5620.441215 kJ/mol
# Density = 2.801796 g / cm^3
# Si number density = 28.081877 Si / 1000 Ang^3
#
#
#
# Elastic Constant Matrix: (Units=GPa)
#
#
# Indices 1 2 3 4 5 6 
#
# 1 165.3069 58.3040 99.4054 0.0000 0.0000 0.0000
# 2 58.3040 153.1896 55.6874 0.0000 0.0000 0.0000
# 3 99.4054 55.6874 182.4601 0.0000 0.0000 0.0000
# 4 0.0000 0.0000 0.0000 70.5507 0.0000 0.0000
# 5 0.0000 0.0000 0.0000 0.0000 66.1967 0.0000
# 6 0.0000 0.0000 0.0000 0.0000 0.0000 29.4060
#
#
#
# Elastic Compliance Matrix: (Units=1/GPa)
#
#
# Indices 1 2 3 4 5 6 
#
# 1 0.009487 -0.001948 -0.004574 0.000000 0.000000 0.000000
# 2 -0.001948 0.007742 -0.001302 0.000000 0.000000 0.000000
# 3 -0.004574 -0.001302 0.008370 0.000000 0.000000 0.000000
# 4 0.000000 0.000000 0.000000 0.014174 0.000000 0.000000
# 5 0.000000 0.000000 0.000000 0.000000 0.015106 0.000000
# 6 0.000000 0.000000 0.000000 0.000000 0.000000 0.034007
#
#
# Mechanical properties :
#
#
# Convention : Reuss Voigt Hill
#
# Bulk Modulus (GPa) = 100.48424 103.08336 101.78380
# Shear Modulus (GPa) = 46.36008 52.40136 49.38072
#
# Velocity S-wave (km/s) = 4.06752 4.32443 4.19794
# Velocity P-wave (km/s) = 7.61051 7.85634 7.73441
#
# Compressibility (1/GPa) = 0.00995181
#
# Stress axis : x y z
#
# Youngs Moduli (GPa) = 105.40809 129.15771 119.47578
#
# Poissons Ratio (x) = 0.25160 0.54648
# Poissons Ratio (y) = 0.20533 0.15553
# Poissons Ratio (z) = 0.48214 0.16813
#
# Static dielectric constant tensor:
#      x y z
#    x 2.201630 0.000000 0.000000 
#    y 0.000000 2.238130 0.000000 
#    z 0.000000 0.000000 2.174620 
# 
# From -- ./inp_files/2550.got.cif
#   From: 2010.05.17/outbox.cif.g08.bks.cpg/sg19_2_cif.got.tgz:2550.got - 2010.06.03 22:46:19.
