data_PCOD9316205
_publ_section_title
;
Structure prediction by ZEFSAII (Michael W. Deem and Ramdas Pophale) SiO2 
 PCOD9316205
Probable space group: C 2 2 21
;
_chemical_formula_sum "Si O2"
_cell_formula_units_Z 48
_cell_length_a 31.799655
_cell_length_b 7.281717
_cell_length_c 8.192148
_cell_angle_alpha 90.000000
_cell_angle_beta 90.000000
_cell_angle_gamma 90.000000
_cell_volume 1896.941747
_symmetry_space_group_name_H-M "C 2 2 21"
_symmetry_group_IT_number 20
_symmetry_cell_setting 'orthorhombic'
loop_
_space_group_symop_operation_xyz
x,y,z
-x,-y,1/2+z
x,-y,-z
-x,y,1/2-z
1/2+x,1/2+y,z
1/2-x,1/2-y,1/2+z
1/2+x,1/2-y,-z
1/2-x,1/2+y,1/2-z
loop_
_atom_site_type_symbol
_atom_site_label
_atom_site_fract_x
_atom_site_fract_y
_atom_site_fract_z
Si Si1 0.085886 0.648176 0.769501
Si Si2 0.257656 0.817346 0.393190
Si Si3 0.085989 0.215754 0.873661
Si Si4 0.818974 0.775620 0.335895
Si Si5 0.000000 0.787171 0.250000
Si Si6 0.027619 0.500000 0.500000
Si Si7 0.673437 0.903598 0.325705
O O1 0.086899 0.429541 0.814914
O O2 0.053623 0.632060 0.621370
O O3 0.130918 0.706600 0.696537
O O4 0.078588 0.766351 0.931682
O O5 0.210186 0.802114 0.324250
O O6 0.289551 0.695733 0.505327
O O7 0.255493 0.000000 0.500000
O O8 0.283173 0.808914 0.220262
O O9 0.133787 0.143340 0.842676
O O10 0.046161 0.124027 0.778230
O O11 0.827783 0.557700 0.315954
O O12 0.998379 0.646448 0.099920
O O13 0.673457 0.000000 0.500000
#
# Coordination Sequence:
#
# PCOD9316205 Si02
#       7
#     8   8   8   8   4   4   8
#     4   9  15  25  41  60  87 124 164 196 236 286
#     4  10  20  33  50  72 101 131 169 208 249 300
#     4   9  17  28  41  59  90 124 160 203 244 286
#     4  10  19  32  47  67  96 129 162 206 251 293
#     4  10  18  26  38  60  88 126 166 200 240 288
#     4  10  16  24  38  58  88 126 166 202 232 286
#     4  10  17  28  46  69  94 128 166 199 243 298
#
# _framework density 25.303885999999999
#
# number of rings (size 3 to 8) (size 9 to 14) (size 15 to 20)
#    0.000    2.333    2.500    3.000    0.000    0.000 
#    0.000    0.000    0.000    0.000    0.000    0.000 
#    0.000    6.667    0.000    0.083    0.000    0.000 
#
# Total GULP energy -133657.144918 kJ/mol
# GULP energy per Si atom -5569.047705 kJ/mol
# Density = 2.524629 g / cm^3
# Si number density = 25.303886 Si / 1000 Ang^3
#
#
#
# Elastic Constant Matrix: (Units=GPa)
#
#
# Indices 1 2 3 4 5 6 
#
# 1 241.8206 17.5080 77.0683 0.0000 0.0000 0.0000
# 2 17.5080 38.3836 5.8537 0.0000 0.0000 0.0000
# 3 77.0683 5.8537 124.8950 0.0000 0.0000 0.0000
# 4 0.0000 0.0000 0.0000 17.7340 0.0000 0.0000
# 5 0.0000 0.0000 0.0000 0.0000 35.3616 0.0000
# 6 0.0000 0.0000 0.0000 0.0000 0.0000 5.5208
#
#
#
# Elastic Compliance Matrix: (Units=1/GPa)
#
#
# Indices 1 2 3 4 5 6 
#
# 1 0.005285 -0.001927 -0.003171 0.000000 0.000000 0.000000
# 2 -0.001927 0.026943 -0.000074 0.000000 0.000000 0.000000
# 3 -0.003171 -0.000074 0.009967 0.000000 0.000000 0.000000
# 4 0.000000 0.000000 0.000000 0.056389 0.000000 0.000000
# 5 0.000000 0.000000 0.000000 0.000000 0.028279 0.000000
# 6 0.000000 0.000000 0.000000 0.000000 0.000000 0.181133
#
#
# Mechanical properties :
#
#
# Convention : Reuss Voigt Hill
#
# Bulk Modulus (GPa) = 31.39557 67.32879 49.36218
# Shear Modulus (GPa) = 15.19950 32.03456 23.61703
#
# Velocity S-wave (km/s) = 2.45353 3.56194 3.05837
# Velocity P-wave (km/s) = 4.52336 6.60170 5.65876
#
# Compressibility (1/GPa) = 0.03185162
#
# Stress axis : x y z
#
# Youngs Moduli (GPa) = 189.19760 37.11529 100.33129
#
# Poissons Ratio (x) = 0.07153 0.31817
# Poissons Ratio (y) = 0.36463 0.00738
# Poissons Ratio (z) = 0.59997 0.00273
#
# Static dielectric constant tensor:
#      x y z
#    x 2.157250 0.000000 0.000000 
#    y 0.000000 2.144820 0.000000 
#    z 0.000000 0.000000 2.014300 
# 
# From -- ./inp_files/11057.got.cif
#   From: 2010.05.17/outbox.cif.g08.bks.cpg/sg20_6_cif.got.tgz:11057.got - 2010.06.03 22:52:26.
