data_PCOD9316929
_publ_section_title
;
Structure prediction by ZEFSAII (Michael W. Deem and Ramdas Pophale) SiO2 
 PCOD9316929
Probable space group: C 2 2 21
;
_chemical_formula_sum "Si O2"
_cell_formula_units_Z 40
_cell_length_a 22.390201
_cell_length_b 13.496889
_cell_length_c 5.091287
_cell_angle_alpha 90.000000
_cell_angle_beta 90.000000
_cell_angle_gamma 90.000000
_cell_volume 1538.577042
_symmetry_space_group_name_H-M "C 2 2 21"
_symmetry_group_IT_number 20
_symmetry_cell_setting 'orthorhombic'
loop_
_space_group_symop_operation_xyz
x,y,z
-x,-y,1/2+z
x,-y,-z
-x,y,1/2-z
1/2+x,1/2+y,z
1/2-x,1/2-y,1/2+z
1/2+x,1/2-y,-z
1/2-x,1/2+y,1/2-z
loop_
_atom_site_type_symbol
_atom_site_label
_atom_site_fract_x
_atom_site_fract_y
_atom_site_fract_z
Si Si1 0.632701 0.635137 0.864143
Si Si2 0.500000 0.360125 0.250000
Si Si3 0.000000 0.271532 0.250000
Si Si4 0.206810 0.870271 0.615568
Si Si5 0.181230 0.329022 0.622193
Si Si6 0.909804 0.560262 0.764078
O O1 0.565414 0.595350 0.820317
O O2 0.679593 0.589242 0.655051
O O3 0.639151 0.753233 0.789673
O O4 0.657842 0.620872 0.154630
O O5 0.515081 0.295716 0.504474
O O6 0.053292 0.344054 0.182696
O O7 0.215158 0.751804 0.556999
O O8 0.272550 0.894955 0.714028
O O9 0.145313 0.397292 0.426222
O O10 0.897774 0.500000 0.500000
O O11 0.943812 0.500000 0.000000
#
# Coordination Sequence:
#
# PCOD9316929 Si02
#       6
#     8   4   4   8   8   8
#     4  10  19  31  49  79  94 126 169 217 285 315
#     4  12  20  33  56  72 104 136 170 237 262 322
#     4  12  22  39  50  64 100 148 196 221 260 294
#     4  10  19  32  56  73  91 125 176 231 267 333
#     4  10  20  35  53  72  97 127 184 226 278 316
#     4  12  26  36  50  71 103 143 186 233 266 308
#
# _framework density 25.998045999999999
#
# number of rings (size 3 to 8) (size 9 to 14) (size 15 to 20)
#    1.200    0.000    4.000    4.200    2.800    0.000 
#    0.000    0.000    0.000    0.000    0.000    0.000 
#    0.000    0.000    0.000    5.400    0.000   14.000 
#
# Total GULP energy -111861.778247 kJ/mol
# GULP energy per Si atom -5593.088912 kJ/mol
# Density = 2.593887 g / cm^3
# Si number density = 25.998046 Si / 1000 Ang^3
#
#
#
# Elastic Constant Matrix: (Units=GPa)
#
#
# Indices 1 2 3 4 5 6 
#
# 1 140.8454 16.9134 32.3980 0.0000 0.0000 0.0000
# 2 16.9134 63.6501 41.6425 0.0000 0.0000 0.0000
# 3 32.3980 41.6425 159.7342 0.0000 0.0000 0.0000
# 4 0.0000 0.0000 0.0000 48.9114 0.0000 0.0000
# 5 0.0000 0.0000 0.0000 0.0000 45.7999 0.0000
# 6 0.0000 0.0000 0.0000 0.0000 0.0000 -2.2796
#
#
#
# Elastic Compliance Matrix: (Units=1/GPa)
#
#
# Indices 1 2 3 4 5 6 
#
# 1 0.007524 -0.001207 -0.001211 0.000000 0.000000 0.000000
# 2 -0.001207 0.019135 -0.004744 0.000000 0.000000 0.000000
# 3 -0.001211 -0.004744 0.007743 0.000000 0.000000 0.000000
# 4 0.000000 0.000000 0.000000 0.020445 0.000000 0.000000
# 5 0.000000 0.000000 0.000000 0.000000 0.021834 0.000000
# 6 0.000000 0.000000 0.000000 0.000000 0.000000 -0.438665
#
#
# Mechanical properties :
#
#
# Convention : Reuss Voigt Hill
#
# Bulk Modulus (GPa) = 49.80617 60.68195 55.24406
# Shear Modulus (GPa) = -14.66413 36.70473 11.02030
#
# Velocity S-wave (km/s) = -2.37754 3.76150 2.06109
# Velocity P-wave (km/s) = 3.41501 6.50053 5.19226
#
# Compressibility (1/GPa) = 0.02007783
#
# Stress axis : x y z
#
# Youngs Moduli (GPa) = 132.91628 52.25995 129.15235
#
# Poissons Ratio (x) = 0.06306 0.15645
# Poissons Ratio (y) = 0.16038 0.61267
# Poissons Ratio (z) = 0.16101 0.24791
#
# Static dielectric constant tensor:
#      x y z
#    x 2.127470 0.000000 0.000000 
#    y 0.000000 2.156990 0.000000 
#    z 0.000000 0.000000 2.062820 
# 
# From -- ./inp_files/3134.got.cif
#   From: 2010.05.17/outbox.cif.g08.bks.cpg/sg20_2_cif.got.tgz:3134.got - 2010.06.03 22:52:26.
