data_PCOD9316089
_publ_section_title
;
Structure prediction by ZEFSAII (Michael W. Deem and Ramdas Pophale) SiO2 
 PCOD9316089
Probable space group: P 21 21 21
;
_chemical_formula_sum "Si O2"
_cell_formula_units_Z 16
_cell_length_a 5.137618
_cell_length_b 5.106799
_cell_length_c 23.941843
_cell_angle_alpha 90.000000
_cell_angle_beta 90.000000
_cell_angle_gamma 90.000000
_cell_volume 628.156927
_symmetry_space_group_name_H-M "P 21 21 21"
_symmetry_group_IT_number 19
_symmetry_cell_setting 'orthorhombic'
loop_
_space_group_symop_operation_xyz
x,y,z
1/2-x,-y,1/2+z
1/2+x,1/2-y,-z
-x,1/2+y,1/2-z
loop_
_atom_site_type_symbol
_atom_site_label
_atom_site_fract_x
_atom_site_fract_y
_atom_site_fract_z
Si Si1 0.203329 0.234968 0.036062
Si Si2 0.915161 0.240250 0.391744
Si Si3 0.247503 0.616889 0.696528
Si Si4 0.768108 0.956931 0.678163
O O1 0.096628 0.475364 0.073037
O O2 0.205626 0.969311 0.071477
O O3 0.487828 0.298021 0.012426
O O4 0.195329 0.346353 0.371533
O O5 0.776760 0.163825 0.333223
O O6 0.515467 0.771327 0.686608
O O7 0.198301 0.599044 0.762374
O O8 0.011676 0.771379 0.668716
#
# Coordination Sequence:
#
# PCOD9316089 Si02
#       4
#     4   4   4   4
#     4  12  30  53  80 114 154 205 278 344 394 466
#     4  12  28  53  84 114 160 215 264 328 416 468
#     4  12  27  47  77 121 167 213 261 321 396 494
#     4  12  27  47  77 121 167 213 261 321 396 494
#
# _framework density 25.471340000000001
#
# number of rings (size 3 to 8) (size 9 to 14) (size 15 to 20)
#    0.000    0.000    5.000    3.000    3.500    4.000 
#    0.000    0.000    0.000    0.000    0.000    0.000 
#    0.000    0.000    0.000    0.000    0.000    0.000 
#
# Total GULP energy -89853.538436 kJ/mol
# GULP energy per Si atom -5615.846152 kJ/mol
# Density = 2.541337 g / cm^3
# Si number density = 25.471340 Si / 1000 Ang^3
#
#
#
# Elastic Constant Matrix: (Units=GPa)
#
#
# Indices 1 2 3 4 5 6 
#
# 1 129.4249 25.3370 -6.9073 0.0000 0.0000 0.0000
# 2 25.3370 146.7389 28.3276 0.0000 0.0000 0.0000
# 3 -6.9073 28.3276 71.1792 0.0000 0.0000 0.0000
# 4 0.0000 0.0000 0.0000 61.8702 0.0000 0.0000
# 5 0.0000 0.0000 0.0000 0.0000 38.8950 0.0000
# 6 0.0000 0.0000 0.0000 0.0000 0.0000 46.5763
#
#
#
# Elastic Compliance Matrix: (Units=1/GPa)
#
#
# Indices 1 2 3 4 5 6 
#
# 1 0.008135 -0.001687 0.001461 0.000000 0.000000 0.000000
# 2 -0.001687 0.007732 -0.003241 0.000000 0.000000 0.000000
# 3 0.001461 -0.003241 0.015481 0.000000 0.000000 0.000000
# 4 0.000000 0.000000 0.000000 0.016163 0.000000 0.000000
# 5 0.000000 0.000000 0.000000 0.000000 0.025710 0.000000
# 6 0.000000 0.000000 0.000000 0.000000 0.000000 0.021470
#
#
# Mechanical properties :
#
#
# Convention : Reuss Voigt Hill
#
# Bulk Modulus (GPa) = 40.96094 48.98417 44.97256
# Shear Modulus (GPa) = 45.55349 49.50735 47.53042
#
# Velocity S-wave (km/s) = 4.23356 4.41347 4.32445
# Velocity P-wave (km/s) = 6.32562 6.72640 6.52909
#
# Compressibility (1/GPa) = 0.02441350
#
# Stress axis : x y z
#
# Youngs Moduli (GPa) = 122.93157 129.33862 64.59739
#
# Poissons Ratio (x) = 0.21814 -0.09435
# Poissons Ratio (y) = 0.20733 0.20934
# Poissons Ratio (z) = -0.17955 0.41914
#
# Static dielectric constant tensor:
#      x y z
#    x 1.980620 0.000000 0.000000 
#    y 0.000000 1.987800 0.000000 
#    z 0.000000 0.000000 2.026210 
# 
# From -- ./inp_files/6862.got.cif
#   From: 2010.05.17/outbox.cif.g08.bks.cpg/sg19_4_cif.got.tgz:6862.got - 2010.06.03 22:46:19.
