data_PCOD9316079
_publ_section_title
;
Structure prediction by ZEFSAII (Michael W. Deem and Ramdas Pophale) SiO2 
 PCOD9316079
Probable space group: P 21 21 21
;
_chemical_formula_sum "Si O2"
_cell_formula_units_Z 16
_cell_length_a 18.247022
_cell_length_b 4.766870
_cell_length_c 6.709308
_cell_angle_alpha 90.000000
_cell_angle_beta 90.000000
_cell_angle_gamma 90.000000
_cell_volume 583.583539
_symmetry_space_group_name_H-M "P 21 21 21"
_symmetry_group_IT_number 19
_symmetry_cell_setting 'orthorhombic'
loop_
_space_group_symop_operation_xyz
x,y,z
1/2-x,-y,1/2+z
1/2+x,1/2-y,-z
-x,1/2+y,1/2-z
loop_
_atom_site_type_symbol
_atom_site_label
_atom_site_fract_x
_atom_site_fract_y
_atom_site_fract_z
Si Si1 0.700502 0.627070 0.551507
Si Si2 0.502178 0.429135 0.896898
Si Si3 0.849024 0.305100 0.498897
Si Si4 0.137069 0.400872 0.656212
O O1 0.778244 0.476632 0.576913
O O2 0.666426 0.706191 0.763453
O O3 0.649299 0.410118 0.429165
O O4 0.861203 0.017816 0.619111
O O5 0.507456 0.123137 0.800345
O O6 0.575301 0.523225 0.010935
O O7 0.435280 0.480847 0.047024
O O8 0.704663 0.918222 0.435223
#
# Coordination Sequence:
#
# PCOD9316079 Si02
#       4
#     4   4   4   4
#     4  12  28  50  80 123 157 215 277 336 409 498
#     4  12  26  50  80 117 165 214 273 340 408 497
#     4  12  28  52  85 116 170 215 273 347 414 489
#     4  12  28  50  81 118 160 216 275 333 417 488
#
# _framework density 27.416810999999999
#
# number of rings (size 3 to 8) (size 9 to 14) (size 15 to 20)
#    0.000    0.000    7.500    0.000    3.500   10.000 
#    0.000    0.000    0.000    0.000    0.000    0.000 
#    0.000    0.000    0.000    0.000    0.000    0.000 
#
# Total GULP energy -89794.747549 kJ/mol
# GULP energy per Si atom -5612.171722 kJ/mol
# Density = 2.735441 g / cm^3
# Si number density = 27.416811 Si / 1000 Ang^3
#
#
#
# Elastic Constant Matrix: (Units=GPa)
#
#
# Indices 1 2 3 4 5 6 
#
# 1 157.8837 28.8949 56.1616 0.0000 0.0000 0.0000
# 2 28.8949 146.0878 51.4741 0.0000 0.0000 0.0000
# 3 56.1616 51.4741 172.6717 0.0000 0.0000 0.0000
# 4 0.0000 0.0000 0.0000 51.9429 0.0000 0.0000
# 5 0.0000 0.0000 0.0000 0.0000 63.2200 0.0000
# 6 0.0000 0.0000 0.0000 0.0000 0.0000 40.5406
#
#
#
# Elastic Compliance Matrix: (Units=1/GPa)
#
#
# Indices 1 2 3 4 5 6 
#
# 1 0.007221 -0.000671 -0.002149 0.000000 0.000000 0.000000
# 2 -0.000671 0.007711 -0.002080 0.000000 0.000000 0.000000
# 3 -0.002149 -0.002080 0.007110 0.000000 0.000000 0.000000
# 4 0.000000 0.000000 0.000000 0.019252 0.000000 0.000000
# 5 0.000000 0.000000 0.000000 0.000000 0.015818 0.000000
# 6 0.000000 0.000000 0.000000 0.000000 0.000000 0.024667
#
#
# Mechanical properties :
#
#
# Convention : Reuss Voigt Hill
#
# Bulk Modulus (GPa) = 81.68591 83.30048 82.49320
# Shear Modulus (GPa) = 52.26884 53.81487 53.04186
#
# Velocity S-wave (km/s) = 4.37103 4.43520 4.40323
# Velocity P-wave (km/s) = 7.43864 7.52841 7.48366
#
# Compressibility (1/GPa) = 0.01224201
#
# Stress axis : x y z
#
# Youngs Moduli (GPa) = 138.48751 129.68537 140.64102
#
# Poissons Ratio (x) = 0.08704 0.30217
# Poissons Ratio (y) = 0.09295 0.29258
# Poissons Ratio (z) = 0.29754 0.26979
#
# Static dielectric constant tensor:
#      x y z
#    x 2.165800 0.000000 0.000000 
#    y 0.000000 2.083100 0.000000 
#    z 0.000000 0.000000 2.178610 
# 
# From -- ./inp_files/435.got.cif
#   From: 2010.05.17/outbox.cif.g08.bks.cpg/sg19_1_cif.got.tgz:435.got - 2010.06.03 22:46:19.
