data_PCOD9316255
_publ_section_title
;
Structure prediction by ZEFSAII (Michael W. Deem and Ramdas Pophale) SiO2 
 PCOD9316255
Probable space group: C 2 2 21
;
_chemical_formula_sum "Si O2"
_cell_formula_units_Z 56
_cell_length_a 8.392612
_cell_length_b 21.142430
_cell_length_c 14.838884
_cell_angle_alpha 90.000000
_cell_angle_beta 90.000000
_cell_angle_gamma 90.000000
_cell_volume 2633.014719
_symmetry_space_group_name_H-M "C 2 2 21"
_symmetry_group_IT_number 20
_symmetry_cell_setting 'orthorhombic'
loop_
_space_group_symop_operation_xyz
x,y,z
-x,-y,1/2+z
x,-y,-z
-x,y,1/2-z
1/2+x,1/2+y,z
1/2-x,1/2-y,1/2+z
1/2+x,1/2-y,-z
1/2-x,1/2+y,1/2-z
loop_
_atom_site_type_symbol
_atom_site_label
_atom_site_fract_x
_atom_site_fract_y
_atom_site_fract_z
Si Si1 0.611763 0.284399 0.871950
Si Si2 0.885915 0.083705 0.427906
Si Si3 0.253038 0.276455 0.956327
Si Si4 0.381098 0.898500 0.447133
Si Si5 0.642793 0.500000 0.500000
Si Si6 0.864284 0.500000 0.000000
Si Si7 0.739038 0.831169 0.210882
Si Si8 0.086533 0.839212 0.117598
O O1 0.432327 0.276186 0.915167
O O2 0.668674 0.240316 0.789803
O O3 0.626963 0.359260 0.858267
O O4 0.737421 0.261692 0.949089
O O5 0.748460 0.031589 0.425331
O O6 0.893566 0.119673 0.526701
O O7 0.042496 0.041575 0.430347
O O8 0.136309 0.233862 0.896800
O O9 0.178053 0.344809 0.981606
O O10 0.390654 0.865804 0.350620
O O11 0.246363 0.951410 0.444333
O O12 0.533458 0.939486 0.471400
O O13 0.787304 0.859550 0.306339
O O14 0.906614 0.838220 0.155137
#
# Coordination Sequence:
#
# PCOD9316255 Si02
#       8
#     8   8   8   8   4   4   8   8
#     4  10  19  32  55  81 106 137 176 225 271 315
#     4  10  19  35  54  84 105 144 183 234 259 322
#     4  10  19  32  55  81 106 137 176 225 271 315
#     4  10  19  35  54  84 105 144 183 234 259 322
#     4  10  16  34  56  74 104 138 190 222 266 310
#     4  10  24  30  56  82 108 138 186 226 274 302
#     4  10  21  36  57  82 112 143 175 227 287 332
#     4  10  21  36  57  82 112 143 175 227 287 332
#
# _framework density 21.268395999999999
#
# number of rings (size 3 to 8) (size 9 to 14) (size 15 to 20)
#    0.000    2.000    2.857    2.571   10.000    0.571 
#    0.000    0.000    0.000   10.286    0.000    0.000 
#    0.000    0.000    0.000    0.000    0.000    0.000 
#
# Total GULP energy -155958.626877 kJ/mol
# GULP energy per Si atom -5569.950960 kJ/mol
# Density = 2.121999 g / cm^3
# Si number density = 21.268396 Si / 1000 Ang^3
#
#
#
# Elastic Constant Matrix: (Units=GPa)
#
#
# Indices 1 2 3 4 5 6 
#
# 1 75.5675 13.4815 -1.5459 0.0000 0.0000 0.0000
# 2 13.4815 103.1168 -6.5675 0.0000 0.0000 0.0000
# 3 -1.5459 -6.5675 34.9987 0.0000 0.0000 0.0000
# 4 0.0000 0.0000 0.0000 5.2135 0.0000 0.0000
# 5 0.0000 0.0000 0.0000 0.0000 8.6105 0.0000
# 6 0.0000 0.0000 0.0000 0.0000 0.0000 29.4322
#
#
#
# Elastic Compliance Matrix: (Units=1/GPa)
#
#
# Indices 1 2 3 4 5 6 
#
# 1 0.013552 -0.001755 0.000269 0.000000 0.000000 0.000000
# 2 -0.001755 0.010042 0.001807 0.000000 0.000000 0.000000
# 3 0.000269 0.001807 0.028923 0.000000 0.000000 0.000000
# 4 0.000000 0.000000 0.000000 0.191811 0.000000 0.000000
# 5 0.000000 0.000000 0.000000 0.000000 0.116137 0.000000
# 6 0.000000 0.000000 0.000000 0.000000 0.000000 0.033976
#
#
# Mechanical properties :
#
#
# Convention : Reuss Voigt Hill
#
# Bulk Modulus (GPa) = 18.81087 24.93546 21.87317
# Shear Modulus (GPa) = 12.15009 22.53889 17.34449
#
# Velocity S-wave (km/s) = 2.39273 3.25889 2.85880
# Velocity P-wave (km/s) = 4.06168 5.09020 4.60475
#
# Compressibility (1/GPa) = 0.05316075
#
# Stress axis : x y z
#
# Youngs Moduli (GPa) = 73.79128 99.57959 34.57398
#
# Poissons Ratio (x) = 0.17472 -0.00931
# Poissons Ratio (y) = 0.12947 -0.06247
# Poissons Ratio (z) = -0.01988 -0.17993
#
# Static dielectric constant tensor:
#      x y z
#    x 1.826140 0.000000 0.000000 
#    y 0.000000 1.839800 0.000000 
#    z 0.000000 0.000000 1.891740 
# 
# From -- ./inp_files/23883.got.cif
#   From: 2010.05.17/outbox.cif.g08.bks.cpg/sg20_12_cif.got.tgz:23883.got - 2010.06.03 22:52:26.
