data_PCOD9316586
_publ_section_title
;
Structure prediction by ZEFSAII (Michael W. Deem and Ramdas Pophale) SiO2 
 PCOD9316586
Probable space group: C 2 2 21
;
_chemical_formula_sum "Si O2"
_cell_formula_units_Z 56
_cell_length_a 21.264233
_cell_length_b 8.609944
_cell_length_c 14.490371
_cell_angle_alpha 90.000000
_cell_angle_beta 90.000000
_cell_angle_gamma 90.000000
_cell_volume 2652.952988
_symmetry_space_group_name_H-M "C 2 2 21"
_symmetry_group_IT_number 20
_symmetry_cell_setting 'orthorhombic'
loop_
_space_group_symop_operation_xyz
x,y,z
-x,-y,1/2+z
x,-y,-z
-x,y,1/2-z
1/2+x,1/2+y,z
1/2-x,1/2-y,1/2+z
1/2+x,1/2-y,-z
1/2-x,1/2+y,1/2-z
loop_
_atom_site_type_symbol
_atom_site_label
_atom_site_fract_x
_atom_site_fract_y
_atom_site_fract_z
Si Si1 0.332341 0.443336 0.863357
Si Si2 0.284930 0.952926 0.269147
Si Si3 0.000000 0.667931 0.750000
Si Si4 0.713944 0.372791 0.879492
Si Si5 0.667002 0.765202 0.524270
Si Si6 0.586132 0.571751 0.176493
Si Si7 0.500000 0.327968 0.250000
Si Si8 0.091949 0.570730 0.325395
O O1 0.258047 0.450487 0.840476
O O2 0.342033 0.602896 0.919625
O O3 0.375060 0.450569 0.772617
O O4 0.346671 0.287835 0.920669
O O5 0.245866 0.983168 0.174841
O O6 0.352455 0.024465 0.245897
O O7 0.287185 0.778772 0.309849
O O8 0.953563 0.773155 0.690101
O O9 0.958855 0.564536 0.818909
O O10 0.761320 0.321824 0.959831
O O11 0.641518 0.412638 0.897754
O O12 0.623868 0.887855 0.577669
O O13 0.534653 0.435999 0.174481
O O14 0.553878 0.220983 0.292208
#
# Coordination Sequence:
#
# PCOD9316586 Si02
#       8
#     8   8   4   8   8   8   4   8
#     4   9  17  31  53  76 101 131 165 210 264 313
#     4   9  17  29  50  74  97 124 161 209 255 295
#     4  10  20  30  52  70 104 130 170 222 250 290
#     4   9  17  29  50  74  97 124 161 209 255 295
#     4   9  17  31  53  76 101 131 165 210 264 313
#     4  10  18  33  50  77 101 132 178 216 249 294
#     4  10  20  30  52  74  92 138 178 210 246 298
#     4  10  18  33  50  77 101 132 178 216 249 294
#
# _framework density 21.108554000000002
#
# number of rings (size 3 to 8) (size 9 to 14) (size 15 to 20)
#    0.000    2.571    2.857    0.000    2.000    0.000 
#    0.000    0.714    0.000   10.286    0.000    0.000 
#    0.000    0.000    0.000    0.000    0.000    0.000 
#
# Total GULP energy -156160.017557 kJ/mol
# GULP energy per Si atom -5577.143484 kJ/mol
# Density = 2.106051 g / cm^3
# Si number density = 21.108554 Si / 1000 Ang^3
#
#
#
# Elastic Constant Matrix: (Units=GPa)
#
#
# Indices 1 2 3 4 5 6 
#
# 1 130.8472 50.6481 11.3131 0.0000 0.0000 0.0000
# 2 50.6481 100.6698 21.0425 0.0000 0.0000 0.0000
# 3 11.3131 21.0425 45.2311 0.0000 0.0000 0.0000
# 4 0.0000 0.0000 0.0000 25.6479 0.0000 0.0000
# 5 0.0000 0.0000 0.0000 0.0000 5.7936 0.0000
# 6 0.0000 0.0000 0.0000 0.0000 0.0000 34.0251
#
#
#
# Elastic Compliance Matrix: (Units=1/GPa)
#
#
# Indices 1 2 3 4 5 6 
#
# 1 0.009492 -0.004740 -0.000169 0.000000 0.000000 0.000000
# 2 -0.004740 0.013371 -0.005035 0.000000 0.000000 0.000000
# 3 -0.000169 -0.005035 0.024493 0.000000 0.000000 0.000000
# 4 0.000000 0.000000 0.000000 0.038990 0.000000 0.000000
# 5 0.000000 0.000000 0.000000 0.000000 0.172604 0.000000
# 6 0.000000 0.000000 0.000000 0.000000 0.000000 0.029390
#
#
# Mechanical properties :
#
#
# Convention : Reuss Voigt Hill
#
# Bulk Modulus (GPa) = 36.40571 49.19507 42.80039
# Shear Modulus (GPa) = 15.75383 26.00961 20.88172
#
# Velocity S-wave (km/s) = 2.73486 3.51406 3.14865
# Velocity P-wave (km/s) = 5.22082 6.31040 5.79129
#
# Compressibility (1/GPa) = 0.02746821
#
# Stress axis : x y z
#
# Youngs Moduli (GPa) = 105.35262 74.79046 40.82775
#
# Poissons Ratio (x) = 0.35452 0.00689
# Poissons Ratio (y) = 0.49939 0.20556
# Poissons Ratio (z) = 0.01779 0.37655
#
# Static dielectric constant tensor:
#      x y z
#    x 1.779370 0.000000 0.000000 
#    y 0.000000 1.798250 0.000000 
#    z 0.000000 0.000000 1.809650 
# 
# From -- ./inp_files/23865.got.cif
#   From: 2010.05.17/outbox.cif.g08.bks.cpg/sg20_12_cif.got.tgz:23865.got - 2010.06.03 22:52:26.
