data_PCOD9316241
_publ_section_title
;
Structure prediction by ZEFSAII (Michael W. Deem and Ramdas Pophale) SiO2 
 PCOD9316241
Probable space group: C 2 2 21
;
_chemical_formula_sum "Si O2"
_cell_formula_units_Z 48
_cell_length_a 18.088225
_cell_length_b 13.661386
_cell_length_c 8.087835
_cell_angle_alpha 90.000000
_cell_angle_beta 90.000000
_cell_angle_gamma 90.000000
_cell_volume 1998.586717
_symmetry_space_group_name_H-M "C 2 2 21"
_symmetry_group_IT_number 20
_symmetry_cell_setting 'orthorhombic'
loop_
_space_group_symop_operation_xyz
x,y,z
-x,-y,1/2+z
x,-y,-z
-x,y,1/2-z
1/2+x,1/2+y,z
1/2-x,1/2-y,1/2+z
1/2+x,1/2-y,-z
1/2-x,1/2+y,1/2-z
loop_
_atom_site_type_symbol
_atom_site_label
_atom_site_fract_x
_atom_site_fract_y
_atom_site_fract_z
Si Si1 0.118024 0.605496 0.932037
Si Si2 0.915057 0.847552 0.783738
Si Si3 0.936838 0.878473 0.137293
Si Si4 0.157855 0.822592 0.051235
Si Si5 0.671545 0.157689 0.590780
Si Si6 0.471007 0.849176 0.921990
O O1 0.157560 0.600239 0.757053
O O2 0.134934 0.500000 0.000000
O O3 0.143125 0.705305 0.027927
O O4 0.028952 0.619103 0.938795
O O5 0.883423 0.875504 0.603178
O O6 0.859433 0.762917 0.846489
O O7 0.000000 0.817833 0.750000
O O8 0.917841 0.911469 0.950403
O O9 0.871261 0.858797 0.269630
O O10 0.970065 0.769166 0.096176
O O11 0.000000 0.930198 0.250000
O O12 0.244872 0.839449 0.036070
O O13 0.612799 0.122618 0.456328
O O14 0.500000 0.890599 0.750000
#
# Coordination Sequence:
#
# PCOD9316241 Si02
#       6
#     8   8   8   8   8   8
#     4  11  23  39  60  87 126 173 219 256 323 394
#     4  10  19  31  53  80 115 149 198 263 309 374
#     4  10  16  32  53  78 112 158 205 257 306 375
#     4  11  21  36  55  84 121 168 211 267 316 373
#     4  10  22  35  56  84 120 165 218 264 316 375
#     4  10  19  35  56  80 119 160 214 257 303 386
#
# _framework density 24.016973
#
# number of rings (size 3 to 8) (size 9 to 14) (size 15 to 20)
#    0.000    1.667    5.000    3.500    9.333    1.333 
#    0.000    0.000    0.000    0.000    0.000    0.000 
#    0.000   24.000    0.000    0.167    0.000    0.000 
#
# Total GULP energy -133902.642153 kJ/mol
# GULP energy per Si atom -5579.276756 kJ/mol
# Density = 2.396231 g / cm^3
# Si number density = 24.016973 Si / 1000 Ang^3
#
#
#
# Elastic Constant Matrix: (Units=GPa)
#
#
# Indices 1 2 3 4 5 6 
#
# 1 204.4028 5.2305 76.2120 0.0000 0.0000 0.0000
# 2 5.2305 61.2525 28.7320 0.0000 0.0000 0.0000
# 3 76.2120 28.7320 165.1517 0.0000 0.0000 0.0000
# 4 0.0000 0.0000 0.0000 0.7960 0.0000 0.0000
# 5 0.0000 0.0000 0.0000 0.0000 -5.0381 0.0000
# 6 0.0000 0.0000 0.0000 0.0000 0.0000 -27.4873
#
#
#
# Elastic Compliance Matrix: (Units=1/GPa)
#
#
# Indices 1 2 3 4 5 6 
#
# 1 0.005949 0.000849 -0.002893 0.000000 0.000000 0.000000
# 2 0.000849 0.017898 -0.003506 0.000000 0.000000 0.000000
# 3 -0.002893 -0.003506 0.008000 0.000000 0.000000 0.000000
# 4 0.000000 0.000000 0.000000 1.256305 0.000000 0.000000
# 5 0.000000 0.000000 0.000000 0.000000 -0.198486 0.000000
# 6 0.000000 0.000000 0.000000 0.000000 0.000000 -0.036380
#
#
# Mechanical properties :
#
#
# Convention : Reuss Voigt Hill
#
# Bulk Modulus (GPa) = 48.19789 72.35067 60.27428
# Shear Modulus (GPa) = 4.66723 15.02961 9.84842
#
# Velocity S-wave (km/s) = 1.39554 2.50430 2.02719
# Velocity P-wave (km/s) = 4.76535 6.20904 5.53447
#
# Compressibility (1/GPa) = 0.02074780
#
# Stress axis : x y z
#
# Youngs Moduli (GPa) = 168.08770 55.87309 125.00031
#
# Poissons Ratio (x) = -0.04744 0.36164
# Poissons Ratio (y) = -0.14272 0.43819
# Poissons Ratio (z) = 0.48630 0.19586
#
# Static dielectric constant tensor:
#      x y z
#    x 1.901450 0.000000 0.000000 
#    y 0.000000 2.011070 0.000000 
#    z 0.000000 0.000000 2.048880 
# 
# From -- ./inp_files/9349.got.cif
#   From: 2010.05.17/outbox.cif.g08.bks.cpg/sg20_5_cif.got.tgz:9349.got - 2010.06.03 22:52:26.
