data_PCOD9316558
_publ_section_title
;
Structure prediction by ZEFSAII (Michael W. Deem and Ramdas Pophale) SiO2 
 PCOD9316558
Probable space group: C 2 2 21
;
_chemical_formula_sum "Si O2"
_cell_formula_units_Z 52
_cell_length_a 14.811217
_cell_length_b 20.759433
_cell_length_c 9.498537
_cell_angle_alpha 90.000000
_cell_angle_beta 90.000000
_cell_angle_gamma 90.000000
_cell_volume 2920.538604
_symmetry_space_group_name_H-M "C 2 2 21"
_symmetry_group_IT_number 20
_symmetry_cell_setting 'orthorhombic'
loop_
_space_group_symop_operation_xyz
x,y,z
-x,-y,1/2+z
x,-y,-z
-x,y,1/2-z
1/2+x,1/2+y,z
1/2-x,1/2-y,1/2+z
1/2+x,1/2-y,-z
1/2-x,1/2+y,1/2-z
loop_
_atom_site_type_symbol
_atom_site_label
_atom_site_fract_x
_atom_site_fract_y
_atom_site_fract_z
Si Si1 0.437661 0.839835 0.071711
Si Si2 0.400469 0.923748 0.500772
Si Si3 0.899768 0.806321 0.315600
Si Si4 0.500000 0.725776 0.250000
Si Si5 0.830253 0.810646 0.626006
Si Si6 0.639698 0.160519 0.263341
Si Si7 0.715689 0.163147 0.810546
O O1 0.489144 0.775036 0.119823
O O2 0.349362 0.842958 0.171886
O O3 0.509493 0.897543 0.078037
O O4 0.411925 0.836132 0.910242
O O5 0.393803 0.894252 0.657636
O O6 0.318394 0.890459 0.417422
O O7 0.397624 0.000000 0.500000
O O8 0.874473 0.827068 0.475410
O O9 0.877559 0.729768 0.308519
O O10 0.820980 0.839873 0.224441
O O11 0.000000 0.816537 0.250000
O O12 0.589071 0.684915 0.236917
O O13 0.743360 0.846967 0.686065
O O14 0.801519 0.734843 0.627294
#
# Coordination Sequence:
#
# PCOD9316558 Si02
#       7
#     8   8   8   4   8   8   8
#     4  11  19  36  55  77 121 159 191 236 278 342
#     4  12  24  39  57  83 117 164 203 231 285 350
#     4  11  20  34  60  88 118 149 195 241 301 360
#     4  10  18  32  56  82 124 148 184 236 300 352
#     4  10  19  33  54  85 119 157 180 240 305 348
#     4  11  22  34  55  86 123 151 198 241 286 350
#     4  10  21  37  55  83 121 154 191 241 298 339
#
# _framework density 17.804933999999999
#
# number of rings (size 3 to 8) (size 9 to 14) (size 15 to 20)
#    0.000    1.231    6.154    2.308    0.000    3.692 
#    0.000    0.000    0.000    0.000    6.000    0.000 
#    0.000    0.000    0.000    0.000    0.000    0.000 
#
# Total GULP energy -144999.523432 kJ/mol
# GULP energy per Si atom -5576.904747 kJ/mol
# Density = 1.776441 g / cm^3
# Si number density = 17.804934 Si / 1000 Ang^3
#
#
#
# Elastic Constant Matrix: (Units=GPa)
#
#
# Indices 1 2 3 4 5 6 
#
# 1 127.4120 9.4038 24.6175 0.0000 0.0000 0.0000
# 2 9.4038 29.4406 12.3852 0.0000 0.0000 0.0000
# 3 24.6175 12.3852 97.7012 0.0000 0.0000 0.0000
# 4 0.0000 0.0000 0.0000 15.4994 0.0000 0.0000
# 5 0.0000 0.0000 0.0000 0.0000 29.1482 0.0000
# 6 0.0000 0.0000 0.0000 0.0000 0.0000 5.1424
#
#
#
# Elastic Compliance Matrix: (Units=1/GPa)
#
#
# Indices 1 2 3 4 5 6 
#
# 1 0.008348 -0.001882 -0.001865 0.000000 0.000000 0.000000
# 2 -0.001882 0.036304 -0.004128 0.000000 0.000000 0.000000
# 3 -0.001865 -0.004128 0.011228 0.000000 0.000000 0.000000
# 4 0.000000 0.000000 0.000000 0.064518 0.000000 0.000000
# 5 0.000000 0.000000 0.000000 0.000000 0.034307 0.000000
# 6 0.000000 0.000000 0.000000 0.000000 0.000000 0.194460
#
#
# Mechanical properties :
#
#
# Convention : Reuss Voigt Hill
#
# Bulk Modulus (GPa) = 24.91827 38.59632 31.75730
# Shear Modulus (GPa) = 13.21726 23.83450 18.52588
#
# Velocity S-wave (km/s) = 2.72754 3.66272 3.22916
# Velocity P-wave (km/s) = 4.89335 6.29379 5.63722
#
# Compressibility (1/GPa) = 0.04013120
#
# Stress axis : x y z
#
# Youngs Moduli (GPa) = 119.79270 27.54485 89.05945
#
# Poissons Ratio (x) = 0.05184 0.16608
# Poissons Ratio (y) = 0.22544 0.36764
# Poissons Ratio (z) = 0.22339 0.11371
#
# Static dielectric constant tensor:
#      x y z
#    x 1.671370 0.000000 0.000000 
#    y 0.000000 1.558660 0.000000 
#    z 0.000000 0.000000 1.664570 
# 
# From -- ./inp_files/8646.got.cif
#   From: 2010.05.17/outbox.cif.g08.bks.cpg/sg20_5_cif.got.tgz:8646.got - 2010.06.03 22:52:26.
