data_PCOD9316229
_publ_section_title
;
Structure prediction by ZEFSAII (Michael W. Deem and Ramdas Pophale) SiO2 
 PCOD9316229
Probable space group: C 2 2 21
;
_chemical_formula_sum "Si O2"
_cell_formula_units_Z 60
_cell_length_a 14.848550
_cell_length_b 11.734395
_cell_length_c 14.094948
_cell_angle_alpha 90.000000
_cell_angle_beta 90.000000
_cell_angle_gamma 90.000000
_cell_volume 2455.886133
_symmetry_space_group_name_H-M "C 2 2 21"
_symmetry_group_IT_number 20
_symmetry_cell_setting 'orthorhombic'
loop_
_space_group_symop_operation_xyz
x,y,z
-x,-y,1/2+z
x,-y,-z
-x,y,1/2-z
1/2+x,1/2+y,z
1/2-x,1/2-y,1/2+z
1/2+x,1/2-y,-z
1/2-x,1/2+y,1/2-z
loop_
_atom_site_type_symbol
_atom_site_label
_atom_site_fract_x
_atom_site_fract_y
_atom_site_fract_z
Si Si1 0.683508 0.667594 0.153108
Si Si2 0.815713 0.832685 0.448209
Si Si3 0.734629 0.082060 0.843069
Si Si4 0.119539 0.622777 0.287734
Si Si5 0.130323 0.606410 0.641609
Si Si6 0.000000 0.760298 0.750000
Si Si7 0.596928 0.382979 0.253267
Si Si8 0.897542 0.416502 0.575934
O O1 0.720113 0.791510 0.118372
O O2 0.769353 0.629063 0.216218
O O3 0.588556 0.677236 0.207353
O O4 0.672077 0.608970 0.050857
O O5 0.707137 0.839253 0.425653
O O6 0.859312 0.881245 0.350927
O O7 0.870745 0.711485 0.451468
O O8 0.679949 0.097771 0.744445
O O9 0.836280 0.053677 0.821948
O O10 0.692854 0.987270 0.906394
O O11 0.106667 0.528078 0.369695
O O12 0.092008 0.754663 0.297019
O O13 0.073441 0.589882 0.186882
O O14 0.042396 0.681721 0.665022
O O15 0.500000 0.434156 0.250000
O O16 0.946036 0.500000 0.500000
#
# Coordination Sequence:
#
# PCOD9316229 Si02
#       8
#     8   8   8   8   8   4   8   8
#     4  10  19  37  56  86 120 159 197 250 312 372
#     4  10  20  35  59  82 116 165 200 245 307 378
#     4   8  16  32  54  77 108 154 187 238 301 357
#     4   9  20  35  58  83 119 165 193 236 319 390
#     4   9  19  36  59  84 117 154 198 247 311 370
#     4  10  20  36  62  92 122 154 210 272 308 346
#     4   9  18  34  54  84 118 154 197 242 301 362
#     4  10  16  30  57  84 102 142 211 242 272 356
#
# _framework density 24.431099
#
# number of rings (size 3 to 8) (size 9 to 14) (size 15 to 20)
#    0.000    2.667    1.333    2.400    0.933    0.533 
#    4.800    0.000   23.467    0.000    0.000    0.000 
#    0.000    0.000    0.000    0.000    0.000    0.000 
#
# Total GULP energy -167055.754182 kJ/mol
# GULP energy per Si atom -5568.525139 kJ/mol
# Density = 2.437549 g / cm^3
# Si number density = 24.431099 Si / 1000 Ang^3
#
#
#
# Elastic Constant Matrix: (Units=GPa)
#
#
# Indices 1 2 3 4 5 6 
#
# 1 144.5642 10.1315 21.5380 0.0000 0.0000 0.0000
# 2 10.1315 45.6754 2.4315 0.0000 0.0000 0.0000
# 3 21.5380 2.4315 79.2084 0.0000 0.0000 0.0000
# 4 0.0000 0.0000 0.0000 26.3303 0.0000 0.0000
# 5 0.0000 0.0000 0.0000 0.0000 35.6071 0.0000
# 6 0.0000 0.0000 0.0000 0.0000 0.0000 22.7492
#
#
#
# Elastic Compliance Matrix: (Units=1/GPa)
#
#
# Indices 1 2 3 4 5 6 
#
# 1 0.007313 -0.001519 -0.001942 0.000000 0.000000 0.000000
# 2 -0.001519 0.022245 -0.000270 0.000000 0.000000 0.000000
# 3 -0.001942 -0.000270 0.013161 0.000000 0.000000 0.000000
# 4 0.000000 0.000000 0.000000 0.037979 0.000000 0.000000
# 5 0.000000 0.000000 0.000000 0.000000 0.028084 0.000000
# 6 0.000000 0.000000 0.000000 0.000000 0.000000 0.043958
#
#
# Mechanical properties :
#
#
# Convention : Reuss Voigt Hill
#
# Bulk Modulus (GPa) = 28.36231 37.51665 32.93948
# Shear Modulus (GPa) = 29.07756 32.62713 30.85234
#
# Velocity S-wave (km/s) = 3.45365 3.65838 3.55749
# Velocity P-wave (km/s) = 5.24766 5.76493 5.51237
#
# Compressibility (1/GPa) = 0.03525806
#
# Stress axis : x y z
#
# Youngs Moduli (GPa) = 136.74088 44.95417 75.98069
#
# Poissons Ratio (x) = 0.06828 0.14755
# Poissons Ratio (y) = 0.20768 0.02051
# Poissons Ratio (z) = 0.26554 0.01213
#
# Static dielectric constant tensor:
#      x y z
#    x 1.972560 0.000000 0.000000 
#    y 0.000000 2.163310 0.000000 
#    z 0.000000 0.000000 2.056760 
# 
# From -- ./inp_files/20922.got.cif
#   From: 2010.05.17/outbox.cif.g08.bks.cpg/sg20_11_cif.got.tgz:20922.got - 2010.06.03 22:52:26.
