data_PCOD9316293
_publ_section_title
;
Structure prediction by ZEFSAII (Michael W. Deem and Ramdas Pophale) SiO2 
 PCOD9316293
Probable space group: C 2 2 21
;
_chemical_formula_sum "Si O2"
_cell_formula_units_Z 48
_cell_length_a 25.880303
_cell_length_b 14.240109
_cell_length_c 5.516004
_cell_angle_alpha 90.000000
_cell_angle_beta 90.000000
_cell_angle_gamma 90.000000
_cell_volume 2032.858934
_symmetry_space_group_name_H-M "C 2 2 21"
_symmetry_group_IT_number 20
_symmetry_cell_setting 'orthorhombic'
loop_
_space_group_symop_operation_xyz
x,y,z
-x,-y,1/2+z
x,-y,-z
-x,y,1/2-z
1/2+x,1/2+y,z
1/2-x,1/2-y,1/2+z
1/2+x,1/2-y,-z
1/2-x,1/2+y,1/2-z
loop_
_atom_site_type_symbol
_atom_site_label
_atom_site_fract_x
_atom_site_fract_y
_atom_site_fract_z
Si Si1 0.199110 0.655067 0.929899
Si Si2 0.442948 0.078302 0.325064
Si Si3 0.821886 0.144377 0.923771
Si Si4 0.355819 0.360597 0.572863
Si Si5 0.348648 0.138363 0.068377
Si Si6 0.468206 0.715517 0.499886
O O1 0.260655 0.660848 0.933869
O O2 0.174509 0.759623 0.923708
O O3 0.178929 0.609976 0.679872
O O4 0.180624 0.611207 0.183368
O O5 0.500000 0.047437 0.250000
O O6 0.406416 0.100855 0.098349
O O7 0.449635 0.176713 0.465655
O O8 0.420086 0.000000 0.500000
O O9 0.834633 0.095089 0.672116
O O10 0.849262 0.247595 0.923616
O O11 0.842260 0.097907 0.167413
O O12 0.416514 0.344840 0.533932
O O13 0.500000 0.707981 0.250000
O O14 0.500000 0.693928 0.750000
#
# Coordination Sequence:
#
# PCOD9316293 Si02
#       6
#     8   8   8   8   8   8
#     4  10  18  29  48  69  88 103 131 173 252 322
#     4  11  24  37  50  64  86 125 176 221 255 286
#     4  10  17  29  47  70  87 106 127 174 247 325
#     4  10  17  28  44  63  87 107 135 173 231 292
#     4  10  19  32  47  65  86 110 140 194 246 299
#     4  11  22  33  47  61  83 116 158 202 242 279
#
# _framework density 23.612068000000001
#
# number of rings (size 3 to 8) (size 9 to 14) (size 15 to 20)
#    0.000    1.667    3.333    6.500    7.000    1.333 
#    0.000    0.000    0.000    0.000    0.000    0.000 
#    0.000    0.000    0.000    0.000    0.000    0.000 
#
# Total GULP energy -134255.368444 kJ/mol
# GULP energy per Si atom -5593.973685 kJ/mol
# Density = 2.355833 g / cm^3
# Si number density = 23.612068 Si / 1000 Ang^3
#
#
#
# Elastic Constant Matrix: (Units=GPa)
#
#
# Indices 1 2 3 4 5 6 
#
# 1 147.6587 39.9332 72.2484 0.0000 0.0000 0.0000
# 2 39.9332 31.8722 43.1505 0.0000 0.0000 0.0000
# 3 72.2484 43.1505 254.0213 0.0000 0.0000 0.0000
# 4 0.0000 0.0000 0.0000 6.2914 0.0000 0.0000
# 5 0.0000 0.0000 0.0000 0.0000 23.8327 0.0000
# 6 0.0000 0.0000 0.0000 0.0000 0.0000 117.0599
#
#
#
# Elastic Compliance Matrix: (Units=1/GPa)
#
#
# Indices 1 2 3 4 5 6 
#
# 1 0.010424 -0.011748 -0.000969 0.000000 0.000000 0.000000
# 2 -0.011748 0.053987 -0.005829 0.000000 0.000000 0.000000
# 3 -0.000969 -0.005829 0.005203 0.000000 0.000000 0.000000
# 4 0.000000 0.000000 0.000000 0.158946 0.000000 0.000000
# 5 0.000000 0.000000 0.000000 0.000000 0.041959 0.000000
# 6 0.000000 0.000000 0.000000 0.000000 0.000000 0.008543
#
#
# Mechanical properties :
#
#
# Convention : Reuss Voigt Hill
#
# Bulk Modulus (GPa) = 30.75031 82.69071 56.72051
# Shear Modulus (GPa) = 15.29083 47.98482 31.63783
#
# Velocity S-wave (km/s) = 2.54753 4.51290 3.66444
# Velocity P-wave (km/s) = 4.65882 7.88997 6.47905
#
# Compressibility (1/GPa) = 0.03252000
#
# Stress axis : x y z
#
# Youngs Moduli (GPa) = 95.93532 18.52313 192.21451
#
# Poissons Ratio (x) = 0.21761 0.18627
# Poissons Ratio (y) = 1.12705 1.12048
# Poissons Ratio (z) = 0.09297 0.10798
#
# Static dielectric constant tensor:
#      x y z
#    x 1.865900 0.000000 0.000000 
#    y 0.000000 1.882000 0.000000 
#    z 0.000000 0.000000 1.952960 
# 
# From -- ./inp_files/3749.got.cif
#   From: 2010.05.17/outbox.cif.g08.bks.cpg/sg20_2_cif.got.tgz:3749.got - 2010.06.03 22:52:26.
