data_PCOD9316627
_publ_section_title
;
Structure prediction by ZEFSAII (Michael W. Deem and Ramdas Pophale) SiO2 
 PCOD9316627
Probable space group: C 2 2 21
;
_chemical_formula_sum "Si O2"
_cell_formula_units_Z 64
_cell_length_a 18.042723
_cell_length_b 14.506031
_cell_length_c 12.400114
_cell_angle_alpha 90.000000
_cell_angle_beta 90.000000
_cell_angle_gamma 90.000000
_cell_volume 3245.460747
_symmetry_space_group_name_H-M "C 2 2 21"
_symmetry_group_IT_number 20
_symmetry_cell_setting 'orthorhombic'
loop_
_space_group_symop_operation_xyz
x,y,z
-x,-y,1/2+z
x,-y,-z
-x,y,1/2-z
1/2+x,1/2+y,z
1/2-x,1/2-y,1/2+z
1/2+x,1/2-y,-z
1/2-x,1/2+y,1/2-z
loop_
_atom_site_type_symbol
_atom_site_label
_atom_site_fract_x
_atom_site_fract_y
_atom_site_fract_z
Si Si1 0.806386 0.904816 0.952889
Si Si2 0.011953 0.727048 0.122435
Si Si3 0.713463 0.634561 0.013456
Si Si4 0.071921 0.934687 0.100181
Si Si5 0.082990 0.301138 0.232922
Si Si6 0.125062 0.094777 0.219097
Si Si7 0.367564 0.206117 0.979272
Si Si8 0.849474 0.339860 0.490212
O O1 0.832906 0.902855 0.830629
O O2 0.840056 0.811074 0.002360
O O3 0.717605 0.902558 0.968706
O O4 0.836018 0.000000 0.000000
O O5 0.000000 0.710679 0.250000
O O6 0.029057 0.837695 0.108302
O O7 0.941186 0.697560 0.050760
O O8 0.081633 0.671782 0.071547
O O9 0.657922 0.592098 0.925375
O O10 0.801343 0.634924 0.003445
O O11 0.686678 0.595163 0.126323
O O12 0.689386 0.740482 0.012460
O O13 0.076065 0.003937 0.200858
O O14 0.046562 0.000000 0.000000
O O15 0.081508 0.191441 0.202698
O O16 0.119610 0.303980 0.350789
O O17 0.122028 0.352913 0.132929
O O18 0.000000 0.335097 0.250000
#
# Coordination Sequence:
#
# PCOD9316627 Si02
#       8
#     8   8   8   8   8   8   8   8
#     4  10  22  36  54  80 109 142 182 234 274 330
#     4  11  23  34  54  85 114 147 177 229 279 330
#     4   8  17  35  55  77 105 142 188 225 259 324
#     4   9  19  36  54  79 113 149 182 215 276 340
#     4  10  18  34  56  80 108 146 184 221 272 334
#     4   9  19  33  55  78 111 150 175 217 280 337
#     4  10  21  35  55  85 107 138 189 230 272 323
#     4   9  19  38  55  76 107 147 187 224 275 321
#
# _framework density 19.719850999999998
#
# number of rings (size 3 to 8) (size 9 to 14) (size 15 to 20)
#    0.000    2.500    1.250    0.750    3.500    2.000 
#    4.500    0.000    0.000    3.000    0.000    0.000 
#    0.000    0.000    0.000    0.000    0.000    0.000 
#
# Total GULP energy -178220.759433 kJ/mol
# GULP energy per Si atom -5569.398732 kJ/mol
# Density = 1.967497 g / cm^3
# Si number density = 19.719851 Si / 1000 Ang^3
#
#
#
# Elastic Constant Matrix: (Units=GPa)
#
#
# Indices 1 2 3 4 5 6 
#
# 1 80.2957 -4.8487 29.3835 0.0000 0.0000 0.0000
# 2 -4.8487 14.8737 9.9316 0.0000 0.0000 0.0000
# 3 29.3835 9.9316 79.0266 0.0000 0.0000 0.0000
# 4 0.0000 0.0000 0.0000 6.3756 0.0000 0.0000
# 5 0.0000 0.0000 0.0000 0.0000 10.2672 0.0000
# 6 0.0000 0.0000 0.0000 0.0000 0.0000 15.7414
#
#
#
# Elastic Compliance Matrix: (Units=1/GPa)
#
#
# Indices 1 2 3 4 5 6 
#
# 1 0.015621 0.009792 -0.007039 0.000000 0.000000 0.000000
# 2 0.009792 0.079530 -0.013636 0.000000 0.000000 0.000000
# 3 -0.007039 -0.013636 0.016985 0.000000 0.000000 0.000000
# 4 0.000000 0.000000 0.000000 0.156849 0.000000 0.000000
# 5 0.000000 0.000000 0.000000 0.000000 0.097398 0.000000
# 6 0.000000 0.000000 0.000000 0.000000 0.000000 0.063527
#
#
# Mechanical properties :
#
#
# Convention : Reuss Voigt Hill
#
# Bulk Modulus (GPa) = 11.06547 27.01431 19.03989
# Shear Modulus (GPa) = 10.37782 15.79216 13.08499
#
# Velocity S-wave (km/s) = 2.29653 2.83296 2.57873
# Velocity P-wave (km/s) = 3.55747 4.94263 4.30611
#
# Compressibility (1/GPa) = 0.09037118
#
# Stress axis : x y z
#
# Youngs Moduli (GPa) = 64.01597 12.57389 58.87615
#
# Poissons Ratio (x) = -0.12313 0.41442
# Poissons Ratio (y) = -0.62687 0.80283
# Poissons Ratio (z) = 0.45060 0.17146
#
# Static dielectric constant tensor:
#      x y z
#    x 1.712440 0.000000 0.000000 
#    y 0.000000 1.742360 0.000000 
#    z 0.000000 0.000000 1.772060 
# 
# From -- ./inp_files/15917.got.cif
#   From: 2010.05.17/outbox.cif.g08.bks.cpg/sg20_8_cif.got.tgz:15917.got - 2010.06.03 22:52:26.
