data_PCOD9316997
_publ_section_title
;
Structure prediction by ZEFSAII (Michael W. Deem and Ramdas Pophale) SiO2 
 PCOD9316997
Probable space group: C 2 2 21
;
_chemical_formula_sum "Si O2"
_cell_formula_units_Z 64
_cell_length_a 18.588413
_cell_length_b 7.330255
_cell_length_c 21.655246
_cell_angle_alpha 90.000000
_cell_angle_beta 90.000000
_cell_angle_gamma 90.000000
_cell_volume 2950.696337
_symmetry_space_group_name_H-M "C 2 2 21"
_symmetry_group_IT_number 20
_symmetry_cell_setting 'orthorhombic'
loop_
_space_group_symop_operation_xyz
x,y,z
-x,-y,1/2+z
x,-y,-z
-x,y,1/2-z
1/2+x,1/2+y,z
1/2-x,1/2-y,1/2+z
1/2+x,1/2-y,-z
1/2-x,1/2+y,1/2-z
loop_
_atom_site_type_symbol
_atom_site_label
_atom_site_fract_x
_atom_site_fract_y
_atom_site_fract_z
Si Si1 0.334170 0.137005 0.875566
Si Si2 0.585920 0.289400 0.011665
Si Si3 0.839885 0.682859 0.741427
Si Si4 0.419839 0.780294 0.009979
Si Si5 0.668639 0.608499 0.734231
Si Si6 0.675943 0.282284 0.400507
Si Si7 0.668557 0.667629 0.867892
Si Si8 0.839654 0.723853 0.609448
O O1 0.363813 0.101143 0.806517
O O2 0.253382 0.220231 0.872314
O O3 0.320699 0.937006 0.902020
O O4 0.387582 0.243269 0.921058
O O5 0.500701 0.275918 0.005407
O O6 0.621099 0.245528 0.077843
O O7 0.606898 0.500000 0.000000
O O8 0.617232 0.185957 0.952437
O O9 0.755039 0.637279 0.734944
O O10 0.870590 0.644377 0.673607
O O11 0.846861 0.897180 0.755304
O O12 0.369977 0.676885 0.960594
O O13 0.418874 0.000000 0.000000
O O14 0.643641 0.663207 0.666041
O O15 0.643779 0.706760 0.797450
O O16 0.758467 0.343840 0.401704
O O17 0.664238 0.445066 0.877266
#
# Coordination Sequence:
#
# PCOD9316997 Si02
#       8
#     8   8   8   8   8   8   8   8
#     4   9  17  32  53  73  95 126 163 200 240 288
#     4  10  19  33  51  69  93 126 164 200 234 282
#     4   9  16  28  48  75 102 124 155 200 245 287
#     4  10  21  35  49  69  99 130 160 200 248 290
#     4   9  16  28  48  75 102 124 155 200 245 287
#     4   9  17  32  53  73  95 126 163 200 240 288
#     4   8  15  29  51  74  92 119 159 198 234 276
#     4   8  15  29  51  74  92 119 159 198 234 276
#
# _framework density 21.689795
#
# number of rings (size 3 to 8) (size 9 to 14) (size 15 to 20)
#    0.000    3.000    0.000    3.000    0.000    4.000 
#    0.000    7.500    0.000    9.000    0.000    0.000 
#    0.000    0.000    0.000    0.000    0.000    0.000 
#
# Total GULP energy -178326.436228 kJ/mol
# GULP energy per Si atom -5572.701132 kJ/mol
# Density = 2.164043 g / cm^3
# Si number density = 21.689795 Si / 1000 Ang^3
#
#
#
# Elastic Constant Matrix: (Units=GPa)
#
#
# Indices 1 2 3 4 5 6 
#
# 1 50.1659 -14.2905 54.4696 0.0000 0.0000 0.0000
# 2 -14.2905 40.9651 -18.3137 0.0000 0.0000 0.0000
# 3 54.4696 -18.3137 175.8530 0.0000 0.0000 0.0000
# 4 0.0000 0.0000 0.0000 24.4695 0.0000 0.0000
# 5 0.0000 0.0000 0.0000 0.0000 -7.3016 0.0000
# 6 0.0000 0.0000 0.0000 0.0000 0.0000 15.3990
#
#
#
# Elastic Compliance Matrix: (Units=1/GPa)
#
#
# Indices 1 2 3 4 5 6 
#
# 1 0.031855 0.007029 -0.009135 0.000000 0.000000 0.000000
# 2 0.007029 0.027154 0.000651 0.000000 0.000000 0.000000
# 3 -0.009135 0.000651 0.008584 0.000000 0.000000 0.000000
# 4 0.000000 0.000000 0.000000 0.040867 0.000000 0.000000
# 5 0.000000 0.000000 0.000000 0.000000 -0.136957 0.000000
# 6 0.000000 0.000000 0.000000 0.000000 0.000000 0.064939
#
#
# Mechanical properties :
#
#
# Convention : Reuss Voigt Hill
#
# Bulk Modulus (GPa) = 15.46041 34.52384 24.99213
# Shear Modulus (GPa) = 82.08379 22.85462 52.46920
#
# Velocity S-wave (km/s) = 6.15846 3.24960 4.92374
# Velocity P-wave (km/s) = 7.59686 5.48010 6.62358
#
# Compressibility (1/GPa) = 0.06468133
#
# Stress axis : x y z
#
# Youngs Moduli (GPa) = 31.39267 36.82718 116.49841
#
# Poissons Ratio (x) = -0.25884 1.06419
# Poissons Ratio (y) = -0.22065 -0.07582
# Poissons Ratio (z) = 0.28677 -0.02397
#
# Static dielectric constant tensor:
#      x y z
#    x 1.739920 0.000000 0.000000 
#    y 0.000000 1.880440 0.000000 
#    z 0.000000 0.000000 1.852190 
# 
# From -- ./inp_files/27950.got.cif
#   From: 2010.05.17/outbox.cif.g08.bks.cpg/sg20_14_cif.got.tgz:27950.got - 2010.06.03 22:52:26.
