data_PCOD9316042
_publ_section_title
;
Structure prediction by ZEFSAII (Michael W. Deem and Ramdas Pophale) SiO2 
 PCOD9316042
Probable space group: P 21 21 21
;
_chemical_formula_sum "Si O2"
_cell_formula_units_Z 24
_cell_length_a 7.951018
_cell_length_b 9.926432
_cell_length_c 12.887416
_cell_angle_alpha 90.000000
_cell_angle_beta 90.000000
_cell_angle_gamma 90.000000
_cell_volume 1017.142394
_symmetry_space_group_name_H-M "P 21 21 21"
_symmetry_group_IT_number 19
_symmetry_cell_setting 'orthorhombic'
loop_
_space_group_symop_operation_xyz
x,y,z
1/2-x,-y,1/2+z
1/2+x,1/2-y,-z
-x,1/2+y,1/2-z
loop_
_atom_site_type_symbol
_atom_site_label
_atom_site_fract_x
_atom_site_fract_y
_atom_site_fract_z
Si Si1 0.924304 0.374866 0.067032
Si Si2 0.819556 0.110056 0.154363
Si Si3 0.440535 0.642580 0.978320
Si Si4 0.744949 0.635600 0.129056
Si Si5 0.755670 0.004057 0.869265
Si Si6 0.066243 0.779770 0.656534
O O1 0.931927 0.240165 0.134174
O O2 0.810285 0.484252 0.123459
O O3 0.110370 0.434535 0.059609
O O4 0.860199 0.339877 0.951344
O O5 0.627788 0.170143 0.153949
O O6 0.887376 0.998606 0.073825
O O7 0.831059 0.033486 0.262199
O O8 0.393636 0.760384 0.899550
O O9 0.621512 0.651360 0.030020
O O10 0.326862 0.632132 0.082013
O O11 0.656138 0.670268 0.238010
O O12 0.898098 0.118676 0.850152
#
# Coordination Sequence:
#
# PCOD9316042 Si02
#       6
#     4   4   4   4   4   4
#     4  12  28  47  78 111 147 200 253 317 369 455
#     4  12  27  47  79 106 152 197 253 309 379 455
#     4  12  25  48  73 112 149 195 250 315 369 455
#     4  12  29  47  78 110 156 197 254 314 384 444
#     4  12  26  46  77 111 149 194 257 304 380 449
#     4  12  25  49  75 104 149 201 247 301 389 444
#
# _framework density 23.595516
#
# number of rings (size 3 to 8) (size 9 to 14) (size 15 to 20)
#    0.000    0.000    6.667    2.000    4.667    2.667 
#    0.000    0.000    0.000    0.000    0.000    0.000 
#    0.000    0.000    0.000    0.000    0.000    0.000 
#
# Total GULP energy -134193.997914 kJ/mol
# GULP energy per Si atom -5591.416580 kJ/mol
# Density = 2.354181 g / cm^3
# Si number density = 23.595516 Si / 1000 Ang^3
#
#
#
# Elastic Constant Matrix: (Units=GPa)
#
#
# Indices 1 2 3 4 5 6 
#
# 1 54.7083 12.8388 10.3340 0.0000 0.0000 0.0000
# 2 12.8388 98.9636 36.3585 0.0000 0.0000 0.0000
# 3 10.3340 36.3585 83.6572 0.0000 0.0000 0.0000
# 4 0.0000 0.0000 0.0000 36.4509 0.0000 0.0000
# 5 0.0000 0.0000 0.0000 0.0000 32.3606 0.0000
# 6 0.0000 0.0000 0.0000 0.0000 0.0000 29.1533
#
#
#
# Elastic Compliance Matrix: (Units=1/GPa)
#
#
# Indices 1 2 3 4 5 6 
#
# 1 0.019014 -0.001909 -0.001519 0.000000 0.000000 0.000000
# 2 -0.001909 0.012216 -0.005074 0.000000 0.000000 0.000000
# 3 -0.001519 -0.005074 0.014346 0.000000 0.000000 0.000000
# 4 0.000000 0.000000 0.000000 0.027434 0.000000 0.000000
# 5 0.000000 0.000000 0.000000 0.000000 0.030902 0.000000
# 6 0.000000 0.000000 0.000000 0.000000 0.000000 0.034301
#
#
# Mechanical properties :
#
#
# Convention : Reuss Voigt Hill
#
# Bulk Modulus (GPa) = 34.99752 39.59907 37.29829
# Shear Modulus (GPa) = 30.35070 31.44616 30.89843
#
# Velocity S-wave (km/s) = 3.59038 3.65460 3.62263
# Velocity P-wave (km/s) = 5.66147 5.88447 5.77405
#
# Compressibility (1/GPa) = 0.02857346
#
# Stress axis : x y z
#
# Youngs Moduli (GPa) = 52.59385 81.85768 69.70453
#
# Poissons Ratio (x) = 0.15623 0.10590
# Poissons Ratio (y) = 0.10038 0.35365
# Poissons Ratio (z) = 0.07990 0.41531
#
# Static dielectric constant tensor:
#      x y z
#    x 1.933570 0.000000 0.000000 
#    y 0.000000 1.849670 0.000000 
#    z 0.000000 0.000000 1.936150 
# 
# From -- ./inp_files/2679.got.cif
#   From: 2010.05.17/outbox.cif.g08.bks.cpg/sg19_2_cif.got.tgz:2679.got - 2010.06.03 22:46:19.
