data_PCOD9316736
_publ_section_title
;
Structure prediction by ZEFSAII (Michael W. Deem and Ramdas Pophale) SiO2 
 PCOD9316736
Probable space group: C 2 2 21
;
_chemical_formula_sum "Si O2"
_cell_formula_units_Z 52
_cell_length_a 9.510489
_cell_length_b 19.447706
_cell_length_c 15.407612
_cell_angle_alpha 90.000000
_cell_angle_beta 90.000000
_cell_angle_gamma 90.000000
_cell_volume 2849.748682
_symmetry_space_group_name_H-M "C 2 2 21"
_symmetry_group_IT_number 20
_symmetry_cell_setting 'orthorhombic'
loop_
_space_group_symop_operation_xyz
x,y,z
-x,-y,1/2+z
x,-y,-z
-x,y,1/2-z
1/2+x,1/2+y,z
1/2-x,1/2-y,1/2+z
1/2+x,1/2-y,-z
1/2-x,1/2+y,1/2-z
loop_
_atom_site_type_symbol
_atom_site_label
_atom_site_fract_x
_atom_site_fract_y
_atom_site_fract_z
Si Si1 0.000000 0.938674 0.750000
Si Si2 0.498774 0.309977 0.433723
Si Si3 0.500000 0.005773 0.250000
Si Si4 0.500000 0.760647 0.750000
Si Si5 0.211739 0.626614 0.209116
Si Si6 0.881626 0.446608 0.419139
Si Si7 0.049059 0.036594 0.591981
Si Si8 0.191029 0.314378 0.985814
O O1 0.869530 0.889121 0.766747
O O2 0.013452 0.988954 0.832877
O O3 0.502150 0.283531 0.335666
O O4 0.472205 0.391031 0.423487
O O5 0.650680 0.304441 0.479841
O O6 0.388080 0.258469 0.478687
O O7 0.629492 0.058343 0.238816
O O8 0.484930 0.962459 0.338738
O O9 0.364739 0.810059 0.754850
O O10 0.197979 0.646077 0.107297
O O11 0.902795 0.500000 0.500000
O O12 0.717043 0.453592 0.389550
O O13 0.890830 0.368707 0.453533
O O14 0.044233 0.000000 0.500000
#
# Coordination Sequence:
#
# PCOD9316736 Si02
#       8
#     4   8   4   4   8   8   8   8
#     4  12  19  36  61  91 115 158 200 260 303 360
#     4  10  21  39  61  83 121 161 210 246 307 368
#     4  11  18  36  59  93 121 156 200 252 295 370
#     4   9  21  38  56  88 120 168 194 248 304 368
#     4  10  21  36  61  88 125 155 204 243 309 365
#     4  10  18  36  62  86 119 160 202 243 304 368
#     4  10  21  37  60  86 118 157 199 252 309 358
#     4  10  21  41  61  86 120 173 200 247 307 372
#
# _framework density 18.247223000000002
#
# number of rings (size 3 to 8) (size 9 to 14) (size 15 to 20)
#    0.000    1.846    3.077    2.308    0.000    2.462 
#    2.769    3.846    0.000    0.923    0.000    0.000 
#    0.000    0.000    0.000    0.000    0.000    0.000 
#
# Total GULP energy -144924.319073 kJ/mol
# GULP energy per Si atom -5574.012272 kJ/mol
# Density = 1.820569 g / cm^3
# Si number density = 18.247223 Si / 1000 Ang^3
#
#
#
# Elastic Constant Matrix: (Units=GPa)
#
#
# Indices 1 2 3 4 5 6 
#
# 1 68.4057 41.5361 20.5106 0.0000 0.0000 0.0000
# 2 41.5361 103.0714 27.6345 0.0000 0.0000 0.0000
# 3 20.5106 27.6345 57.2147 0.0000 0.0000 0.0000
# 4 0.0000 0.0000 0.0000 -5.6192 0.0000 0.0000
# 5 0.0000 0.0000 0.0000 0.0000 27.5491 0.0000
# 6 0.0000 0.0000 0.0000 0.0000 0.0000 16.8838
#
#
#
# Elastic Compliance Matrix: (Units=1/GPa)
#
#
# Indices 1 2 3 4 5 6 
#
# 1 0.020039 -0.007064 -0.003772 0.000000 0.000000 0.000000
# 2 -0.007064 0.013636 -0.004054 0.000000 0.000000 0.000000
# 3 -0.003772 -0.004054 0.020788 0.000000 0.000000 0.000000
# 4 0.000000 0.000000 0.000000 -0.177960 0.000000 0.000000
# 5 0.000000 0.000000 0.000000 0.000000 0.036299 0.000000
# 6 0.000000 0.000000 0.000000 0.000000 0.000000 0.059228
#
#
# Mechanical properties :
#
#
# Convention : Reuss Voigt Hill
#
# Bulk Modulus (GPa) = 40.51255 45.33936 42.92595
# Shear Modulus (GPa) = 498.22035 17.03012 257.62524
#
# Velocity S-wave (km/s) = 16.54182 3.05831 11.89506
# Velocity P-wave (km/s) = 19.67467 6.11328 14.56820
#
# Compressibility (1/GPa) = 0.02468371
#
# Stress axis : x y z
#
# Youngs Moduli (GPa) = 49.90293 73.33776 48.10475
#
# Poissons Ratio (x) = 0.51807 0.18144
# Poissons Ratio (y) = 0.35252 0.19499
# Poissons Ratio (z) = 0.18822 0.29728
#
# Static dielectric constant tensor:
#      x y z
#    x 1.646660 0.000000 0.000000 
#    y 0.000000 1.638380 0.000000 
#    z 0.000000 0.000000 1.632330 
# 
# From -- ./inp_files/19157.got.cif
#   From: 2010.05.17/outbox.cif.g08.bks.cpg/sg20_10_cif.got.tgz:19157.got - 2010.06.03 22:52:26.
