data_PCOD9316077
_publ_section_title
;
Structure prediction by ZEFSAII (Michael W. Deem and Ramdas Pophale) SiO2 
 PCOD9316077
Probable space group: P 21 21 21
;
_chemical_formula_sum "Si O2"
_cell_formula_units_Z 12
_cell_length_a 7.286159
_cell_length_b 7.037443
_cell_length_c 8.770304
_cell_angle_alpha 90.000000
_cell_angle_beta 90.000000
_cell_angle_gamma 90.000000
_cell_volume 449.705482
_symmetry_space_group_name_H-M "P 21 21 21"
_symmetry_group_IT_number 19
_symmetry_cell_setting 'orthorhombic'
loop_
_space_group_symop_operation_xyz
x,y,z
1/2-x,-y,1/2+z
1/2+x,1/2-y,-z
-x,1/2+y,1/2-z
loop_
_atom_site_type_symbol
_atom_site_label
_atom_site_fract_x
_atom_site_fract_y
_atom_site_fract_z
Si Si1 0.380209 0.424533 0.455163
Si Si2 0.211176 0.906504 0.728230
Si Si3 0.604641 0.799357 0.693905
O O1 0.555397 0.539200 0.392162
O O2 0.202468 0.547185 0.411975
O O3 0.385660 0.369237 0.630499
O O4 0.870308 0.268995 0.643405
O O5 0.288894 0.100985 0.799894
O O6 0.388368 0.800368 0.657760
#
# Coordination Sequence:
#
# PCOD9316077 Si02
#       3
#     4   4   4
#     4  12  28  50  78 115 156 202 257 318 387 459
#     4  12  26  50  76 112 154 202 254 314 378 458
#     4  12  28  50  78 115 156 202 257 318 387 459
#
# _framework density 26.684131000000001
#
# number of rings (size 3 to 8) (size 9 to 14) (size 15 to 20)
#    0.000    0.000    6.667    2.000    0.000    8.000 
#    0.000    0.000    0.000    0.000    0.000    0.000 
#    0.000    0.000    0.000    0.000    0.000    0.000 
#
# Total GULP energy -67527.962720 kJ/mol
# GULP energy per Si atom -5627.330227 kJ/mol
# Density = 2.662340 g / cm^3
# Si number density = 26.684131 Si / 1000 Ang^3
#
#
#
# Elastic Constant Matrix: (Units=GPa)
#
#
# Indices 1 2 3 4 5 6 
#
# 1 148.2263 24.5254 51.9395 0.0000 0.0000 0.0000
# 2 24.5254 120.0395 38.9131 0.0000 0.0000 0.0000
# 3 51.9395 38.9131 148.2332 0.0000 0.0000 0.0000
# 4 0.0000 0.0000 0.0000 31.2666 0.0000 0.0000
# 5 0.0000 0.0000 0.0000 0.0000 41.7011 0.0000
# 6 0.0000 0.0000 0.0000 0.0000 0.0000 66.8945
#
#
#
# Elastic Compliance Matrix: (Units=1/GPa)
#
#
# Indices 1 2 3 4 5 6 
#
# 1 0.007755 -0.000769 -0.002515 0.000000 0.000000 0.000000
# 2 -0.000769 0.009182 -0.002141 0.000000 0.000000 0.000000
# 3 -0.002515 -0.002141 0.008190 0.000000 0.000000 0.000000
# 4 0.000000 0.000000 0.000000 0.031983 0.000000 0.000000
# 5 0.000000 0.000000 0.000000 0.000000 0.023980 0.000000
# 6 0.000000 0.000000 0.000000 0.000000 0.000000 0.014949
#
#
# Mechanical properties :
#
#
# Convention : Reuss Voigt Hill
#
# Bulk Modulus (GPa) = 70.04915 71.91723 70.98319
# Shear Modulus (GPa) = 44.78374 48.04715 46.41545
#
# Velocity S-wave (km/s) = 4.10114 4.24794 4.17518
# Velocity P-wave (km/s) = 6.98098 7.14631 7.06413
#
# Compressibility (1/GPa) = 0.01427569
#
# Stress axis : x y z
#
# Youngs Moduli (GPa) = 128.94720 108.91212 122.10732
#
# Poissons Ratio (x) = 0.08376 0.30715
# Poissons Ratio (y) = 0.09916 0.26141
# Poissons Ratio (z) = 0.32436 0.23317
#
# Static dielectric constant tensor:
#      x y z
#    x 2.067000 0.000000 0.000000 
#    y 0.000000 2.093660 0.000000 
#    z 0.000000 0.000000 2.004580 
# 
# From -- ./inp_files/2356.got.cif
#   From: 2010.05.17/outbox.cif.g08.bks.cpg/sg19_2_cif.got.tgz:2356.got - 2010.06.03 22:46:19.
