data_PCOD9316887
_publ_section_title
;
Structure prediction by ZEFSAII (Michael W. Deem and Ramdas Pophale) SiO2 
 PCOD9316887
Probable space group: C 2 2 21
;
_chemical_formula_sum "Si O2"
_cell_formula_units_Z 52
_cell_length_a 12.692739
_cell_length_b 8.675244
_cell_length_c 21.349124
_cell_angle_alpha 90.000000
_cell_angle_beta 90.000000
_cell_angle_gamma 90.000000
_cell_volume 2350.807719
_symmetry_space_group_name_H-M "C 2 2 21"
_symmetry_group_IT_number 20
_symmetry_cell_setting 'orthorhombic'
loop_
_space_group_symop_operation_xyz
x,y,z
-x,-y,1/2+z
x,-y,-z
-x,y,1/2-z
1/2+x,1/2+y,z
1/2-x,1/2-y,1/2+z
1/2+x,1/2-y,-z
1/2-x,1/2+y,1/2-z
loop_
_atom_site_type_symbol
_atom_site_label
_atom_site_fract_x
_atom_site_fract_y
_atom_site_fract_z
Si Si1 0.500000 0.602627 0.750000
Si Si2 0.658071 0.744293 0.907393
Si Si3 0.664964 0.867534 0.314447
Si Si4 0.966502 0.359878 0.838081
Si Si5 0.155946 0.000000 0.000000
Si Si6 0.666159 0.623997 0.205706
Si Si7 0.232531 0.500000 0.000000
Si Si8 0.220948 0.263421 0.584583
O O1 0.430725 0.726402 0.788958
O O2 0.435059 0.489081 0.704488
O O3 0.769240 0.689617 0.876047
O O4 0.585198 0.815001 0.853502
O O5 0.605057 0.598654 0.943600
O O6 0.668527 0.878226 0.958661
O O7 0.654238 0.730669 0.265872
O O8 0.055827 0.461787 0.322797
O O9 0.738906 0.002434 0.286814
O O10 0.891233 0.329512 0.896429
O O11 0.228222 0.875801 0.965914
O O12 0.700056 0.722230 0.144471
O O13 0.292480 0.598775 0.947596
#
# Coordination Sequence:
#
# PCOD9316887 Si02
#       8
#     4   8   8   8   4   8   4   8
#     4  12  24  40  66 106 140 176 236 290 346 434
#     4  11  23  44  67 100 137 176 239 283 349 416
#     4  11  24  43  70  96 141 187 227 287 363 409
#     4  11  24  42  67 100 136 181 229 292 346 427
#     4  10  18  44  68  90 132 184 228 286 342 414
#     4  11  23  42  65 100 136 184 227 288 352 421
#     4  10  26  40  68  94 134 180 230 290 338 424
#     4  10  22  41  65  93 131 182 227 277 357 401
#
# _framework density 22.120056000000002
#
# number of rings (size 3 to 8) (size 9 to 14) (size 15 to 20)
#    0.000    1.231    4.615    1.846    4.308    3.077 
#    0.000    0.000    0.000    0.000    0.000    0.000 
#    0.000    0.000    0.000    0.000    0.000    0.000 
#
# Total GULP energy -144926.088516 kJ/mol
# GULP energy per Si atom -5574.080328 kJ/mol
# Density = 2.206971 g / cm^3
# Si number density = 22.120056 Si / 1000 Ang^3
#
#
#
# Elastic Constant Matrix: (Units=GPa)
#
#
# Indices 1 2 3 4 5 6 
#
# 1 36.5666 15.4190 14.0102 0.0000 0.0000 0.0000
# 2 15.4190 122.7234 48.9801 0.0000 0.0000 0.0000
# 3 14.0102 48.9801 93.8493 0.0000 0.0000 0.0000
# 4 0.0000 0.0000 0.0000 63.6081 0.0000 0.0000
# 5 0.0000 0.0000 0.0000 0.0000 33.2177 0.0000
# 6 0.0000 0.0000 0.0000 0.0000 0.0000 35.4058
#
#
#
# Elastic Compliance Matrix: (Units=1/GPa)
#
#
# Indices 1 2 3 4 5 6 
#
# 1 0.029587 -0.002469 -0.003128 0.000000 0.000000 0.000000
# 2 -0.002469 0.010498 -0.005111 0.000000 0.000000 0.000000
# 3 -0.003128 -0.005111 0.013790 0.000000 0.000000 0.000000
# 4 0.000000 0.000000 0.000000 0.015721 0.000000 0.000000
# 5 0.000000 0.000000 0.000000 0.000000 0.030104 0.000000
# 6 0.000000 0.000000 0.000000 0.000000 0.000000 0.028244
#
#
# Mechanical properties :
#
#
# Convention : Reuss Voigt Hill
#
# Bulk Modulus (GPa) = 30.80766 45.55089 38.17928
# Shear Modulus (GPa) = 31.21497 38.09499 34.65498
#
# Velocity S-wave (km/s) = 3.76062 4.15443 3.96242
# Velocity P-wave (km/s) = 5.72835 6.60679 6.18319
#
# Compressibility (1/GPa) = 0.03245946
#
# Stress axis : x y z
#
# Youngs Moduli (GPa) = 33.79868 95.25410 72.51851
#
# Poissons Ratio (x) = 0.23516 0.22687
# Poissons Ratio (y) = 0.08344 0.37061
# Poissons Ratio (z) = 0.10574 0.48680
#
# Static dielectric constant tensor:
#      x y z
#    x 1.884260 0.000000 0.000000 
#    y 0.000000 1.815310 0.000000 
#    z 0.000000 0.000000 1.934010 
# 
# From -- ./inp_files/27540.got.cif
#   From: 2010.05.17/outbox.cif.g08.bks.cpg/sg20_14_cif.got.tgz:27540.got - 2010.06.03 22:52:26.
