data_PCOD9316333
_publ_section_title
;
Structure prediction by ZEFSAII (Michael W. Deem and Ramdas Pophale) SiO2 
 PCOD9316333
Probable space group: C 2 2 21
;
_chemical_formula_sum "Si O2"
_cell_formula_units_Z 64
_cell_length_a 18.540236
_cell_length_b 13.838489
_cell_length_c 13.783482
_cell_angle_alpha 90.000000
_cell_angle_beta 90.000000
_cell_angle_gamma 90.000000
_cell_volume 3536.412153
_symmetry_space_group_name_H-M "C 2 2 21"
_symmetry_group_IT_number 20
_symmetry_cell_setting 'orthorhombic'
loop_
_space_group_symop_operation_xyz
x,y,z
-x,-y,1/2+z
x,-y,-z
-x,y,1/2-z
1/2+x,1/2+y,z
1/2-x,1/2-y,1/2+z
1/2+x,1/2-y,-z
1/2-x,1/2+y,1/2-z
loop_
_atom_site_type_symbol
_atom_site_label
_atom_site_fract_x
_atom_site_fract_y
_atom_site_fract_z
Si Si1 0.712647 0.517792 0.232558
Si Si2 0.010417 0.220929 0.366712
Si Si3 0.702441 0.828485 0.260798
Si Si4 0.650466 0.330201 0.894015
Si Si5 0.835258 0.565729 0.087307
Si Si6 0.222588 0.266076 0.481039
Si Si7 0.940606 0.571032 0.824338
Si Si8 0.145456 0.909909 0.566233
O O1 0.732259 0.405010 0.248691
O O2 0.657853 0.562111 0.151602
O O3 0.786312 0.559747 0.183572
O O4 0.684307 0.557181 0.334538
O O5 0.029448 0.334232 0.379081
O O6 0.075977 0.155408 0.405357
O O7 0.000000 0.207398 0.250000
O O8 0.932585 0.195234 0.409858
O O9 0.687465 0.743519 0.184552
O O10 0.710906 0.785580 0.367993
O O11 0.627885 0.888336 0.264444
O O12 0.700554 0.308201 0.986286
O O13 0.910003 0.514328 0.110451
O O14 0.801739 0.500000 0.000000
O O15 0.834002 0.671897 0.044272
O O16 0.203665 0.154442 0.493036
O O17 0.000000 0.535862 0.750000
O O18 0.123857 0.000000 0.500000
#
# Coordination Sequence:
#
# PCOD9316333 Si02
#       8
#     8   8   8   8   8   8   8   8
#     4  10  20  33  58  87 115 151 206 251 292 353
#     4  11  18  38  61  84 113 156 208 242 297 366
#     4  11  18  36  59  88 117 152 204 248 298 357
#     4  11  21  35  62  90 117 158 201 258 296 358
#     4  10  18  33  59  91 117 150 199 252 305 354
#     4  11  21  37  60  86 121 156 202 250 310 358
#     4  10  17  31  62  84 112 147 195 245 292 363
#     4  12  23  40  59  86 127 166 203 250 303 372
#
# _framework density 18.097439000000001
#
# number of rings (size 3 to 8) (size 9 to 14) (size 15 to 20)
#    0.000    1.250    8.750    0.750    0.000    0.000 
#    2.250    0.000   11.000    0.750    0.000    0.000 
#    0.000    0.000    0.000    0.000    0.000    0.000 
#
# Total GULP energy -178198.714343 kJ/mol
# GULP energy per Si atom -5568.709823 kJ/mol
# Density = 1.805625 g / cm^3
# Si number density = 18.097439 Si / 1000 Ang^3
#
#
#
# Elastic Constant Matrix: (Units=GPa)
#
#
# Indices 1 2 3 4 5 6 
#
# 1 100.3781 34.9908 28.5441 0.0000 0.0000 0.0000
# 2 34.9908 64.5082 8.9683 0.0000 0.0000 0.0000
# 3 28.5441 8.9683 62.0187 0.0000 0.0000 0.0000
# 4 0.0000 0.0000 0.0000 17.0101 0.0000 0.0000
# 5 0.0000 0.0000 0.0000 0.0000 31.3853 0.0000
# 6 0.0000 0.0000 0.0000 0.0000 0.0000 30.6405
#
#
#
# Elastic Compliance Matrix: (Units=1/GPa)
#
#
# Indices 1 2 3 4 5 6 
#
# 1 0.013856 -0.006765 -0.005399 0.000000 0.000000 0.000000
# 2 -0.006765 0.019123 0.000348 0.000000 0.000000 0.000000
# 3 -0.005399 0.000348 0.018559 0.000000 0.000000 0.000000
# 4 0.000000 0.000000 0.000000 0.058789 0.000000 0.000000
# 5 0.000000 0.000000 0.000000 0.000000 0.031862 0.000000
# 6 0.000000 0.000000 0.000000 0.000000 0.000000 0.032637
#
#
# Mechanical properties :
#
#
# Convention : Reuss Voigt Hill
#
# Bulk Modulus (GPa) = 35.83436 41.32349 38.57892
# Shear Modulus (GPa) = 24.06643 26.10063 25.08353
#
# Velocity S-wave (km/s) = 3.65063 3.80179 3.72698
# Velocity P-wave (km/s) = 6.13297 6.49268 6.31539
#
# Compressibility (1/GPa) = 0.02790617
#
# Stress axis : x y z
#
# Youngs Moduli (GPa) = 72.17158 52.29284 53.88330
#
# Poissons Ratio (x) = 0.35377 0.29091
# Poissons Ratio (y) = 0.48825 -0.01877
# Poissons Ratio (z) = 0.38964 -0.01822
#
# Static dielectric constant tensor:
#      x y z
#    x 1.642050 0.000000 0.000000 
#    y 0.000000 1.681290 0.000000 
#    z 0.000000 0.000000 1.636160 
# 
# From -- ./inp_files/21552.got.cif
#   From: 2010.05.17/outbox.cif.g08.bks.cpg/sg20_11_cif.got.tgz:21552.got - 2010.06.03 22:52:26.
