data_PCOD9316069
_publ_section_title
;
Structure prediction by ZEFSAII (Michael W. Deem and Ramdas Pophale) SiO2 
 PCOD9316069
Probable space group: P 21 21 21
;
_chemical_formula_sum "Si O2"
_cell_formula_units_Z 32
_cell_length_a 21.292285
_cell_length_b 10.803377
_cell_length_c 5.579702
_cell_angle_alpha 90.000000
_cell_angle_beta 90.000000
_cell_angle_gamma 90.000000
_cell_volume 1283.490939
_symmetry_space_group_name_H-M "P 21 21 21"
_symmetry_group_IT_number 19
_symmetry_cell_setting 'orthorhombic'
loop_
_space_group_symop_operation_xyz
x,y,z
1/2-x,-y,1/2+z
1/2+x,1/2-y,-z
-x,1/2+y,1/2-z
loop_
_atom_site_type_symbol
_atom_site_label
_atom_site_fract_x
_atom_site_fract_y
_atom_site_fract_z
Si Si1 0.408173 0.362053 0.175783
Si Si2 0.144674 0.167463 0.517816
Si Si3 0.651413 0.059372 0.636491
Si Si4 0.316447 0.165478 0.719083
Si Si5 0.704323 0.918257 0.008444
Si Si6 0.288653 0.909372 0.516950
Si Si7 0.458727 0.189574 0.829459
Si Si8 0.491091 0.926893 0.936488
O O1 0.339135 0.357111 0.289583
O O2 0.458859 0.420819 0.351142
O O3 0.393747 0.450516 0.951001
O O4 0.437583 0.232406 0.094727
O O5 0.130190 0.312589 0.477227
O O6 0.177859 0.142045 0.774415
O O7 0.080920 0.088709 0.518321
O O8 0.182424 0.139274 0.267731
O O9 0.724703 0.044284 0.557908
O O10 0.663124 0.035231 0.918057
O O11 0.291936 0.303333 0.673534
O O12 0.284172 0.123254 0.968227
O O13 0.391249 0.172697 0.706344
O O14 0.296329 0.057160 0.537782
O O15 0.495601 0.306491 0.725217
O O16 0.495074 0.061762 0.818554
#
# Coordination Sequence:
#
# PCOD9316069 Si02
#       8
#     4   4   4   4   4   4   4   4
#     4  12  28  48  81 111 160 219 284 350 428 506
#     4  12  31  50  84 116 175 214 286 343 430 499
#     4  12  27  47  75 120 159 213 273 354 422 512
#     4  12  26  51  81 117 165 212 278 346 435 502
#     4  12  26  47  78 114 161 211 273 351 431 503
#     4  12  29  52  81 125 161 222 268 357 419 520
#     4  12  30  54  80 116 162 222 288 350 431 505
#     4  12  31  53  80 117 161 229 282 359 408 527
#
# _framework density 24.932002000000001
#
# number of rings (size 3 to 8) (size 9 to 14) (size 15 to 20)
#    0.000    0.000    6.250    0.750   14.000    0.000 
#    0.000    0.000    0.000    0.000    0.000    0.000 
#    0.000    0.000    0.000    0.000    0.000    0.000 
#
# Total GULP energy -178982.661426 kJ/mol
# GULP energy per Si atom -5593.208170 kJ/mol
# Density = 2.487526 g / cm^3
# Si number density = 24.932002 Si / 1000 Ang^3
#
#
#
# Elastic Constant Matrix: (Units=GPa)
#
#
# Indices 1 2 3 4 5 6 
#
# 1 70.9321 29.7228 27.3976 0.0000 0.0000 0.0000
# 2 29.7228 133.3531 26.6748 0.0000 0.0000 0.0000
# 3 27.3976 26.6748 76.9991 0.0000 0.0000 0.0000
# 4 0.0000 0.0000 0.0000 48.2000 0.0000 0.0000
# 5 0.0000 0.0000 0.0000 0.0000 39.3209 0.0000
# 6 0.0000 0.0000 0.0000 0.0000 0.0000 48.4789
#
#
#
# Elastic Compliance Matrix: (Units=1/GPa)
#
#
# Indices 1 2 3 4 5 6 
#
# 1 0.017275 -0.002816 -0.005171 0.000000 0.000000 0.000000
# 2 -0.002816 0.008516 -0.001948 0.000000 0.000000 0.000000
# 3 -0.005171 -0.001948 0.015502 0.000000 0.000000 0.000000
# 4 0.000000 0.000000 0.000000 0.020747 0.000000 0.000000
# 5 0.000000 0.000000 0.000000 0.000000 0.025432 0.000000
# 6 0.000000 0.000000 0.000000 0.000000 0.000000 0.020628
#
#
# Mechanical properties :
#
#
# Convention : Reuss Voigt Hill
#
# Bulk Modulus (GPa) = 46.67988 49.87497 48.27743
# Shear Modulus (GPa) = 37.00628 40.36591 38.68610
#
# Velocity S-wave (km/s) = 3.85683 4.02809 3.94339
# Velocity P-wave (km/s) = 6.21265 6.45615 6.33557
#
# Compressibility (1/GPa) = 0.02142250
#
# Stress axis : x y z
#
# Youngs Moduli (GPa) = 57.88570 117.42223 64.50718
#
# Poissons Ratio (x) = 0.33067 0.33359
# Poissons Ratio (y) = 0.16301 0.12568
# Poissons Ratio (z) = 0.29935 0.22877
#
# Static dielectric constant tensor:
#      x y z
#    x 1.958470 0.000000 0.000000 
#    y 0.000000 2.010330 0.000000 
#    z 0.000000 0.000000 2.132560 
# 
# From -- ./inp_files/1994.got.cif
#   From: 2010.05.17/outbox.cif.g08.bks.cpg/sg19_1_cif.got.tgz:1994.got - 2010.06.03 22:46:19.
