data_PCOD9316339
_publ_section_title
;
Structure prediction by ZEFSAII (Michael W. Deem and Ramdas Pophale) SiO2 
 PCOD9316339
Probable space group: C 2 2 21
;
_chemical_formula_sum "Si O2"
_cell_formula_units_Z 64
_cell_length_a 18.855303
_cell_length_b 13.825757
_cell_length_c 14.625666
_cell_angle_alpha 90.000000
_cell_angle_beta 90.000000
_cell_angle_gamma 90.000000
_cell_volume 3812.747866
_symmetry_space_group_name_H-M "C 2 2 21"
_symmetry_group_IT_number 20
_symmetry_cell_setting 'orthorhombic'
loop_
_space_group_symop_operation_xyz
x,y,z
-x,-y,1/2+z
x,-y,-z
-x,y,1/2-z
1/2+x,1/2+y,z
1/2-x,1/2-y,1/2+z
1/2+x,1/2-y,-z
1/2-x,1/2+y,1/2-z
loop_
_atom_site_type_symbol
_atom_site_label
_atom_site_fract_x
_atom_site_fract_y
_atom_site_fract_z
Si Si1 0.296802 0.978679 0.601130
Si Si2 0.142574 0.672715 0.869439
Si Si3 0.845096 0.752543 0.831264
Si Si4 0.622478 0.566733 0.910873
Si Si5 0.661508 0.477843 0.722398
Si Si6 0.296208 0.763674 0.553242
Si Si7 0.030294 0.000620 0.602157
Si Si8 0.501902 0.721519 0.359342
O O1 0.235185 0.000998 0.673266
O O2 0.318320 0.866305 0.599618
O O3 0.266294 0.000000 0.500000
O O4 0.357783 0.057514 0.615601
O O5 0.160722 0.692724 0.763147
O O6 0.067207 0.722199 0.892663
O O7 0.197929 0.716253 0.943953
O O8 0.847295 0.863006 0.793602
O O9 0.780693 0.742831 0.902154
O O10 0.920291 0.737477 0.882409
O O11 0.658697 0.512583 0.825766
O O12 0.654713 0.672486 0.924352
O O13 0.537812 0.569198 0.893555
O O14 0.632684 0.500000 0.000000
O O15 0.592727 0.522204 0.672213
O O16 0.000111 0.892104 0.617925
O O17 0.060745 0.000000 0.500000
O O18 0.500000 0.729012 0.250000
#
# Coordination Sequence:
#
# PCOD9316339 Si02
#       8
#     8   8   8   8   8   8   8   8
#     4   9  19  32  49  70  92 126 162 196 234 279
#     4  10  17  32  52  71  96 127 163 201 241 278
#     4   9  18  32  52  76  97 123 162 206 239 278
#     4  11  20  30  47  72  99 128 156 190 241 295
#     4  10  18  31  48  70  99 123 155 196 239 285
#     4  10  20  32  47  73 102 125 157 196 242 294
#     4  10  18  28  46  72  98 124 153 191 239 290
#     4   9  17  31  52  74  93 122 168 210 236 269
#
# _framework density 16.785793999999999
#
# number of rings (size 3 to 8) (size 9 to 14) (size 15 to 20)
#    0.000    2.250    0.000    6.000    0.000    1.000 
#    0.000    0.000    0.000    6.750    0.000    8.750 
#    0.000    0.000    0.000    0.000    0.000    0.000 
#
# Total GULP energy -178250.136792 kJ/mol
# GULP energy per Si atom -5570.316775 kJ/mol
# Density = 1.674759 g / cm^3
# Si number density = 16.785794 Si / 1000 Ang^3
#
#
#
# Elastic Constant Matrix: (Units=GPa)
#
#
# Indices 1 2 3 4 5 6 
#
# 1 83.4220 52.7492 30.3666 0.0000 0.0000 0.0000
# 2 52.7492 69.9042 17.6095 0.0000 0.0000 0.0000
# 3 30.3666 17.6095 74.6968 0.0000 0.0000 0.0000
# 4 0.0000 0.0000 0.0000 14.3282 0.0000 0.0000
# 5 0.0000 0.0000 0.0000 0.0000 21.2497 0.0000
# 6 0.0000 0.0000 0.0000 0.0000 0.0000 23.7438
#
#
#
# Elastic Compliance Matrix: (Units=1/GPa)
#
#
# Indices 1 2 3 4 5 6 
#
# 1 0.025338 -0.017568 -0.006159 0.000000 0.000000 0.000000
# 2 -0.017568 0.027390 0.000685 0.000000 0.000000 0.000000
# 3 -0.006159 0.000685 0.015730 0.000000 0.000000 0.000000
# 4 0.000000 0.000000 0.000000 0.069792 0.000000 0.000000
# 5 0.000000 0.000000 0.000000 0.000000 0.047060 0.000000
# 6 0.000000 0.000000 0.000000 0.000000 0.000000 0.042116
#
#
# Mechanical properties :
#
#
# Convention : Reuss Voigt Hill
#
# Bulk Modulus (GPa) = 44.69703 47.71929 46.20816
# Shear Modulus (GPa) = 17.79564 20.35086 19.07325
#
# Velocity S-wave (km/s) = 3.25954 3.48571 3.37452
# Velocity P-wave (km/s) = 6.39155 6.68508 6.53996
#
# Compressibility (1/GPa) = 0.02237285
#
# Stress axis : x y z
#
# Youngs Moduli (GPa) = 39.46644 36.51008 63.57365
#
# Poissons Ratio (x) = 0.64142 0.39155
# Poissons Ratio (y) = 0.69336 -0.04355
# Poissons Ratio (z) = 0.24307 -0.02501
#
# Static dielectric constant tensor:
#      x y z
#    x 1.605200 0.000000 0.000000 
#    y 0.000000 1.578170 0.000000 
#    z 0.000000 0.000000 1.582370 
# 
# From -- ./inp_files/21555.got.cif
#   From: 2010.05.17/outbox.cif.g08.bks.cpg/sg20_11_cif.got.tgz:21555.got - 2010.06.03 22:52:26.
