data_PCOD9316805
_publ_section_title
;
Structure prediction by ZEFSAII (Michael W. Deem and Ramdas Pophale) SiO2 
 PCOD9316805
Probable space group: C 2 2 21
;
_chemical_formula_sum "Si O2"
_cell_formula_units_Z 48
_cell_length_a 9.089766
_cell_length_b 18.083550
_cell_length_c 14.840144
_cell_angle_alpha 90.000000
_cell_angle_beta 90.000000
_cell_angle_gamma 90.000000
_cell_volume 2439.352201
_symmetry_space_group_name_H-M "C 2 2 21"
_symmetry_group_IT_number 20
_symmetry_cell_setting 'orthorhombic'
loop_
_space_group_symop_operation_xyz
x,y,z
-x,-y,1/2+z
x,-y,-z
-x,y,1/2-z
1/2+x,1/2+y,z
1/2-x,1/2-y,1/2+z
1/2+x,1/2-y,-z
1/2-x,1/2+y,1/2-z
loop_
_atom_site_type_symbol
_atom_site_label
_atom_site_fract_x
_atom_site_fract_y
_atom_site_fract_z
Si Si1 0.229055 0.525941 0.603927
Si Si2 0.000000 0.205203 0.750000
Si Si3 0.322434 0.302021 0.413253
Si Si4 0.500000 0.942511 0.250000
Si Si5 0.044238 0.970813 0.604374
Si Si6 0.111631 0.176884 0.469161
Si Si7 0.731826 0.393734 0.356502
O O1 0.197037 0.500000 0.500000
O O2 0.269863 0.613760 0.605277
O O3 0.097845 0.514491 0.675369
O O4 0.378443 0.485507 0.636274
O O5 0.098621 0.239289 0.828775
O O6 0.115850 0.154965 0.697440
O O7 0.185922 0.252753 0.441770
O O8 0.451927 0.309978 0.486639
O O9 0.388209 0.893916 0.309467
O O10 0.087672 0.885636 0.605877
O O11 0.036842 0.000000 0.500000
O O12 0.166325 0.023657 0.646300
O O13 0.219593 0.138275 0.542941
#
# Coordination Sequence:
#
# PCOD9316805 Si02
#       7
#     8   4   8   4   8   8   8
#     4  11  21  41  69  94 128 170 232 273 324 396
#     4  10  18  38  65  85 128 172 222 262 326 404
#     4  11  21  39  65  98 125 177 220 274 327 402
#     4  12  24  34  63 103 130 162 220 290 320 386
#     4   9  16  39  64  88 116 173 224 262 321 398
#     4  10  22  36  65  95 128 169 218 272 337 392
#     4  10  19  36  61  89 122 171 222 265 317 395
#
# _framework density 19.677354999999999
#
# number of rings (size 3 to 8) (size 9 to 14) (size 15 to 20)
#    0.000    1.667    8.333    0.000    2.333    2.000 
#    0.000    0.833    3.667    3.000    0.000    0.000 
#    0.000    0.000    0.000    0.000    0.000    0.000 
#
# Total GULP energy -133753.625161 kJ/mol
# GULP energy per Si atom -5573.067715 kJ/mol
# Density = 1.963257 g / cm^3
# Si number density = 19.677355 Si / 1000 Ang^3
#
#
#
# Elastic Constant Matrix: (Units=GPa)
#
#
# Indices 1 2 3 4 5 6 
#
# 1 106.4232 26.8884 29.0528 0.0000 0.0000 0.0000
# 2 26.8884 51.1705 12.0494 0.0000 0.0000 0.0000
# 3 29.0528 12.0494 47.9358 0.0000 0.0000 0.0000
# 4 0.0000 0.0000 0.0000 0.1030 0.0000 0.0000
# 5 0.0000 0.0000 0.0000 0.0000 43.2306 0.0000
# 6 0.0000 0.0000 0.0000 0.0000 0.0000 29.9602
#
#
#
# Elastic Compliance Matrix: (Units=1/GPa)
#
#
# Indices 1 2 3 4 5 6 
#
# 1 0.012369 -0.005032 -0.006232 0.000000 0.000000 0.000000
# 2 -0.005032 0.022819 -0.002686 0.000000 0.000000 0.000000
# 3 -0.006232 -0.002686 0.025313 0.000000 0.000000 0.000000
# 4 0.000000 0.000000 0.000000 9.710976 0.000000 0.000000
# 5 0.000000 0.000000 0.000000 0.000000 0.023132 0.000000
# 6 0.000000 0.000000 0.000000 0.000000 0.000000 0.033378
#
#
# Mechanical properties :
#
#
# Convention : Reuss Voigt Hill
#
# Bulk Modulus (GPa) = 30.67319 37.94562 34.30941
# Shear Modulus (GPa) = 0.50675 23.82802 12.16738
#
# Velocity S-wave (km/s) = 0.50803 3.48363 2.48935
# Velocity P-wave (km/s) = 3.99575 5.95874 5.07310
#
# Compressibility (1/GPa) = 0.03260176
#
# Stress axis : x y z
#
# Youngs Moduli (GPa) = 80.84702 43.82263 39.50486
#
# Poissons Ratio (x) = 0.22052 0.24618
# Poissons Ratio (y) = 0.40683 0.10612
# Poissons Ratio (z) = 0.50381 0.11771
#
# Static dielectric constant tensor:
#      x y z
#    x 1.687890 0.000000 0.000000 
#    y 0.000000 1.666020 0.000000 
#    z 0.000000 0.000000 1.792930 
# 
# From -- ./inp_files/21670.got.cif
#   From: 2010.05.17/outbox.cif.g08.bks.cpg/sg20_11_cif.got.tgz:21670.got - 2010.06.03 22:52:26.
