data_PCOD9316409
_publ_section_title
;
Structure prediction by ZEFSAII (Michael W. Deem and Ramdas Pophale) SiO2 
 PCOD9316409
Probable space group: C 2 2 21
;
_chemical_formula_sum "Si O2"
_cell_formula_units_Z 56
_cell_length_a 13.880080
_cell_length_b 28.299154
_cell_length_c 8.576149
_cell_angle_alpha 90.000000
_cell_angle_beta 90.000000
_cell_angle_gamma 90.000000
_cell_volume 3368.664342
_symmetry_space_group_name_H-M "C 2 2 21"
_symmetry_group_IT_number 20
_symmetry_cell_setting 'orthorhombic'
loop_
_space_group_symop_operation_xyz
x,y,z
-x,-y,1/2+z
x,-y,-z
-x,y,1/2-z
1/2+x,1/2+y,z
1/2-x,1/2-y,1/2+z
1/2+x,1/2-y,-z
1/2-x,1/2+y,1/2-z
loop_
_atom_site_type_symbol
_atom_site_label
_atom_site_fract_x
_atom_site_fract_y
_atom_site_fract_z
Si Si1 0.703070 0.766202 0.940174
Si Si2 0.324581 0.385939 0.664516
Si Si3 0.414137 0.534721 0.137765
Si Si4 0.518974 0.387678 0.073043
Si Si5 0.820140 0.310408 0.893162
Si Si6 0.604171 0.313208 0.581506
Si Si7 0.003621 0.286719 0.414921
O O1 0.685652 0.776297 0.757688
O O2 0.788648 0.803128 0.982632
O O3 0.747238 0.715224 0.984460
O O4 0.602999 0.775844 0.025458
O O5 0.339010 0.436041 0.753270
O O6 0.373410 0.387577 0.494419
O O7 0.220818 0.361749 0.650974
O O8 0.383570 0.346784 0.767607
O O9 0.500000 0.514399 0.250000
O O10 0.377737 0.500000 0.000000
O O11 0.466962 0.575265 0.039321
O O12 0.500000 0.400243 0.250000
O O13 0.466178 0.338208 0.039541
O O14 0.927334 0.311595 0.960323
O O15 0.560281 0.262377 0.617871
O O16 0.000000 0.313015 0.250000
#
# Coordination Sequence:
#
# PCOD9316409 Si02
#       7
#     8   8   8   8   8   8   8
#     4  10  19  30  43  61  84 120 166 208 244 277
#     4   9  18  32  45  62  91 127 157 192 238 283
#     4   9  17  30  47  67  93 123 154 186 228 283
#     4  10  18  26  43  67  90 120 153 188 231 281
#     4  10  20  32  45  62  90 126 167 210 249 285
#     4   9  18  30  42  57  86 123 160 201 239 278
#     4  11  20  30  44  62  86 123 169 213 246 277
#
# _framework density 16.623801
#
# number of rings (size 3 to 8) (size 9 to 14) (size 15 to 20)
#    0.000    2.286    0.000    6.429    0.000    5.714 
#    0.000    0.000    0.000    0.000    0.000    0.000 
#    0.000    0.000    0.000  331.714    0.000   16.571 
#
# Total GULP energy -155896.578420 kJ/mol
# GULP energy per Si atom -5567.734944 kJ/mol
# Density = 1.658596 g / cm^3
# Si number density = 16.623801 Si / 1000 Ang^3
#
#
#
# Elastic Constant Matrix: (Units=GPa)
#
#
# Indices 1 2 3 4 5 6 
#
# 1 84.7169 11.3681 22.8490 0.0000 0.0000 0.0000
# 2 11.3681 44.3276 13.8558 0.0000 0.0000 0.0000
# 3 22.8490 13.8558 79.8603 0.0000 0.0000 0.0000
# 4 0.0000 0.0000 0.0000 19.5800 0.0000 0.0000
# 5 0.0000 0.0000 0.0000 0.0000 22.2679 0.0000
# 6 0.0000 0.0000 0.0000 0.0000 0.0000 10.9384
#
#
#
# Elastic Compliance Matrix: (Units=1/GPa)
#
#
# Indices 1 2 3 4 5 6 
#
# 1 0.013009 -0.002297 -0.003323 0.000000 0.000000 0.000000
# 2 -0.002297 0.024259 -0.003552 0.000000 0.000000 0.000000
# 3 -0.003323 -0.003552 0.014089 0.000000 0.000000 0.000000
# 4 0.000000 0.000000 0.000000 0.051073 0.000000 0.000000
# 5 0.000000 0.000000 0.000000 0.000000 0.044908 0.000000
# 6 0.000000 0.000000 0.000000 0.000000 0.000000 0.091421
#
#
# Mechanical properties :
#
#
# Convention : Reuss Voigt Hill
#
# Bulk Modulus (GPa) = 30.29236 33.89452 32.09344
# Shear Modulus (GPa) = 18.64931 21.27936 19.96433
#
# Velocity S-wave (km/s) = 3.35303 3.58167 3.46923
# Velocity P-wave (km/s) = 5.76648 6.12681 5.94937
#
# Compressibility (1/GPa) = 0.03301162
#
# Stress axis : x y z
#
# Youngs Moduli (GPa) = 76.87195 41.22243 70.97777
#
# Poissons Ratio (x) = 0.09470 0.23588
# Poissons Ratio (y) = 0.17660 0.25208
# Poissons Ratio (z) = 0.25547 0.14641
#
# Static dielectric constant tensor:
#      x y z
#    x 1.583210 0.000000 0.000000 
#    y 0.000000 1.581730 0.000000 
#    z 0.000000 0.000000 1.642590 
# 
# From -- ./inp_files/8918.got.cif
#   From: 2010.05.17/outbox.cif.g08.bks.cpg/sg20_5_cif.got.tgz:8918.got - 2010.06.03 22:52:26.
