data_PCOD9316388
_publ_section_title
;
Structure prediction by ZEFSAII (Michael W. Deem and Ramdas Pophale) SiO2 
 PCOD9316388
Probable space group: C 2 2 21
;
_chemical_formula_sum "Si O2"
_cell_formula_units_Z 32
_cell_length_a 14.007752
_cell_length_b 10.732573
_cell_length_c 8.354504
_cell_angle_alpha 90.000000
_cell_angle_beta 90.000000
_cell_angle_gamma 90.000000
_cell_volume 1256.009622
_symmetry_space_group_name_H-M "C 2 2 21"
_symmetry_group_IT_number 20
_symmetry_cell_setting 'orthorhombic'
loop_
_space_group_symop_operation_xyz
x,y,z
-x,-y,1/2+z
x,-y,-z
-x,y,1/2-z
1/2+x,1/2+y,z
1/2-x,1/2-y,1/2+z
1/2+x,1/2-y,-z
1/2-x,1/2+y,1/2-z
loop_
_atom_site_type_symbol
_atom_site_label
_atom_site_fract_x
_atom_site_fract_y
_atom_site_fract_z
Si Si1 0.394754 0.546910 0.182144
Si Si2 0.382970 0.815645 0.096700
Si Si3 0.447366 0.132190 0.419755
Si Si4 0.298168 0.058700 0.214477
O O1 0.500000 0.525186 0.250000
O O2 0.359058 0.690411 0.187108
O O3 0.305037 0.493258 0.279893
O O4 0.391251 0.500000 0.000000
O O5 0.369101 0.938221 0.203056
O O6 0.491554 0.782694 0.038512
O O7 0.321986 0.854709 0.938720
O O8 0.500000 0.150829 0.250000
O O9 0.336666 0.130496 0.373029
O O10 0.469124 0.000000 0.500000
#
# Coordination Sequence:
#
# PCOD9316388 Si02
#       4
#     8   8   8   8
#     4  12  31  48  69 107 155 203 236 293 379 458
#     4  10  23  42  75 105 135 187 236 315 357 420
#     4  10  17  35  67 106 133 162 235 309 350 400
#     4  10  23  44  74 107 137 184 256 303 353 420
#
# _framework density 25.477511
#
# number of rings (size 3 to 8) (size 9 to 14) (size 15 to 20)
#    0.000    1.500    5.000    0.750   10.500    5.000 
#    0.000    0.000    0.000    0.000    0.000    0.000 
#    0.000    0.000    0.000    0.000    0.000    0.000 
#
# Total GULP energy -89200.036954 kJ/mol
# GULP energy per Si atom -5575.002310 kJ/mol
# Density = 2.541952 g / cm^3
# Si number density = 25.477511 Si / 1000 Ang^3
#
#
#
# Elastic Constant Matrix: (Units=GPa)
#
#
# Indices 1 2 3 4 5 6 
#
# 1 210.3012 -18.9453 36.0424 0.0000 0.0000 0.0000
# 2 -18.9453 23.7536 3.2770 0.0000 0.0000 0.0000
# 3 36.0424 3.2770 62.2220 0.0000 0.0000 0.0000
# 4 0.0000 0.0000 0.0000 19.7547 0.0000 0.0000
# 5 0.0000 0.0000 0.0000 0.0000 32.8767 0.0000
# 6 0.0000 0.0000 0.0000 0.0000 0.0000 11.8366
#
#
#
# Elastic Compliance Matrix: (Units=1/GPa)
#
#
# Indices 1 2 3 4 5 6 
#
# 1 0.005848 0.005169 -0.003660 0.000000 0.000000 0.000000
# 2 0.005169 0.046976 -0.005468 0.000000 0.000000 0.000000
# 3 -0.003660 -0.005468 0.018479 0.000000 0.000000 0.000000
# 4 0.000000 0.000000 0.000000 0.050621 0.000000 0.000000
# 5 0.000000 0.000000 0.000000 0.000000 0.030417 0.000000
# 6 0.000000 0.000000 0.000000 0.000000 0.000000 0.084484
#
#
# Mechanical properties :
#
#
# Convention : Reuss Voigt Hill
#
# Bulk Modulus (GPa) = 15.77645 37.44722 26.61183
# Shear Modulus (GPa) = 18.80612 31.28711 25.04661
#
# Velocity S-wave (km/s) = 2.71983 3.50813 3.13882
# Velocity P-wave (km/s) = 4.00862 5.58026 4.85841
#
# Compressibility (1/GPa) = 0.06338563
#
# Stress axis : x y z
#
# Youngs Moduli (GPa) = 170.99962 21.28745 54.11436
#
# Poissons Ratio (x) = -0.11004 0.19804
# Poissons Ratio (y) = -0.88391 0.29591
# Poissons Ratio (z) = 0.62581 0.11641
#
# Static dielectric constant tensor:
#      x y z
#    x 2.106300 0.000000 0.000000 
#    y 0.000000 1.970930 0.000000 
#    z 0.000000 0.000000 2.023200 
# 
# From -- ./inp_files/7843.got.cif
#   From: 2010.05.17/outbox.cif.g08.bks.cpg/sg20_4_cif.got.tgz:7843.got - 2010.06.03 22:52:26.
