data_PCOD9316756
_publ_section_title
;
Structure prediction by ZEFSAII (Michael W. Deem and Ramdas Pophale) SiO2 
 PCOD9316756
Probable space group: C 2 2 21
;
_chemical_formula_sum "Si O2"
_cell_formula_units_Z 40
_cell_length_a 13.457528
_cell_length_b 7.197245
_cell_length_c 19.081627
_cell_angle_alpha 90.000000
_cell_angle_beta 90.000000
_cell_angle_gamma 90.000000
_cell_volume 1848.191553
_symmetry_space_group_name_H-M "C 2 2 21"
_symmetry_group_IT_number 20
_symmetry_cell_setting 'orthorhombic'
loop_
_space_group_symop_operation_xyz
x,y,z
-x,-y,1/2+z
x,-y,-z
-x,y,1/2-z
1/2+x,1/2+y,z
1/2-x,1/2-y,1/2+z
1/2+x,1/2-y,-z
1/2-x,1/2+y,1/2-z
loop_
_atom_site_type_symbol
_atom_site_label
_atom_site_fract_x
_atom_site_fract_y
_atom_site_fract_z
Si Si1 0.065463 0.113390 0.107190
Si Si2 0.793965 0.031964 0.801187
Si Si3 0.500000 0.371973 0.750000
Si Si4 0.399164 0.500000 0.000000
Si Si5 0.270810 0.198416 0.073628
Si Si6 0.763592 0.139721 0.648377
O O1 0.040883 0.223980 0.179056
O O2 0.151966 0.206655 0.060486
O O3 0.123343 0.925808 0.132481
O O4 0.970126 0.063600 0.063064
O O5 0.907632 0.987819 0.780703
O O6 0.739701 0.068330 0.727287
O O7 0.753786 0.857141 0.845644
O O8 0.784670 0.208726 0.850161
O O9 0.333301 0.674747 0.977137
O O10 0.293602 0.980977 0.089052
#
# Coordination Sequence:
#
# PCOD9316756 Si02
#       6
#     8   8   4   4   8   8
#     4   9  22  40  66  96 126 177 226 264 340 400
#     4  11  17  38  67  94 132 163 211 285 326 397
#     4  10  18  36  66  96 130 168 214 280 326 388
#     4  12  22  44  68  90 142 182 218 288 338 392
#     4  10  23  40  66  91 128 183 214 271 346 385
#     4   9  20  37  64  97 123 168 220 262 338 395
#
# _framework density 21.642776999999999
#
# number of rings (size 3 to 8) (size 9 to 14) (size 15 to 20)
#    1.200    0.800    4.000    0.000    0.000    1.600 
#    0.000    7.000    4.400    0.000    0.000    0.000 
#    0.000    0.000    0.000    0.000    0.000    0.000 
#
# Total GULP energy -111374.027939 kJ/mol
# GULP energy per Si atom -5568.701397 kJ/mol
# Density = 2.159352 g / cm^3
# Si number density = 21.642777 Si / 1000 Ang^3
#
#
#
# Elastic Constant Matrix: (Units=GPa)
#
#
# Indices 1 2 3 4 5 6 
#
# 1 84.0908 13.2592 34.7049 0.0000 0.0000 0.0000
# 2 13.2592 56.8199 26.9517 0.0000 0.0000 0.0000
# 3 34.7049 26.9517 99.3480 0.0000 0.0000 0.0000
# 4 0.0000 0.0000 0.0000 28.8340 0.0000 0.0000
# 5 0.0000 0.0000 0.0000 0.0000 45.6506 0.0000
# 6 0.0000 0.0000 0.0000 0.0000 0.0000 11.6109
#
#
#
# Elastic Compliance Matrix: (Units=1/GPa)
#
#
# Indices 1 2 3 4 5 6 
#
# 1 0.013953 -0.001083 -0.004580 0.000000 0.000000 0.000000
# 2 -0.001083 0.020283 -0.005124 0.000000 0.000000 0.000000
# 3 -0.004580 -0.005124 0.013056 0.000000 0.000000 0.000000
# 4 0.000000 0.000000 0.000000 0.034681 0.000000 0.000000
# 5 0.000000 0.000000 0.000000 0.000000 0.021906 0.000000
# 6 0.000000 0.000000 0.000000 0.000000 0.000000 0.086126
#
#
# Mechanical properties :
#
#
# Convention : Reuss Voigt Hill
#
# Bulk Modulus (GPa) = 38.88595 43.34335 41.11465
# Shear Modulus (GPa) = 22.71160 28.24197 25.47679
#
# Velocity S-wave (km/s) = 3.24294 3.61628 3.43468
# Velocity P-wave (km/s) = 5.65936 6.12428 5.89640
#
# Compressibility (1/GPa) = 0.02571623
#
# Stress axis : x y z
#
# Youngs Moduli (GPa) = 71.66900 49.30298 76.59502
#
# Poissons Ratio (x) = 0.05342 0.35082
# Poissons Ratio (y) = 0.07765 0.39247
# Poissons Ratio (z) = 0.32826 0.25263
#
# Static dielectric constant tensor:
#      x y z
#    x 1.804920 0.000000 0.000000 
#    y 0.000000 1.751810 0.000000 
#    z 0.000000 0.000000 1.873330 
# 
# From -- ./inp_files/24717.got.cif
#   From: 2010.05.17/outbox.cif.g08.bks.cpg/sg20_13_cif.got.tgz:24717.got - 2010.06.03 22:52:26.
