data_PCOD9316043
_publ_section_title
;
Structure prediction by ZEFSAII (Michael W. Deem and Ramdas Pophale) SiO2 
 PCOD9316043
Probable space group: P 21 21 21
;
_chemical_formula_sum "Si O2"
_cell_formula_units_Z 32
_cell_length_a 10.931019
_cell_length_b 5.872096
_cell_length_c 19.558103
_cell_angle_alpha 90.000000
_cell_angle_beta 90.000000
_cell_angle_gamma 90.000000
_cell_volume 1255.395377
_symmetry_space_group_name_H-M "P 21 21 21"
_symmetry_group_IT_number 19
_symmetry_cell_setting 'orthorhombic'
loop_
_space_group_symop_operation_xyz
x,y,z
1/2-x,-y,1/2+z
1/2+x,1/2-y,-z
-x,1/2+y,1/2-z
loop_
_atom_site_type_symbol
_atom_site_label
_atom_site_fract_x
_atom_site_fract_y
_atom_site_fract_z
Si Si1 0.763244 0.519214 0.354793
Si Si2 0.487812 0.471375 0.062488
Si Si3 0.254448 0.333707 0.526329
Si Si4 0.903394 0.275323 0.662778
Si Si5 0.948400 0.819490 0.432631
Si Si6 0.846980 0.632761 0.113973
Si Si7 0.027701 0.812900 0.217317
Si Si8 0.006817 0.333426 0.808732
O O1 0.744152 0.380797 0.424167
O O2 0.862005 0.715661 0.373475
O O3 0.831719 0.349903 0.303020
O O4 0.632648 0.595996 0.327555
O O5 0.344611 0.480102 0.051377
O O6 0.535082 0.716541 0.086951
O O7 0.526501 0.363579 0.135411
O O8 0.543179 0.355500 0.996170
O O9 0.382892 0.455554 0.537904
O O10 0.208616 0.249494 0.453198
O O11 0.770110 0.390244 0.663431
O O12 0.996333 0.305077 0.727322
O O13 0.884317 0.005306 0.674787
O O14 0.080332 0.902147 0.405221
O O15 0.945557 0.796735 0.149003
O O16 0.009119 0.554898 0.246982
#
# Coordination Sequence:
#
# PCOD9316043 Si02
#       8
#     4   4   4   4   4   4   4   4
#     4  12  25  49  78 107 156 205 263 331 408 480
#     4  12  26  45  75 107 150 202 257 323 397 482
#     4  12  26  47  77 111 154 202 257 339 407 481
#     4  12  27  47  72 110 155 199 263 318 395 488
#     4  12  27  49  77 116 155 207 268 339 411 483
#     4  12  28  49  77 119 154 205 272 333 406 488
#     4  12  28  52  80 114 163 214 274 338 405 492
#     4  12  25  48  74 108 151 204 256 315 397 478
#
# _framework density 25.489978000000001
#
# number of rings (size 3 to 8) (size 9 to 14) (size 15 to 20)
#    0.000    0.000    5.000    4.500    3.500    2.000 
#    6.750    0.000    0.000    0.000    0.000    0.000 
#    0.000    0.000    0.000    0.000    0.000    0.000 
#
# Total GULP energy -178798.958877 kJ/mol
# GULP energy per Si atom -5587.467465 kJ/mol
# Density = 2.543196 g / cm^3
# Si number density = 25.489978 Si / 1000 Ang^3
#
#
#
# Elastic Constant Matrix: (Units=GPa)
#
#
# Indices 1 2 3 4 5 6 
#
# 1 100.3385 7.6004 11.8166 0.0000 0.0000 0.0000
# 2 7.6004 52.8193 37.3494 0.0000 0.0000 0.0000
# 3 11.8166 37.3494 95.3727 0.0000 0.0000 0.0000
# 4 0.0000 0.0000 0.0000 56.5019 0.0000 0.0000
# 5 0.0000 0.0000 0.0000 0.0000 41.4522 0.0000
# 6 0.0000 0.0000 0.0000 0.0000 0.0000 47.8956
#
#
#
# Elastic Compliance Matrix: (Units=1/GPa)
#
#
# Indices 1 2 3 4 5 6 
#
# 1 0.010138 -0.000789 -0.000947 0.000000 0.000000 0.000000
# 2 -0.000789 0.026244 -0.010180 0.000000 0.000000 0.000000
# 3 -0.000947 -0.010180 0.014589 0.000000 0.000000 0.000000
# 4 0.000000 0.000000 0.000000 0.017699 0.000000 0.000000
# 5 0.000000 0.000000 0.000000 0.000000 0.024124 0.000000
# 6 0.000000 0.000000 0.000000 0.000000 0.000000 0.020879
#
#
# Mechanical properties :
#
#
# Convention : Reuss Voigt Hill
#
# Bulk Modulus (GPa) = 36.84734 40.22927 38.53831
# Shear Modulus (GPa) = 34.11780 41.95421 38.03601
#
# Velocity S-wave (km/s) = 3.66249 4.06138 3.86708
# Velocity P-wave (km/s) = 5.68965 6.14896 5.92376
#
# Compressibility (1/GPa) = 0.02713900
#
# Stress axis : x y z
#
# Youngs Moduli (GPa) = 98.64306 38.10332 68.54408
#
# Poissons Ratio (x) = 0.03007 0.06491
# Poissons Ratio (y) = 0.07784 0.69778
# Poissons Ratio (z) = 0.09342 0.38789
#
# Static dielectric constant tensor:
#      x y z
#    x 1.739460 0.000000 0.000000 
#    y 0.000000 2.417410 0.000000 
#    z 0.000000 0.000000 2.046930 
# 
# From -- ./inp_files/7162.got.cif
#   From: 2010.05.17/outbox.cif.g08.bks.cpg/sg19_4_cif.got.tgz:7162.got - 2010.06.03 22:46:19.
