data_PCOD9316968
_publ_section_title
;
Structure prediction by ZEFSAII (Michael W. Deem and Ramdas Pophale) SiO2 
 PCOD9316968
Probable space group: C 2 2 21
;
_chemical_formula_sum "Si O2"
_cell_formula_units_Z 52
_cell_length_a 11.958186
_cell_length_b 7.708692
_cell_length_c 27.021246
_cell_angle_alpha 90.000000
_cell_angle_beta 90.000000
_cell_angle_gamma 90.000000
_cell_volume 2490.871763
_symmetry_space_group_name_H-M "C 2 2 21"
_symmetry_group_IT_number 20
_symmetry_cell_setting 'orthorhombic'
loop_
_space_group_symop_operation_xyz
x,y,z
-x,-y,1/2+z
x,-y,-z
-x,y,1/2-z
1/2+x,1/2+y,z
1/2-x,1/2-y,1/2+z
1/2+x,1/2-y,-z
1/2-x,1/2+y,1/2-z
loop_
_atom_site_type_symbol
_atom_site_label
_atom_site_fract_x
_atom_site_fract_y
_atom_site_fract_z
Si Si1 0.926104 0.401442 0.552693
Si Si2 0.162201 0.440797 0.326527
Si Si3 0.683555 0.587861 0.447035
Si Si4 0.500000 0.786326 0.250000
Si Si5 0.588489 0.491641 0.828871
Si Si6 0.905964 0.207278 0.879357
Si Si7 0.998188 0.263538 0.400648
O O1 0.941474 0.500000 0.500000
O O2 0.803294 0.317531 0.557314
O O3 0.021184 0.276247 0.573769
O O4 0.931565 0.562703 0.590538
O O5 0.294000 0.416549 0.319584
O O6 0.091215 0.407995 0.276873
O O7 0.150271 0.628575 0.352741
O O8 0.099788 0.305887 0.362854
O O9 0.691245 0.500000 0.500000
O O10 0.668361 0.444969 0.403427
O O11 0.570630 0.699833 0.446768
O O12 0.438744 0.654522 0.287983
O O13 0.488113 0.625718 0.837962
O O14 0.582730 0.383406 0.880202
#
# Coordination Sequence:
#
# PCOD9316968 Si02
#       7
#     8   8   8   4   8   8   8
#     4  10  19  32  52  78 108 141 176 214 254 299
#     4  10  21  38  57  77 105 137 171 216 265 312
#     4  10  19  32  52  78 108 141 176 214 254 299
#     4  10  24  38  54  82 104 130 174 220 264 314
#     4  10  21  38  57  77 105 137 171 216 265 312
#     4  10  21  35  55  80 104 140 179 209 255 314
#     4   9  19  35  52  76 108 138 174 215 257 307
#
# _framework density 20.876224000000001
#
# number of rings (size 3 to 8) (size 9 to 14) (size 15 to 20)
#    0.000    2.154    0.000    2.769    0.000    3.077 
#    0.000    3.077    0.000   14.769    0.000    0.000 
#    0.000    0.000    0.000    0.000    0.000    0.000 
#
# Total GULP energy -144846.011848 kJ/mol
# GULP energy per Si atom -5571.000456 kJ/mol
# Density = 2.082871 g / cm^3
# Si number density = 20.876224 Si / 1000 Ang^3
#
#
#
# Elastic Constant Matrix: (Units=GPa)
#
#
# Indices 1 2 3 4 5 6 
#
# 1 80.9259 -0.6277 15.1079 0.0000 0.0000 0.0000
# 2 -0.6277 44.0705 -5.1090 0.0000 0.0000 0.0000
# 3 15.1079 -5.1090 41.9965 0.0000 0.0000 0.0000
# 4 0.0000 0.0000 0.0000 27.1424 0.0000 0.0000
# 5 0.0000 0.0000 0.0000 0.0000 13.3686 0.0000
# 6 0.0000 0.0000 0.0000 0.0000 0.0000 11.2730
#
#
#
# Elastic Compliance Matrix: (Units=1/GPa)
#
#
# Indices 1 2 3 4 5 6 
#
# 1 0.013253 -0.000369 -0.004812 0.000000 0.000000 0.000000
# 2 -0.000369 0.023026 0.002934 0.000000 0.000000 0.000000
# 3 -0.004812 0.002934 0.025900 0.000000 0.000000 0.000000
# 4 0.000000 0.000000 0.000000 0.036843 0.000000 0.000000
# 5 0.000000 0.000000 0.000000 0.000000 0.074802 0.000000
# 6 0.000000 0.000000 0.000000 0.000000 0.000000 0.088707
#
#
# Mechanical properties :
#
#
# Convention : Reuss Voigt Hill
#
# Bulk Modulus (GPa) = 17.33619 20.63727 18.98673
# Shear Modulus (GPa) = 17.46705 20.86491 19.16598
#
# Velocity S-wave (km/s) = 2.89571 3.16485 3.03327
# Velocity P-wave (km/s) = 4.41616 4.82307 4.62409
#
# Compressibility (1/GPa) = 0.05768280
#
# Stress axis : x y z
#
# Youngs Moduli (GPa) = 75.45725 43.42957 38.61057
#
# Poissons Ratio (x) = 0.01603 0.18581
# Poissons Ratio (y) = 0.02786 -0.11328
# Poissons Ratio (z) = 0.36313 -0.12742
#
# Static dielectric constant tensor:
#      x y z
#    x 1.776590 0.000000 0.000000 
#    y 0.000000 1.739160 0.000000 
#    z 0.000000 0.000000 1.798960 
# 
# From -- ./inp_files/11098.got.cif
#   From: 2010.05.17/outbox.cif.g08.bks.cpg/sg20_6_cif.got.tgz:11098.got - 2010.06.03 22:52:26.
