data_PCOD9316427
_publ_section_title
;
Structure prediction by ZEFSAII (Michael W. Deem and Ramdas Pophale) SiO2 
 PCOD9316427
Probable space group: C 2 2 21
;
_chemical_formula_sum "Si O2"
_cell_formula_units_Z 52
_cell_length_a 25.846057
_cell_length_b 22.159332
_cell_length_c 5.620087
_cell_angle_alpha 90.000000
_cell_angle_beta 90.000000
_cell_angle_gamma 90.000000
_cell_volume 3218.800059
_symmetry_space_group_name_H-M "C 2 2 21"
_symmetry_group_IT_number 20
_symmetry_cell_setting 'orthorhombic'
loop_
_space_group_symop_operation_xyz
x,y,z
-x,-y,1/2+z
x,-y,-z
-x,y,1/2-z
1/2+x,1/2+y,z
1/2-x,1/2-y,1/2+z
1/2+x,1/2-y,-z
1/2-x,1/2+y,1/2-z
loop_
_atom_site_type_symbol
_atom_site_label
_atom_site_fract_x
_atom_site_fract_y
_atom_site_fract_z
Si Si1 0.515975 0.229130 0.004195
Si Si2 0.475865 0.908510 0.995671
Si Si3 0.816303 0.500000 0.500000
Si Si4 0.275484 0.727613 0.271928
Si Si5 0.633922 0.805295 0.046857
Si Si6 0.713570 0.117737 0.246179
Si Si7 0.636767 0.078495 0.625297
O O1 0.500000 0.257204 0.750000
O O2 0.577366 0.217518 0.018553
O O3 0.500000 0.260802 0.250000
O O4 0.486305 0.164017 0.004701
O O5 0.500000 0.931519 0.750000
O O6 0.500000 0.928815 0.250000
O O7 0.415707 0.924320 0.979297
O O8 0.785236 0.439839 0.571926
O O9 0.852447 0.479779 0.283369
O O10 0.243907 0.748404 0.512325
O O11 0.332141 0.754582 0.320308
O O12 0.265798 0.655823 0.264220
O O13 0.626142 0.863734 0.209784
O O14 0.670419 0.833191 0.840490
O O15 0.689571 0.092581 0.487491
#
# Coordination Sequence:
#
# PCOD9316427 Si02
#       7
#     8   8   4   8   8   8   8
#     4  10  18  28  45  73  94 128 163 195 250 301
#     4  10  19  30  50  68  87 123 163 210 251 288
#     4  10  24  34  54  70  92 138 178 216 262 298
#     4  10  20  33  53  79  99 125 161 214 267 306
#     4  10  19  31  51  76  98 126 167 213 253 311
#     4  10  20  35  52  69 100 126 173 212 263 305
#     4  11  19  35  53  68  94 132 174 217 252 310
#
# _framework density 16.155087999999999
#
# number of rings (size 3 to 8) (size 9 to 14) (size 15 to 20)
#    0.000    1.846    4.615    2.308    2.154    0.000 
#    0.000    0.000    3.385    0.000    0.000    0.000 
#    0.000    0.000    0.000    0.000    5.846    0.923 
#
# Total GULP energy -144835.309144 kJ/mol
# GULP energy per Si atom -5570.588813 kJ/mol
# Density = 1.611832 g / cm^3
# Si number density = 16.155088 Si / 1000 Ang^3
#
#
#
# Elastic Constant Matrix: (Units=GPa)
#
#
# Indices 1 2 3 4 5 6 
#
# 1 45.5160 33.6788 5.0996 0.0000 0.0000 0.0000
# 2 33.6788 55.0621 11.6953 0.0000 0.0000 0.0000
# 3 5.0996 11.6953 94.9515 0.0000 0.0000 0.0000
# 4 0.0000 0.0000 0.0000 29.3769 0.0000 0.0000
# 5 0.0000 0.0000 0.0000 0.0000 20.4396 0.0000
# 6 0.0000 0.0000 0.0000 0.0000 0.0000 9.8870
#
#
#
# Elastic Compliance Matrix: (Units=1/GPa)
#
#
# Indices 1 2 3 4 5 6 
#
# 1 0.040208 -0.024783 0.000893 0.000000 0.000000 0.000000
# 2 -0.024783 0.033925 -0.002848 0.000000 0.000000 0.000000
# 3 0.000893 -0.002848 0.010834 0.000000 0.000000 0.000000
# 4 0.000000 0.000000 0.000000 0.034040 0.000000 0.000000
# 5 0.000000 0.000000 0.000000 0.000000 0.048925 0.000000
# 6 0.000000 0.000000 0.000000 0.000000 0.000000 0.101143
#
#
# Mechanical properties :
#
#
# Convention : Reuss Voigt Hill
#
# Bulk Modulus (GPa) = 31.75377 32.94188 32.34783
# Shear Modulus (GPa) = 15.01288 21.61109 18.31198
#
# Velocity S-wave (km/s) = 3.05174 3.66146 3.37042
# Velocity P-wave (km/s) = 5.66708 6.18954 5.93406
#
# Compressibility (1/GPa) = 0.03149232
#
# Stress axis : x y z
#
# Youngs Moduli (GPa) = 24.87074 29.47713 92.29813
#
# Poissons Ratio (x) = 0.73053 -0.08243
# Poissons Ratio (y) = 0.61637 0.26282
# Poissons Ratio (z) = -0.02221 0.08394
#
# Static dielectric constant tensor:
#      x y z
#    x 1.534110 0.000000 0.000000 
#    y 0.000000 1.543510 0.000000 
#    z 0.000000 0.000000 1.655880 
# 
# From -- ./inp_files/2878.got.cif
#   From: 2010.05.17/outbox.cif.g08.bks.cpg/sg20_2_cif.got.tgz:2878.got - 2010.06.03 22:52:26.
