data_PCOD9316247
_publ_section_title
;
Structure prediction by ZEFSAII (Michael W. Deem and Ramdas Pophale) SiO2 
 PCOD9316247
Probable space group: C 2 2 21
;
_chemical_formula_sum "Si O2"
_cell_formula_units_Z 44
_cell_length_a 8.717286
_cell_length_b 21.996828
_cell_length_c 11.392349
_cell_angle_alpha 90.000000
_cell_angle_beta 90.000000
_cell_angle_gamma 90.000000
_cell_volume 2184.513005
_symmetry_space_group_name_H-M "C 2 2 21"
_symmetry_group_IT_number 20
_symmetry_cell_setting 'orthorhombic'
loop_
_space_group_symop_operation_xyz
x,y,z
-x,-y,1/2+z
x,-y,-z
-x,y,1/2-z
1/2+x,1/2+y,z
1/2-x,1/2-y,1/2+z
1/2+x,1/2-y,-z
1/2-x,1/2+y,1/2-z
loop_
_atom_site_type_symbol
_atom_site_label
_atom_site_fract_x
_atom_site_fract_y
_atom_site_fract_z
Si Si1 0.506703 0.863631 0.385274
Si Si2 0.534042 0.535369 0.119921
Si Si3 0.524811 0.718123 0.387695
Si Si4 0.757983 0.383461 0.564608
Si Si5 0.500000 0.857190 0.750000
Si Si6 0.253791 0.857958 0.927670
O O1 0.500000 0.880067 0.250000
O O2 0.521382 0.790291 0.397414
O O3 0.350294 0.886103 0.444243
O O4 0.653392 0.883827 0.461412
O O5 0.500000 0.507084 0.250000
O O6 0.378354 0.569960 0.082683
O O7 0.665466 0.586634 0.135303
O O8 0.576230 0.500000 0.000000
O O9 0.500000 0.703153 0.250000
O O10 0.679439 0.683223 0.423633
O O11 0.381194 0.689090 0.456691
O O12 0.889079 0.392430 0.662055
O O13 0.378149 0.826796 0.839643
#
# Coordination Sequence:
#
# PCOD9316247 Si02
#       6
#     8   8   8   8   4   8
#     4  10  22  33  53  84 128 155 193 239 290 328
#     4  11  23  42  67  90 113 147 203 246 303 365
#     4  10  17  33  55  87 119 152 202 234 277 340
#     4  10  19  36  60  82 117 156 194 236 282 355
#     4  10  16  32  60  84 104 146 194 226 282 318
#     4  10  19  36  60  82 117 156 194 236 282 355
#
# _framework density 20.141788999999999
#
# number of rings (size 3 to 8) (size 9 to 14) (size 15 to 20)
#    0.000    1.818    3.636    2.182    0.000    1.455 
#    0.000    6.364    4.000    0.000    0.000    0.000 
#    0.000    0.000    0.000    0.000    0.000    0.000 
#
# Total GULP energy -122517.795445 kJ/mol
# GULP energy per Si atom -5568.990702 kJ/mol
# Density = 2.009595 g / cm^3
# Si number density = 20.141789 Si / 1000 Ang^3
#
#
#
# Elastic Constant Matrix: (Units=GPa)
#
#
# Indices 1 2 3 4 5 6 
#
# 1 116.9396 4.8499 43.3106 0.0000 0.0000 0.0000
# 2 4.8499 19.0479 3.3712 0.0000 0.0000 0.0000
# 3 43.3106 3.3712 134.1581 0.0000 0.0000 0.0000
# 4 0.0000 0.0000 0.0000 24.1621 0.0000 0.0000
# 5 0.0000 0.0000 0.0000 0.0000 33.7916 0.0000
# 6 0.0000 0.0000 0.0000 0.0000 0.0000 9.5297
#
#
#
# Elastic Compliance Matrix: (Units=1/GPa)
#
#
# Indices 1 2 3 4 5 6 
#
# 1 0.009784 -0.001941 -0.003110 0.000000 0.000000 0.000000
# 2 -0.001941 0.053119 -0.000708 0.000000 0.000000 0.000000
# 3 -0.003110 -0.000708 0.008476 0.000000 0.000000 0.000000
# 4 0.000000 0.000000 0.000000 0.041387 0.000000 0.000000
# 5 0.000000 0.000000 0.000000 0.000000 0.029593 0.000000
# 6 0.000000 0.000000 0.000000 0.000000 0.000000 0.104936
#
#
# Mechanical properties :
#
#
# Convention : Reuss Voigt Hill
#
# Bulk Modulus (GPa) = 16.70548 41.46766 29.08657
# Shear Modulus (GPa) = 17.93627 28.07092 23.00359
#
# Velocity S-wave (km/s) = 2.98736 3.73723 3.38314
# Velocity P-wave (km/s) = 4.49567 6.26539 5.45281
#
# Compressibility (1/GPa) = 0.05986058
#
# Stress axis : x y z
#
# Youngs Moduli (GPa) = 102.21137 18.82575 117.98563
#
# Poissons Ratio (x) = 0.03654 0.36690
# Poissons Ratio (y) = 0.19836 0.08357
# Poissons Ratio (z) = 0.31785 0.01333
#
# Static dielectric constant tensor:
#      x y z
#    x 1.718450 0.000000 0.000000 
#    y 0.000000 1.720800 0.000000 
#    z 0.000000 0.000000 1.768090 
# 
# From -- ./inp_files/13007.got.cif
#   From: 2010.05.17/outbox.cif.g08.bks.cpg/sg20_7_cif.got.tgz:13007.got - 2010.06.03 22:52:26.
