data_PCOD9316694
_publ_section_title
;
Structure prediction by ZEFSAII (Michael W. Deem and Ramdas Pophale) SiO2 
 PCOD9316694
Probable space group: C 2 2 21
;
_chemical_formula_sum "Si O2"
_cell_formula_units_Z 64
_cell_length_a 9.628161
_cell_length_b 20.244885
_cell_length_c 17.628116
_cell_angle_alpha 90.000000
_cell_angle_beta 90.000000
_cell_angle_gamma 90.000000
_cell_volume 3436.090214
_symmetry_space_group_name_H-M "C 2 2 21"
_symmetry_group_IT_number 20
_symmetry_cell_setting 'orthorhombic'
loop_
_space_group_symop_operation_xyz
x,y,z
-x,-y,1/2+z
x,-y,-z
-x,y,1/2-z
1/2+x,1/2+y,z
1/2-x,1/2-y,1/2+z
1/2+x,1/2-y,-z
1/2-x,1/2+y,1/2-z
loop_
_atom_site_type_symbol
_atom_site_label
_atom_site_fract_x
_atom_site_fract_y
_atom_site_fract_z
Si Si1 0.343860 0.491538 0.219769
Si Si2 0.823436 0.206625 0.475092
Si Si3 0.645562 0.661546 0.707575
Si Si4 0.108720 0.179796 0.529404
Si Si5 0.354242 0.095011 0.209280
Si Si6 0.059190 0.051407 0.432473
Si Si7 0.738870 0.064828 0.449160
Si Si8 0.851885 0.782690 0.706331
O O1 0.500000 0.503978 0.250000
O O2 0.318556 0.413611 0.228699
O O3 0.222866 0.530346 0.260897
O O4 0.352815 0.522134 0.135730
O O5 0.720609 0.265724 0.490358
O O6 0.758133 0.134492 0.492525
O O7 0.865902 0.211252 0.385584
O O8 0.959165 0.213187 0.524677
O O9 0.500000 0.678662 0.750000
O O10 0.627523 0.658326 0.616313
O O11 0.764801 0.715771 0.723471
O O12 0.105970 0.120748 0.468382
O O13 0.500000 0.106150 0.250000
O O14 0.365454 0.082044 0.118907
O O15 0.249210 0.155800 0.225155
O O16 0.894125 0.054778 0.413601
O O17 0.067874 0.000000 0.500000
O O18 0.708326 0.000000 0.500000
O O19 0.000000 0.785763 0.750000
#
# Coordination Sequence:
#
# PCOD9316694 Si02
#       8
#     8   8   8   8   8   8   8   8
#     4  11  21  37  62  91 119 156 204 242 298 368
#     4   9  21  37  59  86 116 152 195 245 298 353
#     4  10  22  38  60  88 121 152 197 252 301 355
#     4  10  20  38  55  84 120 149 197 247 290 358
#     4  11  23  39  60  89 125 158 201 256 301 357
#     4  10  18  35  63  88 112 155 202 244 290 353
#     4   9  19  37  62  86 116 157 203 248 297 361
#     4  10  22  41  62  87 119 159 204 246 295 369
#
# _framework density 18.625821999999999
#
# number of rings (size 3 to 8) (size 9 to 14) (size 15 to 20)
#    0.000    2.000    2.500    0.750    3.500    1.500 
#    6.750    3.125    0.000    0.000    0.000    0.000 
#    0.000    0.000    0.000    0.000    0.000    0.000 
#
# Total GULP energy -178406.746071 kJ/mol
# GULP energy per Si atom -5575.210815 kJ/mol
# Density = 1.858343 g / cm^3
# Si number density = 18.625822 Si / 1000 Ang^3
#
#
#
# Elastic Constant Matrix: (Units=GPa)
#
#
# Indices 1 2 3 4 5 6 
#
# 1 97.2789 64.1649 33.6012 0.0000 0.0000 0.0000
# 2 64.1649 101.2860 33.0543 0.0000 0.0000 0.0000
# 3 33.6012 33.0543 31.8026 0.0000 0.0000 0.0000
# 4 0.0000 0.0000 0.0000 21.1074 0.0000 0.0000
# 5 0.0000 0.0000 0.0000 0.0000 19.4916 0.0000
# 6 0.0000 0.0000 0.0000 0.0000 0.0000 32.5185
#
#
#
# Elastic Compliance Matrix: (Units=1/GPa)
#
#
# Indices 1 2 3 4 5 6 
#
# 1 0.020407 -0.008916 -0.012295 0.000000 0.000000 0.000000
# 2 -0.008916 0.018836 -0.010157 0.000000 0.000000 0.000000
# 3 -0.012295 -0.010157 0.054991 0.000000 0.000000 0.000000
# 4 0.000000 0.000000 0.000000 0.047377 0.000000 0.000000
# 5 0.000000 0.000000 0.000000 0.000000 0.051304 0.000000
# 6 0.000000 0.000000 0.000000 0.000000 0.000000 0.030752
#
#
# Mechanical properties :
#
#
# Convention : Reuss Voigt Hill
#
# Bulk Modulus (GPa) = 31.74731 54.66759 43.20745
# Shear Modulus (GPa) = 16.84056 21.25998 19.05027
#
# Velocity S-wave (km/s) = 3.01017 3.38216 3.20158
# Velocity P-wave (km/s) = 5.40031 6.68328 6.07575
#
# Compressibility (1/GPa) = 0.03149873
#
# Stress axis : x y z
#
# Youngs Moduli (GPa) = 49.00227 53.08994 18.18471
#
# Poissons Ratio (x) = 0.47333 0.22358
# Poissons Ratio (y) = 0.43689 0.18471
# Poissons Ratio (z) = 0.60247 0.53926
#
# Static dielectric constant tensor:
#      x y z
#    x 1.633050 0.000000 0.000000 
#    y 0.000000 1.653530 0.000000 
#    z 0.000000 0.000000 1.660010 
# 
# From -- ./inp_files/23930.got.cif
#   From: 2010.05.17/outbox.cif.g08.bks.cpg/sg20_12_cif.got.tgz:23930.got - 2010.06.03 22:52:26.
