data_PCOD9316358
_publ_section_title
;
Structure prediction by ZEFSAII (Michael W. Deem and Ramdas Pophale) SiO2 
 PCOD9316358
Probable space group: C 2 2 21
;
_chemical_formula_sum "Si O2"
_cell_formula_units_Z 64
_cell_length_a 21.674767
_cell_length_b 10.303560
_cell_length_c 16.897779
_cell_angle_alpha 90.000000
_cell_angle_beta 90.000000
_cell_angle_gamma 90.000000
_cell_volume 3773.734723
_symmetry_space_group_name_H-M "C 2 2 21"
_symmetry_group_IT_number 20
_symmetry_cell_setting 'orthorhombic'
loop_
_space_group_symop_operation_xyz
x,y,z
-x,-y,1/2+z
x,-y,-z
-x,y,1/2-z
1/2+x,1/2+y,z
1/2-x,1/2-y,1/2+z
1/2+x,1/2-y,-z
1/2-x,1/2+y,1/2-z
loop_
_atom_site_type_symbol
_atom_site_label
_atom_site_fract_x
_atom_site_fract_y
_atom_site_fract_z
Si Si1 0.752267 0.624946 0.556383
Si Si2 0.388043 0.869523 0.448469
Si Si3 0.381976 0.619520 0.938233
Si Si4 0.000001 0.030885 0.843979
Si Si5 0.888044 0.630478 0.948470
Si Si6 0.618025 0.619520 0.938234
Si Si7 0.000000 0.721783 0.844525
Si Si8 0.247733 0.375053 0.443618
O O1 0.752638 0.500000 0.500000
O O2 0.820422 0.627372 0.593289
O O3 0.686611 0.621986 0.600925
O O4 0.750000 0.750000 0.500001
O O5 0.389425 0.750271 0.510742
O O6 0.440722 0.843421 0.384895
O O7 0.396721 0.000000 0.500000
O O8 0.438907 0.595712 0.880425
O O9 0.382639 0.500000 0.000000
O O10 0.389425 0.750271 0.989257
O O11 0.000001 0.876520 0.863455
O O12 0.000000 0.043325 0.750000
O O13 0.061094 0.095713 0.880425
O O14 0.940723 0.656580 0.884896
O O15 0.820423 0.627374 0.906712
O O16 0.896722 0.500000 0.000000
O O17 0.686611 0.621987 0.899076
O O18 0.617362 0.500000 0.000000
O O19 0.000000 0.707946 0.750000
O O20 0.247361 0.500000 0.500000
#
# Coordination Sequence:
#
# PCOD9316358 Si02
#       8
#     8   8   8   8   8   8   8   8
#     4   8  16  28  50  78 102 125 165 216 253 296
#     4  10  19  34  54  81 104 132 174 212 258 312
#     4  10  17  33  56  77 101 135 174 213 255 297
#     4  11  22  34  51  79 106 137 179 218 254 299
#     4  10  19  34  54  81 104 132 174 212 258 312
#     4  10  17  33  56  77 101 135 174 213 255 297
#     4  11  22  35  51  76 108 141 173 210 258 313
#     4   8  16  28  50  78 102 125 165 216 253 296
#
# _framework density 16.959327999999999
#
# number of rings (size 3 to 8) (size 9 to 14) (size 15 to 20)
#    0.000    2.250    2.500    1.500    0.000    0.000 
#    0.000    3.750    0.000    0.000    0.000    0.000 
#    0.000    0.000    0.000    0.000    0.000    0.000 
#
# Total GULP energy -178155.403554 kJ/mol
# GULP energy per Si atom -5567.356361 kJ/mol
# Density = 1.692073 g / cm^3
# Si number density = 16.959328 Si / 1000 Ang^3
#
#
#
# Elastic Constant Matrix: (Units=GPa)
#
#
# Indices 1 2 3 4 5 6 
#
# 1 222.5822 31.3371 64.7491 0.0000 0.0000 0.0000
# 2 31.3371 125.3065 24.7839 0.0000 0.0000 0.0000
# 3 64.7491 24.7839 46.1502 0.0000 0.0000 0.0000
# 4 0.0000 0.0000 0.0000 17.1152 0.0000 0.0000
# 5 0.0000 0.0000 0.0000 0.0000 -3.2589 0.0000
# 6 0.0000 0.0000 0.0000 0.0000 0.0000 22.8862
#
#
#
# Elastic Compliance Matrix: (Units=1/GPa)
#
#
# Indices 1 2 3 4 5 6 
#
# 1 0.007597 0.000233 -0.010784 0.000000 0.000000 0.000000
# 2 0.000233 0.008936 -0.005126 0.000000 0.000000 0.000000
# 3 -0.010784 -0.005126 0.039551 0.000000 0.000000 0.000000
# 4 0.000000 0.000000 0.000000 0.058428 0.000000 0.000000
# 5 0.000000 0.000000 0.000000 0.000000 -0.306850 0.000000
# 6 0.000000 0.000000 0.000000 0.000000 0.000000 0.043694
#
#
# Mechanical properties :
#
#
# Convention : Reuss Voigt Hill
#
# Bulk Modulus (GPa) = 40.43567 70.64213 55.53890
# Shear Modulus (GPa) = -45.85114 25.55974 -10.14570
#
# Velocity S-wave (km/s) = -5.20525 3.88638 -2.44854
# Velocity P-wave (km/s) = 3.49738 7.86656 4.98253
#
# Compressibility (1/GPa) = 0.02473064
#
# Stress axis : x y z
#
# Youngs Moduli (GPa) = 131.63327 111.90727 25.28412
#
# Poissons Ratio (x) = -0.02607 0.27265
# Poissons Ratio (y) = -0.03067 0.12960
# Poissons Ratio (z) = 1.41948 0.57361
#
# Static dielectric constant tensor:
#      x y z
#    x 1.652520 0.000000 0.000000 
#    y 0.000000 1.569350 0.000000 
#    z 0.000000 0.000000 1.503550 
# 
# From -- ./inp_files/25505.got.cif
#   From: 2010.05.17/outbox.cif.g08.bks.cpg/sg20_13_cif.got.tgz:25505.got - 2010.06.03 22:52:26.
