data_PCOD9316168
_publ_section_title
;
Structure prediction by ZEFSAII (Michael W. Deem and Ramdas Pophale) SiO2 
 PCOD9316168
Probable space group: P 21 21 21
;
_chemical_formula_sum "Si O2"
_cell_formula_units_Z 32
_cell_length_a 21.000000
_cell_length_b 12.000000
_cell_length_c 6.000000
_cell_angle_alpha 90.000000
_cell_angle_beta 90.000000
_cell_angle_gamma 90.000000
_cell_volume 1512.000000
_symmetry_space_group_name_H-M "P 21 21 21"
_symmetry_group_IT_number 19
_symmetry_cell_setting 'orthorhombic'
loop_
_space_group_symop_operation_xyz
x,y,z
1/2-x,-y,1/2+z
1/2+x,1/2-y,-z
-x,1/2+y,1/2-z
loop_
_atom_site_type_symbol
_atom_site_label
_atom_site_fract_x
_atom_site_fract_y
_atom_site_fract_z
Si Si1 0.366507 0.067537 0.410844
Si Si2 0.782362 0.018384 0.739259
Si Si3 0.700040 0.743128 0.375520
Si Si4 0.524662 0.513540 0.407538
Si Si5 0.542886 0.282292 0.634784
Si Si6 0.413295 0.202945 0.810205
Si Si7 0.843202 0.677572 0.470183
Si Si8 0.095057 0.362920 0.734168
O O1 0.320237 0.126882 0.236292
O O2 0.434374 0.027521 0.315520
O O3 0.383095 0.166300 0.578848
O O4 0.335890 0.954298 0.497671
O O5 0.799699 0.148574 0.720502
O O6 0.754342 0.988988 0.487154
O O7 0.843720 0.941434 0.783441
O O8 0.642888 0.761845 0.552621
O O9 0.772608 0.728359 0.454661
O O10 0.524133 0.386276 0.479899
O O11 0.566046 0.586067 0.579269
O O12 0.456331 0.571450 0.383617
O O13 0.480217 0.266724 0.787009
O O14 0.608708 0.306643 0.762786
O O15 0.558108 0.172436 0.490074
O O16 0.879625 0.746797 0.662402
#
# Coordination Sequence:
#
# PCOD9316168 Si02
#       8
#     4   4   4   4   4   4   4   4
#     4  11  25  44  71 104 147 182 246 314 384 457
#     4  12  29  53  76 110 158 206 265 321 388 474
#     4  11  29  46  72 108 149 196 254 312 397 460
#     4  11  24  43  68 110 135 190 243 313 381 461
#     4  12  25  43  76 104 146 192 257 316 390 464
#     4  11  25  45  70 104 146 192 243 314 388 460
#     4  12  25  48  72 105 144 193 250 311 383 472
#     4  12  26  44  77 103 149 199 256 317 389 454
#
# _framework density 21.164021000000002
#
# number of rings (size 3 to 8) (size 9 to 14) (size 15 to 20)
#    0.000    0.500    6.250    0.750    5.250    3.000 
#    0.000    0.000    0.000    0.000    0.000    0.000 
#    0.000    0.000    0.000    0.000    0.000    0.000 
#
# Total GULP energy -178485.763519 kJ/mol
# GULP energy per Si atom -5577.680110 kJ/mol
# Density = 2.111585 g / cm^3
# Si number density = 21.164021 Si / 1000 Ang^3
#
#
#
# Elastic Constant Matrix: (Units=GPa)
#
#
# Indices 1 2 3 4 5 6 
#
# 1 139.5245 30.8050 37.2297 0.0000 0.0000 0.0000
# 2 30.8050 76.0489 3.4614 0.0000 0.0000 0.0000
# 3 37.2297 3.4614 51.5149 0.0000 0.0000 0.0000
# 4 0.0000 0.0000 0.0000 31.7599 0.0000 0.0000
# 5 0.0000 0.0000 0.0000 0.0000 28.0560 0.0000
# 6 0.0000 0.0000 0.0000 0.0000 0.0000 37.6462
#
#
#
# Elastic Compliance Matrix: (Units=1/GPa)
#
#
# Indices 1 2 3 4 5 6 
#
# 1 0.009799 -0.003658 -0.006836 0.000000 0.000000 0.000000
# 2 -0.003658 0.014555 0.001666 0.000000 0.000000 0.000000
# 3 -0.006836 0.001666 0.024240 0.000000 0.000000 0.000000
# 4 0.000000 0.000000 0.000000 0.031486 0.000000 0.000000
# 5 0.000000 0.000000 0.000000 0.000000 0.035643 0.000000
# 6 0.000000 0.000000 0.000000 0.000000 0.000000 0.026563
#
#
# Mechanical properties :
#
#
# Convention : Reuss Voigt Hill
#
# Bulk Modulus (GPa) = 32.32273 45.56451 38.94362
# Shear Modulus (GPa) = 29.36756 32.53190 30.94973
#
# Velocity S-wave (km/s) = 3.72911 3.92488 3.82825
# Velocity P-wave (km/s) = 5.81785 6.48965 6.16291
#
# Compressibility (1/GPa) = 0.03093798
#
# Stress axis : x y z
#
# Youngs Moduli (GPa) = 102.05253 68.70308 41.25379
#
# Poissons Ratio (x) = 0.25132 0.28200
# Poissons Ratio (y) = 0.37332 -0.06872
# Poissons Ratio (z) = 0.69761 -0.11444
#
# Static dielectric constant tensor:
#      x y z
#    x 1.738770 0.000000 0.000000 
#    y 0.000000 1.747230 0.000000 
#    z 0.000000 0.000000 1.860270 
# 
# From -- ./inp_files/2020.got.cif
#   From: 2010.05.17/outbox.ucp.g08.bks.cvg/sg19_2_cif.got.tgz:2020.got - 2010.06.11 13:13:52.
