data_PCOD9316467
_publ_section_title
;
Structure prediction by ZEFSAII (Michael W. Deem and Ramdas Pophale) SiO2 
 PCOD9316467
Probable space group: C 2 2 21
;
_chemical_formula_sum "Si O2"
_cell_formula_units_Z 48
_cell_length_a 22.739030
_cell_length_b 5.414721
_cell_length_c 21.211759
_cell_angle_alpha 90.000000
_cell_angle_beta 90.000000
_cell_angle_gamma 90.000000
_cell_volume 2611.708502
_symmetry_space_group_name_H-M "C 2 2 21"
_symmetry_group_IT_number 20
_symmetry_cell_setting 'orthorhombic'
loop_
_space_group_symop_operation_xyz
x,y,z
-x,-y,1/2+z
x,-y,-z
-x,y,1/2-z
1/2+x,1/2+y,z
1/2-x,1/2-y,1/2+z
1/2+x,1/2-y,-z
1/2-x,1/2+y,1/2-z
loop_
_atom_site_type_symbol
_atom_site_label
_atom_site_fract_x
_atom_site_fract_y
_atom_site_fract_z
Si Si1 0.381142 0.891015 0.759994
Si Si2 0.736935 0.053864 0.212695
Si Si3 0.959309 0.253270 0.966659
Si Si4 0.169220 0.721307 0.626543
Si Si5 0.000000 0.689773 0.750000
Si Si6 0.843241 0.500000 0.000000
Si Si7 0.440595 0.481277 0.155471
O O1 0.332729 0.898118 0.705385
O O2 0.401934 0.629809 0.787367
O O3 0.348743 0.025070 0.819210
O O4 0.441082 0.030587 0.744020
O O5 0.754053 0.275546 0.261838
O O6 0.780173 0.104811 0.154529
O O7 0.984512 0.500000 0.000000
O O8 0.966822 0.222686 0.891516
O O9 0.889100 0.293619 0.975218
O O10 0.978453 0.000000 0.000000
O O11 0.189027 0.598696 0.561438
O O12 0.106437 0.857101 0.616518
O O13 0.010069 0.856455 0.688354
#
# Coordination Sequence:
#
# PCOD9316467 Si02
#       7
#     8   8   8   8   4   4   8
#     4  10  19  35  51  77 118 157 198 232 286 356
#     4  10  20  34  55  80 116 156 189 228 286 351
#     4  10  19  31  51  77 110 153 177 230 291 342
#     4  10  19  31  53  83 118 154 179 242 292 362
#     4  10  24  32  54  80 118 164 194 246 296 336
#     4  10  18  30  50  82 120 140 184 228 306 348
#     4  11  18  35  51  78 122 152 191 239 294 357
#
# _framework density 18.378775000000001
#
# number of rings (size 3 to 8) (size 9 to 14) (size 15 to 20)
#    0.500    1.333    5.000    0.500    2.333    0.000 
#    0.000    0.000    0.000    0.000    0.000    0.000 
#   45.000    1.333    0.000    0.000    0.000    0.000 
#
# Total GULP energy -133635.254003 kJ/mol
# GULP energy per Si atom -5568.135583 kJ/mol
# Density = 1.833694 g / cm^3
# Si number density = 18.378775 Si / 1000 Ang^3
#
#
#
# Elastic Constant Matrix: (Units=GPa)
#
#
# Indices 1 2 3 4 5 6 
#
# 1 72.6325 7.7179 30.7156 0.0000 0.0000 0.0000
# 2 7.7179 65.3033 14.0876 0.0000 0.0000 0.0000
# 3 30.7156 14.0876 72.2474 0.0000 0.0000 0.0000
# 4 0.0000 0.0000 0.0000 32.5466 0.0000 0.0000
# 5 0.0000 0.0000 0.0000 0.0000 10.7760 0.0000
# 6 0.0000 0.0000 0.0000 0.0000 0.0000 18.5240
#
#
#
# Elastic Compliance Matrix: (Units=1/GPa)
#
#
# Indices 1 2 3 4 5 6 
#
# 1 0.016799 -0.000464 -0.007052 0.000000 0.000000 0.000000
# 2 -0.000464 0.015998 -0.002922 0.000000 0.000000 0.000000
# 3 -0.007052 -0.002922 0.017409 0.000000 0.000000 0.000000
# 4 0.000000 0.000000 0.000000 0.030725 0.000000 0.000000
# 5 0.000000 0.000000 0.000000 0.000000 0.092799 0.000000
# 6 0.000000 0.000000 0.000000 0.000000 0.000000 0.053984
#
#
# Mechanical properties :
#
#
# Convention : Reuss Voigt Hill
#
# Bulk Modulus (GPa) = 34.09388 35.02503 34.55945
# Shear Modulus (GPa) = 19.35227 22.88013 21.11620
#
# Velocity S-wave (km/s) = 3.24847 3.53217 3.39329
# Velocity P-wave (km/s) = 5.71498 5.97777 5.84785
#
# Compressibility (1/GPa) = 0.02933078
#
# Stress axis : x y z
#
# Youngs Moduli (GPa) = 59.52618 62.50619 57.44128
#
# Poissons Ratio (x) = 0.02902 0.40505
# Poissons Ratio (y) = 0.02763 0.16785
# Poissons Ratio (z) = 0.41976 0.18265
#
# Static dielectric constant tensor:
#      x y z
#    x 1.629080 0.000000 0.000000 
#    y 0.000000 1.720200 0.000000 
#    z 0.000000 0.000000 1.695850 
# 
# From -- ./inp_files/27862.got.cif
#   From: 2010.05.17/outbox.cif.g08.bks.cpg/sg20_14_cif.got.tgz:27862.got - 2010.06.03 22:52:26.
