data_PCOD9316691
_publ_section_title
;
Structure prediction by ZEFSAII (Michael W. Deem and Ramdas Pophale) SiO2 
 PCOD9316691
Probable space group: C 2 2 21
;
_chemical_formula_sum "Si O2"
_cell_formula_units_Z 40
_cell_length_a 19.905979
_cell_length_b 7.710879
_cell_length_c 12.671467
_cell_angle_alpha 90.000000
_cell_angle_beta 90.000000
_cell_angle_gamma 90.000000
_cell_volume 1944.976358
_symmetry_space_group_name_H-M "C 2 2 21"
_symmetry_group_IT_number 20
_symmetry_cell_setting 'orthorhombic'
loop_
_space_group_symop_operation_xyz
x,y,z
-x,-y,1/2+z
x,-y,-z
-x,y,1/2-z
1/2+x,1/2+y,z
1/2-x,1/2-y,1/2+z
1/2+x,1/2-y,-z
1/2-x,1/2+y,1/2-z
loop_
_atom_site_type_symbol
_atom_site_label
_atom_site_fract_x
_atom_site_fract_y
_atom_site_fract_z
Si Si1 0.379456 0.933175 0.385549
Si Si2 0.454023 0.407676 0.604116
Si Si3 0.294100 0.192291 0.797452
Si Si4 0.841647 0.668910 0.217216
Si Si5 0.102539 0.013514 0.331980
O O1 0.439122 0.796675 0.397158
O O2 0.319595 0.832640 0.324447
O O3 0.360267 0.000000 0.500000
O O4 0.393974 0.085489 0.301105
O O5 0.427146 0.500000 0.500000
O O6 0.417662 0.481247 0.707875
O O7 0.533301 0.439619 0.612397
O O8 0.217462 0.247571 0.788710
O O9 0.339967 0.342129 0.847229
O O10 0.309912 0.999686 0.840537
O O11 0.871502 0.820288 0.146429
#
# Coordination Sequence:
#
# PCOD9316691 Si02
#       5
#     8   8   8   8   8
#     4   9  19  35  56  87 111 147 194 241 278 342
#     4  10  21  37  55  82 118 150 196 238 282 342
#     4   9  19  33  60  83 110 143 194 227 287 350
#     4  10  18  35  61  82 112 145 187 235 287 341
#     4  10  19  38  57  83 110 155 187 240 289 333
#
# _framework density 20.565801
#
# number of rings (size 3 to 8) (size 9 to 14) (size 15 to 20)
#    1.200    1.200    2.000    1.200    0.000    0.000 
#   10.800    4.000    0.000    2.400    0.000    0.000 
#    0.000    0.000    0.000    0.000    0.000    0.000 
#
# Total GULP energy -111368.991403 kJ/mol
# GULP energy per Si atom -5568.449570 kJ/mol
# Density = 2.051899 g / cm^3
# Si number density = 20.565801 Si / 1000 Ang^3
#
#
#
# Elastic Constant Matrix: (Units=GPa)
#
#
# Indices 1 2 3 4 5 6 
#
# 1 72.0267 46.3229 -10.3967 0.0000 0.0000 0.0000
# 2 46.3229 157.7396 4.4780 0.0000 0.0000 0.0000
# 3 -10.3967 4.4780 40.2888 0.0000 0.0000 0.0000
# 4 0.0000 0.0000 0.0000 2.6789 0.0000 0.0000
# 5 0.0000 0.0000 0.0000 0.0000 1.2615 0.0000
# 6 0.0000 0.0000 0.0000 0.0000 0.0000 25.6838
#
#
#
# Elastic Compliance Matrix: (Units=1/GPa)
#
#
# Indices 1 2 3 4 5 6 
#
# 1 0.018179 -0.005489 0.005301 0.000000 0.000000 0.000000
# 2 -0.005489 0.008017 -0.002308 0.000000 0.000000 0.000000
# 3 0.005301 -0.002308 0.026445 0.000000 0.000000 0.000000
# 4 0.000000 0.000000 0.000000 0.373281 0.000000 0.000000
# 5 0.000000 0.000000 0.000000 0.000000 0.792717 0.000000
# 6 0.000000 0.000000 0.000000 0.000000 0.000000 0.038935
#
#
# Mechanical properties :
#
#
# Convention : Reuss Voigt Hill
#
# Bulk Modulus (GPa) = 20.98598 38.98483 29.98541
# Shear Modulus (GPa) = 3.91099 21.23489 12.57294
#
# Velocity S-wave (km/s) = 1.38052 3.21679 2.47524
# Velocity P-wave (km/s) = 3.57317 5.72663 4.77294
#
# Compressibility (1/GPa) = 0.04765085
#
# Stress axis : x y z
#
# Youngs Moduli (GPa) = 55.00784 124.73417 37.81386
#
# Poissons Ratio (x) = 0.68468 -0.20046
# Poissons Ratio (y) = 0.30195 0.08726
# Poissons Ratio (z) = -0.29161 0.28783
#
# Static dielectric constant tensor:
#      x y z
#    x 1.709890 0.000000 0.000000 
#    y 0.000000 1.797890 0.000000 
#    z 0.000000 0.000000 1.744490 
# 
# From -- ./inp_files/18985.got.cif
#   From: 2010.05.17/outbox.cif.g08.bks.cpg/sg20_10_cif.got.tgz:18985.got - 2010.06.03 22:52:26.
