data_PCOD9316304
_publ_section_title
;
Structure prediction by ZEFSAII (Michael W. Deem and Ramdas Pophale) SiO2 
 PCOD9316304
Probable space group: C 2 2 21
;
_chemical_formula_sum "Si O2"
_cell_formula_units_Z 48
_cell_length_a 15.210890
_cell_length_b 5.535262
_cell_length_c 27.076723
_cell_angle_alpha 90.000000
_cell_angle_beta 90.000000
_cell_angle_gamma 90.000000
_cell_volume 2279.758848
_symmetry_space_group_name_H-M "C 2 2 21"
_symmetry_group_IT_number 20
_symmetry_cell_setting 'orthorhombic'
loop_
_space_group_symop_operation_xyz
x,y,z
-x,-y,1/2+z
x,-y,-z
-x,y,1/2-z
1/2+x,1/2+y,z
1/2-x,1/2-y,1/2+z
1/2+x,1/2-y,-z
1/2-x,1/2+y,1/2-z
loop_
_atom_site_type_symbol
_atom_site_label
_atom_site_fract_x
_atom_site_fract_y
_atom_site_fract_z
Si Si1 0.072758 1.000000 0.207808
Si Si2 0.872454 0.000000 0.604721
Si Si3 0.818943 0.500000 0.840275
Si Si4 0.176913 0.000000 0.638217
Si Si5 0.172777 0.500000 0.058332
Si Si6 0.675878 1.000000 0.224326
O O1 0.057667 1.000000 0.148989
O O2 0.122564 0.745606 0.215816
O O3 0.000000 1.000000 0.250000
O O4 0.122564 0.254394 0.215816
O O5 0.775069 0.000000 0.631293
O O6 0.874776 0.250640 0.574664
O O7 0.874776 0.749361 0.574664
O O8 0.868882 0.256617 0.855426
O O9 0.800593 0.500000 0.781965
O O10 0.868882 0.743383 0.855426
O O11 0.235185 0.000000 0.588667
O O12 0.245467 0.000000 0.684777
O O13 0.186477 0.500000 0.000000
#
# Coordination Sequence:
#
# PCOD9316304 Si02
#       6
#     8   8   8   8   8   8
#     4  12  23  34  47  67 104 143 160 196 248 294
#     4  10  19  34  46  74 102 124 158 206 238 289
#     4  10  18  28  51  71  97 130 157 197 232 284
#     4  10  17  29  45  73 100 124 149 205 235 282
#     4  10  18  30  49  69  99 130 155 195 251 298
#     4  12  19  33  49  70  99 137 167 187 240 289
#
# _framework density 21.054859
#
# number of rings (size 3 to 8) (size 9 to 14) (size 15 to 20)
#    0.000    1.333    6.667    3.000    0.000    0.000 
#    0.000    0.000    0.000    0.000    0.000    0.000 
#    0.000  106.667    0.000    0.000    0.000    0.000 
#
# Total GULP energy -133969.617667 kJ/mol
# GULP energy per Si atom -5582.067403 kJ/mol
# Density = 2.100694 g / cm^3
# Si number density = 21.054859 Si / 1000 Ang^3
#
#
#
# Elastic Constant Matrix: (Units=GPa)
#
#
# Indices 1 2 3 4 5 6 
#
# 1 18.2827 29.0995 9.6752 0.0000 0.0000 0.0000
# 2 29.0995 246.3074 78.1917 0.0000 0.0000 0.0000
# 3 9.6752 78.1917 165.8705 0.0000 0.0000 0.0000
# 4 0.0000 0.0000 0.0000 32.9004 0.0000 0.0000
# 5 0.0000 0.0000 0.0000 0.0000 16.2287 0.0000
# 6 0.0000 0.0000 0.0000 0.0000 0.0000 16.9174
#
#
#
# Elastic Compliance Matrix: (Units=1/GPa)
#
#
# Indices 1 2 3 4 5 6 
#
# 1 0.067370 -0.007893 -0.000209 0.000000 0.000000 0.000000
# 2 -0.007893 0.005699 -0.002226 0.000000 0.000000 0.000000
# 3 -0.000209 -0.002226 0.007090 0.000000 0.000000 0.000000
# 4 0.000000 0.000000 0.000000 0.030395 0.000000 0.000000
# 5 0.000000 0.000000 0.000000 0.000000 0.061619 0.000000
# 6 0.000000 0.000000 0.000000 0.000000 0.000000 0.059111
#
#
# Mechanical properties :
#
#
# Convention : Reuss Voigt Hill
#
# Bulk Modulus (GPa) = 16.80575 73.82148 45.31362
# Shear Modulus (GPa) = 18.39757 34.10891 26.25324
#
# Velocity S-wave (km/s) = 2.95920 4.02929 3.53497
# Velocity P-wave (km/s) = 4.43566 7.53555 6.18302
#
# Compressibility (1/GPa) = 0.05950345
#
# Stress axis : x y z
#
# Youngs Moduli (GPa) = 14.84339 175.46332 141.03516
#
# Poissons Ratio (x) = 1.38493 0.02946
# Poissons Ratio (y) = 0.11716 0.31398
# Poissons Ratio (z) = 0.00310 0.39062
#
# Static dielectric constant tensor:
#      x y z
#    x 1.794110 0.000000 0.000000 
#    y 0.000000 1.855770 0.000000 
#    z 0.000000 0.000000 1.775960 
# 
# From -- ./inp_files/29419.got.cif
#   From: 2010.05.17/outbox.cif.g08.bks.cpg/sg20_15_cif.got.tgz:29419.got - 2010.06.03 22:52:26.
