data_PCOD9316335
_publ_section_title
;
Structure prediction by ZEFSAII (Michael W. Deem and Ramdas Pophale) SiO2 
 PCOD9316335
Probable space group: C 2 2 21
;
_chemical_formula_sum "Si O2"
_cell_formula_units_Z 56
_cell_length_a 23.379922
_cell_length_b 24.722483
_cell_length_c 5.061560
_cell_angle_alpha 90.000000
_cell_angle_beta 90.000000
_cell_angle_gamma 90.000000
_cell_volume 2925.630900
_symmetry_space_group_name_H-M "C 2 2 21"
_symmetry_group_IT_number 20
_symmetry_cell_setting 'orthorhombic'
loop_
_space_group_symop_operation_xyz
x,y,z
-x,-y,1/2+z
x,-y,-z
-x,y,1/2-z
1/2+x,1/2+y,z
1/2-x,1/2-y,1/2+z
1/2+x,1/2-y,-z
1/2-x,1/2+y,1/2-z
loop_
_atom_site_type_symbol
_atom_site_label
_atom_site_fract_x
_atom_site_fract_y
_atom_site_fract_z
Si Si1 0.126289 0.130916 0.247629
Si Si2 0.937444 0.460227 0.251130
Si Si3 0.000000 0.873968 0.750000
Si Si4 0.377379 0.290131 0.247237
Si Si5 0.225659 0.275062 0.543743
Si Si6 0.750783 0.601230 0.133936
Si Si7 0.687285 0.940890 0.136804
Si Si8 0.000000 0.795270 0.250000
O O1 0.130238 0.163244 0.523809
O O2 0.183209 0.095919 0.196716
O O3 0.064147 0.100656 0.242079
O O4 0.127231 0.177147 0.020645
O O5 0.940859 0.500000 0.500000
O O6 0.878478 0.427484 0.285435
O O7 0.000000 0.431932 0.250000
O O8 0.930731 0.500000 0.000000
O O9 0.000486 0.835030 0.498620
O O10 0.332553 0.244045 0.180531
O O11 0.440564 0.264831 0.240295
O O12 0.229405 0.250646 0.251343
O O13 0.237331 0.338243 0.531123
O O14 0.785292 0.595354 0.407207
O O15 0.774962 0.563090 0.902109
O O16 0.687250 0.000000 0.000000
#
# Coordination Sequence:
#
# PCOD9316335 Si02
#       8
#     8   8   4   8   8   8   8   4
#     4  10  18  31  51  78 106 138 180 224 265 315
#     4   9  17  33  59  83 102 135 180 230 281 321
#     4   8  16  28  46  74 102 131 176 227 252 296
#     4  10  17  32  48  72 105 140 181 221 264 311
#     4  12  21  34  52  79 110 146 181 221 265 328
#     4  12  22  34  56  83 109 149 180 222 281 334
#     4  11  23  39  56  81 112 139 180 233 280 326
#     4   8  16  26  48  66  94 141 178 213 264 302
#
# _framework density 19.141169999999999
#
# number of rings (size 3 to 8) (size 9 to 14) (size 15 to 20)
#    0.000    1.714    2.857    3.857    0.000    0.000 
#    0.000    0.000    3.143    0.000    0.000    2.000 
#    0.000    1.143    0.000    0.000    0.000    0.000 
#
# Total GULP energy -155944.066882 kJ/mol
# GULP energy per Si atom -5569.430960 kJ/mol
# Density = 1.909760 g / cm^3
# Si number density = 19.141170 Si / 1000 Ang^3
#
#
#
# Elastic Constant Matrix: (Units=GPa)
#
#
# Indices 1 2 3 4 5 6 
#
# 1 201.6771 16.4168 18.8790 0.0000 0.0000 0.0000
# 2 16.4168 26.9861 5.9873 0.0000 0.0000 0.0000
# 3 18.8790 5.9873 118.3429 0.0000 0.0000 0.0000
# 4 0.0000 0.0000 0.0000 15.2559 0.0000 0.0000
# 5 0.0000 0.0000 0.0000 0.0000 26.3192 0.0000
# 6 0.0000 0.0000 0.0000 0.0000 0.0000 26.7604
#
#
#
# Elastic Compliance Matrix: (Units=1/GPa)
#
#
# Indices 1 2 3 4 5 6 
#
# 1 0.005271 -0.003054 -0.000686 0.000000 0.000000 0.000000
# 2 -0.003054 0.039247 -0.001498 0.000000 0.000000 0.000000
# 3 -0.000686 -0.001498 0.008635 0.000000 0.000000 0.000000
# 4 0.000000 0.000000 0.000000 0.065549 0.000000 0.000000
# 5 0.000000 0.000000 0.000000 0.000000 0.037995 0.000000
# 6 0.000000 0.000000 0.000000 0.000000 0.000000 0.037369
#
#
# Mechanical properties :
#
#
# Convention : Reuss Voigt Hill
#
# Bulk Modulus (GPa) = 23.43295 47.73026 35.58160
# Shear Modulus (GPa) = 22.85515 34.04862 28.45189
#
# Velocity S-wave (km/s) = 3.45922 4.22218 3.85960
# Velocity P-wave (km/s) = 5.31260 6.98277 6.20414
#
# Compressibility (1/GPa) = 0.04267495
#
# Stress axis : x y z
#
# Youngs Moduli (GPa) = 189.70608 25.47984 115.80338
#
# Poissons Ratio (x) = 0.07783 0.07949
# Poissons Ratio (y) = 0.57945 0.17351
# Poissons Ratio (z) = 0.13021 0.03818
#
# Static dielectric constant tensor:
#      x y z
#    x 1.799470 0.000000 0.000000 
#    y 0.000000 1.627700 0.000000 
#    z 0.000000 0.000000 1.660320 
# 
# From -- ./inp_files/3866.got.cif
#   From: 2010.05.17/outbox.cif.g08.bks.cpg/sg20_2_cif.got.tgz:3866.got - 2010.06.03 22:52:26.
