data_PCOD9316681
_publ_section_title
;
Structure prediction by ZEFSAII (Michael W. Deem and Ramdas Pophale) SiO2 
 PCOD9316681
Probable space group: C 2 2 21
;
_chemical_formula_sum "Si O2"
_cell_formula_units_Z 48
_cell_length_a 12.431437
_cell_length_b 8.723693
_cell_length_c 18.023644
_cell_angle_alpha 90.000000
_cell_angle_beta 90.000000
_cell_angle_gamma 90.000000
_cell_volume 1954.628864
_symmetry_space_group_name_H-M "C 2 2 21"
_symmetry_group_IT_number 20
_symmetry_cell_setting 'orthorhombic'
loop_
_space_group_symop_operation_xyz
x,y,z
-x,-y,1/2+z
x,-y,-z
-x,y,1/2-z
1/2+x,1/2+y,z
1/2-x,1/2-y,1/2+z
1/2+x,1/2-y,-z
1/2-x,1/2+y,1/2-z
loop_
_atom_site_type_symbol
_atom_site_label
_atom_site_fract_x
_atom_site_fract_y
_atom_site_fract_z
Si Si1 0.433636 0.137591 0.172974
Si Si2 0.720059 0.929165 0.931345
Si Si3 0.936957 0.813670 0.456794
Si Si4 0.015876 0.357931 0.099294
Si Si5 0.074909 0.946520 0.843957
Si Si6 0.339183 0.441713 0.204268
O O1 0.500000 0.121715 0.250000
O O2 0.504788 0.232305 0.113755
O O3 0.337190 0.258617 0.188950
O O4 0.426612 0.968210 0.136110
O O5 0.681724 0.762466 0.955843
O O6 0.612686 0.032553 0.925456
O O7 0.769186 0.956637 0.851069
O O8 0.787660 0.000000 0.000000
O O9 0.005837 0.745502 0.526177
O O10 0.918886 0.985974 0.427028
O O11 0.066787 0.236172 0.156177
O O12 0.165648 0.017986 0.790948
O O13 0.958494 0.001674 0.816742
#
# Coordination Sequence:
#
# PCOD9316681 Si02
#       6
#     8   8   8   8   8   8
#     4  10  18  35  57  79 113 148 184 242 285 343
#     4   9  20  37  56  81 113 151 193 236 290 346
#     4   9  18  38  58  81 112 155 193 233 291 349
#     4  10  21  35  60  83 109 155 201 235 286 359
#     4  10  20  36  57  87 115 149 195 240 291 353
#     4  10  20  36  55  82 118 148 188 241 297 338
#
# _framework density 24.557092000000001
#
# number of rings (size 3 to 8) (size 9 to 14) (size 15 to 20)
#    0.000    2.333    3.333    2.000    2.333    4.000 
#    0.000    1.667    0.000    6.000    0.000    0.000 
#    0.000    0.000    0.000    0.000    0.000    0.000 
#
# Total GULP energy -133606.000130 kJ/mol
# GULP energy per Si atom -5566.916672 kJ/mol
# Density = 2.450120 g / cm^3
# Si number density = 24.557092 Si / 1000 Ang^3
#
#
#
# Elastic Constant Matrix: (Units=GPa)
#
#
# Indices 1 2 3 4 5 6 
#
# 1 19.6012 -3.4607 -10.9736 0.0000 0.0000 0.0000
# 2 -3.4607 98.4170 -38.2321 0.0000 0.0000 0.0000
# 3 -10.9736 -38.2321 51.9582 0.0000 0.0000 0.0000
# 4 0.0000 0.0000 0.0000 21.9262 0.0000 0.0000
# 5 0.0000 0.0000 0.0000 0.0000 25.9081 0.0000
# 6 0.0000 0.0000 0.0000 0.0000 0.0000 26.0806
#
#
#
# Elastic Compliance Matrix: (Units=1/GPa)
#
#
# Indices 1 2 3 4 5 6 
#
# 1 0.064976 0.010664 0.021570 0.000000 0.000000 0.000000
# 2 0.010664 0.015978 0.014009 0.000000 0.000000 0.000000
# 3 0.021570 0.014009 0.034110 0.000000 0.000000 0.000000
# 4 0.000000 0.000000 0.000000 0.045608 0.000000 0.000000
# 5 0.000000 0.000000 0.000000 0.000000 0.038598 0.000000
# 6 0.000000 0.000000 0.000000 0.000000 0.000000 0.038343
#
#
# Mechanical properties :
#
#
# Convention : Reuss Voigt Hill
#
# Bulk Modulus (GPa) = 4.81813 7.18263 6.00038
# Shear Modulus (GPa) = 23.33074 29.62583 26.47829
#
# Velocity S-wave (km/s) = 3.08565 3.47710 3.28721
# Velocity P-wave (km/s) = 3.82900 4.36481 4.10566
#
# Compressibility (1/GPa) = 0.20754955
#
# Stress axis : x y z
#
# Youngs Moduli (GPa) = 15.39036 62.58609 29.31687
#
# Poissons Ratio (x) = -0.66742 -0.63236
# Poissons Ratio (y) = -0.16412 -0.41071
# Poissons Ratio (z) = -0.33197 -0.87678
#
# Static dielectric constant tensor:
#      x y z
#    x 1.941700 0.000000 0.000000 
#    y 0.000000 2.617180 0.000000 
#    z 0.000000 0.000000 1.836060 
# 
# From -- ./inp_files/24827.got.cif
#   From: 2010.05.17/outbox.cif.g08.bks.cpg/sg20_13_cif.got.tgz:24827.got - 2010.06.03 22:52:26.
