data_PCOD9317543
_publ_section_title
;
Structure prediction by ZEFSAII (Michael W. Deem and Ramdas Pophale) SiO2 
 PCOD9317543
Probable space group: C 2 2 21
;
_chemical_formula_sum "Si O2"
_cell_formula_units_Z 48
_cell_length_a 8.966725
_cell_length_b 17.551522
_cell_length_c 14.746642
_cell_angle_alpha 90.000000
_cell_angle_beta 90.000000
_cell_angle_gamma 90.000000
_cell_volume 2320.821668
_symmetry_space_group_name_H-M "C 2 2 21"
_symmetry_group_IT_number 20
_symmetry_cell_setting 'orthorhombic'
loop_
_space_group_symop_operation_xyz
x,y,z
-x,-y,1/2+z
x,-y,-z
-x,y,1/2-z
1/2+x,1/2+y,z
1/2-x,1/2-y,1/2+z
1/2+x,1/2-y,-z
1/2-x,1/2+y,1/2-z
loop_
_atom_site_type_symbol
_atom_site_label
_atom_site_fract_x
_atom_site_fract_y
_atom_site_fract_z
Si Si1 0.172320 0.691766 0.253181
Si Si2 0.950573 0.839662 0.515224
Si Si3 0.846176 0.570243 0.784932
Si Si4 0.325485 0.783062 0.093436
Si Si5 0.624742 0.444417 0.823124
Si Si6 0.621120 0.347393 0.331436
O O1 0.225208 0.729343 0.158856
O O2 0.280668 0.623992 0.278521
O O3 0.180504 0.760793 0.325611
O O4 0.000000 0.667725 0.250000
O O5 0.785680 0.815153 0.483008
O O6 0.944163 0.908047 0.586870
O O7 0.038938 0.767576 0.557199
O O8 0.041004 0.863189 0.425197
O O9 0.875836 0.645565 0.844858
O O10 0.739516 0.512963 0.838862
O O11 0.752560 0.596942 0.697163
O O12 0.000000 0.535686 0.750000
O O13 0.500000 0.467688 0.750000
O O14 0.500000 0.350640 0.250000
#
# Coordination Sequence:
#
# PCOD9317543 Si02
#       6
#     8   8   8   8   8   8
#     4  10  19  41  67  98 140 176 237 287 347 407
#     4  12  24  43  73 109 136 174 249 297 350 411
#     4  11  26  47  71  97 150 190 232 282 369 419
#     4  11  25  42  73 108 132 191 233 297 346 427
#     4  12  26  43  69 103 142 188 235 291 353 422
#     4  10  20  44  71  99 137 188 228 289 347 424
#
# _framework density 20.682331999999999
#
# number of rings (size 3 to 8) (size 9 to 14) (size 15 to 20)
#    0.000    1.000    6.667    2.000    7.000    0.667 
#    0.000    0.000    3.667    0.000    0.000    0.000 
#    0.000    0.000    0.000    0.000    0.000    0.000 
#
# Total GULP energy -134243.959539 kJ/mol
# GULP energy per Si atom -5593.498314 kJ/mol
# Density = 2.063526 g / cm^3
# Si number density = 20.682332 Si / 1000 Ang^3
#
#
#
# Elastic Constant Matrix: (Units=GPa)
#
#
# Indices 1 2 3 4 5 6 
#
# 1 78.0762 27.4342 24.0381 0.0000 0.0000 0.0000
# 2 27.4342 78.4120 32.3879 0.0000 0.0000 0.0000
# 3 24.0381 32.3879 109.1132 0.0000 0.0000 0.0000
# 4 0.0000 0.0000 0.0000 6.5615 0.0000 0.0000
# 5 0.0000 0.0000 0.0000 0.0000 32.9948 0.0000
# 6 0.0000 0.0000 0.0000 0.0000 0.0000 36.5823
#
#
#
# Elastic Compliance Matrix: (Units=1/GPa)
#
#
# Indices 1 2 3 4 5 6 
#
# 1 0.014972 -0.004418 -0.001987 0.000000 0.000000 0.000000
# 2 -0.004418 0.015839 -0.003728 0.000000 0.000000 0.000000
# 3 -0.001987 -0.003728 0.010709 0.000000 0.000000 0.000000
# 4 0.000000 0.000000 0.000000 0.152404 0.000000 0.000000
# 5 0.000000 0.000000 0.000000 0.000000 0.030308 0.000000
# 6 0.000000 0.000000 0.000000 0.000000 0.000000 0.027336
#
#
# Mechanical properties :
#
#
# Convention : Reuss Voigt Hill
#
# Bulk Modulus (GPa) = 47.04956 48.14689 47.59823
# Shear Modulus (GPa) = 17.92645 27.34380 22.63512
#
# Velocity S-wave (km/s) = 2.94726 3.63999 3.31179
# Velocity P-wave (km/s) = 5.86343 6.40280 6.13904
#
# Compressibility (1/GPa) = 0.02125418
#
# Stress axis : x y z
#
# Youngs Moduli (GPa) = 66.79124 63.13682 93.37765
#
# Poissons Ratio (x) = 0.27891 0.18556
# Poissons Ratio (y) = 0.29505 0.34813
# Poissons Ratio (z) = 0.13273 0.23538
#
# Static dielectric constant tensor:
#      x y z
#    x 1.754340 0.000000 0.000000 
#    y 0.000000 1.749380 0.000000 
#    z 0.000000 0.000000 1.731500 
# 
# From -- ./inp_files/18917.got.cif
#   From: 2010.05.17/outbox.cif.g08.bks.cpg/sg20_10_cif.got.tgz:18917.got - 2010.06.03 22:52:26.
