data_PCOD9317013
_publ_section_title
;
Structure prediction by ZEFSAII (Michael W. Deem and Ramdas Pophale) SiO2 
 PCOD9317013
Probable space group: C 2 2 21
;
_chemical_formula_sum "Si O2"
_cell_formula_units_Z 56
_cell_length_a 12.575691
_cell_length_b 10.589545
_cell_length_c 18.782633
_cell_angle_alpha 90.000000
_cell_angle_beta 90.000000
_cell_angle_gamma 90.000000
_cell_volume 2501.299122
_symmetry_space_group_name_H-M "C 2 2 21"
_symmetry_group_IT_number 20
_symmetry_cell_setting 'orthorhombic'
loop_
_space_group_symop_operation_xyz
x,y,z
-x,-y,1/2+z
x,-y,-z
-x,y,1/2-z
1/2+x,1/2+y,z
1/2-x,1/2-y,1/2+z
1/2+x,1/2-y,-z
1/2-x,1/2+y,1/2-z
loop_
_atom_site_type_symbol
_atom_site_label
_atom_site_fract_x
_atom_site_fract_y
_atom_site_fract_z
Si Si1 0.861564 0.356899 0.009261
Si Si2 0.392974 0.180630 0.495965
Si Si3 0.263652 0.327868 0.105636
Si Si4 0.445741 0.560286 0.434305
Si Si5 0.690680 0.321586 0.122249
Si Si6 0.583292 0.693955 0.198479
Si Si7 0.875856 0.071414 0.762495
O O1 0.831598 0.272379 0.940705
O O2 0.825349 0.500000 0.000000
O O3 0.802819 0.312862 0.081240
O O4 0.988281 0.356982 0.013867
O O5 0.308430 0.107848 0.544576
O O6 0.383343 0.325438 0.526733
O O7 0.371647 0.202498 0.412527
O O8 0.175965 0.269881 0.159905
O O9 0.340773 0.405778 0.156698
O O10 0.511794 0.500000 0.500000
O O11 0.371516 0.449943 0.402681
O O12 0.487843 0.629686 0.364737
O O13 0.689384 0.340315 0.206750
O O14 0.500000 0.762538 0.250000
O O15 0.634325 0.574863 0.239877
O O16 0.000000 0.104046 0.750000
#
# Coordination Sequence:
#
# PCOD9317013 Si02
#       7
#     8   8   8   8   8   8   8
#     4  11  20  34  57  79 105 147 188 219 260 323
#     4   9  18  32  53  78 102 132 176 224 262 302
#     4  10  21  37  55  80 110 140 181 229 268 319
#     4   8  14  29  52  74  96 127 175 220 255 304
#     4   9  17  33  55  77 101 136 180 218 263 327
#     4   9  18  32  52  76 106 141 176 219 270 325
#     4  10  19  33  54  78 105 139 178 223 271 320
#
# _framework density 22.388366999999999
#
# number of rings (size 3 to 8) (size 9 to 14) (size 15 to 20)
#    0.000    2.571    0.000    5.571    0.000    3.429 
#    0.000    2.857    0.000   15.429    0.000    0.000 
#    0.000    0.000    0.000    0.000    0.000    0.000 
#
# Total GULP energy -155919.876020 kJ/mol
# GULP energy per Si atom -5568.567001 kJ/mol
# Density = 2.233741 g / cm^3
# Si number density = 22.388367 Si / 1000 Ang^3
#
#
#
# Elastic Constant Matrix: (Units=GPa)
#
#
# Indices 1 2 3 4 5 6 
#
# 1 89.6044 14.3483 15.9709 0.0000 0.0000 0.0000
# 2 14.3483 44.9848 27.5570 0.0000 0.0000 0.0000
# 3 15.9709 27.5570 87.1937 0.0000 0.0000 0.0000
# 4 0.0000 0.0000 0.0000 32.7746 0.0000 0.0000
# 5 0.0000 0.0000 0.0000 0.0000 32.3252 0.0000
# 6 0.0000 0.0000 0.0000 0.0000 0.0000 -13.0163
#
#
#
# Elastic Compliance Matrix: (Units=1/GPa)
#
#
# Indices 1 2 3 4 5 6 
#
# 1 0.011863 -0.003042 -0.001212 0.000000 0.000000 0.000000
# 2 -0.003042 0.028347 -0.008402 0.000000 0.000000 0.000000
# 3 -0.001212 -0.008402 0.014346 0.000000 0.000000 0.000000
# 4 0.000000 0.000000 0.000000 0.030511 0.000000 0.000000
# 5 0.000000 0.000000 0.000000 0.000000 0.030936 0.000000
# 6 0.000000 0.000000 0.000000 0.000000 0.000000 -0.076827
#
#
# Mechanical properties :
#
#
# Convention : Reuss Voigt Hill
#
# Bulk Modulus (GPa) = 34.19282 37.50392 35.84837
# Shear Modulus (GPa) = 67.35406 21.34381 44.34894
#
# Velocity S-wave (km/s) = 5.49088 3.09098 4.45555
# Velocity P-wave (km/s) = 7.45019 5.43385 6.52043
#
# Compressibility (1/GPa) = 0.02924591
#
# Stress axis : x y z
#
# Youngs Moduli (GPa) = 84.29443 35.27757 69.70614
#
# Poissons Ratio (x) = 0.10730 0.08446
# Poissons Ratio (y) = 0.25639 0.58565
# Poissons Ratio (z) = 0.10213 0.29639
#
# Static dielectric constant tensor:
#      x y z
#    x 1.876500 0.000000 0.000000 
#    y 0.000000 1.880760 0.000000 
#    z 0.000000 0.000000 1.942160 
# 
# From -- ./inp_files/27205.got.cif
#   From: 2010.05.17/outbox.cif.g08.bks.cpg/sg20_14_cif.got.tgz:27205.got - 2010.06.03 22:52:26.
