data_PCOD9317818
_publ_section_title
;
Structure prediction by ZEFSAII (Michael W. Deem and Ramdas Pophale) SiO2 
 PCOD9317818
Probable space group: C 2 2 21
;
_chemical_formula_sum "Si O2"
_cell_formula_units_Z 64
_cell_length_a 27.439024
_cell_length_b 24.827071
_cell_length_c 4.816843
_cell_angle_alpha 90.000000
_cell_angle_beta 90.000000
_cell_angle_gamma 90.000000
_cell_volume 3281.380833
_symmetry_space_group_name_H-M "C 2 2 21"
_symmetry_group_IT_number 20
_symmetry_cell_setting 'orthorhombic'
loop_
_space_group_symop_operation_xyz
x,y,z
-x,-y,1/2+z
x,-y,-z
-x,y,1/2-z
1/2+x,1/2+y,z
1/2-x,1/2-y,1/2+z
1/2+x,1/2-y,-z
1/2-x,1/2+y,1/2-z
loop_
_atom_site_type_symbol
_atom_site_label
_atom_site_fract_x
_atom_site_fract_y
_atom_site_fract_z
Si Si1 0.558225 0.946252 0.681035
Si Si2 0.757869 0.788526 0.217024
Si Si3 0.185599 0.632710 0.458904
Si Si4 0.535467 0.283118 0.491904
Si Si5 0.447615 0.836453 0.133481
Si Si6 0.342984 0.061944 0.508209
Si Si7 0.639062 0.286626 0.490985
Si Si8 0.631936 0.212185 0.011835
O O1 0.500000 0.949394 0.750000
O O2 0.566253 0.889760 0.527208
O O3 0.599655 0.941459 0.917911
O O4 0.568847 0.000000 0.500000
O O5 0.766460 0.741913 0.451179
O O6 0.727740 0.833948 0.381617
O O7 0.808267 0.810891 0.084995
O O8 0.192655 0.588310 0.222657
O O9 0.156718 0.674356 0.249638
O O10 0.150553 0.739933 0.720612
O O11 0.500000 0.302740 0.250000
O O12 0.547881 0.218791 0.458218
O O13 0.586842 0.311714 0.570985
O O14 0.500000 0.283581 0.750000
O O15 0.500000 0.849035 0.250000
O O16 0.412415 0.821120 0.385460
O O17 0.337538 0.097889 0.786475
O O18 0.327968 0.000000 0.500000
O O19 0.622583 0.264765 0.190305
#
# Coordination Sequence:
#
# PCOD9317818 Si02
#       8
#     8   8   8   8   8   8   8   8
#     4  12  27  43  64  84 108 141 197 274 355 413
#     4  12  25  40  61  98 124 155 189 247 325 385
#     4  12  27  44  68  88 117 151 202 249 325 385
#     4  10  20  36  55  80 111 154 195 233 283 354
#     4  10  23  37  58  81 108 144 196 249 315 381
#     4  12  29  49  66  85 109 158 208 269 323 392
#     4  11  22  38  60  86 126 150 192 243 302 364
#     4  11  24  39  62  84 114 155 188 242 312 381
#
# _framework density 19.503986999999999
#
# number of rings (size 3 to 8) (size 9 to 14) (size 15 to 20)
#    0.000    0.750    1.250    6.750    8.750    0.000 
#    4.500    0.000    0.000    0.000    0.000    0.000 
#    0.000    0.000    0.000    0.000    0.000    3.750 
#
# Total GULP energy -178157.487765 kJ/mol
# GULP energy per Si atom -5567.421493 kJ/mol
# Density = 1.945959 g / cm^3
# Si number density = 19.503987 Si / 1000 Ang^3
#
#
#
# Elastic Constant Matrix: (Units=GPa)
#
#
# Indices 1 2 3 4 5 6 
#
# 1 105.1726 25.2284 23.5990 0.0000 0.0000 0.0000
# 2 25.2284 44.8809 23.5276 0.0000 0.0000 0.0000
# 3 23.5990 23.5276 104.1674 0.0000 0.0000 0.0000
# 4 0.0000 0.0000 0.0000 36.5793 0.0000 0.0000
# 5 0.0000 0.0000 0.0000 0.0000 43.6850 0.0000
# 6 0.0000 0.0000 0.0000 0.0000 0.0000 20.9827
#
#
#
# Elastic Compliance Matrix: (Units=1/GPa)
#
#
# Indices 1 2 3 4 5 6 
#
# 1 0.011133 -0.005599 -0.001258 0.000000 0.000000 0.000000
# 2 -0.005599 0.028089 -0.005076 0.000000 0.000000 0.000000
# 3 -0.001258 -0.005076 0.011031 0.000000 0.000000 0.000000
# 4 0.000000 0.000000 0.000000 0.027338 0.000000 0.000000
# 5 0.000000 0.000000 0.000000 0.000000 0.022891 0.000000
# 6 0.000000 0.000000 0.000000 0.000000 0.000000 0.047658
#
#
# Mechanical properties :
#
#
# Convention : Reuss Voigt Hill
#
# Bulk Modulus (GPa) = 37.89460 44.32566 41.11013
# Shear Modulus (GPa) = 27.65440 32.37379 30.01409
#
# Velocity S-wave (km/s) = 3.76957 4.07855 3.92710
# Velocity P-wave (km/s) = 6.19819 6.70487 6.45650
#
# Compressibility (1/GPa) = 0.02638899
#
# Stress axis : x y z
#
# Youngs Moduli (GPa) = 89.81948 35.60061 90.65107
#
# Poissons Ratio (x) = 0.19933 0.11401
# Poissons Ratio (y) = 0.50290 0.46014
# Poissons Ratio (z) = 0.11296 0.18071
#
# Static dielectric constant tensor:
#      x y z
#    x 1.997290 0.000000 0.000000 
#    y 0.000000 1.689940 0.000000 
#    z 0.000000 0.000000 1.773790 
# 
# From -- ./inp_files/4422.got.cif
#   From: 2010.05.17/outbox.cif.g08.bks.cpg/sg20_3_cif.got.tgz:4422.got - 2010.06.03 22:52:26.
