data_PCOD9317901
_publ_section_title
;
Structure prediction by ZEFSAII (Michael W. Deem and Ramdas Pophale) SiO2 
 PCOD9317901
Probable space group: C 2 2 21
;
_chemical_formula_sum "Si O2"
_cell_formula_units_Z 52
_cell_length_a 9.382507
_cell_length_b 11.214177
_cell_length_c 20.401133
_cell_angle_alpha 90.000000
_cell_angle_beta 90.000000
_cell_angle_gamma 90.000000
_cell_volume 2146.547933
_symmetry_space_group_name_H-M "C 2 2 21"
_symmetry_group_IT_number 20
_symmetry_cell_setting 'orthorhombic'
loop_
_space_group_symop_operation_xyz
x,y,z
-x,-y,1/2+z
x,-y,-z
-x,y,1/2-z
1/2+x,1/2+y,z
1/2-x,1/2-y,1/2+z
1/2+x,1/2-y,-z
1/2-x,1/2+y,1/2-z
loop_
_atom_site_type_symbol
_atom_site_label
_atom_site_fract_x
_atom_site_fract_y
_atom_site_fract_z
Si Si1 0.228628 0.426866 0.580932
Si Si2 0.897783 0.829682 0.803380
Si Si3 0.361825 0.795715 0.788084
Si Si4 0.518993 0.000000 0.000000
Si Si5 0.266986 0.557088 0.835829
Si Si6 0.753333 0.166399 0.974026
Si Si7 0.485730 0.500000 0.500000
Si Si8 0.000000 0.606820 0.750000
O O1 0.196461 0.379219 0.653537
O O2 0.235141 0.306820 0.535991
O O3 0.377814 0.489126 0.562170
O O4 0.094286 0.506033 0.559450
O O5 0.758338 0.789661 0.765856
O O6 0.000000 0.893070 0.750000
O O7 0.971211 0.701241 0.810918
O O8 0.844997 0.932166 0.850676
O O9 0.500000 0.835384 0.750000
O O10 0.376456 0.661016 0.814568
O O11 0.622214 0.112543 0.015295
O O12 0.212028 0.608239 0.904040
O O13 0.143885 0.546691 0.779500
O O14 0.905651 0.111223 0.994180
#
# Coordination Sequence:
#
# PCOD9317901 Si02
#       8
#     8   8   8   4   8   8   4   4
#     4  10  22  41  62  84 126 155 195 256 304 353
#     4   9  20  35  55  80 119 151 188 234 289 345
#     4  10  22  38  58  90 119 158 205 243 292 372
#     4  10  22  40  60  90 116 158 202 246 308 356
#     4  10  20  36  61  82 122 158 194 242 298 347
#     4  10  22  37  64  90 115 152 205 249 294 356
#     4  10  22  40  64  90 116 156 204 248 312 354
#     4   8  20  36  50  86 118 154 194 232 282 358
#
# _framework density 24.224943
#
# number of rings (size 3 to 8) (size 9 to 14) (size 15 to 20)
#    0.462    1.846    0.000    1.385    5.385    0.000 
#    0.000    0.000    6.769    0.000    0.000    0.000 
#    0.000    0.000    0.000    0.000    0.000    0.000 
#
# Total GULP energy -144837.303644 kJ/mol
# GULP energy per Si atom -5570.665525 kJ/mol
# Density = 2.416981 g / cm^3
# Si number density = 24.224943 Si / 1000 Ang^3
#
#
#
# Elastic Constant Matrix: (Units=GPa)
#
#
# Indices 1 2 3 4 5 6 
#
# 1 149.2459 21.4863 25.4221 0.0000 0.0000 0.0000
# 2 21.4863 68.1310 7.1453 0.0000 0.0000 0.0000
# 3 25.4221 7.1453 52.6269 0.0000 0.0000 0.0000
# 4 0.0000 0.0000 0.0000 48.0225 0.0000 0.0000
# 5 0.0000 0.0000 0.0000 0.0000 26.9094 0.0000
# 6 0.0000 0.0000 0.0000 0.0000 0.0000 20.1372
#
#
#
# Elastic Compliance Matrix: (Units=1/GPa)
#
#
# Indices 1 2 3 4 5 6 
#
# 1 0.007569 -0.002032 -0.003380 0.000000 0.000000 0.000000
# 2 -0.002032 0.015435 -0.001114 0.000000 0.000000 0.000000
# 3 -0.003380 -0.001114 0.020786 0.000000 0.000000 0.000000
# 4 0.000000 0.000000 0.000000 0.020824 0.000000 0.000000
# 5 0.000000 0.000000 0.000000 0.000000 0.037162 0.000000
# 6 0.000000 0.000000 0.000000 0.000000 0.000000 0.049659
#
#
# Mechanical properties :
#
#
# Convention : Reuss Voigt Hill
#
# Bulk Modulus (GPa) = 32.53434 42.01238 37.27336
# Shear Modulus (GPa) = 28.61506 33.41051 31.01279
#
# Velocity S-wave (km/s) = 3.44062 3.71776 3.58187
# Velocity P-wave (km/s) = 5.40769 5.98408 5.70317
#
# Compressibility (1/GPa) = 0.03073676
#
# Stress axis : x y z
#
# Youngs Moduli (GPa) = 132.12260 64.78620 48.10979
#
# Poissons Ratio (x) = 0.13167 0.16262
# Poissons Ratio (y) = 0.26853 0.05359
# Poissons Ratio (z) = 0.44660 0.07217
#
# Static dielectric constant tensor:
#      x y z
#    x 1.861950 0.000000 0.000000 
#    y 0.000000 2.143380 0.000000 
#    z 0.000000 0.000000 1.981080 
# 
# From -- ./inp_files/28818.got.cif
#   From: 2010.05.17/outbox.cif.g08.bks.cpg/sg20_15_cif.got.tgz:28818.got - 2010.06.03 22:52:26.
