data_PCOD9317999
_publ_section_title
;
Structure prediction by ZEFSAII (Michael W. Deem and Ramdas Pophale) SiO2 
 PCOD9317999
Probable space group: C 2 2 21
;
_chemical_formula_sum "Si O2"
_cell_formula_units_Z 64
_cell_length_a 14.407785
_cell_length_b 9.125687
_cell_length_c 24.675236
_cell_angle_alpha 90.000000
_cell_angle_beta 90.000000
_cell_angle_gamma 90.000000
_cell_volume 3244.323132
_symmetry_space_group_name_H-M "C 2 2 21"
_symmetry_group_IT_number 20
_symmetry_cell_setting 'orthorhombic'
loop_
_space_group_symop_operation_xyz
x,y,z
-x,-y,1/2+z
x,-y,-z
-x,y,1/2-z
1/2+x,1/2+y,z
1/2-x,1/2-y,1/2+z
1/2+x,1/2-y,-z
1/2-x,1/2+y,1/2-z
loop_
_atom_site_type_symbol
_atom_site_label
_atom_site_fract_x
_atom_site_fract_y
_atom_site_fract_z
Si Si1 0.781781 0.574858 0.556739
Si Si2 0.888542 0.582842 0.738930
Si Si3 0.360927 0.577216 0.847397
Si Si4 0.360927 0.922784 0.847396
Si Si5 0.388542 0.417159 0.738930
Si Si6 0.078233 0.076957 0.870217
Si Si7 0.921767 0.423044 0.629783
Si Si8 0.781781 0.925143 0.556739
O O1 0.758368 0.500000 0.500000
O O2 0.706025 0.539570 0.603030
O O3 0.877389 0.509155 0.579872
O O4 0.786896 0.750000 0.551037
O O5 0.844574 0.512922 0.792513
O O6 0.877773 0.487644 0.684961
O O7 0.000000 0.584624 0.750000
O O8 0.858167 0.750000 0.730003
O O9 0.344574 0.487078 0.792513
O O10 0.467743 0.554301 0.865305
O O11 0.350616 0.750000 0.835231
O O12 0.467743 0.945700 0.865305
O O13 0.293974 0.960430 0.896970
O O14 0.500000 0.415378 0.750000
O O15 0.377773 0.512357 0.684961
O O16 0.096272 0.250000 0.874621
O O17 0.122611 0.990846 0.920128
O O18 0.758368 0.000000 0.500000
#
# Coordination Sequence:
#
# PCOD9317999 Si02
#       8
#     8   8   8   8   8   8   8   8
#     4  11  24  41  58  80 110 145 189 234 276 327
#     4   9  17  31  55  87 117 145 181 225 274 330
#     4   9  20  38  59  83 113 148 184 226 277 331
#     4   9  20  38  59  83 113 148 184 226 277 331
#     4   9  17  31  55  87 117 145 181 225 274 330
#     4  10  20  37  60  85 114 148 184 226 277 329
#     4  10  20  37  60  85 114 148 184 226 277 329
#     4  11  24  41  58  80 110 145 189 234 276 327
#
# _framework density 19.726765
#
# number of rings (size 3 to 8) (size 9 to 14) (size 15 to 20)
#    0.000    2.250    0.000    2.250    0.000    8.000 
#    0.000    2.500    0.000    0.000    0.000    0.000 
#    0.000    0.000    0.000    0.000    0.000    0.000 
#
# Total GULP energy -178869.154912 kJ/mol
# GULP energy per Si atom -5589.661091 kJ/mol
# Density = 1.968187 g / cm^3
# Si number density = 19.726765 Si / 1000 Ang^3
#
#
#
# Elastic Constant Matrix: (Units=GPa)
#
#
# Indices 1 2 3 4 5 6 
#
# 1 65.0963 28.8245 33.3230 0.0000 0.0000 0.0000
# 2 28.8245 75.1481 49.0837 0.0000 0.0000 0.0000
# 3 33.3230 49.0837 101.1427 0.0000 0.0000 0.0000
# 4 0.0000 0.0000 0.0000 42.8746 0.0000 0.0000
# 5 0.0000 0.0000 0.0000 0.0000 25.5483 0.0000
# 6 0.0000 0.0000 0.0000 0.0000 0.0000 18.4152
#
#
#
# Elastic Compliance Matrix: (Units=1/GPa)
#
#
# Indices 1 2 3 4 5 6 
#
# 1 0.019608 -0.004834 -0.004115 0.000000 0.000000 0.000000
# 2 -0.004834 0.020674 -0.008440 0.000000 0.000000 0.000000
# 3 -0.004115 -0.008440 0.015339 0.000000 0.000000 0.000000
# 4 0.000000 0.000000 0.000000 0.023324 0.000000 0.000000
# 5 0.000000 0.000000 0.000000 0.000000 0.039142 0.000000
# 6 0.000000 0.000000 0.000000 0.000000 0.000000 0.054303
#
#
# Mechanical properties :
#
#
# Convention : Reuss Voigt Hill
#
# Bulk Modulus (GPa) = 47.97582 51.53883 49.75732
# Shear Modulus (GPa) = 23.35195 26.04468 24.69831
#
# Velocity S-wave (km/s) = 3.44433 3.63750 3.54223
# Velocity P-wave (km/s) = 6.33962 6.62004 6.48135
#
# Compressibility (1/GPa) = 0.02084384
#
# Stress axis : x y z
#
# Youngs Moduli (GPa) = 50.99837 48.36979 65.19471
#
# Poissons Ratio (x) = 0.23381 0.26825
# Poissons Ratio (y) = 0.24651 0.55027
# Poissons Ratio (z) = 0.20983 0.40826
#
# Static dielectric constant tensor:
#      x y z
#    x 1.734990 0.000000 0.000000 
#    y 0.000000 1.659080 0.000000 
#    z 0.000000 0.000000 1.653390 
# 
# From -- ./inp_files/29337.got.cif
#   From: 2010.05.17/outbox.cif.g08.bks.cpg/sg20_15_cif.got.tgz:29337.got - 2010.06.03 22:52:26.
