data_PCOD9317821
_publ_section_title
;
Structure prediction by ZEFSAII (Michael W. Deem and Ramdas Pophale) SiO2 
 PCOD9317821
Probable space group: C 2 2 21
;
_chemical_formula_sum "Si O2"
_cell_formula_units_Z 64
_cell_length_a 22.286233
_cell_length_b 16.807087
_cell_length_c 9.483554
_cell_angle_alpha 90.000000
_cell_angle_beta 90.000000
_cell_angle_gamma 90.000000
_cell_volume 3552.223118
_symmetry_space_group_name_H-M "C 2 2 21"
_symmetry_group_IT_number 20
_symmetry_cell_setting 'orthorhombic'
loop_
_space_group_symop_operation_xyz
x,y,z
-x,-y,1/2+z
x,-y,-z
-x,y,1/2-z
1/2+x,1/2+y,z
1/2-x,1/2-y,1/2+z
1/2+x,1/2-y,-z
1/2-x,1/2+y,1/2-z
loop_
_atom_site_type_symbol
_atom_site_label
_atom_site_fract_x
_atom_site_fract_y
_atom_site_fract_z
Si Si1 0.308307 0.575016 0.920035
Si Si2 0.992401 0.725316 0.410712
Si Si3 0.518663 0.926105 0.411323
Si Si4 0.873961 0.766530 0.057964
Si Si5 0.832809 0.409751 0.456444
Si Si6 0.291556 0.420954 0.411545
Si Si7 0.139799 0.756451 0.112164
Si Si8 0.846781 0.616523 0.874267
O O1 0.344728 0.650092 0.970136
O O2 0.239182 0.586208 0.962155
O O3 0.309140 0.565565 0.751669
O O4 0.333292 0.500000 0.000000
O O5 0.930733 0.773642 0.415467
O O6 0.000000 0.693481 0.250000
O O7 0.991617 0.653050 0.519896
O O8 0.054029 0.770820 0.441314
O O9 0.500000 0.932427 0.250000
O O10 0.591036 0.922745 0.425115
O O11 0.495978 0.000000 0.500000
O O12 0.853335 0.746026 0.218431
O O13 0.852133 0.703547 0.942958
O O14 0.853567 0.500000 0.500000
O O15 0.849742 0.331337 0.546323
O O16 0.849405 0.390594 0.294749
O O17 0.309783 0.500000 0.500000
O O18 0.320474 0.332264 0.441294
O O19 0.218747 0.415144 0.419242
#
# Coordination Sequence:
#
# PCOD9317821 Si02
#       8
#     8   8   8   8   8   8   8   8
#     4   9  19  35  53  77 106 135 171 216 264 314
#     4   9  19  35  53  72  98 135 172 210 257 309
#     4  11  22  34  50  74 104 137 174 213 254 306
#     4   9  19  35  55  77 102 137 177 214 260 312
#     4  10  21  34  52  79 109 140 173 213 262 313
#     4  10  21  36  55  80 106 137 175 217 265 314
#     4  10  20  36  56  77 106 139 174 217 263 311
#     4  10  21  35  53  78 107 138 176 216 258 311
#
# _framework density 18.016886
#
# number of rings (size 3 to 8) (size 9 to 14) (size 15 to 20)
#    0.000    2.250    0.000    2.250    0.000    9.000 
#    0.000    0.625    0.000    0.000    0.000    0.000 
#    0.000    0.000    0.000    0.000    0.000    0.000 
#
# Total GULP energy -178237.916369 kJ/mol
# GULP energy per Si atom -5569.934887 kJ/mol
# Density = 1.797588 g / cm^3
# Si number density = 18.016886 Si / 1000 Ang^3
#
#
#
# Elastic Constant Matrix: (Units=GPa)
#
#
# Indices 1 2 3 4 5 6 
#
# 1 59.7362 57.0870 40.8741 0.0000 0.0000 0.0000
# 2 57.0870 142.3563 66.4855 0.0000 0.0000 0.0000
# 3 40.8741 66.4855 59.5602 0.0000 0.0000 0.0000
# 4 0.0000 0.0000 0.0000 33.5309 0.0000 0.0000
# 5 0.0000 0.0000 0.0000 0.0000 17.1093 0.0000
# 6 0.0000 0.0000 0.0000 0.0000 0.0000 -97.6216
#
#
#
# Elastic Compliance Matrix: (Units=1/GPa)
#
#
# Indices 1 2 3 4 5 6 
#
# 1 0.033604 -0.005652 -0.016752 0.000000 0.000000 0.000000
# 2 -0.005652 0.015626 -0.013564 0.000000 0.000000 0.000000
# 3 -0.016752 -0.013564 0.043428 0.000000 0.000000 0.000000
# 4 0.000000 0.000000 0.000000 0.029823 0.000000 0.000000
# 5 0.000000 0.000000 0.000000 0.000000 0.058448 0.000000
# 6 0.000000 0.000000 0.000000 0.000000 0.000000 -0.010244
#
#
# Mechanical properties :
#
#
# Convention : Reuss Voigt Hill
#
# Bulk Modulus (GPa) = 48.26024 65.61622 56.93823
# Shear Modulus (GPa) = 20.03767 -2.91587 8.56090
#
# Velocity S-wave (km/s) = 3.33852 -1.27355 2.18218
# Velocity P-wave (km/s) = 6.45796 5.85967 6.16608
#
# Compressibility (1/GPa) = 0.02072099
#
# Stress axis : x y z
#
# Youngs Moduli (GPa) = 29.75823 63.99515 23.02659
#
# Poissons Ratio (x) = 0.36169 0.38575
# Poissons Ratio (y) = 0.16819 0.31234
# Poissons Ratio (z) = 0.49852 0.86806
#
# Static dielectric constant tensor:
#      x y z
#    x 1.648920 0.000000 0.000000 
#    y 0.000000 1.618900 0.000000 
#    z 0.000000 0.000000 1.611440 
# 
# From -- ./inp_files/10804.got.cif
#   From: 2010.05.17/outbox.cif.g08.bks.cpg/sg20_6_cif.got.tgz:10804.got - 2010.06.03 22:52:26.
