data_PCOD9317907
_publ_section_title
;
Structure prediction by ZEFSAII (Michael W. Deem and Ramdas Pophale) SiO2 
 PCOD9317907
Probable space group: C 2 2 21
;
_chemical_formula_sum "Si O2"
_cell_formula_units_Z 48
_cell_length_a 15.834244
_cell_length_b 9.183344
_cell_length_c 16.323735
_cell_angle_alpha 90.000000
_cell_angle_beta 90.000000
_cell_angle_gamma 90.000000
_cell_volume 2373.655684
_symmetry_space_group_name_H-M "C 2 2 21"
_symmetry_group_IT_number 20
_symmetry_cell_setting 'orthorhombic'
loop_
_space_group_symop_operation_xyz
x,y,z
-x,-y,1/2+z
x,-y,-z
-x,y,1/2-z
1/2+x,1/2+y,z
1/2-x,1/2-y,1/2+z
1/2+x,1/2-y,-z
1/2-x,1/2+y,1/2-z
loop_
_atom_site_type_symbol
_atom_site_label
_atom_site_fract_x
_atom_site_fract_y
_atom_site_fract_z
Si Si1 0.876541 0.501685 0.594763
Si Si2 0.463435 0.840285 0.158427
Si Si3 0.128947 0.929482 0.589661
Si Si4 0.809359 0.484354 0.906745
Si Si5 0.721912 0.676937 0.671076
Si Si6 0.711518 0.738170 0.861368
O O1 0.853082 0.500000 0.500000
O O2 0.966354 0.574718 0.607113
O O3 0.807941 0.596797 0.644317
O O4 0.871122 0.334615 0.624599
O O5 0.500000 0.827089 0.250000
O O6 0.441993 0.682921 0.119811
O O7 0.378355 0.937859 0.151752
O O8 0.214254 0.831036 0.594119
O O9 0.117139 0.000000 0.500000
O O10 0.148283 0.059984 0.652953
O O11 0.794582 0.319001 0.882986
O O12 0.723008 0.576920 0.896458
O O13 0.838991 0.500000 0.000000
O O14 0.726483 0.726682 0.764622
#
# Coordination Sequence:
#
# PCOD9317907 Si02
#       6
#     8   8   8   8   8   8
#     4  11  22  39  60  87 121 156 198 255 301 342
#     4  11  23  41  60  85 120 161 201 247 299 354
#     4  10  21  40  61  84 119 166 202 237 296 370
#     4  11  21  37  61  89 117 156 200 240 297 370
#     4  11  20  37  62  89 118 154 198 248 298 356
#     4  10  20  36  61  90 116 153 198 247 302 360
#
# _framework density 20.221972999999998
#
# number of rings (size 3 to 8) (size 9 to 14) (size 15 to 20)
#    0.000    1.333    0.000   10.500    0.000    0.000 
#    0.000    8.333    0.000    0.000    0.000    0.000 
#    0.000    0.000    0.000    0.000    0.000    0.000 
#
# Total GULP energy -134026.604091 kJ/mol
# GULP energy per Si atom -5584.441837 kJ/mol
# Density = 2.017595 g / cm^3
# Si number density = 20.221973 Si / 1000 Ang^3
#
#
#
# Elastic Constant Matrix: (Units=GPa)
#
#
# Indices 1 2 3 4 5 6 
#
# 1 63.2057 40.3240 14.8941 0.0000 0.0000 0.0000
# 2 40.3240 114.5388 -1.9885 0.0000 0.0000 0.0000
# 3 14.8941 -1.9885 94.0430 0.0000 0.0000 0.0000
# 4 0.0000 0.0000 0.0000 41.3351 0.0000 0.0000
# 5 0.0000 0.0000 0.0000 0.0000 -12.3897 0.0000
# 6 0.0000 0.0000 0.0000 0.0000 0.0000 38.0421
#
#
#
# Elastic Compliance Matrix: (Units=1/GPa)
#
#
# Indices 1 2 3 4 5 6 
#
# 1 0.021541 -0.007646 -0.003573 0.000000 0.000000 0.000000
# 2 -0.007646 0.011448 0.001453 0.000000 0.000000 0.000000
# 3 -0.003573 0.001453 0.011230 0.000000 0.000000 0.000000
# 4 0.000000 0.000000 0.000000 0.024193 0.000000 0.000000
# 5 0.000000 0.000000 0.000000 0.000000 -0.080712 0.000000
# 6 0.000000 0.000000 0.000000 0.000000 0.000000 0.026287
#
#
# Mechanical properties :
#
#
# Convention : Reuss Voigt Hill
#
# Bulk Modulus (GPa) = 40.50746 42.02740 41.26743
# Shear Modulus (GPa) = 119.77001 27.96802 73.86902
#
# Velocity S-wave (km/s) = 7.70430 3.72297 6.05049
# Velocity P-wave (km/s) = 9.96075 6.26968 8.32242
#
# Compressibility (1/GPa) = 0.02468681
#
# Stress axis : x y z
#
# Youngs Moduli (GPa) = 46.42272 87.35455 89.04661
#
# Poissons Ratio (x) = 0.66789 0.31819
# Poissons Ratio (y) = 0.35493 -0.12938
# Poissons Ratio (z) = 0.16588 -0.12692
#
# Static dielectric constant tensor:
#      x y z
#    x 1.751200 0.000000 0.000000 
#    y 0.000000 1.726430 0.000000 
#    z 0.000000 0.000000 1.722680 
# 
# From -- ./inp_files/18864.got.cif
#   From: 2010.05.17/outbox.cif.g08.bks.cpg/sg20_10_cif.got.tgz:18864.got - 2010.06.03 22:52:26.
