data_PCOD9317697
_publ_section_title
;
Structure prediction by ZEFSAII (Michael W. Deem and Ramdas Pophale) SiO2 
 PCOD9317697
Probable space group: C 2 2 21
;
_chemical_formula_sum "Si O2"
_cell_formula_units_Z 48
_cell_length_a 9.888037
_cell_length_b 30.796808
_cell_length_c 8.228802
_cell_angle_alpha 90.000000
_cell_angle_beta 90.000000
_cell_angle_gamma 90.000000
_cell_volume 2505.834596
_symmetry_space_group_name_H-M "C 2 2 21"
_symmetry_group_IT_number 20
_symmetry_cell_setting 'orthorhombic'
loop_
_space_group_symop_operation_xyz
x,y,z
-x,-y,1/2+z
x,-y,-z
-x,y,1/2-z
1/2+x,1/2+y,z
1/2-x,1/2-y,1/2+z
1/2+x,1/2-y,-z
1/2-x,1/2+y,1/2-z
loop_
_atom_site_type_symbol
_atom_site_label
_atom_site_fract_x
_atom_site_fract_y
_atom_site_fract_z
Si Si1 0.857282 0.135707 0.831636
Si Si2 0.707073 0.221726 0.871891
Si Si3 0.879048 0.959551 0.121014
Si Si4 0.624558 0.972770 0.348874
Si Si5 0.394456 0.876283 0.107555
Si Si6 0.085912 0.286891 0.493240
O O1 0.785294 0.176816 0.914705
O O2 0.873506 0.091231 0.935760
O O3 0.755087 0.124732 0.683518
O O4 0.000000 0.147590 0.750000
O O5 0.570546 0.227409 0.978279
O O6 0.653974 0.218865 0.686299
O O7 0.817413 0.259385 0.891633
O O8 0.740743 0.966628 0.217910
O O9 0.000000 0.960485 0.250000
O O10 0.896186 0.000000 0.000000
O O11 0.500000 0.992828 0.250000
O O12 0.576087 0.926525 0.423073
O O13 0.674288 0.000000 0.500000
O O14 0.500000 0.863506 0.250000
O O15 0.409453 0.838732 0.975589
#
# Coordination Sequence:
#
# PCOD9317697 Si02
#       6
#     8   8   8   8   8   8
#     4   9  18  32  54  80 101 145 190 215 262 341
#     4  10  21  35  56  79 109 138 184 226 270 327
#     4  10  20  36  59  82 112 147 188 231 277 328
#     4  10  20  34  57  85 110 145 187 227 276 331
#     4   9  16  34  54  72 106 145 180 216 263 331
#     4  10  20  36  55  81 106 142 181 227 271 322
#
# _framework density 19.155294000000001
#
# number of rings (size 3 to 8) (size 9 to 14) (size 15 to 20)
#    0.000    2.333    3.333    1.000    4.667    0.000 
#    0.000    1.667    3.667    0.000    0.000    0.000 
#    0.000    0.000    0.000    0.000    0.000    0.000 
#
# Total GULP energy -133632.124297 kJ/mol
# GULP energy per Si atom -5568.005179 kJ/mol
# Density = 1.911170 g / cm^3
# Si number density = 19.155294 Si / 1000 Ang^3
#
#
#
# Elastic Constant Matrix: (Units=GPa)
#
#
# Indices 1 2 3 4 5 6 
#
# 1 120.1239 11.4309 9.3296 0.0000 0.0000 0.0000
# 2 11.4309 107.7931 23.4120 0.0000 0.0000 0.0000
# 3 9.3296 23.4120 17.2342 0.0000 0.0000 0.0000
# 4 0.0000 0.0000 0.0000 13.8517 0.0000 0.0000
# 5 0.0000 0.0000 0.0000 0.0000 20.8921 0.0000
# 6 0.0000 0.0000 0.0000 0.0000 0.0000 35.6291
#
#
#
# Elastic Compliance Matrix: (Units=1/GPa)
#
#
# Indices 1 2 3 4 5 6 
#
# 1 0.008692 0.000142 -0.004898 0.000000 0.000000 0.000000
# 2 0.000142 0.013162 -0.017957 0.000000 0.000000 0.000000
# 3 -0.004898 -0.017957 0.085070 0.000000 0.000000 0.000000
# 4 0.000000 0.000000 0.000000 0.072194 0.000000 0.000000
# 5 0.000000 0.000000 0.000000 0.000000 0.047865 0.000000
# 6 0.000000 0.000000 0.000000 0.000000 0.000000 0.028067
#
#
# Mechanical properties :
#
#
# Convention : Reuss Voigt Hill
#
# Bulk Modulus (GPa) = 16.26090 37.05511 26.65801
# Shear Modulus (GPa) = 15.57752 27.47316 21.52534
#
# Velocity S-wave (km/s) = 2.85480 3.79124 3.35584
# Velocity P-wave (km/s) = 4.40158 6.20896 5.38169
#
# Compressibility (1/GPa) = 0.06149722
#
# Stress axis : x y z
#
# Youngs Moduli (GPa) = 115.05308 75.97525 11.75499
#
# Poissons Ratio (x) = -0.01080 0.05758
# Poissons Ratio (y) = -0.01636 0.21109
# Poissons Ratio (z) = 0.56356 1.36431
#
# Static dielectric constant tensor:
#      x y z
#    x 1.684570 0.000000 0.000000 
#    y 0.000000 1.761860 0.000000 
#    z 0.000000 0.000000 1.660270 
# 
# From -- ./inp_files/6511.got.cif
#   From: 2010.05.17/outbox.cif.g08.bks.cpg/sg20_4_cif.got.tgz:6511.got - 2010.06.03 22:52:26.
