data_PCOD9317520
_publ_section_title
;
Structure prediction by ZEFSAII (Michael W. Deem and Ramdas Pophale) SiO2 
 PCOD9317520
Probable space group: C 2 2 21
;
_chemical_formula_sum "Si O2"
_cell_formula_units_Z 40
_cell_length_a 17.226504
_cell_length_b 18.722787
_cell_length_c 5.377740
_cell_angle_alpha 90.000000
_cell_angle_beta 90.000000
_cell_angle_gamma 90.000000
_cell_volume 1734.472615
_symmetry_space_group_name_H-M "C 2 2 21"
_symmetry_group_IT_number 20
_symmetry_cell_setting 'orthorhombic'
loop_
_space_group_symop_operation_xyz
x,y,z
-x,-y,1/2+z
x,-y,-z
-x,y,1/2-z
1/2+x,1/2+y,z
1/2-x,1/2-y,1/2+z
1/2+x,1/2-y,-z
1/2-x,1/2+y,1/2-z
loop_
_atom_site_type_symbol
_atom_site_label
_atom_site_fract_x
_atom_site_fract_y
_atom_site_fract_z
Si Si1 0.919901 0.290564 0.633514
Si Si2 0.875928 0.149971 0.856857
Si Si3 0.743925 0.044261 0.739342
Si Si4 0.500000 0.545634 0.750000
Si Si5 0.500000 0.683719 0.250000
Si Si6 0.083753 0.425494 0.141745
O O1 0.873770 0.234868 0.804943
O O2 0.951870 0.236703 0.426458
O O3 0.883214 0.361931 0.530694
O O4 0.000000 0.317592 0.750000
O O5 0.793780 0.113484 0.815636
O O6 0.929605 0.099197 0.682815
O O7 0.930391 0.144293 0.102639
O O8 0.654940 0.063477 0.670927
O O9 0.775350 0.000000 0.500000
O O10 0.742959 0.000000 0.000000
O O11 0.516235 0.500000 0.500000
O O12 0.000000 0.404156 0.250000
O O13 0.070775 0.500000 0.000000
#
# Coordination Sequence:
#
# PCOD9317520 Si02
#       6
#     8   8   8   4   4   8
#     4  10  21  40  68 102 137 180 236 305 361 433
#     4  11  23  41  66  99 146 186 235 295 356 439
#     4  11  27  48  70 106 150 193 246 311 364 436
#     4  12  23  34  62  93 128 186 230 266 343 422
#     4  10  19  40  66  97 140 180 230 290 353 438
#     4  11  23  45  73 104 133 189 247 312 376 444
#
# _framework density 23.061765999999999
#
# number of rings (size 3 to 8) (size 9 to 14) (size 15 to 20)
#    0.000    1.200    4.000    3.000    2.800    1.600 
#    3.600    0.000    0.000    0.000    0.000    0.000 
#    0.000    0.000    0.000    0.000    0.000    0.000 
#
# Total GULP energy -111400.792996 kJ/mol
# GULP energy per Si atom -5570.039650 kJ/mol
# Density = 2.300928 g / cm^3
# Si number density = 23.061766 Si / 1000 Ang^3
#
#
#
# Elastic Constant Matrix: (Units=GPa)
#
#
# Indices 1 2 3 4 5 6 
#
# 1 114.9555 27.9884 13.3691 0.0000 0.0000 0.0000
# 2 27.9884 126.6829 31.2504 0.0000 0.0000 0.0000
# 3 13.3691 31.2504 91.8389 0.0000 0.0000 0.0000
# 4 0.0000 0.0000 0.0000 33.3714 0.0000 0.0000
# 5 0.0000 0.0000 0.0000 0.0000 18.9554 0.0000
# 6 0.0000 0.0000 0.0000 0.0000 0.0000 25.6386
#
#
#
# Elastic Compliance Matrix: (Units=1/GPa)
#
#
# Indices 1 2 3 4 5 6 
#
# 1 0.009236 -0.001865 -0.000710 0.000000 0.000000 0.000000
# 2 -0.001865 0.008994 -0.002789 0.000000 0.000000 0.000000
# 3 -0.000710 -0.002789 0.011941 0.000000 0.000000 0.000000
# 4 0.000000 0.000000 0.000000 0.029966 0.000000 0.000000
# 5 0.000000 0.000000 0.000000 0.000000 0.052756 0.000000
# 6 0.000000 0.000000 0.000000 0.000000 0.000000 0.039004
#
#
# Mechanical properties :
#
#
# Convention : Reuss Voigt Hill
#
# Bulk Modulus (GPa) = 51.43347 53.18814 52.31081
# Shear Modulus (GPa) = 29.56758 32.98436 31.27597
#
# Velocity S-wave (km/s) = 3.58453 3.78598 3.68663
# Velocity P-wave (km/s) = 6.28353 6.49807 6.39170
#
# Compressibility (1/GPa) = 0.01944259
#
# Stress axis : x y z
#
# Youngs Moduli (GPa) = 108.27511 111.18766 83.74576
#
# Poissons Ratio (x) = 0.20741 0.05943
# Poissons Ratio (y) = 0.20198 0.23355
# Poissons Ratio (z) = 0.07684 0.31008
#
# Static dielectric constant tensor:
#      x y z
#    x 1.910130 0.000000 0.000000 
#    y 0.000000 2.005090 0.000000 
#    z 0.000000 0.000000 2.153080 
# 
# From -- ./inp_files/2544.got.cif
#   From: 2010.05.17/outbox.cif.g08.bks.cpg/sg20_2_cif.got.tgz:2544.got - 2010.06.03 22:52:26.
