data_PCOD9317514
_publ_section_title
;
Structure prediction by ZEFSAII (Michael W. Deem and Ramdas Pophale) SiO2 
 PCOD9317514
Probable space group: C 2 2 21
;
_chemical_formula_sum "Si O2"
_cell_formula_units_Z 48
_cell_length_a 23.013833
_cell_length_b 9.731593
_cell_length_c 11.228523
_cell_angle_alpha 90.000000
_cell_angle_beta 90.000000
_cell_angle_gamma 90.000000
_cell_volume 2514.754116
_symmetry_space_group_name_H-M "C 2 2 21"
_symmetry_group_IT_number 20
_symmetry_cell_setting 'orthorhombic'
loop_
_space_group_symop_operation_xyz
x,y,z
-x,-y,1/2+z
x,-y,-z
-x,y,1/2-z
1/2+x,1/2+y,z
1/2-x,1/2-y,1/2+z
1/2+x,1/2-y,-z
1/2-x,1/2+y,1/2-z
loop_
_atom_site_type_symbol
_atom_site_label
_atom_site_fract_x
_atom_site_fract_y
_atom_site_fract_z
Si Si1 0.143839 0.689122 0.140034
Si Si2 0.350158 0.310426 0.604543
Si Si3 0.848330 0.058192 0.782983
Si Si4 0.550795 0.000000 0.000000
Si Si5 0.013211 0.230318 0.110123
Si Si6 0.218305 0.546629 0.861153
Si Si7 0.433295 0.500000 0.000000
O O1 0.123558 0.803371 0.231306
O O2 0.192102 0.590268 0.198344
O O3 0.169834 0.781701 0.031175
O O4 0.093981 0.588903 0.086061
O O5 0.337764 0.444973 0.680174
O O6 0.419548 0.309248 0.595152
O O7 0.323479 0.174982 0.666650
O O8 0.783991 0.084227 0.833457
O O9 0.891310 0.008788 0.885872
O O10 0.512266 0.110610 0.929937
O O11 0.000000 0.214528 0.250000
O O12 0.973943 0.131611 0.028464
O O13 0.214158 0.500000 0.000000
#
# Coordination Sequence:
#
# PCOD9317514 Si02
#       7
#     8   8   8   4   8   8   4
#     4  10  20  39  66  91 116 167 214 258 310 376
#     4  10  21  40  64  90 122 168 215 257 308 376
#     4  12  23  38  62  97 133 156 207 267 325 377
#     4  10  22  41  66  86 113 162 226 258 300 372
#     4  11  23  42  63  87 129 167 209 262 311 378
#     4  10  19  40  65  89 127 166 207 259 319 373
#     4  12  28  39  60 102 129 172 198 264 334 374
#
# _framework density 19.087354999999999
#
# number of rings (size 3 to 8) (size 9 to 14) (size 15 to 20)
#    0.000    1.333    6.667    1.500    4.667    1.333 
#    0.000    0.000    0.000    0.000    0.000    0.000 
#    0.000    0.000    0.000    0.000    0.000    0.000 
#
# Total GULP energy -133685.334986 kJ/mol
# GULP energy per Si atom -5570.222291 kJ/mol
# Density = 1.904391 g / cm^3
# Si number density = 19.087355 Si / 1000 Ang^3
#
#
#
# Elastic Constant Matrix: (Units=GPa)
#
#
# Indices 1 2 3 4 5 6 
#
# 1 84.6168 38.9410 13.5417 0.0000 0.0000 0.0000
# 2 38.9410 132.4033 42.5385 0.0000 0.0000 0.0000
# 3 13.5417 42.5385 26.0623 0.0000 0.0000 0.0000
# 4 0.0000 0.0000 0.0000 23.3764 0.0000 0.0000
# 5 0.0000 0.0000 0.0000 0.0000 -19.3066 0.0000
# 6 0.0000 0.0000 0.0000 0.0000 0.0000 22.5119
#
#
#
# Elastic Compliance Matrix: (Units=1/GPa)
#
#
# Indices 1 2 3 4 5 6 
#
# 1 0.013684 -0.003659 -0.001138 0.000000 0.000000 0.000000
# 2 -0.003659 0.016858 -0.025615 0.000000 0.000000 0.000000
# 3 -0.001138 -0.025615 0.080769 0.000000 0.000000 0.000000
# 4 0.000000 0.000000 0.000000 0.042778 0.000000 0.000000
# 5 0.000000 0.000000 0.000000 0.000000 -0.051796 0.000000
# 6 0.000000 0.000000 0.000000 0.000000 0.000000 0.044421
#
#
# Mechanical properties :
#
#
# Convention : Reuss Voigt Hill
#
# Bulk Modulus (GPa) = 19.80674 48.12499 33.96586
# Shear Modulus (GPa) = 22.28494 15.18710 18.73602
#
# Velocity S-wave (km/s) = 3.42061 2.82381 3.13644
# Velocity P-wave (km/s) = 5.09904 5.99163 5.56326
#
# Compressibility (1/GPa) = 0.05048786
#
# Stress axis : x y z
#
# Youngs Moduli (GPa) = 73.07825 59.31788 12.38103
#
# Poissons Ratio (x) = 0.21704 0.01409
# Poissons Ratio (y) = 0.26739 0.31714
# Poissons Ratio (z) = 0.08315 1.51941
#
# Static dielectric constant tensor:
#      x y z
#    x 1.667470 0.000000 0.000000 
#    y 0.000000 1.709170 0.000000 
#    z 0.000000 0.000000 1.744510 
# 
# From -- ./inp_files/16679.got.cif
#   From: 2010.05.17/outbox.cif.g08.bks.cpg/sg20_9_cif.got.tgz:16679.got - 2010.06.03 22:52:26.
