data_PCOD9317855
_publ_section_title
;
Structure prediction by ZEFSAII (Michael W. Deem and Ramdas Pophale) SiO2 
 PCOD9317855
Probable space group: C 2 2 21
;
_chemical_formula_sum "Si O2"
_cell_formula_units_Z 56
_cell_length_a 10.565922
_cell_length_b 13.048179
_cell_length_c 19.386600
_cell_angle_alpha 90.000000
_cell_angle_beta 90.000000
_cell_angle_gamma 90.000000
_cell_volume 2672.753801
_symmetry_space_group_name_H-M "C 2 2 21"
_symmetry_group_IT_number 20
_symmetry_cell_setting 'orthorhombic'
loop_
_space_group_symop_operation_xyz
x,y,z
-x,-y,1/2+z
x,-y,-z
-x,y,1/2-z
1/2+x,1/2+y,z
1/2-x,1/2-y,1/2+z
1/2+x,1/2-y,-z
1/2-x,1/2+y,1/2-z
loop_
_atom_site_type_symbol
_atom_site_label
_atom_site_fract_x
_atom_site_fract_y
_atom_site_fract_z
Si Si1 0.631409 0.961767 0.115575
Si Si2 0.376070 0.567924 0.432298
Si Si3 0.138160 0.510370 0.645053
Si Si4 0.151434 0.087915 0.440316
Si Si5 0.386240 0.211509 0.199297
Si Si6 0.636561 0.819549 0.248679
Si Si7 0.280213 0.273260 0.054735
O O1 0.631365 0.911581 0.191798
O O2 0.688893 0.868613 0.071918
O O3 0.486841 0.987194 0.096973
O O4 0.727050 0.057119 0.105380
O O5 0.389044 0.500000 0.500000
O O6 0.274256 0.511938 0.385679
O O7 0.516689 0.582347 0.402325
O O8 0.308324 0.674777 0.449549
O O9 0.109979 0.411195 0.692578
O O10 0.148533 0.619806 0.680686
O O11 0.157820 0.194150 0.482519
O O12 0.148632 0.000000 0.500000
O O13 0.500000 0.245399 0.250000
O O14 0.253179 0.247905 0.231151
O O15 0.376368 0.255685 0.119904
O O16 0.500000 0.766001 0.250000
#
# Coordination Sequence:
#
# PCOD9317855 Si02
#       7
#     8   8   8   8   8   8   8
#     4   9  18  36  59  79 107 150 187 226 282 346
#     4  10  22  37  54  82 114 143 185 239 287 339
#     4  10  21  38  57  82 114 147 191 238 285 351
#     4   9  19  36  56  79 111 145 184 230 281 337
#     4  10  20  36  58  83 111 146 190 240 291 341
#     4   9  19  37  57  80 111 147 186 231 286 348
#     4   9  20  36  56  81 113 148 188 234 286 352
#
# _framework density 20.952172000000001
#
# number of rings (size 3 to 8) (size 9 to 14) (size 15 to 20)
#    0.000    2.571    0.000    1.286    0.000    9.714 
#    0.000   13.571    0.000    0.000    0.000    0.000 
#    0.000    0.000    0.000    0.000    0.000    0.000 
#
# Total GULP energy -156019.600058 kJ/mol
# GULP energy per Si atom -5572.128574 kJ/mol
# Density = 2.090448 g / cm^3
# Si number density = 20.952172 Si / 1000 Ang^3
#
#
#
# Elastic Constant Matrix: (Units=GPa)
#
#
# Indices 1 2 3 4 5 6 
#
# 1 84.9850 -12.6333 34.0820 0.0000 0.0000 0.0000
# 2 -12.6333 43.7215 2.3137 0.0000 0.0000 0.0000
# 3 34.0820 2.3137 32.2115 0.0000 0.0000 0.0000
# 4 0.0000 0.0000 0.0000 20.0682 0.0000 0.0000
# 5 0.0000 0.0000 0.0000 0.0000 25.2492 0.0000
# 6 0.0000 0.0000 0.0000 0.0000 0.0000 11.9222
#
#
#
# Elastic Compliance Matrix: (Units=1/GPa)
#
#
# Indices 1 2 3 4 5 6 
#
# 1 0.022882 0.007923 -0.024780 0.000000 0.000000 0.000000
# 2 0.007923 0.025703 -0.010229 0.000000 0.000000 0.000000
# 3 -0.024780 -0.010229 0.057999 0.000000 0.000000 0.000000
# 4 0.000000 0.000000 0.000000 0.049830 0.000000 0.000000
# 5 0.000000 0.000000 0.000000 0.000000 0.039605 0.000000
# 6 0.000000 0.000000 0.000000 0.000000 0.000000 0.083877
#
#
# Mechanical properties :
#
#
# Convention : Reuss Voigt Hill
#
# Bulk Modulus (GPa) = 19.08001 23.16032 21.12016
# Shear Modulus (GPa) = 14.22318 20.59163 17.40741
#
# Velocity S-wave (km/s) = 2.60828 3.13835 2.88552
# Velocity P-wave (km/s) = 4.26580 4.92039 4.60474
#
# Compressibility (1/GPa) = 0.05241088
#
# Stress axis : x y z
#
# Youngs Moduli (GPa) = 43.70193 38.90641 17.24180
#
# Poissons Ratio (x) = -0.30826 0.42725
# Poissons Ratio (y) = -0.34626 0.17637
# Poissons Ratio (z) = 1.08294 0.39799
#
# Static dielectric constant tensor:
#      x y z
#    x 1.802480 0.000000 0.000000 
#    y 0.000000 1.754360 0.000000 
#    z 0.000000 0.000000 1.861830 
# 
# From -- ./inp_files/26751.got.cif
#   From: 2010.05.17/outbox.cif.g08.bks.cpg/sg20_14_cif.got.tgz:26751.got - 2010.06.03 22:52:26.
