data_PCOD9317931
_publ_section_title
;
Structure prediction by ZEFSAII (Michael W. Deem and Ramdas Pophale) SiO2 
 PCOD9317931
Probable space group: C 2 2 21
;
_chemical_formula_sum "Si O2"
_cell_formula_units_Z 60
_cell_length_a 22.038719
_cell_length_b 9.656526
_cell_length_c 14.818574
_cell_angle_alpha 90.000000
_cell_angle_beta 90.000000
_cell_angle_gamma 90.000000
_cell_volume 3153.651324
_symmetry_space_group_name_H-M "C 2 2 21"
_symmetry_group_IT_number 20
_symmetry_cell_setting 'orthorhombic'
loop_
_space_group_symop_operation_xyz
x,y,z
-x,-y,1/2+z
x,-y,-z
-x,y,1/2-z
1/2+x,1/2+y,z
1/2-x,1/2-y,1/2+z
1/2+x,1/2-y,-z
1/2-x,1/2+y,1/2-z
loop_
_atom_site_type_symbol
_atom_site_label
_atom_site_fract_x
_atom_site_fract_y
_atom_site_fract_z
Si Si1 0.273482 0.368712 0.162615
Si Si2 0.023297 0.093717 0.420681
Si Si3 0.407232 0.456601 0.671185
Si Si4 0.801134 0.164072 0.215462
Si Si5 0.420139 0.846837 0.971102
Si Si6 0.819605 0.000000 0.500000
Si Si7 0.214888 0.726208 0.515301
Si Si8 0.414821 0.653511 0.815937
O O1 0.229906 0.262263 0.211859
O O2 0.264012 0.521969 0.200591
O O3 0.342461 0.332375 0.188808
O O4 0.271220 0.350480 0.054792
O O5 0.055059 0.228842 0.460561
O O6 0.967326 0.125990 0.355806
O O7 0.994265 0.000000 0.500000
O O8 0.068679 0.980428 0.377723
O O9 0.366516 0.376540 0.744529
O O10 0.362158 0.482341 0.587576
O O11 0.431538 0.601014 0.715759
O O12 0.800948 0.231331 0.116875
O O13 0.437684 0.787306 0.871396
O O14 0.346711 0.843269 0.977132
O O15 0.440745 0.000000 0.000000
O O16 0.773489 0.128064 0.513230
#
# Coordination Sequence:
#
# PCOD9317931 Si02
#       8
#     8   8   8   8   8   4   8   8
#     4  10  21  37  55  88 122 155 204 249 307 370
#     4  10  20  38  64  90 120 164 216 266 308 367
#     4  11  21  38  61  92 121 163 217 260 311 372
#     4  11  22  36  61  86 123 163 201 254 311 380
#     4  10  20  36  63  95 125 159 203 262 322 375
#     4  12  22  38  62  94 124 164 204 266 312 378
#     4  11  21  37  59  89 126 160 204 251 316 370
#     4   9  20  35  59  88 117 160 212 260 293 368
#
# _framework density 19.025565
#
# number of rings (size 3 to 8) (size 9 to 14) (size 15 to 20)
#    0.000    1.600    2.667    4.000    0.000    3.200 
#    0.000    0.000    2.933   12.800    0.000    0.000 
#    0.000    0.000    0.000    0.000    0.000    0.000 
#
# Total GULP energy -167155.568506 kJ/mol
# GULP energy per Si atom -5571.852284 kJ/mol
# Density = 1.898226 g / cm^3
# Si number density = 19.025565 Si / 1000 Ang^3
#
#
#
# Elastic Constant Matrix: (Units=GPa)
#
#
# Indices 1 2 3 4 5 6 
#
# 1 60.8073 13.9940 10.7716 0.0000 0.0000 0.0000
# 2 13.9940 86.2048 15.1776 0.0000 0.0000 0.0000
# 3 10.7716 15.1776 92.8505 0.0000 0.0000 0.0000
# 4 0.0000 0.0000 0.0000 21.7642 0.0000 0.0000
# 5 0.0000 0.0000 0.0000 0.0000 -86.6482 0.0000
# 6 0.0000 0.0000 0.0000 0.0000 0.0000 22.4515
#
#
#
# Elastic Compliance Matrix: (Units=1/GPa)
#
#
# Indices 1 2 3 4 5 6 
#
# 1 0.017310 -0.002529 -0.001595 0.000000 0.000000 0.000000
# 2 -0.002529 0.012314 -0.001719 0.000000 0.000000 0.000000
# 3 -0.001595 -0.001719 0.011236 0.000000 0.000000 0.000000
# 4 0.000000 0.000000 0.000000 0.045947 0.000000 0.000000
# 5 0.000000 0.000000 0.000000 0.000000 -0.011541 0.000000
# 6 0.000000 0.000000 0.000000 0.000000 0.000000 0.044540
#
#
# Mechanical properties :
#
#
# Convention : Reuss Voigt Hill
#
# Bulk Modulus (GPa) = 34.27833 35.52767 34.90300
# Shear Modulus (GPa) = 35.40651 4.84147 20.12399
#
# Velocity S-wave (km/s) = 4.31861 1.59695 3.25581
# Velocity P-wave (km/s) = 6.55158 4.70261 5.70253
#
# Compressibility (1/GPa) = 0.02917295
#
# Stress axis : x y z
#
# Youngs Moduli (GPa) = 57.77022 81.21111 88.99916
#
# Poissons Ratio (x) = 0.20540 0.14193
# Poissons Ratio (y) = 0.14611 0.15302
# Poissons Ratio (z) = 0.09213 0.13963
#
# Static dielectric constant tensor:
#      x y z
#    x 1.649440 0.000000 0.000000 
#    y 0.000000 1.668460 0.000000 
#    z 0.000000 0.000000 1.758500 
# 
# From -- ./inp_files/22025.got.cif
#   From: 2010.05.17/outbox.cif.g08.bks.cpg/sg20_12_cif.got.tgz:22025.got - 2010.06.03 22:52:26.
