data_PCOD9317896
_publ_section_title
;
Structure prediction by ZEFSAII (Michael W. Deem and Ramdas Pophale) SiO2 
 PCOD9317896
Probable space group: C 2 2 21
;
_chemical_formula_sum "Si O2"
_cell_formula_units_Z 64
_cell_length_a 8.959178
_cell_length_b 20.726482
_cell_length_c 18.884447
_cell_angle_alpha 90.000000
_cell_angle_beta 90.000000
_cell_angle_gamma 90.000000
_cell_volume 3506.695294
_symmetry_space_group_name_H-M "C 2 2 21"
_symmetry_group_IT_number 20
_symmetry_cell_setting 'orthorhombic'
loop_
_space_group_symop_operation_xyz
x,y,z
-x,-y,1/2+z
x,-y,-z
-x,y,1/2-z
1/2+x,1/2+y,z
1/2-x,1/2-y,1/2+z
1/2+x,1/2-y,-z
1/2-x,1/2+y,1/2-z
loop_
_atom_site_type_symbol
_atom_site_label
_atom_site_fract_x
_atom_site_fract_y
_atom_site_fract_z
Si Si1 0.772582 0.190088 0.033956
Si Si2 0.201181 0.363996 0.667590
Si Si3 0.938594 0.055855 0.555503
Si Si4 0.138305 0.003783 0.203656
Si Si5 0.347907 0.864953 0.672984
Si Si6 0.201370 0.436878 0.045936
Si Si7 0.869664 0.180624 0.473820
Si Si8 0.365920 0.983146 0.306482
O O1 0.741068 0.173608 0.114984
O O2 0.951446 0.189575 0.027433
O O3 0.687525 0.131656 0.992688
O O4 0.708184 0.257088 0.006629
O O5 0.259184 0.437561 0.675596
O O6 0.204319 0.340732 0.749597
O O7 0.297420 0.333450 0.603865
O O8 0.023779 0.358660 0.654850
O O9 0.856548 0.118907 0.525649
O O10 0.118920 0.059819 0.554989
O O11 0.898145 0.000000 0.500000
O O12 0.901522 0.036299 0.634905
O O13 0.000000 0.030443 0.250000
O O14 0.226874 0.960364 0.259802
O O15 0.326173 0.942770 0.671755
O O16 0.120278 0.443419 0.121565
O O17 0.157489 0.500000 0.000000
O O18 0.500000 0.984604 0.250000
#
# Coordination Sequence:
#
# PCOD9317896 Si02
#       8
#     8   8   8   8   8   8   8   8
#     4  11  24  42  64  88 125 169 208 258 313 379
#     4  10  21  36  61  93 122 159 203 259 310 373
#     4  10  20  36  60  94 121 154 205 253 304 366
#     4  11  20  33  60  91 126 156 199 257 313 371
#     4  10  20  38  60  90 126 158 203 254 316 371
#     4  10  20  36  63  90 119 157 201 250 311 369
#     4  11  24  42  63  89 127 165 213 257 311 377
#     4  11  20  37  56  94 128 154 198 257 317 367
#
# _framework density 18.250800999999999
#
# number of rings (size 3 to 8) (size 9 to 14) (size 15 to 20)
#    0.000    1.500    6.250    0.750    3.500    0.000 
#    4.500    3.125    2.750    0.000    0.000    0.000 
#    0.000    0.000    0.000    0.000    0.000    0.000 
#
# Total GULP energy -178248.867751 kJ/mol
# GULP energy per Si atom -5570.277117 kJ/mol
# Density = 1.820926 g / cm^3
# Si number density = 18.250801 Si / 1000 Ang^3
#
#
#
# Elastic Constant Matrix: (Units=GPa)
#
#
# Indices 1 2 3 4 5 6 
#
# 1 43.1184 23.3877 31.9146 0.0000 0.0000 0.0000
# 2 23.3877 90.7325 51.2449 0.0000 0.0000 0.0000
# 3 31.9146 51.2449 123.0843 0.0000 0.0000 0.0000
# 4 0.0000 0.0000 0.0000 22.4976 0.0000 0.0000
# 5 0.0000 0.0000 0.0000 0.0000 30.2580 0.0000
# 6 0.0000 0.0000 0.0000 0.0000 0.0000 17.3644
#
#
#
# Elastic Compliance Matrix: (Units=1/GPa)
#
#
# Indices 1 2 3 4 5 6 
#
# 1 0.029964 -0.004361 -0.005954 0.000000 0.000000 0.000000
# 2 -0.004361 0.015045 -0.005133 0.000000 0.000000 0.000000
# 3 -0.005954 -0.005133 0.011805 0.000000 0.000000 0.000000
# 4 0.000000 0.000000 0.000000 0.044449 0.000000 0.000000
# 5 0.000000 0.000000 0.000000 0.000000 0.033049 0.000000
# 6 0.000000 0.000000 0.000000 0.000000 0.000000 0.057589
#
#
# Mechanical properties :
#
#
# Convention : Reuss Voigt Hill
#
# Bulk Modulus (GPa) = 38.58232 52.22549 45.40390
# Shear Modulus (GPa) = 21.60423 24.04987 22.82705
#
# Velocity S-wave (km/s) = 3.44429 3.63401 3.54042
# Velocity P-wave (km/s) = 6.08305 6.80335 6.45326
#
# Compressibility (1/GPa) = 0.02591861
#
# Stress axis : x y z
#
# Youngs Moduli (GPa) = 33.37321 66.46932 84.70796
#
# Poissons Ratio (x) = 0.28988 0.50433
# Poissons Ratio (y) = 0.14554 0.43479
# Poissons Ratio (z) = 0.19870 0.34118
#
# Static dielectric constant tensor:
#      x y z
#    x 1.683240 0.000000 0.000000 
#    y 0.000000 1.610600 0.000000 
#    z 0.000000 0.000000 1.655790 
# 
# From -- ./inp_files/23940.got.cif
#   From: 2010.05.17/outbox.cif.g08.bks.cpg/sg20_12_cif.got.tgz:23940.got - 2010.06.03 22:52:26.
