data_PCOD9317139
_publ_section_title
;
Structure prediction by ZEFSAII (Michael W. Deem and Ramdas Pophale) SiO2 
 PCOD9317139
Probable space group: C 2 2 21
;
_chemical_formula_sum "Si O2"
_cell_formula_units_Z 44
_cell_length_a 14.736592
_cell_length_b 6.600820
_cell_length_c 21.268915
_cell_angle_alpha 90.000000
_cell_angle_beta 90.000000
_cell_angle_gamma 90.000000
_cell_volume 2068.903743
_symmetry_space_group_name_H-M "C 2 2 21"
_symmetry_group_IT_number 20
_symmetry_cell_setting 'orthorhombic'
loop_
_space_group_symop_operation_xyz
x,y,z
-x,-y,1/2+z
x,-y,-z
-x,y,1/2-z
1/2+x,1/2+y,z
1/2-x,1/2-y,1/2+z
1/2+x,1/2-y,-z
1/2-x,1/2+y,1/2-z
loop_
_atom_site_type_symbol
_atom_site_label
_atom_site_fract_x
_atom_site_fract_y
_atom_site_fract_z
Si Si1 0.240737 0.814185 0.093212
Si Si2 0.117697 0.615677 0.366885
Si Si3 0.672335 0.508937 0.305899
Si Si4 0.920410 0.437328 0.607928
Si Si5 0.136494 0.373254 0.238570
Si Si6 0.794772 0.500000 0.500000
O O1 0.284213 0.674248 0.147563
O O2 0.132643 0.780635 0.104233
O O3 0.291564 0.025895 0.100908
O O4 0.258236 0.691310 0.028356
O O5 0.121895 0.850304 0.349487
O O6 0.110870 0.506639 0.298744
O O7 0.026497 0.571676 0.405117
O O8 0.754873 0.391569 0.272469
O O9 0.617331 0.639639 0.255237
O O10 0.906912 0.537568 0.675909
O O11 0.861447 0.561451 0.557129
#
# Coordination Sequence:
#
# PCOD9317139 Si02
#       6
#     8   8   8   8   8   4
#     4   8  20  40  59  84 124 163 201 261 314 366
#     4  11  20  37  64  93 122 168 210 261 326 385
#     4  10  19  34  62  88 120 162 211 253 324 389
#     4   9  20  39  61  91 131 163 211 266 317 384
#     4  10  19  35  59  88 121 160 201 268 321 378
#     4   8  18  42  64  82 128 170 204 274 308 382
#
# _framework density 21.267301
#
# number of rings (size 3 to 8) (size 9 to 14) (size 15 to 20)
#    1.091    1.455    1.818    0.545    0.000    0.000 
#    3.273   16.364    0.000    0.000    0.000    0.000 
#    0.000    0.000    0.000    0.000    0.000    0.000 
#
# Total GULP energy -122491.662884 kJ/mol
# GULP energy per Si atom -5567.802858 kJ/mol
# Density = 2.121890 g / cm^3
# Si number density = 21.267301 Si / 1000 Ang^3
#
#
#
# Elastic Constant Matrix: (Units=GPa)
#
#
# Indices 1 2 3 4 5 6 
#
# 1 63.4793 7.9196 9.1355 0.0000 0.0000 0.0000
# 2 7.9196 54.7093 -1.2876 0.0000 0.0000 0.0000
# 3 9.1355 -1.2876 54.9331 0.0000 0.0000 0.0000
# 4 0.0000 0.0000 0.0000 24.3973 0.0000 0.0000
# 5 0.0000 0.0000 0.0000 0.0000 11.6096 0.0000
# 6 0.0000 0.0000 0.0000 0.0000 0.0000 3.0868
#
#
#
# Elastic Compliance Matrix: (Units=1/GPa)
#
#
# Indices 1 2 3 4 5 6 
#
# 1 0.016461 -0.002449 -0.002795 0.000000 0.000000 0.000000
# 2 -0.002449 0.018653 0.000844 0.000000 0.000000 0.000000
# 3 -0.002795 0.000844 0.018689 0.000000 0.000000 0.000000
# 4 0.000000 0.000000 0.000000 0.040988 0.000000 0.000000
# 5 0.000000 0.000000 0.000000 0.000000 0.086136 0.000000
# 6 0.000000 0.000000 0.000000 0.000000 0.000000 0.323956
#
#
# Mechanical properties :
#
#
# Convention : Reuss Voigt Hill
#
# Bulk Modulus (GPa) = 22.22023 22.73962 22.47992
# Shear Modulus (GPa) = 9.45749 18.30904 13.88326
#
# Velocity S-wave (km/s) = 2.11107 2.93729 2.55776
# Velocity P-wave (km/s) = 4.05128 4.71371 4.39500
#
# Compressibility (1/GPa) = 0.04500404
#
# Stress axis : x y z
#
# Youngs Moduli (GPa) = 60.75009 53.61141 53.50872
#
# Poissons Ratio (x) = 0.13127 0.14955
# Poissons Ratio (y) = 0.14875 -0.04518
# Poissons Ratio (z) = 0.16979 -0.04527
#
# Static dielectric constant tensor:
#      x y z
#    x 1.786510 0.000000 0.000000 
#    y 0.000000 1.822730 0.000000 
#    z 0.000000 0.000000 1.800740 
# 
# From -- ./inp_files/29407.got.cif
#   From: 2010.05.17/outbox.cif.g08.bks.cpg/sg20_15_cif.got.tgz:29407.got - 2010.06.03 22:52:26.
