data_PCOD9317387
_publ_section_title
;
Structure prediction by ZEFSAII (Michael W. Deem and Ramdas Pophale) SiO2 
 PCOD9317387
Probable space group: C 2 2 21
;
_chemical_formula_sum "Si O2"
_cell_formula_units_Z 48
_cell_length_a 8.727440
_cell_length_b 28.158292
_cell_length_c 8.907445
_cell_angle_alpha 90.000000
_cell_angle_beta 90.000000
_cell_angle_gamma 90.000000
_cell_volume 2189.002862
_symmetry_space_group_name_H-M "C 2 2 21"
_symmetry_group_IT_number 20
_symmetry_cell_setting 'orthorhombic'
loop_
_space_group_symop_operation_xyz
x,y,z
-x,-y,1/2+z
x,-y,-z
-x,y,1/2-z
1/2+x,1/2+y,z
1/2-x,1/2-y,1/2+z
1/2+x,1/2-y,-z
1/2-x,1/2+y,1/2-z
loop_
_atom_site_type_symbol
_atom_site_label
_atom_site_fract_x
_atom_site_fract_y
_atom_site_fract_z
Si Si1 0.500000 0.820195 0.250000
Si Si2 0.167192 0.013520 0.677999
Si Si3 0.316441 0.687927 0.273171
Si Si4 0.684798 0.412845 0.737545
Si Si5 0.259841 0.886557 0.397068
Si Si6 0.741434 0.736664 0.928824
Si Si7 0.000000 0.177046 0.750000
O O1 0.403854 0.854719 0.356901
O O2 0.612008 0.787941 0.350694
O O3 0.237630 0.966987 0.760270
O O4 0.000000 0.022328 0.750000
O O5 0.148807 0.000000 0.500000
O O6 0.260570 0.062209 0.685394
O O7 0.500000 0.686847 0.250000
O O8 0.269411 0.634947 0.326278
O O9 0.263289 0.726017 0.396026
O O10 0.246053 0.708581 0.119644
O O11 0.500000 0.416373 0.750000
O O12 0.734080 0.398501 0.570405
O O13 0.114927 0.856807 0.338857
O O14 0.593736 0.710094 0.863124
#
# Coordination Sequence:
#
# PCOD9317387 Si02
#       7
#     4   8   8   8   8   8   4
#     4  10  24  42  60  90 132 168 210 250 322 382
#     4   9  17  33  60  93 118 157 207 263 308 358
#     4  11  24  41  63  92 128 162 212 261 318 368
#     4   9  19  35  61  87 124 154 205 259 309 358
#     4  10  19  37  63  88 124 160 206 257 311 373
#     4  11  25  40  65  91 128 169 214 260 314 377
#     4  10  20  34  60  90 118 162 210 252 308 362
#
# _framework density 21.927793000000001
#
# number of rings (size 3 to 8) (size 9 to 14) (size 15 to 20)
#    0.000    2.000    1.667    2.000    7.000    0.000 
#    0.000    0.000   11.000    0.000    0.000    0.000 
#    0.000    0.000    0.000    0.000    0.000    0.000 
#
# Total GULP energy -134063.496017 kJ/mol
# GULP energy per Si atom -5585.979001 kJ/mol
# Density = 2.187788 g / cm^3
# Si number density = 21.927793 Si / 1000 Ang^3
#
#
#
# Elastic Constant Matrix: (Units=GPa)
#
#
# Indices 1 2 3 4 5 6 
#
# 1 55.0283 27.5138 17.7134 0.0000 0.0000 0.0000
# 2 27.5138 156.1000 7.8562 0.0000 0.0000 0.0000
# 3 17.7134 7.8562 48.8270 0.0000 0.0000 0.0000
# 4 0.0000 0.0000 0.0000 28.2844 0.0000 0.0000
# 5 0.0000 0.0000 0.0000 0.0000 15.6432 0.0000
# 6 0.0000 0.0000 0.0000 0.0000 0.0000 11.6217
#
#
#
# Elastic Compliance Matrix: (Units=1/GPa)
#
#
# Indices 1 2 3 4 5 6 
#
# 1 0.022385 -0.003566 -0.007547 0.000000 0.000000 0.000000
# 2 -0.003566 0.007026 0.000163 0.000000 0.000000 0.000000
# 3 -0.007547 0.000163 0.023192 0.000000 0.000000 0.000000
# 4 0.000000 0.000000 0.000000 0.035355 0.000000 0.000000
# 5 0.000000 0.000000 0.000000 0.000000 0.063925 0.000000
# 6 0.000000 0.000000 0.000000 0.000000 0.000000 0.086046
#
#
# Mechanical properties :
#
#
# Convention : Reuss Voigt Hill
#
# Bulk Modulus (GPa) = 32.56909 40.68024 36.62467
# Shear Modulus (GPa) = 18.51416 24.90133 21.70774
#
# Velocity S-wave (km/s) = 2.90888 3.37353 3.14978
# Velocity P-wave (km/s) = 5.11539 5.81089 5.47420
#
# Compressibility (1/GPa) = 0.03070396
#
# Stress axis : x y z
#
# Youngs Moduli (GPa) = 44.67361 142.32003 43.11808
#
# Poissons Ratio (x) = 0.50746 0.32541
# Poissons Ratio (y) = 0.15929 -0.00703
# Poissons Ratio (z) = 0.33715 -0.02320
#
# Static dielectric constant tensor:
#      x y z
#    x 1.763070 0.000000 0.000000 
#    y 0.000000 1.869450 0.000000 
#    z 0.000000 0.000000 1.821380 
# 
# From -- ./inp_files/6581.got.cif
#   From: 2010.05.17/outbox.cif.g08.bks.cpg/sg20_4_cif.got.tgz:6581.got - 2010.06.03 22:52:26.
