data_PCOD9317547
_publ_section_title
;
Structure prediction by ZEFSAII (Michael W. Deem and Ramdas Pophale) SiO2 
 PCOD9317547
Probable space group: C 2 2 21
;
_chemical_formula_sum "Si O2"
_cell_formula_units_Z 44
_cell_length_a 7.418146
_cell_length_b 12.649472
_cell_length_c 21.264863
_cell_angle_alpha 90.000000
_cell_angle_beta 90.000000
_cell_angle_gamma 90.000000
_cell_volume 1995.401819
_symmetry_space_group_name_H-M "C 2 2 21"
_symmetry_group_IT_number 20
_symmetry_cell_setting 'orthorhombic'
loop_
_space_group_symop_operation_xyz
x,y,z
-x,-y,1/2+z
x,-y,-z
-x,y,1/2-z
1/2+x,1/2+y,z
1/2-x,1/2-y,1/2+z
1/2+x,1/2-y,-z
1/2-x,1/2+y,1/2-z
loop_
_atom_site_type_symbol
_atom_site_label
_atom_site_fract_x
_atom_site_fract_y
_atom_site_fract_z
Si Si1 0.713554 0.238657 0.765773
Si Si2 0.471530 0.681221 0.079966
Si Si3 0.730482 0.658529 0.599710
Si Si4 0.823078 0.166128 0.632851
Si Si5 0.693808 0.500000 0.500000
Si Si6 0.381942 0.451058 0.690133
O O1 0.500000 0.235135 0.750000
O O2 0.732263 0.160435 0.825163
O O3 0.822526 0.215206 0.702996
O O4 0.751098 0.358468 0.787705
O O5 0.660325 0.741833 0.072277
O O6 0.325252 0.772427 0.092738
O O7 0.485237 0.610221 0.142723
O O8 0.418429 0.598234 0.027212
O O9 0.515649 0.672671 0.599655
O O10 0.788642 0.555184 0.560080
O O11 0.790593 0.043563 0.650339
O O12 0.500000 0.488712 0.750000
#
# Coordination Sequence:
#
# PCOD9317547 Si02
#       6
#     8   8   8   8   4   8
#     4  10  20  43  72 106 151 183 234 310 373 441
#     4  11  26  50  67 107 146 183 248 301 343 447
#     4  11  25  46  74 105 140 195 244 297 365 435
#     4  12  22  43  79 102 144 193 232 300 374 423
#     4  12  28  50  74 100 152 200 242 306 362 418
#     4  10  19  41  70 102 146 179 222 302 361 416
#
# _framework density 22.050695999999999
#
# number of rings (size 3 to 8) (size 9 to 14) (size 15 to 20)
#    0.000    1.091    7.273    1.636    2.545    0.000 
#    6.545    5.455    0.000    0.000    0.000    0.000 
#    0.000    0.000    0.000    0.000    0.000    0.000 
#
# Total GULP energy -122761.702230 kJ/mol
# GULP energy per Si atom -5580.077374 kJ/mol
# Density = 2.200051 g / cm^3
# Si number density = 22.050696 Si / 1000 Ang^3
#
#
#
# Elastic Constant Matrix: (Units=GPa)
#
#
# Indices 1 2 3 4 5 6 
#
# 1 35.6098 49.8549 28.0523 0.0000 0.0000 0.0000
# 2 49.8549 140.3375 60.5114 0.0000 0.0000 0.0000
# 3 28.0523 60.5114 109.0134 0.0000 0.0000 0.0000
# 4 0.0000 0.0000 0.0000 54.6160 0.0000 0.0000
# 5 0.0000 0.0000 0.0000 0.0000 10.3821 0.0000
# 6 0.0000 0.0000 0.0000 0.0000 0.0000 20.8757
#
#
#
# Elastic Compliance Matrix: (Units=1/GPa)
#
#
# Indices 1 2 3 4 5 6 
#
# 1 0.057535 -0.018478 -0.004549 0.000000 0.000000 0.000000
# 2 -0.018478 0.015302 -0.003739 0.000000 0.000000 0.000000
# 3 -0.004549 -0.003739 0.012419 0.000000 0.000000 0.000000
# 4 0.000000 0.000000 0.000000 0.018310 0.000000 0.000000
# 5 0.000000 0.000000 0.000000 0.000000 0.096320 0.000000
# 6 0.000000 0.000000 0.000000 0.000000 0.000000 0.047903
#
#
# Mechanical properties :
#
#
# Convention : Reuss Voigt Hill
#
# Bulk Modulus (GPa) = 31.52072 62.42199 46.97136
# Shear Modulus (GPa) = 16.03099 26.94422 21.48760
#
# Velocity S-wave (km/s) = 2.69923 3.49939 3.12503
# Velocity P-wave (km/s) = 4.90308 6.68562 5.86249
#
# Compressibility (1/GPa) = 0.03172516
#
# Stress axis : x y z
#
# Youngs Moduli (GPa) = 17.38059 65.34982 80.52068
#
# Poissons Ratio (x) = 1.20754 0.36626
# Poissons Ratio (y) = 0.32116 0.30107
# Poissons Ratio (z) = 0.07906 0.24435
#
# Static dielectric constant tensor:
#      x y z
#    x 1.817790 0.000000 0.000000 
#    y 0.000000 1.842080 0.000000 
#    z 0.000000 0.000000 1.945590 
# 
# From -- ./inp_files/28672.got.cif
#   From: 2010.05.17/outbox.cif.g08.bks.cpg/sg20_15_cif.got.tgz:28672.got - 2010.06.03 22:52:26.
