data_PCOD9317804
_publ_section_title
;
Structure prediction by ZEFSAII (Michael W. Deem and Ramdas Pophale) SiO2 
 PCOD9317804
Probable space group: C 2 2 21
;
_chemical_formula_sum "Si O2"
_cell_formula_units_Z 56
_cell_length_a 7.870091
_cell_length_b 21.676446
_cell_length_c 16.026295
_cell_angle_alpha 90.000000
_cell_angle_beta 90.000000
_cell_angle_gamma 90.000000
_cell_volume 2734.015453
_symmetry_space_group_name_H-M "C 2 2 21"
_symmetry_group_IT_number 20
_symmetry_cell_setting 'orthorhombic'
loop_
_space_group_symop_operation_xyz
x,y,z
-x,-y,1/2+z
x,-y,-z
-x,y,1/2-z
1/2+x,1/2+y,z
1/2-x,1/2-y,1/2+z
1/2+x,1/2-y,-z
1/2-x,1/2+y,1/2-z
loop_
_atom_site_type_symbol
_atom_site_label
_atom_site_fract_x
_atom_site_fract_y
_atom_site_fract_z
Si Si1 0.019572 0.559751 0.051648
Si Si2 0.286894 0.257900 0.159787
Si Si3 0.500000 0.571381 0.750000
Si Si4 0.656902 0.312154 0.161371
Si Si5 0.785561 0.974782 0.815819
Si Si6 0.500000 0.935131 0.250000
Si Si7 0.504175 0.156514 0.591577
Si Si8 0.172807 0.620902 0.303380
O O1 0.195564 0.543569 0.098510
O O2 0.885299 0.575780 0.123122
O O3 0.966913 0.500000 0.000000
O O4 0.033983 0.617916 0.990935
O O5 0.476437 0.282219 0.135254
O O6 0.274835 0.274708 0.258365
O O7 0.141264 0.293855 0.110679
O O8 0.269622 0.184727 0.156633
O O9 0.381534 0.620179 0.700772
O O10 0.439093 0.522541 0.820217
O O11 0.805768 0.315543 0.093856
O O12 0.799392 0.913617 0.759669
O O13 0.655290 0.018612 0.764586
O O14 0.497707 0.891641 0.169142
O O15 0.000000 0.633859 0.250000
#
# Coordination Sequence:
#
# PCOD9317804 Si02
#       8
#     8   8   4   8   8   4   8   8
#     4  11  23  36  63  93 125 169 208 263 332 387
#     4  10  20  39  62  89 118 159 215 261 313 375
#     4  10  20  36  62  98 122 158 224 274 318 382
#     4  10  20  35  66  91 115 159 211 269 310 372
#     4  11  20  38  64  88 126 168 211 265 322 389
#     4  12  16  34  64  86 110 160 216 250 314 380
#     4  12  21  38  63  95 122 164 213 261 321 386
#     4  10  20  41  62  85 124 167 205 262 322 375
#
# _framework density 20.482692
#
# number of rings (size 3 to 8) (size 9 to 14) (size 15 to 20)
#    0.000    1.429    7.857    0.857    0.000    0.000 
#    5.143    1.429    0.000    0.000    0.000    0.000 
#    0.000    0.000    0.000    0.000    0.000    0.000 
#
# Total GULP energy -156205.288319 kJ/mol
# GULP energy per Si atom -5578.760297 kJ/mol
# Density = 2.043607 g / cm^3
# Si number density = 20.482692 Si / 1000 Ang^3
#
#
#
# Elastic Constant Matrix: (Units=GPa)
#
#
# Indices 1 2 3 4 5 6 
#
# 1 55.5993 37.2372 8.9764 0.0000 0.0000 0.0000
# 2 37.2372 101.6309 25.5498 0.0000 0.0000 0.0000
# 3 8.9764 25.5498 68.3521 0.0000 0.0000 0.0000
# 4 0.0000 0.0000 0.0000 15.5240 0.0000 0.0000
# 5 0.0000 0.0000 0.0000 0.0000 14.7771 0.0000
# 6 0.0000 0.0000 0.0000 0.0000 0.0000 10.7244
#
#
#
# Elastic Compliance Matrix: (Units=1/GPa)
#
#
# Indices 1 2 3 4 5 6 
#
# 1 0.023836 -0.008771 0.000148 0.000000 0.000000 0.000000
# 2 -0.008771 0.014087 -0.004114 0.000000 0.000000 0.000000
# 3 0.000148 -0.004114 0.016148 0.000000 0.000000 0.000000
# 4 0.000000 0.000000 0.000000 0.064416 0.000000 0.000000
# 5 0.000000 0.000000 0.000000 0.000000 0.067672 0.000000
# 6 0.000000 0.000000 0.000000 0.000000 0.000000 0.093245
#
#
# Mechanical properties :
#
#
# Convention : Reuss Voigt Hill
#
# Bulk Modulus (GPa) = 34.96647 41.01211 37.98929
# Shear Modulus (GPa) = 15.90273 18.45970 17.18122
#
# Velocity S-wave (km/s) = 2.78942 3.00531 2.89937
# Velocity P-wave (km/s) = 5.24240 5.66647 5.45855
#
# Compressibility (1/GPa) = 0.02859883
#
# Stress axis : x y z
#
# Youngs Moduli (GPa) = 41.95337 70.98588 61.92535
#
# Poissons Ratio (x) = 0.62259 -0.00918
# Poissons Ratio (y) = 0.36796 0.25476
# Poissons Ratio (z) = -0.00622 0.29204
#
# Static dielectric constant tensor:
#      x y z
#    x 1.870030 0.000000 0.000000 
#    y 0.000000 1.732700 0.000000 
#    z 0.000000 0.000000 1.711400 
# 
# From -- ./inp_files/19256.got.cif
#   From: 2010.05.17/outbox.cif.g08.bks.cpg/sg20_10_cif.got.tgz:19256.got - 2010.06.03 22:52:26.
