data_PCOD9317993
_publ_section_title
;
Structure prediction by ZEFSAII (Michael W. Deem and Ramdas Pophale) SiO2 
 PCOD9317993
Probable space group: C 2 2 21
;
_chemical_formula_sum "Si O2"
_cell_formula_units_Z 44
_cell_length_a 27.257413
_cell_length_b 14.433862
_cell_length_c 4.983705
_cell_angle_alpha 90.000000
_cell_angle_beta 90.000000
_cell_angle_gamma 90.000000
_cell_volume 1960.737751
_symmetry_space_group_name_H-M "C 2 2 21"
_symmetry_group_IT_number 20
_symmetry_cell_setting 'orthorhombic'
loop_
_space_group_symop_operation_xyz
x,y,z
-x,-y,1/2+z
x,-y,-z
-x,y,1/2-z
1/2+x,1/2+y,z
1/2-x,1/2-y,1/2+z
1/2+x,1/2-y,-z
1/2-x,1/2+y,1/2-z
loop_
_atom_site_type_symbol
_atom_site_label
_atom_site_fract_x
_atom_site_fract_y
_atom_site_fract_z
Si Si1 0.256434 0.187368 0.714113
Si Si2 0.000000 0.867552 0.250000
Si Si3 0.919614 0.000000 0.000000
Si Si4 0.046243 0.294390 0.064272
Si Si5 0.844484 0.879758 0.323522
Si Si6 0.143731 0.749945 0.670779
Si Si7 0.000000 0.438066 0.750000
O O1 0.255900 0.224717 0.409833
O O2 0.214392 0.111158 0.767224
O O3 0.312890 0.175751 0.792551
O O4 0.964834 0.804267 0.430120
O O5 0.038180 0.920765 0.446632
O O6 0.879962 0.036331 0.773018
O O7 0.093467 0.293698 0.242125
O O8 0.000000 0.313400 0.250000
O O9 0.044354 0.371461 0.836599
O O10 0.849388 0.837432 0.621779
O O11 0.857426 0.794934 0.121611
O O12 0.013710 0.500000 0.500000
#
# Coordination Sequence:
#
# PCOD9317993 Si02
#       7
#     8   4   4   8   8   8   4
#     4   8  16  33  57  81 105 140 204 265 311 360
#     4  11  26  36  51  90 128 188 219 264 294 377
#     4  12  24  38  54  82 138 180 222 258 304 358
#     4  11  23  41  64  90 130 163 217 257 319 402
#     4  10  21  36  57  83 117 166 215 260 305 361
#     4  10  20  37  59  89 114 158 211 262 316 364
#     4  11  24  44  67  92 116 154 199 258 332 395
#
# _framework density 22.440531
#
# number of rings (size 3 to 8) (size 9 to 14) (size 15 to 20)
#    0.000    1.818    2.727    1.091    6.364    0.727 
#    0.000    0.000    2.000    0.000    0.000    0.000 
#    0.000    0.000    0.000    0.000    0.000    0.000 
#
# Total GULP energy -122557.258436 kJ/mol
# GULP energy per Si atom -5570.784474 kJ/mol
# Density = 2.238946 g / cm^3
# Si number density = 22.440531 Si / 1000 Ang^3
#
#
#
# Elastic Constant Matrix: (Units=GPa)
#
#
# Indices 1 2 3 4 5 6 
#
# 1 163.2755 30.1059 3.1417 0.0000 0.0000 0.0000
# 2 30.1059 68.9890 23.5762 0.0000 0.0000 0.0000
# 3 3.1417 23.5762 80.8598 0.0000 0.0000 0.0000
# 4 0.0000 0.0000 0.0000 37.1545 0.0000 0.0000
# 5 0.0000 0.0000 0.0000 0.0000 22.7526 0.0000
# 6 0.0000 0.0000 0.0000 0.0000 0.0000 -12.6630
#
#
#
# Elastic Compliance Matrix: (Units=1/GPa)
#
#
# Indices 1 2 3 4 5 6 
#
# 1 0.006692 -0.003145 0.000657 0.000000 0.000000 0.000000
# 2 -0.003145 0.017577 -0.005003 0.000000 0.000000 0.000000
# 3 0.000657 -0.005003 0.013800 0.000000 0.000000 0.000000
# 4 0.000000 0.000000 0.000000 0.026915 0.000000 0.000000
# 5 0.000000 0.000000 0.000000 0.000000 0.043951 0.000000
# 6 0.000000 0.000000 0.000000 0.000000 0.000000 -0.078970
#
#
# Mechanical properties :
#
#
# Convention : Reuss Voigt Hill
#
# Bulk Modulus (GPa) = 43.31264 47.41910 45.36587
# Shear Modulus (GPa) = 94.98183 26.53551 60.75867
#
# Velocity S-wave (km/s) = 6.51290 3.44245 5.20905
# Velocity P-wave (km/s) = 8.71207 6.08091 7.51258
#
# Compressibility (1/GPa) = 0.02308795
#
# Stress axis : x y z
#
# Youngs Moduli (GPa) = 149.43607 56.89250 72.46267
#
# Poissons Ratio (x) = 0.17891 -0.04760
# Poissons Ratio (y) = 0.46993 0.36251
# Poissons Ratio (z) = -0.09816 0.28462
#
# Static dielectric constant tensor:
#      x y z
#    x 1.868450 0.000000 0.000000 
#    y 0.000000 1.835910 0.000000 
#    z 0.000000 0.000000 1.880780 
# 
# From -- ./inp_files/4230.got.cif
#   From: 2010.05.17/outbox.cif.g08.bks.cpg/sg20_3_cif.got.tgz:4230.got - 2010.06.03 22:52:26.
