data_PCOD9317085
_publ_section_title
;
Structure prediction by ZEFSAII (Michael W. Deem and Ramdas Pophale) SiO2 
 PCOD9317085
Probable space group: C 2 2 21
;
_chemical_formula_sum "Si O2"
_cell_formula_units_Z 64
_cell_length_a 23.846887
_cell_length_b 7.153481
_cell_length_c 15.416852
_cell_angle_alpha 90.000000
_cell_angle_beta 90.000000
_cell_angle_gamma 90.000000
_cell_volume 2629.933850
_symmetry_space_group_name_H-M "C 2 2 21"
_symmetry_group_IT_number 20
_symmetry_cell_setting 'orthorhombic'
loop_
_space_group_symop_operation_xyz
x,y,z
-x,-y,1/2+z
x,-y,-z
-x,y,1/2-z
1/2+x,1/2+y,z
1/2-x,1/2-y,1/2+z
1/2+x,1/2-y,-z
1/2-x,1/2+y,1/2-z
loop_
_atom_site_type_symbol
_atom_site_label
_atom_site_fract_x
_atom_site_fract_y
_atom_site_fract_z
Si Si1 0.851440 0.145301 0.880410
Si Si2 0.324867 0.725546 0.522909
Si Si3 0.951412 0.774979 0.486891
Si Si4 0.132821 0.720134 0.574559
Si Si5 0.968022 0.821804 0.165404
Si Si6 0.222945 0.728079 0.842568
Si Si7 0.515718 0.225556 0.652423
Si Si8 0.739631 0.879483 0.345988
O O1 0.902333 0.212831 0.821482
O O2 0.789073 0.198807 0.857386
O O3 0.852570 0.920046 0.881965
O O4 0.869878 0.223650 0.974298
O O5 0.321313 0.500000 0.500000
O O6 0.388949 0.773579 0.544128
O O7 0.308233 0.821550 0.431432
O O8 0.279530 0.762148 0.599480
O O9 0.000820 0.738078 0.418259
O O10 0.968038 0.691342 0.580274
O O11 0.950400 0.000000 0.500000
O O12 0.074737 0.650802 0.614931
O O13 0.186184 0.590963 0.592341
O O14 0.000000 0.760856 0.250000
O O15 0.975307 0.047679 0.155316
O O16 0.211596 0.650106 0.747733
O O17 0.218235 0.950427 0.831284
O O18 0.500000 0.169183 0.750000
#
# Coordination Sequence:
#
# PCOD9317085 Si02
#       8
#     8   8   8   8   8   8   8   8
#     4  10  19  34  56  83 112 144 184 231 279 332
#     4   9  20  35  53  79 113 145 182 229 280 330
#     4   9  16  29  46  73 109 139 172 223 272 318
#     4  10  19  34  56  83 112 144 184 231 279 332
#     4   9  17  28  48  79 110 139 176 224 277 323
#     4  11  23  39  57  83 112 148 191 232 280 334
#     4   9  17  28  48  79 110 139 176 224 277 323
#     4  11  23  39  57  83 112 148 191 232 280 334
#
# _framework density 24.335214000000001
#
# number of rings (size 3 to 8) (size 9 to 14) (size 15 to 20)
#    0.000    2.250    2.500    0.750    3.500    0.000 
#    0.000    0.000    0.000    0.750    0.000    0.000 
#    0.000    0.000    0.000    0.000    0.000    0.000 
#
# Total GULP energy -178749.447048 kJ/mol
# GULP energy per Si atom -5585.920220 kJ/mol
# Density = 2.427983 g / cm^3
# Si number density = 24.335214 Si / 1000 Ang^3
#
#
#
# Elastic Constant Matrix: (Units=GPa)
#
#
# Indices 1 2 3 4 5 6 
#
# 1 130.9776 -16.5729 23.3638 0.0000 0.0000 0.0000
# 2 -16.5729 57.5377 -12.5008 0.0000 0.0000 0.0000
# 3 23.3638 -12.5008 94.8983 0.0000 0.0000 0.0000
# 4 0.0000 0.0000 0.0000 7.0340 0.0000 0.0000
# 5 0.0000 0.0000 0.0000 0.0000 37.4970 0.0000
# 6 0.0000 0.0000 0.0000 0.0000 0.0000 15.3995
#
#
#
# Elastic Compliance Matrix: (Units=1/GPa)
#
#
# Indices 1 2 3 4 5 6 
#
# 1 0.008199 0.001980 -0.001758 0.000000 0.000000 0.000000
# 2 0.001980 0.018370 0.001932 0.000000 0.000000 0.000000
# 3 -0.001758 0.001932 0.011225 0.000000 0.000000 0.000000
# 4 0.000000 0.000000 0.000000 0.142168 0.000000 0.000000
# 5 0.000000 0.000000 0.000000 0.000000 0.026669 0.000000
# 6 0.000000 0.000000 0.000000 0.000000 0.000000 0.064937
#
#
# Mechanical properties :
#
#
# Convention : Reuss Voigt Hill
#
# Bulk Modulus (GPa) = 23.75154 30.22153 26.98654
# Shear Modulus (GPa) = 17.77507 31.26099 24.51803
#
# Velocity S-wave (km/s) = 2.70557 3.58802 3.17758
# Velocity P-wave (km/s) = 4.42058 5.44160 4.95744
#
# Compressibility (1/GPa) = 0.04210253
#
# Stress axis : x y z
#
# Youngs Moduli (GPa) = 121.96700 54.43668 89.08748
#
# Poissons Ratio (x) = -0.10777 0.15660
# Poissons Ratio (y) = -0.24146 -0.17216
# Poissons Ratio (z) = 0.21439 -0.10520
#
# Static dielectric constant tensor:
#      x y z
#    x 1.871230 0.000000 0.000000 
#    y 0.000000 2.117630 0.000000 
#    z 0.000000 0.000000 1.910370 
# 
# From -- ./inp_files/22045.got.cif
#   From: 2010.05.17/outbox.cif.g08.bks.cpg/sg20_12_cif.got.tgz:22045.got - 2010.06.03 22:52:26.
