data_PCOD9317044
_publ_section_title
;
Structure prediction by ZEFSAII (Michael W. Deem and Ramdas Pophale) SiO2 
 PCOD9317044
Probable space group: C 2 2 21
;
_chemical_formula_sum "Si O2"
_cell_formula_units_Z 40
_cell_length_a 5.251111
_cell_length_b 21.191451
_cell_length_c 15.001292
_cell_angle_alpha 90.000000
_cell_angle_beta 90.000000
_cell_angle_gamma 90.000000
_cell_volume 1669.323694
_symmetry_space_group_name_H-M "C 2 2 21"
_symmetry_group_IT_number 20
_symmetry_cell_setting 'orthorhombic'
loop_
_space_group_symop_operation_xyz
x,y,z
-x,-y,1/2+z
x,-y,-z
-x,y,1/2-z
1/2+x,1/2+y,z
1/2-x,1/2-y,1/2+z
1/2+x,1/2-y,-z
1/2-x,1/2+y,1/2-z
loop_
_atom_site_type_symbol
_atom_site_label
_atom_site_fract_x
_atom_site_fract_y
_atom_site_fract_z
Si Si1 0.068896 0.252158 0.887240
Si Si2 0.762228 0.369389 0.802775
Si Si3 0.418964 0.811669 0.415545
Si Si4 0.043055 0.012677 0.105392
Si Si5 0.467274 0.040276 0.592256
O O1 0.922071 0.310625 0.841221
O O2 0.859795 0.198044 0.875147
O O3 0.346644 0.223343 0.865277
O O4 0.094195 0.277027 0.988596
O O5 0.500000 0.351478 0.750000
O O6 0.638892 0.416740 0.875082
O O7 0.000000 0.401745 0.750000
O O8 0.449607 0.886046 0.428326
O O9 0.268136 0.969716 0.141527
O O10 0.772617 0.990595 0.141302
O O11 0.015915 0.000000 0.000000
O O12 0.489855 0.000000 0.500000
#
# Coordination Sequence:
#
# PCOD9317044 Si02
#       5
#     8   8   8   8   8
#     4  10  21  37  59  91 128 164 211 267 322 388
#     4  12  25  42  65  95 134 175 219 274 342 405
#     4  10  20  35  61  94 124 160 212 272 326 375
#     4  10  21  37  62  92 127 170 219 272 327 388
#     4  10  19  33  58  92 129 163 206 267 326 372
#
# _framework density 23.961801000000001
#
# number of rings (size 3 to 8) (size 9 to 14) (size 15 to 20)
#    0.000    1.600    0.000    6.000    0.000    9.600 
#    0.000    0.000    0.000   18.000    0.000    0.000 
#    0.000    0.000    0.000    0.000    0.000    0.000 
#
# Total GULP energy -111466.203062 kJ/mol
# GULP energy per Si atom -5573.310153 kJ/mol
# Density = 2.390726 g / cm^3
# Si number density = 23.961801 Si / 1000 Ang^3
#
#
#
# Elastic Constant Matrix: (Units=GPa)
#
#
# Indices 1 2 3 4 5 6 
#
# 1 158.0358 0.5367 21.0829 0.0000 0.0000 0.0000
# 2 0.5367 114.5598 7.0551 0.0000 0.0000 0.0000
# 3 21.0829 7.0551 43.0732 0.0000 0.0000 0.0000
# 4 0.0000 0.0000 0.0000 1393.2810 0.0000 0.0000
# 5 0.0000 0.0000 0.0000 0.0000 14.1365 0.0000
# 6 0.0000 0.0000 0.0000 0.0000 0.0000 41.5547
#
#
#
# Elastic Compliance Matrix: (Units=1/GPa)
#
#
# Indices 1 2 3 4 5 6 
#
# 1 0.006773 0.000174 -0.003344 0.000000 0.000000 0.000000
# 2 0.000174 0.008822 -0.001530 0.000000 0.000000 0.000000
# 3 -0.003344 -0.001530 0.025104 0.000000 0.000000 0.000000
# 4 0.000000 0.000000 0.000000 0.000718 0.000000 0.000000
# 5 0.000000 0.000000 0.000000 0.000000 0.070739 0.000000
# 6 0.000000 0.000000 0.000000 0.000000 0.000000 0.024065
#
#
# Mechanical properties :
#
#
# Convention : Reuss Voigt Hill
#
# Bulk Modulus (GPa) = 31.94942 41.44647 36.69795
# Shear Modulus (GPa) = 32.04024 308.92737 170.48381
#
# Velocity S-wave (km/s) = 3.66066 11.36683 8.44409
# Velocity P-wave (km/s) = 5.58835 13.76981 10.50803
#
# Compressibility (1/GPa) = 0.03129947
#
# Stress axis : x y z
#
# Youngs Moduli (GPa) = 147.64138 113.34666 39.83487
#
# Poissons Ratio (x) = -0.01974 0.13320
# Poissons Ratio (y) = -0.02572 0.06096
# Poissons Ratio (z) = 0.49368 0.17346
#
# Static dielectric constant tensor:
#      x y z
#    x -2.470840 0.000000 0.000000 
#    y 0.000000 1.930800 0.000000 
#    z 0.000000 0.000000 1.947760 
# 
# From -- ./inp_files/22588.got.cif
#   From: 2010.05.17/outbox.cif.g08.bks.cpg/sg20_12_cif.got.tgz:22588.got - 2010.06.03 22:52:26.
