data_PCOD9317257
_publ_section_title
;
Structure prediction by ZEFSAII (Michael W. Deem and Ramdas Pophale) SiO2 
 PCOD9317257
Probable space group: C 2 2 21
;
_chemical_formula_sum "Si O2"
_cell_formula_units_Z 56
_cell_length_a 15.456043
_cell_length_b 19.087526
_cell_length_c 10.489001
_cell_angle_alpha 90.000000
_cell_angle_beta 90.000000
_cell_angle_gamma 90.000000
_cell_volume 3094.440139
_symmetry_space_group_name_H-M "C 2 2 21"
_symmetry_group_IT_number 20
_symmetry_cell_setting 'orthorhombic'
loop_
_space_group_symop_operation_xyz
x,y,z
-x,-y,1/2+z
x,-y,-z
-x,y,1/2-z
1/2+x,1/2+y,z
1/2-x,1/2-y,1/2+z
1/2+x,1/2-y,-z
1/2-x,1/2+y,1/2-z
loop_
_atom_site_type_symbol
_atom_site_label
_atom_site_fract_x
_atom_site_fract_y
_atom_site_fract_z
Si Si1 0.103374 0.781227 0.260543
Si Si2 0.857865 0.777140 0.942474
Si Si3 0.095157 0.521757 0.240946
Si Si4 0.192526 0.500000 0.500000
Si Si5 0.804885 0.648214 0.360647
Si Si6 0.133483 0.623563 0.856156
Si Si7 0.254427 0.638672 0.617595
Si Si8 0.500000 0.235058 0.750000
O O1 0.127745 0.794609 0.408924
O O2 0.142636 0.705841 0.220044
O O3 0.151674 0.833037 0.160237
O O4 0.000000 0.782438 0.250000
O O5 0.794958 0.830392 0.867713
O O6 0.804655 0.702816 0.936610
O O7 0.946705 0.773214 0.862088
O O8 0.128650 0.503405 0.380371
O O9 0.168534 0.572997 0.190016
O O10 0.088624 0.452316 0.153990
O O11 0.000000 0.555137 0.250000
O O12 0.247665 0.571044 0.525810
O O13 0.834358 0.645615 0.506695
O O14 0.209739 0.619942 0.752628
O O15 0.069137 0.683971 0.813926
#
# Coordination Sequence:
#
# PCOD9317257 Si02
#       8
#     8   8   8   4   8   8   8   4
#     4  11  21  37  58  88 116 154 200 249 293 347
#     4  10  21  38  58  89 122 154 201 240 297 360
#     4  11  23  35  58  87 121 157 193 240 295 361
#     4  10  22  40  56  82 114 158 202 234 302 364
#     4  11  22  35  57  88 124 155 192 237 297 363
#     4  10  19  36  56  85 119 157 192 238 299 352
#     4   9  20  37  59  79 117 157 191 246 298 356
#     4  10  20  36  62  84 118 162 198 242 290 350
#
# _framework density 18.096972999999998
#
# number of rings (size 3 to 8) (size 9 to 14) (size 15 to 20)
#    0.000    1.714    2.143    2.571    2.000    0.000 
#    2.571    0.000    0.000    3.429    0.000    0.000 
#    0.000    0.000    0.000    0.000    0.000    0.000 
#
# Total GULP energy -156104.875963 kJ/mol
# GULP energy per Si atom -5575.174142 kJ/mol
# Density = 1.805578 g / cm^3
# Si number density = 18.096973 Si / 1000 Ang^3
#
#
#
# Elastic Constant Matrix: (Units=GPa)
#
#
# Indices 1 2 3 4 5 6 
#
# 1 85.6543 11.3680 29.9172 0.0000 0.0000 0.0000
# 2 11.3680 25.4561 10.5332 0.0000 0.0000 0.0000
# 3 29.9172 10.5332 41.8181 0.0000 0.0000 0.0000
# 4 0.0000 0.0000 0.0000 27.8335 0.0000 0.0000
# 5 0.0000 0.0000 0.0000 0.0000 16.2059 0.0000
# 6 0.0000 0.0000 0.0000 0.0000 0.0000 22.4631
#
#
#
# Elastic Compliance Matrix: (Units=1/GPa)
#
#
# Indices 1 2 3 4 5 6 
#
# 1 0.015722 -0.002642 -0.010582 0.000000 0.000000 0.000000
# 2 -0.002642 0.044298 -0.009268 0.000000 0.000000 0.000000
# 3 -0.010582 -0.009268 0.033818 0.000000 0.000000 0.000000
# 4 0.000000 0.000000 0.000000 0.035928 0.000000 0.000000
# 5 0.000000 0.000000 0.000000 0.000000 0.061706 0.000000
# 6 0.000000 0.000000 0.000000 0.000000 0.000000 0.044517
#
#
# Mechanical properties :
#
#
# Convention : Reuss Voigt Hill
#
# Bulk Modulus (GPa) = 20.46915 28.50726 24.48820
# Shear Modulus (GPa) = 16.82049 20.04117 18.43083
#
# Velocity S-wave (km/s) = 3.05202 3.33142 3.19478
# Velocity P-wave (km/s) = 4.87392 5.53033 5.21247
#
# Compressibility (1/GPa) = 0.04885402
#
# Stress axis : x y z
#
# Youngs Moduli (GPa) = 63.60711 22.57434 29.57025
#
# Poissons Ratio (x) = 0.05965 0.31291
# Poissons Ratio (y) = 0.16807 0.27405
# Poissons Ratio (z) = 0.67308 0.20921
#
# Static dielectric constant tensor:
#      x y z
#    x 1.749080 0.000000 0.000000 
#    y 0.000000 1.675660 0.000000 
#    z 0.000000 0.000000 1.606260 
# 
# From -- ./inp_files/8782.got.cif
#   From: 2010.05.17/outbox.cif.g08.bks.cpg/sg20_5_cif.got.tgz:8782.got - 2010.06.03 22:52:26.
