data_PCOD9317968
_publ_section_title
;
Structure prediction by ZEFSAII (Michael W. Deem and Ramdas Pophale) SiO2 
 PCOD9317968
Probable space group: C 2 2 21
;
_chemical_formula_sum "Si O2"
_cell_formula_units_Z 64
_cell_length_a 13.205446
_cell_length_b 14.731693
_cell_length_c 16.701241
_cell_angle_alpha 90.000000
_cell_angle_beta 90.000000
_cell_angle_gamma 90.000000
_cell_volume 3249.035648
_symmetry_space_group_name_H-M "C 2 2 21"
_symmetry_group_IT_number 20
_symmetry_cell_setting 'orthorhombic'
loop_
_space_group_symop_operation_xyz
x,y,z
-x,-y,1/2+z
x,-y,-z
-x,y,1/2-z
1/2+x,1/2+y,z
1/2-x,1/2-y,1/2+z
1/2+x,1/2-y,-z
1/2-x,1/2+y,1/2-z
loop_
_atom_site_type_symbol
_atom_site_label
_atom_site_fract_x
_atom_site_fract_y
_atom_site_fract_z
Si Si1 0.697817 0.118583 0.285226
Si Si2 0.615117 0.770126 0.409362
Si Si3 0.342491 0.565141 0.068894
Si Si4 0.381266 0.932034 0.609212
Si Si5 0.879558 0.996835 0.243368
Si Si6 0.757677 0.816575 0.261629
Si Si7 0.409471 0.905095 0.951897
Si Si8 0.439842 0.116799 0.671200
O O1 0.642959 0.087215 0.202957
O O2 0.696527 0.226985 0.278214
O O3 0.646374 0.086107 0.366733
O O4 0.811385 0.076513 0.283005
O O5 0.607038 0.663280 0.424849
O O6 0.705180 0.788047 0.345467
O O7 0.633009 0.827243 0.489942
O O8 0.513024 0.809339 0.368714
O O9 0.222053 0.582846 0.061704
O O10 0.354924 0.509645 0.150269
O O11 0.380700 0.500000 0.000000
O O12 0.475357 0.879585 0.571982
O O13 0.417542 0.036262 0.610067
O O14 0.834989 0.899989 0.271241
O O15 0.000000 0.005356 0.250000
O O16 0.666124 0.847851 0.204410
O O17 0.403240 0.000000 0.000000
O O18 0.500000 0.082125 0.750000
#
# Coordination Sequence:
#
# PCOD9317968 Si02
#       8
#     8   8   8   8   8   8   8   8
#     4  11  24  43  70  97 135 180 232 276 340 417
#     4  11  24  42  67 105 139 169 230 287 341 411
#     4  11  25  45  65  96 141 183 220 277 339 416
#     4  11  21  43  68  98 132 180 225 278 343 417
#     4  11  25  45  70  93 132 182 228 274 338 414
#     4  11  22  44  69  99 129 182 231 282 332 414
#     4  12  24  39  67 106 139 168 223 301 350 392
#     4  10  20  36  71  98 128 166 225 276 340 398
#
# _framework density 19.698153000000001
#
# number of rings (size 3 to 8) (size 9 to 14) (size 15 to 20)
#    0.000    1.000    6.250    2.250    3.500    1.000 
#    0.000    1.875    0.000    0.000    0.000    0.000 
#    0.000    0.000    0.000    0.000    0.000    0.000 
#
# Total GULP energy -178747.247082 kJ/mol
# GULP energy per Si atom -5585.851471 kJ/mol
# Density = 1.965332 g / cm^3
# Si number density = 19.698153 Si / 1000 Ang^3
#
#
#
# Elastic Constant Matrix: (Units=GPa)
#
#
# Indices 1 2 3 4 5 6 
#
# 1 52.4269 -9.4680 -8.1528 0.0000 0.0000 0.0000
# 2 -9.4680 77.4418 -1.6303 0.0000 0.0000 0.0000
# 3 -8.1528 -1.6303 57.2520 0.0000 0.0000 0.0000
# 4 0.0000 0.0000 0.0000 28.7305 0.0000 0.0000
# 5 0.0000 0.0000 0.0000 0.0000 15.4925 0.0000
# 6 0.0000 0.0000 0.0000 0.0000 0.0000 1.1670
#
#
#
# Elastic Compliance Matrix: (Units=1/GPa)
#
#
# Indices 1 2 3 4 5 6 
#
# 1 0.019980 0.002504 0.002916 0.000000 0.000000 0.000000
# 2 0.002504 0.013235 0.000733 0.000000 0.000000 0.000000
# 3 0.002916 0.000733 0.017903 0.000000 0.000000 0.000000
# 4 0.000000 0.000000 0.000000 0.034806 0.000000 0.000000
# 5 0.000000 0.000000 0.000000 0.000000 0.064547 0.000000
# 6 0.000000 0.000000 0.000000 0.000000 0.000000 0.856916
#
#
# Mechanical properties :
#
#
# Convention : Reuss Voigt Hill
#
# Bulk Modulus (GPa) = 15.76653 16.51316 16.13985
# Shear Modulus (GPa) = 4.92019 22.83612 13.87816
#
# Velocity S-wave (km/s) = 1.58216 3.40855 2.65720
# Velocity P-wave (km/s) = 3.37032 4.88797 4.19829
#
# Compressibility (1/GPa) = 0.06342549
#
# Stress axis : x y z
#
# Youngs Moduli (GPa) = 50.05019 75.55998 55.85706
#
# Poissons Ratio (x) = -0.18921 -0.16291
# Poissons Ratio (y) = -0.12533 -0.04097
# Poissons Ratio (z) = -0.14597 -0.05542
#
# Static dielectric constant tensor:
#      x y z
#    x 1.715050 0.000000 0.000000 
#    y 0.000000 1.694400 0.000000 
#    z 0.000000 0.000000 1.713140 
# 
# From -- ./inp_files/24468.got.cif
#   From: 2010.05.17/outbox.cif.g08.bks.cpg/sg20_13_cif.got.tgz:24468.got - 2010.06.03 22:52:26.
