data_PCOD9317163
_publ_section_title
;
Structure prediction by ZEFSAII (Michael W. Deem and Ramdas Pophale) SiO2 
 PCOD9317163
Probable space group: C 2 2 21
;
_chemical_formula_sum "Si O2"
_cell_formula_units_Z 64
_cell_length_a 18.955433
_cell_length_b 12.619652
_cell_length_c 10.768128
_cell_angle_alpha 90.000000
_cell_angle_beta 90.000000
_cell_angle_gamma 90.000000
_cell_volume 2575.854322
_symmetry_space_group_name_H-M "C 2 2 21"
_symmetry_group_IT_number 20
_symmetry_cell_setting 'orthorhombic'
loop_
_space_group_symop_operation_xyz
x,y,z
-x,-y,1/2+z
x,-y,-z
-x,y,1/2-z
1/2+x,1/2+y,z
1/2-x,1/2-y,1/2+z
1/2+x,1/2-y,-z
1/2-x,1/2+y,1/2-z
loop_
_atom_site_type_symbol
_atom_site_label
_atom_site_fract_x
_atom_site_fract_y
_atom_site_fract_z
Si Si1 0.432036 0.421156 0.688247
Si Si2 0.261367 0.775082 0.703779
Si Si3 0.474601 0.706864 0.549918
Si Si4 0.280864 0.474069 0.646033
Si Si5 0.621456 0.990334 0.647128
Si Si6 0.601931 0.259410 0.305873
Si Si7 0.634588 0.126423 0.996013
Si Si8 0.876820 0.298157 0.227703
O O1 0.500000 0.473604 0.750000
O O2 0.448189 0.379504 0.548651
O O3 0.360941 0.489946 0.692537
O O4 0.419875 0.310296 0.763029
O O5 0.229781 0.854798 0.805407
O O6 0.317439 0.707546 0.783040
O O7 0.310117 0.828886 0.597795
O O8 0.192202 0.724084 0.642993
O O9 0.437772 0.699958 0.683708
O O10 0.557975 0.705098 0.574428
O O11 0.443318 0.821881 0.511837
O O12 0.283428 0.500000 0.500000
O O13 0.203157 0.512040 0.688471
O O14 0.581683 0.095157 0.693473
O O15 0.619552 0.000000 0.500000
O O16 0.600721 0.871586 0.688731
O O17 0.654164 0.172675 0.862863
O O18 0.633058 0.000000 0.000000
#
# Coordination Sequence:
#
# PCOD9317163 Si02
#       8
#     8   8   8   8   8   8   8   8
#     4  10  22  39  59  85 119 163 202 243 297 362
#     4   9  19  35  58  87 114 148 195 247 298 350
#     4   9  19  34  54  78 116 159 189 232 292 354
#     4   9  19  38  62  82 111 157 198 249 296 354
#     4  10  21  34  57  91 118 148 200 248 298 358
#     4   9  18  34  53  83 115 148 191 244 286 352
#     4  10  19  35  55  78 119 158 189 231 292 364
#     4  10  21  37  56  87 119 156 192 242 304 354
#
# _framework density 24.846128
#
# number of rings (size 3 to 8) (size 9 to 14) (size 15 to 20)
#    0.000    2.500    0.000    2.250    1.750    9.500 
#    6.750    0.000    5.500    3.000    0.000    0.000 
#    0.000    0.000    0.000    0.000    0.000    0.000 
#
# Total GULP energy -178373.394020 kJ/mol
# GULP energy per Si atom -5574.168563 kJ/mol
# Density = 2.478958 g / cm^3
# Si number density = 24.846128 Si / 1000 Ang^3
#
#
#
# Elastic Constant Matrix: (Units=GPa)
#
#
# Indices 1 2 3 4 5 6 
#
# 1 122.2073 14.1498 26.1281 0.0000 0.0000 0.0000
# 2 14.1498 111.5164 20.9483 0.0000 0.0000 0.0000
# 3 26.1281 20.9483 81.3969 0.0000 0.0000 0.0000
# 4 0.0000 0.0000 0.0000 11.4935 0.0000 0.0000
# 5 0.0000 0.0000 0.0000 0.0000 34.0433 0.0000
# 6 0.0000 0.0000 0.0000 0.0000 0.0000 15.6905
#
#
#
# Elastic Compliance Matrix: (Units=1/GPa)
#
#
# Indices 1 2 3 4 5 6 
#
# 1 0.008826 -0.000618 -0.002674 0.000000 0.000000 0.000000
# 2 -0.000618 0.009466 -0.002238 0.000000 0.000000 0.000000
# 3 -0.002674 -0.002238 0.013720 0.000000 0.000000 0.000000
# 4 0.000000 0.000000 0.000000 0.087006 0.000000 0.000000
# 5 0.000000 0.000000 0.000000 0.000000 0.029374 0.000000
# 6 0.000000 0.000000 0.000000 0.000000 0.000000 0.063733
#
#
# Mechanical properties :
#
#
# Convention : Reuss Voigt Hill
#
# Bulk Modulus (GPa) = 47.72689 48.61924 48.17307
# Shear Modulus (GPa) = 21.72321 29.17175 25.44748
#
# Velocity S-wave (km/s) = 2.96008 3.43023 3.20379
# Velocity P-wave (km/s) = 5.56179 5.94131 5.75468
#
# Compressibility (1/GPa) = 0.02095255
#
# Stress axis : x y z
#
# Youngs Moduli (GPa) = 113.30069 105.64075 72.88710
#
# Poissons Ratio (x) = 0.06524 0.19492
# Poissons Ratio (y) = 0.06997 0.16312
# Poissons Ratio (z) = 0.30299 0.23642
#
# Static dielectric constant tensor:
#      x y z
#    x 2.069280 0.000000 0.000000 
#    y 0.000000 2.049200 0.000000 
#    z 0.000000 0.000000 1.996560 
# 
# From -- ./inp_files/15894.got.cif
#   From: 2010.05.17/outbox.cif.g08.bks.cpg/sg20_8_cif.got.tgz:15894.got - 2010.06.03 22:52:26.
