data_PCOD9317127
_publ_section_title
;
Structure prediction by ZEFSAII (Michael W. Deem and Ramdas Pophale) SiO2 
 PCOD9317127
Probable space group: C 2 2 21
;
_chemical_formula_sum "Si O2"
_cell_formula_units_Z 64
_cell_length_a 11.797107
_cell_length_b 22.451426
_cell_length_c 13.358663
_cell_angle_alpha 90.000000
_cell_angle_beta 90.000000
_cell_angle_gamma 90.000000
_cell_volume 3538.200527
_symmetry_space_group_name_H-M "C 2 2 21"
_symmetry_group_IT_number 20
_symmetry_cell_setting 'orthorhombic'
loop_
_space_group_symop_operation_xyz
x,y,z
-x,-y,1/2+z
x,-y,-z
-x,y,1/2-z
1/2+x,1/2+y,z
1/2-x,1/2-y,1/2+z
1/2+x,1/2-y,-z
1/2-x,1/2+y,1/2-z
loop_
_atom_site_type_symbol
_atom_site_label
_atom_site_fract_x
_atom_site_fract_y
_atom_site_fract_z
Si Si1 0.565573 0.124981 0.657330
Si Si2 0.564803 0.373066 0.145438
Si Si3 0.373824 0.922418 0.789711
Si Si4 0.136820 0.194175 0.546114
Si Si5 0.034211 0.674351 0.448241
Si Si6 0.245910 0.029186 0.892295
Si Si7 0.248432 0.707049 0.742246
Si Si8 0.291131 0.173388 0.355392
O O1 0.500000 0.095699 0.750000
O O2 0.504406 0.147645 0.557408
O O3 0.659101 0.079898 0.616449
O O4 0.629104 0.179879 0.710854
O O5 0.500000 0.379490 0.250000
O O6 0.474343 0.346631 0.066604
O O7 0.628941 0.435101 0.125222
O O8 0.660815 0.323379 0.166988
O O9 0.500000 0.939906 0.750000
O O10 0.399516 0.874631 0.879944
O O11 0.308563 0.888242 0.701467
O O12 0.294211 0.976737 0.822160
O O13 0.101823 0.263896 0.537997
O O14 0.213882 0.190161 0.646075
O O15 0.206316 0.174558 0.448802
O O16 0.917806 0.689307 0.392049
O O17 0.241087 0.000000 0.000000
O O18 0.252714 0.776926 0.723691
#
# Coordination Sequence:
#
# PCOD9317127 Si02
#       8
#     8   8   8   8   8   8   8   8
#     4  11  22  37  57  88 123 158 197 255 308 352
#     4   9  21  39  63  84 116 167 207 247 297 365
#     4  10  22  39  62  90 118 159 204 261 314 354
#     4  11  20  36  59  90 127 158 206 246 309 377
#     4  11  20  34  61  91 124 157 198 248 311 379
#     4  11  22  42  64  84 115 161 219 245 298 373
#     4  10  19  34  59  87 120 165 198 241 303 380
#     4  11  21  34  58  93 126 158 197 257 311 364
#
# _framework density 18.088290000000001
#
# number of rings (size 3 to 8) (size 9 to 14) (size 15 to 20)
#    0.000    1.500    5.000    1.125    0.000    0.000 
#    2.250    0.000    0.000    0.000    0.000    0.000 
#    0.000    0.000    0.000    0.000    0.000    0.000 
#
# Total GULP energy -178396.129745 kJ/mol
# GULP energy per Si atom -5574.879055 kJ/mol
# Density = 1.804712 g / cm^3
# Si number density = 18.088290 Si / 1000 Ang^3
#
#
#
# Elastic Constant Matrix: (Units=GPa)
#
#
# Indices 1 2 3 4 5 6 
#
# 1 36.6810 13.5993 5.5091 0.0000 0.0000 0.0000
# 2 13.5993 75.2598 12.2257 0.0000 0.0000 0.0000
# 3 5.5091 12.2257 63.2599 0.0000 0.0000 0.0000
# 4 0.0000 0.0000 0.0000 26.1675 0.0000 0.0000
# 5 0.0000 0.0000 0.0000 0.0000 28.0944 0.0000
# 6 0.0000 0.0000 0.0000 0.0000 0.0000 28.4554
#
#
#
# Elastic Compliance Matrix: (Units=1/GPa)
#
#
# Indices 1 2 3 4 5 6 
#
# 1 0.029372 -0.005051 -0.001582 0.000000 0.000000 0.000000
# 2 -0.005051 0.014586 -0.002379 0.000000 0.000000 0.000000
# 3 -0.001582 -0.002379 0.016405 0.000000 0.000000 0.000000
# 4 0.000000 0.000000 0.000000 0.038215 0.000000 0.000000
# 5 0.000000 0.000000 0.000000 0.000000 0.035594 0.000000
# 6 0.000000 0.000000 0.000000 0.000000 0.000000 0.035143
#
#
# Mechanical properties :
#
#
# Convention : Reuss Voigt Hill
#
# Bulk Modulus (GPa) = 23.61791 26.42991 25.02391
# Shear Modulus (GPa) = 24.81972 26.13458 25.47715
#
# Velocity S-wave (km/s) = 3.70826 3.80522 3.75706
# Velocity P-wave (km/s) = 5.60538 5.82663 5.71708
#
# Compressibility (1/GPa) = 0.04234075
#
# Stress axis : x y z
#
# Youngs Moduli (GPa) = 34.04595 68.55696 60.95569
#
# Poissons Ratio (x) = 0.34625 0.09642
# Poissons Ratio (y) = 0.17195 0.14502
# Poissons Ratio (z) = 0.05386 0.16311
#
# Static dielectric constant tensor:
#      x y z
#    x 1.629670 0.000000 0.000000 
#    y 0.000000 1.622650 0.000000 
#    z 0.000000 0.000000 1.623890 
# 
# From -- ./inp_files/14496.got.cif
#   From: 2010.05.17/outbox.cif.g08.bks.cpg/sg20_8_cif.got.tgz:14496.got - 2010.06.03 22:52:26.
