data_PCOD9317104
_publ_section_title
;
Structure prediction by ZEFSAII (Michael W. Deem and Ramdas Pophale) SiO2 
 PCOD9317104
Probable space group: C 2 2 21
;
_chemical_formula_sum "Si O2"
_cell_formula_units_Z 64
_cell_length_a 13.752021
_cell_length_b 11.261089
_cell_length_c 19.125810
_cell_angle_alpha 90.000000
_cell_angle_beta 90.000000
_cell_angle_gamma 90.000000
_cell_volume 2961.875196
_symmetry_space_group_name_H-M "C 2 2 21"
_symmetry_group_IT_number 20
_symmetry_cell_setting 'orthorhombic'
loop_
_space_group_symop_operation_xyz
x,y,z
-x,-y,1/2+z
x,-y,-z
-x,y,1/2-z
1/2+x,1/2+y,z
1/2-x,1/2-y,1/2+z
1/2+x,1/2-y,-z
1/2-x,1/2+y,1/2-z
loop_
_atom_site_type_symbol
_atom_site_label
_atom_site_fract_x
_atom_site_fract_y
_atom_site_fract_z
Si Si1 0.141358 0.197662 0.025100
Si Si2 0.882846 0.028551 0.253315
Si Si3 0.395391 0.074154 0.611613
Si Si4 0.329495 0.458586 0.401156
Si Si5 0.680451 0.506088 0.599438
Si Si6 0.355089 0.292755 0.998610
Si Si7 0.114612 0.294866 0.254081
Si Si8 0.391919 0.085722 0.904848
O O1 0.094056 0.306554 0.065572
O O2 0.123488 0.080016 0.070573
O O3 0.127061 0.151185 0.945639
O O4 0.251820 0.241644 0.022190
O O5 0.848387 0.952815 0.319294
O O6 0.842761 0.983549 0.180166
O O7 0.000000 0.026784 0.250000
O O8 0.842815 0.164319 0.260316
O O9 0.297529 0.009457 0.585777
O O10 0.368702 0.113962 0.690737
O O11 0.504461 0.019121 0.607066
O O12 0.213606 0.473813 0.416377
O O13 0.623950 0.612574 0.559730
O O14 0.647578 0.380396 0.568235
O O15 0.405739 0.174577 0.970536
O O16 0.129711 0.344333 0.331864
O O17 0.000000 0.274483 0.250000
#
# Coordination Sequence:
#
# PCOD9317104 Si02
#       8
#     8   8   8   8   8   8   8   8
#     4   9  19  35  53  78 113 146 180 224 275 325
#     4  11  21  34  55  82 108 142 185 229 278 331
#     4  10  19  34  57  83 110 145 187 229 273 328
#     4  10  20  35  55  82 111 145 183 230 278 327
#     4  10  20  35  55  82 111 145 183 230 278 327
#     4   9  19  35  53  78 113 146 180 224 275 325
#     4   9  17  30  50  80 106 134 182 229 265 315
#     4  10  19  34  57  83 110 145 187 229 273 328
#
# _framework density 21.607934
#
# number of rings (size 3 to 8) (size 9 to 14) (size 15 to 20)
#    0.000    2.250    2.500    0.750    0.000    1.000 
#    0.000   12.500    0.000    1.500    0.000    0.000 
#    0.000    0.000    0.000    0.000    0.000    0.000 
#
# Total GULP energy -178162.360836 kJ/mol
# GULP energy per Si atom -5567.573776 kJ/mol
# Density = 2.155875 g / cm^3
# Si number density = 21.607934 Si / 1000 Ang^3
#
#
#
# Elastic Constant Matrix: (Units=GPa)
#
#
# Indices 1 2 3 4 5 6 
#
# 1 62.8001 -10.6536 -9.8490 0.0000 0.0000 0.0000
# 2 -10.6536 15.3300 0.5166 0.0000 0.0000 0.0000
# 3 -9.8490 0.5166 116.6769 0.0000 0.0000 0.0000
# 4 0.0000 0.0000 0.0000 4.9553 0.0000 0.0000
# 5 0.0000 0.0000 0.0000 0.0000 1163.9941 0.0000
# 6 0.0000 0.0000 0.0000 0.0000 0.0000 6.3271
#
#
#
# Elastic Compliance Matrix: (Units=1/GPa)
#
#
# Indices 1 2 3 4 5 6 
#
# 1 0.018307 0.012672 0.001489 0.000000 0.000000 0.000000
# 2 0.012672 0.074013 0.000742 0.000000 0.000000 0.000000
# 3 0.001489 0.000742 0.008693 0.000000 0.000000 0.000000
# 4 0.000000 0.000000 0.000000 0.201802 0.000000 0.000000
# 5 0.000000 0.000000 0.000000 0.000000 0.000859 0.000000
# 6 0.000000 0.000000 0.000000 0.000000 0.000000 0.158049
#
#
# Mechanical properties :
#
#
# Convention : Reuss Voigt Hill
#
# Bulk Modulus (GPa) = 7.64410 17.20389 12.42400
# Shear Modulus (GPa) = 10.51473 249.37485 129.94479
#
# Velocity S-wave (km/s) = 2.20833 10.75451 7.76325
# Velocity P-wave (km/s) = 3.16979 12.73545 9.28007
#
# Compressibility (1/GPa) = 0.13081979
#
# Stress axis : x y z
#
# Youngs Moduli (GPa) = 54.62440 13.51112 115.03378
#
# Poissons Ratio (x) = -0.17122 -0.17131
# Poissons Ratio (y) = -0.69221 -0.08535
# Poissons Ratio (z) = -0.08135 -0.01003
#
# Static dielectric constant tensor:
#      x y z
#    x 1.857150 0.000000 0.000000 
#    y 0.000000 1.734620 0.000000 
#    z 0.000000 0.000000 1.675310 
# 
# From -- ./inp_files/24995.got.cif
#   From: 2010.05.17/outbox.cif.g08.bks.cpg/sg20_13_cif.got.tgz:24995.got - 2010.06.03 22:52:26.
