data_PCOD9317949
_publ_section_title
;
Structure prediction by ZEFSAII (Michael W. Deem and Ramdas Pophale) SiO2 
 PCOD9317949
Probable space group: C 2 2 21
;
_chemical_formula_sum "Si O2"
_cell_formula_units_Z 44
_cell_length_a 16.404197
_cell_length_b 7.445809
_cell_length_c 16.837372
_cell_angle_alpha 90.000000
_cell_angle_beta 90.000000
_cell_angle_gamma 90.000000
_cell_volume 2056.559007
_symmetry_space_group_name_H-M "C 2 2 21"
_symmetry_group_IT_number 20
_symmetry_cell_setting 'orthorhombic'
loop_
_space_group_symop_operation_xyz
x,y,z
-x,-y,1/2+z
x,-y,-z
-x,y,1/2-z
1/2+x,1/2+y,z
1/2-x,1/2-y,1/2+z
1/2+x,1/2-y,-z
1/2-x,1/2+y,1/2-z
loop_
_atom_site_type_symbol
_atom_site_label
_atom_site_fract_x
_atom_site_fract_y
_atom_site_fract_z
Si Si1 0.169416 0.656877 0.453321
Si Si2 0.473247 0.004810 0.144388
Si Si3 0.920307 0.000000 0.000000
Si Si4 0.869152 0.384863 0.702878
Si Si5 0.789516 0.112044 0.801892
Si Si6 0.454316 0.582662 0.169307
O O1 0.216979 0.500000 0.500000
O O2 0.087714 0.442320 0.575811
O O3 0.208568 0.744313 0.374359
O O4 0.138571 0.826429 0.504208
O O5 0.476268 0.791477 0.158482
O O6 0.563204 0.088584 0.135420
O O7 0.425239 0.086536 0.219752
O O8 0.970019 0.008449 0.917087
O O9 0.819461 0.204168 0.720227
O O10 0.800238 0.535110 0.701258
O O11 0.858574 0.961736 0.818358
O O12 0.500000 0.517859 0.250000
#
# Coordination Sequence:
#
# PCOD9317949 Si02
#       6
#     8   8   4   8   8   8
#     4  10  20  39  64  90 125 173 211 270 328 399
#     4  10  20  36  66  86 125 166 216 264 329 385
#     4  10  22  36  64  96 130 166 222 264 332 398
#     4  10  20  37  55  96 121 162 213 270 318 391
#     4  10  23  35  63  91 129 165 216 266 332 388
#     4  11  21  37  64  94 123 171 218 264 324 399
#
# _framework density 21.394962
#
# number of rings (size 3 to 8) (size 9 to 14) (size 15 to 20)
#    0.000    1.818    3.636    1.091    7.636    0.000 
#    0.000    0.000   10.000    0.000    0.000    0.000 
#    0.000    0.000    0.000    0.000    0.000    0.000 
#
# Total GULP energy -122576.831139 kJ/mol
# GULP energy per Si atom -5571.674143 kJ/mol
# Density = 2.134627 g / cm^3
# Si number density = 21.394962 Si / 1000 Ang^3
#
#
#
# Elastic Constant Matrix: (Units=GPa)
#
#
# Indices 1 2 3 4 5 6 
#
# 1 103.4628 9.5450 13.7867 0.0000 0.0000 0.0000
# 2 9.5450 82.6614 11.3602 0.0000 0.0000 0.0000
# 3 13.7867 11.3602 56.0182 0.0000 0.0000 0.0000
# 4 0.0000 0.0000 0.0000 33.0020 0.0000 0.0000
# 5 0.0000 0.0000 0.0000 0.0000 1.4978 0.0000
# 6 0.0000 0.0000 0.0000 0.0000 0.0000 23.3907
#
#
#
# Elastic Compliance Matrix: (Units=1/GPa)
#
#
# Indices 1 2 3 4 5 6 
#
# 1 0.010050 -0.000844 -0.002302 0.000000 0.000000 0.000000
# 2 -0.000844 0.012515 -0.002330 0.000000 0.000000 0.000000
# 3 -0.002302 -0.002330 0.018891 0.000000 0.000000 0.000000
# 4 0.000000 0.000000 0.000000 0.030301 0.000000 0.000000
# 5 0.000000 0.000000 0.000000 0.000000 0.667665 0.000000
# 6 0.000000 0.000000 0.000000 0.000000 0.000000 0.042752
#
#
# Mechanical properties :
#
#
# Convention : Reuss Voigt Hill
#
# Bulk Modulus (GPa) = 32.78416 34.61403 33.69910
# Shear Modulus (GPa) = 6.22436 25.40813 15.81625
#
# Velocity S-wave (km/s) = 1.70751 3.44986 2.72187
# Velocity P-wave (km/s) = 4.38680 5.66413 5.06589
#
# Compressibility (1/GPa) = 0.03050253
#
# Stress axis : x y z
#
# Youngs Moduli (GPa) = 99.50286 79.90241 52.93658
#
# Poissons Ratio (x) = 0.06744 0.12187
# Poissons Ratio (y) = 0.08399 0.12336
# Poissons Ratio (z) = 0.22908 0.18620
#
# Static dielectric constant tensor:
#      x y z
#    x 1.785570 0.000000 0.000000 
#    y 0.000000 1.864700 0.000000 
#    z 0.000000 0.000000 2.050670 
# 
# From -- ./inp_files/24728.got.cif
#   From: 2010.05.17/outbox.cif.g08.bks.cpg/sg20_13_cif.got.tgz:24728.got - 2010.06.03 22:52:26.
