data_PCOD9317119
_publ_section_title
;
Structure prediction by ZEFSAII (Michael W. Deem and Ramdas Pophale) SiO2 
 PCOD9317119
Probable space group: C 2 2 21
;
_chemical_formula_sum "Si O2"
_cell_formula_units_Z 64
_cell_length_a 18.146436
_cell_length_b 21.019715
_cell_length_c 8.897018
_cell_angle_alpha 90.000000
_cell_angle_beta 90.000000
_cell_angle_gamma 90.000000
_cell_volume 3393.615493
_symmetry_space_group_name_H-M "C 2 2 21"
_symmetry_group_IT_number 20
_symmetry_cell_setting 'orthorhombic'
loop_
_space_group_symop_operation_xyz
x,y,z
-x,-y,1/2+z
x,-y,-z
-x,y,1/2-z
1/2+x,1/2+y,z
1/2-x,1/2-y,1/2+z
1/2+x,1/2-y,-z
1/2-x,1/2+y,1/2-z
loop_
_atom_site_type_symbol
_atom_site_label
_atom_site_fract_x
_atom_site_fract_y
_atom_site_fract_z
Si Si1 0.679105 0.697545 0.669966
Si Si2 0.185381 0.444503 0.895670
Si Si3 0.766128 0.342315 0.842229
Si Si4 0.392393 0.155014 0.906404
Si Si5 0.025631 0.237946 0.574830
Si Si6 0.664854 0.167388 0.912579
Si Si7 0.626757 0.304445 0.010206
Si Si8 0.074939 0.484713 0.325121
O O1 0.709586 0.769647 0.693240
O O2 0.604789 0.703641 0.574758
O O3 0.746698 0.660348 0.598822
O O4 0.653718 0.670393 0.828924
O O5 0.226764 0.392971 0.790960
O O6 0.137690 0.483811 0.775420
O O7 0.220969 0.500000 0.000000
O O8 0.139092 0.397668 0.007945
O O9 0.681518 0.337262 0.894042
O O10 0.824976 0.358084 0.976859
O O11 0.360164 0.186652 0.755615
O O12 0.422629 0.090990 0.834173
O O13 0.455029 0.196261 0.989671
O O14 0.000000 0.248586 0.750000
O O15 0.961337 0.196445 0.499131
O O16 0.643724 0.228668 0.008593
O O17 0.081002 0.500000 0.500000
O O18 0.000000 0.507831 0.250000
#
# Coordination Sequence:
#
# PCOD9317119 Si02
#       8
#     8   8   8   8   8   8   8   8
#     4   9  18  36  57  86 119 159 197 250 314 364
#     4  12  24  41  58  83 119 162 217 256 297 358
#     4  10  20  37  58  83 117 159 209 259 300 360
#     4  11  22  38  57  79 117 168 210 248 293 356
#     4   9  21  35  57  91 126 158 199 248 321 382
#     4  11  22  35  60  84 118 160 208 254 296 359
#     4  10  19  34  58  88 120 156 201 249 317 364
#     4  12  27  41  56  80 119 163 213 251 295 351
#
# _framework density 18.858943
#
# number of rings (size 3 to 8) (size 9 to 14) (size 15 to 20)
#    0.000    1.500    5.000    0.375    1.750    0.500 
#    0.000    0.000    0.000    0.000    0.000    0.000 
#   18.750    0.000    0.000    0.000    0.000    0.000 
#
# Total GULP energy -178219.277639 kJ/mol
# GULP energy per Si atom -5569.352426 kJ/mol
# Density = 1.881602 g / cm^3
# Si number density = 18.858943 Si / 1000 Ang^3
#
#
#
# Elastic Constant Matrix: (Units=GPa)
#
#
# Indices 1 2 3 4 5 6 
#
# 1 96.5240 5.8581 31.1111 0.0000 0.0000 0.0000
# 2 5.8581 34.5537 24.4365 0.0000 0.0000 0.0000
# 3 31.1111 24.4365 97.5572 0.0000 0.0000 0.0000
# 4 0.0000 0.0000 0.0000 23.3432 0.0000 0.0000
# 5 0.0000 0.0000 0.0000 0.0000 20.5392 0.0000
# 6 0.0000 0.0000 0.0000 0.0000 0.0000 11.9822
#
#
#
# Elastic Compliance Matrix: (Units=1/GPa)
#
#
# Indices 1 2 3 4 5 6 
#
# 1 0.011565 0.000787 -0.003885 0.000000 0.000000 0.000000
# 2 0.000787 0.035224 -0.009074 0.000000 0.000000 0.000000
# 3 -0.003885 -0.009074 0.013762 0.000000 0.000000 0.000000
# 4 0.000000 0.000000 0.000000 0.042839 0.000000 0.000000
# 5 0.000000 0.000000 0.000000 0.000000 0.048687 0.000000
# 6 0.000000 0.000000 0.000000 0.000000 0.000000 0.083457
#
#
# Mechanical properties :
#
#
# Convention : Reuss Voigt Hill
#
# Bulk Modulus (GPa) = 27.61924 39.04960 33.33442
# Shear Modulus (GPa) = 18.38589 22.32155 20.35372
#
# Velocity S-wave (km/s) = 3.12575 3.44409 3.28877
# Velocity P-wave (km/s) = 5.26347 6.04705 5.66881
#
# Compressibility (1/GPa) = 0.03620664
#
# Stress axis : x y z
#
# Youngs Moduli (GPa) = 86.47101 28.38955 72.66247
#
# Poissons Ratio (x) = -0.02234 0.28230
# Poissons Ratio (y) = -0.06805 0.65934
# Poissons Ratio (z) = 0.33595 0.25761
#
# Static dielectric constant tensor:
#      x y z
#    x 1.731670 0.000000 0.000000 
#    y 0.000000 1.692040 0.000000 
#    z 0.000000 0.000000 1.793780 
# 
# From -- ./inp_files/9643.got.cif
#   From: 2010.05.17/outbox.cif.g08.bks.cpg/sg20_5_cif.got.tgz:9643.got - 2010.06.03 22:52:26.
