data_PCOD9317390
_publ_section_title
;
Structure prediction by ZEFSAII (Michael W. Deem and Ramdas Pophale) SiO2 
 PCOD9317390
Probable space group: C 2 2 21
;
_chemical_formula_sum "Si O2"
_cell_formula_units_Z 36
_cell_length_a 8.597922
_cell_length_b 18.073910
_cell_length_c 8.971780
_cell_angle_alpha 90.000000
_cell_angle_beta 90.000000
_cell_angle_gamma 90.000000
_cell_volume 1394.197282
_symmetry_space_group_name_H-M "C 2 2 21"
_symmetry_group_IT_number 20
_symmetry_cell_setting 'orthorhombic'
loop_
_space_group_symop_operation_xyz
x,y,z
-x,-y,1/2+z
x,-y,-z
-x,y,1/2-z
1/2+x,1/2+y,z
1/2-x,1/2-y,1/2+z
1/2+x,1/2-y,-z
1/2-x,1/2+y,1/2-z
loop_
_atom_site_type_symbol
_atom_site_label
_atom_site_fract_x
_atom_site_fract_y
_atom_site_fract_z
Si Si1 0.258980 0.899320 0.335615
Si Si2 0.398983 0.117805 0.957138
Si Si3 0.000000 0.895250 0.750000
Si Si4 0.008246 0.000000 0.500000
Si Si5 0.285077 0.716253 0.070081
Si Si6 0.500000 0.166199 0.250000
O O1 0.432267 0.911116 0.403058
O O2 0.273435 0.912855 0.159310
O O3 0.225396 0.816914 0.402358
O O4 0.126448 0.950061 0.402396
O O5 0.368175 0.205349 0.926766
O O6 0.405223 0.114713 0.134738
O O7 0.070585 0.945874 0.881181
O O8 0.880320 0.842398 0.833304
O O9 0.115418 0.713853 0.146469
#
# Coordination Sequence:
#
# PCOD9317390 Si02
#       6
#     8   8   4   4   8   4
#     4   9  20  37  59  85 128 167 206 257 314 382
#     4  10  19  37  63  91 120 161 204 263 323 374
#     4  10  22  40  63  86 127 172 222 272 314 380
#     4  10  22  42  60  90 128 176 220 264 320 380
#     4  10  20  38  63  96 128 162 209 269 328 379
#     4  10  22  36  61  98 131 158 204 258 324 396
#
# _framework density 25.821308999999999
#
# number of rings (size 3 to 8) (size 9 to 14) (size 15 to 20)
#    0.000    2.222    0.000    2.667    0.000    3.556 
#    0.000   30.000    0.000    1.333    0.000    0.000 
#    0.000    0.000    0.000    0.000    0.000    0.000 
#
# Total GULP energy -100607.716886 kJ/mol
# GULP energy per Si atom -5589.317605 kJ/mol
# Density = 2.576254 g / cm^3
# Si number density = 25.821309 Si / 1000 Ang^3
#
#
#
# Elastic Constant Matrix: (Units=GPa)
#
#
# Indices 1 2 3 4 5 6 
#
# 1 89.5195 29.5998 35.6876 0.0000 0.0000 0.0000
# 2 29.5998 55.7683 14.3572 0.0000 0.0000 0.0000
# 3 35.6876 14.3572 184.3482 0.0000 0.0000 0.0000
# 4 0.0000 0.0000 0.0000 29.2850 0.0000 0.0000
# 5 0.0000 0.0000 0.0000 0.0000 58.6992 0.0000
# 6 0.0000 0.0000 0.0000 0.0000 0.0000 33.8686
#
#
#
# Elastic Compliance Matrix: (Units=1/GPa)
#
#
# Indices 1 2 3 4 5 6 
#
# 1 0.014399 -0.007067 -0.002237 0.000000 0.000000 0.000000
# 2 -0.007067 0.021766 -0.000327 0.000000 0.000000 0.000000
# 3 -0.002237 -0.000327 0.005883 0.000000 0.000000 0.000000
# 4 0.000000 0.000000 0.000000 0.034147 0.000000 0.000000
# 5 0.000000 0.000000 0.000000 0.000000 0.017036 0.000000
# 6 0.000000 0.000000 0.000000 0.000000 0.000000 0.029526
#
#
# Mechanical properties :
#
#
# Convention : Reuss Voigt Hill
#
# Bulk Modulus (GPa) = 43.88531 54.32500 49.10516
# Shear Modulus (GPa) = 33.41909 41.03666 37.22788
#
# Velocity S-wave (km/s) = 3.60146 3.99087 3.80116
# Velocity P-wave (km/s) = 5.85890 6.50543 6.19061
#
# Compressibility (1/GPa) = 0.02278667
#
# Stress axis : x y z
#
# Youngs Moduli (GPa) = 69.44826 45.94260 169.97890
#
# Poissons Ratio (x) = 0.32466 0.38027
# Poissons Ratio (y) = 0.49077 0.05561
# Poissons Ratio (z) = 0.15537 0.01503
#
# Static dielectric constant tensor:
#      x y z
#    x 2.099670 0.000000 0.000000 
#    y 0.000000 2.006970 0.000000 
#    z 0.000000 0.000000 2.093920 
# 
# From -- ./inp_files/5955.got.cif
#   From: 2010.05.17/outbox.cif.g08.bks.cpg/sg20_3_cif.got.tgz:5955.got - 2010.06.03 22:52:26.
