data_PCOD9317447
_publ_section_title
;
Structure prediction by ZEFSAII (Michael W. Deem and Ramdas Pophale) SiO2 
 PCOD9317447
Probable space group: C 2 2 21
;
_chemical_formula_sum "Si O2"
_cell_formula_units_Z 48
_cell_length_a 26.928174
_cell_length_b 5.482193
_cell_length_c 13.492681
_cell_angle_alpha 90.000000
_cell_angle_beta 90.000000
_cell_angle_gamma 90.000000
_cell_volume 1991.863064
_symmetry_space_group_name_H-M "C 2 2 21"
_symmetry_group_IT_number 20
_symmetry_cell_setting 'orthorhombic'
loop_
_space_group_symop_operation_xyz
x,y,z
-x,-y,1/2+z
x,-y,-z
-x,y,1/2-z
1/2+x,1/2+y,z
1/2-x,1/2-y,1/2+z
1/2+x,1/2-y,-z
1/2-x,1/2+y,1/2-z
loop_
_atom_site_type_symbol
_atom_site_label
_atom_site_fract_x
_atom_site_fract_y
_atom_site_fract_z
Si Si1 0.237870 0.722660 0.881872
Si Si2 0.546504 0.704086 0.196348
Si Si3 0.115316 0.454948 0.688455
Si Si4 0.815346 0.500000 0.000000
Si Si5 0.946463 0.000000 0.500000
Si Si6 0.479103 0.123538 0.096710
Si Si7 0.303515 0.273967 0.319948
O O1 0.267105 0.715178 0.776099
O O2 0.211588 0.460688 0.885888
O O3 0.202765 0.963893 0.872517
O O4 0.278572 0.783130 0.966004
O O5 0.500000 0.561077 0.250000
O O6 0.576499 0.611806 0.098931
O O7 0.587355 0.806178 0.270922
O O8 0.513630 0.928951 0.152326
O O9 0.151303 0.531850 0.598299
O O10 0.068877 0.289325 0.655171
O O11 0.144493 0.306907 0.771998
O O12 0.983263 0.813186 0.447306
O O13 0.455316 0.000000 0.000000
#
# Coordination Sequence:
#
# PCOD9317447 Si02
#       7
#     8   8   8   4   4   8   8
#     4   9  19  38  61  87 124 168 201 262 355 392
#     4   9  20  37  62  88 136 180 220 276 340 402
#     4  10  19  38  63  98 126 172 232 284 331 409
#     4  10  20  36  71  92 126 162 230 287 336 418
#     4  10  20  38  63  90 126 194 222 271 344 412
#     4   9  18  37  59  89 130 173 216 276 339 400
#     4   9  19  38  60  87 125 165 209 264 329 412
#
# _framework density 24.098042
#
# number of rings (size 3 to 8) (size 9 to 14) (size 15 to 20)
#    0.000    2.667    0.833    0.000    0.000    2.667 
#   12.000    5.833    7.333    0.000    0.000    0.000 
#    0.000    0.000    0.000    0.000    0.000    0.000 
#
# Total GULP energy -133802.642360 kJ/mol
# GULP energy per Si atom -5575.110098 kJ/mol
# Density = 2.404319 g / cm^3
# Si number density = 24.098042 Si / 1000 Ang^3
#
#
#
# Elastic Constant Matrix: (Units=GPa)
#
#
# Indices 1 2 3 4 5 6 
#
# 1 102.3259 29.9232 45.5324 0.0000 0.0000 0.0000
# 2 29.9232 74.5152 25.3393 0.0000 0.0000 0.0000
# 3 45.5324 25.3393 119.9777 0.0000 0.0000 0.0000
# 4 0.0000 0.0000 0.0000 31.5458 0.0000 0.0000
# 5 0.0000 0.0000 0.0000 0.0000 47.6626 0.0000
# 6 0.0000 0.0000 0.0000 0.0000 0.0000 -0.5405
#
#
#
# Elastic Compliance Matrix: (Units=1/GPa)
#
#
# Indices 1 2 3 4 5 6 
#
# 1 0.012645 -0.003713 -0.004015 0.000000 0.000000 0.000000
# 2 -0.003713 0.015549 -0.001875 0.000000 0.000000 0.000000
# 3 -0.004015 -0.001875 0.010254 0.000000 0.000000 0.000000
# 4 0.000000 0.000000 0.000000 0.031700 0.000000 0.000000
# 5 0.000000 0.000000 0.000000 0.000000 0.020981 0.000000
# 6 0.000000 0.000000 0.000000 0.000000 0.000000 -1.850265
#
#
# Mechanical properties :
#
#
# Convention : Reuss Voigt Hill
#
# Bulk Modulus (GPa) = 51.96575 55.37873 53.67224
# Shear Modulus (GPa) = -2.88431 28.80184 12.95877
#
# Velocity S-wave (km/s) = -1.09522 3.46091 2.32146
# Velocity P-wave (km/s) = 4.47345 6.24508 5.43198
#
# Compressibility (1/GPa) = 0.01924344
#
# Stress axis : x y z
#
# Youngs Moduli (GPa) = 79.08385 64.31485 97.51848
#
# Poissons Ratio (x) = 0.23877 0.39151
# Poissons Ratio (y) = 0.29360 0.18284
# Poissons Ratio (z) = 0.31750 0.12058
#
# Static dielectric constant tensor:
#      x y z
#    x 1.910990 0.000000 0.000000 
#    y 0.000000 2.028550 0.000000 
#    z 0.000000 0.000000 3.023690 
# 
# From -- ./inp_files/22169.got.cif
#   From: 2010.05.17/outbox.cif.g08.bks.cpg/sg20_12_cif.got.tgz:22169.got - 2010.06.03 22:52:26.
