data_PCOD9317245
_publ_section_title
;
Structure prediction by ZEFSAII (Michael W. Deem and Ramdas Pophale) SiO2 
 PCOD9317245
Probable space group: C 2 2 21
;
_chemical_formula_sum "Si O2"
_cell_formula_units_Z 56
_cell_length_a 24.759121
_cell_length_b 5.158538
_cell_length_c 26.844279
_cell_angle_alpha 90.000000
_cell_angle_beta 90.000000
_cell_angle_gamma 90.000000
_cell_volume 3428.574575
_symmetry_space_group_name_H-M "C 2 2 21"
_symmetry_group_IT_number 20
_symmetry_cell_setting 'orthorhombic'
loop_
_space_group_symop_operation_xyz
x,y,z
-x,-y,1/2+z
x,-y,-z
-x,y,1/2-z
1/2+x,1/2+y,z
1/2-x,1/2-y,1/2+z
1/2+x,1/2-y,-z
1/2-x,1/2+y,1/2-z
loop_
_atom_site_type_symbol
_atom_site_label
_atom_site_fract_x
_atom_site_fract_y
_atom_site_fract_z
Si Si1 0.914750 0.009934 0.943030
Si Si2 0.279895 0.053683 0.311133
Si Si3 0.095595 0.500000 0.000000
Si Si4 0.705247 0.945888 0.696560
Si Si5 0.363374 0.989486 0.104835
Si Si6 0.316951 0.063611 0.586237
Si Si7 0.979407 0.000000 0.500000
Si Si8 0.245594 0.937428 0.057968
O O1 0.897913 0.275287 0.917105
O O2 0.978735 0.987942 0.953643
O O3 0.892283 0.775222 0.910574
O O4 0.891329 0.000000 0.000000
O O5 0.304391 0.041510 0.255794
O O6 0.247472 0.323353 0.316004
O O7 0.235176 0.825204 0.314720
O O8 0.322018 0.010084 0.355682
O O9 0.133383 0.523413 0.951124
O O10 0.057916 0.249633 0.996869
O O11 0.652537 0.979787 0.662659
O O12 0.304895 0.990033 0.078495
O O13 0.295883 0.357510 0.582214
O O14 0.271628 0.858459 0.567516
O O15 0.243828 0.000000 0.000000
#
# Coordination Sequence:
#
# PCOD9317245 Si02
#       8
#     8   8   4   8   8   8   4   8
#     4  10  22  36  53  76 104 133 175 216 268 322
#     4  10  19  36  46  76 109 148 180 209 236 293
#     4  12  22  38  57  74  99 140 182 216 272 310
#     4  10  20  31  54  70 111 149 177 203 246 299
#     4  12  19  33  53  80 106 149 169 201 263 320
#     4  12  21  34  52  78 107 146 178 209 244 315
#     4  10  24  42  53  74 101 134 178 234 268 316
#     4  12  21  31  45  79 118 140 167 200 251 314
#
# _framework density 16.333317000000001
#
# number of rings (size 3 to 8) (size 9 to 14) (size 15 to 20)
#    0.429    0.571    4.286    4.714    0.000    0.000 
#    0.000    0.000    0.000    0.000    0.000    6.000 
#    0.000    0.000    0.000    0.000    0.000    0.000 
#
# Total GULP energy -156253.545813 kJ/mol
# GULP energy per Si atom -5580.483779 kJ/mol
# Density = 1.629614 g / cm^3
# Si number density = 16.333317 Si / 1000 Ang^3
#
#
#
# Elastic Constant Matrix: (Units=GPa)
#
#
# Indices 1 2 3 4 5 6 
#
# 1 69.8430 16.6413 19.7710 0.0000 0.0000 0.0000
# 2 16.6413 85.5036 -5.9096 0.0000 0.0000 0.0000
# 3 19.7710 -5.9096 93.5955 0.0000 0.0000 0.0000
# 4 0.0000 0.0000 0.0000 21.2884 0.0000 0.0000
# 5 0.0000 0.0000 0.0000 0.0000 6.9339 0.0000
# 6 0.0000 0.0000 0.0000 0.0000 0.0000 26.2255
#
#
#
# Elastic Compliance Matrix: (Units=1/GPa)
#
#
# Indices 1 2 3 4 5 6 
#
# 1 0.016153 -0.003394 -0.003627 0.000000 0.000000 0.000000
# 2 -0.003394 0.012460 0.001504 0.000000 0.000000 0.000000
# 3 -0.003627 0.001504 0.011545 0.000000 0.000000 0.000000
# 4 0.000000 0.000000 0.000000 0.046974 0.000000 0.000000
# 5 0.000000 0.000000 0.000000 0.000000 0.144218 0.000000
# 6 0.000000 0.000000 0.000000 0.000000 0.000000 0.038131
#
#
# Mechanical properties :
#
#
# Convention : Reuss Voigt Hill
#
# Bulk Modulus (GPa) = 34.33591 34.43861 34.38726
# Shear Modulus (GPa) = 17.22808 25.45219 21.34014
#
# Velocity S-wave (km/s) = 3.25126 3.95181 3.61853
# Velocity P-wave (km/s) = 5.92975 6.47712 6.20947
#
# Compressibility (1/GPa) = 0.02912403
#
# Stress axis : x y z
#
# Youngs Moduli (GPa) = 61.90720 80.25683 86.61544
#
# Poissons Ratio (x) = 0.27243 0.31411
# Poissons Ratio (y) = 0.21014 -0.13025
# Poissons Ratio (z) = 0.22451 -0.12069
#
# Static dielectric constant tensor:
#      x y z
#    x 1.513800 0.000000 0.000000 
#    y 0.000000 1.549390 0.000000 
#    z 0.000000 0.000000 1.588870 
# 
# From -- ./inp_files/30540.got.cif
#   From: 2010.05.17/outbox.cif.g08.bks.cpg/sg20_16_cif.got.tgz:30540.got - 2010.06.03 22:52:26.
