data_PCOD9317764
_publ_section_title
;
Structure prediction by ZEFSAII (Michael W. Deem and Ramdas Pophale) SiO2 
 PCOD9317764
Probable space group: C 2 2 21
;
_chemical_formula_sum "Si O2"
_cell_formula_units_Z 64
_cell_length_a 11.875100
_cell_length_b 15.606011
_cell_length_c 20.304125
_cell_angle_alpha 90.000000
_cell_angle_beta 90.000000
_cell_angle_gamma 90.000000
_cell_volume 3762.820164
_symmetry_space_group_name_H-M "C 2 2 21"
_symmetry_group_IT_number 20
_symmetry_cell_setting 'orthorhombic'
loop_
_space_group_symop_operation_xyz
x,y,z
-x,-y,1/2+z
x,-y,-z
-x,y,1/2-z
1/2+x,1/2+y,z
1/2-x,1/2-y,1/2+z
1/2+x,1/2-y,-z
1/2-x,1/2+y,1/2-z
loop_
_atom_site_type_symbol
_atom_site_label
_atom_site_fract_x
_atom_site_fract_y
_atom_site_fract_z
Si Si1 0.509912 0.563563 0.327148
Si Si2 0.989129 0.731345 0.824076
Si Si3 0.710638 0.493240 0.577320
Si Si4 0.801731 0.682374 0.587537
Si Si5 0.809373 0.989311 0.576092
Si Si6 0.139529 0.667685 0.441346
Si Si7 0.717629 0.177520 0.591236
Si Si8 0.125817 0.668646 0.062968
O O1 0.500000 0.535178 0.250000
O O2 0.521845 0.666062 0.325843
O O3 0.614376 0.528310 0.369935
O O4 0.401473 0.540938 0.371505
O O5 0.100399 0.705679 0.862822
O O6 0.000000 0.701580 0.750000
O O7 0.879183 0.692448 0.856664
O O8 0.671484 0.500000 0.500000
O O9 0.759656 0.585792 0.595072
O O10 0.805342 0.418400 0.578546
O O11 0.701326 0.751554 0.592328
O O12 0.854899 0.687155 0.514450
O O13 0.708837 0.919222 0.573995
O O14 0.851852 0.000000 0.500000
O O15 0.767615 0.083049 0.595892
O O16 0.158528 0.684099 0.519337
O O17 0.007546 0.661425 0.424946
O O18 0.813020 0.250661 0.597161
#
# Coordination Sequence:
#
# PCOD9317764 Si02
#       8
#     8   8   8   8   8   8   8   8
#     4  11  23  41  59  79 119 157 194 241 286 344
#     4  11  22  39  60  79 115 157 198 233 277 354
#     4  10  22  36  61  90 115 148 193 244 288 342
#     4  10  21  35  58  87 112 148 187 233 286 341
#     4  10  22  36  61  90 115 148 193 244 288 342
#     4  10  20  35  57  88 120 140 180 242 293 334
#     4  10  21  35  58  87 112 148 187 233 286 341
#     4  10  20  35  57  88 120 140 180 242 293 334
#
# _framework density 17.008519
#
# number of rings (size 3 to 8) (size 9 to 14) (size 15 to 20)
#    0.000    1.750    3.750    0.375    3.500    2.500 
#    0.000    0.000    0.000    1.500    0.000    0.000 
#    0.000    0.000    0.000    0.000    0.000    0.000 
#
# Total GULP energy -178491.253302 kJ/mol
# GULP energy per Si atom -5577.851666 kJ/mol
# Density = 1.696981 g / cm^3
# Si number density = 17.008519 Si / 1000 Ang^3
#
#
#
# Elastic Constant Matrix: (Units=GPa)
#
#
# Indices 1 2 3 4 5 6 
#
# 1 78.8728 -1.6207 21.6829 0.0000 0.0000 0.0000
# 2 -1.6207 66.1482 -0.9384 0.0000 0.0000 0.0000
# 3 21.6829 -0.9384 46.1953 0.0000 0.0000 0.0000
# 4 0.0000 0.0000 0.0000 6.7383 0.0000 0.0000
# 5 0.0000 0.0000 0.0000 0.0000 534.7778 0.0000
# 6 0.0000 0.0000 0.0000 0.0000 0.0000 2.0589
#
#
#
# Elastic Compliance Matrix: (Units=1/GPa)
#
#
# Indices 1 2 3 4 5 6 
#
# 1 0.014561 0.000260 -0.006829 0.000000 0.000000 0.000000
# 2 0.000260 0.015127 0.000185 0.000000 0.000000 0.000000
# 3 -0.006829 0.000185 0.024857 0.000000 0.000000 0.000000
# 4 0.000000 0.000000 0.000000 0.148405 0.000000 0.000000
# 5 0.000000 0.000000 0.000000 0.000000 0.001870 0.000000
# 6 0.000000 0.000000 0.000000 0.000000 0.000000 0.485689
#
#
# Mechanical properties :
#
#
# Convention : Reuss Voigt Hill
#
# Bulk Modulus (GPa) = 23.93720 25.49598 24.71659
# Shear Modulus (GPa) = 6.97154 120.18784 63.57969
#
# Velocity S-wave (km/s) = 2.02676 8.41527 6.12064
# Velocity P-wave (km/s) = 4.42507 10.46159 8.03200
#
# Compressibility (1/GPa) = 0.04177598
#
# Stress axis : x y z
#
# Youngs Moduli (GPa) = 68.67433 66.10885 40.23080
#
# Poissons Ratio (x) = -0.01718 0.27476
# Poissons Ratio (y) = -0.01785 -0.00745
# Poissons Ratio (z) = 0.46901 -0.01225
#
# Static dielectric constant tensor:
#      x y z
#    x 1.553660 0.000000 0.000000 
#    y 0.000000 1.546590 0.000000 
#    z 0.000000 0.000000 1.574210 
# 
# From -- ./inp_files/24482.got.cif
#   From: 2010.05.17/outbox.cif.g08.bks.cpg/sg20_13_cif.got.tgz:24482.got - 2010.06.03 22:52:26.
