data_PCOD9317009
_publ_section_title
;
Structure prediction by ZEFSAII (Michael W. Deem and Ramdas Pophale) SiO2 
 PCOD9317009
Probable space group: C 2 2 21
;
_chemical_formula_sum "Si O2"
_cell_formula_units_Z 64
_cell_length_a 5.043223
_cell_length_b 30.290030
_cell_length_c 21.936886
_cell_angle_alpha 90.000000
_cell_angle_beta 90.000000
_cell_angle_gamma 90.000000
_cell_volume 3351.065016
_symmetry_space_group_name_H-M "C 2 2 21"
_symmetry_group_IT_number 20
_symmetry_cell_setting 'orthorhombic'
loop_
_space_group_symop_operation_xyz
x,y,z
-x,-y,1/2+z
x,-y,-z
-x,y,1/2-z
1/2+x,1/2+y,z
1/2-x,1/2-y,1/2+z
1/2+x,1/2-y,-z
1/2-x,1/2+y,1/2-z
loop_
_atom_site_type_symbol
_atom_site_label
_atom_site_fract_x
_atom_site_fract_y
_atom_site_fract_z
Si Si1 0.248524 0.603880 0.942648
Si Si2 0.432487 0.112012 0.180371
Si Si3 0.674705 0.421851 0.575596
Si Si4 0.173466 0.986184 0.375760
Si Si5 0.582468 0.252803 0.542134
Si Si6 0.313973 0.014563 0.190692
Si Si7 0.774334 0.661126 0.944853
Si Si8 0.817564 0.161514 0.419517
O O1 0.341106 0.561529 0.905163
O O2 0.985246 0.627271 0.918042
O O3 0.482559 0.640362 0.942803
O O4 0.184853 0.586341 0.010913
O O5 0.500000 0.123004 0.250000
O O6 0.327740 0.154864 0.144451
O O7 0.661509 0.093324 0.135303
O O8 0.255945 0.067224 0.186487
O O9 0.592735 0.472611 0.581370
O O10 0.438508 0.387117 0.572917
O O11 0.965800 0.990754 0.319893
O O12 0.479779 0.996944 0.360090
O O13 0.801762 0.259766 0.489381
O O14 0.689929 0.210742 0.579556
O O15 0.525414 0.298187 0.578101
O O16 0.500000 0.008807 0.250000
O O17 0.841915 0.667290 0.017439
#
# Coordination Sequence:
#
# PCOD9317009 Si02
#       8
#     8   8   8   8   8   8   8   8
#     4  11  21  34  54  78 114 147 183 231 282 332
#     4  10  20  34  53  78 114 158 192 225 275 344
#     4  10  20  34  49  77 117 147 184 225 282 329
#     4  11  21  34  54  80 107 148 190 222 281 344
#     4  10  20  33  55  80 106 144 183 220 276 339
#     4  10  21  37  54  76 111 145 187 237 277 324
#     4  10  20  35  51  78 112 145 181 231 281 327
#     4  10  19  33  54  76 112 145 185 223 283 333
#
# _framework density 19.098405
#
# number of rings (size 3 to 8) (size 9 to 14) (size 15 to 20)
#    0.000    1.750    2.500    3.750    1.750    0.500 
#    0.000    2.500    0.000    0.000    0.000    3.500 
#    0.000    0.000    0.000    0.000    0.000    0.000 
#
# Total GULP energy -178177.008800 kJ/mol
# GULP energy per Si atom -5568.031525 kJ/mol
# Density = 1.905494 g / cm^3
# Si number density = 19.098405 Si / 1000 Ang^3
#
#
#
# Elastic Constant Matrix: (Units=GPa)
#
#
# Indices 1 2 3 4 5 6 
#
# 1 65.1898 17.2716 5.7889 0.0000 0.0000 0.0000
# 2 17.2716 110.2683 10.0560 0.0000 0.0000 0.0000
# 3 5.7889 10.0560 35.9274 0.0000 0.0000 0.0000
# 4 0.0000 0.0000 0.0000 18.9407 0.0000 0.0000
# 5 0.0000 0.0000 0.0000 0.0000 20.1190 0.0000
# 6 0.0000 0.0000 0.0000 0.0000 0.0000 31.5730
#
#
#
# Elastic Compliance Matrix: (Units=1/GPa)
#
#
# Indices 1 2 3 4 5 6 
#
# 1 0.016135 -0.002350 -0.001942 0.000000 0.000000 0.000000
# 2 -0.002350 0.009649 -0.002322 0.000000 0.000000 0.000000
# 3 -0.001942 -0.002322 0.028797 0.000000 0.000000 0.000000
# 4 0.000000 0.000000 0.000000 0.052796 0.000000 0.000000
# 5 0.000000 0.000000 0.000000 0.000000 0.049704 0.000000
# 6 0.000000 0.000000 0.000000 0.000000 0.000000 0.031673
#
#
# Mechanical properties :
#
#
# Convention : Reuss Voigt Hill
#
# Bulk Modulus (GPa) = 24.18257 30.84651 27.51454
# Shear Modulus (GPa) = 23.17327 26.01113 24.59220
#
# Velocity S-wave (km/s) = 3.48711 3.69447 3.59229
# Velocity P-wave (km/s) = 5.37614 5.86389 5.62530
#
# Compressibility (1/GPa) = 0.04135210
#
# Stress axis : x y z
#
# Youngs Moduli (GPa) = 61.97729 103.64135 34.72619
#
# Poissons Ratio (x) = 0.24357 0.06744
# Poissons Ratio (y) = 0.14566 0.08063
# Poissons Ratio (z) = 0.12036 0.24065
#
# Static dielectric constant tensor:
#      x y z
#    x 1.737370 0.000000 0.000000 
#    y 0.000000 1.711830 0.000000 
#    z 0.000000 0.000000 1.732980 
# 
# From -- ./inp_files/26291.got.cif
#   From: 2010.05.17/outbox.cif.g08.bks.cpg/sg20_14_cif.got.tgz:26291.got - 2010.06.03 22:52:26.
