data_PCOD9317938
_publ_section_title
;
Structure prediction by ZEFSAII (Michael W. Deem and Ramdas Pophale) SiO2 
 PCOD9317938
Probable space group: C 2 2 21
;
_chemical_formula_sum "Si O2"
_cell_formula_units_Z 64
_cell_length_a 8.155750
_cell_length_b 19.206725
_cell_length_c 18.515223
_cell_angle_alpha 90.000000
_cell_angle_beta 90.000000
_cell_angle_gamma 90.000000
_cell_volume 2900.321688
_symmetry_space_group_name_H-M "C 2 2 21"
_symmetry_group_IT_number 20
_symmetry_cell_setting 'orthorhombic'
loop_
_space_group_symop_operation_xyz
x,y,z
-x,-y,1/2+z
x,-y,-z
-x,y,1/2-z
1/2+x,1/2+y,z
1/2-x,1/2-y,1/2+z
1/2+x,1/2-y,-z
1/2-x,1/2+y,1/2-z
loop_
_atom_site_type_symbol
_atom_site_label
_atom_site_fract_x
_atom_site_fract_y
_atom_site_fract_z
Si Si1 0.888516 0.938134 0.554319
Si Si2 0.113986 0.135099 0.808698
Si Si3 0.224218 0.529535 0.075810
Si Si4 0.002355 0.179279 0.955579
Si Si5 0.285676 0.183743 0.435425
Si Si6 0.163892 0.760844 0.708125
Si Si7 0.313853 0.392901 0.714838
Si Si8 0.676265 0.972947 0.224882
O O1 0.888617 0.865893 0.510621
O O2 0.813870 0.920072 0.632535
O O3 0.078987 0.958017 0.570841
O O4 0.826248 0.000000 0.500000
O O5 0.014646 0.133347 0.882624
O O6 0.260843 0.188306 0.816000
O O7 0.183400 0.066582 0.770270
O O8 0.000000 0.170997 0.750000
O O9 0.147532 0.606779 0.081437
O O10 0.190747 0.474530 0.138868
O O11 0.167426 0.500000 0.000000
O O12 0.079703 0.255216 0.940726
O O13 0.823717 0.183194 0.991837
O O14 0.162036 0.198833 0.368260
O O15 0.245325 0.814979 0.765278
O O16 0.000000 0.743643 0.750000
O O17 0.500000 0.396624 0.750000
O O18 0.201109 0.446525 0.756749
O O19 0.500000 0.947302 0.250000
#
# Coordination Sequence:
#
# PCOD9317938 Si02
#       8
#     8   8   8   8   8   8   8   8
#     4  10  20  36  64  93 120 161 218 260 310 373
#     4  11  26  40  63  94 128 166 222 265 326 383
#     4  10  21  41  65  91 122 169 214 254 317 392
#     4  10  22  41  63  94 127 168 207 272 314 387
#     4  10  21  42  64  95 127 165 218 255 324 379
#     4  10  20  40  64  92 131 163 212 261 319 392
#     4  11  19  38  67  91 122 164 215 255 317 384
#     4  12  25  43  62  93 131 170 209 275 327 369
#
# _framework density 22.066517000000001
#
# number of rings (size 3 to 8) (size 9 to 14) (size 15 to 20)
#    0.000    1.500    2.500    3.750    5.250    2.500 
#    6.750    0.625    0.000    0.000    0.000    0.000 
#    0.000    0.000    0.000    0.000    0.000    0.000 
#
# Total GULP energy -178431.951140 kJ/mol
# GULP energy per Si atom -5575.998473 kJ/mol
# Density = 2.201629 g / cm^3
# Si number density = 22.066517 Si / 1000 Ang^3
#
#
#
# Elastic Constant Matrix: (Units=GPa)
#
#
# Indices 1 2 3 4 5 6 
#
# 1 20.8537 1.4611 10.1734 0.0000 0.0000 0.0000
# 2 1.4611 85.2780 15.6815 0.0000 0.0000 0.0000
# 3 10.1734 15.6815 149.6530 0.0000 0.0000 0.0000
# 4 0.0000 0.0000 0.0000 61.5669 0.0000 0.0000
# 5 0.0000 0.0000 0.0000 0.0000 18.6670 0.0000
# 6 0.0000 0.0000 0.0000 0.0000 0.0000 -4.6924
#
#
#
# Elastic Compliance Matrix: (Units=1/GPa)
#
#
# Indices 1 2 3 4 5 6 
#
# 1 0.049602 -0.000234 -0.003347 0.000000 0.000000 0.000000
# 2 -0.000234 0.011958 -0.001237 0.000000 0.000000 0.000000
# 3 -0.003347 -0.001237 0.007039 0.000000 0.000000 0.000000
# 4 0.000000 0.000000 0.000000 0.016242 0.000000 0.000000
# 5 0.000000 0.000000 0.000000 0.000000 0.053571 0.000000
# 6 0.000000 0.000000 0.000000 0.000000 0.000000 -0.213111
#
#
# Mechanical properties :
#
#
# Convention : Reuss Voigt Hill
#
# Bulk Modulus (GPa) = 16.96009 34.49076 25.72542
# Shear Modulus (GPa) = -110.11628 30.33953 -39.88837
#
# Velocity S-wave (km/s) = -7.07180 3.71200 -4.25625
# Velocity P-wave (km/s) = 7.67970 5.83406 3.53140
#
# Compressibility (1/GPa) = 0.05896195
#
# Stress axis : x y z
#
# Youngs Moduli (GPa) = 20.16029 83.62702 142.05935
#
# Poissons Ratio (x) = 0.01960 0.47553
# Poissons Ratio (y) = 0.00472 0.17574
# Poissons Ratio (z) = 0.06748 0.10345
#
# Static dielectric constant tensor:
#      x y z
#    x 1.750800 0.000000 0.000000 
#    y 0.000000 1.857790 0.000000 
#    z 0.000000 0.000000 1.952370 
# 
# From -- ./inp_files/23935.got.cif
#   From: 2010.05.17/outbox.cif.g08.bks.cpg/sg20_12_cif.got.tgz:23935.got - 2010.06.03 22:52:26.
