data_PCOD9317379
_publ_section_title
;
Structure prediction by ZEFSAII (Michael W. Deem and Ramdas Pophale) SiO2 
 PCOD9317379
Probable space group: C 2 2 21
;
_chemical_formula_sum "Si O2"
_cell_formula_units_Z 64
_cell_length_a 9.959725
_cell_length_b 20.025012
_cell_length_c 17.504425
_cell_angle_alpha 90.000000
_cell_angle_beta 90.000000
_cell_angle_gamma 90.000000
_cell_volume 3491.145759
_symmetry_space_group_name_H-M "C 2 2 21"
_symmetry_group_IT_number 20
_symmetry_cell_setting 'orthorhombic'
loop_
_space_group_symop_operation_xyz
x,y,z
-x,-y,1/2+z
x,-y,-z
-x,y,1/2-z
1/2+x,1/2+y,z
1/2-x,1/2-y,1/2+z
1/2+x,1/2-y,-z
1/2-x,1/2+y,1/2-z
loop_
_atom_site_type_symbol
_atom_site_label
_atom_site_fract_x
_atom_site_fract_y
_atom_site_fract_z
Si Si1 0.744194 0.265730 0.673397
Si Si2 0.713360 0.803295 0.166931
Si Si3 0.915211 0.055614 0.671814
Si Si4 0.657397 0.945255 0.231110
Si Si5 0.508979 0.278602 0.928242
Si Si6 0.913326 0.903482 0.672139
Si Si7 0.007797 0.189247 0.895012
Si Si8 0.158031 0.403664 0.768208
O O1 0.688023 0.236943 0.753830
O O2 0.633280 0.258721 0.608218
O O3 0.874061 0.223371 0.652489
O O4 0.790520 0.342580 0.680859
O O5 0.689349 0.881974 0.178815
O O6 0.617643 0.773890 0.102340
O O7 0.867115 0.793752 0.144041
O O8 0.759202 0.062476 0.697048
O O9 0.962713 0.110338 0.612018
O O10 0.000000 0.067208 0.750000
O O11 0.940225 0.979515 0.647972
O O12 0.500000 0.941827 0.250000
O O13 0.682124 0.020858 0.201018
O O14 0.547294 0.349171 0.889486
O O15 0.507145 0.285727 0.018563
O O16 0.756203 0.898621 0.694737
O O17 0.000000 0.891658 0.750000
O O18 0.000000 0.396444 0.750000
#
# Coordination Sequence:
#
# PCOD9317379 Si02
#       8
#     8   8   8   8   8   8   8   8
#     4  12  22  40  63  87 115 163 206 248 294 363
#     4  12  22  40  63  87 115 163 206 248 294 363
#     4  10  19  37  62  89 117 152 202 247 288 356
#     4  10  20  35  61  93 116 145 202 257 291 340
#     4  12  25  39  57  89 125 157 196 252 315 361
#     4  10  19  37  62  89 117 152 202 247 288 356
#     4  12  25  39  57  89 125 157 196 252 315 361
#     4  10  20  35  61  93 116 145 202 257 291 340
#
# _framework density 18.332089
#
# number of rings (size 3 to 8) (size 9 to 14) (size 15 to 20)
#    0.000    1.000    5.000    3.000    0.000    0.500 
#    0.000    0.000    0.000    2.250    0.000    0.000 
#    0.000    0.000    0.000    0.000    0.000    0.000 
#
# Total GULP energy -178702.849754 kJ/mol
# GULP energy per Si atom -5584.464055 kJ/mol
# Density = 1.829036 g / cm^3
# Si number density = 18.332089 Si / 1000 Ang^3
#
#
#
# Elastic Constant Matrix: (Units=GPa)
#
#
# Indices 1 2 3 4 5 6 
#
# 1 89.7848 -1.8814 -14.2427 0.0000 0.0000 0.0000
# 2 -1.8814 76.4823 -2.2142 0.0000 0.0000 0.0000
# 3 -14.2427 -2.2142 27.6872 0.0000 0.0000 0.0000
# 4 0.0000 0.0000 0.0000 17.2185 0.0000 0.0000
# 5 0.0000 0.0000 0.0000 0.0000 12.8523 0.0000
# 6 0.0000 0.0000 0.0000 0.0000 0.0000 16.7891
#
#
#
# Elastic Compliance Matrix: (Units=1/GPa)
#
#
# Indices 1 2 3 4 5 6 
#
# 1 0.012145 0.000481 0.006286 0.000000 0.000000 0.000000
# 2 0.000481 0.013124 0.001297 0.000000 0.000000 0.000000
# 3 0.006286 0.001297 0.039455 0.000000 0.000000 0.000000
# 4 0.000000 0.000000 0.000000 0.058077 0.000000 0.000000
# 5 0.000000 0.000000 0.000000 0.000000 0.077807 0.000000
# 6 0.000000 0.000000 0.000000 0.000000 0.000000 0.059562
#
#
# Mechanical properties :
#
#
# Convention : Reuss Voigt Hill
#
# Bulk Modulus (GPa) = 12.36833 17.47530 14.92181
# Shear Modulus (GPa) = 18.45059 23.52484 20.98771
#
# Velocity S-wave (km/s) = 3.17592 3.58615 3.38725
# Velocity P-wave (km/s) = 4.49557 5.16726 4.84307
#
# Compressibility (1/GPa) = 0.08085168
#
# Stress axis : x y z
#
# Youngs Moduli (GPa) = 82.33853 76.19462 25.34525
#
# Poissons Ratio (x) = -0.03663 -0.15932
# Poissons Ratio (y) = -0.03958 -0.03287
# Poissons Ratio (z) = -0.51758 -0.09882
#
# Static dielectric constant tensor:
#      x y z
#    x 1.646650 0.000000 0.000000 
#    y 0.000000 1.659900 0.000000 
#    z 0.000000 0.000000 1.594460 
# 
# From -- ./inp_files/23917.got.cif
#   From: 2010.05.17/outbox.cif.g08.bks.cpg/sg20_12_cif.got.tgz:23917.got - 2010.06.03 22:52:26.
