data_PCOD9317680
_publ_section_title
;
Structure prediction by ZEFSAII (Michael W. Deem and Ramdas Pophale) SiO2 
 PCOD9317680
Probable space group: C 2 2 21
;
_chemical_formula_sum "Si O2"
_cell_formula_units_Z 48
_cell_length_a 16.490976
_cell_length_b 9.611730
_cell_length_c 13.965840
_cell_angle_alpha 90.000000
_cell_angle_beta 90.000000
_cell_angle_gamma 90.000000
_cell_volume 2213.680730
_symmetry_space_group_name_H-M "C 2 2 21"
_symmetry_group_IT_number 20
_symmetry_cell_setting 'orthorhombic'
loop_
_space_group_symop_operation_xyz
x,y,z
-x,-y,1/2+z
x,-y,-z
-x,y,1/2-z
1/2+x,1/2+y,z
1/2-x,1/2-y,1/2+z
1/2+x,1/2-y,-z
1/2-x,1/2+y,1/2-z
loop_
_atom_site_type_symbol
_atom_site_label
_atom_site_fract_x
_atom_site_fract_y
_atom_site_fract_z
Si Si1 0.842000 0.417201 0.866889
Si Si2 0.001132 0.744351 0.135260
Si Si3 0.666173 0.897678 0.869172
Si Si4 0.396965 0.496610 0.110110
Si Si5 0.739433 0.828424 0.143430
Si Si6 0.174796 0.268381 0.352058
O O1 0.925723 0.347788 0.900012
O O2 0.837961 0.408352 0.748977
O O3 0.769927 0.315712 0.901512
O O4 0.837965 0.578394 0.892974
O O5 0.977857 0.904689 0.115610
O O6 0.000000 0.731691 0.250000
O O7 0.085514 0.682233 0.099948
O O8 0.745708 0.808239 0.893119
O O9 0.681905 0.055772 0.903325
O O10 0.324529 0.412684 0.164120
O O11 0.397603 0.656845 0.140378
O O12 0.371175 0.500000 0.000000
O O13 0.695343 0.788671 0.240975
#
# Coordination Sequence:
#
# PCOD9317680 Si02
#       6
#     8   8   8   8   8   8
#     4   8  14  26  46  73  99 126 171 222 264 316
#     4   9  17  31  50  73 104 144 182 221 271 331
#     4   8  14  26  48  72  96 129 174 221 261 308
#     4  10  20  34  54  81 115 150 183 230 291 338
#     4   8  15  29  51  75 100 136 181 225 271 334
#     4   9  16  30  53  78 102 137 184 225 268 337
#
# _framework density 21.683344999999999
#
# number of rings (size 3 to 8) (size 9 to 14) (size 15 to 20)
#    0.000    3.333    0.000    2.000    0.000    0.000 
#    0.000    9.167    0.000   20.000    0.000    0.000 
#    0.000    0.000    0.000    0.000    0.000    0.000 
#
# Total GULP energy -133780.903934 kJ/mol
# GULP energy per Si atom -5574.204331 kJ/mol
# Density = 2.163399 g / cm^3
# Si number density = 21.683345 Si / 1000 Ang^3
#
#
#
# Elastic Constant Matrix: (Units=GPa)
#
#
# Indices 1 2 3 4 5 6 
#
# 1 98.5734 79.5465 2.9399 0.0000 0.0000 0.0000
# 2 79.5465 233.7700 16.3824 0.0000 0.0000 0.0000
# 3 2.9399 16.3824 52.6548 0.0000 0.0000 0.0000
# 4 0.0000 0.0000 0.0000 21.0896 0.0000 0.0000
# 5 0.0000 0.0000 0.0000 0.0000 5.9304 0.0000
# 6 0.0000 0.0000 0.0000 0.0000 0.0000 47.0963
#
#
#
# Elastic Compliance Matrix: (Units=1/GPa)
#
#
# Indices 1 2 3 4 5 6 
#
# 1 0.014011 -0.004818 0.000717 0.000000 0.000000 0.000000
# 2 -0.004818 0.006030 -0.001607 0.000000 0.000000 0.000000
# 3 0.000717 -0.001607 0.019452 0.000000 0.000000 0.000000
# 4 0.000000 0.000000 0.000000 0.047417 0.000000 0.000000
# 5 0.000000 0.000000 0.000000 0.000000 0.168623 0.000000
# 6 0.000000 0.000000 0.000000 0.000000 0.000000 0.021233
#
#
# Mechanical properties :
#
#
# Convention : Reuss Voigt Hill
#
# Bulk Modulus (GPa) = 35.61744 64.74843 50.18293
# Shear Modulus (GPa) = 16.80441 33.89855 25.35148
#
# Velocity S-wave (km/s) = 2.78689 3.95821 3.42302
# Velocity P-wave (km/s) = 5.17856 7.12850 6.23029
#
# Compressibility (1/GPa) = 0.02807614
#
# Stress axis : x y z
#
# Youngs Moduli (GPa) = 71.37080 165.84386 51.40968
#
# Poissons Ratio (x) = 0.79903 -0.03685
# Poissons Ratio (y) = 0.34386 0.08262
# Poissons Ratio (z) = -0.05115 0.26652
#
# Static dielectric constant tensor:
#      x y z
#    x 1.782180 0.000000 0.000000 
#    y 0.000000 1.842150 0.000000 
#    z 0.000000 0.000000 1.841970 
# 
# From -- ./inp_files/21254.got.cif
#   From: 2010.05.17/outbox.cif.g08.bks.cpg/sg20_11_cif.got.tgz:21254.got - 2010.06.03 22:52:26.
