data_PCOD9317935
_publ_section_title
;
Structure prediction by ZEFSAII (Michael W. Deem and Ramdas Pophale) SiO2 
 PCOD9317935
Probable space group: C 2 2 21
;
_chemical_formula_sum "Si O2"
_cell_formula_units_Z 24
_cell_length_a 8.505034
_cell_length_b 26.141468
_cell_length_c 4.957575
_cell_angle_alpha 90.000000
_cell_angle_beta 90.000000
_cell_angle_gamma 90.000000
_cell_volume 1102.237848
_symmetry_space_group_name_H-M "C 2 2 21"
_symmetry_group_IT_number 20
_symmetry_cell_setting 'orthorhombic'
loop_
_space_group_symop_operation_xyz
x,y,z
-x,-y,1/2+z
x,-y,-z
-x,y,1/2-z
1/2+x,1/2+y,z
1/2-x,1/2-y,1/2+z
1/2+x,1/2-y,-z
1/2-x,1/2+y,1/2-z
loop_
_atom_site_type_symbol
_atom_site_label
_atom_site_fract_x
_atom_site_fract_y
_atom_site_fract_z
Si Si1 0.000000 0.254415 0.250000
Si Si2 0.677096 0.890023 0.123571
Si Si3 0.271219 0.822854 0.909723
Si Si4 0.615790 0.000000 0.000000
O O1 0.134490 0.217908 0.135803
O O2 0.083997 0.290236 0.469756
O O3 0.500000 0.892014 0.250000
O O4 0.775713 0.862825 0.356764
O O5 0.690335 0.855307 0.857292
O O6 0.713111 0.948895 0.060209
O O7 0.500000 0.987872 0.750000
#
# Coordination Sequence:
#
# PCOD9317935 Si02
#       4
#     4   8   8   4
#     4  12  30  46  68 100 136 192 226 282 330 412
#     4  11  23  40  68 100 133 175 221 288 335 401
#     4  12  27  44  68  96 140 178 232 275 341 399
#     4  10  20  36  64 100 136 166 220 280 344 392
#
# _framework density 21.773883000000001
#
# number of rings (size 3 to 8) (size 9 to 14) (size 15 to 20)
#    0.000    0.667    1.667    7.000    4.667    6.667 
#    0.000    0.000    0.000    4.000    0.000    2.333 
#    0.000    0.000    0.000    0.000    0.000    0.000 
#
# Total GULP energy -67170.510986 kJ/mol
# GULP energy per Si atom -5597.542582 kJ/mol
# Density = 2.172432 g / cm^3
# Si number density = 21.773883 Si / 1000 Ang^3
#
#
#
# Elastic Constant Matrix: (Units=GPa)
#
#
# Indices 1 2 3 4 5 6 
#
# 1 57.1687 52.3629 33.8942 0.0000 0.0000 0.0000
# 2 52.3629 207.5179 74.9819 0.0000 0.0000 0.0000
# 3 33.8942 74.9819 170.8490 0.0000 0.0000 0.0000
# 4 0.0000 0.0000 0.0000 42.3301 0.0000 0.0000
# 5 0.0000 0.0000 0.0000 0.0000 29.3853 0.0000
# 6 0.0000 0.0000 0.0000 0.0000 0.0000 -58.3084
#
#
#
# Elastic Compliance Matrix: (Units=1/GPa)
#
#
# Indices 1 2 3 4 5 6 
#
# 1 0.023587 -0.005064 -0.002457 0.000000 0.000000 0.000000
# 2 -0.005064 0.006814 -0.001986 0.000000 0.000000 0.000000
# 3 -0.002457 -0.001986 0.007212 0.000000 0.000000 0.000000
# 4 0.000000 0.000000 0.000000 0.023624 0.000000 0.000000
# 5 0.000000 0.000000 0.000000 0.000000 0.034031 0.000000
# 6 0.000000 0.000000 0.000000 0.000000 0.000000 -0.017150
#
#
# Mechanical properties :
#
#
# Convention : Reuss Voigt Hill
#
# Bulk Modulus (GPa) = 53.76434 84.22373 68.99404
# Shear Modulus (GPa) = 48.38806 20.96784 34.67795
#
# Velocity S-wave (km/s) = 4.71924 3.10656 3.99512
# Velocity P-wave (km/s) = 7.37839 7.18559 7.28263
#
# Compressibility (1/GPa) = 0.01859969
#
# Stress axis : x y z
#
# Youngs Moduli (GPa) = 42.39625 146.75147 138.65490
#
# Poissons Ratio (x) = 0.74314 0.34066
# Poissons Ratio (y) = 0.21469 0.27537
# Poissons Ratio (z) = 0.10416 0.29145
#
# Static dielectric constant tensor:
#      x y z
#    x 1.775680 0.000000 0.000000 
#    y 0.000000 1.809610 0.000000 
#    z 0.000000 0.000000 1.856360 
# 
# From -- ./inp_files/328.got.cif
#   From: 2010.05.17/outbox.cif.g08.bks.cpg/sg20_1_cif.got.tgz:328.got - 2010.06.03 22:52:26.
