data_PCOD9317819
_publ_section_title
;
Structure prediction by ZEFSAII (Michael W. Deem and Ramdas Pophale) SiO2 
 PCOD9317819
Probable space group: C 2 2 21
;
_chemical_formula_sum "Si O2"
_cell_formula_units_Z 56
_cell_length_a 15.609485
_cell_length_b 22.000641
_cell_length_c 8.190933
_cell_angle_alpha 90.000000
_cell_angle_beta 90.000000
_cell_angle_gamma 90.000000
_cell_volume 2812.919363
_symmetry_space_group_name_H-M "C 2 2 21"
_symmetry_group_IT_number 20
_symmetry_cell_setting 'orthorhombic'
loop_
_space_group_symop_operation_xyz
x,y,z
-x,-y,1/2+z
x,-y,-z
-x,y,1/2-z
1/2+x,1/2+y,z
1/2-x,1/2-y,1/2+z
1/2+x,1/2-y,-z
1/2-x,1/2+y,1/2-z
loop_
_atom_site_type_symbol
_atom_site_label
_atom_site_fract_x
_atom_site_fract_y
_atom_site_fract_z
Si Si1 0.271506 0.373984 0.138173
Si Si2 0.288397 0.930701 0.051661
Si Si3 0.893535 0.930927 0.566023
Si Si4 0.912564 0.682683 0.963212
Si Si5 0.607679 0.199772 0.911197
Si Si6 0.425131 0.430243 0.947914
Si Si7 0.099285 0.224459 0.767731
O O1 0.237915 0.426581 0.258265
O O2 0.188329 0.343776 0.059608
O O3 0.325726 0.323552 0.236606
O O4 0.342919 0.398725 0.019689
O O5 0.361799 0.880732 0.025643
O O6 0.201276 0.907399 0.964943
O O7 0.308161 0.000000 0.000000
O O8 0.912265 0.929503 0.755808
O O9 0.982320 0.903609 0.495870
O O10 0.889232 0.000000 0.500000
O O11 0.889596 0.713292 0.785298
O O12 0.014430 0.671249 0.948301
O O13 0.893547 0.724458 0.121733
O O14 0.611979 0.251991 0.047144
O O15 0.426362 0.500000 0.000000
O O16 0.000000 0.204190 0.750000
#
# Coordination Sequence:
#
# PCOD9317819 Si02
#       7
#     8   8   8   8   8   8   8
#     4  11  24  37  63  93 124 165 213 261 315 389
#     4  10  21  38  63  91 122 166 207 258 324 379
#     4   9  19  35  55  82 117 165 199 248 313 367
#     4   9  20  43  69  87 127 165 208 267 321 376
#     4   9  21  42  64  92 124 160 208 268 322 368
#     4  10  20  36  55  82 124 162 202 255 309 377
#     4  10  23  42  64  94 125 167 213 263 321 380
#
# _framework density 19.908144
#
# number of rings (size 3 to 8) (size 9 to 14) (size 15 to 20)
#    0.000    2.286    0.000    1.714    8.000    1.143 
#    2.571    2.143   15.714    0.000    0.000    0.000 
#    0.000    0.000    0.000    0.000    0.000    0.000 
#
# Total GULP energy -156001.104710 kJ/mol
# GULP energy per Si atom -5571.468025 kJ/mol
# Density = 1.986283 g / cm^3
# Si number density = 19.908144 Si / 1000 Ang^3
#
#
#
# Elastic Constant Matrix: (Units=GPa)
#
#
# Indices 1 2 3 4 5 6 
#
# 1 105.8103 43.5139 44.4712 0.0000 0.0000 0.0000
# 2 43.5139 71.6713 59.1255 0.0000 0.0000 0.0000
# 3 44.4712 59.1255 68.3864 0.0000 0.0000 0.0000
# 4 0.0000 0.0000 0.0000 29.2283 0.0000 0.0000
# 5 0.0000 0.0000 0.0000 0.0000 30.3135 0.0000
# 6 0.0000 0.0000 0.0000 0.0000 0.0000 22.1423
#
#
#
# Elastic Compliance Matrix: (Units=1/GPa)
#
#
# Indices 1 2 3 4 5 6 
#
# 1 0.013220 -0.003258 -0.005780 0.000000 0.000000 0.000000
# 2 -0.003258 0.049458 -0.040642 0.000000 0.000000 0.000000
# 3 -0.005780 -0.040642 0.053520 0.000000 0.000000 0.000000
# 4 0.000000 0.000000 0.000000 0.034213 0.000000 0.000000
# 5 0.000000 0.000000 0.000000 0.000000 0.032989 0.000000
# 6 0.000000 0.000000 0.000000 0.000000 0.000000 0.045162
#
#
# Mechanical properties :
#
#
# Convention : Reuss Voigt Hill
#
# Bulk Modulus (GPa) = 59.38963 60.00992 59.69978
# Shear Modulus (GPa) = 14.99091 22.92065 18.95578
#
# Velocity S-wave (km/s) = 2.74707 3.39679 3.08906
# Velocity P-wave (km/s) = 6.32127 6.75227 6.54032
#
# Compressibility (1/GPa) = 0.01683796
#
# Stress axis : x y z
#
# Youngs Moduli (GPa) = 75.64279 20.21904 18.68469
#
# Poissons Ratio (x) = 0.06587 0.10800
# Poissons Ratio (y) = 0.24644 0.75938
# Poissons Ratio (z) = 0.43722 0.82174
#
# Static dielectric constant tensor:
#      x y z
#    x 1.733090 0.000000 0.000000 
#    y 0.000000 2.215360 0.000000 
#    z 0.000000 0.000000 1.744240 
# 
# From -- ./inp_files/8737.got.cif
#   From: 2010.05.17/outbox.cif.g08.bks.cpg/sg20_5_cif.got.tgz:8737.got - 2010.06.03 22:52:26.
