data_PCOD9317576
_publ_section_title
;
Structure prediction by ZEFSAII (Michael W. Deem and Ramdas Pophale) SiO2 
 PCOD9317576
Probable space group: C 2 2 21
;
_chemical_formula_sum "Si O2"
_cell_formula_units_Z 48
_cell_length_a 9.193645
_cell_length_b 17.042633
_cell_length_c 14.887446
_cell_angle_alpha 90.000000
_cell_angle_beta 90.000000
_cell_angle_gamma 90.000000
_cell_volume 2332.623363
_symmetry_space_group_name_H-M "C 2 2 21"
_symmetry_group_IT_number 20
_symmetry_cell_setting 'orthorhombic'
loop_
_space_group_symop_operation_xyz
x,y,z
-x,-y,1/2+z
x,-y,-z
-x,y,1/2-z
1/2+x,1/2+y,z
1/2-x,1/2-y,1/2+z
1/2+x,1/2-y,-z
1/2-x,1/2+y,1/2-z
loop_
_atom_site_type_symbol
_atom_site_label
_atom_site_fract_x
_atom_site_fract_y
_atom_site_fract_z
Si Si1 0.164942 0.679374 0.280078
Si Si2 0.925224 0.828869 0.502225
Si Si3 0.841862 0.584148 0.776246
Si Si4 0.329225 0.752264 0.118682
Si Si5 0.765478 0.459653 0.912657
Si Si6 0.615561 0.346336 0.332786
O O1 0.265588 0.689155 0.191258
O O2 0.170410 0.606456 0.346696
O O3 0.187538 0.759963 0.334339
O O4 0.000000 0.682725 0.250000
O O5 0.795699 0.778429 0.453713
O O6 0.864709 0.908320 0.546621
O O7 0.026323 0.779304 0.570178
O O8 0.029626 0.856526 0.422759
O O9 0.860690 0.668716 0.824278
O O10 0.750417 0.531808 0.845232
O O11 0.743863 0.594403 0.688644
O O12 0.000000 0.552304 0.750000
O O13 0.841537 0.500000 0.000000
O O14 0.500000 0.349181 0.250000
#
# Coordination Sequence:
#
# PCOD9317576 Si02
#       6
#     8   8   8   8   8   8
#     4  10  21  43  69 100 141 184 237 288 359 418
#     4  12  24  44  71 106 138 181 246 299 356 413
#     4  11  25  45  71 101 145 189 236 283 366 427
#     4  11  25  43  73 106 134 192 241 298 339 444
#     4  12  25  45  67 102 143 184 224 306 362 414
#     4  10  19  44  71  97 139 192 233 291 348 426
#
# _framework density 20.577691000000002
#
# number of rings (size 3 to 8) (size 9 to 14) (size 15 to 20)
#    0.000    1.000    6.667    1.500    7.000    0.000 
#    9.000    0.000    0.000    0.000    0.000    0.000 
#    0.000    0.000    0.000    0.000    0.000    0.000 
#
# Total GULP energy -133785.022527 kJ/mol
# GULP energy per Si atom -5574.375939 kJ/mol
# Density = 2.053086 g / cm^3
# Si number density = 20.577691 Si / 1000 Ang^3
#
#
#
# Elastic Constant Matrix: (Units=GPa)
#
#
# Indices 1 2 3 4 5 6 
#
# 1 77.0902 28.0361 43.8093 0.0000 0.0000 0.0000
# 2 28.0361 80.1926 42.0029 0.0000 0.0000 0.0000
# 3 43.8093 42.0029 96.9921 0.0000 0.0000 0.0000
# 4 0.0000 0.0000 0.0000 18.2650 0.0000 0.0000
# 5 0.0000 0.0000 0.0000 0.0000 39.7278 0.0000
# 6 0.0000 0.0000 0.0000 0.0000 0.0000 -241.1988
#
#
#
# Elastic Compliance Matrix: (Units=1/GPa)
#
#
# Indices 1 2 3 4 5 6 
#
# 1 0.017864 -0.002612 -0.006938 0.000000 0.000000 0.000000
# 2 -0.002612 0.016510 -0.005970 0.000000 0.000000 0.000000
# 3 -0.006938 -0.005970 0.016029 0.000000 0.000000 0.000000
# 4 0.000000 0.000000 0.000000 0.054750 0.000000 0.000000
# 5 0.000000 0.000000 0.000000 0.000000 0.025171 0.000000
# 6 0.000000 0.000000 0.000000 0.000000 0.000000 -0.004146
#
#
# Mechanical properties :
#
#
# Convention : Reuss Voigt Hill
#
# Bulk Modulus (GPa) = 51.64172 53.55238 52.59705
# Shear Modulus (GPa) = 30.54876 -27.27944 1.63466
#
# Velocity S-wave (km/s) = 3.85717 -3.64494 0.89225
# Velocity P-wave (km/s) = 6.70727 2.89255 5.16500
#
# Compressibility (1/GPa) = 0.01936419
#
# Stress axis : x y z
#
# Youngs Moduli (GPa) = 55.97740 60.56919 62.38589
#
# Poissons Ratio (x) = 0.15818 0.43283
# Poissons Ratio (y) = 0.14619 0.37245
# Poissons Ratio (z) = 0.38837 0.36161
#
# Static dielectric constant tensor:
#      x y z
#    x 1.746230 0.000000 0.000000 
#    y 0.000000 1.800530 0.000000 
#    z 0.000000 0.000000 2.246270 
# 
# From -- ./inp_files/18916.got.cif
#   From: 2010.05.17/outbox.cif.g08.bks.cpg/sg20_10_cif.got.tgz:18916.got - 2010.06.03 22:52:26.
