data_PCOD9317419
_publ_section_title
;
Structure prediction by ZEFSAII (Michael W. Deem and Ramdas Pophale) SiO2 
 PCOD9317419
Probable space group: C 2 2 21
;
_chemical_formula_sum "Si O2"
_cell_formula_units_Z 48
_cell_length_a 16.577541
_cell_length_b 8.826226
_cell_length_c 17.835934
_cell_angle_alpha 90.000000
_cell_angle_beta 90.000000
_cell_angle_gamma 90.000000
_cell_volume 2609.702556
_symmetry_space_group_name_H-M "C 2 2 21"
_symmetry_group_IT_number 20
_symmetry_cell_setting 'orthorhombic'
loop_
_space_group_symop_operation_xyz
x,y,z
-x,-y,1/2+z
x,-y,-z
-x,y,1/2-z
1/2+x,1/2+y,z
1/2-x,1/2-y,1/2+z
1/2+x,1/2-y,-z
1/2-x,1/2+y,1/2-z
loop_
_atom_site_type_symbol
_atom_site_label
_atom_site_fract_x
_atom_site_fract_y
_atom_site_fract_z
Si Si1 0.000000 0.663150 0.250000
Si Si2 0.174158 0.983068 0.289878
Si Si3 0.324554 0.117220 0.205114
Si Si4 0.648345 0.627766 0.449054
Si Si5 0.586863 0.403096 0.150088
Si Si6 0.249618 0.919434 0.075369
Si Si7 0.502798 0.500000 0.000000
O O1 0.917662 0.579685 0.225583
O O2 0.970499 0.772427 0.317837
O O3 0.180269 0.800480 0.299076
O O4 0.110778 0.006331 0.221552
O O5 0.259907 0.053735 0.265361
O O6 0.143823 0.059668 0.365697
O O7 0.295602 0.038616 0.128496
O O8 0.691936 0.500000 0.500000
O O9 0.691970 0.785275 0.447374
O O10 0.560195 0.637104 0.486546
O O11 0.674896 0.349909 0.121690
O O12 0.549538 0.479530 0.077089
O O13 0.220042 0.000000 0.000000
#
# Coordination Sequence:
#
# PCOD9317419 Si02
#       7
#     4   8   8   8   8   8   4
#     4  10  20  36  60  86 120 156 190 254 304 336
#     4  10  19  38  58  91 113 159 196 240 294 357
#     4  10  21  36  64  86 118 155 195 244 291 359
#     4  10  22  36  61  84 117 152 200 243 295 350
#     4  10  20  35  61  84 120 153 199 239 294 364
#     4  11  22  39  60  87 119 162 202 243 295 364
#     4  10  20  36  56  92 110 158 196 244 294 350
#
# _framework density 18.392900000000001
#
# number of rings (size 3 to 8) (size 9 to 14) (size 15 to 20)
#    0.500    1.333    0.833    6.000    2.333    0.000 
#    0.000    5.000    3.667    1.000    0.000    0.000 
#    0.000    0.000    0.000    0.000    0.000    0.000 
#
# Total GULP energy -133694.316367 kJ/mol
# GULP energy per Si atom -5570.596515 kJ/mol
# Density = 1.835104 g / cm^3
# Si number density = 18.392900 Si / 1000 Ang^3
#
#
#
# Elastic Constant Matrix: (Units=GPa)
#
#
# Indices 1 2 3 4 5 6 
#
# 1 95.4571 14.6788 28.7671 0.0000 0.0000 0.0000
# 2 14.6788 57.0772 21.2148 0.0000 0.0000 0.0000
# 3 28.7671 21.2148 122.8193 0.0000 0.0000 0.0000
# 4 0.0000 0.0000 0.0000 25.9547 0.0000 0.0000
# 5 0.0000 0.0000 0.0000 0.0000 16.3104 0.0000
# 6 0.0000 0.0000 0.0000 0.0000 0.0000 14.7393
#
#
#
# Elastic Compliance Matrix: (Units=1/GPa)
#
#
# Indices 1 2 3 4 5 6 
#
# 1 0.011500 -0.002091 -0.002333 0.000000 0.000000 0.000000
# 2 -0.002091 0.019102 -0.002810 0.000000 0.000000 0.000000
# 3 -0.002333 -0.002810 0.009174 0.000000 0.000000 0.000000
# 4 0.000000 0.000000 0.000000 0.038529 0.000000 0.000000
# 5 0.000000 0.000000 0.000000 0.000000 0.061310 0.000000
# 6 0.000000 0.000000 0.000000 0.000000 0.000000 0.067846
#
#
# Mechanical properties :
#
#
# Convention : Reuss Voigt Hill
#
# Bulk Modulus (GPa) = 39.50982 44.96390 42.23686
# Shear Modulus (GPa) = 21.70477 25.44707 23.57592
#
# Velocity S-wave (km/s) = 3.43893 3.72361 3.58410
# Velocity P-wave (km/s) = 6.10704 6.55641 6.33571
#
# Compressibility (1/GPa) = 0.02531017
#
# Stress axis : x y z
#
# Youngs Moduli (GPa) = 86.95405 52.35007 109.00696
#
# Poissons Ratio (x) = 0.10944 0.25426
# Poissons Ratio (y) = 0.18179 0.30630
# Poissons Ratio (z) = 0.20282 0.14710
#
# Static dielectric constant tensor:
#      x y z
#    x 1.669690 0.000000 0.000000 
#    y 0.000000 1.608860 0.000000 
#    z 0.000000 0.000000 1.656160 
# 
# From -- ./inp_files/25200.got.cif
#   From: 2010.05.17/outbox.cif.g08.bks.cpg/sg20_13_cif.got.tgz:25200.got - 2010.06.03 22:52:26.
