data_PCOD9317322
_publ_section_title
;
Structure prediction by ZEFSAII (Michael W. Deem and Ramdas Pophale) SiO2 
 PCOD9317322
Probable space group: C 2 2 21
;
_chemical_formula_sum "Si O2"
_cell_formula_units_Z 48
_cell_length_a 8.864041
_cell_length_b 17.866495
_cell_length_c 13.362635
_cell_angle_alpha 90.000000
_cell_angle_beta 90.000000
_cell_angle_gamma 90.000000
_cell_volume 2116.231742
_symmetry_space_group_name_H-M "C 2 2 21"
_symmetry_group_IT_number 20
_symmetry_cell_setting 'orthorhombic'
loop_
_space_group_symop_operation_xyz
x,y,z
-x,-y,1/2+z
x,-y,-z
-x,y,1/2-z
1/2+x,1/2+y,z
1/2-x,1/2-y,1/2+z
1/2+x,1/2-y,-z
1/2-x,1/2+y,1/2-z
loop_
_atom_site_type_symbol
_atom_site_label
_atom_site_fract_x
_atom_site_fract_y
_atom_site_fract_z
Si Si1 0.343057 0.941196 0.220532
Si Si2 0.660432 0.900399 0.622864
Si Si3 0.060287 0.265987 0.862877
Si Si4 0.648092 0.334495 0.692286
Si Si5 0.401940 0.506927 0.147871
Si Si6 0.613544 0.385593 0.061509
O O1 0.500000 0.903998 0.250000
O O2 0.256599 0.971684 0.318704
O O3 0.225869 0.892252 0.157732
O O4 0.380726 0.014713 0.152271
O O5 0.523055 0.842926 0.605334
O O6 0.746788 0.868991 0.720054
O O7 0.779288 0.898481 0.533015
O O8 0.240232 0.278302 0.861537
O O9 0.033975 0.194983 0.933335
O O10 0.000000 0.248948 0.750000
O O11 0.500000 0.306000 0.750000
O O12 0.610750 0.405611 0.622159
O O13 0.500000 0.510235 0.250000
O O14 0.492798 0.450498 0.079517
#
# Coordination Sequence:
#
# PCOD9317322 Si02
#       6
#     8   8   8   8   8   8
#     4  10  19  36  62  88 116 156 200 243 303 377
#     4  10  21  38  59  84 121 164 197 241 304 363
#     4  10  21  39  60  85 123 164 197 239 302 372
#     4   9  18  35  61  85 112 157 202 233 292 377
#     4   8  16  33  57  84 112 147 192 238 289 355
#     4  11  22  37  60  90 120 152 201 262 300 330
#
# _framework density 22.681823999999999
#
# number of rings (size 3 to 8) (size 9 to 14) (size 15 to 20)
#    0.000    2.333    0.000    5.500    0.000    2.000 
#    0.000    5.000    0.000   16.000    0.000    0.000 
#    0.000    0.000    0.000    0.000    0.000    0.000 
#
# Total GULP energy -134106.988637 kJ/mol
# GULP energy per Si atom -5587.791193 kJ/mol
# Density = 2.263020 g / cm^3
# Si number density = 22.681824 Si / 1000 Ang^3
#
#
#
# Elastic Constant Matrix: (Units=GPa)
#
#
# Indices 1 2 3 4 5 6 
#
# 1 118.8919 38.7846 9.5113 0.0000 0.0000 0.0000
# 2 38.7846 119.1756 25.4476 0.0000 0.0000 0.0000
# 3 9.5113 25.4476 58.5233 0.0000 0.0000 0.0000
# 4 0.0000 0.0000 0.0000 24.4463 0.0000 0.0000
# 5 0.0000 0.0000 0.0000 0.0000 23.6333 0.0000
# 6 0.0000 0.0000 0.0000 0.0000 0.0000 31.4426
#
#
#
# Elastic Compliance Matrix: (Units=1/GPa)
#
#
# Indices 1 2 3 4 5 6 
#
# 1 0.009413 -0.003017 -0.000218 0.000000 0.000000 0.000000
# 2 -0.003017 0.010217 -0.003952 0.000000 0.000000 0.000000
# 3 -0.000218 -0.003952 0.018841 0.000000 0.000000 0.000000
# 4 0.000000 0.000000 0.000000 0.040906 0.000000 0.000000
# 5 0.000000 0.000000 0.000000 0.000000 0.042313 0.000000
# 6 0.000000 0.000000 0.000000 0.000000 0.000000 0.031804
#
#
# Mechanical properties :
#
#
# Convention : Reuss Voigt Hill
#
# Bulk Modulus (GPa) = 41.49969 49.34198 45.42084
# Shear Modulus (GPa) = 28.42532 30.76092 29.59312
#
# Velocity S-wave (km/s) = 3.54393 3.68665 3.61599
# Velocity P-wave (km/s) = 5.92301 6.31847 6.12393
#
# Compressibility (1/GPa) = 0.02409657
#
# Stress axis : x y z
#
# Youngs Moduli (GPa) = 106.24130 97.87948 53.07523
#
# Poissons Ratio (x) = 0.29527 0.01157
# Poissons Ratio (y) = 0.32050 0.20976
# Poissons Ratio (z) = 0.02316 0.38684
#
# Static dielectric constant tensor:
#      x y z
#    x 1.885880 0.000000 0.000000 
#    y 0.000000 1.847610 0.000000 
#    z 0.000000 0.000000 1.858100 
# 
# From -- ./inp_files/18883.got.cif
#   From: 2010.05.17/outbox.cif.g08.bks.cpg/sg20_10_cif.got.tgz:18883.got - 2010.06.03 22:52:26.
