data_PCOD9317905
_publ_section_title
;
Structure prediction by ZEFSAII (Michael W. Deem and Ramdas Pophale) SiO2 
 PCOD9317905
Probable space group: C 2 2 21
;
_chemical_formula_sum "Si O2"
_cell_formula_units_Z 40
_cell_length_a 15.771688
_cell_length_b 13.973124
_cell_length_c 9.825033
_cell_angle_alpha 90.000000
_cell_angle_beta 90.000000
_cell_angle_gamma 90.000000
_cell_volume 2165.238337
_symmetry_space_group_name_H-M "C 2 2 21"
_symmetry_group_IT_number 20
_symmetry_cell_setting 'orthorhombic'
loop_
_space_group_symop_operation_xyz
x,y,z
-x,-y,1/2+z
x,-y,-z
-x,y,1/2-z
1/2+x,1/2+y,z
1/2-x,1/2-y,1/2+z
1/2+x,1/2-y,-z
1/2-x,1/2+y,1/2-z
loop_
_atom_site_type_symbol
_atom_site_label
_atom_site_fract_x
_atom_site_fract_y
_atom_site_fract_z
Si Si1 0.184962 0.578432 0.113765
Si Si2 0.064686 0.544479 0.355106
Si Si3 0.000000 0.885454 0.250000
Si Si4 0.500000 0.290352 0.750000
Si Si5 0.384226 0.541685 0.144454
Si Si6 0.952149 0.279082 0.540778
O O1 0.145993 0.559668 0.262132
O O2 0.285313 0.565559 0.127842
O O3 0.156335 0.500000 0.000000
O O4 0.142374 0.679173 0.069000
O O5 0.084514 0.500000 0.500000
O O6 0.000000 0.491827 0.250000
O O7 0.014349 0.640379 0.397163
O O8 0.978485 0.816222 0.377286
O O9 0.081631 0.955698 0.260887
O O10 0.571579 0.361544 0.692156
O O11 0.533485 0.232990 0.880308
O O12 0.414656 0.500000 0.000000
#
# Coordination Sequence:
#
# PCOD9317905 Si02
#       6
#     8   8   4   4   8   8
#     4  10  22  42  61  93 128 168 199 270 323 366
#     4  10  20  36  61  89 127 163 206 258 321 374
#     4  11  20  42  69  84 120 176 203 260 302 377
#     4  11  24  40  65  94 118 174 213 250 312 391
#     4  10  22  43  64  87 130 164 211 257 324 366
#     4  11  21  39  66  91 124 160 220 255 304 376
#
# _framework density 18.473717000000001
#
# number of rings (size 3 to 8) (size 9 to 14) (size 15 to 20)
#    0.000    1.600    5.000    2.400    4.200    0.000 
#   14.400    0.000    0.000    0.000    0.000    0.000 
#    0.000    0.000    0.000    0.000    0.000    0.000 
#
# Total GULP energy -111354.107697 kJ/mol
# GULP energy per Si atom -5567.705385 kJ/mol
# Density = 1.843167 g / cm^3
# Si number density = 18.473717 Si / 1000 Ang^3
#
#
#
# Elastic Constant Matrix: (Units=GPa)
#
#
# Indices 1 2 3 4 5 6 
#
# 1 92.1874 46.9366 44.9491 0.0000 0.0000 0.0000
# 2 46.9366 74.5400 42.7438 0.0000 0.0000 0.0000
# 3 44.9491 42.7438 163.9728 0.0000 0.0000 0.0000
# 4 0.0000 0.0000 0.0000 18.5081 0.0000 0.0000
# 5 0.0000 0.0000 0.0000 0.0000 21.4570 0.0000
# 6 0.0000 0.0000 0.0000 0.0000 0.0000 -39.8310
#
#
#
# Elastic Compliance Matrix: (Units=1/GPa)
#
#
# Indices 1 2 3 4 5 6 
#
# 1 0.016584 -0.009213 -0.002144 0.000000 0.000000 0.000000
# 2 -0.009213 0.020891 -0.002920 0.000000 0.000000 0.000000
# 3 -0.002144 -0.002920 0.007448 0.000000 0.000000 0.000000
# 4 0.000000 0.000000 0.000000 0.054030 0.000000 0.000000
# 5 0.000000 0.000000 0.000000 0.000000 0.046605 0.000000
# 6 0.000000 0.000000 0.000000 0.000000 0.000000 -0.025106
#
#
# Mechanical properties :
#
#
# Convention : Reuss Voigt Hill
#
# Bulk Modulus (GPa) = 61.09674 66.66212 63.87943
# Shear Modulus (GPa) = 32.37018 13.09820 22.73419
#
# Velocity S-wave (km/s) = 4.19050 2.66563 3.51183
# Velocity P-wave (km/s) = 7.52049 6.75554 7.14825
#
# Compressibility (1/GPa) = 0.01636749
#
# Stress axis : x y z
#
# Youngs Moduli (GPa) = 60.30021 47.86658 134.26943
#
# Poissons Ratio (x) = 0.44098 0.28794
# Poissons Ratio (y) = 0.55553 0.39213
# Poissons Ratio (z) = 0.12931 0.13979
#
# Static dielectric constant tensor:
#      x y z
#    x 1.644960 0.000000 0.000000 
#    y 0.000000 1.662030 0.000000 
#    z 0.000000 0.000000 1.705270 
# 
# From -- ./inp_files/8154.got.cif
#   From: 2010.05.17/outbox.cif.g08.bks.cpg/sg20_5_cif.got.tgz:8154.got - 2010.06.03 22:52:26.
