data_PCOD9317031
_publ_section_title
;
Structure prediction by ZEFSAII (Michael W. Deem and Ramdas Pophale) SiO2 
 PCOD9317031
Probable space group: C 2 2 21
;
_chemical_formula_sum "Si O2"
_cell_formula_units_Z 64
_cell_length_a 10.956231
_cell_length_b 19.997096
_cell_length_c 16.727939
_cell_angle_alpha 90.000000
_cell_angle_beta 90.000000
_cell_angle_gamma 90.000000
_cell_volume 3664.971046
_symmetry_space_group_name_H-M "C 2 2 21"
_symmetry_group_IT_number 20
_symmetry_cell_setting 'orthorhombic'
loop_
_space_group_symop_operation_xyz
x,y,z
-x,-y,1/2+z
x,-y,-z
-x,y,1/2-z
1/2+x,1/2+y,z
1/2-x,1/2-y,1/2+z
1/2+x,1/2-y,-z
1/2-x,1/2+y,1/2-z
loop_
_atom_site_type_symbol
_atom_site_label
_atom_site_fract_x
_atom_site_fract_y
_atom_site_fract_z
Si Si1 0.752757 0.795309 0.567674
Si Si2 0.376616 0.625130 0.300101
Si Si3 0.312462 0.651476 0.987347
Si Si4 0.992383 0.284166 0.655629
Si Si5 0.700978 0.103943 0.153571
Si Si6 0.591245 0.348150 0.066703
Si Si7 0.229750 0.977711 0.410179
Si Si8 0.962617 0.018133 0.657926
O O1 0.846894 0.817024 0.636937
O O2 0.751907 0.721422 0.530406
O O3 0.620191 0.796351 0.609972
O O4 0.795368 0.841934 0.493873
O O5 0.500000 0.635823 0.250000
O O6 0.269877 0.621232 0.234822
O O7 0.389455 0.551784 0.341434
O O8 0.279249 0.626434 0.075840
O O9 0.459528 0.651029 0.978918
O O10 0.264232 0.601681 0.917547
O O11 0.919577 0.353033 0.647530
O O12 0.922703 0.220086 0.618015
O O13 0.000000 0.270053 0.750000
O O14 0.689522 0.023705 0.146858
O O15 0.596739 0.416080 0.118790
O O16 0.089850 0.993944 0.388041
O O17 0.257300 0.000000 0.500000
O O18 0.000000 0.031981 0.750000
#
# Coordination Sequence:
#
# PCOD9317031 Si02
#       8
#     8   8   8   8   8   8   8   8
#     4  11  22  37  56  88 117 154 193 239 291 355
#     4  11  21  33  58  88 116 148 188 239 301 349
#     4   9  20  36  59  85 109 151 195 245 290 338
#     4  11  22  38  59  84 117 164 195 230 295 359
#     4  11  18  37  57  82 113 151 192 233 284 353
#     4  10  21  36  60  82 121 148 194 247 293 338
#     4   9  18  32  57  83 105 143 192 241 282 338
#     4  10  19  33  55  90 117 142 185 246 305 337
#
# _framework density 17.462620999999999
#
# number of rings (size 3 to 8) (size 9 to 14) (size 15 to 20)
#    0.000    1.750    5.000    1.125    3.500    0.000 
#    0.000    0.000    8.250    0.750    0.000    0.000 
#    0.000    0.000    0.000    0.000    0.000    0.000 
#
# Total GULP energy -178138.041501 kJ/mol
# GULP energy per Si atom -5566.813797 kJ/mol
# Density = 1.742288 g / cm^3
# Si number density = 17.462621 Si / 1000 Ang^3
#
#
#
# Elastic Constant Matrix: (Units=GPa)
#
#
# Indices 1 2 3 4 5 6 
#
# 1 35.5941 25.0390 9.7206 0.0000 0.0000 0.0000
# 2 25.0390 76.3537 9.5070 0.0000 0.0000 0.0000
# 3 9.7206 9.5070 49.0339 0.0000 0.0000 0.0000
# 4 0.0000 0.0000 0.0000 32.8515 0.0000 0.0000
# 5 0.0000 0.0000 0.0000 0.0000 28.5480 0.0000
# 6 0.0000 0.0000 0.0000 0.0000 0.0000 28.6483
#
#
#
# Elastic Compliance Matrix: (Units=1/GPa)
#
#
# Indices 1 2 3 4 5 6 
#
# 1 0.037776 -0.011739 -0.005213 0.000000 0.000000 0.000000
# 2 -0.011739 0.017069 -0.000982 0.000000 0.000000 0.000000
# 3 -0.005213 -0.000982 0.021618 0.000000 0.000000 0.000000
# 4 0.000000 0.000000 0.000000 0.030440 0.000000 0.000000
# 5 0.000000 0.000000 0.000000 0.000000 0.035029 0.000000
# 6 0.000000 0.000000 0.000000 0.000000 0.000000 0.034906
#
#
# Mechanical properties :
#
#
# Convention : Reuss Voigt Hill
#
# Bulk Modulus (GPa) = 24.63376 27.72388 26.17882
# Shear Modulus (GPa) = 22.10071 25.79057 23.94564
#
# Velocity S-wave (km/s) = 3.56139 3.84722 3.70706
# Velocity P-wave (km/s) = 5.57212 5.97037 5.77468
#
# Compressibility (1/GPa) = 0.04059470
#
# Stress axis : x y z
#
# Youngs Moduli (GPa) = 26.47185 58.58632 46.25800
#
# Poissons Ratio (x) = 0.68774 0.24113
# Poissons Ratio (y) = 0.31075 0.04544
# Poissons Ratio (z) = 0.13799 0.05755
#
# Static dielectric constant tensor:
#      x y z
#    x 1.588340 0.000000 0.000000 
#    y 0.000000 1.634550 0.000000 
#    z 0.000000 0.000000 1.617110 
# 
# From -- ./inp_files/24529.got.cif
#   From: 2010.05.17/outbox.cif.g08.bks.cpg/sg20_13_cif.got.tgz:24529.got - 2010.06.03 22:52:26.
