data_PCOD9317817
_publ_section_title
;
Structure prediction by ZEFSAII (Michael W. Deem and Ramdas Pophale) SiO2 
 PCOD9317817
Probable space group: C 2 2 21
;
_chemical_formula_sum "Si O2"
_cell_formula_units_Z 60
_cell_length_a 8.828650
_cell_length_b 13.297523
_cell_length_c 21.329838
_cell_angle_alpha 90.000000
_cell_angle_beta 90.000000
_cell_angle_gamma 90.000000
_cell_volume 2504.105415
_symmetry_space_group_name_H-M "C 2 2 21"
_symmetry_group_IT_number 20
_symmetry_cell_setting 'orthorhombic'
loop_
_space_group_symop_operation_xyz
x,y,z
-x,-y,1/2+z
x,-y,-z
-x,y,1/2-z
1/2+x,1/2+y,z
1/2-x,1/2-y,1/2+z
1/2+x,1/2-y,-z
1/2-x,1/2+y,1/2-z
loop_
_atom_site_type_symbol
_atom_site_label
_atom_site_fract_x
_atom_site_fract_y
_atom_site_fract_z
Si Si1 0.939043 0.126364 0.816629
Si Si2 0.274488 0.107130 0.498966
Si Si3 0.871714 0.194249 0.112482
Si Si4 0.000000 0.327143 0.750000
Si Si5 0.316053 0.974956 0.681430
Si Si6 0.569649 0.054374 0.417134
Si Si7 0.186660 0.877741 0.078935
Si Si8 0.680129 0.707392 0.063390
O O1 0.962668 0.246327 0.804887
O O2 0.000000 0.082013 0.750000
O O3 0.038478 0.098274 0.878423
O O4 0.770343 0.080128 0.815367
O O5 0.165160 0.178364 0.460601
O O6 0.434428 0.084789 0.465039
O O7 0.308610 0.171980 0.559153
O O8 0.196758 0.000000 0.500000
O O9 0.796897 0.099488 0.144829
O O10 0.779807 0.296929 0.122261
O O11 0.049991 0.189549 0.114158
O O12 0.861405 0.404000 0.739617
O O13 0.472177 0.979997 0.642520
O O14 0.668808 0.154163 0.414694
O O15 0.694151 0.968397 0.431079
O O16 0.148814 0.835442 0.008461
#
# Coordination Sequence:
#
# PCOD9317817 Si02
#       8
#     8   8   8   4   8   8   8   8
#     4  10  24  48  76 104 134 194 241 309 377 423
#     4  10  20  36  54  88 128 180 236 280 344 420
#     4  10  21  39  60  98 131 181 233 284 361 435
#     4  10  24  50  76  98 152 172 246 316 358 436
#     4  11  24  46  73 104 138 184 239 298 375 438
#     4  11  24  39  63  99 137 183 237 297 355 443
#     4  11  22  44  65  98 146 183 244 301 362 437
#     4  11  22  38  64  93 145 188 228 297 357 431
#
# _framework density 23.960653000000001
#
# number of rings (size 3 to 8) (size 9 to 14) (size 15 to 20)
#    0.400    1.067    1.333    4.400    1.867    3.200 
#    7.200    0.000    0.000    0.000    0.000    0.000 
#    0.000    0.000    0.000    0.000    0.000    0.000 
#
# Total GULP energy -167208.728982 kJ/mol
# GULP energy per Si atom -5573.624299 kJ/mol
# Density = 2.390612 g / cm^3
# Si number density = 23.960653 Si / 1000 Ang^3
#
#
#
# Elastic Constant Matrix: (Units=GPa)
#
#
# Indices 1 2 3 4 5 6 
#
# 1 91.3205 29.6383 40.0521 0.0000 0.0000 0.0000
# 2 29.6383 84.1273 21.6372 0.0000 0.0000 0.0000
# 3 40.0521 21.6372 59.3117 0.0000 0.0000 0.0000
# 4 0.0000 0.0000 0.0000 23.4875 0.0000 0.0000
# 5 0.0000 0.0000 0.0000 0.0000 17.0070 0.0000
# 6 0.0000 0.0000 0.0000 0.0000 0.0000 29.1454
#
#
#
# Elastic Compliance Matrix: (Units=1/GPa)
#
#
# Indices 1 2 3 4 5 6 
#
# 1 0.016310 -0.003215 -0.009841 0.000000 0.000000 0.000000
# 2 -0.003215 0.013751 -0.002846 0.000000 0.000000 0.000000
# 3 -0.009841 -0.002846 0.024544 0.000000 0.000000 0.000000
# 4 0.000000 0.000000 0.000000 0.042576 0.000000 0.000000
# 5 0.000000 0.000000 0.000000 0.000000 0.058799 0.000000
# 6 0.000000 0.000000 0.000000 0.000000 0.000000 0.034311
#
#
# Mechanical properties :
#
#
# Convention : Reuss Voigt Hill
#
# Bulk Modulus (GPa) = 43.85610 46.37942 45.11776
# Shear Modulus (GPa) = 21.76805 23.49010 22.62908
#
# Velocity S-wave (km/s) = 3.01739 3.13447 3.07649
# Velocity P-wave (km/s) = 5.52111 5.70073 5.61164
#
# Compressibility (1/GPa) = 0.02280185
#
# Stress axis : x y z
#
# Youngs Moduli (GPa) = 61.31195 72.72061 40.74380
#
# Poissons Ratio (x) = 0.23380 0.40096
# Poissons Ratio (y) = 0.19712 0.11594
# Poissons Ratio (z) = 0.60337 0.20693
#
# Static dielectric constant tensor:
#      x y z
#    x 1.924000 0.000000 0.000000 
#    y 0.000000 1.983040 0.000000 
#    z 0.000000 0.000000 2.087290 
# 
# From -- ./inp_files/28845.got.cif
#   From: 2010.05.17/outbox.cif.g08.bks.cpg/sg20_15_cif.got.tgz:28845.got - 2010.06.03 22:52:26.
