data_PCOD9317151
_publ_section_title
;
Structure prediction by ZEFSAII (Michael W. Deem and Ramdas Pophale) SiO2 
 PCOD9317151
Probable space group: C 2 2 21
;
_chemical_formula_sum "Si O2"
_cell_formula_units_Z 60
_cell_length_a 6.139607
_cell_length_b 27.768574
_cell_length_c 17.092781
_cell_angle_alpha 90.000000
_cell_angle_beta 90.000000
_cell_angle_gamma 90.000000
_cell_volume 2914.116292
_symmetry_space_group_name_H-M "C 2 2 21"
_symmetry_group_IT_number 20
_symmetry_cell_setting 'orthorhombic'
loop_
_space_group_symop_operation_xyz
x,y,z
-x,-y,1/2+z
x,-y,-z
-x,y,1/2-z
1/2+x,1/2+y,z
1/2-x,1/2-y,1/2+z
1/2+x,1/2-y,-z
1/2-x,1/2+y,1/2-z
loop_
_atom_site_type_symbol
_atom_site_label
_atom_site_fract_x
_atom_site_fract_y
_atom_site_fract_z
Si Si1 0.519665 0.223712 0.600433
Si Si2 0.331516 0.646365 0.948990
Si Si3 0.956663 0.590541 0.022849
Si Si4 0.661626 0.061091 0.644325
Si Si5 0.798032 0.810434 0.546133
Si Si6 0.675210 0.657166 0.816848
Si Si7 0.000000 0.001182 0.750000
Si Si8 0.107345 0.529056 0.169069
O O1 0.341983 0.182041 0.589621
O O2 0.665711 0.220392 0.520103
O O3 0.376282 0.271800 0.610674
O O4 0.692741 0.205722 0.664513
O O5 0.520995 0.638178 0.887149
O O6 0.188105 0.603612 0.982933
O O7 0.466580 0.671639 0.017223
O O8 0.007896 0.556421 0.095510
O O9 0.844875 0.640634 0.052970
O O10 0.821921 0.567622 0.950243
O O11 0.653599 0.113565 0.683502
O O12 0.849613 0.033402 0.692905
O O13 0.452977 0.027230 0.658048
O O14 0.500000 0.663333 0.750000
O O15 0.860630 0.969228 0.810459
O O16 0.000000 0.546287 0.250000
#
# Coordination Sequence:
#
# PCOD9317151 Si02
#       8
#     8   8   8   8   8   8   4   8
#     4  10  19  35  58  94 126 169 217 269 340 403
#     4  10  20  34  60  89 124 168 215 266 338 392
#     4  11  23  40  63 102 127 170 235 290 331 410
#     4  11  21  38  63  98 134 176 225 279 346 423
#     4  10  19  34  64  94 123 167 218 279 333 397
#     4  11  23  37  59  95 141 178 215 273 349 424
#     4  10  24  42  64  90 136 198 212 274 378 420
#     4  10  25  45  63  90 134 179 226 288 351 413
#
# _framework density 20.589431000000001
#
# number of rings (size 3 to 8) (size 9 to 14) (size 15 to 20)
#    0.000    1.600    6.000    0.400    1.867    3.733 
#    2.400    0.000    0.000    4.800    0.000    0.000 
#    0.000    0.000    0.000    0.000    0.000    0.000 
#
# Total GULP energy -167019.526207 kJ/mol
# GULP energy per Si atom -5567.317540 kJ/mol
# Density = 2.054257 g / cm^3
# Si number density = 20.589431 Si / 1000 Ang^3
#
#
#
# Elastic Constant Matrix: (Units=GPa)
#
#
# Indices 1 2 3 4 5 6 
#
# 1 75.3828 36.0956 33.2025 0.0000 0.0000 0.0000
# 2 36.0956 72.9907 45.5826 0.0000 0.0000 0.0000
# 3 33.2025 45.5826 103.2327 0.0000 0.0000 0.0000
# 4 0.0000 0.0000 0.0000 10.0666 0.0000 0.0000
# 5 0.0000 0.0000 0.0000 0.0000 34.9880 0.0000
# 6 0.0000 0.0000 0.0000 0.0000 0.0000 20.9207
#
#
#
# Elastic Compliance Matrix: (Units=1/GPa)
#
#
# Indices 1 2 3 4 5 6 
#
# 1 0.017853 -0.007239 -0.002546 0.000000 0.000000 0.000000
# 2 -0.007239 0.021852 -0.007320 0.000000 0.000000 0.000000
# 3 -0.002546 -0.007320 0.013738 0.000000 0.000000 0.000000
# 4 0.000000 0.000000 0.000000 0.099339 0.000000 0.000000
# 5 0.000000 0.000000 0.000000 0.000000 0.028581 0.000000
# 6 0.000000 0.000000 0.000000 0.000000 0.000000 0.047800
#
#
# Mechanical properties :
#
#
# Convention : Reuss Voigt Hill
#
# Bulk Modulus (GPa) = 51.99485 53.48528 52.74007
# Shear Modulus (GPa) = 18.53338 22.31009 20.42173
#
# Velocity S-wave (km/s) = 3.00349 3.29533 3.15279
# Velocity P-wave (km/s) = 6.11031 6.36494 6.23892
#
# Compressibility (1/GPa) = 0.01923267
#
# Stress axis : x y z
#
# Youngs Moduli (GPa) = 56.01258 45.76270 72.79099
#
# Poissons Ratio (x) = 0.33128 0.18530
# Poissons Ratio (y) = 0.40548 0.53286
# Poissons Ratio (z) = 0.14259 0.33500
#
# Static dielectric constant tensor:
#      x y z
#    x 1.795570 0.000000 0.000000 
#    y 0.000000 1.789370 0.000000 
#    z 0.000000 0.000000 1.900310 
# 
# From -- ./inp_files/22925.got.cif
#   From: 2010.05.17/outbox.cif.g08.bks.cpg/sg20_12_cif.got.tgz:22925.got - 2010.06.03 22:52:26.
