data_PCOD9317235
_publ_section_title
;
Structure prediction by ZEFSAII (Michael W. Deem and Ramdas Pophale) SiO2 
 PCOD9317235
Probable space group: C 2 2 21
;
_chemical_formula_sum "Si O2"
_cell_formula_units_Z 56
_cell_length_a 8.915746
_cell_length_b 21.203611
_cell_length_c 14.480672
_cell_angle_alpha 90.000000
_cell_angle_beta 90.000000
_cell_angle_gamma 90.000000
_cell_volume 2737.513263
_symmetry_space_group_name_H-M "C 2 2 21"
_symmetry_group_IT_number 20
_symmetry_cell_setting 'orthorhombic'
loop_
_space_group_symop_operation_xyz
x,y,z
-x,-y,1/2+z
x,-y,-z
-x,y,1/2-z
1/2+x,1/2+y,z
1/2-x,1/2-y,1/2+z
1/2+x,1/2-y,-z
1/2-x,1/2+y,1/2-z
loop_
_atom_site_type_symbol
_atom_site_label
_atom_site_fract_x
_atom_site_fract_y
_atom_site_fract_z
Si Si1 0.913741 0.895902 0.044985
Si Si2 0.345925 0.482282 0.202563
Si Si3 0.760199 0.425511 0.001029
Si Si4 0.637097 0.372296 0.652443
Si Si5 0.363312 0.710144 0.809623
Si Si6 0.844355 0.386745 0.198530
Si Si7 0.711583 0.333732 0.838922
O O1 0.833288 0.950304 0.103015
O O2 0.926852 0.837218 0.113394
O O3 0.079904 0.920266 0.018978
O O4 0.822884 0.875974 0.954446
O O5 0.500000 0.459239 0.250000
O O6 0.361870 0.556120 0.189430
O O7 0.217567 0.454830 0.267178
O O8 0.840045 0.391129 0.087743
O O9 0.798521 0.500000 0.000000
O O10 0.782601 0.387093 0.905274
O O11 0.737902 0.338656 0.728521
O O12 0.468530 0.343422 0.652504
O O13 0.500000 0.736824 0.750000
O O14 0.264210 0.666889 0.740566
O O15 0.268430 0.764121 0.860451
O O16 0.000000 0.376088 0.250000
#
# Coordination Sequence:
#
# PCOD9317235 Si02
#       7
#     8   8   8   8   8   8   8
#     4  10  19  35  64  98 120 170 218 272 327 395
#     4  11  17  36  66  94 127 161 220 267 322 405
#     4  11  20  40  69  97 131 171 222 271 342 403
#     4  10  20  37  61  97 127 163 213 272 333 387
#     4  11  23  45  62  89 131 172 230 270 328 400
#     4  11  24  40  64  97 132 179 212 271 340 395
#     4  10  22  36  61  98 124 169 219 269 321 391
#
# _framework density 20.456520999999999
#
# number of rings (size 3 to 8) (size 9 to 14) (size 15 to 20)
#    0.000    1.429    4.286    3.857    2.000    1.143 
#    2.571    7.143    0.000    0.000    0.000    0.000 
#    0.000    0.000    0.000    0.000    0.000    0.000 
#
# Total GULP energy -156177.833900 kJ/mol
# GULP energy per Si atom -5577.779782 kJ/mol
# Density = 2.040996 g / cm^3
# Si number density = 20.456521 Si / 1000 Ang^3
#
#
#
# Elastic Constant Matrix: (Units=GPa)
#
#
# Indices 1 2 3 4 5 6 
#
# 1 47.4808 19.9752 17.2275 0.0000 0.0000 0.0000
# 2 19.9752 94.8529 -5.4999 0.0000 0.0000 0.0000
# 3 17.2275 -5.4999 90.3724 0.0000 0.0000 0.0000
# 4 0.0000 0.0000 0.0000 14.6622 0.0000 0.0000
# 5 0.0000 0.0000 0.0000 0.0000 21.3163 0.0000
# 6 0.0000 0.0000 0.0000 0.0000 0.0000 10.8079
#
#
#
# Elastic Compliance Matrix: (Units=1/GPa)
#
#
# Indices 1 2 3 4 5 6 
#
# 1 0.025303 -0.005628 -0.005166 0.000000 0.000000 0.000000
# 2 -0.005628 0.011832 0.001793 0.000000 0.000000 0.000000
# 3 -0.005166 0.001793 0.012159 0.000000 0.000000 0.000000
# 4 0.000000 0.000000 0.000000 0.068203 0.000000 0.000000
# 5 0.000000 0.000000 0.000000 0.000000 0.046912 0.000000
# 6 0.000000 0.000000 0.000000 0.000000 0.000000 0.092525
#
#
# Mechanical properties :
#
#
# Convention : Reuss Voigt Hill
#
# Bulk Modulus (GPa) = 31.95722 32.90130 32.42926
# Shear Modulus (GPa) = 17.52123 22.75748 20.13936
#
# Velocity S-wave (km/s) = 2.92980 3.33901 3.14107
# Velocity P-wave (km/s) = 5.20585 5.56630 5.38909
#
# Compressibility (1/GPa) = 0.03129184
#
# Stress axis : x y z
#
# Youngs Moduli (GPa) = 39.52043 84.51759 82.24206
#
# Poissons Ratio (x) = 0.47568 0.42487
# Poissons Ratio (y) = 0.22243 -0.14746
# Poissons Ratio (z) = 0.20416 -0.15154
#
# Static dielectric constant tensor:
#      x y z
#    x 1.714120 0.000000 0.000000 
#    y 0.000000 1.728290 0.000000 
#    z 0.000000 0.000000 1.791510 
# 
# From -- ./inp_files/19215.got.cif
#   From: 2010.05.17/outbox.cif.g08.bks.cpg/sg20_10_cif.got.tgz:19215.got - 2010.06.03 22:52:26.
