data_PCOD9317140
_publ_section_title
;
Structure prediction by ZEFSAII (Michael W. Deem and Ramdas Pophale) SiO2 
 PCOD9317140
Probable space group: C 2 2 21
;
_chemical_formula_sum "Si O2"
_cell_formula_units_Z 48
_cell_length_a 14.450703
_cell_length_b 18.521773
_cell_length_c 8.171666
_cell_angle_alpha 90.000000
_cell_angle_beta 90.000000
_cell_angle_gamma 90.000000
_cell_volume 2187.167983
_symmetry_space_group_name_H-M "C 2 2 21"
_symmetry_group_IT_number 20
_symmetry_cell_setting 'orthorhombic'
loop_
_space_group_symop_operation_xyz
x,y,z
-x,-y,1/2+z
x,-y,-z
-x,y,1/2-z
1/2+x,1/2+y,z
1/2-x,1/2-y,1/2+z
1/2+x,1/2-y,-z
1/2-x,1/2+y,1/2-z
loop_
_atom_site_type_symbol
_atom_site_label
_atom_site_fract_x
_atom_site_fract_y
_atom_site_fract_z
Si Si1 0.252621 0.951422 0.250144
Si Si2 0.220920 0.896543 0.613322
Si Si3 0.100579 0.341215 0.318500
Si Si4 0.860365 0.167773 0.628322
Si Si5 0.748764 0.763640 0.665753
Si Si6 0.543187 0.697672 0.433983
O O1 0.258818 0.922615 0.438310
O O2 0.340611 0.914662 0.159885
O O3 0.163953 0.914460 0.166714
O O4 0.237355 0.036346 0.265508
O O5 0.263564 0.826415 0.699561
O O6 0.116968 0.867387 0.582450
O O7 0.164921 0.290593 0.202165
O O8 0.080101 0.280598 0.456858
O O9 0.000000 0.361142 0.250000
O O10 0.783192 0.196906 0.498153
O O11 0.837003 0.210979 0.794760
O O12 0.960635 0.180340 0.557054
O O13 0.500000 0.700861 0.250000
#
# Coordination Sequence:
#
# PCOD9317140 Si02
#       6
#     8   8   8   8   8   8
#     4  10  23  37  58  92 128 173 212 263 334 396
#     4  10  21  40  55  88 128 170 212 259 325 394
#     4   9  16  34  62  89 112 163 214 269 314 379
#     4  11  20  37  62  99 124 173 217 271 327 387
#     4  10  19  34  62  88 124 159 217 262 323 382
#     4  10  19  38  60  95 120 167 217 271 323 381
#
# _framework density 21.946186999999998
#
# number of rings (size 3 to 8) (size 9 to 14) (size 15 to 20)
#    0.000    2.000    5.000    2.000    0.000    1.333 
#    6.000    0.000    0.000    8.000   13.000    0.000 
#    0.000    0.000    0.000    0.000    0.000    0.000 
#
# Total GULP energy -133703.944833 kJ/mol
# GULP energy per Si atom -5570.997701 kJ/mol
# Density = 2.189624 g / cm^3
# Si number density = 21.946187 Si / 1000 Ang^3
#
#
#
# Elastic Constant Matrix: (Units=GPa)
#
#
# Indices 1 2 3 4 5 6 
#
# 1 108.9767 64.1144 2.2987 0.0000 0.0000 0.0000
# 2 64.1144 154.4264 4.2202 0.0000 0.0000 0.0000
# 3 2.2987 4.2202 37.4842 0.0000 0.0000 0.0000
# 4 0.0000 0.0000 0.0000 41.0533 0.0000 0.0000
# 5 0.0000 0.0000 0.0000 0.0000 32.7244 0.0000
# 6 0.0000 0.0000 0.0000 0.0000 0.0000 18.1301
#
#
#
# Elastic Compliance Matrix: (Units=1/GPa)
#
#
# Indices 1 2 3 4 5 6 
#
# 1 0.012143 -0.005037 -0.000178 0.000000 0.000000 0.000000
# 2 -0.005037 0.008585 -0.000658 0.000000 0.000000 0.000000
# 3 -0.000178 -0.000658 0.026763 0.000000 0.000000 0.000000
# 4 0.000000 0.000000 0.000000 0.024359 0.000000 0.000000
# 5 0.000000 0.000000 0.000000 0.000000 0.030558 0.000000
# 6 0.000000 0.000000 0.000000 0.000000 0.000000 0.055157
#
#
# Mechanical properties :
#
#
# Convention : Reuss Voigt Hill
#
# Bulk Modulus (GPa) = 27.97455 49.12821 38.55138
# Shear Modulus (GPa) = 27.59015 33.73184 30.66100
#
# Velocity S-wave (km/s) = 3.54951 3.92474 3.74183
# Velocity P-wave (km/s) = 5.43813 6.55534 6.02270
#
# Compressibility (1/GPa) = 0.03574678
#
# Stress axis : x y z
#
# Youngs Moduli (GPa) = 82.34989 116.48628 37.36528
#
# Poissons Ratio (x) = 0.58672 0.00664
# Poissons Ratio (y) = 0.41478 0.02457
# Poissons Ratio (z) = 0.01463 0.07661
#
# Static dielectric constant tensor:
#      x y z
#    x 1.893430 0.000000 0.000000 
#    y 0.000000 1.784770 0.000000 
#    z 0.000000 0.000000 1.933850 
# 
# From -- ./inp_files/8422.got.cif
#   From: 2010.05.17/outbox.cif.g08.bks.cpg/sg20_5_cif.got.tgz:8422.got - 2010.06.03 22:52:26.
