data_PCOD9317584
_publ_section_title
;
Structure prediction by ZEFSAII (Michael W. Deem and Ramdas Pophale) SiO2 
 PCOD9317584
Probable space group: C 2 2 21
;
_chemical_formula_sum "Si O2"
_cell_formula_units_Z 32
_cell_length_a 18.593431
_cell_length_b 17.678183
_cell_length_c 5.139058
_cell_angle_alpha 90.000000
_cell_angle_beta 90.000000
_cell_angle_gamma 90.000000
_cell_volume 1689.198476
_symmetry_space_group_name_H-M "C 2 2 21"
_symmetry_group_IT_number 20
_symmetry_cell_setting 'orthorhombic'
loop_
_space_group_symop_operation_xyz
x,y,z
-x,-y,1/2+z
x,-y,-z
-x,y,1/2-z
1/2+x,1/2+y,z
1/2-x,1/2-y,1/2+z
1/2+x,1/2-y,-z
1/2-x,1/2+y,1/2-z
loop_
_atom_site_type_symbol
_atom_site_label
_atom_site_fract_x
_atom_site_fract_y
_atom_site_fract_z
Si Si1 0.184880 0.321860 0.466860
Si Si2 0.550716 0.415045 0.999524
Si Si3 0.215904 0.589720 0.015770
Si Si4 0.666493 0.317958 0.255652
O O1 0.194875 0.380546 0.701465
O O2 0.264746 0.288113 0.407166
O O3 0.139099 0.250979 0.567461
O O4 0.167842 0.367422 0.204015
O O5 0.500000 0.412714 0.250000
O O6 0.611084 0.353431 0.055443
O O7 0.583092 0.500000 0.000000
O O8 0.500000 0.404016 0.750000
O O9 0.210771 0.500000 0.000000
O O10 0.296731 0.617271 0.935454
#
# Coordination Sequence:
#
# PCOD9317584 Si02
#       4
#     8   8   8   8
#     4  10  20  33  50  79 100 145 185 233 290 342
#     4  10  24  37  51  77 110 155 203 236 261 321
#     4  10  20  30  49  78 105 136 179 224 291 343
#     4  10  21  34  55  71 112 143 193 236 287 327
#
# _framework density 18.943895000000001
#
# number of rings (size 3 to 8) (size 9 to 14) (size 15 to 20)
#    1.500    0.500    2.500    0.750    7.000    1.000 
#    0.000    0.000    0.000    0.000    0.000    0.000 
#    0.000    6.000    0.000    3.500    0.000    1.500 
#
# Total GULP energy -89118.616918 kJ/mol
# GULP energy per Si atom -5569.913557 kJ/mol
# Density = 1.890078 g / cm^3
# Si number density = 18.943895 Si / 1000 Ang^3
#
#
#
# Elastic Constant Matrix: (Units=GPa)
#
#
# Indices 1 2 3 4 5 6 
#
# 1 12.3685 8.0327 -3.4184 0.0000 0.0000 0.0000
# 2 8.0327 99.0481 22.4262 0.0000 0.0000 0.0000
# 3 -3.4184 22.4262 112.7437 0.0000 0.0000 0.0000
# 4 0.0000 0.0000 0.0000 36.9998 0.0000 0.0000
# 5 0.0000 0.0000 0.0000 0.0000 9.2600 0.0000
# 6 0.0000 0.0000 0.0000 0.0000 0.0000 14.8761
#
#
#
# Elastic Compliance Matrix: (Units=1/GPa)
#
#
# Indices 1 2 3 4 5 6 
#
# 1 0.087243 -0.008036 0.004244 0.000000 0.000000 0.000000
# 2 -0.008036 0.011312 -0.002494 0.000000 0.000000 0.000000
# 3 0.004244 -0.002494 0.009494 0.000000 0.000000 0.000000
# 4 0.000000 0.000000 0.000000 0.027027 0.000000 0.000000
# 5 0.000000 0.000000 0.000000 0.000000 0.107991 0.000000
# 6 0.000000 0.000000 0.000000 0.000000 0.000000 0.067222
#
#
# Mechanical properties :
#
#
# Convention : Reuss Voigt Hill
#
# Bulk Modulus (GPa) = 10.47375 30.91570 20.69472
# Shear Modulus (GPa) = 14.09689 25.36850 19.73270
#
# Velocity S-wave (km/s) = 2.73085 3.66339 3.23094
# Velocity P-wave (km/s) = 3.93500 5.85226 4.98664
#
# Compressibility (1/GPa) = 0.09547680
#
# Stress axis : x y z
#
# Youngs Moduli (GPa) = 11.46230 88.39798 105.32518
#
# Poissons Ratio (x) = 0.71038 -0.44697
# Poissons Ratio (y) = 0.09211 0.26267
# Poissons Ratio (z) = -0.04864 0.22045
#
# Static dielectric constant tensor:
#      x y z
#    x 1.646740 0.000000 0.000000 
#    y 0.000000 1.711240 0.000000 
#    z 0.000000 0.000000 1.705150 
# 
# From -- ./inp_files/3084.got.cif
#   From: 2010.05.17/outbox.cif.g08.bks.cpg/sg20_2_cif.got.tgz:3084.got - 2010.06.03 22:52:26.
