data_PCOD9317903
_publ_section_title
;
Structure prediction by ZEFSAII (Michael W. Deem and Ramdas Pophale) SiO2 
 PCOD9317903
Probable space group: C 2 2 21
;
_chemical_formula_sum "Si O2"
_cell_formula_units_Z 48
_cell_length_a 14.500798
_cell_length_b 8.182421
_cell_length_c 19.887769
_cell_angle_alpha 90.000000
_cell_angle_beta 90.000000
_cell_angle_gamma 90.000000
_cell_volume 2359.716290
_symmetry_space_group_name_H-M "C 2 2 21"
_symmetry_group_IT_number 20
_symmetry_cell_setting 'orthorhombic'
loop_
_space_group_symop_operation_xyz
x,y,z
-x,-y,1/2+z
x,-y,-z
-x,y,1/2-z
1/2+x,1/2+y,z
1/2-x,1/2-y,1/2+z
1/2+x,1/2-y,-z
1/2-x,1/2+y,1/2-z
loop_
_atom_site_type_symbol
_atom_site_label
_atom_site_fract_x
_atom_site_fract_y
_atom_site_fract_z
Si Si1 0.232396 0.907602 0.094972
Si Si2 0.718539 0.760636 0.545770
Si Si3 0.696151 0.196734 0.222519
Si Si4 0.425830 0.500000 0.000000
Si Si5 0.538401 0.415476 0.873336
Si Si6 0.000000 0.868431 0.250000
Si Si7 0.670249 0.834267 0.169489
O O1 0.242695 0.795040 0.160235
O O2 0.299458 0.062705 0.081047
O O3 0.132787 0.991446 0.105477
O O4 0.237945 0.802644 0.026819
O O5 0.633642 0.641675 0.534693
O O6 0.787439 0.666299 0.594977
O O7 0.595685 0.271246 0.240008
O O8 0.766533 0.216168 0.284275
O O9 0.678887 0.011227 0.201404
O O10 0.482058 0.409735 0.941551
O O11 0.488736 0.520592 0.816183
O O12 0.570193 0.245744 0.839896
#
# Coordination Sequence:
#
# PCOD9317903 Si02
#       7
#     8   8   8   4   8   4   8
#     4   9  20  41  62  85 119 160 201 247 296 362
#     4  10  20  36  61  88 117 154 204 245 292 352
#     4  11  22  39  65  90 119 158 202 248 300 358
#     4  12  22  36  62  92 122 158 198 254 302 344
#     4  10  22  39  59  84 124 161 195 245 301 353
#     4  10  22  40  58  90 126 156 196 250 300 346
#     4  11  22  40  63  87 117 161 203 241 296 369
#
# _framework density 20.341429999999999
#
# number of rings (size 3 to 8) (size 9 to 14) (size 15 to 20)
#    0.000    1.667    0.000    7.000    0.000    2.000 
#    0.000   11.667    0.000    2.000    0.000    0.000 
#    0.000    0.000    0.000    0.000    0.000    0.000 
#
# Total GULP energy -133997.057660 kJ/mol
# GULP energy per Si atom -5583.210736 kJ/mol
# Density = 2.029513 g / cm^3
# Si number density = 20.341430 Si / 1000 Ang^3
#
#
#
# Elastic Constant Matrix: (Units=GPa)
#
#
# Indices 1 2 3 4 5 6 
#
# 1 42.0634 46.7627 39.5219 0.0000 0.0000 0.0000
# 2 46.7627 120.5313 49.9965 0.0000 0.0000 0.0000
# 3 39.5219 49.9965 122.1023 0.0000 0.0000 0.0000
# 4 0.0000 0.0000 0.0000 40.2986 0.0000 0.0000
# 5 0.0000 0.0000 0.0000 0.0000 33.8685 0.0000
# 6 0.0000 0.0000 0.0000 0.0000 0.0000 -4.4917
#
#
#
# Elastic Compliance Matrix: (Units=1/GPa)
#
#
# Indices 1 2 3 4 5 6 
#
# 1 0.050188 -0.015338 -0.009964 0.000000 0.000000 0.000000
# 2 -0.015338 0.014682 -0.001047 0.000000 0.000000 0.000000
# 3 -0.009964 -0.001047 0.011844 0.000000 0.000000 0.000000
# 4 0.000000 0.000000 0.000000 0.024815 0.000000 0.000000
# 5 0.000000 0.000000 0.000000 0.000000 0.029526 0.000000
# 6 0.000000 0.000000 0.000000 0.000000 0.000000 -0.222633
#
#
# Mechanical properties :
#
#
# Convention : Reuss Voigt Hill
#
# Bulk Modulus (GPa) = 41.64189 61.91770 51.77980
# Shear Modulus (GPa) = -161.93958 23.82947 -69.05505
#
# Velocity S-wave (km/s) = -8.93216 3.42639 -5.83281
# Velocity P-wave (km/s) = 9.26618 6.79403 4.45552
#
# Compressibility (1/GPa) = 0.02401428
#
# Stress axis : x y z
#
# Youngs Moduli (GPa) = 19.92519 68.11208 84.43267
#
# Poissons Ratio (x) = 1.04472 0.84131
# Poissons Ratio (y) = 0.30562 0.08840
# Poissons Ratio (z) = 0.19854 0.07131
#
# Static dielectric constant tensor:
#      x y z
#    x 1.707830 0.000000 0.000000 
#    y 0.000000 1.751980 0.000000 
#    z 0.000000 0.000000 1.717670 
# 
# From -- ./inp_files/24847.got.cif
#   From: 2010.05.17/outbox.cif.g08.bks.cpg/sg20_13_cif.got.tgz:24847.got - 2010.06.03 22:52:26.
