data_PCOD9317876
_publ_section_title
;
Structure prediction by ZEFSAII (Michael W. Deem and Ramdas Pophale) SiO2 
 PCOD9317876
Probable space group: C 2 2 21
;
_chemical_formula_sum "Si O2"
_cell_formula_units_Z 32
_cell_length_a 23.951876
_cell_length_b 7.678125
_cell_length_c 6.642968
_cell_angle_alpha 90.000000
_cell_angle_beta 90.000000
_cell_angle_gamma 90.000000
_cell_volume 1221.678338
_symmetry_space_group_name_H-M "C 2 2 21"
_symmetry_group_IT_number 20
_symmetry_cell_setting 'orthorhombic'
loop_
_space_group_symop_operation_xyz
x,y,z
-x,-y,1/2+z
x,-y,-z
-x,y,1/2-z
1/2+x,1/2+y,z
1/2-x,1/2-y,1/2+z
1/2+x,1/2-y,-z
1/2-x,1/2+y,1/2-z
loop_
_atom_site_type_symbol
_atom_site_label
_atom_site_fract_x
_atom_site_fract_y
_atom_site_fract_z
Si Si1 0.564073 0.130570 0.257602
Si Si2 0.741477 0.000000 0.000000
Si Si3 0.182533 0.729687 0.294672
Si Si4 0.438300 0.739843 0.305444
Si Si5 0.642505 0.500000 0.000000
O O1 0.500000 0.195668 0.250000
O O2 0.618446 0.208760 0.365275
O O3 0.561610 0.925223 0.308466
O O4 0.575735 0.181314 0.025779
O O5 0.780299 0.833368 0.047003
O O6 0.705140 0.049625 0.198107
O O7 0.180049 0.855035 0.100472
O O8 0.500000 0.669350 0.250000
O O9 0.395493 0.580081 0.318894
#
# Coordination Sequence:
#
# PCOD9317876 Si02
#       5
#     8   4   8   8   4
#     4   9  19  38  62  90 124 163 211 268 331 398
#     4  12  26  46  71  96 133 178 228 280 334 402
#     4  11  24  43  67  95 130 174 225 279 337 398
#     4   9  18  33  56  86 126 168 204 256 327 393
#     4  10  20  36  59  90 129 168 222 282 324 388
#
# _framework density 26.193473000000001
#
# number of rings (size 3 to 8) (size 9 to 14) (size 15 to 20)
#    0.000    2.000    0.000    4.500    0.000    6.000 
#    0.000    8.750    0.000    0.000    0.000    0.000 
#    0.000    0.000    0.000    0.000    0.000    0.000 
#
# Total GULP energy -89164.260238 kJ/mol
# GULP energy per Si atom -5572.766265 kJ/mol
# Density = 2.613386 g / cm^3
# Si number density = 26.193473 Si / 1000 Ang^3
#
#
#
# Elastic Constant Matrix: (Units=GPa)
#
#
# Indices 1 2 3 4 5 6 
#
# 1 149.9139 53.0819 22.2947 0.0000 0.0000 0.0000
# 2 53.0819 88.8263 2.2397 0.0000 0.0000 0.0000
# 3 22.2947 2.2397 37.2270 0.0000 0.0000 0.0000
# 4 0.0000 0.0000 0.0000 45.3646 0.0000 0.0000
# 5 0.0000 0.0000 0.0000 0.0000 37.8392 0.0000
# 6 0.0000 0.0000 0.0000 0.0000 0.0000 51.8791
#
#
#
# Elastic Compliance Matrix: (Units=1/GPa)
#
#
# Indices 1 2 3 4 5 6 
#
# 1 0.009400 -0.005484 -0.005300 0.000000 0.000000 0.000000
# 2 -0.005484 0.014474 0.002413 0.000000 0.000000 0.000000
# 3 -0.005300 0.002413 0.029891 0.000000 0.000000 0.000000
# 4 0.000000 0.000000 0.000000 0.022044 0.000000 0.000000
# 5 0.000000 0.000000 0.000000 0.000000 0.026428 0.000000
# 6 0.000000 0.000000 0.000000 0.000000 0.000000 0.019276
#
#
# Mechanical properties :
#
#
# Convention : Reuss Voigt Hill
#
# Bulk Modulus (GPa) = 27.00879 47.91109 37.45994
# Shear Modulus (GPa) = 33.20161 40.23997 36.72079
#
# Velocity S-wave (km/s) = 3.56413 3.92377 3.74827
# Velocity P-wave (km/s) = 5.22217 6.23369 5.75021
#
# Compressibility (1/GPa) = 0.03702498
#
# Stress axis : x y z
#
# Youngs Moduli (GPa) = 106.37766 69.08810 33.45483
#
# Poissons Ratio (x) = 0.37888 0.17731
# Poissons Ratio (y) = 0.58338 -0.08074
# Poissons Ratio (z) = 0.56379 -0.16674
#
# Static dielectric constant tensor:
#      x y z
#    x 2.221350 0.000000 0.000000 
#    y 0.000000 2.203990 0.000000 
#    z 0.000000 0.000000 2.146070 
# 
# From -- ./inp_files/5836.got.cif
#   From: 2010.05.17/outbox.cif.g08.bks.cpg/sg20_3_cif.got.tgz:5836.got - 2010.06.03 22:52:26.
