data_PCOD9317435
_publ_section_title
;
Structure prediction by ZEFSAII (Michael W. Deem and Ramdas Pophale) SiO2 
 PCOD9317435
Probable space group: C 2 2 21
;
_chemical_formula_sum "Si O2"
_cell_formula_units_Z 40
_cell_length_a 8.699933
_cell_length_b 16.895548
_cell_length_c 12.069643
_cell_angle_alpha 90.000000
_cell_angle_beta 90.000000
_cell_angle_gamma 90.000000
_cell_volume 1774.118461
_symmetry_space_group_name_H-M "C 2 2 21"
_symmetry_group_IT_number 20
_symmetry_cell_setting 'orthorhombic'
loop_
_space_group_symop_operation_xyz
x,y,z
-x,-y,1/2+z
x,-y,-z
-x,y,1/2-z
1/2+x,1/2+y,z
1/2-x,1/2-y,1/2+z
1/2+x,1/2-y,-z
1/2-x,1/2+y,1/2-z
loop_
_atom_site_type_symbol
_atom_site_label
_atom_site_fract_x
_atom_site_fract_y
_atom_site_fract_z
Si Si1 0.307770 0.945005 0.831363
Si Si2 0.334983 0.289696 0.908643
Si Si3 0.500000 0.834512 0.250000
Si Si4 0.907116 0.524756 0.615612
Si Si5 0.022705 0.279766 0.623259
Si Si6 0.500000 0.585744 0.250000
O O1 0.354671 0.960208 0.703980
O O2 0.408392 0.011846 0.890475
O O3 0.368345 0.858676 0.869399
O O4 0.126366 0.957066 0.825918
O O5 0.392918 0.215967 0.832207
O O6 0.151430 0.296692 0.915620
O O7 0.407834 0.360389 0.837464
O O8 0.402998 0.277113 0.031429
O O9 0.606382 0.890003 0.171291
O O10 0.836593 0.500000 0.500000
O O11 0.000000 0.250805 0.750000
#
# Coordination Sequence:
#
# PCOD9317435 Si02
#       6
#     8   8   4   8   8   4
#     4  10  20  38  62  86 114 160 207 249 294 373
#     4  11  23  36  61  89 128 161 201 252 304 377
#     4   9  22  34  58  88 120 163 204 250 310 359
#     4  10  19  38  62  82 116 161 206 253 303 362
#     4  12  22  40  61  93 122 165 203 246 313 367
#     4  11  20  40  62  92 122 163 202 250 314 359
#
# _framework density 22.546408
#
# number of rings (size 3 to 8) (size 9 to 14) (size 15 to 20)
#    0.000    1.600    4.000    2.400    2.800    0.000 
#    0.000    1.000    8.800    0.000    0.000    0.000 
#    0.000    0.000    0.000    0.000    0.000    0.000 
#
# Total GULP energy -111500.665937 kJ/mol
# GULP energy per Si atom -5575.033297 kJ/mol
# Density = 2.249509 g / cm^3
# Si number density = 22.546408 Si / 1000 Ang^3
#
#
#
# Elastic Constant Matrix: (Units=GPa)
#
#
# Indices 1 2 3 4 5 6 
#
# 1 119.9766 -4.2422 0.1611 0.0000 0.0000 0.0000
# 2 -4.2422 34.5000 -2.7353 0.0000 0.0000 0.0000
# 3 0.1611 -2.7353 117.9927 0.0000 0.0000 0.0000
# 4 0.0000 0.0000 0.0000 11.2617 0.0000 0.0000
# 5 0.0000 0.0000 0.0000 0.0000 27.8654 0.0000
# 6 0.0000 0.0000 0.0000 0.0000 0.0000 7.4268
#
#
#
# Elastic Compliance Matrix: (Units=1/GPa)
#
#
# Indices 1 2 3 4 5 6 
#
# 1 0.008371 0.001030 0.000012 0.000000 0.000000 0.000000
# 2 0.001030 0.029166 0.000675 0.000000 0.000000 0.000000
# 3 0.000012 0.000675 0.008491 0.000000 0.000000 0.000000
# 4 0.000000 0.000000 0.000000 0.088796 0.000000 0.000000
# 5 0.000000 0.000000 0.000000 0.000000 0.035887 0.000000
# 6 0.000000 0.000000 0.000000 0.000000 0.000000 0.134648
#
#
# Mechanical properties :
#
#
# Convention : Reuss Voigt Hill
#
# Bulk Modulus (GPa) = 20.21721 28.75961 24.48841
# Shear Modulus (GPa) = 15.70293 27.92982 21.81638
#
# Velocity S-wave (km/s) = 2.64194 3.52344 3.11404
# Velocity P-wave (km/s) = 4.27701 5.41629 4.88001
#
# Compressibility (1/GPa) = 0.04946281
#
# Stress axis : x y z
#
# Youngs Moduli (GPa) = 119.45476 34.28688 117.77553
#
# Poissons Ratio (x) = -0.03533 -0.00147
# Poissons Ratio (y) = -0.12308 -0.07947
# Poissons Ratio (z) = -0.00149 -0.02313
#
# Static dielectric constant tensor:
#      x y z
#    x 1.981660 0.000000 0.000000 
#    y 0.000000 1.859650 0.000000 
#    z 0.000000 0.000000 1.902330 
# 
# From -- ./inp_files/12749.got.cif
#   From: 2010.05.17/outbox.cif.g08.bks.cpg/sg20_7_cif.got.tgz:12749.got - 2010.06.03 22:52:26.
