data_PCOD9317758
_publ_section_title
;
Structure prediction by ZEFSAII (Michael W. Deem and Ramdas Pophale) SiO2 
 PCOD9317758
Probable space group: C 2 2 21
;
_chemical_formula_sum "Si O2"
_cell_formula_units_Z 64
_cell_length_a 28.174712
_cell_length_b 5.941065
_cell_length_c 22.018132
_cell_angle_alpha 90.000000
_cell_angle_beta 90.000000
_cell_angle_gamma 90.000000
_cell_volume 3685.566573
_symmetry_space_group_name_H-M "C 2 2 21"
_symmetry_group_IT_number 20
_symmetry_cell_setting 'orthorhombic'
loop_
_space_group_symop_operation_xyz
x,y,z
-x,-y,1/2+z
x,-y,-z
-x,y,1/2-z
1/2+x,1/2+y,z
1/2-x,1/2-y,1/2+z
1/2+x,1/2-y,-z
1/2-x,1/2+y,1/2-z
loop_
_atom_site_type_symbol
_atom_site_label
_atom_site_fract_x
_atom_site_fract_y
_atom_site_fract_z
Si Si1 0.348945 0.710693 0.172304
Si Si2 0.977110 0.203294 0.844829
Si Si3 0.557307 0.347011 0.839486
Si Si4 0.750120 0.375612 0.216258
Si Si5 0.995637 0.593016 0.565517
Si Si6 0.854095 0.899852 0.290467
Si Si7 0.587335 0.592720 0.432569
Si Si8 0.082311 0.480657 0.747183
O O1 0.298066 0.830540 0.178709
O O2 0.349611 0.506279 0.221937
O O3 0.365085 0.653331 0.104326
O O4 0.390261 0.872266 0.197464
O O5 0.950858 0.309638 0.787998
O O6 0.000406 0.392123 0.886755
O O7 0.938585 0.084310 0.888114
O O8 0.017033 0.028310 0.825316
O O9 0.543103 0.261971 0.906307
O O10 0.609322 0.449488 0.828763
O O11 0.554405 0.144638 0.791587
O O12 0.754740 0.630740 0.246555
O O13 0.698962 0.391019 0.184199
O O14 0.982920 0.500000 0.500000
O O15 0.047433 0.711405 0.562201
O O16 0.878209 0.657498 0.284112
O O17 0.595751 0.500000 0.500000
#
# Coordination Sequence:
#
# PCOD9317758 Si02
#       8
#     8   8   8   8   8   8   8   8
#     4  10  20  35  56  88 117 155 196 244 307 372
#     4  11  22  37  53  81 119 157 197 241 297 360
#     4  10  25  35  52  85 116 158 201 244 303 356
#     4  10  20  36  61  89 123 158 197 247 306 377
#     4  11  22  38  56  77 115 160 205 246 289 358
#     4  10  20  36  55  82 123 151 195 248 305 367
#     4  11  21  36  56  83 118 154 202 246 296 361
#     4  11  20  37  54  79 126 152 195 237 306 368
#
# _framework density 17.365036
#
# number of rings (size 3 to 8) (size 9 to 14) (size 15 to 20)
#    0.000    1.500    5.000    0.750    0.000    3.000 
#    0.000    0.000    0.000    0.000    0.000    5.250 
#    3.750    0.000    0.000    0.000    0.000    0.000 
#
# Total GULP energy -178445.152671 kJ/mol
# GULP energy per Si atom -5576.411021 kJ/mol
# Density = 1.732551 g / cm^3
# Si number density = 17.365036 Si / 1000 Ang^3
#
#
#
# Elastic Constant Matrix: (Units=GPa)
#
#
# Indices 1 2 3 4 5 6 
#
# 1 105.4237 23.2545 59.1707 0.0000 0.0000 0.0000
# 2 23.2545 68.4763 28.0550 0.0000 0.0000 0.0000
# 3 59.1707 28.0550 88.2848 0.0000 0.0000 0.0000
# 4 0.0000 0.0000 0.0000 28.4243 0.0000 0.0000
# 5 0.0000 0.0000 0.0000 0.0000 4.4842 0.0000
# 6 0.0000 0.0000 0.0000 0.0000 0.0000 21.0973
#
#
#
# Elastic Compliance Matrix: (Units=1/GPa)
#
#
# Indices 1 2 3 4 5 6 
#
# 1 0.015283 -0.001142 -0.009880 0.000000 0.000000 0.000000
# 2 -0.001142 0.016875 -0.004597 0.000000 0.000000 0.000000
# 3 -0.009880 -0.004597 0.019410 0.000000 0.000000 0.000000
# 4 0.000000 0.000000 0.000000 0.035181 0.000000 0.000000
# 5 0.000000 0.000000 0.000000 0.000000 0.223007 0.000000
# 6 0.000000 0.000000 0.000000 0.000000 0.000000 0.047399
#
#
# Mechanical properties :
#
#
# Convention : Reuss Voigt Hill
#
# Bulk Modulus (GPa) = 49.19061 53.68279 51.43670
# Shear Modulus (GPa) = 12.65281 20.91480 16.78381
#
# Velocity S-wave (km/s) = 2.70226 3.47424 3.11228
# Velocity P-wave (km/s) = 6.17456 6.86114 6.52688
#
# Compressibility (1/GPa) = 0.02032909
#
# Stress axis : x y z
#
# Youngs Moduli (GPa) = 65.43338 59.25971 51.52101
#
# Poissons Ratio (x) = 0.06768 0.50902
# Poissons Ratio (y) = 0.07474 0.23684
# Poissons Ratio (z) = 0.64648 0.27241
#
# Static dielectric constant tensor:
#      x y z
#    x 1.594550 0.000000 0.000000 
#    y 0.000000 1.671210 0.000000 
#    z 0.000000 0.000000 1.578110 
# 
# From -- ./inp_files/26283.got.cif
#   From: 2010.05.17/outbox.cif.g08.bks.cpg/sg20_14_cif.got.tgz:26283.got - 2010.06.03 22:52:26.
