data_PCOD9317787
_publ_section_title
;
Structure prediction by ZEFSAII (Michael W. Deem and Ramdas Pophale) SiO2 
 PCOD9317787
Probable space group: C 2 2 21
;
_chemical_formula_sum "Si O2"
_cell_formula_units_Z 48
_cell_length_a 7.942389
_cell_length_b 19.500495
_cell_length_c 12.892741
_cell_angle_alpha 90.000000
_cell_angle_beta 90.000000
_cell_angle_gamma 90.000000
_cell_volume 1996.834391
_symmetry_space_group_name_H-M "C 2 2 21"
_symmetry_group_IT_number 20
_symmetry_cell_setting 'orthorhombic'
loop_
_space_group_symop_operation_xyz
x,y,z
-x,-y,1/2+z
x,-y,-z
-x,y,1/2-z
1/2+x,1/2+y,z
1/2-x,1/2-y,1/2+z
1/2+x,1/2-y,-z
1/2-x,1/2+y,1/2-z
loop_
_atom_site_type_symbol
_atom_site_label
_atom_site_fract_x
_atom_site_fract_y
_atom_site_fract_z
Si Si1 0.337665 0.672213 0.679771
Si Si2 0.669346 0.744436 0.162394
Si Si3 0.594664 0.579924 0.008126
Si Si4 0.204222 0.575158 0.052122
Si Si5 0.507696 0.214951 0.035415
Si Si6 0.314991 0.596474 0.268983
O O1 0.500000 0.654828 0.750000
O O2 0.198309 0.689953 0.765162
O O3 0.323704 0.614852 0.591871
O O4 0.377892 0.740829 0.614394
O O5 0.521964 0.754115 0.079844
O O6 0.671832 0.770270 0.586973
O O7 0.669595 0.678584 0.236624
O O8 0.396918 0.601503 0.024812
O O9 0.711434 0.588364 0.109156
O O10 0.577882 0.500000 0.000000
O O11 0.199960 0.568711 0.177801
O O12 0.177128 0.500000 0.000000
O O13 0.077066 0.637301 0.026755
O O14 0.500000 0.564990 0.250000
#
# Coordination Sequence:
#
# PCOD9317787 Si02
#       6
#     8   8   8   8   8   8
#     4  10  20  35  60  93 125 167 213 266 332 385
#     4  11  23  38  65  98 130 175 221 277 330 394
#     4  10  21  38  61  93 130 169 217 279 335 402
#     4  10  21  38  62  94 130 173 218 268 334 400
#     4  11  22  38  63  95 128 173 220 275 328 391
#     4  10  21  37  62  95 129 169 214 272 333 398
#
# _framework density 24.038048
#
# number of rings (size 3 to 8) (size 9 to 14) (size 15 to 20)
#    0.000    1.667    3.333    2.000    2.333    4.667 
#    0.000    0.833    0.000    0.000    4.333    0.000 
#    0.000    0.000    0.000    0.000    0.000    0.000 
#
# Total GULP energy -133986.527863 kJ/mol
# GULP energy per Si atom -5582.771994 kJ/mol
# Density = 2.398334 g / cm^3
# Si number density = 24.038048 Si / 1000 Ang^3
#
#
#
# Elastic Constant Matrix: (Units=GPa)
#
#
# Indices 1 2 3 4 5 6 
#
# 1 70.6353 29.4820 43.8677 0.0000 0.0000 0.0000
# 2 29.4820 119.3269 62.6092 0.0000 0.0000 0.0000
# 3 43.8677 62.6092 194.3316 0.0000 0.0000 0.0000
# 4 0.0000 0.0000 0.0000 34.5667 0.0000 0.0000
# 5 0.0000 0.0000 0.0000 0.0000 35.7230 0.0000
# 6 0.0000 0.0000 0.0000 0.0000 0.0000 30.2372
#
#
#
# Elastic Compliance Matrix: (Units=1/GPa)
#
#
# Indices 1 2 3 4 5 6 
#
# 1 0.017136 -0.002653 -0.003014 0.000000 0.000000 0.000000
# 2 -0.002653 0.010496 -0.002783 0.000000 0.000000 0.000000
# 3 -0.003014 -0.002783 0.006723 0.000000 0.000000 0.000000
# 4 0.000000 0.000000 0.000000 0.028930 0.000000 0.000000
# 5 0.000000 0.000000 0.000000 0.000000 0.027993 0.000000
# 6 0.000000 0.000000 0.000000 0.000000 0.000000 0.033072
#
#
# Mechanical properties :
#
#
# Convention : Reuss Voigt Hill
#
# Bulk Modulus (GPa) = 57.28499 72.91242 65.09871
# Shear Modulus (GPa) = 33.99845 36.66105 35.32975
#
# Velocity S-wave (km/s) = 3.76488 3.90952 3.83788
# Velocity P-wave (km/s) = 6.54078 7.12581 6.83955
#
# Compressibility (1/GPa) = 0.01745658
#
# Stress axis : x y z
#
# Youngs Moduli (GPa) = 58.35684 95.27659 148.75084
#
# Poissons Ratio (x) = 0.25273 0.44828
# Poissons Ratio (y) = 0.15480 0.41393
# Poissons Ratio (z) = 0.17586 0.26513
#
# Static dielectric constant tensor:
#      x y z
#    x 2.054550 0.000000 0.000000 
#    y 0.000000 1.976740 0.000000 
#    z 0.000000 0.000000 1.901830 
# 
# From -- ./inp_files/15206.got.cif
#   From: 2010.05.17/outbox.cif.g08.bks.cpg/sg20_8_cif.got.tgz:15206.got - 2010.06.03 22:52:26.
