data_PCOD9317003
_publ_section_title
;
Structure prediction by ZEFSAII (Michael W. Deem and Ramdas Pophale) SiO2 
 PCOD9317003
Probable space group: C 2 2 21
;
_chemical_formula_sum "Si O2"
_cell_formula_units_Z 40
_cell_length_a 26.709531
_cell_length_b 14.316778
_cell_length_c 4.977862
_cell_angle_alpha 90.000000
_cell_angle_beta 90.000000
_cell_angle_gamma 90.000000
_cell_volume 1903.506681
_symmetry_space_group_name_H-M "C 2 2 21"
_symmetry_group_IT_number 20
_symmetry_cell_setting 'orthorhombic'
loop_
_space_group_symop_operation_xyz
x,y,z
-x,-y,1/2+z
x,-y,-z
-x,y,1/2-z
1/2+x,1/2+y,z
1/2-x,1/2-y,1/2+z
1/2+x,1/2-y,-z
1/2-x,1/2+y,1/2-z
loop_
_atom_site_type_symbol
_atom_site_label
_atom_site_fract_x
_atom_site_fract_y
_atom_site_fract_z
Si Si1 0.108033 0.756628 0.684095
Si Si2 0.000000 0.747908 0.750000
Si Si3 0.000000 0.113191 0.750000
Si Si4 0.722570 0.201733 0.683783
Si Si5 0.895219 0.120004 0.688750
Si Si6 0.754364 0.000000 0.500000
Si Si7 0.184898 0.000000 0.500000
O O1 0.163078 0.715631 0.725662
O O2 0.103091 0.787555 0.374162
O O3 0.055668 0.702287 0.749138
O O4 0.108213 0.847633 0.881662
O O5 0.999695 0.817902 0.500725
O O6 0.053269 0.063630 0.760376
O O7 0.744444 0.261034 0.432988
O O8 0.728948 0.091270 0.627662
O O9 0.849277 0.066236 0.816648
O O10 0.782794 0.955924 0.760078
#
# Coordination Sequence:
#
# PCOD9317003 Si02
#       7
#     8   4   4   8   8   4   4
#     4  10  19  35  56  80 107 143 190 233 285 341
#     4   8  16  30  53  78 103 136 182 236 278 336
#     4   8  16  30  47  74 107 138 184 232 270 326
#     4  12  24  40  62  87 120 157 194 239 293 348
#     4  10  19  33  53  77 108 147 188 230 279 339
#     4  12  26  40  57  88 117 148 198 244 286 344
#     4  12  22  36  53  74 115 154 188 234 284 338
#
# _framework density 21.013847999999999
#
# number of rings (size 3 to 8) (size 9 to 14) (size 15 to 20)
#    0.000    1.600    0.000    7.200    0.000    0.000 
#    0.000    7.000    0.000    0.000    0.000   12.600 
#    0.000    0.000    0.000    0.000    0.000    0.000 
#
# Total GULP energy -111453.613008 kJ/mol
# GULP energy per Si atom -5572.680650 kJ/mol
# Density = 2.096602 g / cm^3
# Si number density = 21.013848 Si / 1000 Ang^3
#
#
#
# Elastic Constant Matrix: (Units=GPa)
#
#
# Indices 1 2 3 4 5 6 
#
# 1 184.7343 45.2830 21.8884 0.0000 0.0000 0.0000
# 2 45.2830 67.4381 11.2323 0.0000 0.0000 0.0000
# 3 21.8884 11.2323 128.5989 0.0000 0.0000 0.0000
# 4 0.0000 0.0000 0.0000 20.6990 0.0000 0.0000
# 5 0.0000 0.0000 0.0000 0.0000 27.8258 0.0000
# 6 0.0000 0.0000 0.0000 0.0000 0.0000 21.5717
#
#
#
# Elastic Compliance Matrix: (Units=1/GPa)
#
#
# Indices 1 2 3 4 5 6 
#
# 1 0.006549 -0.004274 -0.000741 0.000000 0.000000 0.000000
# 2 -0.004274 0.017836 -0.000830 0.000000 0.000000 0.000000
# 3 -0.000741 -0.000830 0.007975 0.000000 0.000000 0.000000
# 4 0.000000 0.000000 0.000000 0.048312 0.000000 0.000000
# 5 0.000000 0.000000 0.000000 0.000000 0.035938 0.000000
# 6 0.000000 0.000000 0.000000 0.000000 0.000000 0.046357
#
#
# Mechanical properties :
#
#
# Convention : Reuss Voigt Hill
#
# Bulk Modulus (GPa) = 48.38217 59.73097 54.05657
# Shear Modulus (GPa) = 27.54105 34.17713 30.85909
#
# Velocity S-wave (km/s) = 3.62417 4.03725 3.83627
# Velocity P-wave (km/s) = 6.37077 7.08652 6.73816
#
# Compressibility (1/GPa) = 0.02066877
#
# Stress axis : x y z
#
# Youngs Moduli (GPa) = 152.70378 56.06486 125.39444
#
# Poissons Ratio (x) = 0.23961 0.09296
# Poissons Ratio (y) = 0.65262 0.10414
# Poissons Ratio (z) = 0.11320 0.04656
#
# Static dielectric constant tensor:
#      x y z
#    x 1.905030 0.000000 0.000000 
#    y 0.000000 1.759550 0.000000 
#    z 0.000000 0.000000 1.745090 
# 
# From -- ./inp_files/3680.got.cif
#   From: 2010.05.17/outbox.cif.g08.bks.cpg/sg20_2_cif.got.tgz:3680.got - 2010.06.03 22:52:26.
