data_PCOD9317038
_publ_section_title
;
Structure prediction by ZEFSAII (Michael W. Deem and Ramdas Pophale) SiO2 
 PCOD9317038
Probable space group: C 2 2 21
;
_chemical_formula_sum "Si O2"
_cell_formula_units_Z 60
_cell_length_a 7.792179
_cell_length_b 15.252723
_cell_length_c 23.933736
_cell_angle_alpha 90.000000
_cell_angle_beta 90.000000
_cell_angle_gamma 90.000000
_cell_volume 2844.571143
_symmetry_space_group_name_H-M "C 2 2 21"
_symmetry_group_IT_number 20
_symmetry_cell_setting 'orthorhombic'
loop_
_space_group_symop_operation_xyz
x,y,z
-x,-y,1/2+z
x,-y,-z
-x,y,1/2-z
1/2+x,1/2+y,z
1/2-x,1/2-y,1/2+z
1/2+x,1/2-y,-z
1/2-x,1/2+y,1/2-z
loop_
_atom_site_type_symbol
_atom_site_label
_atom_site_fract_x
_atom_site_fract_y
_atom_site_fract_z
Si Si1 0.985340 0.686666 0.020992
Si Si2 0.777561 0.725361 0.913863
Si Si3 0.835979 0.458673 0.117764
Si Si4 0.190248 0.726745 0.776377
Si Si5 0.698836 0.850841 0.630702
Si Si6 0.858771 0.535738 0.701433
Si Si7 0.809906 0.653651 0.320789
Si Si8 0.014427 0.500000 0.500000
O O1 0.109511 0.755284 0.049742
O O2 0.077247 0.590776 0.016227
O O3 0.829678 0.671743 0.065315
O O4 0.925351 0.714322 0.959738
O O5 0.752812 0.636523 0.878055
O O6 0.799199 0.804446 0.870787
O O7 0.745666 0.547576 0.138648
O O8 0.022362 0.450867 0.146843
O O9 0.869168 0.474813 0.052489
O O10 0.197065 0.779933 0.834290
O O11 0.240637 0.625407 0.785771
O O12 0.297961 0.782669 0.732044
O O13 0.000000 0.723686 0.750000
O O14 0.504744 0.849413 0.656192
O O15 0.758204 0.445112 0.694922
O O16 0.000000 0.521402 0.750000
#
# Coordination Sequence:
#
# PCOD9317038 Si02
#       8
#     8   8   8   8   8   8   8   4
#     4   9  19  33  55  81 109 143 183 224 268 313
#     4  10  19  33  57  85 109 140 182 226 268 315
#     4   9  17  34  58  79 105 143 184 216 257 326
#     4  11  22  35  55  84 111 137 174 230 284 314
#     4   9  19  37  59  78 104 147 188 217 256 328
#     4  10  20  35  56  79 104 143 183 218 263 323
#     4  10  20  37  57  78 105 145 188 218 256 327
#     4   8  16  32  54  78 100 144 192 214 246 320
#
# _framework density 21.092811000000001
#
# number of rings (size 3 to 8) (size 9 to 14) (size 15 to 20)
#    0.000    2.400    0.000    4.400    0.000    3.200 
#    0.000    4.000    0.000   16.800    0.000    0.000 
#    0.000    0.000    0.000    0.000    0.000    0.000 
#
# Total GULP energy -167283.228623 kJ/mol
# GULP energy per Si atom -5576.107621 kJ/mol
# Density = 2.104480 g / cm^3
# Si number density = 21.092811 Si / 1000 Ang^3
#
#
#
# Elastic Constant Matrix: (Units=GPa)
#
#
# Indices 1 2 3 4 5 6 
#
# 1 18.7894 27.2622 3.6326 0.0000 0.0000 0.0000
# 2 27.2622 207.0924 55.8636 0.0000 0.0000 0.0000
# 3 3.6326 55.8636 107.0611 0.0000 0.0000 0.0000
# 4 0.0000 0.0000 0.0000 36.7619 0.0000 0.0000
# 5 0.0000 0.0000 0.0000 0.0000 23.6707 0.0000
# 6 0.0000 0.0000 0.0000 0.0000 0.0000 -213.1605
#
#
#
# Elastic Compliance Matrix: (Units=1/GPa)
#
#
# Indices 1 2 3 4 5 6 
#
# 1 0.066445 -0.009472 0.002688 0.000000 0.000000 0.000000
# 2 -0.009472 0.006970 -0.003316 0.000000 0.000000 0.000000
# 3 0.002688 -0.003316 0.010979 0.000000 0.000000 0.000000
# 4 0.000000 0.000000 0.000000 0.027202 0.000000 0.000000
# 5 0.000000 0.000000 0.000000 0.000000 0.042246 0.000000
# 6 0.000000 0.000000 0.000000 0.000000 0.000000 -0.004691
#
#
# Mechanical properties :
#
#
# Convention : Reuss Voigt Hill
#
# Bulk Modulus (GPa) = 15.57751 56.27330 35.92541
# Shear Modulus (GPa) = 26.21242 -14.13327 6.03957
#
# Velocity S-wave (km/s) = 3.52905 -2.59134 1.69397
# Velocity P-wave (km/s) = 4.89967 4.21704 4.57112
#
# Compressibility (1/GPa) = 0.06419510
#
# Stress axis : x y z
#
# Youngs Moduli (GPa) = 15.05002 143.47080 91.08076
#
# Poissons Ratio (x) = 1.35897 -0.24482
# Poissons Ratio (y) = 0.14255 0.30198
# Poissons Ratio (z) = -0.04045 0.47568
#
# Static dielectric constant tensor:
#      x y z
#    x 1.764740 0.000000 0.000000 
#    y 0.000000 1.830310 0.000000 
#    z 0.000000 0.000000 2.356900 
# 
# From -- ./inp_files/30184.got.cif
#   From: 2010.05.17/outbox.cif.g08.bks.cpg/sg20_16_cif.got.tgz:30184.got - 2010.06.03 22:52:26.
