data_PCOD9317878
_publ_section_title
;
Structure prediction by ZEFSAII (Michael W. Deem and Ramdas Pophale) SiO2 
 PCOD9317878
Probable space group: C 2 2 21
;
_chemical_formula_sum "Si O2"
_cell_formula_units_Z 32
_cell_length_a 14.245027
_cell_length_b 7.755425
_cell_length_c 10.608932
_cell_angle_alpha 90.000000
_cell_angle_beta 90.000000
_cell_angle_gamma 90.000000
_cell_volume 1172.034902
_symmetry_space_group_name_H-M "C 2 2 21"
_symmetry_group_IT_number 20
_symmetry_cell_setting 'orthorhombic'
loop_
_space_group_symop_operation_xyz
x,y,z
-x,-y,1/2+z
x,-y,-z
-x,y,1/2-z
1/2+x,1/2+y,z
1/2-x,1/2-y,1/2+z
1/2+x,1/2-y,-z
1/2-x,1/2+y,1/2-z
loop_
_atom_site_type_symbol
_atom_site_label
_atom_site_fract_x
_atom_site_fract_y
_atom_site_fract_z
Si Si1 0.813738 0.000000 0.500000
Si Si2 0.500000 0.952195 0.750000
Si Si3 0.808281 0.728466 0.188682
Si Si4 0.852411 0.887055 0.837438
Si Si5 0.041382 0.773267 0.914273
O O1 0.743066 0.903408 0.594921
O O2 0.891140 0.843318 0.476539
O O3 0.536120 0.078616 0.862532
O O4 0.588314 0.841173 0.710686
O O5 0.813616 0.923257 0.141202
O O6 0.738387 0.729020 0.310120
O O7 0.910872 0.873139 0.705331
O O8 0.932913 0.823621 0.931630
#
# Coordination Sequence:
#
# PCOD9317878 Si02
#       5
#     4   4   8   8   8
#     4  10  22  34  54  82 116 138 180 236 278 308
#     4  10  20  36  60  78 108 150 188 214 268 340
#     4  11  20  36  58  85 110 144 184 227 269 326
#     4   9  18  34  57  76 106 144 181 212 266 331
#     4   9  19  37  56  81 108 143 181 226 270 325
#
# _framework density 27.302942000000002
#
# number of rings (size 3 to 8) (size 9 to 14) (size 15 to 20)
#    0.000    2.500    0.000    6.000    0.000    2.000 
#    0.000    0.000    0.000   25.500    0.000    0.000 
#    0.000    0.000    0.000    0.000    0.000    0.000 
#
# Total GULP energy -89458.518106 kJ/mol
# GULP energy per Si atom -5591.157382 kJ/mol
# Density = 2.724080 g / cm^3
# Si number density = 27.302942 Si / 1000 Ang^3
#
#
#
# Elastic Constant Matrix: (Units=GPa)
#
#
# Indices 1 2 3 4 5 6 
#
# 1 249.8029 45.4650 43.0910 0.0000 0.0000 0.0000
# 2 45.4650 119.3529 30.4204 0.0000 0.0000 0.0000
# 3 43.0910 30.4204 77.7675 0.0000 0.0000 0.0000
# 4 0.0000 0.0000 0.0000 51.3525 0.0000 0.0000
# 5 0.0000 0.0000 0.0000 0.0000 51.6850 0.0000
# 6 0.0000 0.0000 0.0000 0.0000 0.0000 58.0185
#
#
#
# Elastic Compliance Matrix: (Units=1/GPa)
#
#
# Indices 1 2 3 4 5 6 
#
# 1 0.004581 -0.001220 -0.002061 0.000000 0.000000 0.000000
# 2 -0.001220 0.009631 -0.003092 0.000000 0.000000 0.000000
# 3 -0.002061 -0.003092 0.015210 0.000000 0.000000 0.000000
# 4 0.000000 0.000000 0.000000 0.019473 0.000000 0.000000
# 5 0.000000 0.000000 0.000000 0.000000 0.019348 0.000000
# 6 0.000000 0.000000 0.000000 0.000000 0.000000 0.017236
#
#
# Mechanical properties :
#
#
# Convention : Reuss Voigt Hill
#
# Bulk Modulus (GPa) = 59.96141 76.09735 68.02938
# Shear Modulus (GPa) = 48.17756 54.07434 51.12595
#
# Velocity S-wave (km/s) = 4.20522 4.45514 4.33198
# Velocity P-wave (km/s) = 6.75186 7.37539 7.07051
#
# Compressibility (1/GPa) = 0.01667739
#
# Stress axis : x y z
#
# Youngs Moduli (GPa) = 218.30907 103.83059 65.74520
#
# Poissons Ratio (x) = 0.12663 0.13551
# Poissons Ratio (y) = 0.26625 0.20326
# Poissons Ratio (z) = 0.44995 0.32101
#
# Static dielectric constant tensor:
#      x y z
#    x 2.045390 0.000000 0.000000 
#    y 0.000000 2.059180 0.000000 
#    z 0.000000 0.000000 2.731930 
# 
# From -- ./inp_files/18376.got.cif
#   From: 2010.05.17/outbox.cif.g08.bks.cpg/sg20_10_cif.got.tgz:18376.got - 2010.06.03 22:52:26.
