data_PCOD9317001
_publ_section_title
;
Structure prediction by ZEFSAII (Michael W. Deem and Ramdas Pophale) SiO2 
 PCOD9317001
Probable space group: C 2 2 21
;
_chemical_formula_sum "Si O2"
_cell_formula_units_Z 48
_cell_length_a 29.432390
_cell_length_b 5.049262
_cell_length_c 18.014394
_cell_angle_alpha 90.000000
_cell_angle_beta 90.000000
_cell_angle_gamma 90.000000
_cell_volume 2677.152390
_symmetry_space_group_name_H-M "C 2 2 21"
_symmetry_group_IT_number 20
_symmetry_cell_setting 'orthorhombic'
loop_
_space_group_symop_operation_xyz
x,y,z
-x,-y,1/2+z
x,-y,-z
-x,y,1/2-z
1/2+x,1/2+y,z
1/2-x,1/2-y,1/2+z
1/2+x,1/2-y,-z
1/2-x,1/2+y,1/2-z
loop_
_atom_site_type_symbol
_atom_site_label
_atom_site_fract_x
_atom_site_fract_y
_atom_site_fract_z
Si Si1 0.648874 0.465279 0.615077
Si Si2 0.741281 0.264000 0.547905
Si Si3 0.226544 0.297869 0.787200
Si Si4 0.465093 0.078197 0.183211
Si Si5 0.859863 0.533231 0.207587
Si Si6 0.044153 0.078089 0.417576
O O1 0.690319 0.360460 0.567215
O O2 0.653126 0.771191 0.638776
O O3 0.599292 0.423822 0.580390
O O4 0.648895 0.271173 0.686664
O O5 0.763035 0.500000 0.500000
O O6 0.764737 0.228714 0.627489
O O7 0.740782 0.000000 0.500000
O O8 0.256110 0.554088 0.763084
O O9 0.174368 0.372536 0.770885
O O10 0.500000 0.038889 0.250000
O O11 0.413742 0.067137 0.216006
O O12 0.470369 0.357854 0.142122
O O13 0.469161 0.857951 0.118415
O O14 0.027939 0.000000 0.500000
#
# Coordination Sequence:
#
# PCOD9317001 Si02
#       6
#     8   8   8   8   8   8
#     4  10  19  33  52  79 111 141 175 214 284 340
#     4  12  23  33  50  79 113 144 181 231 275 318
#     4  12  21  37  57  76 108 150 196 219 267 336
#     4  10  21  36  58  83 113 145 189 230 281 328
#     4  10  19  35  56  79 103 146 187 226 265 324
#     4  10  20  34  55  84 116 146 173 226 287 350
#
# _framework density 17.929497999999999
#
# number of rings (size 3 to 8) (size 9 to 14) (size 15 to 20)
#    0.000    1.333    3.333    3.500    0.000    2.667 
#    0.000    0.000    0.000    3.000    0.000    0.000 
#    0.000    0.000    0.000    0.000    0.000    0.000 
#
# Total GULP energy -133972.515410 kJ/mol
# GULP energy per Si atom -5582.188142 kJ/mol
# Density = 1.788869 g / cm^3
# Si number density = 17.929498 Si / 1000 Ang^3
#
#
#
# Elastic Constant Matrix: (Units=GPa)
#
#
# Indices 1 2 3 4 5 6 
#
# 1 63.1777 18.9185 47.9333 0.0000 0.0000 0.0000
# 2 18.9185 66.9991 3.9467 0.0000 0.0000 0.0000
# 3 47.9333 3.9467 97.2322 0.0000 0.0000 0.0000
# 4 0.0000 0.0000 0.0000 29.3237 0.0000 0.0000
# 5 0.0000 0.0000 0.0000 0.0000 12.7125 0.0000
# 6 0.0000 0.0000 0.0000 0.0000 0.0000 9.7043
#
#
#
# Elastic Compliance Matrix: (Units=1/GPa)
#
#
# Indices 1 2 3 4 5 6 
#
# 1 0.028379 -0.007206 -0.013698 0.000000 0.000000 0.000000
# 2 -0.007206 0.016791 0.002871 0.000000 0.000000 0.000000
# 3 -0.013698 0.002871 0.016921 0.000000 0.000000 0.000000
# 4 0.000000 0.000000 0.000000 0.034102 0.000000 0.000000
# 5 0.000000 0.000000 0.000000 0.000000 0.078663 0.000000
# 6 0.000000 0.000000 0.000000 0.000000 0.000000 0.103047
#
#
# Mechanical properties :
#
#
# Convention : Reuss Voigt Hill
#
# Bulk Modulus (GPa) = 38.42477 41.00066 39.71271
# Shear Modulus (GPa) = 15.49697 20.78881 18.14289
#
# Velocity S-wave (km/s) = 2.94314 3.40880 3.18449
# Velocity P-wave (km/s) = 5.74691 6.19763 5.97652
#
# Compressibility (1/GPa) = 0.02602488
#
# Stress axis : x y z
#
# Youngs Moduli (GPa) = 35.23758 59.55462 59.09910
#
# Poissons Ratio (x) = 0.42918 0.80952
# Poissons Ratio (y) = 0.25394 -0.16968
# Poissons Ratio (z) = 0.48267 -0.17098
#
# Static dielectric constant tensor:
#      x y z
#    x 1.607630 0.000000 0.000000 
#    y 0.000000 1.625750 0.000000 
#    z 0.000000 0.000000 1.617240 
# 
# From -- ./inp_files/22154.got.cif
#   From: 2010.05.17/outbox.cif.g08.bks.cpg/sg20_12_cif.got.tgz:22154.got - 2010.06.03 22:52:26.
