data_PCOD9317268
_publ_section_title
;
Structure prediction by ZEFSAII (Michael W. Deem and Ramdas Pophale) SiO2 
 PCOD9317268
Probable space group: C 2 2 21
;
_chemical_formula_sum "Si O2"
_cell_formula_units_Z 48
_cell_length_a 14.626937
_cell_length_b 17.208145
_cell_length_c 8.844192
_cell_angle_alpha 90.000000
_cell_angle_beta 90.000000
_cell_angle_gamma 90.000000
_cell_volume 2226.104819
_symmetry_space_group_name_H-M "C 2 2 21"
_symmetry_group_IT_number 20
_symmetry_cell_setting 'orthorhombic'
loop_
_space_group_symop_operation_xyz
x,y,z
-x,-y,1/2+z
x,-y,-z
-x,y,1/2-z
1/2+x,1/2+y,z
1/2-x,1/2-y,1/2+z
1/2+x,1/2-y,-z
1/2-x,1/2+y,1/2-z
loop_
_atom_site_type_symbol
_atom_site_label
_atom_site_fract_x
_atom_site_fract_y
_atom_site_fract_z
Si Si1 0.929284 0.724374 0.877428
Si Si2 0.212437 0.419165 0.929080
Si Si3 0.640445 0.153161 0.355919
Si Si4 0.240515 0.815152 0.285999
Si Si5 0.404441 0.607331 0.219930
Si Si6 0.687581 0.590026 0.986358
O O1 0.828642 0.706605 0.813219
O O2 0.930227 0.818235 0.882518
O O3 0.000000 0.699357 0.750000
O O4 0.941580 0.679046 0.034754
O O5 0.140742 0.389237 0.804510
O O6 0.313318 0.430448 0.850533
O O7 0.183282 0.500000 0.000000
O O8 0.228367 0.356959 0.061171
O O9 0.688740 0.236009 0.323544
O O10 0.708405 0.099502 0.455491
O O11 0.182065 0.872919 0.178972
O O12 0.500000 0.562820 0.250000
O O13 0.370752 0.634680 0.386226
O O14 0.661172 0.500000 0.000000
#
# Coordination Sequence:
#
# PCOD9317268 Si02
#       6
#     8   8   8   8   8   8
#     4  10  20  36  60  84 116 159 204 263 318 356
#     4  11  21  35  59  90 121 164 207 255 310 376
#     4  10  19  36  58  86 115 159 206 251 299 370
#     4  11  18  35  61  83 116 156 207 256 305 364
#     4  10  20  36  54  81 124 166 203 247 310 366
#     4  10  20  34  55  84 117 158 203 251 303 367
#
# _framework density 21.562325000000001
#
# number of rings (size 3 to 8) (size 9 to 14) (size 15 to 20)
#    0.000    1.667    5.000    3.000    0.000    0.667 
#    0.000    1.667    0.000    6.000    0.000    0.000 
#    0.000    0.000    0.000    0.000    0.000    0.000 
#
# Total GULP energy -133814.692833 kJ/mol
# GULP energy per Si atom -5575.612201 kJ/mol
# Density = 2.151325 g / cm^3
# Si number density = 21.562325 Si / 1000 Ang^3
#
#
#
# Elastic Constant Matrix: (Units=GPa)
#
#
# Indices 1 2 3 4 5 6 
#
# 1 22.1785 9.4941 2.3126 0.0000 0.0000 0.0000
# 2 9.4941 94.3652 44.3855 0.0000 0.0000 0.0000
# 3 2.3126 44.3855 125.2103 0.0000 0.0000 0.0000
# 4 0.0000 0.0000 0.0000 35.8032 0.0000 0.0000
# 5 0.0000 0.0000 0.0000 0.0000 31.9001 0.0000
# 6 0.0000 0.0000 0.0000 0.0000 0.0000 10.8429
#
#
#
# Elastic Compliance Matrix: (Units=1/GPa)
#
#
# Indices 1 2 3 4 5 6 
#
# 1 0.047217 -0.005209 0.000974 0.000000 0.000000 0.000000
# 2 -0.005209 0.013292 -0.004616 0.000000 0.000000 0.000000
# 3 0.000974 -0.004616 0.009605 0.000000 0.000000 0.000000
# 4 0.000000 0.000000 0.000000 0.027930 0.000000 0.000000
# 5 0.000000 0.000000 0.000000 0.000000 0.031348 0.000000
# 6 0.000000 0.000000 0.000000 0.000000 0.000000 0.092226
#
#
# Mechanical properties :
#
#
# Convention : Reuss Voigt Hill
#
# Bulk Modulus (GPa) = 19.07901 39.34870 29.21386
# Shear Modulus (GPa) = 19.47119 28.08003 23.77561
#
# Velocity S-wave (km/s) = 3.00829 3.61262 3.32421
# Velocity P-wave (km/s) = 4.57536 5.97409 5.32089
#
# Compressibility (1/GPa) = 0.05241361
#
# Stress axis : x y z
#
# Youngs Moduli (GPa) = 21.17887 75.23191 104.11480
#
# Poissons Ratio (x) = 0.39187 -0.10145
# Poissons Ratio (y) = 0.11032 0.48057
# Poissons Ratio (z) = -0.02064 0.34725
#
# Static dielectric constant tensor:
#      x y z
#    x 1.812740 0.000000 0.000000 
#    y 0.000000 1.789730 0.000000 
#    z 0.000000 0.000000 1.848400 
# 
# From -- ./inp_files/8445.got.cif
#   From: 2010.05.17/outbox.cif.g08.bks.cpg/sg20_5_cif.got.tgz:8445.got - 2010.06.03 22:52:26.
