data_PCOD9317021
_publ_section_title
;
Structure prediction by ZEFSAII (Michael W. Deem and Ramdas Pophale) SiO2 
 PCOD9317021
Probable space group: C 2 2 21
;
_chemical_formula_sum "Si O2"
_cell_formula_units_Z 32
_cell_length_a 14.268448
_cell_length_b 20.704706
_cell_length_c 4.946862
_cell_angle_alpha 90.000000
_cell_angle_beta 90.000000
_cell_angle_gamma 90.000000
_cell_volume 1461.421863
_symmetry_space_group_name_H-M "C 2 2 21"
_symmetry_group_IT_number 20
_symmetry_cell_setting 'orthorhombic'
loop_
_space_group_symop_operation_xyz
x,y,z
-x,-y,1/2+z
x,-y,-z
-x,y,1/2-z
1/2+x,1/2+y,z
1/2-x,1/2-y,1/2+z
1/2+x,1/2-y,-z
1/2-x,1/2+y,1/2-z
loop_
_atom_site_type_symbol
_atom_site_label
_atom_site_fract_x
_atom_site_fract_y
_atom_site_fract_z
Si Si1 0.197927 0.124750 0.787458
Si Si2 0.901313 0.653714 0.826408
Si Si3 0.399337 0.245526 0.331903
Si Si4 0.889591 0.939150 0.807382
O O1 0.308490 0.113355 0.764317
O O2 0.179505 0.200144 0.847343
O O3 0.142800 0.116910 0.507657
O O4 0.157277 0.077913 0.020494
O O5 0.903404 0.714409 0.624980
O O6 0.000000 0.620032 0.750000
O O7 0.890593 0.685320 0.123411
O O8 0.500000 0.276010 0.250000
O O9 0.000000 0.942894 0.750000
O O10 0.863362 0.000000 0.000000
#
# Coordination Sequence:
#
# PCOD9317021 Si02
#       4
#     8   8   8   8
#     4  12  22  37  62  87 117 160 199 234 292 354
#     4  10  21  36  56  87 126 160 194 236 279 339
#     4  10  19  33  54  86 125 160 194 233 283 346
#     4  12  25  42  61  86 115 146 192 251 306 353
#
# _framework density 21.896484000000001
#
# number of rings (size 3 to 8) (size 9 to 14) (size 15 to 20)
#    0.000    1.000    0.000    9.000    0.000    2.000 
#    0.000    0.000    0.000    3.000    0.000    1.750 
#    0.000    0.000    0.000    0.000    0.000    0.000 
#
# Total GULP energy -89288.936285 kJ/mol
# GULP energy per Si atom -5580.558518 kJ/mol
# Density = 2.184665 g / cm^3
# Si number density = 21.896484 Si / 1000 Ang^3
#
#
#
# Elastic Constant Matrix: (Units=GPa)
#
#
# Indices 1 2 3 4 5 6 
#
# 1 99.1377 18.9576 20.9375 0.0000 0.0000 0.0000
# 2 18.9576 15.1922 7.6080 0.0000 0.0000 0.0000
# 3 20.9375 7.6080 113.5099 0.0000 0.0000 0.0000
# 4 0.0000 0.0000 0.0000 19.5557 0.0000 0.0000
# 5 0.0000 0.0000 0.0000 0.0000 19.2667 0.0000
# 6 0.0000 0.0000 0.0000 0.0000 0.0000 9.0647
#
#
#
# Elastic Compliance Matrix: (Units=1/GPa)
#
#
# Indices 1 2 3 4 5 6 
#
# 1 0.013461 -0.016094 -0.001404 0.000000 0.000000 0.000000
# 2 -0.016094 0.087352 -0.002886 0.000000 0.000000 0.000000
# 3 -0.001404 -0.002886 0.009262 0.000000 0.000000 0.000000
# 4 0.000000 0.000000 0.000000 0.051136 0.000000 0.000000
# 5 0.000000 0.000000 0.000000 0.000000 0.051903 0.000000
# 6 0.000000 0.000000 0.000000 0.000000 0.000000 0.110318
#
#
# Mechanical properties :
#
#
# Convention : Reuss Voigt Hill
#
# Bulk Modulus (GPa) = 14.42878 35.87177 25.15028
# Shear Modulus (GPa) = 12.90976 21.59987 17.25482
#
# Velocity S-wave (km/s) = 2.43076 3.14419 2.81021
# Velocity P-wave (km/s) = 3.80552 5.44052 4.69475
#
# Compressibility (1/GPa) = 0.06930592
#
# Stress axis : x y z
#
# Youngs Moduli (GPa) = 74.28755 11.44796 107.96492
#
# Poissons Ratio (x) = 0.18425 0.15161
# Poissons Ratio (y) = 1.19561 0.31159
# Poissons Ratio (z) = 0.10432 0.03304
#
# Static dielectric constant tensor:
#      x y z
#    x 1.881610 0.000000 0.000000 
#    y 0.000000 1.924680 0.000000 
#    z 0.000000 0.000000 1.796990 
# 
# From -- ./inp_files/1721.got.cif
#   From: 2010.05.17/outbox.cif.g08.bks.cpg/sg20_1_cif.got.tgz:1721.got - 2010.06.03 22:52:26.
