data_PCOD9317853
_publ_section_title
;
Structure prediction by ZEFSAII (Michael W. Deem and Ramdas Pophale) SiO2 
 PCOD9317853
Probable space group: C 2 2 21
;
_chemical_formula_sum "Si O2"
_cell_formula_units_Z 64
_cell_length_a 8.426014
_cell_length_b 18.937611
_cell_length_c 21.196908
_cell_angle_alpha 90.000000
_cell_angle_beta 90.000000
_cell_angle_gamma 90.000000
_cell_volume 3382.360413
_symmetry_space_group_name_H-M "C 2 2 21"
_symmetry_group_IT_number 20
_symmetry_cell_setting 'orthorhombic'
loop_
_space_group_symop_operation_xyz
x,y,z
-x,-y,1/2+z
x,-y,-z
-x,y,1/2-z
1/2+x,1/2+y,z
1/2-x,1/2-y,1/2+z
1/2+x,1/2-y,-z
1/2-x,1/2+y,1/2-z
loop_
_atom_site_type_symbol
_atom_site_label
_atom_site_fract_x
_atom_site_fract_y
_atom_site_fract_z
Si Si1 0.055983 0.044608 0.560975
Si Si2 0.559714 0.291976 0.680763
Si Si3 0.055983 0.544607 0.939025
Si Si4 0.558630 0.044703 0.181205
Si Si5 0.558630 0.544703 0.318795
Si Si6 0.559866 0.293071 0.439599
Si Si7 0.559866 0.206929 0.939598
Si Si8 0.940286 0.291976 0.680763
O O1 0.250000 0.044638 0.561130
O O2 0.003922 0.125687 0.557847
O O3 0.005656 0.000000 0.500000
O O4 0.003710 0.005279 0.624657
O O5 0.500000 0.269911 0.750000
O O6 0.507872 0.373777 0.671097
O O7 0.495972 0.244173 0.624496
O O8 0.750000 0.290397 0.680063
O O9 0.003710 0.505279 0.875343
O O10 0.003922 0.625687 0.942153
O O11 0.005656 0.500000 0.000000
O O12 0.500000 0.022021 0.250000
O O13 0.750000 0.044307 0.181400
O O14 0.507871 0.126223 0.171098
O O15 0.500000 0.522022 0.250000
O O16 0.500000 0.250000 0.500000
O O17 0.750000 0.293546 0.441011
O O18 0.504028 0.255826 0.375504
O O19 0.000000 0.269911 0.750000
#
# Coordination Sequence:
#
# PCOD9317853 Si02
#       8
#     8   8   8   8   8   8   8   8
#     4   9  18  34  55  77 102 136 178 221 266 314
#     4  10  20  36  58  82 110 143 179 220 266 319
#     4   9  18  34  55  77 102 136 178 221 266 314
#     4   9  18  34  56  79 104 137 175 216 263 314
#     4   9  18  34  56  79 104 137 175 216 263 314
#     4  11  22  36  56  81 110 143 180 223 269 320
#     4  11  22  36  56  81 110 143 180 223 269 320
#     4  10  20  36  58  82 110 143 179 220 266 319
#
# _framework density 18.921697000000002
#
# number of rings (size 3 to 8) (size 9 to 14) (size 15 to 20)
#    0.000    2.250    0.000    3.000    0.000    6.000 
#    0.000    5.000    0.000    5.250    0.000    0.000 
#    0.000    0.000    0.000    0.000    0.000    0.000 
#
# Total GULP energy -178698.719057 kJ/mol
# GULP energy per Si atom -5584.334971 kJ/mol
# Density = 1.887863 g / cm^3
# Si number density = 18.921697 Si / 1000 Ang^3
#
#
#
# Elastic Constant Matrix: (Units=GPa)
#
#
# Indices 1 2 3 4 5 6 
#
# 1 25.9253 26.7029 29.9969 0.0000 0.0000 0.0000
# 2 26.7029 159.8556 144.5420 0.0000 0.0000 0.0000
# 3 29.9969 144.5420 219.4000 0.0000 0.0000 0.0000
# 4 0.0000 0.0000 0.0000 42.7690 0.0000 0.0000
# 5 0.0000 0.0000 0.0000 0.0000 36.9612 0.0000
# 6 0.0000 0.0000 0.0000 0.0000 0.0000 9.4749
#
#
#
# Elastic Compliance Matrix: (Units=1/GPa)
#
#
# Indices 1 2 3 4 5 6 
#
# 1 0.047441 -0.005095 -0.003130 0.000000 0.000000 0.000000
# 2 -0.005095 0.016020 -0.009857 0.000000 0.000000 0.000000
# 3 -0.003130 -0.009857 0.011480 0.000000 0.000000 0.000000
# 4 0.000000 0.000000 0.000000 0.023381 0.000000 0.000000
# 5 0.000000 0.000000 0.000000 0.000000 0.027055 0.000000
# 6 0.000000 0.000000 0.000000 0.000000 0.000000 0.105542
#
#
# Mechanical properties :
#
#
# Convention : Reuss Voigt Hill
#
# Bulk Modulus (GPa) = 25.78845 89.74050 57.76447
# Shear Modulus (GPa) = 17.85652 31.43694 24.64673
#
# Velocity S-wave (km/s) = 3.07531 4.08048 3.61302
# Velocity P-wave (km/s) = 5.12530 8.35049 6.92818
#
# Compressibility (1/GPa) = 0.03877705
#
# Stress axis : x y z
#
# Youngs Moduli (GPa) = 21.07866 62.42309 87.10921
#
# Poissons Ratio (x) = 0.31804 0.27263
# Poissons Ratio (y) = 0.10739 0.85866
# Poissons Ratio (z) = 0.06597 0.61532
#
# Static dielectric constant tensor:
#      x y z
#    x 1.659180 0.000000 0.000000 
#    y 0.000000 1.649730 0.000000 
#    z 0.000000 0.000000 1.602100 
# 
# From -- ./inp_files/26910.got.cif
#   From: 2010.05.17/outbox.cif.g08.bks.cpg/sg20_14_cif.got.tgz:26910.got - 2010.06.03 22:52:26.
