data_PCOD9317592
_publ_section_title
;
Structure prediction by ZEFSAII (Michael W. Deem and Ramdas Pophale) SiO2 
 PCOD9317592
Probable space group: C 2 2 21
;
_chemical_formula_sum "Si O2"
_cell_formula_units_Z 64
_cell_length_a 13.928822
_cell_length_b 19.033558
_cell_length_c 13.534525
_cell_angle_alpha 90.000000
_cell_angle_beta 90.000000
_cell_angle_gamma 90.000000
_cell_volume 3588.206156
_symmetry_space_group_name_H-M "C 2 2 21"
_symmetry_group_IT_number 20
_symmetry_cell_setting 'orthorhombic'
loop_
_space_group_symop_operation_xyz
x,y,z
-x,-y,1/2+z
x,-y,-z
-x,y,1/2-z
1/2+x,1/2+y,z
1/2-x,1/2-y,1/2+z
1/2+x,1/2-y,-z
1/2-x,1/2+y,1/2-z
loop_
_atom_site_type_symbol
_atom_site_label
_atom_site_fract_x
_atom_site_fract_y
_atom_site_fract_z
Si Si1 0.609673 0.462873 0.369604
Si Si2 0.390327 0.537127 0.630396
Si Si3 0.234057 0.175255 0.633475
Si Si4 0.386429 0.244818 0.991299
Si Si5 0.234057 0.824745 0.133475
Si Si6 0.115591 0.116741 0.361693
Si Si7 0.886429 0.255182 0.491299
Si Si8 0.384409 0.383259 0.638307
O O1 0.603327 0.469761 0.250000
O O2 0.500000 0.447836 0.404632
O O3 0.679625 0.397964 0.386281
O O4 0.644166 0.540167 0.402720
O O5 0.320375 0.602036 0.613719
O O6 0.355834 0.459833 0.597280
O O7 0.161878 0.236563 0.595839
O O8 0.254123 0.180774 0.750000
O O9 0.329064 0.184942 0.567400
O O10 0.329064 0.184942 0.932600
O O11 0.365614 0.315506 0.927288
O O12 0.500000 0.233890 0.997173
O O13 0.161878 0.763437 0.095839
O O14 0.152954 0.126710 0.250000
O O15 0.000000 0.111698 0.355321
O O16 0.865614 0.184494 0.427288
#
# Coordination Sequence:
#
# PCOD9317592 Si02
#       8
#     8   8   8   8   8   8   8   8
#     4   8  14  26  45  69  96 123 150 184 229 278
#     4   8  14  26  45  69  96 123 150 184 229 278
#     4  10  20  32  46  68  97 127 158 191 232 280
#     4  10  20  32  48  71  96 124 158 193 233 279
#     4  10  20  32  46  68  97 127 158 191 232 280
#     4   8  14  26  45  69  96 122 148 185 233 279
#     4  10  20  32  48  71  96 124 158 193 233 279
#     4   8  14  26  45  69  96 122 148 185 233 279
#
# _framework density 17.836210000000001
#
# number of rings (size 3 to 8) (size 9 to 14) (size 15 to 20)
#    0.000    3.000    0.000    3.000    0.000    4.000 
#    0.000    3.750    0.000    0.000    0.000   15.750 
#    0.000   26.000    0.000    0.000    0.000    0.000 
#
# Total GULP energy -178401.827352 kJ/mol
# GULP energy per Si atom -5575.057105 kJ/mol
# Density = 1.779561 g / cm^3
# Si number density = 17.836210 Si / 1000 Ang^3
#
#
#
# Elastic Constant Matrix: (Units=GPa)
#
#
# Indices 1 2 3 4 5 6 
#
# 1 79.8665 14.1231 -2.3798 0.0000 0.0000 0.0000
# 2 14.1231 51.6376 -2.7250 0.0000 0.0000 0.0000
# 3 -2.3798 -2.7250 44.6485 0.0000 0.0000 0.0000
# 4 0.0000 0.0000 0.0000 25.5645 0.0000 0.0000
# 5 0.0000 0.0000 0.0000 0.0000 17.0325 0.0000
# 6 0.0000 0.0000 0.0000 0.0000 0.0000 21.0863
#
#
#
# Elastic Compliance Matrix: (Units=1/GPa)
#
#
# Indices 1 2 3 4 5 6 
#
# 1 0.013168 -0.003576 0.000484 0.000000 0.000000 0.000000
# 2 -0.003576 0.020399 0.001054 0.000000 0.000000 0.000000
# 3 0.000484 0.001054 0.022487 0.000000 0.000000 0.000000
# 4 0.000000 0.000000 0.000000 0.039117 0.000000 0.000000
# 5 0.000000 0.000000 0.000000 0.000000 0.058711 0.000000
# 6 0.000000 0.000000 0.000000 0.000000 0.000000 0.047424
#
#
# Mechanical properties :
#
#
# Convention : Reuss Voigt Hill
#
# Bulk Modulus (GPa) = 19.23869 21.57659 20.40764
# Shear Modulus (GPa) = 22.45086 23.87893 23.16490
#
# Velocity S-wave (km/s) = 3.55170 3.66292 3.60774
# Velocity P-wave (km/s) = 5.25634 5.47838 5.36851
#
# Compressibility (1/GPa) = 0.05197859
#
# Stress axis : x y z
#
# Youngs Moduli (GPa) = 75.94375 49.02103 44.46953
#
# Poissons Ratio (x) = 0.17529 -0.02151
# Poissons Ratio (y) = 0.27157 -0.04689
# Poissons Ratio (z) = -0.03673 -0.05169
#
# Static dielectric constant tensor:
#      x y z
#    x 1.587610 0.000000 0.000000 
#    y 0.000000 1.642250 0.000000 
#    z 0.000000 0.000000 1.709940 
# 
# From -- ./inp_files/20991.got.cif
#   From: 2010.05.17/outbox.cif.g08.bks.cpg/sg20_11_cif.got.tgz:20991.got - 2010.06.03 22:52:26.
