data_PCOD9317628
_publ_section_title
;
Structure prediction by ZEFSAII (Michael W. Deem and Ramdas Pophale) SiO2 
 PCOD9317628
Probable space group: C 2 2 21
;
_chemical_formula_sum "Si O2"
_cell_formula_units_Z 48
_cell_length_a 22.898487
_cell_length_b 9.088442
_cell_length_c 11.719812
_cell_angle_alpha 90.000000
_cell_angle_beta 90.000000
_cell_angle_gamma 90.000000
_cell_volume 2439.028487
_symmetry_space_group_name_H-M "C 2 2 21"
_symmetry_group_IT_number 20
_symmetry_cell_setting 'orthorhombic'
loop_
_space_group_symop_operation_xyz
x,y,z
-x,-y,1/2+z
x,-y,-z
-x,y,1/2-z
1/2+x,1/2+y,z
1/2-x,1/2-y,1/2+z
1/2+x,1/2-y,-z
1/2-x,1/2+y,1/2-z
loop_
_atom_site_type_symbol
_atom_site_label
_atom_site_fract_x
_atom_site_fract_y
_atom_site_fract_z
Si Si1 0.155655 0.856603 0.070203
Si Si2 0.897340 0.081515 0.121542
Si Si3 0.746742 0.787915 0.087753
Si Si4 0.722812 0.534155 0.253593
Si Si5 0.869455 0.326859 0.982659
Si Si6 0.434505 0.298430 0.236175
O O1 0.104031 0.795605 0.148953
O O2 0.205895 0.919325 0.154188
O O3 0.189111 0.749078 0.983869
O O4 0.134450 0.000000 0.000000
O O5 0.838965 0.083062 0.195738
O O6 0.937810 0.968946 0.191455
O O7 0.908138 0.248268 0.081598
O O8 0.889004 0.000000 0.000000
O O9 0.752040 0.670212 0.191410
O O10 0.805869 0.753059 0.017903
O O11 0.745438 0.947879 0.145069
O O12 0.899462 0.288224 0.862120
O O13 0.862495 0.500000 0.000000
O O14 0.500000 0.242768 0.250000
#
# Coordination Sequence:
#
# PCOD9317628 Si02
#       6
#     8   8   8   8   8   8
#     4   9  19  36  55  89 117 152 200 252 305 354
#     4   9  18  36  57  85 106 151 209 242 289 365
#     4  11  21  34  57  85 127 158 193 249 311 370
#     4  10  20  33  53  82 122 156 192 244 301 369
#     4  11  22  37  61  89 118 163 198 245 316 374
#     4  10  21  41  65  84 118 158 207 264 300 357
#
# _framework density 19.679967000000001
#
# number of rings (size 3 to 8) (size 9 to 14) (size 15 to 20)
#    0.000    2.000    5.000    1.500    4.667    2.000 
#    0.000    0.833    3.667    0.000    0.000    0.000 
#    0.000    0.000    0.000    0.000    0.000    0.000 
#
# Total GULP energy -133799.825500 kJ/mol
# GULP energy per Si atom -5574.992729 kJ/mol
# Density = 1.963517 g / cm^3
# Si number density = 19.679967 Si / 1000 Ang^3
#
#
#
# Elastic Constant Matrix: (Units=GPa)
#
#
# Indices 1 2 3 4 5 6 
#
# 1 66.5963 9.4205 26.7794 0.0000 0.0000 0.0000
# 2 9.4205 57.9309 26.2457 0.0000 0.0000 0.0000
# 3 26.7794 26.2457 86.8075 0.0000 0.0000 0.0000
# 4 0.0000 0.0000 0.0000 36.9974 0.0000 0.0000
# 5 0.0000 0.0000 0.0000 0.0000 -3.2190 0.0000
# 6 0.0000 0.0000 0.0000 0.0000 0.0000 12.9145
#
#
#
# Elastic Compliance Matrix: (Units=1/GPa)
#
#
# Indices 1 2 3 4 5 6 
#
# 1 0.017153 -0.000454 -0.005154 0.000000 0.000000 0.000000
# 2 -0.000454 0.020014 -0.005911 0.000000 0.000000 0.000000
# 3 -0.005154 -0.005911 0.014897 0.000000 0.000000 0.000000
# 4 0.000000 0.000000 0.000000 0.027029 0.000000 0.000000
# 5 0.000000 0.000000 0.000000 0.000000 -0.310653 0.000000
# 6 0.000000 0.000000 0.000000 0.000000 0.000000 0.077433
#
#
# Mechanical properties :
#
#
# Convention : Reuss Voigt Hill
#
# Bulk Modulus (GPa) = 34.45331 37.35843 35.90587
# Shear Modulus (GPa) = -41.18120 19.26451 -10.95835
#
# Velocity S-wave (km/s) = -4.57940 3.13211 -2.36228
# Velocity P-wave (km/s) = 3.22744 5.66607 3.29302
#
# Compressibility (1/GPa) = 0.02902479
#
# Stress axis : x y z
#
# Youngs Moduli (GPa) = 58.29996 49.96570 67.12817
#
# Poissons Ratio (x) = 0.02269 0.34599
# Poissons Ratio (y) = 0.02648 0.39679
# Poissons Ratio (z) = 0.30049 0.29534
#
# Static dielectric constant tensor:
#      x y z
#    x 1.667940 0.000000 0.000000 
#    y 0.000000 1.738320 0.000000 
#    z 0.000000 0.000000 1.734090 
# 
# From -- ./inp_files/13120.got.cif
#   From: 2010.05.17/outbox.cif.g08.bks.cpg/sg20_7_cif.got.tgz:13120.got - 2010.06.03 22:52:26.
