data_PCOD9317181
_publ_section_title
;
Structure prediction by ZEFSAII (Michael W. Deem and Ramdas Pophale) SiO2 
 PCOD9317181
Probable space group: C 2 2 21
;
_chemical_formula_sum "Si O2"
_cell_formula_units_Z 64
_cell_length_a 20.551267
_cell_length_b 27.805009
_cell_length_c 5.205747
_cell_angle_alpha 90.000000
_cell_angle_beta 90.000000
_cell_angle_gamma 90.000000
_cell_volume 2974.710450
_symmetry_space_group_name_H-M "C 2 2 21"
_symmetry_group_IT_number 20
_symmetry_cell_setting 'orthorhombic'
loop_
_space_group_symop_operation_xyz
x,y,z
-x,-y,1/2+z
x,-y,-z
-x,y,1/2-z
1/2+x,1/2+y,z
1/2-x,1/2-y,1/2+z
1/2+x,1/2-y,-z
1/2-x,1/2+y,1/2-z
loop_
_atom_site_type_symbol
_atom_site_label
_atom_site_fract_x
_atom_site_fract_y
_atom_site_fract_z
Si Si1 0.839793 0.825904 0.304546
Si Si2 0.324558 0.095206 0.490323
Si Si3 0.178056 0.112348 0.316960
Si Si4 0.424027 0.959888 0.205032
Si Si5 0.433855 0.131640 0.109212
Si Si6 0.874175 0.269797 0.844240
Si Si7 0.803355 0.303223 0.331581
Si Si8 0.928174 0.033160 0.251261
O O1 0.827736 0.848005 0.587238
O O2 0.891917 0.783319 0.257197
O O3 0.772775 0.800188 0.216514
O O4 0.847539 0.866537 0.088182
O O5 0.251621 0.093414 0.371589
O O6 0.363166 0.049110 0.601178
O O7 0.372648 0.113871 0.271793
O O8 0.318300 0.139615 0.694539
O O9 0.130309 0.070075 0.238679
O O10 0.500000 0.975406 0.250000
O O11 0.433736 0.903960 0.128994
O O12 0.401752 0.000000 0.000000
O O13 0.500000 0.118871 0.250000
O O14 0.428391 0.189263 0.101101
O O15 0.828388 0.289780 0.613577
O O16 0.838144 0.271156 0.118405
O O17 0.000000 0.057006 0.250000
O O18 0.925969 0.000000 0.500000
O O19 0.922614 0.000000 0.000000
#
# Coordination Sequence:
#
# PCOD9317181 Si02
#       8
#     8   8   8   8   8   8   8   8
#     4  11  21  37  60  97 138 169 208 271 342 414
#     4  10  23  40  63  91 130 174 225 290 354 417
#     4  11  24  42  67 102 142 170 213 280 351 412
#     4  12  25  43  65  91 127 183 250 311 370 426
#     4  11  22  41  61  85 128 182 242 288 346 406
#     4  11  21  35  60  89 122 174 228 274 330 402
#     4  10  19  35  58  87 121 169 218 267 329 404
#     4  10  22  46  76 102 130 176 226 263 322 422
#
# _framework density 21.514700000000001
#
# number of rings (size 3 to 8) (size 9 to 14) (size 15 to 20)
#    0.000    1.250    2.500    4.875    1.750    0.000 
#    2.250    1.250    0.000    0.000    0.000    0.000 
#    0.000    0.000    0.000    0.000    0.000    0.000 
#
# Total GULP energy -178274.294295 kJ/mol
# GULP energy per Si atom -5571.071697 kJ/mol
# Density = 2.146573 g / cm^3
# Si number density = 21.514700 Si / 1000 Ang^3
#
#
#
# Elastic Constant Matrix: (Units=GPa)
#
#
# Indices 1 2 3 4 5 6 
#
# 1 93.0629 58.7179 17.0439 0.0000 0.0000 0.0000
# 2 58.7179 85.3856 36.0416 0.0000 0.0000 0.0000
# 3 17.0439 36.0416 95.3174 0.0000 0.0000 0.0000
# 4 0.0000 0.0000 0.0000 -44.3541 0.0000 0.0000
# 5 0.0000 0.0000 0.0000 0.0000 25.1329 0.0000
# 6 0.0000 0.0000 0.0000 0.0000 0.0000 30.6542
#
#
#
# Elastic Compliance Matrix: (Units=1/GPa)
#
#
# Indices 1 2 3 4 5 6 
#
# 1 0.019255 -0.014026 0.001861 0.000000 0.000000 0.000000
# 2 -0.014026 0.024154 -0.006625 0.000000 0.000000 0.000000
# 3 0.001861 -0.006625 0.012664 0.000000 0.000000 0.000000
# 4 0.000000 0.000000 0.000000 -0.022546 0.000000 0.000000
# 5 0.000000 0.000000 0.000000 0.000000 0.039788 0.000000
# 6 0.000000 0.000000 0.000000 0.000000 0.000000 0.032622
#
#
# Mechanical properties :
#
#
# Convention : Reuss Voigt Hill
#
# Bulk Modulus (GPa) = 54.08150 55.26363 54.67257
# Shear Modulus (GPa) = 33.40434 13.08409 23.24422
#
# Velocity S-wave (km/s) = 3.94462 2.46874 3.29049
# Velocity P-wave (km/s) = 6.77777 5.81966 6.31691
#
# Compressibility (1/GPa) = 0.01849061
#
# Stress axis : x y z
#
# Youngs Moduli (GPa) = 51.93576 41.40162 78.96658
#
# Poissons Ratio (x) = 0.58071 -0.14694
# Poissons Ratio (y) = 0.72847 0.52315
# Poissons Ratio (z) = -0.09664 0.27428
#
# Static dielectric constant tensor:
#      x y z
#    x 2.188480 0.000000 0.000000 
#    y 0.000000 1.860080 0.000000 
#    z 0.000000 0.000000 1.816240 
# 
# From -- ./inp_files/3404.got.cif
#   From: 2010.05.17/outbox.cif.g08.bks.cpg/sg20_2_cif.got.tgz:3404.got - 2010.06.03 22:52:26.
