data_PCOD9317755
_publ_section_title
;
Structure prediction by ZEFSAII (Michael W. Deem and Ramdas Pophale) SiO2 
 PCOD9317755
Probable space group: C 2 2 21
;
_chemical_formula_sum "Si O2"
_cell_formula_units_Z 48
_cell_length_a 13.415411
_cell_length_b 17.386841
_cell_length_c 9.898149
_cell_angle_alpha 90.000000
_cell_angle_beta 90.000000
_cell_angle_gamma 90.000000
_cell_volume 2308.759270
_symmetry_space_group_name_H-M "C 2 2 21"
_symmetry_group_IT_number 20
_symmetry_cell_setting 'orthorhombic'
loop_
_space_group_symop_operation_xyz
x,y,z
-x,-y,1/2+z
x,-y,-z
-x,y,1/2-z
1/2+x,1/2+y,z
1/2-x,1/2-y,1/2+z
1/2+x,1/2-y,-z
1/2-x,1/2+y,1/2-z
loop_
_atom_site_type_symbol
_atom_site_label
_atom_site_fract_x
_atom_site_fract_y
_atom_site_fract_z
Si Si1 0.918237 0.715422 0.365020
Si Si2 0.635406 0.378764 0.015491
Si Si3 0.309733 0.953195 0.131884
Si Si4 0.757300 0.594118 0.266088
Si Si5 0.436942 0.629806 0.109834
Si Si6 0.445000 0.806257 0.107603
O O1 0.869599 0.792057 0.428634
O O2 0.833365 0.661062 0.304488
O O3 0.000000 0.734555 0.250000
O O4 0.978909 0.674855 0.486812
O O5 0.692513 0.434507 0.116668
O O6 0.701616 0.384547 0.877172
O O7 0.520173 0.399863 0.992845
O O8 0.363523 0.871844 0.127961
O O9 0.317368 0.014544 0.250748
O O10 0.344254 0.000000 0.000000
O O11 0.666370 0.587187 0.370296
O O12 0.500000 0.630177 0.250000
O O13 0.409802 0.719067 0.077851
O O14 0.500000 0.801622 0.250000
#
# Coordination Sequence:
#
# PCOD9317755 Si02
#       6
#     8   8   8   8   8   8
#     4  11  22  37  62  93 117 153 207 251 293 359
#     4   9  19  36  57  83 117 156 197 247 304 356
#     4  10  20  35  56  84 119 157 191 240 309 361
#     4  10  20  36  60  87 118 155 197 248 306 362
#     4   8  16  34  59  81 105 149 200 242 289 348
#     4  10  21  38  61  86 120 160 197 246 303 358
#
# _framework density 20.790388
#
# number of rings (size 3 to 8) (size 9 to 14) (size 15 to 20)
#    0.000    2.333    0.000    4.000    0.000    3.333 
#    0.000    5.833    0.000    4.000    0.000    0.000 
#    0.000    0.000    0.000    0.000    0.000    0.000 
#
# Total GULP energy -133824.296148 kJ/mol
# GULP energy per Si atom -5576.012340 kJ/mol
# Density = 2.074307 g / cm^3
# Si number density = 20.790388 Si / 1000 Ang^3
#
#
#
# Elastic Constant Matrix: (Units=GPa)
#
#
# Indices 1 2 3 4 5 6 
#
# 1 49.2166 21.0215 21.2957 0.0000 0.0000 0.0000
# 2 21.0215 64.2757 12.0125 0.0000 0.0000 0.0000
# 3 21.2957 12.0125 48.0616 0.0000 0.0000 0.0000
# 4 0.0000 0.0000 0.0000 20.3944 0.0000 0.0000
# 5 0.0000 0.0000 0.0000 0.0000 22.6752 0.0000
# 6 0.0000 0.0000 0.0000 0.0000 0.0000 13.0259
#
#
#
# Elastic Compliance Matrix: (Units=1/GPa)
#
#
# Indices 1 2 3 4 5 6 
#
# 1 0.027965 -0.007165 -0.010600 0.000000 0.000000 0.000000
# 2 -0.007165 0.018156 -0.001363 0.000000 0.000000 0.000000
# 3 -0.010600 -0.001363 0.025844 0.000000 0.000000 0.000000
# 4 0.000000 0.000000 0.000000 0.049033 0.000000 0.000000
# 5 0.000000 0.000000 0.000000 0.000000 0.044101 0.000000
# 6 0.000000 0.000000 0.000000 0.000000 0.000000 0.076770
#
#
# Mechanical properties :
#
#
# Convention : Reuss Voigt Hill
#
# Bulk Modulus (GPa) = 29.66605 30.02371 29.84488
# Shear Modulus (GPa) = 17.16069 18.36738 17.76403
#
# Velocity S-wave (km/s) = 2.87612 2.97552 2.92624
# Velocity P-wave (km/s) = 5.03284 5.12616 5.07971
#
# Compressibility (1/GPa) = 0.03370856
#
# Stress axis : x y z
#
# Youngs Moduli (GPa) = 35.75844 55.07798 38.69326
#
# Poissons Ratio (x) = 0.39464 0.41016
# Poissons Ratio (y) = 0.25621 0.05274
# Poissons Ratio (z) = 0.37905 0.07508
#
# Static dielectric constant tensor:
#      x y z
#    x 1.761430 0.000000 0.000000 
#    y 0.000000 1.755920 0.000000 
#    z 0.000000 0.000000 1.798530 
# 
# From -- ./inp_files/8381.got.cif
#   From: 2010.05.17/outbox.cif.g08.bks.cpg/sg20_5_cif.got.tgz:8381.got - 2010.06.03 22:52:26.
