data_PCOD9317806
_publ_section_title
;
Structure prediction by ZEFSAII (Michael W. Deem and Ramdas Pophale) SiO2 
 PCOD9317806
Probable space group: C 2 2 21
;
_chemical_formula_sum "Si O2"
_cell_formula_units_Z 36
_cell_length_a 34.516839
_cell_length_b 10.761186
_cell_length_c 5.160021
_cell_angle_alpha 90.000000
_cell_angle_beta 90.000000
_cell_angle_gamma 90.000000
_cell_volume 1916.649163
_symmetry_space_group_name_H-M "C 2 2 21"
_symmetry_group_IT_number 20
_symmetry_cell_setting 'orthorhombic'
loop_
_space_group_symop_operation_xyz
x,y,z
-x,-y,1/2+z
x,-y,-z
-x,y,1/2-z
1/2+x,1/2+y,z
1/2-x,1/2-y,1/2+z
1/2+x,1/2-y,-z
1/2-x,1/2+y,1/2-z
loop_
_atom_site_type_symbol
_atom_site_label
_atom_site_fract_x
_atom_site_fract_y
_atom_site_fract_z
Si Si1 0.114277 0.651592 0.487834
Si Si2 0.023403 0.650906 0.497285
Si Si3 0.160541 0.726104 0.976924
Si Si4 0.264090 0.674005 0.343267
Si Si5 0.780936 0.500000 0.500000
O O1 0.118892 0.500000 0.500000
O O2 0.068670 0.680301 0.471831
O O3 0.129855 0.712213 0.749919
O O4 0.139109 0.706200 0.249315
O O5 0.021968 0.500000 0.500000
O O6 0.000000 0.693441 0.750000
O O7 0.000000 0.695986 0.250000
O O8 0.191293 0.836524 0.933271
O O9 0.190166 0.611541 0.940661
O O10 0.241178 0.738450 0.583125
O O11 0.245417 0.547740 0.235080
#
# Coordination Sequence:
#
# PCOD9317806 Si02
#       5
#     8   8   8   8   4
#     4  11  19  30  46  68  93 126 161 209 253 277
#     4   9  17  28  42  61  89 122 159 194 234 288
#     4  11  20  31  48  70  93 124 171 214 250 295
#     4  10  22  34  50  70  94 127 171 219 269 300
#     4  10  20  36  50  66  96 130 168 216 258 302
#
# _framework density 18.782779999999999
#
# number of rings (size 3 to 8) (size 9 to 14) (size 15 to 20)
#    0.000    1.778    2.222    4.000    0.000    6.222 
#    0.000    0.000    0.000    0.000    0.000    0.000 
#    0.000    0.000    0.000    6.000    0.000   15.111 
#
# Total GULP energy -100364.421849 kJ/mol
# GULP energy per Si atom -5575.801214 kJ/mol
# Density = 1.874003 g / cm^3
# Si number density = 18.782780 Si / 1000 Ang^3
#
#
#
# Elastic Constant Matrix: (Units=GPa)
#
#
# Indices 1 2 3 4 5 6 
#
# 1 136.3099 11.4822 50.3357 0.0000 0.0000 0.0000
# 2 11.4822 21.4198 9.6928 0.0000 0.0000 0.0000
# 3 50.3357 9.6928 145.5837 0.0000 0.0000 0.0000
# 4 0.0000 0.0000 0.0000 18.7127 0.0000 0.0000
# 5 0.0000 0.0000 0.0000 0.0000 31.0544 0.0000
# 6 0.0000 0.0000 0.0000 0.0000 0.0000 15.3290
#
#
#
# Elastic Compliance Matrix: (Units=1/GPa)
#
#
# Indices 1 2 3 4 5 6 
#
# 1 0.008641 -0.003382 -0.002763 0.000000 0.000000 0.000000
# 2 -0.003382 0.049460 -0.002124 0.000000 0.000000 0.000000
# 3 -0.002763 -0.002124 0.007965 0.000000 0.000000 0.000000
# 4 0.000000 0.000000 0.000000 0.053440 0.000000 0.000000
# 5 0.000000 0.000000 0.000000 0.000000 0.032202 0.000000
# 6 0.000000 0.000000 0.000000 0.000000 0.000000 0.065236
#
#
# Mechanical properties :
#
#
# Convention : Reuss Voigt Hill
#
# Bulk Modulus (GPa) = 20.18983 49.59277 34.89130
# Shear Modulus (GPa) = 20.00081 28.47274 24.23677
#
# Velocity S-wave (km/s) = 3.26674 3.89767 3.59607
# Velocity P-wave (km/s) = 5.00013 6.83494 5.98823
#
# Compressibility (1/GPa) = 0.04952988
#
# Stress axis : x y z
#
# Youngs Moduli (GPa) = 115.72393 20.21849 125.54236
#
# Poissons Ratio (x) = 0.06838 0.34682
# Poissons Ratio (y) = 0.39139 0.26660
# Poissons Ratio (z) = 0.31969 0.04294
#
# Static dielectric constant tensor:
#      x y z
#    x 1.670760 0.000000 0.000000 
#    y 0.000000 1.759480 0.000000 
#    z 0.000000 0.000000 1.648590 
# 
# From -- ./inp_files/4565.got.cif
#   From: 2010.05.17/outbox.cif.g08.bks.cpg/sg20_3_cif.got.tgz:4565.got - 2010.06.03 22:52:26.
