data_PCOD9317768
_publ_section_title
;
Structure prediction by ZEFSAII (Michael W. Deem and Ramdas Pophale) SiO2 
 PCOD9317768
Probable space group: C 2 2 21
;
_chemical_formula_sum "Si O2"
_cell_formula_units_Z 44
_cell_length_a 9.994198
_cell_length_b 23.043273
_cell_length_c 9.940280
_cell_angle_alpha 90.000000
_cell_angle_beta 90.000000
_cell_angle_gamma 90.000000
_cell_volume 2289.236871
_symmetry_space_group_name_H-M "C 2 2 21"
_symmetry_group_IT_number 20
_symmetry_cell_setting 'orthorhombic'
loop_
_space_group_symop_operation_xyz
x,y,z
-x,-y,1/2+z
x,-y,-z
-x,y,1/2-z
1/2+x,1/2+y,z
1/2-x,1/2-y,1/2+z
1/2+x,1/2-y,-z
1/2-x,1/2+y,1/2-z
loop_
_atom_site_type_symbol
_atom_site_label
_atom_site_fract_x
_atom_site_fract_y
_atom_site_fract_z
Si Si1 0.830854 0.212387 0.368342
Si Si2 0.085642 0.000000 0.000000
Si Si3 0.125796 0.222012 0.448245
Si Si4 0.208414 0.913927 0.805702
Si Si5 0.868611 0.500000 0.500000
Si Si6 0.137784 0.912016 0.499792
Si Si7 0.500000 0.059102 0.250000
O O1 0.819429 0.222175 0.206620
O O2 0.708536 0.236059 0.455051
O O3 0.844853 0.142924 0.379500
O O4 0.969729 0.237391 0.427061
O O5 0.177547 0.971299 0.887857
O O6 0.987784 0.948844 0.053025
O O7 0.138252 0.157285 0.513310
O O8 0.138463 0.920015 0.661834
O O9 0.366546 0.905339 0.783651
O O10 0.771285 0.446730 0.456567
O O11 0.957613 0.520638 0.376671
#
# Coordination Sequence:
#
# PCOD9317768 Si02
#       7
#     8   4   8   8   4   8   4
#     4  10  22  40  64  86 123 161 214 262 315 370
#     4  11  17  32  62  88 109 149 204 250 294 363
#     4  10  21  41  62  89 119 164 209 262 312 375
#     4  10  20  35  58  86 117 159 199 251 306 375
#     4   9  19  34  56  82 115 159 188 240 302 367
#     4   9  19  36  58  82 116 156 198 248 307 361
#     4  10  20  36  54  86 120 156 194 238 308 376
#
# _framework density 19.220379000000001
#
# number of rings (size 3 to 8) (size 9 to 14) (size 15 to 20)
#    0.000    2.182    1.818    1.091    0.000    5.091 
#    0.000   10.909    0.000    0.000    0.000    0.000 
#    0.000    0.000    0.000    0.000    0.000    0.000 
#
# Total GULP energy -122694.801320 kJ/mol
# GULP energy per Si atom -5577.036424 kJ/mol
# Density = 1.917663 g / cm^3
# Si number density = 19.220379 Si / 1000 Ang^3
#
#
#
# Elastic Constant Matrix: (Units=GPa)
#
#
# Indices 1 2 3 4 5 6 
#
# 1 89.8825 9.4028 26.4288 0.0000 0.0000 0.0000
# 2 9.4028 57.1513 22.5101 0.0000 0.0000 0.0000
# 3 26.4288 22.5101 32.9145 0.0000 0.0000 0.0000
# 4 0.0000 0.0000 0.0000 26.9958 0.0000 0.0000
# 5 0.0000 0.0000 0.0000 0.0000 33.8207 0.0000
# 6 0.0000 0.0000 0.0000 0.0000 0.0000 21.9671
#
#
#
# Elastic Compliance Matrix: (Units=1/GPa)
#
#
# Indices 1 2 3 4 5 6 
#
# 1 0.014957 0.003106 -0.014134 0.000000 0.000000 0.000000
# 2 0.003106 0.024593 -0.019313 0.000000 0.000000 0.000000
# 3 -0.014134 -0.019313 0.054939 0.000000 0.000000 0.000000
# 4 0.000000 0.000000 0.000000 0.037043 0.000000 0.000000
# 5 0.000000 0.000000 0.000000 0.000000 0.029568 0.000000
# 6 0.000000 0.000000 0.000000 0.000000 0.000000 0.045523
#
#
# Mechanical properties :
#
#
# Convention : Reuss Voigt Hill
#
# Bulk Modulus (GPa) = 29.57984 32.95909 31.26947
# Shear Modulus (GPa) = 17.94866 24.66380 21.30623
#
# Velocity S-wave (km/s) = 3.05919 3.58608 3.33306
# Velocity P-wave (km/s) = 5.28218 5.85934 5.57823
#
# Compressibility (1/GPa) = 0.03380681
#
# Stress axis : x y z
#
# Youngs Moduli (GPa) = 66.86045 40.66153 18.20210
#
# Poissons Ratio (x) = -0.12630 0.25726
# Poissons Ratio (y) = -0.20767 0.35154
# Poissons Ratio (z) = 0.94498 0.78531
#
# Static dielectric constant tensor:
#      x y z
#    x 1.700150 0.000000 0.000000 
#    y 0.000000 1.662250 0.000000 
#    z 0.000000 0.000000 1.641960 
# 
# From -- ./inp_files/7352.got.cif
#   From: 2010.05.17/outbox.cif.g08.bks.cpg/sg20_4_cif.got.tgz:7352.got - 2010.06.03 22:52:26.
