data_PCOD9317939
_publ_section_title
;
Structure prediction by ZEFSAII (Michael W. Deem and Ramdas Pophale) SiO2 
 PCOD9317939
Probable space group: C 2 2 21
;
_chemical_formula_sum "Si O2"
_cell_formula_units_Z 40
_cell_length_a 11.826923
_cell_length_b 14.333653
_cell_length_c 9.985755
_cell_angle_alpha 90.000000
_cell_angle_beta 90.000000
_cell_angle_gamma 90.000000
_cell_volume 1692.815248
_symmetry_space_group_name_H-M "C 2 2 21"
_symmetry_group_IT_number 20
_symmetry_cell_setting 'orthorhombic'
loop_
_space_group_symop_operation_xyz
x,y,z
-x,-y,1/2+z
x,-y,-z
-x,y,1/2-z
1/2+x,1/2+y,z
1/2-x,1/2-y,1/2+z
1/2+x,1/2-y,-z
1/2-x,1/2+y,1/2-z
loop_
_atom_site_type_symbol
_atom_site_label
_atom_site_fract_x
_atom_site_fract_y
_atom_site_fract_z
Si Si1 0.133409 0.519926 0.753026
Si Si2 0.135906 0.197240 0.474018
Si Si3 0.215039 0.000000 0.000000
Si Si4 0.570697 0.334514 0.123667
Si Si5 0.775225 0.000000 0.000000
Si Si6 0.221407 0.732080 0.784368
O O1 0.200413 0.483700 0.623936
O O2 0.162694 0.630152 0.772592
O O3 0.000000 0.505635 0.750000
O O4 0.193044 0.473785 0.879311
O O5 0.146278 0.204851 0.314224
O O6 0.233871 0.247839 0.564074
O O7 0.012348 0.224146 0.527772
O O8 0.148982 0.090225 0.520055
O O9 0.134669 0.915014 0.042823
O O10 0.500000 0.375254 0.250000
O O11 0.662205 0.272584 0.200623
#
# Coordination Sequence:
#
# PCOD9317939 Si02
#       6
#     8   8   4   8   4   8
#     4  10  21  39  58  84 122 159 199 252 302 362
#     4  10  20  38  59  84 118 155 197 253 307 360
#     4  10  20  36  64  94 118 158 214 248 302 380
#     4   9  19  37  58  84 120 155 194 255 309 359
#     4  10  22  38  58  84 120 158 196 248 314 366
#     4   9  21  37  57  84 114 153 201 243 301 371
#
# _framework density 23.629276999999998
#
# number of rings (size 3 to 8) (size 9 to 14) (size 15 to 20)
#    0.000    2.400    0.000    2.400    0.000    6.400 
#    0.000    5.000    0.000    0.000    0.000    0.000 
#    0.000    0.000    0.000    0.000    0.000    0.000 
#
# Total GULP energy -111670.585558 kJ/mol
# GULP energy per Si atom -5583.529278 kJ/mol
# Density = 2.357550 g / cm^3
# Si number density = 23.629277 Si / 1000 Ang^3
#
#
#
# Elastic Constant Matrix: (Units=GPa)
#
#
# Indices 1 2 3 4 5 6 
#
# 1 94.8021 -1.5075 29.4750 0.0000 0.0000 0.0000
# 2 -1.5075 33.8651 -6.2033 0.0000 0.0000 0.0000
# 3 29.4750 -6.2033 130.8346 0.0000 0.0000 0.0000
# 4 0.0000 0.0000 0.0000 32.0727 0.0000 0.0000
# 5 0.0000 0.0000 0.0000 0.0000 41.4309 0.0000
# 6 0.0000 0.0000 0.0000 0.0000 0.0000 6.0459
#
#
#
# Elastic Compliance Matrix: (Units=1/GPa)
#
#
# Indices 1 2 3 4 5 6 
#
# 1 0.011343 0.000037 -0.002554 0.000000 0.000000 0.000000
# 2 0.000037 0.029788 0.001404 0.000000 0.000000 0.000000
# 3 -0.002554 0.001404 0.008285 0.000000 0.000000 0.000000
# 4 0.000000 0.000000 0.000000 0.031179 0.000000 0.000000
# 5 0.000000 0.000000 0.000000 0.000000 0.024137 0.000000
# 6 0.000000 0.000000 0.000000 0.000000 0.000000 0.165401
#
#
# Mechanical properties :
#
#
# Convention : Reuss Voigt Hill
#
# Bulk Modulus (GPa) = 21.19058 33.67000 27.43029
# Shear Modulus (GPa) = 17.35584 31.75906 24.55745
#
# Velocity S-wave (km/s) = 2.71312 3.67011 3.22729
# Velocity P-wave (km/s) = 4.33614 5.67801 5.05183
#
# Compressibility (1/GPa) = 0.04719077
#
# Stress axis : x y z
#
# Youngs Moduli (GPa) = 88.16145 33.57080 120.69868
#
# Poissons Ratio (x) = -0.00125 0.30822
# Poissons Ratio (y) = -0.00328 -0.16946
# Poissons Ratio (z) = 0.22513 -0.04713
#
# Static dielectric constant tensor:
#      x y z
#    x 1.956240 0.000000 0.000000 
#    y 0.000000 1.872620 0.000000 
#    z 0.000000 0.000000 1.905670 
# 
# From -- ./inp_files/7099.got.cif
#   From: 2010.05.17/outbox.cif.g08.bks.cpg/sg20_4_cif.got.tgz:7099.got - 2010.06.03 22:52:26.
