data_PCOD9317471
_publ_section_title
;
Structure prediction by ZEFSAII (Michael W. Deem and Ramdas Pophale) SiO2 
 PCOD9317471
Probable space group: C 2 2 21
;
_chemical_formula_sum "Si O2"
_cell_formula_units_Z 24
_cell_length_a 10.623358
_cell_length_b 10.833759
_cell_length_c 7.966688
_cell_angle_alpha 90.000000
_cell_angle_beta 90.000000
_cell_angle_gamma 90.000000
_cell_volume 916.893295
_symmetry_space_group_name_H-M "C 2 2 21"
_symmetry_group_IT_number 20
_symmetry_cell_setting 'orthorhombic'
loop_
_space_group_symop_operation_xyz
x,y,z
-x,-y,1/2+z
x,-y,-z
-x,y,1/2-z
1/2+x,1/2+y,z
1/2-x,1/2-y,1/2+z
1/2+x,1/2-y,-z
1/2-x,1/2+y,1/2-z
loop_
_atom_site_type_symbol
_atom_site_label
_atom_site_fract_x
_atom_site_fract_y
_atom_site_fract_z
Si Si1 0.500000 0.008137 0.250000
Si Si2 0.056197 0.252198 0.575654
Si Si3 0.761842 0.925448 0.171025
Si Si4 0.500000 0.590181 0.250000
O O1 0.486835 0.107641 0.095913
O O2 0.627396 0.930343 0.257533
O O3 0.200285 0.213067 0.613142
O O4 0.000000 0.201360 0.750000
O O5 0.012686 0.175128 0.415755
O O6 0.871666 0.007715 0.259355
O O7 0.745505 0.000000 0.000000
#
# Coordination Sequence:
#
# PCOD9317471 Si02
#       4
#     4   8   8   4
#     4  10  23  44  65 100 142 172 229 284 335 414
#     4   9  21  42  69  96 131 180 225 275 339 407
#     4  10  21  42  67 101 137 177 232 282 337 416
#     4  10  19  38  73  94 132 180 225 282 337 402
#
# _framework density 26.175346999999999
#
# number of rings (size 3 to 8) (size 9 to 14) (size 15 to 20)
#    1.000    1.333    1.667    0.000    0.000    5.333 
#    6.000    3.333    7.333    0.000    0.000    0.000 
#    0.000    0.000    0.000    0.000    0.000    0.000 
#
# Total GULP energy -66914.923437 kJ/mol
# GULP energy per Si atom -5576.243620 kJ/mol
# Density = 2.611577 g / cm^3
# Si number density = 26.175347 Si / 1000 Ang^3
#
#
#
# Elastic Constant Matrix: (Units=GPa)
#
#
# Indices 1 2 3 4 5 6 
#
# 1 189.1190 69.0471 35.4940 0.0000 0.0000 0.0000
# 2 69.0471 132.3409 28.8174 0.0000 0.0000 0.0000
# 3 35.4940 28.8174 127.2839 0.0000 0.0000 0.0000
# 4 0.0000 0.0000 0.0000 121.0235 0.0000 0.0000
# 5 0.0000 0.0000 0.0000 0.0000 39.6111 0.0000
# 6 0.0000 0.0000 0.0000 0.0000 0.0000 11.0939
#
#
#
# Elastic Compliance Matrix: (Units=1/GPa)
#
#
# Indices 1 2 3 4 5 6 
#
# 1 0.006683 -0.003241 -0.001130 0.000000 0.000000 0.000000
# 2 -0.003241 0.009520 -0.001252 0.000000 0.000000 0.000000
# 3 -0.001130 -0.001252 0.008455 0.000000 0.000000 0.000000
# 4 0.000000 0.000000 0.000000 0.008263 0.000000 0.000000
# 5 0.000000 0.000000 0.000000 0.000000 0.025245 0.000000
# 6 0.000000 0.000000 0.000000 0.000000 0.000000 0.090139
#
#
# Mechanical properties :
#
#
# Convention : Reuss Voigt Hill
#
# Bulk Modulus (GPa) = 74.55401 79.49565 77.02483
# Shear Modulus (GPa) = 30.48404 55.37140 42.92772
#
# Velocity S-wave (km/s) = 3.41634 4.60434 4.05409
# Velocity P-wave (km/s) = 6.64125 7.66179 7.16970
#
# Compressibility (1/GPa) = 0.01341310
#
# Stress axis : x y z
#
# Youngs Moduli (GPa) = 149.63567 105.04696 118.27480
#
# Poissons Ratio (x) = 0.34042 0.13364
# Poissons Ratio (y) = 0.48492 0.14803
# Poissons Ratio (z) = 0.16907 0.13147
#
# Static dielectric constant tensor:
#      x y z
#    x 0.332780 0.000000 0.000000 
#    y 0.000000 2.058190 0.000000 
#    z 0.000000 0.000000 2.118910 
# 
# From -- ./inp_files/5545.got.cif
#   From: 2010.05.17/outbox.cif.g08.bks.cpg/sg20_3_cif.got.tgz:5545.got - 2010.06.03 22:52:26.
