data_PCOD9317444
_publ_section_title
;
Structure prediction by ZEFSAII (Michael W. Deem and Ramdas Pophale) SiO2 
 PCOD9317444
Probable space group: C 2 2 21
;
_chemical_formula_sum "Si O2"
_cell_formula_units_Z 48
_cell_length_a 7.959324
_cell_length_b 23.725466
_cell_length_c 12.157974
_cell_angle_alpha 90.000000
_cell_angle_beta 90.000000
_cell_angle_gamma 90.000000
_cell_volume 2295.895652
_symmetry_space_group_name_H-M "C 2 2 21"
_symmetry_group_IT_number 20
_symmetry_cell_setting 'orthorhombic'
loop_
_space_group_symop_operation_xyz
x,y,z
-x,-y,1/2+z
x,-y,-z
-x,y,1/2-z
1/2+x,1/2+y,z
1/2-x,1/2-y,1/2+z
1/2+x,1/2-y,-z
1/2-x,1/2+y,1/2-z
loop_
_atom_site_type_symbol
_atom_site_label
_atom_site_fract_x
_atom_site_fract_y
_atom_site_fract_z
Si Si1 0.668212 0.932711 0.178443
Si Si2 0.698435 0.196233 0.764617
Si Si3 0.668675 0.358025 0.064704
Si Si4 0.500000 0.887258 0.750000
Si Si5 0.828903 0.817256 0.678563
Si Si6 0.000000 0.933584 0.250000
Si Si7 0.545891 0.059804 0.483189
O O1 0.500000 0.941595 0.250000
O O2 0.720738 0.866566 0.187879
O O3 0.829006 0.966016 0.222223
O O4 0.621102 0.944501 0.054907
O O5 0.500000 0.199464 0.750000
O O6 0.789819 0.193719 0.646501
O O7 0.739488 0.252699 0.829916
O O8 0.550760 0.397933 0.139610
O O9 0.620282 0.339031 0.942920
O O10 0.840892 0.392306 0.040605
O O11 0.672540 0.851212 0.733263
O O12 0.498528 0.924811 0.859632
O O13 0.000000 0.819881 0.750000
O O14 0.636596 0.000000 0.500000
#
# Coordination Sequence:
#
# PCOD9317444 Si02
#       7
#     8   8   8   4   8   4   8
#     4  10  19  38  63  90 121 154 213 260 297 366
#     4   9  17  37  61  89 119 168 202 251 299 375
#     4  10  21  41  60  95 127 159 218 260 306 381
#     4  10  26  41  62  96 130 166 210 255 322 378
#     4  10  23  41  60  92 133 167 201 258 328 369
#     4  10  20  35  68  88 116 166 198 257 314 358
#     4  11  23  42  71  87 125 170 210 268 318 364
#
# _framework density 20.906873000000001
#
# number of rings (size 3 to 8) (size 9 to 14) (size 15 to 20)
#    0.000    2.000    5.000    0.000    3.500    4.000 
#   12.000    0.833    9.167    0.000    0.000    0.000 
#    0.000    0.000    0.000    0.000    0.000    0.000 
#
# Total GULP energy -133651.880380 kJ/mol
# GULP energy per Si atom -5568.828349 kJ/mol
# Density = 2.085929 g / cm^3
# Si number density = 20.906873 Si / 1000 Ang^3
#
#
#
# Elastic Constant Matrix: (Units=GPa)
#
#
# Indices 1 2 3 4 5 6 
#
# 1 108.0396 -1.9628 39.4413 0.0000 0.0000 0.0000
# 2 -1.9628 47.3090 20.0097 0.0000 0.0000 0.0000
# 3 39.4413 20.0097 124.8188 0.0000 0.0000 0.0000
# 4 0.0000 0.0000 0.0000 1.3864 0.0000 0.0000
# 5 0.0000 0.0000 0.0000 0.0000 31.1409 0.0000
# 6 0.0000 0.0000 0.0000 0.0000 0.0000 -25.7230
#
#
#
# Elastic Compliance Matrix: (Units=1/GPa)
#
#
# Indices 1 2 3 4 5 6 
#
# 1 0.010636 0.001998 -0.003681 0.000000 0.000000 0.000000
# 2 0.001998 0.023051 -0.004327 0.000000 0.000000 0.000000
# 3 -0.003681 -0.004327 0.009868 0.000000 0.000000 0.000000
# 4 0.000000 0.000000 0.000000 0.721309 0.000000 0.000000
# 5 0.000000 0.000000 0.000000 0.000000 0.032112 0.000000
# 6 0.000000 0.000000 0.000000 0.000000 0.000000 -0.038876
#
#
# Mechanical properties :
#
#
# Convention : Reuss Voigt Hill
#
# Bulk Modulus (GPa) = 31.70995 43.90487 37.80741
# Shear Modulus (GPa) = 6.40507 16.20613 11.30560
#
# Velocity S-wave (km/s) = 1.75222 2.78719 2.32795
# Velocity P-wave (km/s) = 4.39248 5.60390 5.03476
#
# Compressibility (1/GPa) = 0.03153584
#
# Stress axis : x y z
#
# Youngs Moduli (GPa) = 94.01991 43.38293 101.33312
#
# Poissons Ratio (x) = -0.08669 0.37303
# Poissons Ratio (y) = -0.18788 0.43843
# Poissons Ratio (z) = 0.34611 0.18770
#
# Static dielectric constant tensor:
#      x y z
#    x 1.818240 0.000000 0.000000 
#    y 0.000000 1.826720 0.000000 
#    z 0.000000 0.000000 1.776780 
# 
# From -- ./inp_files/13125.got.cif
#   From: 2010.05.17/outbox.cif.g08.bks.cpg/sg20_7_cif.got.tgz:13125.got - 2010.06.03 22:52:26.
