data_PCOD9317580
_publ_section_title
;
Structure prediction by ZEFSAII (Michael W. Deem and Ramdas Pophale) SiO2 
 PCOD9317580
Probable space group: C 2 2 21
;
_chemical_formula_sum "Si O2"
_cell_formula_units_Z 56
_cell_length_a 22.390347
_cell_length_b 6.327637
_cell_length_c 23.259727
_cell_angle_alpha 90.000000
_cell_angle_beta 90.000000
_cell_angle_gamma 90.000000
_cell_volume 3295.391326
_symmetry_space_group_name_H-M "C 2 2 21"
_symmetry_group_IT_number 20
_symmetry_cell_setting 'orthorhombic'
loop_
_space_group_symop_operation_xyz
x,y,z
-x,-y,1/2+z
x,-y,-z
-x,y,1/2-z
1/2+x,1/2+y,z
1/2-x,1/2-y,1/2+z
1/2+x,1/2-y,-z
1/2-x,1/2+y,1/2-z
loop_
_atom_site_type_symbol
_atom_site_label
_atom_site_fract_x
_atom_site_fract_y
_atom_site_fract_z
Si Si1 0.801911 0.000000 0.000000
Si Si2 0.189790 0.838741 0.178192
Si Si3 0.248169 0.121023 0.941389
Si Si4 0.000000 0.418170 0.250000
Si Si5 0.898939 0.896573 0.745531
Si Si6 0.414751 0.781940 0.822870
Si Si7 0.310066 0.018319 0.761592
Si Si8 0.371297 0.879668 0.943849
O O1 0.842917 0.838355 0.034519
O O2 0.761538 0.138553 0.041899
O O3 0.204345 0.882793 0.112153
O O4 0.244498 0.943873 0.213866
O O5 0.190657 0.594466 0.199152
O O6 0.128275 0.945081 0.198531
O O7 0.313136 0.019972 0.925875
O O8 0.229260 0.000000 0.000000
O O9 0.049148 0.258778 0.224072
O O10 0.035727 0.569889 0.293262
O O11 0.845882 0.737517 0.763084
O O12 0.920452 0.043280 0.798809
O O13 0.413269 0.827610 0.890518
O O14 0.349652 0.858189 0.799819
O O15 0.397159 0.000000 0.000000
#
# Coordination Sequence:
#
# PCOD9317580 Si02
#       8
#     4   8   8   4   8   8   8   8
#     4   8  18  28  44  72 108 156 178 212 284 324
#     4  11  19  31  51  81 116 143 182 220 279 333
#     4   9  19  32  47  75 117 154 185 218 265 341
#     4  10  22  40  56  80 106 146 194 226 286 332
#     4  10  22  35  54  82 111 146 182 230 282 336
#     4  10  20  35  55  77 112 146 183 230 280 335
#     4  10  20  29  48  82 114 144 172 219 278 329
#     4   9  18  31  50  79 113 146 185 224 277 338
#
# _framework density 16.993428999999999
#
# number of rings (size 3 to 8) (size 9 to 14) (size 15 to 20)
#    0.000    2.571    2.857    0.429    2.000    3.429 
#    0.000    0.000    0.000    0.000   14.857    0.000 
#    0.000    0.000    0.000    0.000    0.000    0.000 
#
# Total GULP energy -155917.369580 kJ/mol
# GULP energy per Si atom -5568.477485 kJ/mol
# Density = 1.695475 g / cm^3
# Si number density = 16.993429 Si / 1000 Ang^3
#
#
#
# Elastic Constant Matrix: (Units=GPa)
#
#
# Indices 1 2 3 4 5 6 
#
# 1 54.6545 13.2393 21.1044 0.0000 0.0000 0.0000
# 2 13.2393 80.2709 19.0549 0.0000 0.0000 0.0000
# 3 21.1044 19.0549 101.1522 0.0000 0.0000 0.0000
# 4 0.0000 0.0000 0.0000 8.4271 0.0000 0.0000
# 5 0.0000 0.0000 0.0000 0.0000 18.8024 0.0000
# 6 0.0000 0.0000 0.0000 0.0000 0.0000 24.9789
#
#
#
# Elastic Compliance Matrix: (Units=1/GPa)
#
#
# Indices 1 2 3 4 5 6 
#
# 1 0.020353 -0.002459 -0.003783 0.000000 0.000000 0.000000
# 2 -0.002459 0.013338 -0.002000 0.000000 0.000000 0.000000
# 3 -0.003783 -0.002000 0.011052 0.000000 0.000000 0.000000
# 4 0.000000 0.000000 0.000000 0.118665 0.000000 0.000000
# 5 0.000000 0.000000 0.000000 0.000000 0.053185 0.000000
# 6 0.000000 0.000000 0.000000 0.000000 0.000000 0.040034
#
#
# Mechanical properties :
#
#
# Convention : Reuss Voigt Hill
#
# Bulk Modulus (GPa) = 35.38578 38.09720 36.74149
# Shear Modulus (GPa) = 17.69723 22.62027 20.15875
#
# Velocity S-wave (km/s) = 3.23060 3.65241 3.44796
# Velocity P-wave (km/s) = 5.89781 6.34462 6.12529
#
# Compressibility (1/GPa) = 0.02825994
#
# Stress axis : x y z
#
# Youngs Moduli (GPa) = 49.13218 74.97363 90.48030
#
# Poissons Ratio (x) = 0.18435 0.34232
# Poissons Ratio (y) = 0.12081 0.18092
# Poissons Ratio (z) = 0.18588 0.14992
#
# Static dielectric constant tensor:
#      x y z
#    x 1.575740 0.000000 0.000000 
#    y 0.000000 1.618960 0.000000 
#    z 0.000000 0.000000 1.597050 
# 
# From -- ./inp_files/26206.got.cif
#   From: 2010.05.17/outbox.cif.g08.bks.cpg/sg20_14_cif.got.tgz:26206.got - 2010.06.03 22:52:26.
