data_PCOD9317679
_publ_section_title
;
Structure prediction by ZEFSAII (Michael W. Deem and Ramdas Pophale) SiO2 
 PCOD9317679
Probable space group: C 2 2 21
;
_chemical_formula_sum "Si O2"
_cell_formula_units_Z 48
_cell_length_a 18.251000
_cell_length_b 15.586285
_cell_length_c 7.475887
_cell_angle_alpha 90.000000
_cell_angle_beta 90.000000
_cell_angle_gamma 90.000000
_cell_volume 2126.630345
_symmetry_space_group_name_H-M "C 2 2 21"
_symmetry_group_IT_number 20
_symmetry_cell_setting 'orthorhombic'
loop_
_space_group_symop_operation_xyz
x,y,z
-x,-y,1/2+z
x,-y,-z
-x,y,1/2-z
1/2+x,1/2+y,z
1/2-x,1/2-y,1/2+z
1/2+x,1/2-y,-z
1/2-x,1/2+y,1/2-z
loop_
_atom_site_type_symbol
_atom_site_label
_atom_site_fract_x
_atom_site_fract_y
_atom_site_fract_z
Si Si1 0.795989 0.972338 0.194289
Si Si2 0.500000 0.307606 0.750000
Si Si3 0.670821 0.343567 0.776707
Si Si4 0.859908 0.548334 0.808369
Si Si5 0.000000 0.548815 0.250000
Si Si6 0.699627 0.714748 0.632022
Si Si7 0.927536 0.686452 0.015402
O O1 0.708866 0.963340 0.185310
O O2 0.813351 0.873156 0.246156
O O3 0.808450 0.056955 0.314213
O O4 0.827875 0.000000 0.000000
O O5 0.581847 0.344215 0.793486
O O6 0.480146 0.254675 0.927564
O O7 0.689750 0.321866 0.568881
O O8 0.726130 0.272699 0.865645
O O9 0.930523 0.509291 0.716858
O O10 0.877073 0.645915 0.859672
O O11 0.847888 0.500000 0.000000
O O12 0.024045 0.610229 0.409317
O O13 0.629693 0.777027 0.659215
#
# Coordination Sequence:
#
# PCOD9317679 Si02
#       7
#     8   4   8   8   4   8   8
#     4  10  21  36  58  83 109 145 192 235 278 337
#     4  10  21  36  57  82 114 150 184 234 288 334
#     4  10  21  38  60  86 115 149 192 238 285 340
#     4  10  20  34  54  81 113 145 181 233 287 339
#     4  10  21  34  53  82 118 150 182 230 288 346
#     4  10  21  38  60  82 112 152 191 237 285 339
#     4  10  21  37  55  80 115 149 188 232 285 346
#
# _framework density 22.570919
#
# number of rings (size 3 to 8) (size 9 to 14) (size 15 to 20)
#    0.000    2.000    0.000    4.500    0.000    7.333 
#    0.000    0.833    0.000   17.000    0.000    0.000 
#    0.000    0.000    0.000    0.000    0.000    0.000 
#
# Total GULP energy -133606.643713 kJ/mol
# GULP energy per Si atom -5566.943488 kJ/mol
# Density = 2.251955 g / cm^3
# Si number density = 22.570919 Si / 1000 Ang^3
#
#
#
# Elastic Constant Matrix: (Units=GPa)
#
#
# Indices 1 2 3 4 5 6 
#
# 1 112.6339 65.4876 1.8868 0.0000 0.0000 0.0000
# 2 65.4876 156.9917 7.3876 0.0000 0.0000 0.0000
# 3 1.8868 7.3876 26.0823 0.0000 0.0000 0.0000
# 4 0.0000 0.0000 0.0000 18.1445 0.0000 0.0000
# 5 0.0000 0.0000 0.0000 0.0000 28.4042 0.0000
# 6 0.0000 0.0000 0.0000 0.0000 0.0000 55.0641
#
#
#
# Elastic Compliance Matrix: (Units=1/GPa)
#
#
# Indices 1 2 3 4 5 6 
#
# 1 0.011729 -0.004918 0.000545 0.000000 0.000000 0.000000
# 2 -0.004918 0.008518 -0.002057 0.000000 0.000000 0.000000
# 3 0.000545 -0.002057 0.038883 0.000000 0.000000 0.000000
# 4 0.000000 0.000000 0.000000 0.055113 0.000000 0.000000
# 5 0.000000 0.000000 0.000000 0.000000 0.035206 0.000000
# 6 0.000000 0.000000 0.000000 0.000000 0.000000 0.018161
#
#
# Mechanical properties :
#
#
# Convention : Reuss Voigt Hill
#
# Bulk Modulus (GPa) = 21.61261 49.47021 35.54141
# Shear Modulus (GPa) = 25.52398 35.05228 30.28813
#
# Velocity S-wave (km/s) = 3.36644 3.94507 3.66718
# Velocity P-wave (km/s) = 4.97059 6.53580 5.80618
#
# Compressibility (1/GPa) = 0.04626928
#
# Stress axis : x y z
#
# Youngs Moduli (GPa) = 85.26083 117.39682 25.71790
#
# Poissons Ratio (x) = 0.57738 -0.01401
# Poissons Ratio (y) = 0.41933 0.05290
# Poissons Ratio (z) = -0.04643 0.24148
#
# Static dielectric constant tensor:
#      x y z
#    x 1.835590 0.000000 0.000000 
#    y 0.000000 1.964520 0.000000 
#    z 0.000000 0.000000 1.937850 
# 
# From -- ./inp_files/9372.got.cif
#   From: 2010.05.17/outbox.cif.g08.bks.cpg/sg20_5_cif.got.tgz:9372.got - 2010.06.03 22:52:26.
