data_PCOD9317814
_publ_section_title
;
Structure prediction by ZEFSAII (Michael W. Deem and Ramdas Pophale) SiO2 
 PCOD9317814
Probable space group: C 2 2 21
;
_chemical_formula_sum "Si O2"
_cell_formula_units_Z 52
_cell_length_a 16.764152
_cell_length_b 22.427537
_cell_length_c 7.378881
_cell_angle_alpha 90.000000
_cell_angle_beta 90.000000
_cell_angle_gamma 90.000000
_cell_volume 2774.301638
_symmetry_space_group_name_H-M "C 2 2 21"
_symmetry_group_IT_number 20
_symmetry_cell_setting 'orthorhombic'
loop_
_space_group_symop_operation_xyz
x,y,z
-x,-y,1/2+z
x,-y,-z
-x,y,1/2-z
1/2+x,1/2+y,z
1/2-x,1/2-y,1/2+z
1/2+x,1/2-y,-z
1/2-x,1/2+y,1/2-z
loop_
_atom_site_type_symbol
_atom_site_label
_atom_site_fract_x
_atom_site_fract_y
_atom_site_fract_z
Si Si1 0.129933 0.275202 0.043540
Si Si2 0.293361 0.338181 0.450990
Si Si3 0.901375 0.929821 0.956560
Si Si4 0.421422 0.430378 0.528261
Si Si5 0.879408 0.690766 0.946344
Si Si6 0.500000 0.201691 0.250000
Si Si7 0.799671 0.815457 0.040594
O O1 0.164997 0.209184 0.084497
O O2 0.101212 0.307183 0.229938
O O3 0.208566 0.309989 0.971461
O O4 0.063433 0.267335 0.887614
O O5 0.350296 0.394447 0.438581
O O6 0.200485 0.347064 0.488560
O O7 0.291401 0.307511 0.255717
O O8 0.912463 0.922090 0.742329
O O9 0.989227 0.914436 0.035324
O O10 0.837527 0.880131 0.009717
O O11 0.884414 0.000000 0.000000
O O12 0.412758 0.500000 0.500000
O O13 0.945058 0.671784 0.093974
O O14 0.354544 0.260092 0.981480
#
# Coordination Sequence:
#
# PCOD9317814 Si02
#       7
#     8   8   8   8   8   4   8
#     4  10  22  36  54  82 112 146 187 226 277 329
#     4  10  20  36  54  77 114 148 182 229 274 330
#     4  10  21  34  51  78 111 148 187 225 266 324
#     4  10  21  34  51  78 111 148 187 225 266 324
#     4  10  22  36  54  82 112 146 187 226 277 329
#     4  12  22  36  56  82 106 148 182 240 272 332
#     4  10  20  36  54  77 114 148 182 229 274 330
#
# _framework density 18.743455000000001
#
# number of rings (size 3 to 8) (size 9 to 14) (size 15 to 20)
#    0.000    1.846    1.538    2.308    6.462    1.846 
#    0.000    0.000    0.000    0.000    0.000    1.077 
#    0.000    0.000    0.000    0.000    0.000    0.000 
#
# Total GULP energy -144778.316422 kJ/mol
# GULP energy per Si atom -5568.396785 kJ/mol
# Density = 1.870079 g / cm^3
# Si number density = 18.743455 Si / 1000 Ang^3
#
#
#
# Elastic Constant Matrix: (Units=GPa)
#
#
# Indices 1 2 3 4 5 6 
#
# 1 119.7128 40.1810 22.7084 0.0000 0.0000 0.0000
# 2 40.1810 43.5565 -6.9611 0.0000 0.0000 0.0000
# 3 22.7084 -6.9611 81.2431 0.0000 0.0000 0.0000
# 4 0.0000 0.0000 0.0000 21.1521 0.0000 0.0000
# 5 0.0000 0.0000 0.0000 0.0000 19.4211 0.0000
# 6 0.0000 0.0000 0.0000 0.0000 0.0000 30.9188
#
#
#
# Elastic Compliance Matrix: (Units=1/GPa)
#
#
# Indices 1 2 3 4 5 6 
#
# 1 0.013878 -0.013609 -0.005045 0.000000 0.000000 0.000000
# 2 -0.013609 0.036622 0.006942 0.000000 0.000000 0.000000
# 3 -0.005045 0.006942 0.014314 0.000000 0.000000 0.000000
# 4 0.000000 0.000000 0.000000 0.047277 0.000000 0.000000
# 5 0.000000 0.000000 0.000000 0.000000 0.051490 0.000000
# 6 0.000000 0.000000 0.000000 0.000000 0.000000 0.032343
#
#
# Mechanical properties :
#
#
# Convention : Reuss Voigt Hill
#
# Bulk Modulus (GPa) = 24.16069 39.59656 31.87863
# Shear Modulus (GPa) = 21.44587 26.87067 24.15827
#
# Velocity S-wave (km/s) = 3.38624 3.79040 3.59401
# Velocity P-wave (km/s) = 5.31103 6.35040 5.85383
#
# Compressibility (1/GPa) = 0.04138954
#
# Stress axis : x y z
#
# Youngs Moduli (GPa) = 72.05600 27.30574 69.86314
#
# Poissons Ratio (x) = 0.37160 0.35247
# Poissons Ratio (y) = 0.98060 -0.48497
# Poissons Ratio (z) = 0.36353 -0.18955
#
# Static dielectric constant tensor:
#      x y z
#    x 1.736260 0.000000 0.000000 
#    y 0.000000 1.633240 0.000000 
#    z 0.000000 0.000000 1.713110 
# 
# From -- ./inp_files/8651.got.cif
#   From: 2010.05.17/outbox.cif.g08.bks.cpg/sg20_5_cif.got.tgz:8651.got - 2010.06.03 22:52:26.
