data_PCOD9317164
_publ_section_title
;
Structure prediction by ZEFSAII (Michael W. Deem and Ramdas Pophale) SiO2 
 PCOD9317164
Probable space group: C 2 2 21
;
_chemical_formula_sum "Si O2"
_cell_formula_units_Z 48
_cell_length_a 32.127046
_cell_length_b 8.187193
_cell_length_c 8.453237
_cell_angle_alpha 90.000000
_cell_angle_beta 90.000000
_cell_angle_gamma 90.000000
_cell_volume 2223.457685
_symmetry_space_group_name_H-M "C 2 2 21"
_symmetry_group_IT_number 20
_symmetry_cell_setting 'orthorhombic'
loop_
_space_group_symop_operation_xyz
x,y,z
-x,-y,1/2+z
x,-y,-z
-x,y,1/2-z
1/2+x,1/2+y,z
1/2-x,1/2-y,1/2+z
1/2+x,1/2-y,-z
1/2-x,1/2+y,1/2-z
loop_
_atom_site_type_symbol
_atom_site_label
_atom_site_fract_x
_atom_site_fract_y
_atom_site_fract_z
Si Si1 0.468372 0.500000 0.500000
Si Si2 0.911528 0.404332 0.730794
Si Si3 0.738892 0.172417 0.091761
Si Si4 0.097785 0.238029 0.113518
Si Si5 0.000000 0.756088 0.250000
Si Si6 0.324842 0.928473 0.831639
Si Si7 0.687152 0.728062 0.186076
O O1 0.438122 0.396194 0.614198
O O2 0.494278 0.371259 0.401109
O O3 0.912891 0.600975 0.714913
O O4 0.900136 0.314666 0.564303
O O5 0.957637 0.345372 0.771627
O O6 0.871891 0.363021 0.841051
O O7 0.708906 0.183939 0.246233
O O8 0.785074 0.190341 0.161208
O O9 0.716890 0.291390 0.965664
O O10 0.739193 0.000000 0.000000
O O11 0.141599 0.154874 0.160696
O O12 0.325249 0.081167 0.709644
O O13 0.311940 0.000000 0.000000
#
# Coordination Sequence:
#
# PCOD9317164 Si02
#       7
#     4   8   8   8   4   8   8
#     4  10  22  42  62  90 130 152 192 258 326 374
#     4   9  18  38  64  86 114 157 213 248 293 380
#     4  10  20  35  56  85 120 157 211 254 298 359
#     4   9  18  38  63  85 119 168 200 241 313 379
#     4  10  22  42  64  94 118 158 202 254 316 378
#     4  10  19  35  55  85 118 150 201 260 301 349
#     4  10  19  36  57  82 118 161 203 252 299 362
#
# _framework density 21.587999
#
# number of rings (size 3 to 8) (size 9 to 14) (size 15 to 20)
#    0.000    2.333    1.667    1.000    0.000    0.667 
#   19.500    1.667    0.000    0.000    0.000    0.000 
#    0.000    0.000    0.000    0.000    0.000    0.000 
#
# Total GULP energy -133772.487101 kJ/mol
# GULP energy per Si atom -5573.853629 kJ/mol
# Density = 2.153886 g / cm^3
# Si number density = 21.587999 Si / 1000 Ang^3
#
#
#
# Elastic Constant Matrix: (Units=GPa)
#
#
# Indices 1 2 3 4 5 6 
#
# 1 181.3751 48.0393 56.7981 0.0000 0.0000 0.0000
# 2 48.0393 46.9570 11.5461 0.0000 0.0000 0.0000
# 3 56.7981 11.5461 65.9523 0.0000 0.0000 0.0000
# 4 0.0000 0.0000 0.0000 19.0909 0.0000 0.0000
# 5 0.0000 0.0000 0.0000 0.0000 35.2104 0.0000
# 6 0.0000 0.0000 0.0000 0.0000 0.0000 15.2365
#
#
#
# Elastic Compliance Matrix: (Units=1/GPa)
#
#
# Indices 1 2 3 4 5 6 
#
# 1 0.009984 -0.008464 -0.007116 0.000000 0.000000 0.000000
# 2 -0.008464 0.029430 0.002137 0.000000 0.000000 0.000000
# 3 -0.007116 0.002137 0.020917 0.000000 0.000000 0.000000
# 4 0.000000 0.000000 0.000000 0.052381 0.000000 0.000000
# 5 0.000000 0.000000 0.000000 0.000000 0.028401 0.000000
# 6 0.000000 0.000000 0.000000 0.000000 0.000000 0.065632
#
#
# Mechanical properties :
#
#
# Convention : Reuss Voigt Hill
#
# Bulk Modulus (GPa) = 29.90089 58.56126 44.23107
# Shear Modulus (GPa) = 20.42670 25.76764 23.09717
#
# Velocity S-wave (km/s) = 3.07938 3.45861 3.27449
# Velocity P-wave (km/s) = 5.15017 6.56772 5.90166
#
# Compressibility (1/GPa) = 0.03344382
#
# Stress axis : x y z
#
# Youngs Moduli (GPa) = 100.16362 33.97931 47.80851
#
# Poissons Ratio (x) = 0.28760 0.34021
# Poissons Ratio (y) = 0.84778 -0.10217
# Poissons Ratio (z) = 0.71278 -0.07261
#
# Static dielectric constant tensor:
#      x y z
#    x 1.828710 0.000000 0.000000 
#    y 0.000000 1.831890 0.000000 
#    z 0.000000 0.000000 1.808180 
# 
# From -- ./inp_files/11511.got.cif
#   From: 2010.05.17/outbox.cif.g08.bks.cpg/sg20_6_cif.got.tgz:11511.got - 2010.06.03 22:52:26.
