data_PCOD9317596
_publ_section_title
;
Structure prediction by ZEFSAII (Michael W. Deem and Ramdas Pophale) SiO2 
 PCOD9317596
Probable space group: C 2 2 21
;
_chemical_formula_sum "Si O2"
_cell_formula_units_Z 40
_cell_length_a 24.481722
_cell_length_b 17.878920
_cell_length_c 5.309160
_cell_angle_alpha 90.000000
_cell_angle_beta 90.000000
_cell_angle_gamma 90.000000
_cell_volume 2323.855164
_symmetry_space_group_name_H-M "C 2 2 21"
_symmetry_group_IT_number 20
_symmetry_cell_setting 'orthorhombic'
loop_
_space_group_symop_operation_xyz
x,y,z
-x,-y,1/2+z
x,-y,-z
-x,y,1/2-z
1/2+x,1/2+y,z
1/2-x,1/2-y,1/2+z
1/2+x,1/2-y,-z
1/2-x,1/2+y,1/2-z
loop_
_atom_site_type_symbol
_atom_site_label
_atom_site_fract_x
_atom_site_fract_y
_atom_site_fract_z
Si Si1 0.050342 0.000000 0.000000
Si Si2 0.766442 0.542296 0.248962
Si Si3 0.620728 0.325980 0.250319
Si Si4 0.641243 0.577335 0.255567
Si Si5 0.500000 0.365085 0.250000
Si Si6 0.719152 0.780462 0.746216
O O1 0.092621 0.982466 0.775412
O O2 0.014570 0.073835 0.964729
O O3 0.785136 0.500000 0.500000
O O4 0.700290 0.540110 0.245005
O O5 0.780471 0.629923 0.249376
O O6 0.786407 0.500000 0.000000
O O7 0.637997 0.375205 0.490843
O O8 0.555258 0.318371 0.277451
O O9 0.658150 0.252883 0.253255
O O10 0.633725 0.369061 0.988818
O O11 0.749812 0.750744 0.494735
#
# Coordination Sequence:
#
# PCOD9317596 Si02
#       6
#     4   8   8   8   4   8
#     4  10  20  32  50  78 116 150 180 220 266 318
#     4  12  23  35  55  86 113 145 189 236 289 332
#     4  11  22  38  54  77 106 148 192 226 263 324
#     4  11  21  33  55  77 111 149 185 218 264 325
#     4  10  22  34  52  78 110 150 188 222 262 330
#     4  12  22  39  59  81 110 152 192 235 283 335
#
# _framework density 17.212776000000002
#
# number of rings (size 3 to 8) (size 9 to 14) (size 15 to 20)
#    0.000    0.800    5.000    3.600    2.800    2.400 
#    0.000    0.000    0.000    0.000    0.000    1.400 
#    0.000    0.000    0.000    0.000    0.000    0.000 
#
# Total GULP energy -111705.734623 kJ/mol
# GULP energy per Si atom -5585.286731 kJ/mol
# Density = 1.717360 g / cm^3
# Si number density = 17.212776 Si / 1000 Ang^3
#
#
#
# Elastic Constant Matrix: (Units=GPa)
#
#
# Indices 1 2 3 4 5 6 
#
# 1 100.3427 47.5510 20.1955 0.0000 0.0000 0.0000
# 2 47.5510 137.4889 67.5571 0.0000 0.0000 0.0000
# 3 20.1955 67.5571 147.5366 0.0000 0.0000 0.0000
# 4 0.0000 0.0000 0.0000 25.7747 0.0000 0.0000
# 5 0.0000 0.0000 0.0000 0.0000 15.0178 0.0000
# 6 0.0000 0.0000 0.0000 0.0000 0.0000 11.2354
#
#
#
# Elastic Compliance Matrix: (Units=1/GPa)
#
#
# Indices 1 2 3 4 5 6 
#
# 1 0.011932 -0.004289 0.000331 0.000000 0.000000 0.000000
# 2 -0.004289 0.010927 -0.004416 0.000000 0.000000 0.000000
# 3 0.000331 -0.004416 0.008755 0.000000 0.000000 0.000000
# 4 0.000000 0.000000 0.000000 0.038798 0.000000 0.000000
# 5 0.000000 0.000000 0.000000 0.000000 0.066587 0.000000
# 6 0.000000 0.000000 0.000000 0.000000 0.000000 0.089005
#
#
# Mechanical properties :
#
#
# Convention : Reuss Voigt Hill
#
# Bulk Modulus (GPa) = 67.27609 72.88615 70.08112
# Shear Modulus (GPa) = 20.18512 27.07656 23.63084
#
# Velocity S-wave (km/s) = 3.42816 3.97047 3.70924
# Velocity P-wave (km/s) = 7.40537 7.96591 7.69075
#
# Compressibility (1/GPa) = 0.01486412
#
# Stress axis : x y z
#
# Youngs Moduli (GPa) = 83.80915 91.51877 114.22177
#
# Poissons Ratio (x) = 0.39254 -0.03778
# Poissons Ratio (y) = 0.35947 0.50443
# Poissons Ratio (z) = -0.02772 0.40417
#
# Static dielectric constant tensor:
#      x y z
#    x 1.606510 0.000000 0.000000 
#    y 0.000000 1.579230 0.000000 
#    z 0.000000 0.000000 1.681500 
# 
# From -- ./inp_files/4186.got.cif
#   From: 2010.05.17/outbox.cif.g08.bks.cpg/sg20_3_cif.got.tgz:4186.got - 2010.06.03 22:52:26.
