data_PCOD9317874
_publ_section_title
;
Structure prediction by ZEFSAII (Michael W. Deem and Ramdas Pophale) SiO2 
 PCOD9317874
Probable space group: C 2 2 21
;
_chemical_formula_sum "Si O2"
_cell_formula_units_Z 48
_cell_length_a 28.677213
_cell_length_b 5.170420
_cell_length_c 14.704217
_cell_angle_alpha 90.000000
_cell_angle_beta 90.000000
_cell_angle_gamma 90.000000
_cell_volume 2180.241832
_symmetry_space_group_name_H-M "C 2 2 21"
_symmetry_group_IT_number 20
_symmetry_cell_setting 'orthorhombic'
loop_
_space_group_symop_operation_xyz
x,y,z
-x,-y,1/2+z
x,-y,-z
-x,y,1/2-z
1/2+x,1/2+y,z
1/2-x,1/2-y,1/2+z
1/2+x,1/2-y,-z
1/2-x,1/2+y,1/2-z
loop_
_atom_site_type_symbol
_atom_site_label
_atom_site_fract_x
_atom_site_fract_y
_atom_site_fract_z
Si Si1 0.353500 0.359593 0.201541
Si Si2 0.563821 0.751344 0.051323
Si Si3 0.048339 0.254803 0.449965
Si Si4 0.734146 0.535930 0.799746
Si Si5 0.819998 0.367211 0.096753
Si Si6 0.946035 0.907121 0.753004
O O1 0.320921 0.427018 0.288432
O O2 0.340765 0.075907 0.167354
O O3 0.407431 0.378290 0.227384
O O4 0.339522 0.583900 0.126352
O O5 0.507551 0.752526 0.037322
O O6 0.567886 0.731946 0.159734
O O7 0.582180 0.500000 0.000000
O O8 0.582889 0.000000 0.000000
O O9 0.068278 0.500000 0.500000
O O10 0.056252 0.266049 0.343080
O O11 0.066530 0.000000 0.500000
O O12 0.753984 0.738157 0.723408
O O13 0.763991 0.626089 0.886054
O O14 0.828945 0.500000 0.000000
O O15 0.000000 0.001653 0.750000
#
# Coordination Sequence:
#
# PCOD9317874 Si02
#       6
#     8   8   8   8   8   8
#     4  10  21  36  56  85 119 154 194 239 292 358
#     4   9  19  36  55  74 101 142 196 247 285 330
#     4   9  19  34  52  77 107 143 190 241 289 340
#     4   8  16  33  55  77 108 144 176 220 282 343
#     4  10  20  36  59  88 116 145 187 245 306 363
#     4  10  22  39  60  85 120 166 206 246 300 354
#
# _framework density 22.015908
#
# number of rings (size 3 to 8) (size 9 to 14) (size 15 to 20)
#    0.000    2.667    0.000    0.500    0.000    6.000 
#    0.000   11.667    0.000    6.000    0.000    0.000 
#    0.000    0.000    0.000    0.000    0.000    0.000 
#
# Total GULP energy -133847.686977 kJ/mol
# GULP energy per Si atom -5576.986957 kJ/mol
# Density = 2.196580 g / cm^3
# Si number density = 22.015908 Si / 1000 Ang^3
#
#
#
# Elastic Constant Matrix: (Units=GPa)
#
#
# Indices 1 2 3 4 5 6 
#
# 1 91.2317 -8.1800 12.2478 0.0000 0.0000 0.0000
# 2 -8.1800 131.8141 45.2301 0.0000 0.0000 0.0000
# 3 12.2478 45.2301 109.2670 0.0000 0.0000 0.0000
# 4 0.0000 0.0000 0.0000 13.0986 0.0000 0.0000
# 5 0.0000 0.0000 0.0000 0.0000 -0.8870 0.0000
# 6 0.0000 0.0000 0.0000 0.0000 0.0000 -5.9120
#
#
#
# Elastic Compliance Matrix: (Units=1/GPa)
#
#
# Indices 1 2 3 4 5 6 
#
# 1 0.011324 0.001327 -0.001819 0.000000 0.000000 0.000000
# 2 0.001327 0.008998 -0.003873 0.000000 0.000000 0.000000
# 3 -0.001819 -0.003873 0.010959 0.000000 0.000000 0.000000
# 4 0.000000 0.000000 0.000000 0.076344 0.000000 0.000000
# 5 0.000000 0.000000 0.000000 0.000000 -1.127344 0.000000
# 6 0.000000 0.000000 0.000000 0.000000 0.000000 -0.169148
#
#
# Mechanical properties :
#
#
# Convention : Reuss Voigt Hill
#
# Bulk Modulus (GPa) = 44.34404 47.87873 46.11138
# Shear Modulus (GPa) = -4.26396 20.12756 7.93180
#
# Velocity S-wave (km/s) = -1.39319 3.02690 1.90015
# Velocity P-wave (km/s) = 4.19495 5.83187 5.07978
#
# Compressibility (1/GPa) = 0.02255094
#
# Stress axis : x y z
#
# Youngs Moduli (GPa) = 88.30645 111.13775 91.24874
#
# Poissons Ratio (x) = -0.14745 0.16594
# Poissons Ratio (y) = -0.11716 0.35343
# Poissons Ratio (z) = 0.16059 0.43047
#
# Static dielectric constant tensor:
#      x y z
#    x 1.856620 0.000000 0.000000 
#    y 0.000000 1.789980 0.000000 
#    z 0.000000 0.000000 1.805580 
# 
# From -- ./inp_files/22246.got.cif
#   From: 2010.05.17/outbox.cif.g08.bks.cpg/sg20_12_cif.got.tgz:22246.got - 2010.06.03 22:52:26.
