data_PCOD9317572
_publ_section_title
;
Structure prediction by ZEFSAII (Michael W. Deem and Ramdas Pophale) SiO2 
 PCOD9317572
Probable space group: C 2 2 21
;
_chemical_formula_sum "Si O2"
_cell_formula_units_Z 48
_cell_length_a 15.795763
_cell_length_b 9.406978
_cell_length_c 14.872673
_cell_angle_alpha 90.000000
_cell_angle_beta 90.000000
_cell_angle_gamma 90.000000
_cell_volume 2209.936356
_symmetry_space_group_name_H-M "C 2 2 21"
_symmetry_group_IT_number 20
_symmetry_cell_setting 'orthorhombic'
loop_
_space_group_symop_operation_xyz
x,y,z
-x,-y,1/2+z
x,-y,-z
-x,y,1/2-z
1/2+x,1/2+y,z
1/2-x,1/2-y,1/2+z
1/2+x,1/2-y,-z
1/2-x,1/2+y,1/2-z
loop_
_atom_site_type_symbol
_atom_site_label
_atom_site_fract_x
_atom_site_fract_y
_atom_site_fract_z
Si Si1 0.244462 0.774424 0.339462
Si Si2 0.390433 0.832696 0.483214
Si Si3 0.040620 0.264930 0.347898
Si Si4 0.138213 0.078244 0.906648
Si Si5 0.163450 0.504215 0.398024
Si Si6 0.848286 0.053054 0.225171
O O1 0.308210 0.792156 0.423250
O O2 0.169614 0.666207 0.366055
O O3 0.294300 0.686285 0.263082
O O4 0.210452 0.926028 0.309293
O O5 0.471468 0.786734 0.424680
O O6 0.384148 0.741265 0.574563
O O7 0.392051 0.000000 0.500000
O O8 0.102371 0.400554 0.345733
O O9 0.094287 0.119531 0.352799
O O10 0.000000 0.257838 0.250000
O O11 0.239854 0.054561 0.897947
O O12 0.104685 0.009985 0.814281
O O13 0.113170 0.000000 0.000000
O O14 0.133387 0.500000 0.500000
#
# Coordination Sequence:
#
# PCOD9317572 Si02
#       6
#     8   8   8   8   8   8
#     4  11  23  42  74 103 129 182 239 280 338 416
#     4  12  26  43  71 106 140 183 229 290 356 409
#     4  12  25  45  65 100 147 178 220 293 358 401
#     4  10  19  43  71  96 132 183 233 279 339 410
#     4  10  21  43  71  97 133 181 225 287 339 410
#     4  11  23  41  73 101 134 183 230 290 339 415
#
# _framework density 21.720082999999999
#
# number of rings (size 3 to 8) (size 9 to 14) (size 15 to 20)
#    0.000    1.000    6.667    2.500    4.667    0.000 
#    0.000    9.167    0.000    0.000    0.000    0.000 
#    0.000    0.000    0.000    0.000    0.000    0.000 
#
# Total GULP energy -134150.946524 kJ/mol
# GULP energy per Si atom -5589.622772 kJ/mol
# Density = 2.167065 g / cm^3
# Si number density = 21.720083 Si / 1000 Ang^3
#
#
#
# Elastic Constant Matrix: (Units=GPa)
#
#
# Indices 1 2 3 4 5 6 
#
# 1 51.6851 54.0388 18.2897 0.0000 0.0000 0.0000
# 2 54.0388 164.0365 31.3802 0.0000 0.0000 0.0000
# 3 18.2897 31.3802 39.1956 0.0000 0.0000 0.0000
# 4 0.0000 0.0000 0.0000 40.9153 0.0000 0.0000
# 5 0.0000 0.0000 0.0000 0.0000 7.3525 0.0000
# 6 0.0000 0.0000 0.0000 0.0000 0.0000 7.9276
#
#
#
# Elastic Compliance Matrix: (Units=1/GPa)
#
#
# Indices 1 2 3 4 5 6 
#
# 1 0.031272 -0.008869 -0.007492 0.000000 0.000000 0.000000
# 2 -0.008869 0.009714 -0.003639 0.000000 0.000000 0.000000
# 3 -0.007492 -0.003639 0.031922 0.000000 0.000000 0.000000
# 4 0.000000 0.000000 0.000000 0.024441 0.000000 0.000000
# 5 0.000000 0.000000 0.000000 0.000000 0.136008 0.000000
# 6 0.000000 0.000000 0.000000 0.000000 0.000000 0.126141
#
#
# Mechanical properties :
#
#
# Convention : Reuss Voigt Hill
#
# Bulk Modulus (GPa) = 30.38660 51.37050 40.87855
# Shear Modulus (GPa) = 12.18127 21.31964 16.75045
#
# Velocity S-wave (km/s) = 2.37075 3.13639 2.78006
# Velocity P-wave (km/s) = 4.63836 6.06782 5.40059
#
# Compressibility (1/GPa) = 0.03290925
#
# Stress axis : x y z
#
# Youngs Moduli (GPa) = 31.97788 102.94533 31.32629
#
# Poissons Ratio (x) = 0.91299 0.23469
# Poissons Ratio (y) = 0.28360 0.11398
# Poissons Ratio (z) = 0.23957 0.37458
#
# Static dielectric constant tensor:
#      x y z
#    x 1.824670 0.000000 0.000000 
#    y 0.000000 1.828360 0.000000 
#    z 0.000000 0.000000 1.817470 
# 
# From -- ./inp_files/21265.got.cif
#   From: 2010.05.17/outbox.cif.g08.bks.cpg/sg20_11_cif.got.tgz:21265.got - 2010.06.03 22:52:26.
