data_PCOD9317401
_publ_section_title
;
Structure prediction by ZEFSAII (Michael W. Deem and Ramdas Pophale) SiO2 
 PCOD9317401
Probable space group: C 2 2 21
;
_chemical_formula_sum "Si O2"
_cell_formula_units_Z 60
_cell_length_a 22.003348
_cell_length_b 15.498046
_cell_length_c 7.605497
_cell_angle_alpha 90.000000
_cell_angle_beta 90.000000
_cell_angle_gamma 90.000000
_cell_volume 2593.542162
_symmetry_space_group_name_H-M "C 2 2 21"
_symmetry_group_IT_number 20
_symmetry_cell_setting 'orthorhombic'
loop_
_space_group_symop_operation_xyz
x,y,z
-x,-y,1/2+z
x,-y,-z
-x,y,1/2-z
1/2+x,1/2+y,z
1/2-x,1/2-y,1/2+z
1/2+x,1/2-y,-z
1/2-x,1/2+y,1/2-z
loop_
_atom_site_type_symbol
_atom_site_label
_atom_site_fract_x
_atom_site_fract_y
_atom_site_fract_z
Si Si1 0.199978 0.946586 0.157687
Si Si2 0.998731 0.898535 0.037464
Si Si3 0.611396 0.697087 0.876540
Si Si4 0.158579 0.633457 0.066952
Si Si5 0.480851 0.094834 0.450623
Si Si6 0.572043 0.236924 0.495885
Si Si7 0.752864 0.000000 0.000000
Si Si8 0.671198 0.098544 0.482399
O O1 0.154881 0.871912 0.213602
O O2 0.210008 0.008335 0.322826
O O3 0.262936 0.909661 0.074584
O O4 0.170567 0.000000 0.000000
O O5 0.062940 0.850782 0.000953
O O6 0.000000 0.893581 0.250000
O O7 0.946905 0.835307 0.957029
O O8 0.994040 0.000000 0.000000
O O9 0.654216 0.765681 0.972877
O O10 0.580607 0.751212 0.717414
O O11 0.091237 0.599511 0.025065
O O12 0.209290 0.581068 0.964908
O O13 0.174124 0.615780 0.272568
O O14 0.500000 0.102610 0.250000
O O15 0.515472 0.174509 0.539184
O O16 0.502321 0.000000 0.500000
O O17 0.629764 0.177943 0.552993
O O18 0.645265 0.000000 0.500000
#
# Coordination Sequence:
#
# PCOD9317401 Si02
#       8
#     8   8   8   8   8   8   4   8
#     4  11  24  44  69  95 132 181 224 278 337 391
#     4  10  20  40  65  90 125 171 215 283 335 385
#     4  10  21  40  68  90 127 174 229 268 334 400
#     4  11  21  37  64  94 132 170 217 271 330 399
#     4  12  21  34  61  97 131 169 210 256 335 410
#     4  10  20  38  66  97 122 177 222 260 342 405
#     4  12  24  44  64  98 140 170 228 278 332 394
#     4  10  19  37  65  93 131 170 213 268 328 402
#
# _framework density 23.134383
#
# number of rings (size 3 to 8) (size 9 to 14) (size 15 to 20)
#    0.000    1.333    7.333    1.200    0.000    2.133 
#    4.800    2.000    0.000    0.000    0.000    0.000 
#    0.000    0.000    0.000    0.000    0.000    0.000 
#
# Total GULP energy -167312.142989 kJ/mol
# GULP energy per Si atom -5577.071433 kJ/mol
# Density = 2.308173 g / cm^3
# Si number density = 23.134383 Si / 1000 Ang^3
#
#
#
# Elastic Constant Matrix: (Units=GPa)
#
#
# Indices 1 2 3 4 5 6 
#
# 1 49.5971 28.9720 5.3745 0.0000 0.0000 0.0000
# 2 28.9720 169.1176 2.6532 0.0000 0.0000 0.0000
# 3 5.3745 2.6532 47.0245 0.0000 0.0000 0.0000
# 4 0.0000 0.0000 0.0000 24.5970 0.0000 0.0000
# 5 0.0000 0.0000 0.0000 0.0000 -8.4973 0.0000
# 6 0.0000 0.0000 0.0000 0.0000 0.0000 57.0880
#
#
#
# Elastic Compliance Matrix: (Units=1/GPa)
#
#
# Indices 1 2 3 4 5 6 
#
# 1 0.022666 -0.003846 -0.002374 0.000000 0.000000 0.000000
# 2 -0.003846 0.006571 0.000069 0.000000 0.000000 0.000000
# 3 -0.002374 0.000069 0.021533 0.000000 0.000000 0.000000
# 4 0.000000 0.000000 0.000000 0.040655 0.000000 0.000000
# 5 0.000000 0.000000 0.000000 0.000000 -0.117684 0.000000
# 6 0.000000 0.000000 0.000000 0.000000 0.000000 0.017517
#
#
# Mechanical properties :
#
#
# Convention : Reuss Voigt Hill
#
# Bulk Modulus (GPa) = 25.99508 37.74872 31.87190
# Shear Modulus (GPa) = 305.21162 29.88684 167.54923
#
# Velocity S-wave (km/s) = 11.49853 3.59817 8.51948
# Velocity P-wave (km/s) = 13.69486 5.79785 10.51581
#
# Compressibility (1/GPa) = 0.03846881
#
# Stress axis : x y z
#
# Youngs Moduli (GPa) = 44.11857 152.18854 46.44056
#
# Poissons Ratio (x) = 0.58528 0.11023
# Poissons Ratio (y) = 0.16967 -0.00320
# Poissons Ratio (z) = 0.10472 -0.01047
#
# Static dielectric constant tensor:
#      x y z
#    x 1.905420 0.000000 0.000000 
#    y 0.000000 1.962590 0.000000 
#    z 0.000000 0.000000 1.783560 
# 
# From -- ./inp_files/10763.got.cif
#   From: 2010.05.17/outbox.cif.g08.bks.cpg/sg20_6_cif.got.tgz:10763.got - 2010.06.03 22:52:26.
