data_PCOD9317998
_publ_section_title
;
Structure prediction by ZEFSAII (Michael W. Deem and Ramdas Pophale) SiO2 
 PCOD9317998
Probable space group: C 2 2 21
;
_chemical_formula_sum "Si O2"
_cell_formula_units_Z 64
_cell_length_a 11.663940
_cell_length_b 20.307288
_cell_length_c 14.629968
_cell_angle_alpha 90.000000
_cell_angle_beta 90.000000
_cell_angle_gamma 90.000000
_cell_volume 3465.297946
_symmetry_space_group_name_H-M "C 2 2 21"
_symmetry_group_IT_number 20
_symmetry_cell_setting 'orthorhombic'
loop_
_space_group_symop_operation_xyz
x,y,z
-x,-y,1/2+z
x,-y,-z
-x,y,1/2-z
1/2+x,1/2+y,z
1/2-x,1/2-y,1/2+z
1/2+x,1/2-y,-z
1/2-x,1/2+y,1/2-z
loop_
_atom_site_type_symbol
_atom_site_label
_atom_site_fract_x
_atom_site_fract_y
_atom_site_fract_z
Si Si1 0.223457 0.648876 0.396295
Si Si2 0.871416 0.122154 0.733109
Si Si3 0.866728 0.336653 0.519477
Si Si4 0.348329 0.701389 0.909341
Si Si5 0.908228 0.818222 0.464204
Si Si6 0.371380 0.898666 0.717885
Si Si7 0.869317 0.551094 0.771784
Si Si8 0.437072 0.069549 0.974498
O O1 0.167237 0.720230 0.415306
O O2 0.344398 0.653369 0.447528
O O3 0.217205 0.633620 0.289310
O O4 0.148501 0.593168 0.446281
O O5 0.869910 0.182692 0.804290
O O6 0.866439 0.146687 0.628612
O O7 0.752832 0.083697 0.754958
O O8 0.000000 0.091002 0.750000
O O9 0.760859 0.334848 0.450849
O O10 0.886517 0.260054 0.542789
O O11 0.851785 0.375403 0.614729
O O12 0.971288 0.372295 0.468415
O O13 0.455924 0.676138 0.966650
O O14 0.500000 0.877758 0.750000
O O15 0.367771 0.977358 0.731170
O O16 0.870594 0.555836 0.881515
O O17 0.000000 0.577550 0.750000
O O18 0.494558 0.000000 0.000000
#
# Coordination Sequence:
#
# PCOD9317998 Si02
#       8
#     8   8   8   8   8   8   8   8
#     4  11  20  35  59  86 112 147 201 243 291 349
#     4  10  21  38  58  82 115 157 195 240 297 364
#     4  11  22  36  59  86 120 154 194 246 304 352
#     4  10  21  37  56  85 118 153 195 246 297 357
#     4  10  20  37  60  84 117 155 198 244 293 362
#     4  11  20  37  58  85 116 154 199 247 294 359
#     4  11  22  36  58  88 118 149 198 251 299 348
#     4  12  20  36  60  86 115 149 191 249 291 342
#
# _framework density 18.468830000000001
#
# number of rings (size 3 to 8) (size 9 to 14) (size 15 to 20)
#    0.000    1.250    5.000    2.250    0.000    1.000 
#    0.000    1.875    0.000    3.750    0.000    0.000 
#    0.000    0.000    0.000    0.000    0.000    0.000 
#
# Total GULP energy -178328.127649 kJ/mol
# GULP energy per Si atom -5572.753989 kJ/mol
# Density = 1.842679 g / cm^3
# Si number density = 18.468830 Si / 1000 Ang^3
#
#
#
# Elastic Constant Matrix: (Units=GPa)
#
#
# Indices 1 2 3 4 5 6 
#
# 1 83.1148 26.1191 0.7104 0.0000 0.0000 0.0000
# 2 26.1191 61.8940 11.1094 0.0000 0.0000 0.0000
# 3 0.7104 11.1094 64.5184 0.0000 0.0000 0.0000
# 4 0.0000 0.0000 0.0000 24.8804 0.0000 0.0000
# 5 0.0000 0.0000 0.0000 0.0000 30.5418 0.0000
# 6 0.0000 0.0000 0.0000 0.0000 0.0000 19.2145
#
#
#
# Elastic Compliance Matrix: (Units=1/GPa)
#
#
# Indices 1 2 3 4 5 6 
#
# 1 0.013920 -0.006033 0.000886 0.000000 0.000000 0.000000
# 2 -0.006033 0.019287 -0.003255 0.000000 0.000000 0.000000
# 3 0.000886 -0.003255 0.016050 0.000000 0.000000 0.000000
# 4 0.000000 0.000000 0.000000 0.040192 0.000000 0.000000
# 5 0.000000 0.000000 0.000000 0.000000 0.032742 0.000000
# 6 0.000000 0.000000 0.000000 0.000000 0.000000 0.052044
#
#
# Mechanical properties :
#
#
# Convention : Reuss Voigt Hill
#
# Bulk Modulus (GPa) = 30.81418 31.71166 31.26292
# Shear Modulus (GPa) = 24.77004 26.36656 25.56830
#
# Velocity S-wave (km/s) = 3.66619 3.78249 3.72479
# Velocity P-wave (km/s) = 5.88573 6.02362 5.95508
#
# Compressibility (1/GPa) = 0.03245259
#
# Stress axis : x y z
#
# Youngs Moduli (GPa) = 71.83961 51.84899 62.30495
#
# Poissons Ratio (x) = 0.31281 -0.05517
# Poissons Ratio (y) = 0.43342 0.20277
# Poissons Ratio (z) = -0.06362 0.16874
#
# Static dielectric constant tensor:
#      x y z
#    x 1.665310 0.000000 0.000000 
#    y 0.000000 1.626670 0.000000 
#    z 0.000000 0.000000 1.634060 
# 
# From -- ./inp_files/20297.got.cif
#   From: 2010.05.17/outbox.cif.g08.bks.cpg/sg20_11_cif.got.tgz:20297.got - 2010.06.03 22:52:26.
