data_PCOD9317380
_publ_section_title
;
Structure prediction by ZEFSAII (Michael W. Deem and Ramdas Pophale) SiO2 
 PCOD9317380
Probable space group: C 2 2 21
;
_chemical_formula_sum "Si O2"
_cell_formula_units_Z 44
_cell_length_a 5.648494
_cell_length_b 27.660981
_cell_length_c 11.842580
_cell_angle_alpha 90.000000
_cell_angle_beta 90.000000
_cell_angle_gamma 90.000000
_cell_volume 1850.318868
_symmetry_space_group_name_H-M "C 2 2 21"
_symmetry_group_IT_number 20
_symmetry_cell_setting 'orthorhombic'
loop_
_space_group_symop_operation_xyz
x,y,z
-x,-y,1/2+z
x,-y,-z
-x,y,1/2-z
1/2+x,1/2+y,z
1/2-x,1/2-y,1/2+z
1/2+x,1/2-y,-z
1/2-x,1/2+y,1/2-z
loop_
_atom_site_type_symbol
_atom_site_label
_atom_site_fract_x
_atom_site_fract_y
_atom_site_fract_z
Si Si1 0.869995 0.780325 0.624992
Si Si2 0.120229 0.329959 0.092307
Si Si3 0.390945 0.648429 0.587949
Si Si4 0.170440 0.592887 0.112527
Si Si5 0.166370 0.053375 0.049646
Si Si6 0.000000 0.328868 0.750000
O O1 0.874808 0.727512 0.571803
O O2 0.931253 0.819955 0.529268
O O3 0.602603 0.795134 0.655271
O O4 0.000000 0.779740 0.750000
O O5 0.366521 0.342313 0.151908
O O6 0.132278 0.371157 0.994371
O O7 0.857158 0.335760 0.139562
O O8 0.356967 0.593243 0.549445
O O9 0.409145 0.561391 0.109542
O O10 0.917210 0.564334 0.114039
O O11 0.196228 0.633117 0.210086
O O12 0.179569 0.000000 0.000000
#
# Coordination Sequence:
#
# PCOD9317380 Si02
#       6
#     8   8   8   8   8   4
#     4  12  24  34  57  87 124 165 201 244 300 359
#     4  10  21  38  56  81 121 161 204 234 293 356
#     4  10  21  38  56  85 118 153 199 258 285 350
#     4  10  22  39  59  93 124 156 194 262 294 361
#     4  10  19  37  62  90 109 147 204 241 307 363
#     4  12  24  38  56  92 134 152 200 254 324 336
#
# _framework density 23.779684
#
# number of rings (size 3 to 8) (size 9 to 14) (size 15 to 20)
#    0.000    1.455    3.636    3.818    2.545    0.000 
#    0.000    0.000    0.000    0.000   56.727    0.000 
#    0.000    0.000    0.000    0.000    0.000    0.000 
#
# Total GULP energy -122574.726327 kJ/mol
# GULP energy per Si atom -5571.578469 kJ/mol
# Density = 2.372556 g / cm^3
# Si number density = 23.779684 Si / 1000 Ang^3
#
#
#
# Elastic Constant Matrix: (Units=GPa)
#
#
# Indices 1 2 3 4 5 6 
#
# 1 214.0186 58.5887 35.6342 0.0000 0.0000 0.0000
# 2 58.5887 167.0490 29.1907 0.0000 0.0000 0.0000
# 3 35.6342 29.1907 67.2482 0.0000 0.0000 0.0000
# 4 0.0000 0.0000 0.0000 14.5082 0.0000 0.0000
# 5 0.0000 0.0000 0.0000 0.0000 37.4298 0.0000
# 6 0.0000 0.0000 0.0000 0.0000 0.0000 41.2234
#
#
#
# Elastic Compliance Matrix: (Units=1/GPa)
#
#
# Indices 1 2 3 4 5 6 
#
# 1 0.005462 -0.001526 -0.002232 0.000000 0.000000 0.000000
# 2 -0.001526 0.006904 -0.002188 0.000000 0.000000 0.000000
# 3 -0.002232 -0.002188 0.017003 0.000000 0.000000 0.000000
# 4 0.000000 0.000000 0.000000 0.068926 0.000000 0.000000
# 5 0.000000 0.000000 0.000000 0.000000 0.026717 0.000000
# 6 0.000000 0.000000 0.000000 0.000000 0.000000 0.024258
#
#
# Mechanical properties :
#
#
# Convention : Reuss Voigt Hill
#
# Bulk Modulus (GPa) = 57.21914 77.23812 67.22863
# Shear Modulus (GPa) = 29.94249 40.29243 35.11746
#
# Velocity S-wave (km/s) = 3.55232 4.12078 3.84706
# Velocity P-wave (km/s) = 6.39842 7.42916 6.93297
#
# Compressibility (1/GPa) = 0.01747667
#
# Stress axis : x y z
#
# Youngs Moduli (GPa) = 183.09191 144.84934 58.81366
#
# Poissons Ratio (x) = 0.22098 0.13127
# Poissons Ratio (y) = 0.27932 0.12870
# Poissons Ratio (z) = 0.40864 0.31698
#
# Static dielectric constant tensor:
#      x y z
#    x 2.021960 0.000000 0.000000 
#    y 0.000000 1.790860 0.000000 
#    z 0.000000 0.000000 2.023470 
# 
# From -- ./inp_files/17740.got.cif
#   From: 2010.05.17/outbox.cif.g08.bks.cpg/sg20_9_cif.got.tgz:17740.got - 2010.06.03 22:52:26.
