data_PCOD9317772
_publ_section_title
;
Structure prediction by ZEFSAII (Michael W. Deem and Ramdas Pophale) SiO2 
 PCOD9317772
Probable space group: C 2 2 21
;
_chemical_formula_sum "Si O2"
_cell_formula_units_Z 48
_cell_length_a 32.870171
_cell_length_b 12.915339
_cell_length_c 5.422474
_cell_angle_alpha 90.000000
_cell_angle_beta 90.000000
_cell_angle_gamma 90.000000
_cell_volume 2301.999642
_symmetry_space_group_name_H-M "C 2 2 21"
_symmetry_group_IT_number 20
_symmetry_cell_setting 'orthorhombic'
loop_
_space_group_symop_operation_xyz
x,y,z
-x,-y,1/2+z
x,-y,-z
-x,y,1/2-z
1/2+x,1/2+y,z
1/2-x,1/2-y,1/2+z
1/2+x,1/2-y,-z
1/2-x,1/2+y,1/2-z
loop_
_atom_site_type_symbol
_atom_site_label
_atom_site_fract_x
_atom_site_fract_y
_atom_site_fract_z
Si Si1 0.301126 0.238012 0.237559
Si Si2 0.722091 0.361163 0.757054
Si Si3 0.885320 0.819298 0.247788
Si Si4 0.500000 0.584222 0.250000
Si Si5 0.000000 0.436212 0.250000
Si Si6 0.968413 0.731285 0.447972
Si Si7 0.426302 0.500000 0.000000
Si Si8 0.336369 0.500000 0.500000
O O1 0.291239 0.293502 0.500713
O O2 0.271340 0.138408 0.228976
O O3 0.349674 0.235968 0.207577
O O4 0.288420 0.307494 0.001595
O O5 0.695079 0.463628 0.788234
O O6 0.924998 0.763172 0.346979
O O7 0.899950 0.896310 0.028770
O O8 0.865300 0.905195 0.428173
O O9 0.491155 0.664700 0.466244
O O10 0.459108 0.519259 0.215220
O O11 0.009534 0.500000 0.500000
O O12 0.965214 0.354112 0.335871
O O13 0.000000 0.687432 0.250000
#
# Coordination Sequence:
#
# PCOD9317772 Si02
#       8
#     8   8   8   4   4   8   4   4
#     4   9  19  35  55  82 116 159 206 256 309 354
#     4   9  18  35  56  81 116 157 206 256 306 364
#     4  11  21  34  56  94 129 174 221 263 306 380
#     4  11  22  34  51  80 132 186 223 256 324 375
#     4  11  24  46  75  94 108 160 229 276 336 393
#     4  11  22  41  60  92 128 169 215 271 335 380
#     4  12  20  31  52  82 138 184 232 260 303 380
#     4  10  20  35  58  92 128 166 214 246 303 388
#
# _framework density 20.851437000000001
#
# number of rings (size 3 to 8) (size 9 to 14) (size 15 to 20)
#    0.000    1.667    2.500    3.000    0.000    3.333 
#    0.000    0.000    0.000    2.000   13.000    0.000 
#    0.000    0.000    0.000    0.000    0.000    0.000 
#
# Total GULP energy -133611.861180 kJ/mol
# GULP energy per Si atom -5567.160883 kJ/mol
# Density = 2.080398 g / cm^3
# Si number density = 20.851437 Si / 1000 Ang^3
#
#
#
# Elastic Constant Matrix: (Units=GPa)
#
#
# Indices 1 2 3 4 5 6 
#
# 1 173.0059 37.9158 23.0960 0.0000 0.0000 0.0000
# 2 37.9158 60.3392 30.5957 0.0000 0.0000 0.0000
# 3 23.0960 30.5957 101.3695 0.0000 0.0000 0.0000
# 4 0.0000 0.0000 0.0000 66.3377 0.0000 0.0000
# 5 0.0000 0.0000 0.0000 0.0000 25.3603 0.0000
# 6 0.0000 0.0000 0.0000 0.0000 0.0000 -29.0028
#
#
#
# Elastic Compliance Matrix: (Units=1/GPa)
#
#
# Indices 1 2 3 4 5 6 
#
# 1 0.006711 -0.004064 -0.000303 0.000000 0.000000 0.000000
# 2 -0.004064 0.022028 -0.005723 0.000000 0.000000 0.000000
# 3 -0.000303 -0.005723 0.011661 0.000000 0.000000 0.000000
# 4 0.000000 0.000000 0.000000 0.015074 0.000000 0.000000
# 5 0.000000 0.000000 0.000000 0.000000 0.039432 0.000000
# 6 0.000000 0.000000 0.000000 0.000000 0.000000 -0.034479
#
#
# Mechanical properties :
#
#
# Convention : Reuss Voigt Hill
#
# Bulk Modulus (GPa) = 49.44994 57.54775 53.49885
# Shear Modulus (GPa) = 57.24358 28.74620 42.99489
#
# Velocity S-wave (km/s) = 5.24525 3.71700 4.54581
# Velocity P-wave (km/s) = 7.77499 6.78825 7.29831
#
# Compressibility (1/GPa) = 0.02022247
#
# Stress axis : x y z
#
# Youngs Moduli (GPa) = 149.00602 45.39610 85.75517
#
# Poissons Ratio (x) = 0.18448 0.02594
# Poissons Ratio (y) = 0.60552 0.49076
# Poissons Ratio (z) = 0.04508 0.25979
#
# Static dielectric constant tensor:
#      x y z
#    x 1.766910 0.000000 0.000000 
#    y 0.000000 1.795520 0.000000 
#    z 0.000000 0.000000 1.903820 
# 
# From -- ./inp_files/4664.got.cif
#   From: 2010.05.17/outbox.cif.g08.bks.cpg/sg20_3_cif.got.tgz:4664.got - 2010.06.03 22:52:26.
