data_PCOD9317746
_publ_section_title
;
Structure prediction by ZEFSAII (Michael W. Deem and Ramdas Pophale) SiO2 
 PCOD9317746
Probable space group: C 2 2 21
;
_chemical_formula_sum "Si O2"
_cell_formula_units_Z 56
_cell_length_a 24.052576
_cell_length_b 11.708412
_cell_length_c 11.294045
_cell_angle_alpha 90.000000
_cell_angle_beta 90.000000
_cell_angle_gamma 90.000000
_cell_volume 3180.600373
_symmetry_space_group_name_H-M "C 2 2 21"
_symmetry_group_IT_number 20
_symmetry_cell_setting 'orthorhombic'
loop_
_space_group_symop_operation_xyz
x,y,z
-x,-y,1/2+z
x,-y,-z
-x,y,1/2-z
1/2+x,1/2+y,z
1/2-x,1/2-y,1/2+z
1/2+x,1/2-y,-z
1/2-x,1/2+y,1/2-z
loop_
_atom_site_type_symbol
_atom_site_label
_atom_site_fract_x
_atom_site_fract_y
_atom_site_fract_z
Si Si1 0.388145 0.000000 0.500000
Si Si2 0.260108 0.604265 0.588818
Si Si3 0.706538 0.158005 0.998097
Si Si4 0.330566 0.211340 0.760280
Si Si5 0.811579 0.000000 0.000000
Si Si6 0.947846 0.675872 0.672942
Si Si7 0.462162 0.440720 0.629403
Si Si8 0.155884 0.023868 0.247667
O O1 0.343186 0.087107 0.439476
O O2 0.426479 0.080473 0.581195
O O3 0.253209 0.500000 0.500000
O O4 0.292652 0.710971 0.534065
O O5 0.202044 0.653675 0.633893
O O6 0.297272 0.557186 0.694996
O O7 0.691787 0.154128 0.859764
O O8 0.767091 0.102990 0.015348
O O9 0.396358 0.195500 0.761889
O O10 0.321749 0.346395 0.747583
O O11 0.849731 0.990829 0.115170
O O12 0.960218 0.801537 0.616512
O O13 0.000000 0.638724 0.750000
O O14 0.475580 0.500000 0.500000
O O15 0.500000 0.462038 0.750000
O O16 0.400134 0.479138 0.670238
#
# Coordination Sequence:
#
# PCOD9317746 Si02
#       8
#     4   8   8   8   4   8   8   8
#     4   9  20  36  64  80 110 158 197 246 300 364
#     4  12  22  34  59  92 122 155 201 251 299 372
#     4  10  20  35  55  84 119 154 200 245 303 368
#     4  10  20  36  54  83 117 157 195 244 309 362
#     4  11  20  34  52  82 120 164 193 246 300 360
#     4   9  20  41  63  82 115 161 203 252 310 363
#     4  10  23  42  66  91 121 158 205 254 309 367
#     4  11  22  34  60  84 119 160 200 240 305 369
#
# _framework density 17.606739000000001
#
# number of rings (size 3 to 8) (size 9 to 14) (size 15 to 20)
#    0.000    1.714    4.286    0.429    5.000    0.000 
#    1.286    0.714    0.000    0.000    0.000    0.000 
#    0.000    0.000    0.000    0.000    0.000    0.000 
#
# Total GULP energy -155905.004467 kJ/mol
# GULP energy per Si atom -5568.035874 kJ/mol
# Density = 1.756667 g / cm^3
# Si number density = 17.606739 Si / 1000 Ang^3
#
#
#
# Elastic Constant Matrix: (Units=GPa)
#
#
# Indices 1 2 3 4 5 6 
#
# 1 56.8622 38.1343 27.1943 0.0000 0.0000 0.0000
# 2 38.1343 120.1576 42.6456 0.0000 0.0000 0.0000
# 3 27.1943 42.6456 96.3771 0.0000 0.0000 0.0000
# 4 0.0000 0.0000 0.0000 19.3701 0.0000 0.0000
# 5 0.0000 0.0000 0.0000 0.0000 25.4788 0.0000
# 6 0.0000 0.0000 0.0000 0.0000 0.0000 22.0639
#
#
#
# Elastic Compliance Matrix: (Units=1/GPa)
#
#
# Indices 1 2 3 4 5 6 
#
# 1 0.023550 -0.006069 -0.003960 0.000000 0.000000 0.000000
# 2 -0.006069 0.011437 -0.003348 0.000000 0.000000 0.000000
# 3 -0.003960 -0.003348 0.012975 0.000000 0.000000 0.000000
# 4 0.000000 0.000000 0.000000 0.051626 0.000000 0.000000
# 5 0.000000 0.000000 0.000000 0.000000 0.039248 0.000000
# 6 0.000000 0.000000 0.000000 0.000000 0.000000 0.045323
#
#
# Mechanical properties :
#
#
# Convention : Reuss Voigt Hill
#
# Bulk Modulus (GPa) = 47.15141 54.37170 50.76155
# Shear Modulus (GPa) = 22.93772 24.41073 23.67422
#
# Velocity S-wave (km/s) = 3.61332 3.72754 3.67087
# Velocity P-wave (km/s) = 6.65181 7.03379 6.84547
#
# Compressibility (1/GPa) = 0.02120827
#
# Stress axis : x y z
#
# Youngs Moduli (GPa) = 42.46281 87.43734 77.07280
#
# Poissons Ratio (x) = 0.53063 0.30518
# Poissons Ratio (y) = 0.25769 0.25806
# Poissons Ratio (z) = 0.16814 0.29276
#
# Static dielectric constant tensor:
#      x y z
#    x 1.606440 0.000000 0.000000 
#    y 0.000000 1.621100 0.000000 
#    z 0.000000 0.000000 1.628240 
# 
# From -- ./inp_files/16771.got.cif
#   From: 2010.05.17/outbox.cif.g08.bks.cpg/sg20_9_cif.got.tgz:16771.got - 2010.06.03 22:52:26.
