data_PCOD9317162
_publ_section_title
;
Structure prediction by ZEFSAII (Michael W. Deem and Ramdas Pophale) SiO2 
 PCOD9317162
Probable space group: C 2 2 21
;
_chemical_formula_sum "Si O2"
_cell_formula_units_Z 48
_cell_length_a 12.378840
_cell_length_b 13.742093
_cell_length_c 12.184115
_cell_angle_alpha 90.000000
_cell_angle_beta 90.000000
_cell_angle_gamma 90.000000
_cell_volume 2072.654064
_symmetry_space_group_name_H-M "C 2 2 21"
_symmetry_group_IT_number 20
_symmetry_cell_setting 'orthorhombic'
loop_
_space_group_symop_operation_xyz
x,y,z
-x,-y,1/2+z
x,-y,-z
-x,y,1/2-z
1/2+x,1/2+y,z
1/2-x,1/2-y,1/2+z
1/2+x,1/2-y,-z
1/2-x,1/2+y,1/2-z
loop_
_atom_site_type_symbol
_atom_site_label
_atom_site_fract_x
_atom_site_fract_y
_atom_site_fract_z
Si Si1 0.145709 0.409865 0.578361
Si Si2 0.883806 0.056631 0.748685
Si Si3 0.899054 0.816687 0.045490
Si Si4 0.845456 0.641114 0.517015
Si Si5 0.878190 0.133851 0.504120
Si Si6 0.151797 0.489728 0.813991
O O1 0.116147 0.500000 0.500000
O O2 0.103907 0.302108 0.542656
O O3 0.277732 0.399493 0.569613
O O4 0.113478 0.445631 0.699407
O O5 0.903358 0.150206 0.827220
O O6 0.857231 0.093467 0.626235
O O7 0.000000 0.003814 0.750000
O O8 0.781628 0.999557 0.796465
O O9 0.784149 0.856249 0.007716
O O10 0.993684 0.877926 0.984987
O O11 0.876747 0.750730 0.500620
O O12 0.882063 0.578852 0.413740
O O13 0.878064 0.595627 0.634878
#
# Coordination Sequence:
#
# PCOD9317162 Si02
#       6
#     8   8   8   8   8   8
#     4  11  21  36  60  85 113 150 187 242 279 337
#     4   9  17  31  56  83 111 146 191 235 283 340
#     4   9  20  36  56  83 113 150 187 233 286 343
#     4   9  20  36  58  78 114 154 185 237 288 339
#     4  10  19  37  57  81 113 155 191 225 290 346
#     4  10  19  35  54  85 110 145 191 237 284 329
#
# _framework density 23.158714
#
# number of rings (size 3 to 8) (size 9 to 14) (size 15 to 20)
#    0.000    2.333    1.667    1.000    0.000    1.333 
#    6.000    0.000    0.000    0.000    0.000    0.000 
#    0.000    0.000    0.000    0.000    0.000    0.000 
#
# Total GULP energy -133822.673575 kJ/mol
# GULP energy per Si atom -5575.944732 kJ/mol
# Density = 2.310600 g / cm^3
# Si number density = 23.158714 Si / 1000 Ang^3
#
#
#
# Elastic Constant Matrix: (Units=GPa)
#
#
# Indices 1 2 3 4 5 6 
#
# 1 90.6053 11.2401 18.6068 0.0000 0.0000 0.0000
# 2 11.2401 111.3706 43.9427 0.0000 0.0000 0.0000
# 3 18.6068 43.9427 106.8332 0.0000 0.0000 0.0000
# 4 0.0000 0.0000 0.0000 70.9981 0.0000 0.0000
# 5 0.0000 0.0000 0.0000 0.0000 25.5448 0.0000
# 6 0.0000 0.0000 0.0000 0.0000 0.0000 8.3709
#
#
#
# Elastic Compliance Matrix: (Units=1/GPa)
#
#
# Indices 1 2 3 4 5 6 
#
# 1 0.011464 -0.000441 -0.001815 0.000000 0.000000 0.000000
# 2 -0.000441 0.010736 -0.004339 0.000000 0.000000 0.000000
# 3 -0.001815 -0.004339 0.011461 0.000000 0.000000 0.000000
# 4 0.000000 0.000000 0.000000 0.014085 0.000000 0.000000
# 5 0.000000 0.000000 0.000000 0.000000 0.039147 0.000000
# 6 0.000000 0.000000 0.000000 0.000000 0.000000 0.119461
#
#
# Mechanical properties :
#
#
# Convention : Reuss Voigt Hill
#
# Bulk Modulus (GPa) = 48.84988 50.70981 49.77985
# Shear Modulus (GPa) = 22.08789 36.65073 29.36931
#
# Velocity S-wave (km/s) = 3.09165 3.98249 3.56501
# Velocity P-wave (km/s) = 5.82097 6.56439 6.20383
#
# Compressibility (1/GPa) = 0.02047088
#
# Stress axis : x y z
#
# Youngs Moduli (GPa) = 87.22675 93.14884 87.25028
#
# Poissons Ratio (x) = 0.04105 0.15840
# Poissons Ratio (y) = 0.03844 0.37858
# Poissons Ratio (z) = 0.15835 0.40417
#
# Static dielectric constant tensor:
#      x y z
#    x 2.000080 0.000000 0.000000 
#    y 0.000000 1.841460 0.000000 
#    z 0.000000 0.000000 1.859590 
# 
# From -- ./inp_files/15017.got.cif
#   From: 2010.05.17/outbox.cif.g08.bks.cpg/sg20_8_cif.got.tgz:15017.got - 2010.06.03 22:52:26.
