data_PCOD9317048
_publ_section_title
;
Structure prediction by ZEFSAII (Michael W. Deem and Ramdas Pophale) SiO2 
 PCOD9317048
Probable space group: C 2 2 21
;
_chemical_formula_sum "Si O2"
_cell_formula_units_Z 64
_cell_length_a 10.483840
_cell_length_b 19.675907
_cell_length_c 14.567189
_cell_angle_alpha 90.000000
_cell_angle_beta 90.000000
_cell_angle_gamma 90.000000
_cell_volume 3004.906066
_symmetry_space_group_name_H-M "C 2 2 21"
_symmetry_group_IT_number 20
_symmetry_cell_setting 'orthorhombic'
loop_
_space_group_symop_operation_xyz
x,y,z
-x,-y,1/2+z
x,-y,-z
-x,y,1/2-z
1/2+x,1/2+y,z
1/2-x,1/2-y,1/2+z
1/2+x,1/2-y,-z
1/2-x,1/2+y,1/2-z
loop_
_atom_site_type_symbol
_atom_site_label
_atom_site_fract_x
_atom_site_fract_y
_atom_site_fract_z
Si Si1 0.145758 0.882627 0.772246
Si Si2 0.104530 0.375793 0.406955
Si Si3 0.780125 0.479428 0.220301
Si Si4 0.675082 0.812633 0.067826
Si Si5 0.328139 0.662382 0.480345
Si Si6 0.767144 0.950021 0.077964
Si Si7 0.058003 0.048904 0.916658
Si Si8 0.152959 0.737370 0.733918
O O1 0.137388 0.855450 0.876272
O O2 0.183889 0.815710 0.713952
O O3 0.000000 0.905100 0.750000
O O4 0.253041 0.940492 0.768101
O O5 0.117140 0.445961 0.349562
O O6 0.193297 0.373595 0.496179
O O7 0.172627 0.318839 0.342843
O O8 0.964506 0.347901 0.427614
O O9 0.799742 0.451390 0.322821
O O10 0.647446 0.457389 0.171269
O O11 0.675068 0.743487 0.010705
O O12 0.765072 0.873949 0.038778
O O13 0.711944 0.788661 0.170875
O O14 0.428076 0.625069 0.545958
O O15 0.912501 0.971000 0.099006
O O16 0.714396 0.000000 0.000000
O O17 0.105487 0.000000 0.000000
O O18 0.000000 0.737986 0.750000
#
# Coordination Sequence:
#
# PCOD9317048 Si02
#       8
#     8   8   8   8   8   8   8   8
#     4  10  19  33  59  90 119 146 199 260 314 358
#     4  10  21  38  64  85 121 166 204 255 309 378
#     4  11  21  37  59  91 123 159 197 250 319 362
#     4  10  21  40  58  85 122 158 215 249 307 374
#     4  10  22  36  61  92 113 154 201 262 311 360
#     4  11  24  37  58  88 122 167 203 250 303 371
#     4  10  20  37  59  89 125 148 200 260 316 363
#     4   8  16  34  58  83 109 157 203 250 299 364
#
# _framework density 21.298501999999999
#
# number of rings (size 3 to 8) (size 9 to 14) (size 15 to 20)
#    0.000    2.000    2.500    1.875    3.500    1.000 
#    2.250    0.000    0.000    0.000    0.000    0.000 
#    0.000    0.000    0.000    0.000    0.000    0.000 
#
# Total GULP energy -178443.292595 kJ/mol
# GULP energy per Si atom -5576.352894 kJ/mol
# Density = 2.125003 g / cm^3
# Si number density = 21.298502 Si / 1000 Ang^3
#
#
#
# Elastic Constant Matrix: (Units=GPa)
#
#
# Indices 1 2 3 4 5 6 
#
# 1 51.6949 2.2816 9.8725 0.0000 0.0000 0.0000
# 2 2.2816 133.3049 12.8747 0.0000 0.0000 0.0000
# 3 9.8725 12.8747 63.2255 0.0000 0.0000 0.0000
# 4 0.0000 0.0000 0.0000 29.5760 0.0000 0.0000
# 5 0.0000 0.0000 0.0000 0.0000 13.4106 0.0000
# 6 0.0000 0.0000 0.0000 0.0000 0.0000 25.6742
#
#
#
# Elastic Compliance Matrix: (Units=1/GPa)
#
#
# Indices 1 2 3 4 5 6 
#
# 1 0.019939 -0.000041 -0.003105 0.000000 0.000000 0.000000
# 2 -0.000041 0.007652 -0.001552 0.000000 0.000000 0.000000
# 3 -0.003105 -0.001552 0.016617 0.000000 0.000000 0.000000
# 4 0.000000 0.000000 0.000000 0.033811 0.000000 0.000000
# 5 0.000000 0.000000 0.000000 0.000000 0.074568 0.000000
# 6 0.000000 0.000000 0.000000 0.000000 0.000000 0.038950
#
#
# Mechanical properties :
#
#
# Convention : Reuss Voigt Hill
#
# Bulk Modulus (GPa) = 28.72557 33.14255 30.93406
# Shear Modulus (GPa) = 23.52522 28.61190 26.06856
#
# Velocity S-wave (km/s) = 3.32708 3.66919 3.50231
# Velocity P-wave (km/s) = 5.31749 5.79183 5.55972
#
# Compressibility (1/GPa) = 0.03481218
#
# Stress axis : x y z
#
# Youngs Moduli (GPa) = 50.15276 130.68172 60.17851
#
# Poissons Ratio (x) = 0.00541 0.18685
# Poissons Ratio (y) = 0.00208 0.09338
# Poissons Ratio (z) = 0.15572 0.20279
#
# Static dielectric constant tensor:
#      x y z
#    x 1.770740 0.000000 0.000000 
#    y 0.000000 1.839790 0.000000 
#    z 0.000000 0.000000 1.801330 
# 
# From -- ./inp_files/20291.got.cif
#   From: 2010.05.17/outbox.cif.g08.bks.cpg/sg20_11_cif.got.tgz:20291.got - 2010.06.03 22:52:26.
