data_PCOD9317215
_publ_section_title
;
Structure prediction by ZEFSAII (Michael W. Deem and Ramdas Pophale) SiO2 
 PCOD9317215
Probable space group: C 2 2 21
;
_chemical_formula_sum "Si O2"
_cell_formula_units_Z 64
_cell_length_a 24.082594
_cell_length_b 9.103395
_cell_length_c 15.566629
_cell_angle_alpha 90.000000
_cell_angle_beta 90.000000
_cell_angle_gamma 90.000000
_cell_volume 3412.724470
_symmetry_space_group_name_H-M "C 2 2 21"
_symmetry_group_IT_number 20
_symmetry_cell_setting 'orthorhombic'
loop_
_space_group_symop_operation_xyz
x,y,z
-x,-y,1/2+z
x,-y,-z
-x,y,1/2-z
1/2+x,1/2+y,z
1/2-x,1/2-y,1/2+z
1/2+x,1/2-y,-z
1/2-x,1/2+y,1/2-z
loop_
_atom_site_type_symbol
_atom_site_label
_atom_site_fract_x
_atom_site_fract_y
_atom_site_fract_z
Si Si1 0.446703 0.174521 0.999997
Si Si2 0.124496 0.824304 0.646339
Si Si3 0.748448 0.173211 0.102162
Si Si4 0.860133 0.824852 0.658619
Si Si5 0.624494 0.675692 0.646334
Si Si6 0.422095 0.824833 0.500000
Si Si7 0.251550 0.826782 0.397842
Si Si8 0.860136 0.824845 0.341376
O O1 0.417187 0.242985 0.916732
O O2 0.417190 0.242995 0.083261
O O3 0.512266 0.205106 0.999994
O O4 0.438859 0.000000 0.000000
O O5 0.188167 0.786203 0.622654
O O6 0.116512 0.791575 0.746758
O O7 0.118989 0.999997 0.633476
O O8 0.703067 0.267949 0.151748
O O9 0.741412 0.999996 0.122602
O O10 0.739115 0.191220 0.000002
O O11 0.894057 0.745088 0.583913
O O12 0.796928 0.767964 0.651744
O O13 0.861345 0.000004 0.646230
O O14 0.688164 0.713797 0.622647
O O15 0.616509 0.708425 0.746752
O O16 0.394063 0.754917 0.583918
O O17 0.412741 0.000000 0.500000
#
# Coordination Sequence:
#
# PCOD9317215 Si02
#       8
#     8   8   8   8   8   8   8   8
#     4  11  25  42  63  88 113 154 206 249 292 349
#     4  10  22  41  63  89 123 158 192 240 300 353
#     4  10  19  35  61  89 122 161 191 231 298 356
#     4  11  23  38  62  93 120 154 200 244 290 349
#     4  10  22  41  63  89 123 158 192 240 300 353
#     4  11  25  44  61  82 119 160 198 247 302 349
#     4  10  19  35  61  89 122 161 191 231 298 356
#     4  11  23  38  62  93 120 154 200 244 290 349
#
# _framework density 18.753346000000001
#
# number of rings (size 3 to 8) (size 9 to 14) (size 15 to 20)
#    0.000    1.500    2.500    2.250    0.000    6.000 
#    0.000    5.000    0.000    0.000    0.000    0.000 
#    0.000    0.000    0.000    0.000    0.000    0.000 
#
# Total GULP energy -178911.046304 kJ/mol
# GULP energy per Si atom -5590.970197 kJ/mol
# Density = 1.871066 g / cm^3
# Si number density = 18.753346 Si / 1000 Ang^3
#
#
#
# Elastic Constant Matrix: (Units=GPa)
#
#
# Indices 1 2 3 4 5 6 
#
# 1 102.4181 57.5079 57.2990 0.0000 0.0000 0.0000
# 2 57.5079 58.0075 54.8186 0.0000 0.0000 0.0000
# 3 57.2990 54.8186 102.5439 0.0000 0.0000 0.0000
# 4 0.0000 0.0000 0.0000 22.5997 0.0000 0.0000
# 5 0.0000 0.0000 0.0000 0.0000 1.2898 0.0000
# 6 0.0000 0.0000 0.0000 0.0000 0.0000 34.7281
#
#
#
# Elastic Compliance Matrix: (Units=1/GPa)
#
#
# Indices 1 2 3 4 5 6 
#
# 1 0.022107 -0.020701 -0.001286 0.000000 0.000000 0.000000
# 2 -0.020701 0.054225 -0.017421 0.000000 0.000000 0.000000
# 3 -0.001286 -0.017421 0.019784 0.000000 0.000000 0.000000
# 4 0.000000 0.000000 0.000000 0.044248 0.000000 0.000000
# 5 0.000000 0.000000 0.000000 0.000000 0.775328 0.000000
# 6 0.000000 0.000000 0.000000 0.000000 0.000000 0.028795
#
#
# Mechanical properties :
#
#
# Convention : Reuss Voigt Hill
#
# Bulk Modulus (GPa) = 57.80565 66.91338 62.35951
# Shear Modulus (GPa) = 4.85875 17.94645 11.40260
#
# Velocity S-wave (km/s) = 1.61137 3.09685 2.46850
# Velocity P-wave (km/s) = 5.86115 6.96747 6.43812
#
# Compressibility (1/GPa) = 0.01729935
#
# Stress axis : x y z
#
# Youngs Moduli (GPa) = 45.23374 18.44169 50.54692
#
# Poissons Ratio (x) = 0.38177 0.06503
# Poissons Ratio (y) = 0.93639 0.88056
# Poissons Ratio (z) = 0.05819 0.32127
#
# Static dielectric constant tensor:
#      x y z
#    x 1.627580 0.000000 0.000000 
#    y 0.000000 1.621760 0.000000 
#    z 0.000000 0.000000 1.640050 
# 
# From -- ./inp_files/22067.got.cif
#   From: 2010.05.17/outbox.cif.g08.bks.cpg/sg20_12_cif.got.tgz:22067.got - 2010.06.03 22:52:26.
