data_PCOD9317315
_publ_section_title
;
Structure prediction by ZEFSAII (Michael W. Deem and Ramdas Pophale) SiO2 
 PCOD9317315
Probable space group: C 2 2 21
;
_chemical_formula_sum "Si O2"
_cell_formula_units_Z 60
_cell_length_a 6.411116
_cell_length_b 19.566873
_cell_length_c 23.055529
_cell_angle_alpha 90.000000
_cell_angle_beta 90.000000
_cell_angle_gamma 90.000000
_cell_volume 2892.212192
_symmetry_space_group_name_H-M "C 2 2 21"
_symmetry_group_IT_number 20
_symmetry_cell_setting 'orthorhombic'
loop_
_space_group_symop_operation_xyz
x,y,z
-x,-y,1/2+z
x,-y,-z
-x,y,1/2-z
1/2+x,1/2+y,z
1/2-x,1/2-y,1/2+z
1/2+x,1/2-y,-z
1/2-x,1/2+y,1/2-z
loop_
_atom_site_type_symbol
_atom_site_label
_atom_site_fract_x
_atom_site_fract_y
_atom_site_fract_z
Si Si1 0.500000 0.906735 0.750000
Si Si2 0.661224 0.479229 0.817761
Si Si3 0.599591 0.617512 0.690960
Si Si4 0.281727 0.600822 0.146634
Si Si5 0.505702 0.327869 0.436409
Si Si6 0.163214 0.678759 0.037823
Si Si7 0.639043 0.079001 0.518590
Si Si8 0.937246 0.459584 0.369421
O O1 0.306595 0.955508 0.765333
O O2 0.395876 0.872713 0.692841
O O3 0.527031 0.546517 0.809690
O O4 0.513167 0.415036 0.830207
O O5 0.838036 0.505224 0.861087
O O6 0.500000 0.650657 0.750000
O O7 0.552949 0.658314 0.631522
O O8 0.839953 0.590557 0.680147
O O9 0.291381 0.648546 0.091434
O O10 0.210267 0.525287 0.125878
O O11 0.701206 0.322906 0.479578
O O12 0.393848 0.255549 0.445658
O O13 0.353185 0.388134 0.458759
O O14 0.962380 0.629192 0.029280
O O15 0.470838 0.079208 0.570939
O O16 0.663075 0.000000 0.500000
#
# Coordination Sequence:
#
# PCOD9317315 Si02
#       8
#     4   8   8   8   8   8   8   8
#     4  10  20  38  62  96 136 180 218 286 346 406
#     4  10  19  36  62 100 136 173 218 277 353 400
#     4  11  22  38  64 100 135 175 226 281 340 422
#     4  10  22  37  63  96 135 176 223 279 341 409
#     4  12  27  45  69  94 139 186 229 285 365 424
#     4  12  26  46  67  95 138 183 226 290 357 422
#     4  12  24  42  69 103 135 176 233 290 343 414
#     4  10  20  36  62  99 136 168 217 285 342 402
#
# _framework density 20.745366000000001
#
# number of rings (size 3 to 8) (size 9 to 14) (size 15 to 20)
#    0.000    1.067    5.333    2.800    1.867    0.533 
#    1.200    0.000    0.000    1.600    0.000    0.000 
#    0.000    0.000    0.000    0.000    0.000    0.000 
#
# Total GULP energy -167046.504717 kJ/mol
# GULP energy per Si atom -5568.216824 kJ/mol
# Density = 2.069815 g / cm^3
# Si number density = 20.745366 Si / 1000 Ang^3
#
#
#
# Elastic Constant Matrix: (Units=GPa)
#
#
# Indices 1 2 3 4 5 6 
#
# 1 77.6389 35.8544 35.6250 0.0000 0.0000 0.0000
# 2 35.8544 83.3945 48.7058 0.0000 0.0000 0.0000
# 3 35.6250 48.7058 130.0892 0.0000 0.0000 0.0000
# 4 0.0000 0.0000 0.0000 9.7318 0.0000 0.0000
# 5 0.0000 0.0000 0.0000 0.0000 31.9024 0.0000
# 6 0.0000 0.0000 0.0000 0.0000 0.0000 17.7379
#
#
#
# Elastic Compliance Matrix: (Units=1/GPa)
#
#
# Indices 1 2 3 4 5 6 
#
# 1 0.016638 -0.005750 -0.002404 0.000000 0.000000 0.000000
# 2 -0.005750 0.017334 -0.004915 0.000000 0.000000 0.000000
# 3 -0.002404 -0.004915 0.010186 0.000000 0.000000 0.000000
# 4 0.000000 0.000000 0.000000 0.102756 0.000000 0.000000
# 5 0.000000 0.000000 0.000000 0.000000 0.031346 0.000000
# 6 0.000000 0.000000 0.000000 0.000000 0.000000 0.056376
#
#
# Mechanical properties :
#
#
# Convention : Reuss Voigt Hill
#
# Bulk Modulus (GPa) = 55.49223 59.05476 57.27350
# Shear Modulus (GPa) = 18.74202 23.27024 21.00613
#
# Velocity S-wave (km/s) = 3.00897 3.35282 3.18554
# Velocity P-wave (km/s) = 6.23532 6.59673 6.41857
#
# Compressibility (1/GPa) = 0.01802054
#
# Stress axis : x y z
#
# Youngs Moduli (GPa) = 60.10230 57.69041 98.17753
#
# Poissons Ratio (x) = 0.33169 0.23600
# Poissons Ratio (y) = 0.34556 0.48258
# Poissons Ratio (z) = 0.14447 0.28357
#
# Static dielectric constant tensor:
#      x y z
#    x 1.819430 0.000000 0.000000 
#    y 0.000000 1.715840 0.000000 
#    z 0.000000 0.000000 1.934630 
# 
# From -- ./inp_files/28472.got.cif
#   From: 2010.05.17/outbox.cif.g08.bks.cpg/sg20_15_cif.got.tgz:28472.got - 2010.06.03 22:52:26.
