data_PCOD9317991
_publ_section_title
;
Structure prediction by ZEFSAII (Michael W. Deem and Ramdas Pophale) SiO2 
 PCOD9317991
Probable space group: C 2 2 21
;
_chemical_formula_sum "Si O2"
_cell_formula_units_Z 48
_cell_length_a 12.220460
_cell_length_b 16.705793
_cell_length_c 11.122304
_cell_angle_alpha 90.000000
_cell_angle_beta 90.000000
_cell_angle_gamma 90.000000
_cell_volume 2270.645891
_symmetry_space_group_name_H-M "C 2 2 21"
_symmetry_group_IT_number 20
_symmetry_cell_setting 'orthorhombic'
loop_
_space_group_symop_operation_xyz
x,y,z
-x,-y,1/2+z
x,-y,-z
-x,y,1/2-z
1/2+x,1/2+y,z
1/2-x,1/2-y,1/2+z
1/2+x,1/2-y,-z
1/2-x,1/2+y,1/2-z
loop_
_atom_site_type_symbol
_atom_site_label
_atom_site_fract_x
_atom_site_fract_y
_atom_site_fract_z
Si Si1 0.375014 0.534907 0.757247
Si Si2 0.651061 0.377015 0.021448
Si Si3 0.442223 0.632376 0.139399
Si Si4 0.659873 0.820876 0.647315
Si Si5 0.225546 0.845008 0.436465
Si Si6 0.409145 0.193896 0.410281
O O1 0.500000 0.566709 0.750000
O O2 0.327481 0.561019 0.628971
O O3 0.386406 0.442846 0.794334
O O4 0.314433 0.578575 0.865273
O O5 0.624755 0.287872 0.075336
O O6 0.540268 0.396788 0.947859
O O7 0.753711 0.370107 0.931433
O O8 0.500000 0.679877 0.250000
O O9 0.351833 0.670431 0.053250
O O10 0.709172 0.731485 0.647309
O O11 0.637692 0.841477 0.785694
O O12 0.539112 0.815413 0.589892
O O13 0.348566 0.849808 0.481517
#
# Coordination Sequence:
#
# PCOD9317991 Si02
#       6
#     8   8   8   8   8   8
#     4  11  21  36  59  84 124 163 196 255 318 362
#     4  11  21  37  57  90 127 161 208 254 316 376
#     4  11  23  34  56  91 119 154 207 253 303 369
#     4  10  20  37  59  85 123 165 198 253 313 373
#     4  11  20  35  56  88 120 158 204 246 309 375
#     4  10  20  37  61  86 123 164 202 255 312 380
#
# _framework density 21.13936
#
# number of rings (size 3 to 8) (size 9 to 14) (size 15 to 20)
#    0.000    1.333    5.000    1.500    2.333    0.000 
#    0.000    0.833    0.000    0.000   43.333    0.000 
#    0.000    0.000    0.000    0.000    0.000    0.000 
#
# Total GULP energy -134064.096854 kJ/mol
# GULP energy per Si atom -5586.004036 kJ/mol
# Density = 2.109125 g / cm^3
# Si number density = 21.139360 Si / 1000 Ang^3
#
#
#
# Elastic Constant Matrix: (Units=GPa)
#
#
# Indices 1 2 3 4 5 6 
#
# 1 114.9001 11.2407 34.3723 0.0000 0.0000 0.0000
# 2 11.2407 37.5766 17.6443 0.0000 0.0000 0.0000
# 3 34.3723 17.6443 81.0695 0.0000 0.0000 0.0000
# 4 0.0000 0.0000 0.0000 33.2765 0.0000 0.0000
# 5 0.0000 0.0000 0.0000 0.0000 41.4534 0.0000
# 6 0.0000 0.0000 0.0000 0.0000 0.0000 22.6374
#
#
#
# Elastic Compliance Matrix: (Units=1/GPa)
#
#
# Indices 1 2 3 4 5 6 
#
# 1 0.010009 -0.001115 -0.004001 0.000000 0.000000 0.000000
# 2 -0.001115 0.029766 -0.006005 0.000000 0.000000 0.000000
# 3 -0.004001 -0.006005 0.015339 0.000000 0.000000 0.000000
# 4 0.000000 0.000000 0.000000 0.030051 0.000000 0.000000
# 5 0.000000 0.000000 0.000000 0.000000 0.024123 0.000000
# 6 0.000000 0.000000 0.000000 0.000000 0.000000 0.044175
#
#
# Mechanical properties :
#
#
# Convention : Reuss Voigt Hill
#
# Bulk Modulus (GPa) = 30.42306 40.00677 35.21491
# Shear Modulus (GPa) = 26.78619 30.82605 28.80612
#
# Velocity S-wave (km/s) = 3.56353 3.82282 3.69545
# Velocity P-wave (km/s) = 5.59952 6.20094 5.90788
#
# Compressibility (1/GPa) = 0.03286980
#
# Stress axis : x y z
#
# Youngs Moduli (GPa) = 99.90768 33.59554 65.19539
#
# Poissons Ratio (x) = 0.03748 0.26085
# Poissons Ratio (y) = 0.11145 0.39153
# Poissons Ratio (z) = 0.39973 0.20176
#
# Static dielectric constant tensor:
#      x y z
#    x 1.762560 0.000000 0.000000 
#    y 0.000000 1.772030 0.000000 
#    z 0.000000 0.000000 1.799700 
# 
# From -- ./inp_files/14253.got.cif
#   From: 2010.05.17/outbox.cif.g08.bks.cpg/sg20_8_cif.got.tgz:14253.got - 2010.06.03 22:52:26.
