data_PCOD9317617
_publ_section_title
;
Structure prediction by ZEFSAII (Michael W. Deem and Ramdas Pophale) SiO2 
 PCOD9317617
Probable space group: C 2 2 21
;
_chemical_formula_sum "Si O2"
_cell_formula_units_Z 52
_cell_length_a 14.545846
_cell_length_b 5.396829
_cell_length_c 28.984082
_cell_angle_alpha 90.000000
_cell_angle_beta 90.000000
_cell_angle_gamma 90.000000
_cell_volume 2275.292276
_symmetry_space_group_name_H-M "C 2 2 21"
_symmetry_group_IT_number 20
_symmetry_cell_setting 'orthorhombic'
loop_
_space_group_symop_operation_xyz
x,y,z
-x,-y,1/2+z
x,-y,-z
-x,y,1/2-z
1/2+x,1/2+y,z
1/2-x,1/2-y,1/2+z
1/2+x,1/2-y,-z
1/2-x,1/2+y,1/2-z
loop_
_atom_site_type_symbol
_atom_site_label
_atom_site_fract_x
_atom_site_fract_y
_atom_site_fract_z
Si Si1 0.984355 0.000000 0.500000
Si Si2 0.637180 0.263440 0.726175
Si Si3 0.062665 0.321740 0.574021
Si Si4 0.640713 0.233624 0.224273
Si Si5 0.129601 0.839228 0.911914
Si Si6 0.140647 0.663023 0.116753
Si Si7 0.927327 0.177359 0.121908
O O1 0.917860 0.127088 0.461907
O O2 0.049019 0.210627 0.522808
O O3 0.607435 0.502721 0.756088
O O4 0.748229 0.261705 0.727767
O O5 0.607444 0.285842 0.673320
O O6 0.606401 0.000581 0.746566
O O7 0.098506 0.591474 0.588493
O O8 0.956188 0.337307 0.590171
O O9 0.102658 0.089890 0.602634
O O10 0.622212 0.180284 0.170792
O O11 0.184156 0.590965 0.900748
O O12 0.039471 0.832021 0.878505
O O13 0.186586 0.082689 0.899303
#
# Coordination Sequence:
#
# PCOD9317617 Si02
#       7
#     4   8   8   8   8   8   8
#     4   8  16  30  48  74  98 122 156 182 228 292
#     4  10  20  33  49  66  89 125 165 197 225 269
#     4   9  18  29  48  70  95 121 147 187 233 280
#     4  10  20  33  49  66  89 125 165 197 225 269
#     4   9  18  29  48  70  95 121 147 187 233 280
#     4   9  17  31  44  68  96 117 153 191 230 274
#     4   9  17  31  44  68  96 117 153 191 230 274
#
# _framework density 22.854206000000001
#
# number of rings (size 3 to 8) (size 9 to 14) (size 15 to 20)
#    0.000    3.077    0.000    1.846    0.000    9.846 
#    0.000   18.462    0.000    0.000    0.000   34.462 
#    0.000    0.000    0.000    0.000    0.000    0.000 
#
# Total GULP energy -145031.454540 kJ/mol
# GULP energy per Si atom -5578.132867 kJ/mol
# Density = 2.280219 g / cm^3
# Si number density = 22.854206 Si / 1000 Ang^3
#
#
#
# Elastic Constant Matrix: (Units=GPa)
#
#
# Indices 1 2 3 4 5 6 
#
# 1 66.3167 -7.7712 -18.6821 0.0000 0.0000 0.0000
# 2 -7.7712 171.2975 16.9091 0.0000 0.0000 0.0000
# 3 -18.6821 16.9091 89.5761 0.0000 0.0000 0.0000
# 4 0.0000 0.0000 0.0000 34.1768 0.0000 0.0000
# 5 0.0000 0.0000 0.0000 0.0000 55.3037 0.0000
# 6 0.0000 0.0000 0.0000 0.0000 0.0000 -20.8994
#
#
#
# Elastic Compliance Matrix: (Units=1/GPa)
#
#
# Indices 1 2 3 4 5 6 
#
# 1 0.016048 0.000405 0.003270 0.000000 0.000000 0.000000
# 2 0.000405 0.005959 -0.001040 0.000000 0.000000 0.000000
# 3 0.003270 -0.001040 0.012042 0.000000 0.000000 0.000000
# 4 0.000000 0.000000 0.000000 0.029260 0.000000 0.000000
# 5 0.000000 0.000000 0.000000 0.000000 0.018082 0.000000
# 6 0.000000 0.000000 0.000000 0.000000 0.000000 -0.047848
#
#
# Mechanical properties :
#
#
# Convention : Reuss Voigt Hill
#
# Bulk Modulus (GPa) = 25.43252 34.23353 29.83302
# Shear Modulus (GPa) = 120.83671 36.16519 78.50095
#
# Velocity S-wave (km/s) = 7.27926 3.98229 5.86712
# Velocity P-wave (km/s) = 9.04447 6.01303 7.67981
#
# Compressibility (1/GPa) = 0.03931974
#
# Stress axis : x y z
#
# Youngs Moduli (GPa) = 62.31320 167.81699 83.04150
#
# Poissons Ratio (x) = -0.06800 -0.27159
# Poissons Ratio (y) = -0.02525 0.08639
# Poissons Ratio (z) = -0.20379 0.17459
#
# Static dielectric constant tensor:
#      x y z
#    x 1.835970 0.000000 0.000000 
#    y 0.000000 2.010690 0.000000 
#    z 0.000000 0.000000 1.836450 
# 
# From -- ./inp_files/30483.got.cif
#   From: 2010.05.17/outbox.cif.g08.bks.cpg/sg20_16_cif.got.tgz:30483.got - 2010.06.03 22:52:26.
