data_PCOD9317577
_publ_section_title
;
Structure prediction by ZEFSAII (Michael W. Deem and Ramdas Pophale) SiO2 
 PCOD9317577
Probable space group: C 2 2 21
;
_chemical_formula_sum "Si O2"
_cell_formula_units_Z 52
_cell_length_a 8.097762
_cell_length_b 20.575828
_cell_length_c 14.221001
_cell_angle_alpha 90.000000
_cell_angle_beta 90.000000
_cell_angle_gamma 90.000000
_cell_volume 2369.476993
_symmetry_space_group_name_H-M "C 2 2 21"
_symmetry_group_IT_number 20
_symmetry_cell_setting 'orthorhombic'
loop_
_space_group_symop_operation_xyz
x,y,z
-x,-y,1/2+z
x,-y,-z
-x,y,1/2-z
1/2+x,1/2+y,z
1/2-x,1/2-y,1/2+z
1/2+x,1/2-y,-z
1/2-x,1/2+y,1/2-z
loop_
_atom_site_type_symbol
_atom_site_label
_atom_site_fract_x
_atom_site_fract_y
_atom_site_fract_z
Si Si1 0.531456 0.875723 0.962206
Si Si2 0.774949 0.097430 0.211609
Si Si3 0.500000 0.918364 0.250000
Si Si4 0.650421 0.988477 0.616284
Si Si5 0.346942 0.208891 0.178040
Si Si6 0.759785 0.142913 0.856154
Si Si7 0.032067 0.014821 0.605194
O O1 0.664705 0.887529 0.879558
O O2 0.419976 0.940928 0.963715
O O3 0.405257 0.822495 0.920719
O O4 0.633220 0.858426 0.055093
O O5 0.679111 0.057808 0.291974
O O6 0.796491 0.165995 0.269225
O O7 0.908818 0.046406 0.168979
O O8 0.340126 0.875598 0.262609
O O9 0.482105 0.961971 0.157891
O O10 0.833551 0.016720 0.602707
O O11 0.500000 0.203462 0.250000
O O12 0.318061 0.284091 0.157843
O O13 0.891969 0.084470 0.866782
O O14 0.093046 0.000000 0.500000
#
# Coordination Sequence:
#
# PCOD9317577 Si02
#       7
#     8   8   4   8   8   8   8
#     4  10  21  47  71  92 136 187 232 281 346 421
#     4  10  19  45  73  95 130 189 228 280 353 419
#     4  12  26  40  70  96 146 180 218 290 356 422
#     4  11  22  41  68 102 133 182 228 277 359 420
#     4   9  23  46  72  95 135 190 237 280 354 425
#     4  12  26  46  66 107 142 182 235 298 346 414
#     4  12  25  40  70 109 138 174 234 302 345 407
#
# _framework density 21.945771000000001
#
# number of rings (size 3 to 8) (size 9 to 14) (size 15 to 20)
#    0.000    1.231    4.615    1.385    4.308    0.000 
#   16.615    0.000    0.000    0.000    0.000    0.000 
#    0.000    0.000    0.000    0.000    0.000    0.000 
#
# Total GULP energy -145059.804301 kJ/mol
# GULP energy per Si atom -5579.223242 kJ/mol
# Density = 2.189582 g / cm^3
# Si number density = 21.945771 Si / 1000 Ang^3
#
#
#
# Elastic Constant Matrix: (Units=GPa)
#
#
# Indices 1 2 3 4 5 6 
#
# 1 68.4418 51.0140 8.4882 0.0000 0.0000 0.0000
# 2 51.0140 175.6539 27.1609 0.0000 0.0000 0.0000
# 3 8.4882 27.1609 77.4991 0.0000 0.0000 0.0000
# 4 0.0000 0.0000 0.0000 27.6442 0.0000 0.0000
# 5 0.0000 0.0000 0.0000 0.0000 36.8546 0.0000
# 6 0.0000 0.0000 0.0000 0.0000 0.0000 26.7588
#
#
#
# Elastic Compliance Matrix: (Units=1/GPa)
#
#
# Indices 1 2 3 4 5 6 
#
# 1 0.018649 -0.005393 -0.000153 0.000000 0.000000 0.000000
# 2 -0.005393 0.007579 -0.002065 0.000000 0.000000 0.000000
# 3 -0.000153 -0.002065 0.013644 0.000000 0.000000 0.000000
# 4 0.000000 0.000000 0.000000 0.036174 0.000000 0.000000
# 5 0.000000 0.000000 0.000000 0.000000 0.027134 0.000000
# 6 0.000000 0.000000 0.000000 0.000000 0.000000 0.037371
#
#
# Mechanical properties :
#
#
# Convention : Reuss Voigt Hill
#
# Bulk Modulus (GPa) = 40.56714 54.99121 47.77917
# Shear Modulus (GPa) = 30.48997 33.91365 32.20181
#
# Velocity S-wave (km/s) = 3.73142 3.93534 3.83474
# Velocity P-wave (km/s) = 6.09015 6.76472 6.43628
#
# Compressibility (1/GPa) = 0.02465050
#
# Stress axis : x y z
#
# Youngs Moduli (GPa) = 53.62125 131.95197 73.29262
#
# Poissons Ratio (x) = 0.71156 0.01119
# Poissons Ratio (y) = 0.28916 0.15138
# Poissons Ratio (z) = 0.00819 0.27253
#
# Static dielectric constant tensor:
#      x y z
#    x 1.829140 0.000000 0.000000 
#    y 0.000000 1.843950 0.000000 
#    z 0.000000 0.000000 1.843230 
# 
# From -- ./inp_files/19116.got.cif
#   From: 2010.05.17/outbox.cif.g08.bks.cpg/sg20_10_cif.got.tgz:19116.got - 2010.06.03 22:52:26.
