data_PCOD9317924
_publ_section_title
;
Structure prediction by ZEFSAII (Michael W. Deem and Ramdas Pophale) SiO2 
 PCOD9317924
Probable space group: C 2 2 21
;
_chemical_formula_sum "Si O2"
_cell_formula_units_Z 48
_cell_length_a 16.769720
_cell_length_b 8.022031
_cell_length_c 17.797160
_cell_angle_alpha 90.000000
_cell_angle_beta 90.000000
_cell_angle_gamma 90.000000
_cell_volume 2394.202347
_symmetry_space_group_name_H-M "C 2 2 21"
_symmetry_group_IT_number 20
_symmetry_cell_setting 'orthorhombic'
loop_
_space_group_symop_operation_xyz
x,y,z
-x,-y,1/2+z
x,-y,-z
-x,y,1/2-z
1/2+x,1/2+y,z
1/2-x,1/2-y,1/2+z
1/2+x,1/2-y,-z
1/2-x,1/2+y,1/2-z
loop_
_atom_site_type_symbol
_atom_site_label
_atom_site_fract_x
_atom_site_fract_y
_atom_site_fract_z
Si Si1 0.681801 0.931551 0.246040
Si Si2 0.500000 0.470846 0.250000
Si Si3 0.590644 0.122478 0.605243
Si Si4 0.401006 0.258092 0.050675
Si Si5 0.843927 0.194535 0.799333
Si Si6 0.958885 0.000000 0.500000
Si Si7 0.579735 0.281723 0.866033
O O1 0.642609 0.849692 0.320386
O O2 0.776541 0.913989 0.240221
O O3 0.644000 0.838740 0.173489
O O4 0.663068 0.124923 0.260592
O O5 0.565359 0.360522 0.290570
O O6 0.448491 0.584524 0.304932
O O7 0.624462 0.228441 0.535432
O O8 0.500323 0.177690 0.618440
O O9 0.584515 0.928684 0.582221
O O10 0.334991 0.318359 0.110073
O O11 0.479454 0.375520 0.043909
O O12 0.907014 0.111709 0.442362
#
# Coordination Sequence:
#
# PCOD9317924 Si02
#       7
#     8   4   8   8   8   4   8
#     4  11  23  39  61  95 128 163 210 267 317 369
#     4  12  22  38  64  90 120 162 216 248 310 374
#     4   9  19  36  62  87 123 165 206 255 316 382
#     4   9  19  36  60  88 121 165 208 251 316 384
#     4  11  25  40  62  91 128 167 212 261 316 377
#     4  10  20  36  62  94 124 162 214 258 310 382
#     4  11  21  37  64  92 124 163 208 260 312 374
#
# _framework density 20.048431000000001
#
# number of rings (size 3 to 8) (size 9 to 14) (size 15 to 20)
#    0.000    1.667    3.333    1.000    4.667    0.000 
#    0.000    5.000    0.000    6.000    0.000    0.000 
#    0.000    0.000    0.000    0.000    0.000    0.000 
#
# Total GULP energy -133731.187345 kJ/mol
# GULP energy per Si atom -5572.132806 kJ/mol
# Density = 2.000280 g / cm^3
# Si number density = 20.048431 Si / 1000 Ang^3
#
#
#
# Elastic Constant Matrix: (Units=GPa)
#
#
# Indices 1 2 3 4 5 6 
#
# 1 61.3067 13.9198 24.8193 0.0000 0.0000 0.0000
# 2 13.9198 49.8671 23.8988 0.0000 0.0000 0.0000
# 3 24.8193 23.8988 93.3423 0.0000 0.0000 0.0000
# 4 0.0000 0.0000 0.0000 28.0444 0.0000 0.0000
# 5 0.0000 0.0000 0.0000 0.0000 13.6647 0.0000
# 6 0.0000 0.0000 0.0000 0.0000 0.0000 -7.6809
#
#
#
# Elastic Compliance Matrix: (Units=1/GPa)
#
#
# Indices 1 2 3 4 5 6 
#
# 1 0.018727 -0.003238 -0.004150 0.000000 0.000000 0.000000
# 2 -0.003238 0.023418 -0.005135 0.000000 0.000000 0.000000
# 3 -0.004150 -0.005135 0.013131 0.000000 0.000000 0.000000
# 4 0.000000 0.000000 0.000000 0.035658 0.000000 0.000000
# 5 0.000000 0.000000 0.000000 0.000000 0.073181 0.000000
# 6 0.000000 0.000000 0.000000 0.000000 0.000000 -0.130194
#
#
# Mechanical properties :
#
#
# Convention : Reuss Voigt Hill
#
# Bulk Modulus (GPa) = 33.08012 36.64357 34.86184
# Shear Modulus (GPa) = 72.41663 16.26419 44.34041
#
# Velocity S-wave (km/s) = 6.01658 2.85133 4.70794
# Velocity P-wave (km/s) = 8.04994 5.39975 6.85416
#
# Compressibility (1/GPa) = 0.03022964
#
# Stress axis : x y z
#
# Youngs Moduli (GPa) = 53.39915 42.70207 76.15295
#
# Poissons Ratio (x) = 0.13829 0.31606
# Poissons Ratio (y) = 0.17293 0.39103
# Poissons Ratio (z) = 0.22162 0.21926
#
# Static dielectric constant tensor:
#      x y z
#    x 1.689250 0.000000 0.000000 
#    y 0.000000 1.763360 0.000000 
#    z 0.000000 0.000000 1.804220 
# 
# From -- ./inp_files/24830.got.cif
#   From: 2010.05.17/outbox.cif.g08.bks.cpg/sg20_13_cif.got.tgz:24830.got - 2010.06.03 22:52:26.
