data_PCOD9317381
_publ_section_title
;
Structure prediction by ZEFSAII (Michael W. Deem and Ramdas Pophale) SiO2 
 PCOD9317381
Probable space group: C 2 2 21
;
_chemical_formula_sum "Si O2"
_cell_formula_units_Z 48
_cell_length_a 10.845107
_cell_length_b 16.739328
_cell_length_c 11.639696
_cell_angle_alpha 90.000000
_cell_angle_beta 90.000000
_cell_angle_gamma 90.000000
_cell_volume 2113.068122
_symmetry_space_group_name_H-M "C 2 2 21"
_symmetry_group_IT_number 20
_symmetry_cell_setting 'orthorhombic'
loop_
_space_group_symop_operation_xyz
x,y,z
-x,-y,1/2+z
x,-y,-z
-x,y,1/2-z
1/2+x,1/2+y,z
1/2-x,1/2-y,1/2+z
1/2+x,1/2-y,-z
1/2-x,1/2+y,1/2-z
loop_
_atom_site_type_symbol
_atom_site_label
_atom_site_fract_x
_atom_site_fract_y
_atom_site_fract_z
Si Si1 0.000000 0.552760 0.250000
Si Si2 0.801563 0.679532 0.276445
Si Si3 0.572945 0.636157 0.142261
Si Si4 0.863466 0.857031 0.244794
Si Si5 0.225250 0.620618 0.531518
Si Si6 0.165909 0.808936 0.508904
Si Si7 0.510465 0.000000 0.500000
O O1 0.113933 0.612148 0.277529
O O2 0.959136 0.508995 0.368623
O O3 0.671574 0.691793 0.210188
O O4 0.869843 0.763578 0.282362
O O5 0.762738 0.653228 0.403213
O O6 0.500000 0.595924 0.250000
O O7 0.470533 0.678184 0.062530
O O8 0.665134 0.592471 0.054262
O O9 0.772444 0.893045 0.338461
O O10 0.000000 0.892435 0.250000
O O11 0.824143 0.851063 0.113199
O O12 0.198638 0.714837 0.508544
O O13 0.099403 0.575506 0.515057
#
# Coordination Sequence:
#
# PCOD9317381 Si02
#       7
#     4   8   8   8   8   8   4
#     4  12  24  46  70  90 126 180 222 262 324 398
#     4  10  21  38  64  90 125 163 203 265 337 389
#     4  10  19  37  62  91 123 161 203 256 327 388
#     4  11  19  33  61  96 122 149 205 273 326 369
#     4  11  23  40  60  91 132 169 209 262 321 389
#     4  10  21  36  66 100 123 156 206 275 337 383
#     4  12  28  46  62  88 132 186 220 260 308 400
#
# _framework density 22.715783999999999
#
# number of rings (size 3 to 8) (size 9 to 14) (size 15 to 20)
#    0.000    1.333    5.833    0.000    0.000    1.333 
#    7.500    0.833    0.000    0.000    0.000    0.000 
#    0.000    0.000    0.000    0.000    0.000    0.000 
#
# Total GULP energy -133749.887184 kJ/mol
# GULP energy per Si atom -5572.911966 kJ/mol
# Density = 2.266408 g / cm^3
# Si number density = 22.715784 Si / 1000 Ang^3
#
#
#
# Elastic Constant Matrix: (Units=GPa)
#
#
# Indices 1 2 3 4 5 6 
#
# 1 53.8733 -0.2177 18.0424 0.0000 0.0000 0.0000
# 2 -0.2177 28.1508 10.0476 0.0000 0.0000 0.0000
# 3 18.0424 10.0476 158.6737 0.0000 0.0000 0.0000
# 4 0.0000 0.0000 0.0000 19.5215 0.0000 0.0000
# 5 0.0000 0.0000 0.0000 0.0000 37.6695 0.0000
# 6 0.0000 0.0000 0.0000 0.0000 0.0000 -10.1471
#
#
#
# Elastic Compliance Matrix: (Units=1/GPa)
#
#
# Indices 1 2 3 4 5 6 
#
# 1 0.019322 0.000955 -0.002258 0.000000 0.000000 0.000000
# 2 0.000955 0.036392 -0.002413 0.000000 0.000000 0.000000
# 3 -0.002258 -0.002413 0.006712 0.000000 0.000000 0.000000
# 4 0.000000 0.000000 0.000000 0.051226 0.000000 0.000000
# 5 0.000000 0.000000 0.000000 0.000000 0.026547 0.000000
# 6 0.000000 0.000000 0.000000 0.000000 0.000000 -0.098551
#
#
# Mechanical properties :
#
#
# Convention : Reuss Voigt Hill
#
# Bulk Modulus (GPa) = 18.18363 32.93805 25.56084
# Shear Modulus (GPa) = 74.17387 23.59716 48.88551
#
# Velocity S-wave (km/s) = 5.72048 3.22654 4.64405
# Velocity P-wave (km/s) = 7.18708 5.33032 6.32718
#
# Compressibility (1/GPa) = 0.05499452
#
# Stress axis : x y z
#
# Youngs Moduli (GPa) = 51.75449 27.47890 148.99273
#
# Poissons Ratio (x) = -0.02625 0.33636
# Poissons Ratio (y) = -0.04943 0.35952
# Poissons Ratio (z) = 0.11684 0.06631
#
# Static dielectric constant tensor:
#      x y z
#    x 1.835400 0.000000 0.000000 
#    y 0.000000 1.875110 0.000000 
#    z 0.000000 0.000000 1.985250 
# 
# From -- ./inp_files/14172.got.cif
#   From: 2010.05.17/outbox.cif.g08.bks.cpg/sg20_8_cif.got.tgz:14172.got - 2010.06.03 22:52:26.
