data_PCOD9317302
_publ_section_title
;
Structure prediction by ZEFSAII (Michael W. Deem and Ramdas Pophale) SiO2 
 PCOD9317302
Probable space group: C 2 2 21
;
_chemical_formula_sum "Si O2"
_cell_formula_units_Z 56
_cell_length_a 21.760653
_cell_length_b 12.356213
_cell_length_c 11.315960
_cell_angle_alpha 90.000000
_cell_angle_beta 90.000000
_cell_angle_gamma 90.000000
_cell_volume 3042.626990
_symmetry_space_group_name_H-M "C 2 2 21"
_symmetry_group_IT_number 20
_symmetry_cell_setting 'orthorhombic'
loop_
_space_group_symop_operation_xyz
x,y,z
-x,-y,1/2+z
x,-y,-z
-x,y,1/2-z
1/2+x,1/2+y,z
1/2-x,1/2-y,1/2+z
1/2+x,1/2-y,-z
1/2-x,1/2+y,1/2-z
loop_
_atom_site_type_symbol
_atom_site_label
_atom_site_fract_x
_atom_site_fract_y
_atom_site_fract_z
Si Si1 0.120089 0.699664 0.154009
Si Si2 0.303513 0.478033 0.717838
Si Si3 0.000000 0.186416 0.750000
Si Si4 0.227077 0.500000 0.500000
Si Si5 0.601811 0.413485 0.398010
Si Si6 0.322694 0.247886 0.597925
Si Si7 0.317614 0.220995 0.098930
Si Si8 0.180811 0.512296 0.862359
O O1 0.053743 0.743527 0.189892
O O2 0.167194 0.726439 0.261118
O O3 0.124677 0.569815 0.154824
O O4 0.141301 0.744325 0.026548
O O5 0.274305 0.536871 0.602831
O O6 0.355218 0.539797 0.791898
O O7 0.326398 0.360338 0.670670
O O8 0.242269 0.472267 0.797513
O O9 0.964173 0.114560 0.845047
O O10 0.186181 0.401348 0.549630
O O11 0.599460 0.500000 0.500000
O O12 0.632244 0.303738 0.449849
O O13 0.250029 0.235502 0.572779
O O14 0.336862 0.135896 0.666189
O O15 0.195693 0.500000 0.000000
#
# Coordination Sequence:
#
# PCOD9317302 Si02
#       8
#     8   8   4   4   8   8   8   8
#     4  10  21  42  60  88 125 173 222 255 319 386
#     4  11  22  35  58 102 134 167 206 268 345 397
#     4  10  26  44  68  80 124 192 226 258 304 402
#     4  10  22  34  58 100 132 170 200 270 334 410
#     4  11  25  43  64  93 133 181 220 275 322 394
#     4  10  21  32  64  95 130 166 202 279 327 401
#     4  10  21  35  58  93 130 166 206 267 333 382
#     4  10  19  36  60  90 132 167 209 267 337 390
#
# _framework density 18.405148000000001
#
# number of rings (size 3 to 8) (size 9 to 14) (size 15 to 20)
#    0.000    1.714    4.286    0.429   10.000    2.286 
#    0.000    0.000   18.857    0.857    0.000    0.000 
#    0.000    0.000    0.000    0.000    0.000    0.000 
#
# Total GULP energy -155978.005440 kJ/mol
# GULP energy per Si atom -5570.643051 kJ/mol
# Density = 1.836326 g / cm^3
# Si number density = 18.405148 Si / 1000 Ang^3
#
#
#
# Elastic Constant Matrix: (Units=GPa)
#
#
# Indices 1 2 3 4 5 6 
#
# 1 80.4134 23.4754 49.0084 0.0000 0.0000 0.0000
# 2 23.4754 131.8788 47.8454 0.0000 0.0000 0.0000
# 3 49.0084 47.8454 88.5351 0.0000 0.0000 0.0000
# 4 0.0000 0.0000 0.0000 29.1376 0.0000 0.0000
# 5 0.0000 0.0000 0.0000 0.0000 17.1989 0.0000
# 6 0.0000 0.0000 0.0000 0.0000 0.0000 25.7263
#
#
#
# Elastic Compliance Matrix: (Units=1/GPa)
#
#
# Indices 1 2 3 4 5 6 
#
# 1 0.018797 0.000534 -0.010693 0.000000 0.000000 0.000000
# 2 0.000534 0.009447 -0.005401 0.000000 0.000000 0.000000
# 3 -0.010693 -0.005401 0.020133 0.000000 0.000000 0.000000
# 4 0.000000 0.000000 0.000000 0.034320 0.000000 0.000000
# 5 0.000000 0.000000 0.000000 0.000000 0.058143 0.000000
# 6 0.000000 0.000000 0.000000 0.000000 0.000000 0.038871
#
#
# Mechanical properties :
#
#
# Convention : Reuss Voigt Hill
#
# Bulk Modulus (GPa) = 57.95093 60.16508 59.05801
# Shear Modulus (GPa) = 23.08572 26.44577 24.76574
#
# Velocity S-wave (km/s) = 3.54546 3.79472 3.67221
# Velocity P-wave (km/s) = 6.95090 7.20833 7.08079
#
# Compressibility (1/GPa) = 0.01725598
#
# Stress axis : x y z
#
# Youngs Moduli (GPa) = 53.19950 105.85258 49.67003
#
# Poissons Ratio (x) = -0.05648 0.53114
# Poissons Ratio (y) = -0.02838 0.26825
# Poissons Ratio (z) = 0.56889 0.57167
#
# Static dielectric constant tensor:
#      x y z
#    x 1.589880 0.000000 0.000000 
#    y 0.000000 1.737690 0.000000 
#    z 0.000000 0.000000 1.705110 
# 
# From -- ./inp_files/16351.got.cif
#   From: 2010.05.17/outbox.cif.g08.bks.cpg/sg20_9_cif.got.tgz:16351.got - 2010.06.03 22:52:26.
