data_PCOD9317921
_publ_section_title
;
Structure prediction by ZEFSAII (Michael W. Deem and Ramdas Pophale) SiO2 
 PCOD9317921
Probable space group: C 2 2 21
;
_chemical_formula_sum "Si O2"
_cell_formula_units_Z 52
_cell_length_a 7.310080
_cell_length_b 18.582744
_cell_length_c 16.025778
_cell_angle_alpha 90.000000
_cell_angle_beta 90.000000
_cell_angle_gamma 90.000000
_cell_volume 2176.963242
_symmetry_space_group_name_H-M "C 2 2 21"
_symmetry_group_IT_number 20
_symmetry_cell_setting 'orthorhombic'
loop_
_space_group_symop_operation_xyz
x,y,z
-x,-y,1/2+z
x,-y,-z
-x,y,1/2-z
1/2+x,1/2+y,z
1/2-x,1/2-y,1/2+z
1/2+x,1/2-y,-z
1/2-x,1/2+y,1/2-z
loop_
_atom_site_type_symbol
_atom_site_label
_atom_site_fract_x
_atom_site_fract_y
_atom_site_fract_z
Si Si1 0.357093 0.691483 0.849135
Si Si2 0.182173 0.000000 0.500000
Si Si3 0.243774 0.632500 0.689765
Si Si4 0.148438 0.829559 0.825916
Si Si5 0.362391 0.846740 0.512951
Si Si6 0.902164 0.008294 0.341425
Si Si7 0.613070 0.243575 0.579414
O O1 0.255448 0.634815 0.788490
O O2 0.564936 0.666697 0.842799
O O3 0.308013 0.770919 0.814796
O O4 0.276292 0.680821 0.940210
O O5 0.313030 0.930371 0.515793
O O6 0.047549 0.997934 0.417835
O O7 0.246758 0.552839 0.654327
O O8 0.100442 0.689418 0.657108
O O9 0.000000 0.827175 0.750000
O O10 0.046231 0.801540 0.909137
O O11 0.188240 0.912957 0.840341
O O12 0.562054 0.814937 0.491792
O O13 0.289076 0.794548 0.585138
O O14 0.000000 0.999630 0.250000
#
# Coordination Sequence:
#
# PCOD9317921 Si02
#       7
#     8   4   8   8   8   8   8
#     4  10  20  36  62  90 123 159 209 260 305 379
#     4  12  22  42  62  92 128 172 204 276 324 380
#     4  11  20  39  62  92 122 166 210 258 315 378
#     4  10  20  37  61  93 125 164 212 259 318 372
#     4  11  23  39  60  89 122 162 208 258 321 373
#     4  11  22  38  65  95 129 169 214 258 322 391
#     4  11  23  39  62  90 124 164 210 261 310 389
#
# _framework density 23.886486000000001
#
# number of rings (size 3 to 8) (size 9 to 14) (size 15 to 20)
#    0.000    1.231    6.154    0.923    0.000    0.000 
#    0.000    5.385    0.000    5.538    0.000    0.000 
#    0.000    0.000    0.000    0.000    0.000    0.000 
#
# Total GULP energy -144909.064797 kJ/mol
# GULP energy per Si atom -5573.425569 kJ/mol
# Density = 2.383212 g / cm^3
# Si number density = 23.886486 Si / 1000 Ang^3
#
#
#
# Elastic Constant Matrix: (Units=GPa)
#
#
# Indices 1 2 3 4 5 6 
#
# 1 24.6995 17.0828 -3.3068 0.0000 0.0000 0.0000
# 2 17.0828 230.5070 16.7061 0.0000 0.0000 0.0000
# 3 -3.3068 16.7061 52.2328 0.0000 0.0000 0.0000
# 4 0.0000 0.0000 0.0000 31.6615 0.0000 0.0000
# 5 0.0000 0.0000 0.0000 0.0000 29.8252 0.0000
# 6 0.0000 0.0000 0.0000 0.0000 0.0000 37.3612
#
#
#
# Elastic Compliance Matrix: (Units=1/GPa)
#
#
# Indices 1 2 3 4 5 6 
#
# 1 0.043424 -0.003498 0.003868 0.000000 0.000000 0.000000
# 2 -0.003498 0.004723 -0.001732 0.000000 0.000000 0.000000
# 3 0.003868 -0.001732 0.019944 0.000000 0.000000 0.000000
# 4 0.000000 0.000000 0.000000 0.031584 0.000000 0.000000
# 5 0.000000 0.000000 0.000000 0.000000 0.033529 0.000000
# 6 0.000000 0.000000 0.000000 0.000000 0.000000 0.026766
#
#
# Mechanical properties :
#
#
# Convention : Reuss Voigt Hill
#
# Bulk Modulus (GPa) = 15.29844 40.93372 28.11608
# Shear Modulus (GPa) = 27.10272 38.23339 32.66806
#
# Velocity S-wave (km/s) = 3.37211 4.00513 3.70217
# Velocity P-wave (km/s) = 4.64543 6.20983 5.48370
#
# Compressibility (1/GPa) = 0.06536614
#
# Stress axis : x y z
#
# Youngs Moduli (GPa) = 23.02869 211.72666 50.14050
#
# Poissons Ratio (x) = 0.74072 -0.19395
# Poissons Ratio (y) = 0.08057 0.08685
# Poissons Ratio (z) = -0.08908 0.36673
#
# Static dielectric constant tensor:
#      x y z
#    x 2.052450 0.000000 0.000000 
#    y 0.000000 1.885990 0.000000 
#    z 0.000000 0.000000 2.019000 
# 
# From -- ./inp_files/23680.got.cif
#   From: 2010.05.17/outbox.cif.g08.bks.cpg/sg20_12_cif.got.tgz:23680.got - 2010.06.03 22:52:26.
