data_PCOD9317535
_publ_section_title
;
Structure prediction by ZEFSAII (Michael W. Deem and Ramdas Pophale) SiO2 
 PCOD9317535
Probable space group: C 2 2 21
;
_chemical_formula_sum "Si O2"
_cell_formula_units_Z 56
_cell_length_a 18.237200
_cell_length_b 13.669976
_cell_length_c 9.391217
_cell_angle_alpha 90.000000
_cell_angle_beta 90.000000
_cell_angle_gamma 90.000000
_cell_volume 2341.249991
_symmetry_space_group_name_H-M "C 2 2 21"
_symmetry_group_IT_number 20
_symmetry_cell_setting 'orthorhombic'
loop_
_space_group_symop_operation_xyz
x,y,z
-x,-y,1/2+z
x,-y,-z
-x,y,1/2-z
1/2+x,1/2+y,z
1/2-x,1/2-y,1/2+z
1/2+x,1/2-y,-z
1/2-x,1/2+y,1/2-z
loop_
_atom_site_type_symbol
_atom_site_label
_atom_site_fract_x
_atom_site_fract_y
_atom_site_fract_z
Si Si1 0.123448 0.280941 0.979691
Si Si2 0.435462 0.573578 0.633217
Si Si3 0.577491 0.254360 0.707739
Si Si4 0.772407 0.963050 0.335040
Si Si5 0.708151 0.231987 0.546486
Si Si6 0.345034 0.105159 0.215211
Si Si7 0.543607 0.055361 0.609333
O O1 0.084146 0.179386 0.934321
O O2 0.211816 0.275004 0.980199
O O3 0.111006 0.354086 0.849065
O O4 0.100641 0.295060 0.142789
O O5 0.450362 0.500000 0.500000
O O6 0.500000 0.576093 0.750000
O O7 0.357326 0.545446 0.705658
O O8 0.500000 0.305280 0.750000
O O9 0.649348 0.298768 0.632359
O O10 0.563181 0.168212 0.591674
O O11 0.726822 0.041892 0.246970
O O12 0.774358 0.000000 0.500000
O O13 0.728555 0.860956 0.350440
O O14 0.679559 0.190440 0.394349
O O15 0.393424 0.025631 0.131327
O O16 0.500000 0.059119 0.750000
O O17 0.492381 0.000000 0.500000
#
# Coordination Sequence:
#
# PCOD9317535 Si02
#       7
#     8   8   8   8   8   8   8
#     4  11  26  40  65 101 133 170 223 290 341 402
#     4  10  23  46  71  92 124 177 231 281 340 405
#     4  11  24  41  62  96 140 177 217 270 345 406
#     4   8  16  36  65  89 119 169 221 265 332 397
#     4  10  19  41  62  89 126 176 225 265 327 404
#     4  11  20  38  67  92 131 169 221 277 328 401
#     4  11  23  39  64  94 135 184 222 255 332 419
#
# _framework density 23.918845999999998
#
# number of rings (size 3 to 8) (size 9 to 14) (size 15 to 20)
#    0.000    1.714    2.857    2.143    4.000    2.286 
#    0.000    4.286    0.000    0.000    0.000    0.000 
#    0.000    0.000    0.000    0.000    0.000    0.000 
#
# Total GULP energy -156100.209381 kJ/mol
# GULP energy per Si atom -5575.007478 kJ/mol
# Density = 2.386441 g / cm^3
# Si number density = 23.918846 Si / 1000 Ang^3
#
#
#
# Elastic Constant Matrix: (Units=GPa)
#
#
# Indices 1 2 3 4 5 6 
#
# 1 111.5925 17.0070 27.5338 0.0000 0.0000 0.0000
# 2 17.0070 38.7322 7.2040 0.0000 0.0000 0.0000
# 3 27.5338 7.2040 49.7235 0.0000 0.0000 0.0000
# 4 0.0000 0.0000 0.0000 23.3269 0.0000 0.0000
# 5 0.0000 0.0000 0.0000 0.0000 31.8829 0.0000
# 6 0.0000 0.0000 0.0000 0.0000 0.0000 28.6421
#
#
#
# Elastic Compliance Matrix: (Units=1/GPa)
#
#
# Indices 1 2 3 4 5 6 
#
# 1 0.010887 -0.003761 -0.005484 0.000000 0.000000 0.000000
# 2 -0.003761 0.027832 -0.001950 0.000000 0.000000 0.000000
# 3 -0.005484 -0.001950 0.023430 0.000000 0.000000 0.000000
# 4 0.000000 0.000000 0.000000 0.042869 0.000000 0.000000
# 5 0.000000 0.000000 0.000000 0.000000 0.031365 0.000000
# 6 0.000000 0.000000 0.000000 0.000000 0.000000 0.034914
#
#
# Mechanical properties :
#
#
# Convention : Reuss Voigt Hill
#
# Bulk Modulus (GPa) = 25.15027 33.72642 29.43835
# Shear Modulus (GPa) = 24.16158 26.65726 25.40942
#
# Velocity S-wave (km/s) = 3.18173 3.34202 3.26286
# Velocity P-wave (km/s) = 4.90261 5.38731 5.15066
#
# Compressibility (1/GPa) = 0.03976100
#
# Stress axis : x y z
#
# Youngs Moduli (GPa) = 91.84955 35.92958 42.67959
#
# Poissons Ratio (x) = 0.13512 0.23405
# Poissons Ratio (y) = 0.34541 0.08323
# Poissons Ratio (z) = 0.50370 0.07006
#
# Static dielectric constant tensor:
#      x y z
#    x 2.041910 0.000000 0.000000 
#    y 0.000000 2.058240 0.000000 
#    z 0.000000 0.000000 2.172020 
# 
# From -- ./inp_files/10207.got.cif
#   From: 2010.05.17/outbox.cif.g08.bks.cpg/sg20_6_cif.got.tgz:10207.got - 2010.06.03 22:52:26.
