data_PCOD9317420
_publ_section_title
;
Structure prediction by ZEFSAII (Michael W. Deem and Ramdas Pophale) SiO2 
 PCOD9317420
Probable space group: C 2 2 21
;
_chemical_formula_sum "Si O2"
_cell_formula_units_Z 52
_cell_length_a 11.073488
_cell_length_b 8.582091
_cell_length_c 23.682676
_cell_angle_alpha 90.000000
_cell_angle_beta 90.000000
_cell_angle_gamma 90.000000
_cell_volume 2250.651893
_symmetry_space_group_name_H-M "C 2 2 21"
_symmetry_group_IT_number 20
_symmetry_cell_setting 'orthorhombic'
loop_
_space_group_symop_operation_xyz
x,y,z
-x,-y,1/2+z
x,-y,-z
-x,y,1/2-z
1/2+x,1/2+y,z
1/2-x,1/2-y,1/2+z
1/2+x,1/2-y,-z
1/2-x,1/2+y,1/2-z
loop_
_atom_site_type_symbol
_atom_site_label
_atom_site_fract_x
_atom_site_fract_y
_atom_site_fract_z
Si Si1 0.207075 0.183774 0.285673
Si Si2 0.481601 0.500000 0.500000
Si Si3 0.132816 0.497607 0.435809
Si Si4 0.283669 0.954511 0.820373
Si Si5 0.590902 0.768436 0.927683
Si Si6 0.862656 0.146769 0.095759
Si Si7 0.970825 0.260426 0.691931
O O1 0.190008 0.133633 0.220919
O O2 0.205198 0.369780 0.296474
O O3 0.131711 0.111427 0.337230
O O4 0.348401 0.141820 0.296735
O O5 0.410010 0.348973 0.479593
O O6 0.566206 0.460618 0.553211
O O7 0.175603 0.500000 0.500000
O O8 0.231618 0.545586 0.388297
O O9 0.016419 0.608594 0.435229
O O10 0.096065 0.324359 0.416214
O O11 0.413155 0.868836 0.815964
O O12 0.720614 0.848139 0.920508
O O13 0.559968 0.683832 0.867752
O O14 0.000000 0.169248 0.750000
#
# Coordination Sequence:
#
# PCOD9317420 Si02
#       7
#     8   4   8   8   8   8   8
#     4   9  18  35  57  83 111 147 190 231 284 336
#     4  12  24  34  56  90 110 146 198 232 278 340
#     4  10  19  38  59  80 117 156 185 226 291 346
#     4   9  18  32  59  84 108 151 188 230 283 337
#     4  10  22  37  58  83 112 152 186 231 290 331
#     4  10  23  38  56  84 116 146 191 240 278 342
#     4   8  16  34  57  78 108 145 183 225 279 337
#
# _framework density 23.104417999999999
#
# number of rings (size 3 to 8) (size 9 to 14) (size 15 to 20)
#    0.000    2.462    1.538    0.000    2.154    3.692 
#    0.000    0.000    0.000   50.769    0.000    0.000 
#    0.000    0.000    0.000    0.000    0.000    0.000 
#
# Total GULP energy -144974.312551 kJ/mol
# GULP energy per Si atom -5575.935098 kJ/mol
# Density = 2.305183 g / cm^3
# Si number density = 23.104418 Si / 1000 Ang^3
#
#
#
# Elastic Constant Matrix: (Units=GPa)
#
#
# Indices 1 2 3 4 5 6 
#
# 1 57.4296 21.4395 20.5718 0.0000 0.0000 0.0000
# 2 21.4395 35.2939 27.2320 0.0000 0.0000 0.0000
# 3 20.5718 27.2320 160.7856 0.0000 0.0000 0.0000
# 4 0.0000 0.0000 0.0000 38.0747 0.0000 0.0000
# 5 0.0000 0.0000 0.0000 0.0000 19.0076 0.0000
# 6 0.0000 0.0000 0.0000 0.0000 0.0000 18.9026
#
#
#
# Elastic Compliance Matrix: (Units=1/GPa)
#
#
# Indices 1 2 3 4 5 6 
#
# 1 0.022578 -0.013213 -0.000651 0.000000 0.000000 0.000000
# 2 -0.013213 0.040325 -0.005139 0.000000 0.000000 0.000000
# 3 -0.000651 -0.005139 0.007173 0.000000 0.000000 0.000000
# 4 0.000000 0.000000 0.000000 0.026264 0.000000 0.000000
# 5 0.000000 0.000000 0.000000 0.000000 0.052611 0.000000
# 6 0.000000 0.000000 0.000000 0.000000 0.000000 0.052903
#
#
# Mechanical properties :
#
#
# Convention : Reuss Voigt Hill
#
# Bulk Modulus (GPa) = 31.18160 43.55508 37.36834
# Shear Modulus (GPa) = 19.95601 27.48139 23.71870
#
# Velocity S-wave (km/s) = 2.94212 3.45257 3.20752
# Velocity P-wave (km/s) = 5.00666 5.89797 5.47050
#
# Compressibility (1/GPa) = 0.03207019
#
# Stress axis : x y z
#
# Youngs Moduli (GPa) = 44.28993 24.79834 139.40840
#
# Poissons Ratio (x) = 0.32767 0.09074
# Poissons Ratio (y) = 0.58521 0.71645
# Poissons Ratio (z) = 0.02883 0.12744
#
# Static dielectric constant tensor:
#      x y z
#    x 1.872420 0.000000 0.000000 
#    y 0.000000 1.852290 0.000000 
#    z 0.000000 0.000000 1.978120 
# 
# From -- ./inp_files/30291.got.cif
#   From: 2010.05.17/outbox.cif.g08.bks.cpg/sg20_16_cif.got.tgz:30291.got - 2010.06.03 22:52:26.
