data_PCOD9317775
_publ_section_title
;
Structure prediction by ZEFSAII (Michael W. Deem and Ramdas Pophale) SiO2 
 PCOD9317775
Probable space group: C 2 2 21
;
_chemical_formula_sum "Si O2"
_cell_formula_units_Z 56
_cell_length_a 13.436216
_cell_length_b 21.587146
_cell_length_c 9.787264
_cell_angle_alpha 90.000000
_cell_angle_beta 90.000000
_cell_angle_gamma 90.000000
_cell_volume 2838.791582
_symmetry_space_group_name_H-M "C 2 2 21"
_symmetry_group_IT_number 20
_symmetry_cell_setting 'orthorhombic'
loop_
_space_group_symop_operation_xyz
x,y,z
-x,-y,1/2+z
x,-y,-z
-x,y,1/2-z
1/2+x,1/2+y,z
1/2-x,1/2-y,1/2+z
1/2+x,1/2-y,-z
1/2-x,1/2+y,1/2-z
loop_
_atom_site_type_symbol
_atom_site_label
_atom_site_fract_x
_atom_site_fract_y
_atom_site_fract_z
Si Si1 0.373449 0.255253 0.411644
Si Si2 0.385587 0.143024 0.211516
Si Si3 0.333429 0.186667 0.915938
Si Si4 0.057237 0.053111 0.394170
Si Si5 0.081921 0.189831 0.524567
Si Si6 0.795815 0.665145 0.625092
Si Si7 0.788461 0.554409 0.410327
O O1 0.349681 0.204493 0.293975
O O2 0.285342 0.304265 0.423745
O O3 0.482560 0.284255 0.404861
O O4 0.361654 0.217757 0.553343
O O5 0.500000 0.139276 0.250000
O O6 0.335516 0.082101 0.273824
O O7 0.370754 0.152903 0.051288
O O8 0.381325 0.255993 0.920391
O O9 0.344240 0.153325 0.771354
O O10 0.057453 0.123125 0.457036
O O11 0.174451 0.038057 0.375031
O O12 0.000000 0.051702 0.250000
O O13 0.019402 0.000000 0.500000
O O14 0.177865 0.183294 0.624400
O O15 0.793412 0.609602 0.519241
O O16 0.836019 0.500000 0.500000
#
# Coordination Sequence:
#
# PCOD9317775 Si02
#       7
#     8   8   8   8   8   8   8
#     4  10  20  35  59  87 129 167 198 249 321 383
#     4  11  22  41  61  93 130 163 205 270 321 373
#     4  11  22  35  59  96 129 160 210 258 314 384
#     4  10  23  43  62  91 124 167 219 261 308 376
#     4  10  21  37  61  90 126 172 201 256 324 373
#     4   9  21  37  57  91 124 158 210 257 306 380
#     4   9  21  46  66  79 122 175 205 257 324 375
#
# _framework density 19.726704000000002
#
# number of rings (size 3 to 8) (size 9 to 14) (size 15 to 20)
#    0.000    2.000    1.429    2.571    4.000    0.000 
#   10.286    2.143    0.000    0.000    0.000    0.000 
#    0.000    0.000    0.000    0.000    0.000    0.000 
#
# Total GULP energy -156063.947558 kJ/mol
# GULP energy per Si atom -5573.712413 kJ/mol
# Density = 1.968181 g / cm^3
# Si number density = 19.726704 Si / 1000 Ang^3
#
#
#
# Elastic Constant Matrix: (Units=GPa)
#
#
# Indices 1 2 3 4 5 6 
#
# 1 60.7753 22.4559 32.5639 0.0000 0.0000 0.0000
# 2 22.4559 73.4860 36.6670 0.0000 0.0000 0.0000
# 3 32.5639 36.6670 157.9373 0.0000 0.0000 0.0000
# 4 0.0000 0.0000 0.0000 26.2194 0.0000 0.0000
# 5 0.0000 0.0000 0.0000 0.0000 10.7070 0.0000
# 6 0.0000 0.0000 0.0000 0.0000 0.0000 18.9037
#
#
#
# Elastic Compliance Matrix: (Units=1/GPa)
#
#
# Indices 1 2 3 4 5 6 
#
# 1 0.019745 -0.004527 -0.003020 0.000000 0.000000 0.000000
# 2 -0.004527 0.016429 -0.002881 0.000000 0.000000 0.000000
# 3 -0.003020 -0.002881 0.007623 0.000000 0.000000 0.000000
# 4 0.000000 0.000000 0.000000 0.038140 0.000000 0.000000
# 5 0.000000 0.000000 0.000000 0.000000 0.093397 0.000000
# 6 0.000000 0.000000 0.000000 0.000000 0.000000 0.052900
#
#
# Mechanical properties :
#
#
# Convention : Reuss Voigt Hill
#
# Bulk Modulus (GPa) = 43.58920 52.84136 48.21528
# Shear Modulus (GPa) = 19.47532 24.53348 22.00440
#
# Velocity S-wave (km/s) = 3.14547 3.53039 3.34348
# Velocity P-wave (km/s) = 5.94445 6.59266 6.27693
#
# Compressibility (1/GPa) = 0.02294146
#
# Stress axis : x y z
#
# Youngs Moduli (GPa) = 50.64611 60.86904 131.17974
#
# Poissons Ratio (x) = 0.27554 0.39618
# Poissons Ratio (y) = 0.22926 0.37790
# Poissons Ratio (z) = 0.15296 0.17535
#
# Static dielectric constant tensor:
#      x y z
#    x 1.719490 0.000000 0.000000 
#    y 0.000000 1.746840 0.000000 
#    z 0.000000 0.000000 1.768180 
# 
# From -- ./inp_files/8757.got.cif
#   From: 2010.05.17/outbox.cif.g08.bks.cpg/sg20_5_cif.got.tgz:8757.got - 2010.06.03 22:52:26.
