data_PCOD9317015
_publ_section_title
;
Structure prediction by ZEFSAII (Michael W. Deem and Ramdas Pophale) SiO2 
 PCOD9317015
Probable space group: C 2 2 21
;
_chemical_formula_sum "Si O2"
_cell_formula_units_Z 48
_cell_length_a 5.557494
_cell_length_b 19.845788
_cell_length_c 20.123591
_cell_angle_alpha 90.000000
_cell_angle_beta 90.000000
_cell_angle_gamma 90.000000
_cell_volume 2219.488158
_symmetry_space_group_name_H-M "C 2 2 21"
_symmetry_group_IT_number 20
_symmetry_cell_setting 'orthorhombic'
loop_
_space_group_symop_operation_xyz
x,y,z
-x,-y,1/2+z
x,-y,-z
-x,y,1/2-z
1/2+x,1/2+y,z
1/2-x,1/2-y,1/2+z
1/2+x,1/2-y,-z
1/2-x,1/2+y,1/2-z
loop_
_atom_site_type_symbol
_atom_site_label
_atom_site_fract_x
_atom_site_fract_y
_atom_site_fract_z
Si Si1 0.000000 0.820945 0.750000
Si Si2 0.954935 0.746629 0.388379
Si Si3 0.612935 0.686418 0.476862
Si Si4 0.000000 0.237850 0.750000
Si Si5 0.327056 0.525864 0.576361
Si Si6 0.280691 0.620798 0.377723
Si Si7 0.339353 0.932593 0.455085
O O1 0.755311 0.777556 0.755556
O O2 0.959217 0.864035 0.683523
O O3 0.078083 0.774138 0.455034
O O4 0.002550 0.792798 0.324295
O O5 0.058674 0.672446 0.368946
O O6 0.688265 0.734920 0.416524
O O7 0.393038 0.644257 0.447913
O O8 0.807942 0.630034 0.495574
O O9 0.344089 0.500000 0.500000
O O10 0.257848 0.459216 0.617962
O O11 0.591780 0.558064 0.586998
O O12 0.093953 0.573451 0.581936
O O13 0.355668 0.000000 0.500000
#
# Coordination Sequence:
#
# PCOD9317015 Si02
#       7
#     4   8   8   4   8   8   8
#     4  10  22  36  60  85 120 161 196 250 310 370
#     4  11  23  36  58  89 123 159 199 257 308 363
#     4  12  21  35  58  90 121 152 208 255 296 359
#     4  10  22  40  56  81 128 167 194 232 320 378
#     4  10  19  33  54  80 108 148 184 237 289 350
#     4  11  21  37  56  87 119 156 200 254 306 360
#     4  10  20  33  53  82 112 148 185 240 297 340
#
# _framework density 21.626605999999999
#
# number of rings (size 3 to 8) (size 9 to 14) (size 15 to 20)
#    0.000    1.333    6.667    2.000    0.000    0.000 
#    0.000    0.000    0.000    1.000    0.000    2.333 
#    0.000    0.000    0.000    0.000    0.000    0.000 
#
# Total GULP energy -133646.088501 kJ/mol
# GULP energy per Si atom -5568.587021 kJ/mol
# Density = 2.157738 g / cm^3
# Si number density = 21.626606 Si / 1000 Ang^3
#
#
#
# Elastic Constant Matrix: (Units=GPa)
#
#
# Indices 1 2 3 4 5 6 
#
# 1 117.6671 0.4199 10.6251 0.0000 0.0000 0.0000
# 2 0.4199 30.4650 8.8528 0.0000 0.0000 0.0000
# 3 10.6251 8.8528 98.3637 0.0000 0.0000 0.0000
# 4 0.0000 0.0000 0.0000 23.1043 0.0000 0.0000
# 5 0.0000 0.0000 0.0000 0.0000 27.7911 0.0000
# 6 0.0000 0.0000 0.0000 0.0000 0.0000 9.6784
#
#
#
# Elastic Compliance Matrix: (Units=1/GPa)
#
#
# Indices 1 2 3 4 5 6 
#
# 1 0.008583 0.000155 -0.000941 0.000000 0.000000 0.000000
# 2 0.000155 0.033709 -0.003051 0.000000 0.000000 0.000000
# 3 -0.000941 -0.003051 0.010543 0.000000 0.000000 0.000000
# 4 0.000000 0.000000 0.000000 0.043282 0.000000 0.000000
# 5 0.000000 0.000000 0.000000 0.000000 0.035983 0.000000
# 6 0.000000 0.000000 0.000000 0.000000 0.000000 0.103323
#
#
# Mechanical properties :
#
#
# Convention : Reuss Voigt Hill
#
# Bulk Modulus (GPa) = 22.14280 31.81016 26.97648
# Shear Modulus (GPa) = 19.36867 27.22128 23.29498
#
# Velocity S-wave (km/s) = 2.99590 3.55166 3.28555
# Velocity P-wave (km/s) = 4.71467 5.61781 5.18594
#
# Compressibility (1/GPa) = 0.04516142
#
# Stress axis : x y z
#
# Youngs Moduli (GPa) = 116.50967 29.66577 94.85356
#
# Poissons Ratio (x) = -0.00460 0.08927
# Poissons Ratio (y) = -0.01808 0.28936
# Poissons Ratio (z) = 0.10965 0.09050
#
# Static dielectric constant tensor:
#      x y z
#    x 1.927720 0.000000 0.000000 
#    y 0.000000 1.811580 0.000000 
#    z 0.000000 0.000000 1.837860 
# 
# From -- ./inp_files/22841.got.cif
#   From: 2010.05.17/outbox.cif.g08.bks.cpg/sg20_12_cif.got.tgz:22841.got - 2010.06.03 22:52:26.
