data_PCOD9317982
_publ_section_title
;
Structure prediction by ZEFSAII (Michael W. Deem and Ramdas Pophale) SiO2 
 PCOD9317982
Probable space group: C 2 2 21
;
_chemical_formula_sum "Si O2"
_cell_formula_units_Z 48
_cell_length_a 9.000337
_cell_length_b 15.825628
_cell_length_c 16.115736
_cell_angle_alpha 90.000000
_cell_angle_beta 90.000000
_cell_angle_gamma 90.000000
_cell_volume 2295.460735
_symmetry_space_group_name_H-M "C 2 2 21"
_symmetry_group_IT_number 20
_symmetry_cell_setting 'orthorhombic'
loop_
_space_group_symop_operation_xyz
x,y,z
-x,-y,1/2+z
x,-y,-z
-x,y,1/2-z
1/2+x,1/2+y,z
1/2-x,1/2-y,1/2+z
1/2+x,1/2-y,-z
1/2-x,1/2+y,1/2-z
loop_
_atom_site_type_symbol
_atom_site_label
_atom_site_fract_x
_atom_site_fract_y
_atom_site_fract_z
Si Si1 0.383881 0.331669 0.405993
Si Si2 0.172652 0.069462 0.573689
Si Si3 0.678808 0.256328 0.925916
Si Si4 0.944058 0.326276 0.844334
Si Si5 0.075829 0.325488 0.340767
Si Si6 0.450026 0.996252 0.345464
O O1 0.503473 0.406924 0.401937
O O2 0.311365 0.318593 0.496023
O O3 0.475749 0.246343 0.394868
O O4 0.252617 0.326485 0.339000
O O5 0.250403 0.162234 0.557106
O O6 0.174487 0.000000 0.500000
O O7 0.276965 0.025583 0.643159
O O8 0.772104 0.302204 0.853384
O O9 0.509128 0.243079 0.896544
O O10 0.000000 0.321696 0.750000
O O11 0.995522 0.415555 0.881190
O O12 0.000000 0.320798 0.250000
O O13 0.034852 0.415768 0.380944
O O14 0.500000 0.999829 0.250000
#
# Coordination Sequence:
#
# PCOD9317982 Si02
#       6
#     8   8   8   8   8   8
#     4  11  22  36  58  87 118 155 197 246 297 352
#     4  10  21  37  58  85 120 156 193 243 296 354
#     4  10  21  37  58  87 119 153 198 244 293 355
#     4  10  20  37  60  85 114 153 195 242 297 352
#     4  10  20  37  58  83 116 156 197 241 295 355
#     4   9  20  38  58  81 113 153 194 236 294 354
#
# _framework density 20.910836
#
# number of rings (size 3 to 8) (size 9 to 14) (size 15 to 20)
#    0.000    2.000    0.000    4.000    0.000    4.000 
#    0.000    0.833    0.000    6.000    0.000    1.167 
#    0.000    0.000    0.000    0.000    0.000    0.000 
#
# Total GULP energy -133702.755509 kJ/mol
# GULP energy per Si atom -5570.948146 kJ/mol
# Density = 2.086324 g / cm^3
# Si number density = 20.910836 Si / 1000 Ang^3
#
#
#
# Elastic Constant Matrix: (Units=GPa)
#
#
# Indices 1 2 3 4 5 6 
#
# 1 140.4484 41.4306 29.6703 0.0000 0.0000 0.0000
# 2 41.4306 85.0046 15.5093 0.0000 0.0000 0.0000
# 3 29.6703 15.5093 63.7206 0.0000 0.0000 0.0000
# 4 0.0000 0.0000 0.0000 52.2474 0.0000 0.0000
# 5 0.0000 0.0000 0.0000 0.0000 28.7144 0.0000
# 6 0.0000 0.0000 0.0000 0.0000 0.0000 22.2891
#
#
#
# Elastic Compliance Matrix: (Units=1/GPa)
#
#
# Indices 1 2 3 4 5 6 
#
# 1 0.008911 -0.003753 -0.003236 0.000000 0.000000 0.000000
# 2 -0.003753 0.013891 -0.001634 0.000000 0.000000 0.000000
# 3 -0.003236 -0.001634 0.017598 0.000000 0.000000 0.000000
# 4 0.000000 0.000000 0.000000 0.019140 0.000000 0.000000
# 5 0.000000 0.000000 0.000000 0.000000 0.034826 0.000000
# 6 0.000000 0.000000 0.000000 0.000000 0.000000 0.044865
#
#
# Mechanical properties :
#
#
# Convention : Reuss Voigt Hill
#
# Bulk Modulus (GPa) = 43.18623 51.37711 47.28167
# Shear Modulus (GPa) = 30.45208 34.15441 32.30324
#
# Velocity S-wave (km/s) = 3.82027 4.04584 3.93467
# Velocity P-wave (km/s) = 6.33693 6.81528 6.58045
#
# Compressibility (1/GPa) = 0.02315553
#
# Stress axis : x y z
#
# Youngs Moduli (GPa) = 112.22624 71.98835 56.82533
#
# Poissons Ratio (x) = 0.27014 0.18387
# Poissons Ratio (y) = 0.42114 0.09284
# Poissons Ratio (z) = 0.36313 0.11761
#
# Static dielectric constant tensor:
#      x y z
#    x 1.698020 0.000000 0.000000 
#    y 0.000000 1.770690 0.000000 
#    z 0.000000 0.000000 2.189060 
# 
# From -- ./inp_files/23454.got.cif
#   From: 2010.05.17/outbox.cif.g08.bks.cpg/sg20_12_cif.got.tgz:23454.got - 2010.06.03 22:52:26.
