data_PCOD9317337
_publ_section_title
;
Structure prediction by ZEFSAII (Michael W. Deem and Ramdas Pophale) SiO2 
 PCOD9317337
Probable space group: C 2 2 21
;
_chemical_formula_sum "Si O2"
_cell_formula_units_Z 32
_cell_length_a 7.425377
_cell_length_b 36.171306
_cell_length_c 5.355712
_cell_angle_alpha 90.000000
_cell_angle_beta 90.000000
_cell_angle_gamma 90.000000
_cell_volume 1438.467033
_symmetry_space_group_name_H-M "C 2 2 21"
_symmetry_group_IT_number 20
_symmetry_cell_setting 'orthorhombic'
loop_
_space_group_symop_operation_xyz
x,y,z
-x,-y,1/2+z
x,-y,-z
-x,y,1/2-z
1/2+x,1/2+y,z
1/2-x,1/2-y,1/2+z
1/2+x,1/2-y,-z
1/2-x,1/2+y,1/2-z
loop_
_atom_site_type_symbol
_atom_site_label
_atom_site_fract_x
_atom_site_fract_y
_atom_site_fract_z
Si Si1 0.882457 0.152176 0.995984
Si Si2 0.798106 0.270819 0.346893
Si Si3 0.197724 0.456137 0.496901
Si Si4 0.790669 0.575534 0.494483
O O1 0.738551 0.119161 0.018462
O O2 0.000000 0.153731 0.250000
O O3 0.791002 0.191421 0.941297
O O4 0.000000 0.143629 0.750000
O O5 0.798612 0.244924 0.595451
O O6 0.000000 0.276836 0.250000
O O7 0.173542 0.500000 0.500000
O O8 0.290260 0.442646 0.747869
O O9 0.000030 0.436889 0.500982
O O10 0.287616 0.441743 0.246125
#
# Coordination Sequence:
#
# PCOD9317337 Si02
#       4
#     8   8   8   8
#     4  12  26  45  67  95 142 179 220 278 338 399
#     4  12  26  47  75 102 136 177 229 276 340 409
#     4  10  19  36  65  94 129 166 225 289 329 397
#     4  10  20  35  61  91 127 163 224 262 343 375
#
# _framework density 22.245906000000002
#
# number of rings (size 3 to 8) (size 9 to 14) (size 15 to 20)
#    0.000    1.000    0.000    9.750    3.500    0.000 
#    4.500    0.000    0.000   25.500    0.000    0.000 
#    0.000    0.000    0.000    0.000    0.000    0.000 
#
# Total GULP energy -89453.995557 kJ/mol
# GULP energy per Si atom -5590.874722 kJ/mol
# Density = 2.219527 g / cm^3
# Si number density = 22.245906 Si / 1000 Ang^3
#
#
#
# Elastic Constant Matrix: (Units=GPa)
#
#
# Indices 1 2 3 4 5 6 
#
# 1 82.8162 49.3639 35.9428 0.0000 0.0000 0.0000
# 2 49.3639 203.1690 77.9705 0.0000 0.0000 0.0000
# 3 35.9428 77.9705 251.0675 0.0000 0.0000 0.0000
# 4 0.0000 0.0000 0.0000 38.3980 0.0000 0.0000
# 5 0.0000 0.0000 0.0000 0.0000 8.5357 0.0000
# 6 0.0000 0.0000 0.0000 0.0000 0.0000 2.5980
#
#
#
# Elastic Compliance Matrix: (Units=1/GPa)
#
#
# Indices 1 2 3 4 5 6 
#
# 1 0.014385 -0.003071 -0.001106 0.000000 0.000000 0.000000
# 2 -0.003071 0.006244 -0.001499 0.000000 0.000000 0.000000
# 3 -0.001106 -0.001499 0.004607 0.000000 0.000000 0.000000
# 4 0.000000 0.000000 0.000000 0.026043 0.000000 0.000000
# 5 0.000000 0.000000 0.000000 0.000000 0.117155 0.000000
# 6 0.000000 0.000000 0.000000 0.000000 0.000000 0.384917
#
#
# Mechanical properties :
#
#
# Convention : Reuss Voigt Hill
#
# Bulk Modulus (GPa) = 72.02593 95.95636 83.99115
# Shear Modulus (GPa) = 8.78225 34.82470 21.80348
#
# Velocity S-wave (km/s) = 1.98906 3.96086 3.13407
# Velocity P-wave (km/s) = 6.14187 8.00912 7.13683
#
# Compressibility (1/GPa) = 0.01388389
#
# Stress axis : x y z
#
# Youngs Moduli (GPa) = 69.51569 160.16566 217.06479
#
# Poissons Ratio (x) = 0.49184 0.24001
# Poissons Ratio (y) = 0.21347 0.32546
# Poissons Ratio (z) = 0.07687 0.24014
#
# Static dielectric constant tensor:
#      x y z
#    x 1.799250 0.000000 0.000000 
#    y 0.000000 1.771850 0.000000 
#    z 0.000000 0.000000 1.842620 
# 
# From -- ./inp_files/680.got.cif
#   From: 2010.05.17/outbox.cif.g08.bks.cpg/sg20_1_cif.got.tgz:680.got - 2010.06.03 22:52:26.
