data_PCOD9317173
_publ_section_title
;
Structure prediction by ZEFSAII (Michael W. Deem and Ramdas Pophale) SiO2 
 PCOD9317173
Probable space group: C 2 2 21
;
_chemical_formula_sum "Si O2"
_cell_formula_units_Z 56
_cell_length_a 13.575405
_cell_length_b 21.690872
_cell_length_c 8.436497
_cell_angle_alpha 90.000000
_cell_angle_beta 90.000000
_cell_angle_gamma 90.000000
_cell_volume 2484.230920
_symmetry_space_group_name_H-M "C 2 2 21"
_symmetry_group_IT_number 20
_symmetry_cell_setting 'orthorhombic'
loop_
_space_group_symop_operation_xyz
x,y,z
-x,-y,1/2+z
x,-y,-z
-x,y,1/2-z
1/2+x,1/2+y,z
1/2-x,1/2-y,1/2+z
1/2+x,1/2-y,-z
1/2-x,1/2+y,1/2-z
loop_
_atom_site_type_symbol
_atom_site_label
_atom_site_fract_x
_atom_site_fract_y
_atom_site_fract_z
Si Si1 0.214391 0.473236 0.682887
Si Si2 0.595867 0.864335 0.644476
Si Si3 0.247196 0.696561 0.761191
Si Si4 0.397207 0.913029 0.187524
Si Si5 0.922332 0.051663 0.378348
Si Si6 0.559904 0.333075 0.088846
Si Si7 0.127928 0.235087 0.465981
O O1 0.219929 0.500000 0.500000
O O2 0.182606 0.403407 0.724563
O O3 0.135726 0.520908 0.754114
O O4 0.329763 0.475522 0.718100
O O5 0.500000 0.856577 0.750000
O O6 0.579946 0.911768 0.499447
O O7 0.623079 0.799834 0.563955
O O8 0.192591 0.632626 0.724226
O O9 0.344688 0.703678 0.651314
O O10 0.168358 0.748224 0.707573
O O11 0.288965 0.697830 0.937883
O O12 0.500000 0.888214 0.250000
O O13 0.898368 0.109941 0.489042
O O14 0.000000 0.071875 0.250000
O O15 0.960149 0.000000 0.500000
O O16 0.500000 0.351892 0.250000
O O17 0.478467 0.295980 0.987089
#
# Coordination Sequence:
#
# PCOD9317173 Si02
#       7
#     8   8   8   8   8   8   8
#     4   9  19  37  59  80 110 147 184 231 290 353
#     4  10  19  35  57  82 111 146 186 229 283 342
#     4  10  21  38  58  82 117 156 196 244 299 350
#     4  10  21  37  58  85 110 144 187 234 296 355
#     4  11  22  38  60  85 112 148 192 239 289 348
#     4  10  21  39  59  83 118 158 197 242 294 354
#     4  10  22  36  57  85 116 157 198 241 293 352
#
# _framework density 22.542186999999998
#
# number of rings (size 3 to 8) (size 9 to 14) (size 15 to 20)
#    0.000    2.000    0.000    5.571    0.000    6.857 
#    0.000    3.571    0.000    0.000    0.000    0.000 
#    0.000    0.000    0.000    0.000    0.000    0.000 
#
# Total GULP energy -156049.047821 kJ/mol
# GULP energy per Si atom -5573.180279 kJ/mol
# Density = 2.249088 g / cm^3
# Si number density = 22.542187 Si / 1000 Ang^3
#
#
#
# Elastic Constant Matrix: (Units=GPa)
#
#
# Indices 1 2 3 4 5 6 
#
# 1 88.5083 4.4013 6.5948 0.0000 0.0000 0.0000
# 2 4.4013 56.0490 -6.0469 0.0000 0.0000 0.0000
# 3 6.5948 -6.0469 5.5583 0.0000 0.0000 0.0000
# 4 0.0000 0.0000 0.0000 7.9892 0.0000 0.0000
# 5 0.0000 0.0000 0.0000 0.0000 20.7351 0.0000
# 6 0.0000 0.0000 0.0000 0.0000 0.0000 48.6822
#
#
#
# Elastic Compliance Matrix: (Units=1/GPa)
#
#
# Indices 1 2 3 4 5 6 
#
# 1 0.012825 -0.003001 -0.018481 0.000000 0.000000 0.000000
# 2 -0.003001 0.020916 0.026315 0.000000 0.000000 0.000000
# 3 -0.018481 0.026315 0.230467 0.000000 0.000000 0.000000
# 4 0.000000 0.000000 0.000000 0.125169 0.000000 0.000000
# 5 0.000000 0.000000 0.000000 0.000000 0.048227 0.000000
# 6 0.000000 0.000000 0.000000 0.000000 0.000000 0.020541
#
#
# Mechanical properties :
#
#
# Convention : Reuss Voigt Hill
#
# Bulk Modulus (GPa) = 3.65130 17.77934 10.71532
# Shear Modulus (GPa) = 9.26321 25.15905 17.21113
#
# Velocity S-wave (km/s) = 2.02933 3.34441 2.76616
# Velocity P-wave (km/s) = 2.66725 4.77679 3.86859
#
# Compressibility (1/GPa) = 0.27387477
#
# Stress axis : x y z
#
# Youngs Moduli (GPa) = 77.97497 47.80972 4.33902
#
# Poissons Ratio (x) = 0.14347 0.08019
# Poissons Ratio (y) = 0.23399 -0.11418
# Poissons Ratio (z) = 1.44105 -1.25813
#
# Static dielectric constant tensor:
#      x y z
#    x 2.203260 0.000000 0.000000 
#    y 0.000000 1.897710 0.000000 
#    z 0.000000 0.000000 1.941780 
# 
# From -- ./inp_files/8722.got.cif
#   From: 2010.05.17/outbox.cif.g08.bks.cpg/sg20_5_cif.got.tgz:8722.got - 2010.06.03 22:52:26.
