data_PCOD9317598
_publ_section_title
;
Structure prediction by ZEFSAII (Michael W. Deem and Ramdas Pophale) SiO2 
 PCOD9317598
Probable space group: C 2 2 21
;
_chemical_formula_sum "Si O2"
_cell_formula_units_Z 64
_cell_length_a 10.332235
_cell_length_b 14.562027
_cell_length_c 19.944594
_cell_angle_alpha 90.000000
_cell_angle_beta 90.000000
_cell_angle_gamma 90.000000
_cell_volume 3000.829409
_symmetry_space_group_name_H-M "C 2 2 21"
_symmetry_group_IT_number 20
_symmetry_cell_setting 'orthorhombic'
loop_
_space_group_symop_operation_xyz
x,y,z
-x,-y,1/2+z
x,-y,-z
-x,y,1/2-z
1/2+x,1/2+y,z
1/2-x,1/2-y,1/2+z
1/2+x,1/2-y,-z
1/2-x,1/2+y,1/2-z
loop_
_atom_site_type_symbol
_atom_site_label
_atom_site_fract_x
_atom_site_fract_y
_atom_site_fract_z
Si Si1 0.508935 0.522882 0.571695
Si Si2 0.127753 0.470288 0.285892
Si Si3 0.123456 0.029775 0.705448
Si Si4 0.883796 0.747554 0.199196
Si Si5 0.635319 0.745805 0.282826
Si Si6 0.212957 0.255134 0.433635
Si Si7 0.010589 0.240152 0.556779
Si Si8 0.785368 0.475206 0.071992
O O1 0.565898 0.500000 0.500000
O O2 0.597618 0.491629 0.632070
O O3 0.495983 0.632459 0.574171
O O4 0.361646 0.485715 0.575690
O O5 0.250050 0.501236 0.243213
O O6 0.130125 0.358259 0.284923
O O7 0.138558 0.502704 0.362013
O O8 0.000000 0.502292 0.250000
O O9 0.128172 0.140797 0.699673
O O10 0.000000 0.008025 0.750000
O O11 0.750268 0.716444 0.232841
O O12 0.919625 0.719264 0.123293
O O13 0.000000 0.725169 0.250000
O O14 0.500000 0.715271 0.250000
O O15 0.666978 0.719962 0.360170
O O16 0.104968 0.242422 0.491961
O O17 0.361535 0.224198 0.451190
O O18 0.222552 0.365313 0.426363
O O19 0.842614 0.500000 0.000000
#
# Coordination Sequence:
#
# PCOD9317598 Si02
#       8
#     8   8   8   8   8   8   8   8
#     4   9  17  31  52  75  98 127 165 204 243 288
#     4   9  16  27  45  72  98 121 158 205 246 280
#     4   9  14  25  47  71  91 117 161 207 239 271
#     4   9  15  28  47  68  92 123 164 206 241 277
#     4   9  17  28  47  72  96 122 163 212 245 278
#     4  10  20  33  50  76 102 130 165 201 247 298
#     4  10  20  32  51  74 102 133 162 202 249 298
#     4   9  17  32  53  73  97 131 166 198 239 296
#
# _framework density 21.327435999999999
#
# number of rings (size 3 to 8) (size 9 to 14) (size 15 to 20)
#    0.000    2.750    2.500    0.000    1.750    0.000 
#    2.250    0.625    0.000    3.000    0.000    0.000 
#    0.000    0.000    0.000    0.000    0.000    0.000 
#
# Total GULP energy -178476.111982 kJ/mol
# GULP energy per Si atom -5577.378499 kJ/mol
# Density = 2.127889 g / cm^3
# Si number density = 21.327436 Si / 1000 Ang^3
#
#
#
# Elastic Constant Matrix: (Units=GPa)
#
#
# Indices 1 2 3 4 5 6 
#
# 1 196.1789 0.4906 125.5697 0.0000 0.0000 0.0000
# 2 0.4906 51.2639 -3.0751 0.0000 0.0000 0.0000
# 3 125.5697 -3.0751 229.4931 0.0000 0.0000 0.0000
# 4 0.0000 0.0000 0.0000 18.0764 0.0000 0.0000
# 5 0.0000 0.0000 0.0000 0.0000 21.2225 0.0000
# 6 0.0000 0.0000 0.0000 0.0000 0.0000 -1.3378
#
#
#
# Elastic Compliance Matrix: (Units=1/GPa)
#
#
# Indices 1 2 3 4 5 6 
#
# 1 0.007851 -0.000333 -0.004300 0.000000 0.000000 0.000000
# 2 -0.000333 0.019537 0.000444 0.000000 0.000000 0.000000
# 3 -0.004300 0.000444 0.006716 0.000000 0.000000 0.000000
# 4 0.000000 0.000000 0.000000 0.055321 0.000000 0.000000
# 5 0.000000 0.000000 0.000000 0.000000 0.047120 0.000000
# 6 0.000000 0.000000 0.000000 0.000000 0.000000 -0.747521
#
#
# Mechanical properties :
#
#
# Convention : Reuss Voigt Hill
#
# Bulk Modulus (GPa) = 38.87212 80.32294 59.59753
# Shear Modulus (GPa) = -8.41717 31.18895 11.38589
#
# Velocity S-wave (km/s) = -1.98877 3.82826 2.31305
# Velocity P-wave (km/s) = 3.60448 7.56864 5.92776
#
# Compressibility (1/GPa) = 0.02572538
#
# Stress axis : x y z
#
# Youngs Moduli (GPa) = 127.37984 51.18569 148.89466
#
# Poissons Ratio (x) = 0.01705 0.64024
# Poissons Ratio (y) = 0.04242 -0.06611
# Poissons Ratio (z) = 0.54773 -0.02273
#
# Static dielectric constant tensor:
#      x y z
#    x 1.754990 0.000000 0.000000 
#    y 0.000000 1.843920 0.000000 
#    z 0.000000 0.000000 1.759760 
# 
# From -- ./inp_files/23988.got.cif
#   From: 2010.05.17/outbox.cif.g08.bks.cpg/sg20_12_cif.got.tgz:23988.got - 2010.06.03 22:52:26.
