data_PCOD9317711
_publ_section_title
;
Structure prediction by ZEFSAII (Michael W. Deem and Ramdas Pophale) SiO2 
 PCOD9317711
Probable space group: C 2 2 21
;
_chemical_formula_sum "Si O2"
_cell_formula_units_Z 52
_cell_length_a 5.192374
_cell_length_b 24.392957
_cell_length_c 19.726008
_cell_angle_alpha 90.000000
_cell_angle_beta 90.000000
_cell_angle_gamma 90.000000
_cell_volume 2498.444012
_symmetry_space_group_name_H-M "C 2 2 21"
_symmetry_group_IT_number 20
_symmetry_cell_setting 'orthorhombic'
loop_
_space_group_symop_operation_xyz
x,y,z
-x,-y,1/2+z
x,-y,-z
-x,y,1/2-z
1/2+x,1/2+y,z
1/2-x,1/2-y,1/2+z
1/2+x,1/2-y,-z
1/2-x,1/2+y,1/2-z
loop_
_atom_site_type_symbol
_atom_site_label
_atom_site_fract_x
_atom_site_fract_y
_atom_site_fract_z
Si Si1 0.281095 0.864998 0.622129
Si Si2 0.378331 0.285250 0.999945
Si Si3 0.370510 0.044220 0.146684
Si Si4 0.005304 0.952288 0.534801
Si Si5 0.500000 0.596892 0.250000
Si Si6 0.937732 0.575033 0.671278
Si Si7 0.435288 0.619227 0.594923
O O1 0.223189 0.818708 0.566850
O O2 0.562957 0.890648 0.632225
O O3 0.148599 0.864754 0.695671
O O4 0.166828 0.918967 0.587334
O O5 0.471714 0.322285 0.063971
O O6 0.632155 0.251141 0.979633
O O7 0.224327 0.024617 0.079317
O O8 0.192752 0.055502 0.211740
O O9 0.546683 0.991298 0.161728
O O10 0.914754 0.913761 0.475288
O O11 0.164838 0.000000 0.500000
O O12 0.162500 0.608463 0.631083
O O13 0.000000 0.585606 0.750000
O O14 0.662903 0.595638 0.642738
#
# Coordination Sequence:
#
# PCOD9317711 Si02
#       7
#     8   8   8   8   4   8   8
#     4  10  23  38  66  92 135 172 225 280 345 399
#     4  11  26  47  77  99 128 170 234 301 364 393
#     4  11  23  36  63  99 145 187 222 261 326 416
#     4  10  20  34  58  94 132 170 220 268 329 392
#     4  10  22  40  60  98 140 178 226 266 334 406
#     4  12  25  41  68  96 146 192 221 254 328 416
#     4  11  25  43  67  98 132 174 230 285 334 404
#
# _framework density 20.812954000000001
#
# number of rings (size 3 to 8) (size 9 to 14) (size 15 to 20)
#    0.000    1.231    1.538    3.692   15.077    0.615 
#    0.000    0.000   10.154    0.000    0.000    0.000 
#    0.000    0.000    0.000    0.000    0.000    0.000 
#
# Total GULP energy -144777.281279 kJ/mol
# GULP energy per Si atom -5568.356972 kJ/mol
# Density = 2.076558 g / cm^3
# Si number density = 20.812954 Si / 1000 Ang^3
#
#
#
# Elastic Constant Matrix: (Units=GPa)
#
#
# Indices 1 2 3 4 5 6 
#
# 1 59.6744 14.2170 -4.1915 0.0000 0.0000 0.0000
# 2 14.2170 76.5632 7.5383 0.0000 0.0000 0.0000
# 3 -4.1915 7.5383 89.5006 0.0000 0.0000 0.0000
# 4 0.0000 0.0000 0.0000 13.2702 0.0000 0.0000
# 5 0.0000 0.0000 0.0000 0.0000 32.5998 0.0000
# 6 0.0000 0.0000 0.0000 0.0000 0.0000 31.3281
#
#
#
# Elastic Compliance Matrix: (Units=1/GPa)
#
#
# Indices 1 2 3 4 5 6 
#
# 1 0.017642 -0.003385 0.001111 0.000000 0.000000 0.000000
# 2 -0.003385 0.013820 -0.001323 0.000000 0.000000 0.000000
# 3 0.001111 -0.001323 0.011337 0.000000 0.000000 0.000000
# 4 0.000000 0.000000 0.000000 0.075357 0.000000 0.000000
# 5 0.000000 0.000000 0.000000 0.000000 0.030675 0.000000
# 6 0.000000 0.000000 0.000000 0.000000 0.000000 0.031920
#
#
# Mechanical properties :
#
#
# Convention : Reuss Voigt Hill
#
# Bulk Modulus (GPa) = 28.08552 28.98510 28.53531
# Shear Modulus (GPa) = 25.02347 29.31793 27.17070
#
# Velocity S-wave (km/s) = 3.47119 3.75726 3.61705
# Velocity P-wave (km/s) = 5.43958 5.72532 5.58428
#
# Compressibility (1/GPa) = 0.03560554
#
# Stress axis : x y z
#
# Youngs Moduli (GPa) = 56.68221 72.35914 88.21029
#
# Poissons Ratio (x) = 0.24496 -0.09803
# Poissons Ratio (y) = 0.19189 0.11666
# Poissons Ratio (z) = -0.06299 0.09570
#
# Static dielectric constant tensor:
#      x y z
#    x 2.098120 0.000000 0.000000 
#    y 0.000000 1.751150 0.000000 
#    z 0.000000 0.000000 1.754890 
# 
# From -- ./inp_files/22891.got.cif
#   From: 2010.05.17/outbox.cif.g08.bks.cpg/sg20_12_cif.got.tgz:22891.got - 2010.06.03 22:52:26.
