data_PCOD9317145
_publ_section_title
;
Structure prediction by ZEFSAII (Michael W. Deem and Ramdas Pophale) SiO2 
 PCOD9317145
Probable space group: C 2 2 21
;
_chemical_formula_sum "Si O2"
_cell_formula_units_Z 48
_cell_length_a 22.934456
_cell_length_b 5.174414
_cell_length_c 17.672347
_cell_angle_alpha 90.000000
_cell_angle_beta 90.000000
_cell_angle_gamma 90.000000
_cell_volume 2097.219306
_symmetry_space_group_name_H-M "C 2 2 21"
_symmetry_group_IT_number 20
_symmetry_cell_setting 'orthorhombic'
loop_
_space_group_symop_operation_xyz
x,y,z
-x,-y,1/2+z
x,-y,-z
-x,y,1/2-z
1/2+x,1/2+y,z
1/2-x,1/2-y,1/2+z
1/2+x,1/2-y,-z
1/2-x,1/2+y,1/2-z
loop_
_atom_site_type_symbol
_atom_site_label
_atom_site_fract_x
_atom_site_fract_y
_atom_site_fract_z
Si Si1 0.879548 0.500000 0.000000
Si Si2 0.619435 0.518945 0.832387
Si Si3 0.837103 0.506842 0.254650
Si Si4 0.689839 0.674798 0.622626
Si Si5 0.222149 0.500000 0.000000
Si Si6 0.000000 0.020936 0.250000
Si Si7 0.641330 0.500000 0.000000
Si Si8 0.587645 0.256619 0.641446
O O1 0.838297 0.344876 0.943721
O O2 0.916727 0.681285 0.945649
O O3 0.653240 0.266435 0.798475
O O4 0.559536 0.584276 0.787299
O O5 0.607456 0.484021 0.920862
O O6 0.657427 0.772012 0.816549
O O7 0.791811 0.639070 0.193245
O O8 0.889900 0.478442 0.193597
O O9 0.739494 0.522057 0.576988
O O10 0.639851 0.468900 0.646966
O O11 0.182751 0.248028 0.996940
O O12 0.027502 0.166771 0.321558
#
# Coordination Sequence:
#
# PCOD9317145 Si02
#       8
#     4   8   8   8   4   4   4   8
#     4  10  19  34  63 102 152 163 226 301 340 400
#     4  11  24  48  70 101 143 186 236 292 352 434
#     4  10  21  40  73  96 142 176 227 303 334 397
#     4  11  20  40  70 106 137 178 234 300 342 414
#     4  12  26  44  76  98 143 199 230 286 372 412
#     4  10  22  44  72  96 140 192 228 278 378 398
#     4  12  29  50  69 102 147 190 236 291 358 442
#     4  10  20  38  64 109 137 177 227 299 338 417
#
# _framework density 22.887447000000002
#
# number of rings (size 3 to 8) (size 9 to 14) (size 15 to 20)
#    0.000    1.333    5.000    1.500    2.333    2.667 
#    3.000    4.167    0.000    0.000    0.000    0.000 
#    0.000    0.000    0.000    0.000    0.000    0.000 
#
# Total GULP energy -133676.860024 kJ/mol
# GULP energy per Si atom -5569.869168 kJ/mol
# Density = 2.283535 g / cm^3
# Si number density = 22.887447 Si / 1000 Ang^3
#
#
#
# Elastic Constant Matrix: (Units=GPa)
#
#
# Indices 1 2 3 4 5 6 
#
# 1 70.2349 20.3422 29.5726 0.0000 0.0000 0.0000
# 2 20.3422 125.6166 46.6379 0.0000 0.0000 0.0000
# 3 29.5726 46.6379 161.6780 0.0000 0.0000 0.0000
# 4 0.0000 0.0000 0.0000 25.3230 0.0000 0.0000
# 5 0.0000 0.0000 0.0000 0.0000 44.7460 0.0000
# 6 0.0000 0.0000 0.0000 0.0000 0.0000 -6.0133
#
#
#
# Elastic Compliance Matrix: (Units=1/GPa)
#
#
# Indices 1 2 3 4 5 6 
#
# 1 0.015728 -0.001656 -0.002399 0.000000 0.000000 0.000000
# 2 -0.001656 0.009090 -0.002319 0.000000 0.000000 0.000000
# 3 -0.002399 -0.002319 0.007293 0.000000 0.000000 0.000000
# 4 0.000000 0.000000 0.000000 0.039490 0.000000 0.000000
# 5 0.000000 0.000000 0.000000 0.000000 0.022348 0.000000
# 6 0.000000 0.000000 0.000000 0.000000 0.000000 -0.166298
#
#
# Mechanical properties :
#
#
# Convention : Reuss Voigt Hill
#
# Bulk Modulus (GPa) = 51.64804 61.18163 56.41483
# Shear Modulus (GPa) = -94.08006 30.20958 -31.93524
#
# Velocity S-wave (km/s) = -6.41831 3.63701 -3.73945
# Velocity P-wave (km/s) = 5.68430 6.66533 2.46124
#
# Compressibility (1/GPa) = 0.01936182
#
# Stress axis : x y z
#
# Youngs Moduli (GPa) = 63.58193 110.01119 137.11915
#
# Poissons Ratio (x) = 0.18221 0.32895
# Poissons Ratio (y) = 0.10531 0.31800
# Poissons Ratio (z) = 0.15253 0.25513
#
# Static dielectric constant tensor:
#      x y z
#    x 1.899520 0.000000 0.000000 
#    y 0.000000 1.944270 0.000000 
#    z 0.000000 0.000000 1.925590 
# 
# From -- ./inp_files/25607.got.cif
#   From: 2010.05.17/outbox.cif.g08.bks.cpg/sg20_13_cif.got.tgz:25607.got - 2010.06.03 22:52:26.
