data_PCOD9317926
_publ_section_title
;
Structure prediction by ZEFSAII (Michael W. Deem and Ramdas Pophale) SiO2 
 PCOD9317926
Probable space group: C 2 2 21
;
_chemical_formula_sum "Si O2"
_cell_formula_units_Z 36
_cell_length_a 28.645058
_cell_length_b 10.749969
_cell_length_c 5.461331
_cell_angle_alpha 90.000000
_cell_angle_beta 90.000000
_cell_angle_gamma 90.000000
_cell_volume 1681.726690
_symmetry_space_group_name_H-M "C 2 2 21"
_symmetry_group_IT_number 20
_symmetry_cell_setting 'orthorhombic'
loop_
_space_group_symop_operation_xyz
x,y,z
-x,-y,1/2+z
x,-y,-z
-x,y,1/2-z
1/2+x,1/2+y,z
1/2-x,1/2-y,1/2+z
1/2+x,1/2-y,-z
1/2-x,1/2+y,1/2-z
loop_
_atom_site_type_symbol
_atom_site_label
_atom_site_fract_x
_atom_site_fract_y
_atom_site_fract_z
Si Si1 0.183227 0.582369 0.244550
Si Si2 0.126265 0.794333 0.359107
Si Si3 0.214586 0.870716 0.651291
Si Si4 0.526442 0.349478 0.502365
Si Si5 0.847661 0.000000 0.500000
O O1 0.185322 0.500000 0.500000
O O2 0.136933 0.666892 0.221608
O O3 0.232269 0.660239 0.211268
O O4 0.183120 0.500000 0.000000
O O5 0.174189 0.795150 0.515606
O O6 0.078604 0.795054 0.506096
O O7 0.123929 0.922218 0.199903
O O8 0.187998 0.898214 0.901103
O O9 0.216304 0.000000 0.500000
O O10 0.529127 0.500000 0.500000
O O11 0.500000 0.313013 0.750000
O O12 0.500000 0.313323 0.250000
#
# Coordination Sequence:
#
# PCOD9317926 Si02
#       5
#     8   8   8   8   4
#     4  11  26  44  62  95 139 186 226 265 321 396
#     4  11  25  38  69  95 136 175 224 278 338 401
#     4   9  20  36  57  92 131 173 218 267 324 389
#     4  10  23  41  64  97 132 161 206 274 347 403
#     4  10  20  36  62  96 130 168 220 270 340 382
#
# _framework density 21.406571
#
# number of rings (size 3 to 8) (size 9 to 14) (size 15 to 20)
#    0.000    1.778    1.111    2.000   14.000    0.000 
#    0.000    0.000    0.000    2.667    0.000    0.000 
#    0.000    0.000    0.000    0.000    0.000    0.000 
#
# Total GULP energy -100268.720200 kJ/mol
# GULP energy per Si atom -5570.484456 kJ/mol
# Density = 2.135785 g / cm^3
# Si number density = 21.406571 Si / 1000 Ang^3
#
#
#
# Elastic Constant Matrix: (Units=GPa)
#
#
# Indices 1 2 3 4 5 6 
#
# 1 163.9819 47.6352 66.9929 0.0000 0.0000 0.0000
# 2 47.6352 27.9352 23.8882 0.0000 0.0000 0.0000
# 3 66.9929 23.8882 122.8319 0.0000 0.0000 0.0000
# 4 0.0000 0.0000 0.0000 16.0164 0.0000 0.0000
# 5 0.0000 0.0000 0.0000 0.0000 38.2727 0.0000
# 6 0.0000 0.0000 0.0000 0.0000 0.0000 32.3502
#
#
#
# Elastic Compliance Matrix: (Units=1/GPa)
#
#
# Indices 1 2 3 4 5 6 
#
# 1 0.013154 -0.019546 -0.003373 0.000000 0.000000 0.000000
# 2 -0.019546 0.071982 -0.003338 0.000000 0.000000 0.000000
# 3 -0.003373 -0.003338 0.010630 0.000000 0.000000 0.000000
# 4 0.000000 0.000000 0.000000 0.062436 0.000000 0.000000
# 5 0.000000 0.000000 0.000000 0.000000 0.026128 0.000000
# 6 0.000000 0.000000 0.000000 0.000000 0.000000 0.030912
#
#
# Mechanical properties :
#
#
# Convention : Reuss Voigt Hill
#
# Bulk Modulus (GPa) = 23.12078 65.75353 44.43716
# Shear Modulus (GPa) = 17.71949 29.07671 23.39810
#
# Velocity S-wave (km/s) = 2.88020 3.68952 3.30969
# Velocity P-wave (km/s) = 4.67814 6.99523 5.95056
#
# Compressibility (1/GPa) = 0.04325114
#
# Stress axis : x y z
#
# Youngs Moduli (GPa) = 76.02091 13.89231 94.07232
#
# Poissons Ratio (x) = 0.27154 0.31731
# Poissons Ratio (y) = 1.48593 0.31405
# Poissons Ratio (z) = 0.25642 0.04638
#
# Static dielectric constant tensor:
#      x y z
#    x 1.740810 0.000000 0.000000 
#    y 0.000000 2.086980 0.000000 
#    z 0.000000 0.000000 1.598690 
# 
# From -- ./inp_files/3540.got.cif
#   From: 2010.05.17/outbox.cif.g08.bks.cpg/sg20_2_cif.got.tgz:3540.got - 2010.06.03 22:52:26.
