data_PCOD9317975
_publ_section_title
;
Structure prediction by ZEFSAII (Michael W. Deem and Ramdas Pophale) SiO2 
 PCOD9317975
Probable space group: C 2 2 21
;
_chemical_formula_sum "Si O2"
_cell_formula_units_Z 52
_cell_length_a 8.342420
_cell_length_b 20.043709
_cell_length_c 15.822385
_cell_angle_alpha 90.000000
_cell_angle_beta 90.000000
_cell_angle_gamma 90.000000
_cell_volume 2645.709077
_symmetry_space_group_name_H-M "C 2 2 21"
_symmetry_group_IT_number 20
_symmetry_cell_setting 'orthorhombic'
loop_
_space_group_symop_operation_xyz
x,y,z
-x,-y,1/2+z
x,-y,-z
-x,y,1/2-z
1/2+x,1/2+y,z
1/2-x,1/2-y,1/2+z
1/2+x,1/2-y,-z
1/2-x,1/2+y,1/2-z
loop_
_atom_site_type_symbol
_atom_site_label
_atom_site_fract_x
_atom_site_fract_y
_atom_site_fract_z
Si Si1 0.656256 0.355741 0.087371
Si Si2 0.669062 0.196408 0.073139
Si Si3 0.815426 0.681167 0.741362
Si Si4 0.793708 0.114970 0.924076
Si Si5 0.810884 0.672776 0.241527
Si Si6 0.143826 0.392938 0.575108
Si Si7 0.072638 0.500000 0.000000
O O1 0.646958 0.275550 0.074369
O O2 0.752675 0.356847 0.175535
O O3 0.482442 0.389543 0.093863
O O4 0.745637 0.386824 0.007077
O O5 0.747811 0.168808 0.160917
O O6 0.493953 0.163464 0.065841
O O7 0.772123 0.172660 0.994208
O O8 0.792344 0.635334 0.661385
O O9 0.718930 0.749399 0.722222
O O10 0.000000 0.700683 0.750000
O O11 0.693181 0.053153 0.959252
O O12 0.764997 0.625047 0.163024
O O13 0.000000 0.660848 0.250000
O O14 0.043443 0.461689 0.566591
#
# Coordination Sequence:
#
# PCOD9317975 Si02
#       7
#     8   8   8   8   8   8   4
#     4  11  21  35  62  91 114 147 192 242 302 351
#     4   9  18  34  58  91 120 148 182 233 302 357
#     4  11  21  35  59  92 122 147 183 237 301 360
#     4  11  22  39  57  81 121 158 193 242 283 340
#     4   9  18  34  58  87 119 148 184 235 291 349
#     4  10  20  37  57  83 117 156 195 242 286 340
#     4  10  24  42  58  78 114 164 210 236 280 340
#
# _framework density 19.654467
#
# number of rings (size 3 to 8) (size 9 to 14) (size 15 to 20)
#    0.000    1.846    0.000    6.923    0.000    4.308 
#    0.000   11.538    0.000    7.385    0.000    0.000 
#    0.000    0.000    0.000    0.000    0.000    0.000 
#
# Total GULP energy -144947.810809 kJ/mol
# GULP energy per Si atom -5574.915800 kJ/mol
# Density = 1.960973 g / cm^3
# Si number density = 19.654467 Si / 1000 Ang^3
#
#
#
# Elastic Constant Matrix: (Units=GPa)
#
#
# Indices 1 2 3 4 5 6 
#
# 1 -76.1530 52.0699 56.9280 0.0000 0.0000 0.0000
# 2 52.0699 37.3651 15.6004 0.0000 0.0000 0.0000
# 3 56.9280 15.6004 92.7516 0.0000 0.0000 0.0000
# 4 0.0000 0.0000 0.0000 -13.2547 0.0000 0.0000
# 5 0.0000 0.0000 0.0000 0.0000 150.2566 0.0000
# 6 0.0000 0.0000 0.0000 0.0000 0.0000 -1.1160
#
#
#
# Elastic Compliance Matrix: (Units=1/GPa)
#
#
# Indices 1 2 3 4 5 6 
#
# 1 -0.006132 0.007501 0.002502 0.000000 0.000000 0.000000
# 2 0.007501 0.019609 -0.007902 0.000000 0.000000 0.000000
# 3 0.002502 -0.007902 0.010575 0.000000 0.000000 0.000000
# 4 0.000000 0.000000 0.000000 -0.075445 0.000000 0.000000
# 5 0.000000 0.000000 0.000000 0.000000 0.006655 0.000000
# 6 0.000000 0.000000 0.000000 0.000000 0.000000 -0.896040
#
#
# Mechanical properties :
#
#
# Convention : Reuss Voigt Hill
#
# Bulk Modulus (GPa) = 35.39327 33.68450 34.53889
# Shear Modulus (GPa) = -5.34438 22.46821 8.56192
#
# Velocity S-wave (km/s) = -1.65078 3.38473 2.08942
# Velocity P-wave (km/s) = 3.79650 5.69656 4.84067
#
# Compressibility (1/GPa) = 0.02825396
#
# Stress axis : x y z
#
# Youngs Moduli (GPa) = -163.07260 50.99610 94.56429
#
# Poissons Ratio (x) = -0.38251 -0.23662
# Poissons Ratio (y) = 1.22318 0.74725
# Poissons Ratio (z) = 0.40803 0.40297
#
# Static dielectric constant tensor:
#      x y z
#    x 1.697530 0.000000 0.000000 
#    y 0.000000 1.637500 0.000000 
#    z 0.000000 0.000000 1.754820 
# 
# From -- ./inp_files/19101.got.cif
#   From: 2010.05.17/outbox.cif.g08.bks.cpg/sg20_10_cif.got.tgz:19101.got - 2010.06.03 22:52:26.
