data_PCOD9317783
_publ_section_title
;
Structure prediction by ZEFSAII (Michael W. Deem and Ramdas Pophale) SiO2 
 PCOD9317783
Probable space group: C 2 2 21
;
_chemical_formula_sum "Si O2"
_cell_formula_units_Z 48
_cell_length_a 8.431852
_cell_length_b 19.242186
_cell_length_c 14.817968
_cell_angle_alpha 90.000000
_cell_angle_beta 90.000000
_cell_angle_gamma 90.000000
_cell_volume 2404.174774
_symmetry_space_group_name_H-M "C 2 2 21"
_symmetry_group_IT_number 20
_symmetry_cell_setting 'orthorhombic'
loop_
_space_group_symop_operation_xyz
x,y,z
-x,-y,1/2+z
x,-y,-z
-x,y,1/2-z
1/2+x,1/2+y,z
1/2-x,1/2-y,1/2+z
1/2+x,1/2-y,-z
1/2-x,1/2+y,1/2-z
loop_
_atom_site_type_symbol
_atom_site_label
_atom_site_fract_x
_atom_site_fract_y
_atom_site_fract_z
Si Si1 0.686401 0.457899 0.591988
Si Si2 0.597424 0.165474 0.161741
Si Si3 0.181986 0.271280 0.229243
Si Si4 0.497819 0.349512 0.503066
Si Si5 0.645603 0.403300 0.315469
Si Si6 0.818913 0.720631 0.038898
O O1 0.728489 0.500000 0.500000
O O2 0.804037 0.397639 0.621548
O O3 0.525749 0.413773 0.571180
O O4 0.683131 0.516537 0.667917
O O5 0.500000 0.141834 0.250000
O O6 0.702343 0.229377 0.202341
O O7 0.475892 0.187693 0.083274
O O8 0.219219 0.353366 0.224117
O O9 0.225345 0.246739 0.128020
O O10 0.000000 0.256650 0.250000
O O11 0.577644 0.374707 0.410236
O O12 0.314391 0.327687 0.493367
O O13 0.608964 0.282044 0.522856
O O14 0.500000 0.396341 0.250000
#
# Coordination Sequence:
#
# PCOD9317783 Si02
#       6
#     8   8   8   8   8   8
#     4  10  22  40  57  80 120 161 193 235 297 357
#     4  10  21  38  60  88 119 152 197 248 290 343
#     4  10  20  36  61  89 116 152 198 244 293 347
#     4  10  20  36  58  85 114 152 193 237 295 346
#     4  10  22  39  57  82 119 156 194 243 295 350
#     4  10  20  35  60  90 117 149 196 249 290 339
#
# _framework density 19.965271000000001
#
# number of rings (size 3 to 8) (size 9 to 14) (size 15 to 20)
#    0.000    2.000    0.000    4.500    0.000    5.333 
#    0.000    4.167    0.000    0.000    0.000    0.000 
#    0.000    0.000    0.000    0.000    0.000    0.000 
#
# Total GULP energy -133809.015645 kJ/mol
# GULP energy per Si atom -5575.375652 kJ/mol
# Density = 1.991983 g / cm^3
# Si number density = 19.965271 Si / 1000 Ang^3
#
#
#
# Elastic Constant Matrix: (Units=GPa)
#
#
# Indices 1 2 3 4 5 6 
#
# 1 104.9130 46.5999 5.1219 0.0000 0.0000 0.0000
# 2 46.5999 104.7076 7.9453 0.0000 0.0000 0.0000
# 3 5.1219 7.9453 16.5478 0.0000 0.0000 0.0000
# 4 0.0000 0.0000 0.0000 19.8037 0.0000 0.0000
# 5 0.0000 0.0000 0.0000 0.0000 28.1638 0.0000
# 6 0.0000 0.0000 0.0000 0.0000 0.0000 13.2902
#
#
#
# Elastic Compliance Matrix: (Units=1/GPa)
#
#
# Indices 1 2 3 4 5 6 
#
# 1 0.011902 -0.005207 -0.001184 0.000000 0.000000 0.000000
# 2 -0.005207 0.012190 -0.004241 0.000000 0.000000 0.000000
# 3 -0.001184 -0.004241 0.062834 0.000000 0.000000 0.000000
# 4 0.000000 0.000000 0.000000 0.050496 0.000000 0.000000
# 5 0.000000 0.000000 0.000000 0.000000 0.035507 0.000000
# 6 0.000000 0.000000 0.000000 0.000000 0.000000 0.075244
#
#
# Mechanical properties :
#
#
# Convention : Reuss Voigt Hill
#
# Bulk Modulus (GPa) = 15.22964 38.38921 26.80943
# Shear Modulus (GPa) = 17.16307 23.35161 20.25734
#
# Velocity S-wave (km/s) = 2.93515 3.42367 3.18878
# Velocity P-wave (km/s) = 4.37395 5.90749 5.19759
#
# Compressibility (1/GPa) = 0.06566141
#
# Stress axis : x y z
#
# Youngs Moduli (GPa) = 84.01605 82.03624 15.91506
#
# Poissons Ratio (x) = 0.42719 0.01884
# Poissons Ratio (y) = 0.43750 0.06750
# Poissons Ratio (z) = 0.09946 0.34792
#
# Static dielectric constant tensor:
#      x y z
#    x 1.698930 0.000000 0.000000 
#    y 0.000000 1.815570 0.000000 
#    z 0.000000 0.000000 1.803060 
# 
# From -- ./inp_files/18902.got.cif
#   From: 2010.05.17/outbox.cif.g08.bks.cpg/sg20_10_cif.got.tgz:18902.got - 2010.06.03 22:52:26.
