data_PCOD9317436
_publ_section_title
;
Structure prediction by ZEFSAII (Michael W. Deem and Ramdas Pophale) SiO2 
 PCOD9317436
Probable space group: C 2 2 21
;
_chemical_formula_sum "Si O2"
_cell_formula_units_Z 52
_cell_length_a 19.920366
_cell_length_b 14.655701
_cell_length_c 8.336401
_cell_angle_alpha 90.000000
_cell_angle_beta 90.000000
_cell_angle_gamma 90.000000
_cell_volume 2433.786662
_symmetry_space_group_name_H-M "C 2 2 21"
_symmetry_group_IT_number 20
_symmetry_cell_setting 'orthorhombic'
loop_
_space_group_symop_operation_xyz
x,y,z
-x,-y,1/2+z
x,-y,-z
-x,y,1/2-z
1/2+x,1/2+y,z
1/2-x,1/2-y,1/2+z
1/2+x,1/2-y,-z
1/2-x,1/2+y,1/2-z
loop_
_atom_site_type_symbol
_atom_site_label
_atom_site_fract_x
_atom_site_fract_y
_atom_site_fract_z
Si Si1 0.060505 0.198921 0.447751
Si Si2 0.199082 0.280784 0.444951
Si Si3 0.600769 0.612129 0.785109
Si Si4 0.000000 0.960900 0.750000
Si Si5 0.051050 0.707918 0.098156
Si Si6 0.691364 0.144723 0.188264
Si Si7 0.255037 0.536965 0.680980
O O1 0.130412 0.236284 0.385450
O O2 0.074111 0.162469 0.627009
O O3 0.038936 0.107494 0.362440
O O4 0.002905 0.276590 0.455947
O O5 0.259670 0.209457 0.416554
O O6 0.190422 0.308817 0.632794
O O7 0.210749 0.373196 0.345620
O O8 0.553704 0.528333 0.827098
O O9 0.590178 0.693857 0.909097
O O10 0.674354 0.574283 0.756001
O O11 0.115338 0.642245 0.118720
O O12 0.000000 0.691750 0.250000
O O13 0.722789 0.044366 0.216173
O O14 0.267631 0.500000 0.500000
#
# Coordination Sequence:
#
# PCOD9317436 Si02
#       7
#     8   8   8   4   8   8   8
#     4  11  23  38  60  88 124 166 196 253 316 368
#     4  11  21  42  62  90 129 157 206 257 313 370
#     4  11  20  37  56  86 124 156 194 250 303 379
#     4  12  24  32  58  92 124 158 202 252 310 366
#     4  10  19  38  62  82 120 163 204 239 311 369
#     4  11  22  39  64  94 120 170 205 259 306 371
#     4  10  23  36  62  94 119 157 210 253 303 363
#
# _framework density 21.365881999999999
#
# number of rings (size 3 to 8) (size 9 to 14) (size 15 to 20)
#    0.000    1.231    6.923    1.385    2.154    1.231 
#    0.000    0.769    1.692    0.000    0.000    0.000 
#    0.000    0.000    0.000    0.000    0.000    0.000 
#
# Total GULP energy -145072.156240 kJ/mol
# GULP energy per Si atom -5579.698317 kJ/mol
# Density = 2.131725 g / cm^3
# Si number density = 21.365882 Si / 1000 Ang^3
#
#
#
# Elastic Constant Matrix: (Units=GPa)
#
#
# Indices 1 2 3 4 5 6 
#
# 1 144.2839 31.7201 13.5629 0.0000 0.0000 0.0000
# 2 31.7201 44.4994 13.8896 0.0000 0.0000 0.0000
# 3 13.5629 13.8896 18.0185 0.0000 0.0000 0.0000
# 4 0.0000 0.0000 0.0000 1.6724 0.0000 0.0000
# 5 0.0000 0.0000 0.0000 0.0000 18.6738 0.0000
# 6 0.0000 0.0000 0.0000 0.0000 0.0000 53.9626
#
#
#
# Elastic Compliance Matrix: (Units=1/GPa)
#
#
# Indices 1 2 3 4 5 6 
#
# 1 0.008285 -0.005214 -0.002218 0.000000 0.000000 0.000000
# 2 -0.005214 0.032873 -0.021416 0.000000 0.000000 0.000000
# 3 -0.002218 -0.021416 0.073676 0.000000 0.000000 0.000000
# 4 0.000000 0.000000 0.000000 0.597942 0.000000 0.000000
# 5 0.000000 0.000000 0.000000 0.000000 0.053551 0.000000
# 6 0.000000 0.000000 0.000000 0.000000 0.000000 0.018531
#
#
# Mechanical properties :
#
#
# Convention : Reuss Voigt Hill
#
# Bulk Modulus (GPa) = 17.50075 36.12746 26.81410
# Shear Modulus (GPa) = 5.80315 24.70370 15.25343
#
# Velocity S-wave (km/s) = 1.64984 3.40402 2.67482
# Velocity P-wave (km/s) = 3.44065 5.69170 4.70284
#
# Compressibility (1/GPa) = 0.05714042
#
# Stress axis : x y z
#
# Youngs Moduli (GPa) = 120.69296 30.41981 13.57291
#
# Poissons Ratio (x) = 0.15861 0.03010
# Poissons Ratio (y) = 0.62928 0.29068
# Poissons Ratio (z) = 0.26764 0.65147
#
# Static dielectric constant tensor:
#      x y z
#    x 1.764540 0.000000 0.000000 
#    y 0.000000 1.760490 0.000000 
#    z 0.000000 0.000000 1.814450 
# 
# From -- ./inp_files/15844.got.cif
#   From: 2010.05.17/outbox.cif.g08.bks.cpg/sg20_8_cif.got.tgz:15844.got - 2010.06.03 22:52:26.
