data_PCOD9317725
_publ_section_title
;
Structure prediction by ZEFSAII (Michael W. Deem and Ramdas Pophale) SiO2 
 PCOD9317725
Probable space group: C 2 2 21
;
_chemical_formula_sum "Si O2"
_cell_formula_units_Z 60
_cell_length_a 8.504129
_cell_length_b 26.309274
_cell_length_c 12.207421
_cell_angle_alpha 90.000000
_cell_angle_beta 90.000000
_cell_angle_gamma 90.000000
_cell_volume 2731.257368
_symmetry_space_group_name_H-M "C 2 2 21"
_symmetry_group_IT_number 20
_symmetry_cell_setting 'orthorhombic'
loop_
_space_group_symop_operation_xyz
x,y,z
-x,-y,1/2+z
x,-y,-z
-x,y,1/2-z
1/2+x,1/2+y,z
1/2-x,1/2-y,1/2+z
1/2+x,1/2-y,-z
1/2-x,1/2+y,1/2-z
loop_
_atom_site_type_symbol
_atom_site_label
_atom_site_fract_x
_atom_site_fract_y
_atom_site_fract_z
Si Si1 0.189312 0.725561 0.544323
Si Si2 0.592244 0.059965 0.995109
Si Si3 0.827502 0.594763 0.283022
Si Si4 0.000000 0.293919 0.250000
Si Si5 0.938647 0.706165 0.359387
Si Si6 0.756099 0.124547 0.817157
Si Si7 0.261198 0.556465 0.445487
Si Si8 0.089734 0.869926 0.095332
O O1 0.068819 0.734320 0.645186
O O2 0.305475 0.773065 0.558161
O O3 0.307819 0.679265 0.569241
O O4 0.092267 0.708268 0.437721
O O5 0.660581 0.082739 0.884400
O O6 0.704037 0.076011 0.095161
O O7 0.412119 0.078038 0.016909
O O8 0.584584 0.000000 0.000000
O O9 0.860487 0.655219 0.304076
O O10 0.728156 0.570452 0.184121
O O11 0.000000 0.573864 0.250000
O O12 0.861402 0.329806 0.293581
O O13 0.000000 0.735893 0.250000
O O14 0.826568 0.105632 0.702149
O O15 0.910296 0.143017 0.880977
O O16 0.269353 0.500000 0.500000
O O17 0.395246 0.589561 0.500659
#
# Coordination Sequence:
#
# PCOD9317725 Si02
#       8
#     8   8   8   4   8   8   8   8
#     4  11  25  41  70  97 134 182 238 288 364 429
#     4  10  20  34  62  93 124 167 224 274 331 412
#     4   9  19  40  61  89 136 173 215 280 350 404
#     4  10  22  42  68  94 130 168 230 292 346 426
#     4  11  25  42  69  96 142 185 234 299 357 434
#     4  10  21  37  63  92 130 165 218 279 343 406
#     4  10  21  38  67  96 130 180 228 278 352 428
#     4  10  22  40  62  93 130 172 217 284 344 410
#
# _framework density 21.967904999999998
#
# number of rings (size 3 to 8) (size 9 to 14) (size 15 to 20)
#    0.000    1.867    0.000    4.800    7.467    1.600 
#    1.200    0.667    0.000    0.000    0.000    0.000 
#    0.000    0.000    0.000    0.000    0.000    0.000 
#
# Total GULP energy -167114.327897 kJ/mol
# GULP energy per Si atom -5570.477597 kJ/mol
# Density = 2.191790 g / cm^3
# Si number density = 21.967905 Si / 1000 Ang^3
#
#
#
# Elastic Constant Matrix: (Units=GPa)
#
#
# Indices 1 2 3 4 5 6 
#
# 1 81.6875 8.1678 26.1716 0.0000 0.0000 0.0000
# 2 8.1678 43.8211 24.6923 0.0000 0.0000 0.0000
# 3 26.1716 24.6923 89.2353 0.0000 0.0000 0.0000
# 4 0.0000 0.0000 0.0000 19.8059 0.0000 0.0000
# 5 0.0000 0.0000 0.0000 0.0000 24.1712 0.0000
# 6 0.0000 0.0000 0.0000 0.0000 0.0000 10.4250
#
#
#
# Elastic Compliance Matrix: (Units=1/GPa)
#
#
# Indices 1 2 3 4 5 6 
#
# 1 0.013516 -0.000338 -0.003870 0.000000 0.000000 0.000000
# 2 -0.000338 0.027044 -0.007384 0.000000 0.000000 0.000000
# 3 -0.003870 -0.007384 0.014385 0.000000 0.000000 0.000000
# 4 0.000000 0.000000 0.000000 0.050490 0.000000 0.000000
# 5 0.000000 0.000000 0.000000 0.000000 0.041372 0.000000
# 6 0.000000 0.000000 0.000000 0.000000 0.000000 0.095923
#
#
# Mechanical properties :
#
#
# Convention : Reuss Voigt Hill
#
# Bulk Modulus (GPa) = 31.48743 36.97859 34.23301
# Shear Modulus (GPa) = 18.08313 21.26122 19.67217
#
# Velocity S-wave (km/s) = 2.87219 3.11437 2.99573
# Velocity P-wave (km/s) = 5.03625 5.45912 5.25194
#
# Compressibility (1/GPa) = 0.03175870
#
# Stress axis : x y z
#
# Youngs Moduli (GPa) = 73.98854 36.97695 69.51829
#
# Poissons Ratio (x) = 0.01251 0.26906
# Poissons Ratio (y) = 0.02503 0.51333
# Poissons Ratio (z) = 0.28636 0.27304
#
# Static dielectric constant tensor:
#      x y z
#    x 1.823460 0.000000 0.000000 
#    y 0.000000 1.923570 0.000000 
#    z 0.000000 0.000000 1.876660 
# 
# From -- ./inp_files/13288.got.cif
#   From: 2010.05.17/outbox.cif.g08.bks.cpg/sg20_7_cif.got.tgz:13288.got - 2010.06.03 22:52:26.
