data_PCOD9317605
_publ_section_title
;
Structure prediction by ZEFSAII (Michael W. Deem and Ramdas Pophale) SiO2 
 PCOD9317605
Probable space group: C 2 2 21
;
_chemical_formula_sum "Si O2"
_cell_formula_units_Z 60
_cell_length_a 21.968353
_cell_length_b 6.470729
_cell_length_c 19.951042
_cell_angle_alpha 90.000000
_cell_angle_beta 90.000000
_cell_angle_gamma 90.000000
_cell_volume 2836.065735
_symmetry_space_group_name_H-M "C 2 2 21"
_symmetry_group_IT_number 20
_symmetry_cell_setting 'orthorhombic'
loop_
_space_group_symop_operation_xyz
x,y,z
-x,-y,1/2+z
x,-y,-z
-x,y,1/2-z
1/2+x,1/2+y,z
1/2-x,1/2-y,1/2+z
1/2+x,1/2-y,-z
1/2-x,1/2+y,1/2-z
loop_
_atom_site_type_symbol
_atom_site_label
_atom_site_fract_x
_atom_site_fract_y
_atom_site_fract_z
Si Si1 0.000000 0.705842 0.750000
Si Si2 0.687857 0.151396 0.689465
Si Si3 0.021306 0.874387 0.931376
Si Si4 0.596049 0.669674 0.835313
Si Si5 0.568560 0.131216 0.303621
Si Si6 0.205554 0.859701 0.829165
Si Si7 0.367665 0.940616 0.425873
Si Si8 0.413530 0.570121 0.153754
O O1 0.986850 0.533676 0.808790
O O2 0.945901 0.855007 0.775453
O O3 0.714581 0.228974 0.760742
O O4 0.655895 0.350307 0.654828
O O5 0.629396 0.005337 0.698832
O O6 0.737107 0.004984 0.654182
O O7 0.068921 0.686112 0.934564
O O8 0.953009 0.831401 0.906431
O O9 0.048915 0.025413 0.874493
O O10 0.021837 0.000000 0.000000
O O11 0.568298 0.764195 0.768967
O O12 0.652275 0.524594 0.816307
O O13 0.619257 0.854611 0.882827
O O14 0.577747 0.323682 0.352418
O O15 0.179612 0.705755 0.885888
O O16 0.345850 0.000000 0.500000
#
# Coordination Sequence:
#
# PCOD9317605 Si02
#       8
#     4   8   8   8   8   8   8   8
#     4  10  20  32  54  88 128 162 198 256 322 398
#     4  11  24  40  61 100 128 172 220 274 345 406
#     4  11  23  39  62  93 129 174 220 271 325 410
#     4  11  20  37  63  94 126 165 212 274 336 387
#     4  11  20  36  59  90 129 165 207 262 337 402
#     4  11  24  39  67  96 131 169 222 283 337 399
#     4  11  23  42  66  98 130 171 227 275 339 399
#     4  11  23  37  58  92 135 170 214 267 335 411
#
# _framework density 21.156067
#
# number of rings (size 3 to 8) (size 9 to 14) (size 15 to 20)
#    0.000    1.067    4.000    3.600    3.733    1.067 
#    0.000    0.000    0.000    4.800    0.000    0.000 
#    0.000    0.000    0.000    0.000    0.000    0.000 
#
# Total GULP energy -167171.046784 kJ/mol
# GULP energy per Si atom -5572.368226 kJ/mol
# Density = 2.110791 g / cm^3
# Si number density = 21.156067 Si / 1000 Ang^3
#
#
#
# Elastic Constant Matrix: (Units=GPa)
#
#
# Indices 1 2 3 4 5 6 
#
# 1 55.5519 0.5217 -3.4230 0.0000 0.0000 0.0000
# 2 0.5217 91.1346 -4.7624 0.0000 0.0000 0.0000
# 3 -3.4230 -4.7624 51.8773 0.0000 0.0000 0.0000
# 4 0.0000 0.0000 0.0000 17.5721 0.0000 0.0000
# 5 0.0000 0.0000 0.0000 0.0000 14.1003 0.0000
# 6 0.0000 0.0000 0.0000 0.0000 0.0000 182.8053
#
#
#
# Elastic Compliance Matrix: (Units=1/GPa)
#
#
# Indices 1 2 3 4 5 6 
#
# 1 0.018075 -0.000041 0.001189 0.000000 0.000000 0.000000
# 2 -0.000041 0.011026 0.001009 0.000000 0.000000 0.000000
# 3 0.001189 0.001009 0.019447 0.000000 0.000000 0.000000
# 4 0.000000 0.000000 0.000000 0.056909 0.000000 0.000000
# 5 0.000000 0.000000 0.000000 0.000000 0.070921 0.000000
# 6 0.000000 0.000000 0.000000 0.000000 0.000000 0.005470
#
#
# Mechanical properties :
#
#
# Convention : Reuss Voigt Hill
#
# Bulk Modulus (GPa) = 18.91725 20.35961 19.63843
# Shear Modulus (GPa) = 25.62078 56.64403 41.13240
#
# Velocity S-wave (km/s) = 3.48377 5.18001 4.41413
# Velocity P-wave (km/s) = 5.01432 6.73952 5.93989
#
# Compressibility (1/GPa) = 0.05286180
#
# Stress axis : x y z
#
# Youngs Moduli (GPa) = 55.32562 90.69666 51.42085
#
# Poissons Ratio (x) = 0.00375 -0.06113
# Poissons Ratio (y) = 0.00229 -0.05191
# Poissons Ratio (z) = -0.06577 -0.09155
#
# Static dielectric constant tensor:
#      x y z
#    x 1.813570 0.000000 0.000000 
#    y 0.000000 1.852890 0.000000 
#    z 0.000000 0.000000 1.682800 
# 
# From -- ./inp_files/28044.got.cif
#   From: 2010.05.17/outbox.cif.g08.bks.cpg/sg20_15_cif.got.tgz:28044.got - 2010.06.03 22:52:26.
