data_PCOD9317713
_publ_section_title
;
Structure prediction by ZEFSAII (Michael W. Deem and Ramdas Pophale) SiO2 
 PCOD9317713
Probable space group: C 2 2 21
;
_chemical_formula_sum "Si O2"
_cell_formula_units_Z 48
_cell_length_a 9.517470
_cell_length_b 18.433857
_cell_length_c 14.528979
_cell_angle_alpha 90.000000
_cell_angle_beta 90.000000
_cell_angle_gamma 90.000000
_cell_volume 2549.017557
_symmetry_space_group_name_H-M "C 2 2 21"
_symmetry_group_IT_number 20
_symmetry_cell_setting 'orthorhombic'
loop_
_space_group_symop_operation_xyz
x,y,z
-x,-y,1/2+z
x,-y,-z
-x,y,1/2-z
1/2+x,1/2+y,z
1/2-x,1/2-y,1/2+z
1/2+x,1/2-y,-z
1/2-x,1/2+y,1/2-z
loop_
_atom_site_type_symbol
_atom_site_label
_atom_site_fract_x
_atom_site_fract_y
_atom_site_fract_z
Si Si1 0.819932 0.414394 0.484515
Si Si2 0.652315 0.839166 0.215060
Si Si3 0.501417 0.585070 0.481238
Si Si4 0.090748 0.832537 0.163274
Si Si5 0.845622 0.796924 0.598419
Si Si6 0.018571 0.293657 0.549923
O O1 0.840570 0.500000 0.500000
O O2 0.812935 0.385882 0.377612
O O3 0.666624 0.396560 0.526845
O O4 0.943600 0.370402 0.534767
O O5 0.500000 0.859096 0.250000
O O6 0.753720 0.845481 0.301912
O O7 0.662179 0.754109 0.187002
O O8 0.488968 0.500000 0.500000
O O9 0.444599 0.621588 0.574141
O O10 0.409053 0.622215 0.400844
O O11 0.044212 0.750768 0.136614
O O12 0.000000 0.856375 0.250000
O O13 0.958252 0.752955 0.535697
O O14 0.687475 0.796570 0.556329
#
# Coordination Sequence:
#
# PCOD9317713 Si02
#       6
#     8   8   8   8   8   8
#     4  10  22  41  59  83 119 158 192 231 291 354
#     4  11  23  36  59  88 113 149 196 247 290 334
#     4  10  22  39  60  84 117 160 193 231 289 356
#     4  11  19  38  59  82 115 148 190 244 294 332
#     4  10  20  36  56  85 110 145 193 228 282 344
#     4  10  20  34  59  82 110 150 186 234 282 340
#
# _framework density 18.830784000000001
#
# number of rings (size 3 to 8) (size 9 to 14) (size 15 to 20)
#    0.000    1.667    3.333    3.000   11.667    0.667 
#    0.000    3.333    0.000    0.000    0.000    0.000 
#    0.000    0.000    0.000    0.000    0.000    0.000 
#
# Total GULP energy -133697.295570 kJ/mol
# GULP energy per Si atom -5570.720649 kJ/mol
# Density = 1.878792 g / cm^3
# Si number density = 18.830784 Si / 1000 Ang^3
#
#
#
# Elastic Constant Matrix: (Units=GPa)
#
#
# Indices 1 2 3 4 5 6 
#
# 1 110.2247 29.4217 -9.7018 0.0000 0.0000 0.0000
# 2 29.4217 92.6967 8.4909 0.0000 0.0000 0.0000
# 3 -9.7018 8.4909 23.4780 0.0000 0.0000 0.0000
# 4 0.0000 0.0000 0.0000 15.3279 0.0000 0.0000
# 5 0.0000 0.0000 0.0000 0.0000 18.5877 0.0000
# 6 0.0000 0.0000 0.0000 0.0000 0.0000 29.8446
#
#
#
# Elastic Compliance Matrix: (Units=1/GPa)
#
#
# Indices 1 2 3 4 5 6 
#
# 1 0.010625 -0.003904 0.005802 0.000000 0.000000 0.000000
# 2 -0.003904 0.012592 -0.006167 0.000000 0.000000 0.000000
# 3 0.005802 -0.006167 0.047221 0.000000 0.000000 0.000000
# 4 0.000000 0.000000 0.000000 0.065241 0.000000 0.000000
# 5 0.000000 0.000000 0.000000 0.000000 0.053799 0.000000
# 6 0.000000 0.000000 0.000000 0.000000 0.000000 0.033507
#
#
# Mechanical properties :
#
#
# Convention : Reuss Voigt Hill
#
# Bulk Modulus (GPa) = 16.15480 31.42456 23.78968
# Shear Modulus (GPa) = 19.82904 25.96460 22.89682
#
# Velocity S-wave (km/s) = 3.24853 3.71730 3.49079
# Velocity P-wave (km/s) = 4.76111 5.92862 5.37665
#
# Compressibility (1/GPa) = 0.06190112
#
# Stress axis : x y z
#
# Youngs Moduli (GPa) = 94.11628 79.41642 21.17696
#
# Poissons Ratio (x) = 0.31003 -0.12288
# Poissons Ratio (y) = 0.36742 0.13060
# Poissons Ratio (z) = -0.54611 0.48977
#
# Static dielectric constant tensor:
#      x y z
#    x 1.643910 0.000000 0.000000 
#    y 0.000000 1.717330 0.000000 
#    z 0.000000 0.000000 1.627420 
# 
# From -- ./inp_files/18918.got.cif
#   From: 2010.05.17/outbox.cif.g08.bks.cpg/sg20_10_cif.got.tgz:18918.got - 2010.06.03 22:52:26.
