data_PCOD9317398
_publ_section_title
;
Structure prediction by ZEFSAII (Michael W. Deem and Ramdas Pophale) SiO2 
 PCOD9317398
Probable space group: C 2 2 21
;
_chemical_formula_sum "Si O2"
_cell_formula_units_Z 32
_cell_length_a 7.723234
_cell_length_b 35.714028
_cell_length_c 5.359920
_cell_angle_alpha 90.000000
_cell_angle_beta 90.000000
_cell_angle_gamma 90.000000
_cell_volume 1478.414917
_symmetry_space_group_name_H-M "C 2 2 21"
_symmetry_group_IT_number 20
_symmetry_cell_setting 'orthorhombic'
loop_
_space_group_symop_operation_xyz
x,y,z
-x,-y,1/2+z
x,-y,-z
-x,y,1/2-z
1/2+x,1/2+y,z
1/2-x,1/2-y,1/2+z
1/2+x,1/2-y,-z
1/2-x,1/2+y,1/2-z
loop_
_atom_site_type_symbol
_atom_site_label
_atom_site_fract_x
_atom_site_fract_y
_atom_site_fract_z
Si Si1 0.884212 0.542635 0.999489
Si Si2 0.170638 0.237797 0.392572
Si Si3 0.295856 0.618730 0.503532
Si Si4 0.187150 0.849618 0.505178
O O1 0.000000 0.547181 0.250000
O O2 0.815927 0.500000 0.000000
O O3 0.740360 0.574797 0.991151
O O4 0.000000 0.546813 0.750000
O O5 0.198755 0.258330 0.656883
O O6 0.154888 0.194344 0.467550
O O7 0.000000 0.251729 0.250000
O O8 0.223600 0.638862 0.749057
O O9 0.499147 0.629880 0.499735
O O10 0.219599 0.635448 0.250126
#
# Coordination Sequence:
#
# PCOD9317398 Si02
#       4
#     8   8   8   8
#     4  10  21  38  59  91 131 166 203 255 313 379
#     4  12  25  44  70  94 130 175 218 278 353 400
#     4  10  19  37  65  86 116 168 202 250 319 368
#     4  10  21  39  64  83 119 155 208 262 311 375
#
# _framework density 21.644801999999999
#
# number of rings (size 3 to 8) (size 9 to 14) (size 15 to 20)
#    0.000    1.500    2.500    3.750    3.500    0.000 
#    0.000   17.500    0.000    0.000    0.000    0.000 
#    0.000    0.000    0.000    0.000    0.000    0.000 
#
# Total GULP energy -89278.702546 kJ/mol
# GULP energy per Si atom -5579.918909 kJ/mol
# Density = 2.159554 g / cm^3
# Si number density = 21.644802 Si / 1000 Ang^3
#
#
#
# Elastic Constant Matrix: (Units=GPa)
#
#
# Indices 1 2 3 4 5 6 
#
# 1 56.3044 42.8002 23.2838 0.0000 0.0000 0.0000
# 2 42.8002 119.2454 40.2691 0.0000 0.0000 0.0000
# 3 23.2838 40.2691 217.6309 0.0000 0.0000 0.0000
# 4 0.0000 0.0000 0.0000 41.7830 0.0000 0.0000
# 5 0.0000 0.0000 0.0000 0.0000 8.9020 0.0000
# 6 0.0000 0.0000 0.0000 0.0000 0.0000 45.3323
#
#
#
# Elastic Compliance Matrix: (Units=1/GPa)
#
#
# Indices 1 2 3 4 5 6 
#
# 1 0.024655 -0.008489 -0.001067 0.000000 0.000000 0.000000
# 2 -0.008489 0.011868 -0.001288 0.000000 0.000000 0.000000
# 3 -0.001067 -0.001288 0.004947 0.000000 0.000000 0.000000
# 4 0.000000 0.000000 0.000000 0.023933 0.000000 0.000000
# 5 0.000000 0.000000 0.000000 0.000000 0.112335 0.000000
# 6 0.000000 0.000000 0.000000 0.000000 0.000000 0.022059
#
#
# Mechanical properties :
#
#
# Convention : Reuss Voigt Hill
#
# Bulk Modulus (GPa) = 50.54939 67.32078 58.93508
# Shear Modulus (GPa) = 21.92227 38.32529 30.12378
#
# Velocity S-wave (km/s) = 3.18593 4.21247 3.73464
# Velocity P-wave (km/s) = 6.07769 7.40472 6.77378
#
# Compressibility (1/GPa) = 0.01978263
#
# Stress axis : x y z
#
# Youngs Moduli (GPa) = 40.56013 84.26150 202.12755
#
# Poissons Ratio (x) = 0.71529 0.21567
# Poissons Ratio (y) = 0.34431 0.26029
# Poissons Ratio (z) = 0.04328 0.10851
#
# Static dielectric constant tensor:
#      x y z
#    x 1.819290 0.000000 0.000000 
#    y 0.000000 1.752490 0.000000 
#    z 0.000000 0.000000 1.864720 
# 
# From -- ./inp_files/546.got.cif
#   From: 2010.05.17/outbox.cif.g08.bks.cpg/sg20_1_cif.got.tgz:546.got - 2010.06.03 22:52:26.
