data_PCOD9317282
_publ_section_title
;
Structure prediction by ZEFSAII (Michael W. Deem and Ramdas Pophale) SiO2 
 PCOD9317282
Probable space group: C 2 2 21
;
_chemical_formula_sum "Si O2"
_cell_formula_units_Z 48
_cell_length_a 16.707241
_cell_length_b 7.456635
_cell_length_c 13.826737
_cell_angle_alpha 90.000000
_cell_angle_beta 90.000000
_cell_angle_gamma 90.000000
_cell_volume 1722.532102
_symmetry_space_group_name_H-M "C 2 2 21"
_symmetry_group_IT_number 20
_symmetry_cell_setting 'orthorhombic'
loop_
_space_group_symop_operation_xyz
x,y,z
-x,-y,1/2+z
x,-y,-z
-x,y,1/2-z
1/2+x,1/2+y,z
1/2-x,1/2-y,1/2+z
1/2+x,1/2-y,-z
1/2-x,1/2+y,1/2-z
loop_
_atom_site_type_symbol
_atom_site_label
_atom_site_fract_x
_atom_site_fract_y
_atom_site_fract_z
Si Si1 0.029055 0.289611 0.005284
Si Si2 0.679950 0.186944 0.366441
Si Si3 0.797930 0.284690 0.091949
Si Si4 0.649243 0.829304 0.161118
Si Si5 0.434512 0.611794 0.180170
Si Si6 0.625860 0.249819 0.170806
O O1 0.115558 0.282660 0.056109
O O2 0.974783 0.176350 0.078614
O O3 0.004003 0.500000 0.000000
O O4 0.049059 0.222976 0.897811
O O5 0.687189 0.243067 0.478080
O O6 0.766647 0.235566 0.323573
O O7 0.621543 0.279043 0.287089
O O8 0.662263 0.974717 0.376125
O O9 0.840659 0.113152 0.141504
O O10 0.706262 0.329575 0.122569
O O11 0.584878 0.761462 0.237187
O O12 0.648748 0.040894 0.164876
O O13 0.500000 0.512730 0.250000
#
# Coordination Sequence:
#
# PCOD9317282 Si02
#       6
#     8   8   8   8   8   8
#     4   9  20  32  55  85 117 153 194 246 296 347
#     4  11  21  35  55  92 123 148 200 245 303 339
#     4  11  23  35  58  93 120 154 198 256 288 355
#     4  10  19  36  59  87 114 157 198 246 294 356
#     4  10  20  36  55  86 117 155 198 237 301 355
#     4  11  19  37  59  89 119 155 204 245 297 345
#
# _framework density 27.865955
#
# number of rings (size 3 to 8) (size 9 to 14) (size 15 to 20)
#    0.000    1.667    5.000    0.000    2.333    0.000 
#    0.000    0.833    0.000    0.000   17.333   23.333 
#    0.000    0.000    0.000    0.000    0.000    0.000 
#
# Total GULP energy -133815.686426 kJ/mol
# GULP energy per Si atom -5575.653601 kJ/mol
# Density = 2.780253 g / cm^3
# Si number density = 27.865955 Si / 1000 Ang^3
#
#
#
# Elastic Constant Matrix: (Units=GPa)
#
#
# Indices 1 2 3 4 5 6 
#
# 1 106.5793 5.8315 42.4549 0.0000 0.0000 0.0000
# 2 5.8315 51.2012 25.1941 0.0000 0.0000 0.0000
# 3 42.4549 25.1941 215.8704 0.0000 0.0000 0.0000
# 4 0.0000 0.0000 0.0000 25.4912 0.0000 0.0000
# 5 0.0000 0.0000 0.0000 0.0000 68.9573 0.0000
# 6 0.0000 0.0000 0.0000 0.0000 0.0000 54.7987
#
#
#
# Elastic Compliance Matrix: (Units=1/GPa)
#
#
# Indices 1 2 3 4 5 6 
#
# 1 0.010182 -0.000185 -0.001981 0.000000 0.000000 0.000000
# 2 -0.000185 0.020724 -0.002382 0.000000 0.000000 0.000000
# 3 -0.001981 -0.002382 0.005300 0.000000 0.000000 0.000000
# 4 0.000000 0.000000 0.000000 0.039229 0.000000 0.000000
# 5 0.000000 0.000000 0.000000 0.000000 0.014502 0.000000
# 6 0.000000 0.000000 0.000000 0.000000 0.000000 0.018249
#
#
# Mechanical properties :
#
#
# Convention : Reuss Voigt Hill
#
# Bulk Modulus (GPa) = 36.88716 57.84578 47.36647
# Shear Modulus (GPa) = 39.58253 49.86080 44.72166
#
# Velocity S-wave (km/s) = 3.77299 4.23461 4.01045
# Velocity P-wave (km/s) = 5.67862 6.68677 6.20321
#
# Compressibility (1/GPa) = 0.02710970
#
# Stress axis : x y z
#
# Youngs Moduli (GPa) = 98.21382 48.25303 188.67845
#
# Poissons Ratio (x) = 0.00892 0.37375
# Poissons Ratio (y) = 0.01816 0.44949
# Poissons Ratio (z) = 0.19455 0.11495
#
# Static dielectric constant tensor:
#      x y z
#    x 3.441970 0.000000 0.000000 
#    y 0.000000 2.306630 0.000000 
#    z 0.000000 0.000000 2.168770 
# 
# From -- ./inp_files/21279.got.cif
#   From: 2010.05.17/outbox.cif.g08.bks.cpg/sg20_11_cif.got.tgz:21279.got - 2010.06.03 22:52:26.
