data_PCOD9317470
_publ_section_title
;
Structure prediction by ZEFSAII (Michael W. Deem and Ramdas Pophale) SiO2 
 PCOD9317470
Probable space group: C 2 2 21
;
_chemical_formula_sum "Si O2"
_cell_formula_units_Z 40
_cell_length_a 8.021414
_cell_length_b 17.488346
_cell_length_c 13.793154
_cell_angle_alpha 90.000000
_cell_angle_beta 90.000000
_cell_angle_gamma 90.000000
_cell_volume 1934.921070
_symmetry_space_group_name_H-M "C 2 2 21"
_symmetry_group_IT_number 20
_symmetry_cell_setting 'orthorhombic'
loop_
_space_group_symop_operation_xyz
x,y,z
-x,-y,1/2+z
x,-y,-z
-x,y,1/2-z
1/2+x,1/2+y,z
1/2-x,1/2-y,1/2+z
1/2+x,1/2-y,-z
1/2-x,1/2+y,1/2-z
loop_
_atom_site_type_symbol
_atom_site_label
_atom_site_fract_x
_atom_site_fract_y
_atom_site_fract_z
Si Si1 0.022350 0.190267 0.464614
Si Si2 0.500000 0.869036 0.750000
Si Si3 0.337820 0.428139 0.820119
Si Si4 0.726132 0.000000 0.500000
Si Si5 0.864754 0.663822 0.055772
Si Si6 0.508290 0.574439 0.635135
O O1 0.137683 0.142341 0.392517
O O2 0.070895 0.278196 0.474659
O O3 0.036962 0.147736 0.568384
O O4 0.831692 0.179995 0.431299
O O5 0.665857 0.918499 0.764981
O O6 0.535055 0.821179 0.653834
O O7 0.500000 0.426976 0.750000
O O8 0.350264 0.509368 0.873470
O O9 0.622227 0.925974 0.531409
O O10 0.846864 0.968356 0.413388
O O11 0.500000 0.592553 0.750000
#
# Coordination Sequence:
#
# PCOD9317470 Si02
#       6
#     8   4   8   4   8   8
#     4  11  22  42  66 101 138 180 220 289 343 394
#     4  12  24  40  70  98 134 184 228 272 338 410
#     4  11  20  42  70  97 133 181 225 276 339 401
#     4  10  20  46  68  98 140 176 222 280 340 400
#     4  11  23  42  68  97 136 179 227 280 338 408
#     4  10  19  38  72  95 128 185 223 270 350 403
#
# _framework density 20.672677
#
# number of rings (size 3 to 8) (size 9 to 14) (size 15 to 20)
#    0.000    1.200    6.000    2.400    1.400    0.000 
#    7.200    0.000    2.200    0.000    0.000    0.000 
#    0.000    0.000    0.000    0.000    0.000    0.000 
#
# Total GULP energy -111664.178359 kJ/mol
# GULP energy per Si atom -5583.208918 kJ/mol
# Density = 2.062563 g / cm^3
# Si number density = 20.672677 Si / 1000 Ang^3
#
#
#
# Elastic Constant Matrix: (Units=GPa)
#
#
# Indices 1 2 3 4 5 6 
#
# 1 89.0013 20.9285 22.4031 0.0000 0.0000 0.0000
# 2 20.9285 113.7115 18.0634 0.0000 0.0000 0.0000
# 3 22.4031 18.0634 96.3714 0.0000 0.0000 0.0000
# 4 0.0000 0.0000 0.0000 29.9260 0.0000 0.0000
# 5 0.0000 0.0000 0.0000 0.0000 35.0778 0.0000
# 6 0.0000 0.0000 0.0000 0.0000 0.0000 10.5945
#
#
#
# Elastic Compliance Matrix: (Units=1/GPa)
#
#
# Indices 1 2 3 4 5 6 
#
# 1 0.012307 -0.001866 -0.002511 0.000000 0.000000 0.000000
# 2 -0.001866 0.009347 -0.001318 0.000000 0.000000 0.000000
# 3 -0.002511 -0.001318 0.011207 0.000000 0.000000 0.000000
# 4 0.000000 0.000000 0.000000 0.033416 0.000000 0.000000
# 5 0.000000 0.000000 0.000000 0.000000 0.028508 0.000000
# 6 0.000000 0.000000 0.000000 0.000000 0.000000 0.094389
#
#
# Mechanical properties :
#
#
# Convention : Reuss Voigt Hill
#
# Bulk Modulus (GPa) = 46.57603 46.87492 46.72547
# Shear Modulus (GPa) = 24.07075 30.96561 27.51818
#
# Velocity S-wave (km/s) = 3.41600 3.87447 3.65243
# Velocity P-wave (km/s) = 6.17559 6.53754 6.35914
#
# Compressibility (1/GPa) = 0.02147027
#
# Stress axis : x y z
#
# Youngs Moduli (GPa) = 81.25654 106.98574 89.22729
#
# Poissons Ratio (x) = 0.19965 0.22406
# Poissons Ratio (y) = 0.15164 0.11761
# Poissons Ratio (z) = 0.20404 0.14102
#
# Static dielectric constant tensor:
#      x y z
#    x 1.742920 0.000000 0.000000 
#    y 0.000000 1.754220 0.000000 
#    z 0.000000 0.000000 1.794060 
# 
# From -- ./inp_files/18723.got.cif
#   From: 2010.05.17/outbox.cif.g08.bks.cpg/sg20_10_cif.got.tgz:18723.got - 2010.06.03 22:52:26.
