data_PCOD9317325
_publ_section_title
;
Structure prediction by ZEFSAII (Michael W. Deem and Ramdas Pophale) SiO2 
 PCOD9317325
Probable space group: C 2 2 21
;
_chemical_formula_sum "Si O2"
_cell_formula_units_Z 60
_cell_length_a 17.495860
_cell_length_b 21.875638
_cell_length_c 8.846873
_cell_angle_alpha 90.000000
_cell_angle_beta 90.000000
_cell_angle_gamma 90.000000
_cell_volume 3385.991127
_symmetry_space_group_name_H-M "C 2 2 21"
_symmetry_group_IT_number 20
_symmetry_cell_setting 'orthorhombic'
loop_
_space_group_symop_operation_xyz
x,y,z
-x,-y,1/2+z
x,-y,-z
-x,y,1/2-z
1/2+x,1/2+y,z
1/2-x,1/2-y,1/2+z
1/2+x,1/2-y,-z
1/2-x,1/2+y,1/2-z
loop_
_atom_site_type_symbol
_atom_site_label
_atom_site_fract_x
_atom_site_fract_y
_atom_site_fract_z
Si Si1 0.141782 0.195275 0.574402
Si Si2 0.810534 0.120150 0.225330
Si Si3 0.104405 0.073220 0.993074
Si Si4 0.758250 0.122425 0.711470
Si Si5 0.429823 0.045739 0.136361
Si Si6 0.665397 0.838242 0.566860
Si Si7 0.000000 0.865838 0.250000
Si Si8 0.208305 0.496347 0.837112
O O1 0.157658 0.161184 0.413424
O O2 0.212178 0.175379 0.680859
O O3 0.141036 0.268051 0.564872
O O4 0.067096 0.172320 0.666988
O O5 0.879002 0.102575 0.342028
O O6 0.738358 0.150750 0.318110
O O7 0.773697 0.055775 0.168172
O O8 0.175828 0.098255 0.898606
O O9 0.034013 0.094633 0.889214
O O10 0.106100 0.000000 0.000000
O O11 0.692496 0.144174 0.600960
O O12 0.739426 0.063415 0.808582
O O13 0.500000 0.046418 0.250000
O O14 0.403211 0.114890 0.101455
O O15 0.353203 0.018411 0.210775
O O16 0.448648 0.000000 0.000000
O O17 0.169889 0.500000 0.000000
#
# Coordination Sequence:
#
# PCOD9317325 Si02
#       8
#     8   8   8   8   8   8   4   8
#     4  11  22  40  57  85 125 154 203 233 291 352
#     4  10  21  34  64  90 110 154 194 249 290 338
#     4  10  20  37  58  85 117 147 196 239 296 343
#     4  10  19  36  62  89 115 150 190 251 291 337
#     4  11  23  39  62  88 119 156 192 244 300 359
#     4  10  22  38  64  87 117 154 196 241 297 350
#     4  10  26  38  56  80 120 172 188 240 286 354
#     4  11  19  35  61  93 118 147 194 242 300 341
#
# _framework density 17.720068999999999
#
# number of rings (size 3 to 8) (size 9 to 14) (size 15 to 20)
#    0.000    1.600    4.000    1.200    0.933    1.600 
#    0.000    0.000    2.933    0.000    0.000    0.000 
#    0.000    0.000    0.000    0.000    0.000    0.000 
#
# Total GULP energy -167149.260756 kJ/mol
# GULP energy per Si atom -5571.642025 kJ/mol
# Density = 1.767974 g / cm^3
# Si number density = 17.720069 Si / 1000 Ang^3
#
#
#
# Elastic Constant Matrix: (Units=GPa)
#
#
# Indices 1 2 3 4 5 6 
#
# 1 51.2721 31.6234 37.1463 0.0000 0.0000 0.0000
# 2 31.6234 137.3179 58.5679 0.0000 0.0000 0.0000
# 3 37.1463 58.5679 120.6369 0.0000 0.0000 0.0000
# 4 0.0000 0.0000 0.0000 20.3976 0.0000 0.0000
# 5 0.0000 0.0000 0.0000 0.0000 15.8521 0.0000
# 6 0.0000 0.0000 0.0000 0.0000 0.0000 -8.6489
#
#
#
# Elastic Compliance Matrix: (Units=1/GPa)
#
#
# Indices 1 2 3 4 5 6 
#
# 1 0.026221 -0.003272 -0.006485 0.000000 0.000000 0.000000
# 2 -0.003272 0.009593 -0.003649 0.000000 0.000000 0.000000
# 3 -0.006485 -0.003649 0.012058 0.000000 0.000000 0.000000
# 4 0.000000 0.000000 0.000000 0.049025 0.000000 0.000000
# 5 0.000000 0.000000 0.000000 0.000000 0.063083 0.000000
# 6 0.000000 0.000000 0.000000 0.000000 0.000000 -0.115622
#
#
# Mechanical properties :
#
#
# Convention : Reuss Voigt Hill
#
# Bulk Modulus (GPa) = 47.48975 62.65577 55.07276
# Shear Modulus (GPa) = 63.94671 17.64612 40.79642
#
# Velocity S-wave (km/s) = 6.01378 3.15910 4.80340
# Velocity P-wave (km/s) = 8.66480 6.98154 7.86832
#
# Compressibility (1/GPa) = 0.02105718
#
# Stress axis : x y z
#
# Youngs Moduli (GPa) = 38.13808 104.24793 82.93281
#
# Poissons Ratio (x) = 0.34115 0.53782
# Poissons Ratio (y) = 0.12480 0.30266
# Poissons Ratio (z) = 0.24733 0.38044
#
# Static dielectric constant tensor:
#      x y z
#    x 1.603120 0.000000 0.000000 
#    y 0.000000 1.600500 0.000000 
#    z 0.000000 0.000000 1.644390 
# 
# From -- ./inp_files/9589.got.cif
#   From: 2010.05.17/outbox.cif.g08.bks.cpg/sg20_5_cif.got.tgz:9589.got - 2010.06.03 22:52:26.
