data_PCOD9317180
_publ_section_title
;
Structure prediction by ZEFSAII (Michael W. Deem and Ramdas Pophale) SiO2 
 PCOD9317180
Probable space group: C 2 2 21
;
_chemical_formula_sum "Si O2"
_cell_formula_units_Z 52
_cell_length_a 16.779799
_cell_length_b 17.326279
_cell_length_c 8.587220
_cell_angle_alpha 90.000000
_cell_angle_beta 90.000000
_cell_angle_gamma 90.000000
_cell_volume 2496.575171
_symmetry_space_group_name_H-M "C 2 2 21"
_symmetry_group_IT_number 20
_symmetry_cell_setting 'orthorhombic'
loop_
_space_group_symop_operation_xyz
x,y,z
-x,-y,1/2+z
x,-y,-z
-x,y,1/2-z
1/2+x,1/2+y,z
1/2-x,1/2-y,1/2+z
1/2+x,1/2-y,-z
1/2-x,1/2+y,1/2-z
loop_
_atom_site_type_symbol
_atom_site_label
_atom_site_fract_x
_atom_site_fract_y
_atom_site_fract_z
Si Si1 0.922723 0.411432 0.496825
Si Si2 0.749130 0.451453 0.640809
Si Si3 0.858429 0.766981 0.087614
Si Si4 0.882618 0.296523 0.242530
Si Si5 0.695847 0.334187 0.892124
Si Si6 0.778003 0.109397 0.719662
Si Si7 0.000000 0.691787 0.250000
O O1 0.948895 0.500000 0.500000
O O2 0.831740 0.416599 0.569380
O O3 0.924035 0.367711 0.331368
O O4 0.979307 0.363259 0.607205
O O5 0.710007 0.500000 0.500000
O O6 0.703879 0.386538 0.737569
O O7 0.757866 0.523935 0.758407
O O8 0.779827 0.712640 0.098633
O O9 0.830324 0.852784 0.139655
O O10 0.922441 0.741293 0.214370
O O11 0.899488 0.746447 0.921012
O O12 0.872717 0.228762 0.368552
O O13 0.796135 0.332913 0.214974
O O14 0.682876 0.381734 0.049932
#
# Coordination Sequence:
#
# PCOD9317180 Si02
#       7
#     8   8   8   8   8   8   4
#     4  11  23  39  53  82 120 166 195 244 296 356
#     4  11  19  34  56  85 122 149 191 247 305 347
#     4  10  22  36  58  83 112 162 197 242 292 353
#     4  10  20  36  58  83 116 150 203 250 298 352
#     4  10  20  33  59  87 115 149 195 251 304 349
#     4  10  19  35  58  85 116 149 193 255 304 349
#     4  12  24  40  56  78 124 160 208 230 282 374
#
# _framework density 20.828531999999999
#
# number of rings (size 3 to 8) (size 9 to 14) (size 15 to 20)
#    0.000    1.538    4.615    2.308    4.308    1.846 
#    0.000    0.000    0.000    0.000    0.000   12.923 
#    0.000    0.000    0.000    0.000    0.000    0.000 
#
# Total GULP energy -144741.821145 kJ/mol
# GULP energy per Si atom -5566.993121 kJ/mol
# Density = 2.078113 g / cm^3
# Si number density = 20.828532 Si / 1000 Ang^3
#
#
#
# Elastic Constant Matrix: (Units=GPa)
#
#
# Indices 1 2 3 4 5 6 
#
# 1 31.5573 27.7585 15.5859 0.0000 0.0000 0.0000
# 2 27.7585 90.0581 21.0264 0.0000 0.0000 0.0000
# 3 15.5859 21.0264 84.2938 0.0000 0.0000 0.0000
# 4 0.0000 0.0000 0.0000 34.5403 0.0000 0.0000
# 5 0.0000 0.0000 0.0000 0.0000 10.0035 0.0000
# 6 0.0000 0.0000 0.0000 0.0000 0.0000 2.0107
#
#
#
# Elastic Compliance Matrix: (Units=1/GPa)
#
#
# Indices 1 2 3 4 5 6 
#
# 1 0.045543 -0.012818 -0.005224 0.000000 0.000000 0.000000
# 2 -0.012818 0.015398 -0.001471 0.000000 0.000000 0.000000
# 3 -0.005224 -0.001471 0.013196 0.000000 0.000000 0.000000
# 4 0.000000 0.000000 0.000000 0.028952 0.000000 0.000000
# 5 0.000000 0.000000 0.000000 0.000000 0.099965 0.000000
# 6 0.000000 0.000000 0.000000 0.000000 0.000000 0.497335
#
#
# Mechanical properties :
#
#
# Convention : Reuss Voigt Hill
#
# Bulk Modulus (GPa) = 28.48001 37.18343 32.83172
# Shear Modulus (GPa) = 6.65674 18.74680 12.70177
#
# Velocity S-wave (km/s) = 1.78967 3.00334 2.47214
# Velocity P-wave (km/s) = 4.23955 5.46971 4.89344
#
# Compressibility (1/GPa) = 0.03511235
#
# Stress axis : x y z
#
# Youngs Moduli (GPa) = 21.95711 64.94234 75.78047
#
# Poissons Ratio (x) = 0.83244 0.39585
# Poissons Ratio (y) = 0.28145 0.11147
# Poissons Ratio (z) = 0.11469 0.09552
#
# Static dielectric constant tensor:
#      x y z
#    x 1.738500 0.000000 0.000000 
#    y 0.000000 1.770360 0.000000 
#    z 0.000000 0.000000 1.861540 
# 
# From -- ./inp_files/9535.got.cif
#   From: 2010.05.17/outbox.cif.g08.bks.cpg/sg20_5_cif.got.tgz:9535.got - 2010.06.03 22:52:26.
