data_PCOD9317828
_publ_section_title
;
Structure prediction by ZEFSAII (Michael W. Deem and Ramdas Pophale) SiO2 
 PCOD9317828
Probable space group: C 2 2 21
;
_chemical_formula_sum "Si O2"
_cell_formula_units_Z 32
_cell_length_a 14.389691
_cell_length_b 11.153959
_cell_length_c 8.436136
_cell_angle_alpha 90.000000
_cell_angle_beta 90.000000
_cell_angle_gamma 90.000000
_cell_volume 1354.016898
_symmetry_space_group_name_H-M "C 2 2 21"
_symmetry_group_IT_number 20
_symmetry_cell_setting 'orthorhombic'
loop_
_space_group_symop_operation_xyz
x,y,z
-x,-y,1/2+z
x,-y,-z
-x,y,1/2-z
1/2+x,1/2+y,z
1/2-x,1/2-y,1/2+z
1/2+x,1/2-y,-z
1/2-x,1/2+y,1/2-z
loop_
_atom_site_type_symbol
_atom_site_label
_atom_site_fract_x
_atom_site_fract_y
_atom_site_fract_z
Si Si1 0.262405 0.377312 0.414568
Si Si2 0.536240 0.376438 0.572770
Si Si3 0.037647 0.376638 0.427072
Si Si4 0.257670 0.626095 0.957567
O O1 0.294102 0.500000 0.500000
O O2 0.149739 0.379609 0.423913
O O3 0.284670 0.373675 0.227859
O O4 0.290661 0.252314 0.499447
O O5 0.502740 0.500000 0.500000
O O6 0.500000 0.373808 0.750000
O O7 0.510092 0.249628 0.492773
O O8 0.648371 0.378741 0.562541
O O9 0.004947 0.500000 0.500000
O O10 0.000000 0.373178 0.250000
O O11 0.208094 0.500000 0.000000
#
# Coordination Sequence:
#
# PCOD9317828 Si02
#       4
#     8   8   8   8
#     4  10  20  36  58  84 116 150 189 238 288 342
#     4   9  19  37  56  78 110 146 188 235 283 341
#     4   9  19  35  54  79 109 142 181 225 276 335
#     4  10  20  36  56  83 114 150 191 236 287 340
#
# _framework density 23.633382000000001
#
# number of rings (size 3 to 8) (size 9 to 14) (size 15 to 20)
#    0.000    2.500    0.000    1.500    0.000    2.000 
#    0.000   20.000    0.000    0.000    0.000    0.000 
#    0.000    0.000    0.000    0.000    0.000    0.000 
#
# Total GULP energy -89338.943373 kJ/mol
# GULP energy per Si atom -5583.683961 kJ/mol
# Density = 2.357959 g / cm^3
# Si number density = 23.633382 Si / 1000 Ang^3
#
#
#
# Elastic Constant Matrix: (Units=GPa)
#
#
# Indices 1 2 3 4 5 6 
#
# 1 104.9759 5.7892 -9.0842 0.0000 0.0000 0.0000
# 2 5.7892 301.1619 60.6270 0.0000 0.0000 0.0000
# 3 -9.0842 60.6270 82.2491 0.0000 0.0000 0.0000
# 4 0.0000 0.0000 0.0000 -92.1791 0.0000 0.0000
# 5 0.0000 0.0000 0.0000 0.0000 30.6386 0.0000
# 6 0.0000 0.0000 0.0000 0.0000 0.0000 0.8859
#
#
#
# Elastic Compliance Matrix: (Units=1/GPa)
#
#
# Indices 1 2 3 4 5 6 
#
# 1 0.009674 -0.000471 0.001416 0.000000 0.000000 0.000000
# 2 -0.000471 0.003922 -0.002943 0.000000 0.000000 0.000000
# 3 0.001416 -0.002943 0.014484 0.000000 0.000000 0.000000
# 4 0.000000 0.000000 0.000000 -0.010848 0.000000 0.000000
# 5 0.000000 0.000000 0.000000 0.000000 0.032639 0.000000
# 6 0.000000 0.000000 0.000000 0.000000 0.000000 1.128756
#
#
# Mechanical properties :
#
#
# Convention : Reuss Voigt Hill
#
# Bulk Modulus (GPa) = 41.52167 67.00565 54.26366
# Shear Modulus (GPa) = 4.19938 16.60608 10.40273
#
# Velocity S-wave (km/s) = 1.33445 2.65364 2.10030
# Velocity P-wave (km/s) = 4.47007 6.14839 5.37514
#
# Compressibility (1/GPa) = 0.02408381
#
# Stress axis : x y z
#
# Youngs Moduli (GPa) = 103.36474 254.97356 69.04242
#
# Poissons Ratio (x) = 0.12008 -0.09774
# Poissons Ratio (y) = 0.04868 0.20319
# Poissons Ratio (z) = -0.14633 0.75038
#
# Static dielectric constant tensor:
#      x y z
#    x 2.224660 0.000000 0.000000 
#    y 0.000000 2.020760 0.000000 
#    z 0.000000 0.000000 1.813440 
# 
# From -- ./inp_files/1018.got.cif
#   From: 2010.05.17/outbox.cif.g08.bks.cpg/sg20_1_cif.got.tgz:1018.got - 2010.06.03 22:52:26.
