data_PCOD9317602
_publ_section_title
;
Structure prediction by ZEFSAII (Michael W. Deem and Ramdas Pophale) SiO2 
 PCOD9317602
Probable space group: C 2 2 21
;
_chemical_formula_sum "Si O2"
_cell_formula_units_Z 52
_cell_length_a 14.447955
_cell_length_b 19.220249
_cell_length_c 8.284456
_cell_angle_alpha 90.000000
_cell_angle_beta 90.000000
_cell_angle_gamma 90.000000
_cell_volume 2300.537864
_symmetry_space_group_name_H-M "C 2 2 21"
_symmetry_group_IT_number 20
_symmetry_cell_setting 'orthorhombic'
loop_
_space_group_symop_operation_xyz
x,y,z
-x,-y,1/2+z
x,-y,-z
-x,y,1/2-z
1/2+x,1/2+y,z
1/2-x,1/2-y,1/2+z
1/2+x,1/2-y,-z
1/2-x,1/2+y,1/2-z
loop_
_atom_site_type_symbol
_atom_site_label
_atom_site_fract_x
_atom_site_fract_y
_atom_site_fract_z
Si Si1 0.632680 0.735034 0.756906
Si Si2 0.420144 0.273353 0.596847
Si Si3 0.538115 0.593162 0.416268
Si Si4 0.000000 0.108303 0.750000
Si Si5 0.741983 0.077511 0.054950
Si Si6 0.721045 0.145348 0.399109
Si Si7 0.817664 0.662053 0.763563
O O1 0.585864 0.660881 0.724132
O O2 0.647023 0.791437 0.620192
O O3 0.737979 0.718432 0.801661
O O4 0.582313 0.760473 0.917928
O O5 0.507030 0.325359 0.593823
O O6 0.328147 0.325122 0.603748
O O7 0.403925 0.211450 0.722623
O O8 0.500000 0.563580 0.250000
O O9 0.490898 0.569227 0.582438
O O10 0.646605 0.581621 0.431116
O O11 0.709567 0.100791 0.234494
O O12 0.708987 0.125644 0.905659
O O13 0.715775 0.000000 0.000000
O O14 0.692954 0.114991 0.575365
#
# Coordination Sequence:
#
# PCOD9317602 Si02
#       7
#     8   8   8   4   8   8   8
#     4   9  17  31  55  85 117 141 184 251 316 359
#     4   9  18  33  58  83 112 145 194 261 308 351
#     4  11  22  36  54  82 119 159 198 237 301 358
#     4  10  20  32  52  86 124 144 174 246 306 362
#     4  12  25  41  55  81 128 172 206 240 281 366
#     4  10  20  35  58  83 108 155 203 251 305 349
#     4  10  20  36  57  84 108 152 204 257 304 344
#
# _framework density 22.603411000000001
#
# number of rings (size 3 to 8) (size 9 to 14) (size 15 to 20)
#    0.000    1.846    4.615    0.000    4.308    0.615 
#    1.385    0.000    0.000    0.000    0.000    0.000 
#    6.923    0.000    0.000    0.000    0.000    0.000 
#
# Total GULP energy -144811.302960 kJ/mol
# GULP energy per Si atom -5569.665498 kJ/mol
# Density = 2.255196 g / cm^3
# Si number density = 22.603411 Si / 1000 Ang^3
#
#
#
# Elastic Constant Matrix: (Units=GPa)
#
#
# Indices 1 2 3 4 5 6 
#
# 1 53.8007 23.2770 10.2866 0.0000 0.0000 0.0000
# 2 23.2770 58.9418 44.0673 0.0000 0.0000 0.0000
# 3 10.2866 44.0673 211.7296 0.0000 0.0000 0.0000
# 4 0.0000 0.0000 0.0000 21.6433 0.0000 0.0000
# 5 0.0000 0.0000 0.0000 0.0000 20.1102 0.0000
# 6 0.0000 0.0000 0.0000 0.0000 0.0000 -9.5113
#
#
#
# Elastic Compliance Matrix: (Units=1/GPa)
#
#
# Indices 1 2 3 4 5 6 
#
# 1 0.022561 -0.009581 0.000898 0.000000 0.000000 0.000000
# 2 -0.009581 0.024161 -0.004563 0.000000 0.000000 0.000000
# 3 0.000898 -0.004563 0.005629 0.000000 0.000000 0.000000
# 4 0.000000 0.000000 0.000000 0.046204 0.000000 0.000000
# 5 0.000000 0.000000 0.000000 0.000000 0.049726 0.000000
# 6 0.000000 0.000000 0.000000 0.000000 0.000000 -0.105138
#
#
# Mechanical properties :
#
#
# Convention : Reuss Voigt Hill
#
# Bulk Modulus (GPa) = 38.67173 53.30378 45.98775
# Shear Modulus (GPa) = 63.89459 22.90453 43.39956
#
# Velocity S-wave (km/s) = 5.32250 3.18672 4.38659
# Velocity P-wave (km/s) = 7.41067 6.09702 6.78571
#
# Compressibility (1/GPa) = 0.02585869
#
# Stress axis : x y z
#
# Youngs Moduli (GPa) = 44.32503 41.38870 177.64785
#
# Poissons Ratio (x) = 0.39654 -0.15953
# Poissons Ratio (y) = 0.42467 0.81064
# Poissons Ratio (z) = -0.03980 0.18886
#
# Static dielectric constant tensor:
#      x y z
#    x 1.850490 0.000000 0.000000 
#    y 0.000000 1.862370 0.000000 
#    z 0.000000 0.000000 2.048340 
# 
# From -- ./inp_files/9537.got.cif
#   From: 2010.05.17/outbox.cif.g08.bks.cpg/sg20_5_cif.got.tgz:9537.got - 2010.06.03 22:52:26.
