data_PCOD9317512
_publ_section_title
;
Structure prediction by ZEFSAII (Michael W. Deem and Ramdas Pophale) SiO2 
 PCOD9317512
Probable space group: C 2 2 21
;
_chemical_formula_sum "Si O2"
_cell_formula_units_Z 52
_cell_length_a 12.021024
_cell_length_b 25.787139
_cell_length_c 8.446510
_cell_angle_alpha 90.000000
_cell_angle_beta 90.000000
_cell_angle_gamma 90.000000
_cell_volume 2618.315195
_symmetry_space_group_name_H-M "C 2 2 21"
_symmetry_group_IT_number 20
_symmetry_cell_setting 'orthorhombic'
loop_
_space_group_symop_operation_xyz
x,y,z
-x,-y,1/2+z
x,-y,-z
-x,y,1/2-z
1/2+x,1/2+y,z
1/2-x,1/2-y,1/2+z
1/2+x,1/2-y,-z
1/2-x,1/2+y,1/2-z
loop_
_atom_site_type_symbol
_atom_site_label
_atom_site_fract_x
_atom_site_fract_y
_atom_site_fract_z
Si Si1 0.110687 0.717669 0.408184
Si Si2 0.840860 0.575302 0.687721
Si Si3 0.701305 0.288240 0.146386
Si Si4 0.013075 0.192478 0.066670
Si Si5 0.610851 0.618268 0.646442
Si Si6 0.000000 0.481552 0.750000
Si Si7 0.543264 0.893311 0.505594
O O1 0.179937 0.721564 0.571436
O O2 0.170009 0.737258 0.248880
O O3 0.018047 0.760572 0.447363
O O4 0.069726 0.659092 0.402669
O O5 0.711021 0.576839 0.642272
O O6 0.869543 0.598147 0.861992
O O7 0.900825 0.519126 0.691532
O O8 0.919232 0.608421 0.569429
O O9 0.675796 0.333590 0.271456
O O10 0.639690 0.311265 0.989402
O O11 0.000000 0.203348 0.250000
O O12 0.940087 0.142804 0.013742
O O13 0.500000 0.605002 0.750000
O O14 0.045208 0.443782 0.614860
#
# Coordination Sequence:
#
# PCOD9317512 Si02
#       7
#     8   8   8   8   8   4   8
#     4  11  21  35  56  84 121 167 208 251 309 378
#     4  10  19  40  65  85 123 161 204 259 325 367
#     4  10  21  37  52  82 122 160 209 251 304 370
#     4  10  22  36  54  80 129 161 211 256 298 369
#     4   9  19  38  59  86 117 169 206 245 309 376
#     4  10  22  40  62 100 124 152 208 280 314 370
#     4  10  22  36  62  90 121 154 206 253 325 367
#
# _framework density 19.860098000000001
#
# number of rings (size 3 to 8) (size 9 to 14) (size 15 to 20)
#    0.000    2.154    1.538    4.154    4.308    2.462 
#    2.769    0.000    0.000    3.692    0.000    0.000 
#    0.000    0.000    0.000    0.000    0.000    0.000 
#
# Total GULP energy -144749.826872 kJ/mol
# GULP energy per Si atom -5567.301034 kJ/mol
# Density = 1.981490 g / cm^3
# Si number density = 19.860098 Si / 1000 Ang^3
#
#
#
# Elastic Constant Matrix: (Units=GPa)
#
#
# Indices 1 2 3 4 5 6 
#
# 1 88.2887 38.0209 16.9087 0.0000 0.0000 0.0000
# 2 38.0209 104.2739 34.5969 0.0000 0.0000 0.0000
# 3 16.9087 34.5969 73.3875 0.0000 0.0000 0.0000
# 4 0.0000 0.0000 0.0000 25.8829 0.0000 0.0000
# 5 0.0000 0.0000 0.0000 0.0000 22.8528 0.0000
# 6 0.0000 0.0000 0.0000 0.0000 0.0000 11.1441
#
#
#
# Elastic Compliance Matrix: (Units=1/GPa)
#
#
# Indices 1 2 3 4 5 6 
#
# 1 0.013490 -0.004608 -0.000936 0.000000 0.000000 0.000000
# 2 -0.004608 0.012943 -0.005040 0.000000 0.000000 0.000000
# 3 -0.000936 -0.005040 0.016218 0.000000 0.000000 0.000000
# 4 0.000000 0.000000 0.000000 0.038636 0.000000 0.000000
# 5 0.000000 0.000000 0.000000 0.000000 0.043758 0.000000
# 6 0.000000 0.000000 0.000000 0.000000 0.000000 0.089734
#
#
# Mechanical properties :
#
#
# Convention : Reuss Voigt Hill
#
# Bulk Modulus (GPa) = 46.54847 49.44481 47.99664
# Shear Modulus (GPa) = 20.56711 23.73753 22.15232
#
# Velocity S-wave (km/s) = 3.22156 3.46097 3.34341
# Velocity P-wave (km/s) = 6.10959 6.39701 6.25495
#
# Compressibility (1/GPa) = 0.02148298
#
# Stress axis : x y z
#
# Youngs Moduli (GPa) = 74.12755 77.26424 61.66092
#
# Poissons Ratio (x) = 0.35607 0.05769
# Poissons Ratio (y) = 0.34161 0.31075
# Poissons Ratio (z) = 0.06936 0.38939
#
# Static dielectric constant tensor:
#      x y z
#    x 1.791720 0.000000 0.000000 
#    y 0.000000 1.718900 0.000000 
#    z 0.000000 0.000000 1.753090 
# 
# From -- ./inp_files/7512.got.cif
#   From: 2010.05.17/outbox.cif.g08.bks.cpg/sg20_4_cif.got.tgz:7512.got - 2010.06.03 22:52:26.
