data_PCOD9317058
_publ_section_title
;
Structure prediction by ZEFSAII (Michael W. Deem and Ramdas Pophale) SiO2 
 PCOD9317058
Probable space group: C 2 2 21
;
_chemical_formula_sum "Si O2"
_cell_formula_units_Z 56
_cell_length_a 17.710502
_cell_length_b 14.786749
_cell_length_c 11.476088
_cell_angle_alpha 90.000000
_cell_angle_beta 90.000000
_cell_angle_gamma 90.000000
_cell_volume 3005.366507
_symmetry_space_group_name_H-M "C 2 2 21"
_symmetry_group_IT_number 20
_symmetry_cell_setting 'orthorhombic'
loop_
_space_group_symop_operation_xyz
x,y,z
-x,-y,1/2+z
x,-y,-z
-x,y,1/2-z
1/2+x,1/2+y,z
1/2-x,1/2-y,1/2+z
1/2+x,1/2-y,-z
1/2-x,1/2+y,1/2-z
loop_
_atom_site_type_symbol
_atom_site_label
_atom_site_fract_x
_atom_site_fract_y
_atom_site_fract_z
Si Si1 0.667615 0.836133 0.089830
Si Si2 0.451851 0.992839 0.364138
Si Si3 0.666552 0.340078 0.317389
Si Si4 0.930111 0.825087 0.670905
Si Si5 0.104227 0.694162 0.160866
Si Si6 0.620603 0.514619 0.864619
Si Si7 0.004069 0.148817 0.580568
O O1 0.754926 0.846966 0.117337
O O2 0.629654 0.754839 0.161867
O O3 0.618507 0.925310 0.117269
O O4 0.653826 0.808491 0.956179
O O5 0.500000 0.960523 0.250000
O O6 0.424842 0.092659 0.326295
O O7 0.484964 0.000000 0.500000
O O8 0.651768 0.240762 0.262892
O O9 0.666442 0.412223 0.210539
O O10 0.592581 0.357310 0.396796
O O11 0.000000 0.799948 0.750000
O O12 0.972739 0.843843 0.549157
O O13 0.887402 0.918588 0.697902
O O14 0.034051 0.762381 0.138340
O O15 0.537965 0.560641 0.870599
O O16 0.646007 0.500000 0.000000
#
# Coordination Sequence:
#
# PCOD9317058 Si02
#       7
#     8   8   8   8   8   8   8
#     4  10  23  35  50  82 118 141 175 238 284 315
#     4  10  20  39  61  81 109 148 191 233 275 324
#     4  11  20  35  57  82 111 142 180 223 279 338
#     4  10  19  34  52  75 110 147 179 218 270 325
#     4   9  19  38  58  76 105 145 187 231 273 323
#     4   9  18  34  55  78 104 138 180 226 269 322
#     4   9  18  33  57  82 100 135 189 227 262 325
#
# _framework density 18.633334000000001
#
# number of rings (size 3 to 8) (size 9 to 14) (size 15 to 20)
#    0.000    2.286    0.000    4.714    0.000    2.286 
#    0.000   11.429    0.000    0.000    0.000    0.000 
#    0.000    0.000    0.000    0.000    0.000    0.000 
#
# Total GULP energy -155987.945382 kJ/mol
# GULP energy per Si atom -5570.998049 kJ/mol
# Density = 1.859092 g / cm^3
# Si number density = 18.633334 Si / 1000 Ang^3
#
#
#
# Elastic Constant Matrix: (Units=GPa)
#
#
# Indices 1 2 3 4 5 6 
#
# 1 96.2139 11.8942 33.3199 0.0000 0.0000 0.0000
# 2 11.8942 95.3819 -5.2787 0.0000 0.0000 0.0000
# 3 33.3199 -5.2787 57.9655 0.0000 0.0000 0.0000
# 4 0.0000 0.0000 0.0000 2.2144 0.0000 0.0000
# 5 0.0000 0.0000 0.0000 0.0000 25.8761 0.0000
# 6 0.0000 0.0000 0.0000 0.0000 0.0000 3.7472
#
#
#
# Elastic Compliance Matrix: (Units=1/GPa)
#
#
# Indices 1 2 3 4 5 6 
#
# 1 0.013385 -0.002105 -0.007886 0.000000 0.000000 0.000000
# 2 -0.002105 0.010868 0.002200 0.000000 0.000000 0.000000
# 3 -0.007886 0.002200 0.021985 0.000000 0.000000 0.000000
# 4 0.000000 0.000000 0.000000 0.451580 0.000000 0.000000
# 5 0.000000 0.000000 0.000000 0.000000 0.038646 0.000000
# 6 0.000000 0.000000 0.000000 0.000000 0.000000 0.266866
#
#
# Mechanical properties :
#
#
# Convention : Reuss Voigt Hill
#
# Bulk Modulus (GPa) = 32.62014 36.60359 34.61186
# Shear Modulus (GPa) = 6.03041 20.34261 13.18651
#
# Velocity S-wave (km/s) = 1.80094 3.30772 2.66312
# Velocity P-wave (km/s) = 4.67641 5.85447 5.29829
#
# Compressibility (1/GPa) = 0.03065591
#
# Stress axis : x y z
#
# Youngs Moduli (GPa) = 74.71246 92.00919 45.48600
#
# Poissons Ratio (x) = 0.19372 0.35868
# Poissons Ratio (y) = 0.15731 -0.10007
# Poissons Ratio (z) = 0.58915 -0.20242
#
# Static dielectric constant tensor:
#      x y z
#    x 1.607350 0.000000 0.000000 
#    y 0.000000 1.669800 0.000000 
#    z 0.000000 0.000000 1.788500 
# 
# From -- ./inp_files/15155.got.cif
#   From: 2010.05.17/outbox.cif.g08.bks.cpg/sg20_8_cif.got.tgz:15155.got - 2010.06.03 22:52:26.
