data_PCOD9317284
_publ_section_title
;
Structure prediction by ZEFSAII (Michael W. Deem and Ramdas Pophale) SiO2 
 PCOD9317284
Probable space group: C 2 2 21
;
_chemical_formula_sum "Si O2"
_cell_formula_units_Z 48
_cell_length_a 5.316290
_cell_length_b 24.897060
_cell_length_c 16.589965
_cell_angle_alpha 90.000000
_cell_angle_beta 90.000000
_cell_angle_gamma 90.000000
_cell_volume 2195.847620
_symmetry_space_group_name_H-M "C 2 2 21"
_symmetry_group_IT_number 20
_symmetry_cell_setting 'orthorhombic'
loop_
_space_group_symop_operation_xyz
x,y,z
-x,-y,1/2+z
x,-y,-z
-x,y,1/2-z
1/2+x,1/2+y,z
1/2-x,1/2-y,1/2+z
1/2+x,1/2-y,-z
1/2-x,1/2+y,1/2-z
loop_
_atom_site_type_symbol
_atom_site_label
_atom_site_fract_x
_atom_site_fract_y
_atom_site_fract_z
Si Si1 0.466076 0.185971 0.574380
Si Si2 0.864257 0.437298 0.979945
Si Si3 0.532517 0.362927 0.155149
Si Si4 0.871262 0.942056 0.042991
Si Si5 0.034058 0.349061 0.887414
Si Si6 0.032951 0.794149 0.838164
O O1 0.703298 0.159511 0.622079
O O2 0.479990 0.174708 0.478764
O O3 0.484879 0.249210 0.593409
O O4 0.195761 0.167973 0.610562
O O5 0.084680 0.422811 0.042844
O O6 0.584350 0.413332 0.988048
O O7 0.825359 0.500000 0.000000
O O8 0.982069 0.413021 0.899101
O O9 0.500000 0.356524 0.250000
O O10 0.489655 0.425905 0.128646
O O11 0.843269 0.000000 0.000000
O O12 0.302106 0.334916 0.850995
O O13 0.802172 0.322720 0.841326
O O14 0.000000 0.768080 0.750000
#
# Coordination Sequence:
#
# PCOD9317284 Si02
#       6
#     8   8   8   8   8   8
#     4  12  24  42  64  97 125 172 217 265 310 384
#     4  10  20  37  66  93 116 159 213 262 306 367
#     4  12  22  37  62  95 133 167 208 274 335 371
#     4  10  19  36  59  89 123 162 213 256 321 381
#     4  12  22  42  69  95 123 166 227 257 305 390
#     4  12  26  42  62  95 137 172 206 263 320 369
#
# _framework density 21.859441
#
# number of rings (size 3 to 8) (size 9 to 14) (size 15 to 20)
#    0.000    0.667    3.333    6.000    0.000    0.000 
#    0.000    0.000    0.000   24.000    0.000    0.000 
#    0.000    0.000    0.000    0.000    0.000    0.000 
#
# Total GULP energy -133631.455993 kJ/mol
# GULP energy per Si atom -5567.977333 kJ/mol
# Density = 2.180969 g / cm^3
# Si number density = 21.859441 Si / 1000 Ang^3
#
#
#
# Elastic Constant Matrix: (Units=GPa)
#
#
# Indices 1 2 3 4 5 6 
#
# 1 177.1544 10.6196 13.8377 0.0000 0.0000 0.0000
# 2 10.6196 65.6438 -9.7925 0.0000 0.0000 0.0000
# 3 13.8377 -9.7925 55.4592 0.0000 0.0000 0.0000
# 4 0.0000 0.0000 0.0000 22.7318 0.0000 0.0000
# 5 0.0000 0.0000 0.0000 0.0000 27.5845 0.0000
# 6 0.0000 0.0000 0.0000 0.0000 0.0000 7.2102
#
#
#
# Elastic Compliance Matrix: (Units=1/GPa)
#
#
# Indices 1 2 3 4 5 6 
#
# 1 0.005847 -0.001195 -0.001670 0.000000 0.000000 0.000000
# 2 -0.001195 0.015890 0.003104 0.000000 0.000000 0.000000
# 3 -0.001670 0.003104 0.018996 0.000000 0.000000 0.000000
# 4 0.000000 0.000000 0.000000 0.043991 0.000000 0.000000
# 5 0.000000 0.000000 0.000000 0.000000 0.036252 0.000000
# 6 0.000000 0.000000 0.000000 0.000000 0.000000 0.138692
#
#
# Mechanical properties :
#
#
# Convention : Reuss Voigt Hill
#
# Bulk Modulus (GPa) = 24.26533 36.39854 30.33193
# Shear Modulus (GPa) = 18.31988 30.41147 24.36567
#
# Velocity S-wave (km/s) = 2.89810 3.73396 3.34226
# Velocity P-wave (km/s) = 4.72476 5.93947 5.36659
#
# Compressibility (1/GPa) = 0.04121107
#
# Stress axis : x y z
#
# Youngs Moduli (GPa) = 171.03188 62.93231 52.64268
#
# Poissons Ratio (x) = 0.07520 0.08791
# Poissons Ratio (y) = 0.20438 -0.16340
# Poissons Ratio (z) = 0.28560 -0.19534
#
# Static dielectric constant tensor:
#      x y z
#    x 1.838300 0.000000 0.000000 
#    y 0.000000 2.486500 0.000000 
#    z 0.000000 0.000000 1.789880 
# 
# From -- ./inp_files/22858.got.cif
#   From: 2010.05.17/outbox.cif.g08.bks.cpg/sg20_12_cif.got.tgz:22858.got - 2010.06.03 22:52:26.
