data_PCOD9317620
_publ_section_title
;
Structure prediction by ZEFSAII (Michael W. Deem and Ramdas Pophale) SiO2 
 PCOD9317620
Probable space group: C 2 2 21
;
_chemical_formula_sum "Si O2"
_cell_formula_units_Z 64
_cell_length_a 22.964304
_cell_length_b 9.199583
_cell_length_c 18.017745
_cell_angle_alpha 90.000000
_cell_angle_beta 90.000000
_cell_angle_gamma 90.000000
_cell_volume 3806.465217
_symmetry_space_group_name_H-M "C 2 2 21"
_symmetry_group_IT_number 20
_symmetry_cell_setting 'orthorhombic'
loop_
_space_group_symop_operation_xyz
x,y,z
-x,-y,1/2+z
x,-y,-z
-x,y,1/2-z
1/2+x,1/2+y,z
1/2-x,1/2-y,1/2+z
1/2+x,1/2-y,-z
1/2-x,1/2+y,1/2-z
loop_
_atom_site_type_symbol
_atom_site_label
_atom_site_fract_x
_atom_site_fract_y
_atom_site_fract_z
Si Si1 0.108357 0.924987 0.575415
Si Si2 0.769006 0.084687 0.138131
Si Si3 0.891643 0.575013 0.924584
Si Si4 0.667311 0.084432 0.799385
Si Si5 0.332689 0.584432 0.299385
Si Si6 0.730994 0.084687 0.638131
Si Si7 0.566224 0.420853 0.276423
Si Si8 0.566224 0.920853 0.723577
O O1 0.177289 0.958992 0.586231
O O2 0.102367 0.750000 0.574328
O O3 0.087685 0.000000 0.500000
O O4 0.076990 0.992033 0.647317
O O5 0.798576 0.086184 0.220207
O O6 0.751369 0.250000 0.121204
O O7 0.713156 0.982280 0.142803
O O8 0.822711 0.541008 0.913769
O O9 0.923010 0.507967 0.852683
O O10 0.912315 0.500000 0.000000
O O11 0.651513 0.250000 0.817162
O O12 0.701424 0.086183 0.720207
O O13 0.610948 0.986773 0.783812
O O14 0.286844 0.517721 0.357197
O O15 0.389052 0.486774 0.283812
O O16 0.500000 0.435789 0.250000
O O17 0.579264 0.250000 0.287774
O O18 0.500000 0.935789 0.750000
#
# Coordination Sequence:
#
# PCOD9317620 Si02
#       8
#     8   8   8   8   8   8   8   8
#     4  10  20  33  51  74 100 130 163 204 253 303
#     4   8  15  27  43  66  94 122 151 186 233 287
#     4  10  20  33  51  74 100 130 163 204 253 303
#     4   9  16  26  44  69  94 121 153 193 238 281
#     4   9  16  26  44  69  94 121 153 193 238 281
#     4   8  15  27  43  66  94 122 151 186 233 287
#     4  10  20  33  50  72  99 133 172 212 251 294
#     4  10  20  33  50  72  99 133 172 212 251 294
#
# _framework density 16.813500999999999
#
# number of rings (size 3 to 8) (size 9 to 14) (size 15 to 20)
#    0.000    2.750    0.000    3.750    0.000    9.000 
#    0.000    0.000    0.000    1.500    0.000    7.000 
#    0.000    0.000    0.000    0.000    0.000    0.000 
#
# Total GULP energy -178261.325104 kJ/mol
# GULP energy per Si atom -5570.666410 kJ/mol
# Density = 1.677523 g / cm^3
# Si number density = 16.813501 Si / 1000 Ang^3
#
#
#
# Elastic Constant Matrix: (Units=GPa)
#
#
# Indices 1 2 3 4 5 6 
#
# 1 76.3022 64.7331 20.9955 0.0000 0.0000 0.0000
# 2 64.7331 107.5146 36.1925 0.0000 0.0000 0.0000
# 3 20.9955 36.1925 48.3556 0.0000 0.0000 0.0000
# 4 0.0000 0.0000 0.0000 16.6844 0.0000 0.0000
# 5 0.0000 0.0000 0.0000 0.0000 13.1941 0.0000
# 6 0.0000 0.0000 0.0000 0.0000 0.0000 28.1821
#
#
#
# Elastic Compliance Matrix: (Units=1/GPa)
#
#
# Indices 1 2 3 4 5 6 
#
# 1 0.026803 -0.016336 0.000589 0.000000 0.000000 0.000000
# 2 -0.016336 0.022390 -0.009666 0.000000 0.000000 0.000000
# 3 0.000589 -0.009666 0.027659 0.000000 0.000000 0.000000
# 4 0.000000 0.000000 0.000000 0.059936 0.000000 0.000000
# 5 0.000000 0.000000 0.000000 0.000000 0.075791 0.000000
# 6 0.000000 0.000000 0.000000 0.000000 0.000000 0.035484
#
#
# Mechanical properties :
#
#
# Convention : Reuss Voigt Hill
#
# Bulk Modulus (GPa) = 38.42088 52.89049 45.65568
# Shear Modulus (GPa) = 16.25687 18.96222 17.60954
#
# Velocity S-wave (km/s) = 3.11286 3.36191 3.23978
# Velocity P-wave (km/s) = 5.98504 6.82608 6.41935
#
# Compressibility (1/GPa) = 0.02602752
#
# Stress axis : x y z
#
# Youngs Moduli (GPa) = 37.30981 44.66198 36.15519
#
# Poissons Ratio (x) = 0.72959 -0.02131
# Poissons Ratio (y) = 0.60949 0.34946
# Poissons Ratio (z) = -0.02199 0.43168
#
# Static dielectric constant tensor:
#      x y z
#    x 1.559510 0.000000 0.000000 
#    y 0.000000 1.571550 0.000000 
#    z 0.000000 0.000000 1.574940 
# 
# From -- ./inp_files/25639.got.cif
#   From: 2010.05.17/outbox.cif.g08.bks.cpg/sg20_13_cif.got.tgz:25639.got - 2010.06.03 22:52:26.
