data_PCOD9317610
_publ_section_title
;
Structure prediction by ZEFSAII (Michael W. Deem and Ramdas Pophale) SiO2 
 PCOD9317610
Probable space group: C 2 2 21
;
_chemical_formula_sum "Si O2"
_cell_formula_units_Z 56
_cell_length_a 8.854935
_cell_length_b 18.701352
_cell_length_c 15.857109
_cell_angle_alpha 90.000000
_cell_angle_beta 90.000000
_cell_angle_gamma 90.000000
_cell_volume 2625.925459
_symmetry_space_group_name_H-M "C 2 2 21"
_symmetry_group_IT_number 20
_symmetry_cell_setting 'orthorhombic'
loop_
_space_group_symop_operation_xyz
x,y,z
-x,-y,1/2+z
x,-y,-z
-x,y,1/2-z
1/2+x,1/2+y,z
1/2-x,1/2-y,1/2+z
1/2+x,1/2-y,-z
1/2-x,1/2+y,1/2-z
loop_
_atom_site_type_symbol
_atom_site_label
_atom_site_fract_x
_atom_site_fract_y
_atom_site_fract_z
Si Si1 0.675348 0.237402 0.251051
Si Si2 0.144432 0.796377 0.912611
Si Si3 0.824574 0.599444 0.471604
Si Si4 0.335806 0.459766 0.631797
Si Si5 0.580101 0.000000 0.500000
Si Si6 0.199679 0.252646 0.428043
Si Si7 0.336800 0.934530 0.718188
Si Si8 0.430753 0.500000 0.000000
O O1 0.500000 0.260056 0.250000
O O2 0.762879 0.246744 0.339993
O O3 0.756860 0.269688 0.168545
O O4 0.673577 0.150820 0.237840
O O5 0.122641 0.876258 0.877863
O O6 0.978423 0.764496 0.930083
O O7 0.245036 0.804115 0.997299
O O8 0.971889 0.568596 0.517159
O O9 0.798812 0.682119 0.453342
O O10 0.828394 0.560114 0.380988
O O11 0.673662 0.568870 0.511294
O O12 0.294466 0.472007 0.728733
O O13 0.467412 0.498583 0.582874
O O14 0.186061 0.478156 0.577800
O O15 0.500000 0.958878 0.750000
#
# Coordination Sequence:
#
# PCOD9317610 Si02
#       8
#     8   8   8   8   4   8   8   4
#     4   9  19  35  57  84 115 142 188 244 284 330
#     4  11  22  36  59  87 116 151 192 235 288 341
#     4  10  20  35  56  83 111 145 186 230 283 326
#     4  10  20  35  56  83 111 145 186 230 283 326
#     4  10  20  32  58  78 112 148 178 232 270 348
#     4  11  22  36  59  87 116 151 192 235 288 341
#     4   9  16  30  54  81 106 135 185 233 271 313
#     4  10  20  36  50  82 112 144 178 228 278 328
#
# _framework density 21.325814999999999
#
# number of rings (size 3 to 8) (size 9 to 14) (size 15 to 20)
#    0.000    2.000    2.857    1.286    4.000    0.571 
#    0.000    0.000    0.000   10.286    0.000    0.000 
#    0.000    0.000    0.000    0.000    0.000    0.000 
#
# Total GULP energy -156194.680783 kJ/mol
# GULP energy per Si atom -5578.381457 kJ/mol
# Density = 2.127728 g / cm^3
# Si number density = 21.325815 Si / 1000 Ang^3
#
#
#
# Elastic Constant Matrix: (Units=GPa)
#
#
# Indices 1 2 3 4 5 6 
#
# 1 125.9359 -2.0516 36.9992 0.0000 0.0000 0.0000
# 2 -2.0516 4.0710 -6.4933 0.0000 0.0000 0.0000
# 3 36.9992 -6.4933 80.4884 0.0000 0.0000 0.0000
# 4 0.0000 0.0000 0.0000 23.8619 0.0000 0.0000
# 5 0.0000 0.0000 0.0000 0.0000 33.2604 0.0000
# 6 0.0000 0.0000 0.0000 0.0000 0.0000 19.8989
#
#
#
# Elastic Compliance Matrix: (Units=1/GPa)
#
#
# Indices 1 2 3 4 5 6 
#
# 1 0.009201 -0.002421 -0.004425 0.000000 0.000000 0.000000
# 2 -0.002421 0.282554 0.023907 0.000000 0.000000 0.000000
# 3 -0.004425 0.023907 0.016387 0.000000 0.000000 0.000000
# 4 0.000000 0.000000 0.000000 0.041908 0.000000 0.000000
# 5 0.000000 0.000000 0.000000 0.000000 0.030066 0.000000
# 6 0.000000 0.000000 0.000000 0.000000 0.000000 0.050254
#
#
# Mechanical properties :
#
#
# Convention : Reuss Voigt Hill
#
# Bulk Modulus (GPa) = 2.92171 29.71156 16.31663
# Shear Modulus (GPa) = 9.79749 27.54030 18.66889
#
# Velocity S-wave (km/s) = 2.14573 3.59751 2.96195
# Velocity P-wave (km/s) = 2.74078 5.58736 4.40060
#
# Compressibility (1/GPa) = 0.34226548
#
# Stress axis : x y z
#
# Youngs Moduli (GPa) = 108.68244 3.53914 61.02435
#
# Poissons Ratio (x) = 0.00857 0.27003
# Poissons Ratio (y) = 0.26311 -1.45894
# Poissons Ratio (z) = 0.48091 -0.08461
#
# Static dielectric constant tensor:
#      x y z
#    x 1.800990 0.000000 0.000000 
#    y 0.000000 1.813210 0.000000 
#    z 0.000000 0.000000 1.794730 
# 
# From -- ./inp_files/23964.got.cif
#   From: 2010.05.17/outbox.cif.g08.bks.cpg/sg20_12_cif.got.tgz:23964.got - 2010.06.03 22:52:26.
