data_PCOD9317367
_publ_section_title
;
Structure prediction by ZEFSAII (Michael W. Deem and Ramdas Pophale) SiO2 
 PCOD9317367
Probable space group: C 2 2 21
;
_chemical_formula_sum "Si O2"
_cell_formula_units_Z 56
_cell_length_a 17.050843
_cell_length_b 9.673277
_cell_length_c 17.690676
_cell_angle_alpha 90.000000
_cell_angle_beta 90.000000
_cell_angle_gamma 90.000000
_cell_volume 2917.856358
_symmetry_space_group_name_H-M "C 2 2 21"
_symmetry_group_IT_number 20
_symmetry_cell_setting 'orthorhombic'
loop_
_space_group_symop_operation_xyz
x,y,z
-x,-y,1/2+z
x,-y,-z
-x,y,1/2-z
1/2+x,1/2+y,z
1/2-x,1/2-y,1/2+z
1/2+x,1/2-y,-z
1/2-x,1/2+y,1/2-z
loop_
_atom_site_type_symbol
_atom_site_label
_atom_site_fract_x
_atom_site_fract_y
_atom_site_fract_z
Si Si1 0.650931 0.297941 0.312137
Si Si2 0.090598 0.292439 0.384600
Si Si3 0.331520 0.207711 0.648401
Si Si4 0.563618 0.343338 0.469024
Si Si5 0.593870 0.994245 0.738186
Si Si6 0.092528 0.070595 0.253083
Si Si7 0.060423 0.342915 0.027551
O O1 0.740248 0.275290 0.336015
O O2 0.601107 0.332136 0.387380
O O3 0.617092 0.163872 0.270880
O O4 0.641612 0.431928 0.260093
O O5 0.118778 0.426764 0.339619
O O6 0.103083 0.166775 0.327197
O O7 0.998854 0.322760 0.401336
O O8 0.614563 0.743788 0.468622
O O9 0.377569 0.337420 0.683982
O O10 0.355082 0.190887 0.560984
O O11 0.361797 0.072635 0.694207
O O12 0.556675 0.500000 0.500000
O O13 0.479153 0.265236 0.469840
O O14 0.500000 0.009021 0.750000
O O15 0.000000 0.039469 0.250000
O O16 0.055019 0.500000 0.000000
#
# Coordination Sequence:
#
# PCOD9317367 Si02
#       7
#     8   8   8   8   8   8   8
#     4  12  24  34  60  94 123 145 196 260 295 337
#     4   9  18  36  62  81 108 155 199 237 282 345
#     4  11  23  40  58  87 124 157 189 248 311 348
#     4  10  20  37  60  84 117 155 201 240 291 362
#     4  11  20  38  63  89 114 156 206 234 285 365
#     4  11  19  40  62  81 116 163 198 232 295 366
#     4  10  19  37  61  83 110 157 204 235 282 357
#
# _framework density 19.192170999999998
#
# number of rings (size 3 to 8) (size 9 to 14) (size 15 to 20)
#    0.857    0.571    4.286    3.000    0.000    0.571 
#    0.000    0.000    3.143    0.000    0.000    0.000 
#    0.000    0.000    0.000    0.000    0.000    0.000 
#
# Total GULP energy -156029.105238 kJ/mol
# GULP energy per Si atom -5572.468044 kJ/mol
# Density = 1.914849 g / cm^3
# Si number density = 19.192171 Si / 1000 Ang^3
#
#
#
# Elastic Constant Matrix: (Units=GPa)
#
#
# Indices 1 2 3 4 5 6 
#
# 1 70.8857 15.0702 8.0560 0.0000 0.0000 0.0000
# 2 15.0702 92.3610 26.5892 0.0000 0.0000 0.0000
# 3 8.0560 26.5892 41.3851 0.0000 0.0000 0.0000
# 4 0.0000 0.0000 0.0000 12.8699 0.0000 0.0000
# 5 0.0000 0.0000 0.0000 0.0000 14.7408 0.0000
# 6 0.0000 0.0000 0.0000 0.0000 0.0000 20.9227
#
#
#
# Elastic Compliance Matrix: (Units=1/GPa)
#
#
# Indices 1 2 3 4 5 6 
#
# 1 0.014702 -0.001932 -0.001620 0.000000 0.000000 0.000000
# 2 -0.001932 0.013538 -0.008322 0.000000 0.000000 0.000000
# 3 -0.001620 -0.008322 0.029825 0.000000 0.000000 0.000000
# 4 0.000000 0.000000 0.000000 0.077701 0.000000 0.000000
# 5 0.000000 0.000000 0.000000 0.000000 0.067839 0.000000
# 6 0.000000 0.000000 0.000000 0.000000 0.000000 0.047795
#
#
# Mechanical properties :
#
#
# Convention : Reuss Voigt Hill
#
# Bulk Modulus (GPa) = 29.14059 33.78472 31.46265
# Shear Modulus (GPa) = 17.44663 20.03444 18.74053
#
# Velocity S-wave (km/s) = 3.01832 3.23443 3.12824
# Velocity P-wave (km/s) = 5.23101 5.62052 5.42926
#
# Compressibility (1/GPa) = 0.03431640
#
# Stress axis : x y z
#
# Youngs Moduli (GPa) = 68.01701 73.86563 33.52856
#
# Poissons Ratio (x) = 0.14274 0.05433
# Poissons Ratio (y) = 0.13144 0.27902
# Poissons Ratio (z) = 0.11021 0.61470
#
# Static dielectric constant tensor:
#      x y z
#    x 1.660770 0.000000 0.000000 
#    y 0.000000 1.665760 0.000000 
#    z 0.000000 0.000000 1.646660 
# 
# From -- ./inp_files/27568.got.cif
#   From: 2010.05.17/outbox.cif.g08.bks.cpg/sg20_14_cif.got.tgz:27568.got - 2010.06.03 22:52:26.
