data_PCOD9317334
_publ_section_title
;
Structure prediction by ZEFSAII (Michael W. Deem and Ramdas Pophale) SiO2 
 PCOD9317334
Probable space group: C 2 2 21
;
_chemical_formula_sum "Si O2"
_cell_formula_units_Z 64
_cell_length_a 20.165122
_cell_length_b 17.306003
_cell_length_c 8.483941
_cell_angle_alpha 90.000000
_cell_angle_beta 90.000000
_cell_angle_gamma 90.000000
_cell_volume 2960.705893
_symmetry_space_group_name_H-M "C 2 2 21"
_symmetry_group_IT_number 20
_symmetry_cell_setting 'orthorhombic'
loop_
_space_group_symop_operation_xyz
x,y,z
-x,-y,1/2+z
x,-y,-z
-x,y,1/2-z
1/2+x,1/2+y,z
1/2-x,1/2-y,1/2+z
1/2+x,1/2-y,-z
1/2-x,1/2+y,1/2-z
loop_
_atom_site_type_symbol
_atom_site_label
_atom_site_fract_x
_atom_site_fract_y
_atom_site_fract_z
Si Si1 0.452951 0.652149 0.402069
Si Si2 0.824504 0.341232 0.749020
Si Si3 0.057861 0.445501 0.855791
Si Si4 0.309372 0.822816 0.376460
Si Si5 0.451225 0.170017 0.605430
Si Si6 0.820001 0.149371 0.253754
Si Si7 0.951275 0.940022 0.126642
Si Si8 0.664163 0.331376 0.380781
O O1 0.500000 0.655393 0.250000
O O2 0.440682 0.741503 0.445235
O O3 0.382015 0.616856 0.352082
O O4 0.495445 0.612221 0.535254
O O5 0.882781 0.404688 0.739971
O O6 0.811338 0.316396 0.566579
O O7 0.753809 0.380081 0.793481
O O8 0.840796 0.261111 0.842671
O O9 0.000000 0.482079 0.750000
O O10 0.080697 0.500000 0.000000
O O11 0.024362 0.375570 0.953792
O O12 0.379346 0.861634 0.337825
O O13 0.312373 0.739279 0.298630
O O14 0.238305 0.856823 0.329816
O O15 0.500000 0.167231 0.750000
O O16 0.838462 0.151313 0.068683
O O17 0.893763 0.884130 0.190922
O O18 0.000000 0.981993 0.250000
O O19 0.922718 0.000000 0.000000
#
# Coordination Sequence:
#
# PCOD9317334 Si02
#       8
#     8   8   8   8   8   8   8   8
#     4  10  19  36  64  92 124 157 213 256 315 369
#     4   9  20  36  61  94 120 159 215 260 307 381
#     4  11  24  39  59  83 128 164 206 259 323 377
#     4   8  17  34  56  92 127 154 199 269 316 356
#     4   9  19  34  62  94 122 161 205 259 309 373
#     4   9  17  34  61  90 130 155 193 275 322 353
#     4  12  28  42  61  86 131 174 219 263 321 382
#     4  10  20  36  61  90 120 162 212 257 312 369
#
# _framework density 21.616465999999999
#
# number of rings (size 3 to 8) (size 9 to 14) (size 15 to 20)
#    0.000    2.250    1.250    0.750    7.000    0.000 
#    0.000    5.625    0.000    0.750    0.000    0.000 
#    0.000    0.000    0.000    0.000    0.000    0.000 
#
# Total GULP energy -178302.627347 kJ/mol
# GULP energy per Si atom -5571.957105 kJ/mol
# Density = 2.156727 g / cm^3
# Si number density = 21.616466 Si / 1000 Ang^3
#
#
#
# Elastic Constant Matrix: (Units=GPa)
#
#
# Indices 1 2 3 4 5 6 
#
# 1 149.1820 37.6167 21.7249 0.0000 0.0000 0.0000
# 2 37.6167 57.3502 1.1831 0.0000 0.0000 0.0000
# 3 21.7249 1.1831 8.2964 0.0000 0.0000 0.0000
# 4 0.0000 0.0000 0.0000 24.2619 0.0000 0.0000
# 5 0.0000 0.0000 0.0000 0.0000 28.0528 0.0000
# 6 0.0000 0.0000 0.0000 0.0000 0.0000 -106.0628
#
#
#
# Elastic Compliance Matrix: (Units=1/GPa)
#
#
# Indices 1 2 3 4 5 6 
#
# 1 0.013995 -0.008448 -0.035442 0.000000 0.000000 0.000000
# 2 -0.008448 0.022588 0.018901 0.000000 0.000000 0.000000
# 3 -0.035442 0.018901 0.210647 0.000000 0.000000 0.000000
# 4 0.000000 0.000000 0.000000 0.041217 0.000000 0.000000
# 5 0.000000 0.000000 0.000000 0.000000 0.035647 0.000000
# 6 0.000000 0.000000 0.000000 0.000000 0.000000 -0.009428
#
#
# Mechanical properties :
#
#
# Convention : Reuss Voigt Hill
#
# Bulk Modulus (GPa) = 5.06966 37.31979 21.19472
# Shear Modulus (GPa) = 11.61728 -0.46268 5.57730
#
# Velocity S-wave (km/s) = 2.32076 -0.46315 1.60802
# Velocity P-wave (km/s) = 3.08733 4.12504 3.64332
#
# Compressibility (1/GPa) = 0.19725188
#
# Stress axis : x y z
#
# Youngs Moduli (GPa) = 71.45537 44.27111 4.74729
#
# Poissons Ratio (x) = 0.37401 0.16825
# Poissons Ratio (y) = 0.60367 -0.08973
# Poissons Ratio (z) = 2.53251 -0.83678
#
# Static dielectric constant tensor:
#      x y z
#    x 1.878450 0.000000 0.000000 
#    y 0.000000 1.794820 0.000000 
#    z 0.000000 0.000000 1.831020 
# 
# From -- ./inp_files/10333.got.cif
#   From: 2010.05.17/outbox.cif.g08.bks.cpg/sg20_6_cif.got.tgz:10333.got - 2010.06.03 22:52:26.
