data_PCOD9317208
_publ_section_title
;
Structure prediction by ZEFSAII (Michael W. Deem and Ramdas Pophale) SiO2 
 PCOD9317208
Probable space group: C 2 2 21
;
_chemical_formula_sum "Si O2"
_cell_formula_units_Z 60
_cell_length_a 11.692777
_cell_length_b 14.866964
_cell_length_c 16.919267
_cell_angle_alpha 90.000000
_cell_angle_beta 90.000000
_cell_angle_gamma 90.000000
_cell_volume 2941.179301
_symmetry_space_group_name_H-M "C 2 2 21"
_symmetry_group_IT_number 20
_symmetry_cell_setting 'orthorhombic'
loop_
_space_group_symop_operation_xyz
x,y,z
-x,-y,1/2+z
x,-y,-z
-x,y,1/2-z
1/2+x,1/2+y,z
1/2-x,1/2-y,1/2+z
1/2+x,1/2-y,-z
1/2-x,1/2+y,1/2-z
loop_
_atom_site_type_symbol
_atom_site_label
_atom_site_fract_x
_atom_site_fract_y
_atom_site_fract_z
Si Si1 0.499413 0.744021 0.632578
Si Si2 0.743878 0.951794 0.241414
Si Si3 0.292643 0.856959 0.695097
Si Si4 0.473791 0.280385 0.552921
Si Si5 0.610492 0.201673 0.692111
Si Si6 0.160260 0.903677 0.537762
Si Si7 0.500000 0.581474 0.750000
Si Si8 0.743237 0.705876 0.612034
O O1 0.410609 0.806883 0.677143
O O2 0.468798 0.744092 0.539677
O O3 0.489370 0.646013 0.673266
O O4 0.634615 0.762174 0.643502
O O5 0.685433 0.888781 0.306927
O O6 0.880042 0.968730 0.245877
O O7 0.730590 0.881855 0.166647
O O8 0.690009 0.050359 0.241556
O O9 0.196121 0.782677 0.718838
O O10 0.240917 0.893994 0.612455
O O11 0.562885 0.221768 0.604820
O O12 0.529946 0.378730 0.559364
O O13 0.353221 0.264972 0.594133
O O14 0.500000 0.195650 0.750000
O O15 0.199954 0.833567 0.471278
O O16 0.167615 0.000000 0.500000
#
# Coordination Sequence:
#
# PCOD9317208 Si02
#       8
#     8   8   8   8   8   8   4   8
#     4  10  21  38  63  93 125 164 212 254 324 382
#     4  11  22  39  64  90 127 168 214 266 318 380
#     4  11  22  38  65  93 123 170 213 266 316 389
#     4  10  21  37  66  89 125 172 207 260 327 377
#     4  11  23  41  61  93 132 169 214 261 323 388
#     4  10  19  35  60  94 120 155 222 264 311 383
#     4  10  22  40  60  90 130 162 204 268 320 380
#     4  10  19  36  62  89 125 170 205 262 316 381
#
# _framework density 20.399981
#
# number of rings (size 3 to 8) (size 9 to 14) (size 15 to 20)
#    0.000    1.600    5.333    0.000    0.933    0.000 
#    1.200    0.000    0.000    4.000    0.000    0.000 
#    0.000    0.000    0.000    0.000    0.000    0.000 
#
# Total GULP energy -167381.024839 kJ/mol
# GULP energy per Si atom -5579.367495 kJ/mol
# Density = 2.035355 g / cm^3
# Si number density = 20.399981 Si / 1000 Ang^3
#
#
#
# Elastic Constant Matrix: (Units=GPa)
#
#
# Indices 1 2 3 4 5 6 
#
# 1 115.1619 34.7523 6.0189 0.0000 0.0000 0.0000
# 2 34.7523 79.0282 -2.5597 0.0000 0.0000 0.0000
# 3 6.0189 -2.5597 65.7312 0.0000 0.0000 0.0000
# 4 0.0000 0.0000 0.0000 23.4764 0.0000 0.0000
# 5 0.0000 0.0000 0.0000 0.0000 33.9253 0.0000
# 6 0.0000 0.0000 0.0000 0.0000 0.0000 20.4381
#
#
#
# Elastic Compliance Matrix: (Units=1/GPa)
#
#
# Indices 1 2 3 4 5 6 
#
# 1 0.010091 -0.004473 -0.001098 0.000000 0.000000 0.000000
# 2 -0.004473 0.014652 0.000980 0.000000 0.000000 0.000000
# 3 -0.001098 0.000980 0.015352 0.000000 0.000000 0.000000
# 4 0.000000 0.000000 0.000000 0.042596 0.000000 0.000000
# 5 0.000000 0.000000 0.000000 0.000000 0.029477 0.000000
# 6 0.000000 0.000000 0.000000 0.000000 0.000000 0.048928
#
#
# Mechanical properties :
#
#
# Convention : Reuss Voigt Hill
#
# Bulk Modulus (GPa) = 32.34840 37.37161 34.86001
# Shear Modulus (GPa) = 27.68821 30.34859 29.01840
#
# Velocity S-wave (km/s) = 3.68811 3.86123 3.77566
# Velocity P-wave (km/s) = 5.83332 6.18369 6.01106
#
# Compressibility (1/GPa) = 0.03091343
#
# Stress axis : x y z
#
# Youngs Moduli (GPa) = 99.10216 68.24830 65.13728
#
# Poissons Ratio (x) = 0.30527 0.07153
# Poissons Ratio (y) = 0.44327 -0.06384
# Poissons Ratio (z) = 0.10883 -0.06689
#
# Static dielectric constant tensor:
#      x y z
#    x 1.763600 0.000000 0.000000 
#    y 0.000000 1.722240 0.000000 
#    z 0.000000 0.000000 1.792720 
# 
# From -- ./inp_files/27328.got.cif
#   From: 2010.05.17/outbox.cif.g08.bks.cpg/sg20_14_cif.got.tgz:27328.got - 2010.06.03 22:52:26.
