data_PCOD9317895
_publ_section_title
;
Structure prediction by ZEFSAII (Michael W. Deem and Ramdas Pophale) SiO2 
 PCOD9317895
Probable space group: C 2 2 21
;
_chemical_formula_sum "Si O2"
_cell_formula_units_Z 56
_cell_length_a 14.582954
_cell_length_b 12.259880
_cell_length_c 16.933946
_cell_angle_alpha 90.000000
_cell_angle_beta 90.000000
_cell_angle_gamma 90.000000
_cell_volume 3027.540041
_symmetry_space_group_name_H-M "C 2 2 21"
_symmetry_group_IT_number 20
_symmetry_cell_setting 'orthorhombic'
loop_
_space_group_symop_operation_xyz
x,y,z
-x,-y,1/2+z
x,-y,-z
-x,y,1/2-z
1/2+x,1/2+y,z
1/2-x,1/2-y,1/2+z
1/2+x,1/2-y,-z
1/2-x,1/2+y,1/2-z
loop_
_atom_site_type_symbol
_atom_site_label
_atom_site_fract_x
_atom_site_fract_y
_atom_site_fract_z
Si Si1 0.244370 0.682232 0.635914
Si Si2 0.832320 0.629455 0.587264
Si Si3 0.607193 0.265127 0.760021
Si Si4 0.249521 0.053454 0.189069
Si Si5 0.502611 0.884925 0.964288
Si Si6 0.144473 0.595834 0.157963
Si Si7 0.810100 0.694330 0.040848
O O1 0.150865 0.714777 0.680871
O O2 0.277893 0.571513 0.676699
O O3 0.310780 0.785929 0.644804
O O4 0.226975 0.660989 0.544460
O O5 0.872148 0.683303 0.667286
O O6 0.910272 0.642922 0.519979
O O7 0.813642 0.502486 0.604907
O O8 0.741301 0.694421 0.564105
O O9 0.500000 0.283991 0.750000
O O10 0.665253 0.373987 0.779190
O O11 0.331521 0.064054 0.252752
O O12 0.283197 0.106974 0.107609
O O13 0.541600 0.900163 0.875848
O O14 0.419752 0.800875 0.964737
O O15 0.467656 0.000000 0.000000
#
# Coordination Sequence:
#
# PCOD9317895 Si02
#       7
#     8   8   8   8   8   8   8
#     4  11  20  38  62  82 124 157 196 241 303 357
#     4  10  20  40  61  87 126 152 201 255 294 352
#     4  10  21  37  62  88 113 158 205 243 291 358
#     4  10  22  38  59  86 122 157 195 245 302 353
#     4  10  20  36  60  90 120 155 201 247 291 356
#     4  10  21  39  60  87 118 161 195 242 303 349
#     4  11  22  36  62  92 117 157 198 250 304 351
#
# _framework density 18.496865
#
# number of rings (size 3 to 8) (size 9 to 14) (size 15 to 20)
#    0.000    1.714    2.857    2.143    0.000    1.714 
#    0.000    2.857    0.000    1.714    0.000    0.000 
#    0.000    0.000    0.000    0.000    0.000    0.000 
#
# Total GULP energy -156232.431242 kJ/mol
# GULP energy per Si atom -5579.729687 kJ/mol
# Density = 1.845477 g / cm^3
# Si number density = 18.496865 Si / 1000 Ang^3
#
#
#
# Elastic Constant Matrix: (Units=GPa)
#
#
# Indices 1 2 3 4 5 6 
#
# 1 65.2206 43.5043 33.6464 0.0000 0.0000 0.0000
# 2 43.5043 116.4921 31.3771 0.0000 0.0000 0.0000
# 3 33.6464 31.3771 105.8399 0.0000 0.0000 0.0000
# 4 0.0000 0.0000 0.0000 24.9315 0.0000 0.0000
# 5 0.0000 0.0000 0.0000 0.0000 17.6099 0.0000
# 6 0.0000 0.0000 0.0000 0.0000 0.0000 16.8730
#
#
#
# Elastic Compliance Matrix: (Units=1/GPa)
#
#
# Indices 1 2 3 4 5 6 
#
# 1 0.022709 -0.007103 -0.005113 0.000000 0.000000 0.000000
# 2 -0.007103 0.011551 -0.001166 0.000000 0.000000 0.000000
# 3 -0.005113 -0.001166 0.011419 0.000000 0.000000 0.000000
# 4 0.000000 0.000000 0.000000 0.040110 0.000000 0.000000
# 5 0.000000 0.000000 0.000000 0.000000 0.056786 0.000000
# 6 0.000000 0.000000 0.000000 0.000000 0.000000 0.059266
#
#
# Mechanical properties :
#
#
# Convention : Reuss Voigt Hill
#
# Bulk Modulus (GPa) = 52.87213 56.06758 54.46985
# Shear Modulus (GPa) = 21.28457 23.81785 22.55121
#
# Velocity S-wave (km/s) = 3.39590 3.59230 3.49548
# Velocity P-wave (km/s) = 6.63495 6.89811 6.76781
#
# Compressibility (1/GPa) = 0.01891356
#
# Stress axis : x y z
#
# Youngs Moduli (GPa) = 44.03625 86.57122 87.56973
#
# Poissons Ratio (x) = 0.61495 0.44776
# Poissons Ratio (y) = 0.31280 0.10213
# Poissons Ratio (z) = 0.22517 0.10097
#
# Static dielectric constant tensor:
#      x y z
#    x 1.615240 0.000000 0.000000 
#    y 0.000000 1.632730 0.000000 
#    z 0.000000 0.000000 1.667230 
# 
# From -- ./inp_files/20712.got.cif
#   From: 2010.05.17/outbox.cif.g08.bks.cpg/sg20_11_cif.got.tgz:20712.got - 2010.06.03 22:52:26.
