data_PCOD9317624
_publ_section_title
;
Structure prediction by ZEFSAII (Michael W. Deem and Ramdas Pophale) SiO2 
 PCOD9317624
Probable space group: C 2 2 21
;
_chemical_formula_sum "Si O2"
_cell_formula_units_Z 48
_cell_length_a 22.925986
_cell_length_b 5.386335
_cell_length_c 15.677226
_cell_angle_alpha 90.000000
_cell_angle_beta 90.000000
_cell_angle_gamma 90.000000
_cell_volume 1935.934247
_symmetry_space_group_name_H-M "C 2 2 21"
_symmetry_group_IT_number 20
_symmetry_cell_setting 'orthorhombic'
loop_
_space_group_symop_operation_xyz
x,y,z
-x,-y,1/2+z
x,-y,-z
-x,y,1/2-z
1/2+x,1/2+y,z
1/2-x,1/2-y,1/2+z
1/2+x,1/2-y,-z
1/2-x,1/2+y,1/2-z
loop_
_atom_site_type_symbol
_atom_site_label
_atom_site_fract_x
_atom_site_fract_y
_atom_site_fract_z
Si Si1 0.031795 0.926411 0.661415
Si Si2 0.256596 0.251767 0.046568
Si Si3 0.384792 0.249308 0.547163
Si Si4 0.941970 0.425651 0.905727
Si Si5 0.642217 0.362423 0.769539
Si Si6 0.172903 0.641496 0.289158
O O1 0.018327 0.655783 0.624304
O O2 0.099588 0.897980 0.689151
O O3 0.000000 0.984437 0.750000
O O4 0.026391 0.159780 0.599005
O O5 0.186404 0.257822 0.044893
O O6 0.281974 0.231653 0.140576
O O7 0.278444 0.500000 0.000000
O O8 0.275366 0.000000 0.000000
O O9 0.403582 0.500000 0.500000
O O10 0.394530 0.280412 0.648062
O O11 0.405578 0.000000 0.500000
O O12 0.888552 0.394246 0.839506
O O13 0.921552 0.500000 0.000000
O O14 0.668046 0.639014 0.780997
O O15 0.684016 0.131774 0.748187
#
# Coordination Sequence:
#
# PCOD9317624 Si02
#       6
#     8   8   8   8   8   8
#     4  10  21  38  57  79 111 142 174 222 272 320
#     4  10  20  33  51  77 109 143 175 213 262 308
#     4  10  21  37  54  74 105 142 181 221 257 306
#     4  10  20  35  57  83 110 140 174 216 268 324
#     4  10  21  36  55  78 103 140 180 217 272 318
#     4  10  20  33  54  81 108 137 172 217 265 322
#
# _framework density 24.794229999999999
#
# number of rings (size 3 to 8) (size 9 to 14) (size 15 to 20)
#    0.000    2.000    0.000    3.500    0.000    4.000 
#    0.000    2.500    0.000    0.000    0.000    0.000 
#    0.000    0.000    0.000    0.000    0.000    0.000 
#
# Total GULP energy -134204.483713 kJ/mol
# GULP energy per Si atom -5591.853488 kJ/mol
# Density = 2.473780 g / cm^3
# Si number density = 24.794230 Si / 1000 Ang^3
#
#
#
# Elastic Constant Matrix: (Units=GPa)
#
#
# Indices 1 2 3 4 5 6 
#
# 1 52.2204 36.8087 5.0678 0.0000 0.0000 0.0000
# 2 36.8087 254.0640 69.3702 0.0000 0.0000 0.0000
# 3 5.0678 69.3702 83.6825 0.0000 0.0000 0.0000
# 4 0.0000 0.0000 0.0000 49.7831 0.0000 0.0000
# 5 0.0000 0.0000 0.0000 0.0000 34.2192 0.0000
# 6 0.0000 0.0000 0.0000 0.0000 0.0000 -17.3917
#
#
#
# Elastic Compliance Matrix: (Units=1/GPa)
#
#
# Indices 1 2 3 4 5 6 
#
# 1 0.021504 -0.003567 0.001655 0.000000 0.000000 0.000000
# 2 -0.003567 0.005679 -0.004492 0.000000 0.000000 0.000000
# 3 0.001655 -0.004492 0.015573 0.000000 0.000000 0.000000
# 4 0.000000 0.000000 0.000000 0.020087 0.000000 0.000000
# 5 0.000000 0.000000 0.000000 0.000000 0.029223 0.000000
# 6 0.000000 0.000000 0.000000 0.000000 0.000000 -0.057499
#
#
# Mechanical properties :
#
#
# Convention : Reuss Voigt Hill
#
# Bulk Modulus (GPa) = 33.39165 68.05115 50.72140
# Shear Modulus (GPa) = 87.17012 31.90347 59.53680
#
# Velocity S-wave (km/s) = 5.93580 3.59099 4.90556
# Velocity P-wave (km/s) = 7.77657 6.68578 7.25171
#
# Compressibility (1/GPa) = 0.02994760
#
# Stress axis : x y z
#
# Youngs Moduli (GPa) = 46.50405 176.07679 64.21200
#
# Poissons Ratio (x) = 0.62812 -0.10627
# Poissons Ratio (y) = 0.16589 0.28844
# Poissons Ratio (z) = -0.07696 0.79093
#
# Static dielectric constant tensor:
#      x y z
#    x 1.994970 0.000000 0.000000 
#    y 0.000000 1.957660 0.000000 
#    z 0.000000 0.000000 1.911440 
# 
# From -- ./inp_files/22160.got.cif
#   From: 2010.05.17/outbox.cif.g08.bks.cpg/sg20_12_cif.got.tgz:22160.got - 2010.06.03 22:52:26.
