data_PCOD9317005
_publ_section_title
;
Structure prediction by ZEFSAII (Michael W. Deem and Ramdas Pophale) SiO2 
 PCOD9317005
Probable space group: C 2 2 21
;
_chemical_formula_sum "Si O2"
_cell_formula_units_Z 48
_cell_length_a 17.151850
_cell_length_b 8.348650
_cell_length_c 16.098310
_cell_angle_alpha 90.000000
_cell_angle_beta 90.000000
_cell_angle_gamma 90.000000
_cell_volume 2305.194160
_symmetry_space_group_name_H-M "C 2 2 21"
_symmetry_group_IT_number 20
_symmetry_cell_setting 'orthorhombic'
loop_
_space_group_symop_operation_xyz
x,y,z
-x,-y,1/2+z
x,-y,-z
-x,y,1/2-z
1/2+x,1/2+y,z
1/2-x,1/2-y,1/2+z
1/2+x,1/2-y,-z
1/2-x,1/2+y,1/2-z
loop_
_atom_site_type_symbol
_atom_site_label
_atom_site_fract_x
_atom_site_fract_y
_atom_site_fract_z
Si Si1 0.000000 0.502745 0.750000
Si Si2 0.159716 0.027666 0.675901
Si Si3 0.941338 0.755092 0.381422
Si Si4 0.870398 0.585751 0.872034
Si Si5 0.594612 0.249700 0.463556
Si Si6 0.780429 0.240188 0.678383
Si Si7 0.000000 0.990565 0.750000
O O1 0.959671 0.393766 0.679618
O O2 0.933433 0.595474 0.798930
O O3 0.134012 0.105825 0.587831
O O4 0.179013 0.181074 0.735929
O O5 0.084741 0.935678 0.715643
O O6 0.232926 0.906873 0.677300
O O7 0.848976 0.759276 0.390178
O O8 0.971174 0.904615 0.328006
O O9 0.000136 0.753214 0.458367
O O10 0.882579 0.413470 0.914916
O O11 0.783569 0.605838 0.839942
O O12 0.881341 0.721362 0.942245
#
# Coordination Sequence:
#
# PCOD9317005 Si02
#       7
#     4   8   8   8   8   8   4
#     4   9  16  33  54  76 102 142 184 216 262 338
#     4  10  19  33  53  79 108 142 181 226 275 333
#     4   8  15  31  54  74  99 138 181 218 267 332
#     4  10  20  34  56  80 108 141 183 231 280 331
#     4   9  19  38  56  72 104 150 185 219 278 342
#     4  11  20  32  55  84 110 137 182 235 276 323
#     4   7  14  29  50  70 100 142 172 206 274 338
#
# _framework density 20.822541000000001
#
# number of rings (size 3 to 8) (size 9 to 14) (size 15 to 20)
#    0.000    2.667    0.000    5.000    0.000    1.333 
#    0.000    8.333    0.000   12.000    0.000    0.000 
#    0.000    0.000    0.000    0.000    0.000    0.000 
#
# Total GULP energy -133691.592630 kJ/mol
# GULP energy per Si atom -5570.483026 kJ/mol
# Density = 2.077515 g / cm^3
# Si number density = 20.822541 Si / 1000 Ang^3
#
#
#
# Elastic Constant Matrix: (Units=GPa)
#
#
# Indices 1 2 3 4 5 6 
#
# 1 148.6302 11.4021 21.3398 0.0000 0.0000 0.0000
# 2 11.4021 65.9873 -5.8941 0.0000 0.0000 0.0000
# 3 21.3398 -5.8941 60.5114 0.0000 0.0000 0.0000
# 4 0.0000 0.0000 0.0000 23.5215 0.0000 0.0000
# 5 0.0000 0.0000 0.0000 0.0000 24.0877 0.0000
# 6 0.0000 0.0000 0.0000 0.0000 0.0000 40.3286
#
#
#
# Elastic Compliance Matrix: (Units=1/GPa)
#
#
# Indices 1 2 3 4 5 6 
#
# 1 0.007229 -0.001490 -0.002695 0.000000 0.000000 0.000000
# 2 -0.001490 0.015594 0.002044 0.000000 0.000000 0.000000
# 3 -0.002695 0.002044 0.017675 0.000000 0.000000 0.000000
# 4 0.000000 0.000000 0.000000 0.042514 0.000000 0.000000
# 5 0.000000 0.000000 0.000000 0.000000 0.041515 0.000000
# 6 0.000000 0.000000 0.000000 0.000000 0.000000 0.024796
#
#
# Mechanical properties :
#
#
# Convention : Reuss Voigt Hill
#
# Bulk Modulus (GPa) = 27.60990 36.53604 32.07297
# Shear Modulus (GPa) = 30.17911 34.13964 32.15938
#
# Velocity S-wave (km/s) = 3.81116 4.05353 3.93421
# Velocity P-wave (km/s) = 5.71446 6.28432 6.00615
#
# Compressibility (1/GPa) = 0.03621890
#
# Stress axis : x y z
#
# Youngs Moduli (GPa) = 138.32635 64.12530 56.57640
#
# Poissons Ratio (x) = 0.09554 0.15245
# Poissons Ratio (y) = 0.20609 -0.11566
# Poissons Ratio (z) = 0.37273 -0.13110
#
# Static dielectric constant tensor:
#      x y z
#    x 1.755670 0.000000 0.000000 
#    y 0.000000 1.800990 0.000000 
#    z 0.000000 0.000000 1.781750 
# 
# From -- ./inp_files/23493.got.cif
#   From: 2010.05.17/outbox.cif.g08.bks.cpg/sg20_12_cif.got.tgz:23493.got - 2010.06.03 22:52:26.
