data_PCOD9317097
_publ_section_title
;
Structure prediction by ZEFSAII (Michael W. Deem and Ramdas Pophale) SiO2 
 PCOD9317097
Probable space group: C 2 2 21
;
_chemical_formula_sum "Si O2"
_cell_formula_units_Z 48
_cell_length_a 14.040103
_cell_length_b 11.807075
_cell_length_c 13.952146
_cell_angle_alpha 90.000000
_cell_angle_beta 90.000000
_cell_angle_gamma 90.000000
_cell_volume 2312.882808
_symmetry_space_group_name_H-M "C 2 2 21"
_symmetry_group_IT_number 20
_symmetry_cell_setting 'orthorhombic'
loop_
_space_group_symop_operation_xyz
x,y,z
-x,-y,1/2+z
x,-y,-z
-x,y,1/2-z
1/2+x,1/2+y,z
1/2-x,1/2-y,1/2+z
1/2+x,1/2-y,-z
1/2-x,1/2+y,1/2-z
loop_
_atom_site_type_symbol
_atom_site_label
_atom_site_fract_x
_atom_site_fract_y
_atom_site_fract_z
Si Si1 0.716472 0.050442 0.717660
Si Si2 0.107977 0.394890 0.577045
Si Si3 0.416183 0.806318 0.328534
Si Si4 0.906803 0.372286 0.532847
Si Si5 0.109714 0.086056 0.270453
Si Si6 0.702603 0.262998 0.573490
O O1 0.666279 0.944333 0.666142
O O2 0.820913 0.016709 0.750156
O O3 0.655787 0.092566 0.807522
O O4 0.712770 0.155433 0.644463
O O5 0.104954 0.500000 0.500000
O O6 0.158963 0.289489 0.524019
O O7 0.997710 0.370945 0.602846
O O8 0.500000 0.817663 0.250000
O O9 0.448292 0.811791 0.436999
O O10 0.368749 0.686394 0.305714
O O11 0.887776 0.500000 0.500000
O O12 0.807745 0.315197 0.560955
O O13 0.135390 0.145062 0.372317
O O14 0.000000 0.057956 0.250000
#
# Coordination Sequence:
#
# PCOD9317097 Si02
#       6
#     8   8   8   8   8   8
#     4  10  20  36  56  79 108 144 185 224 270 327
#     4   9  18  34  56  79 108 144 181 222 273 332
#     4  10  19  34  57  80 105 143 183 221 270 333
#     4  11  20  34  55  83 112 139 181 236 277 316
#     4  10  20  36  56  77 107 147 185 220 269 335
#     4  10  21  36  55  82 111 143 184 227 274 325
#
# _framework density 20.753321
#
# number of rings (size 3 to 8) (size 9 to 14) (size 15 to 20)
#    0.000    2.000    0.000    7.000    0.000    0.000 
#    0.000    6.667    0.000    0.000    0.000    0.000 
#    0.000    0.000    0.000    0.000    0.000    0.000 
#
# Total GULP energy -133960.342231 kJ/mol
# GULP energy per Si atom -5581.680926 kJ/mol
# Density = 2.070609 g / cm^3
# Si number density = 20.753321 Si / 1000 Ang^3
#
#
#
# Elastic Constant Matrix: (Units=GPa)
#
#
# Indices 1 2 3 4 5 6 
#
# 1 171.6272 40.6944 14.6857 0.0000 0.0000 0.0000
# 2 40.6944 32.0936 -4.5209 0.0000 0.0000 0.0000
# 3 14.6857 -4.5209 22.8873 0.0000 0.0000 0.0000
# 4 0.0000 0.0000 0.0000 3.1296 0.0000 0.0000
# 5 0.0000 0.0000 0.0000 0.0000 27.6874 0.0000
# 6 0.0000 0.0000 0.0000 0.0000 0.0000 46.7896
#
#
#
# Elastic Compliance Matrix: (Units=1/GPa)
#
#
# Indices 1 2 3 4 5 6 
#
# 1 0.009873 -0.013795 -0.009060 0.000000 0.000000 0.000000
# 2 -0.013795 0.051325 0.018989 0.000000 0.000000 0.000000
# 3 -0.009060 0.018989 0.053256 0.000000 0.000000 0.000000
# 4 0.000000 0.000000 0.000000 0.319529 0.000000 0.000000
# 5 0.000000 0.000000 0.000000 0.000000 0.036117 0.000000
# 6 0.000000 0.000000 0.000000 0.000000 0.000000 0.021372
#
#
# Mechanical properties :
#
#
# Convention : Reuss Voigt Hill
#
# Bulk Modulus (GPa) = 9.36989 36.48074 22.92531
# Shear Modulus (GPa) = 9.34968 27.23791 18.29380
#
# Velocity S-wave (km/s) = 2.12484 3.62672 2.97221
# Velocity P-wave (km/s) = 3.24724 5.92907 4.78009
#
# Compressibility (1/GPa) = 0.10672485
#
# Stress axis : x y z
#
# Youngs Moduli (GPa) = 101.29017 19.48355 18.77711
#
# Poissons Ratio (x) = 0.26877 0.17011
# Poissons Ratio (y) = 1.39726 -0.35657
# Poissons Ratio (z) = 0.91765 -0.36998
#
# Static dielectric constant tensor:
#      x y z
#    x 1.767310 0.000000 0.000000 
#    y 0.000000 1.741990 0.000000 
#    z 0.000000 0.000000 1.780260 
# 
# From -- ./inp_files/19923.got.cif
#   From: 2010.05.17/outbox.cif.g08.bks.cpg/sg20_10_cif.got.tgz:19923.got - 2010.06.03 22:52:26.
