data_PCOD9317517
_publ_section_title
;
Structure prediction by ZEFSAII (Michael W. Deem and Ramdas Pophale) SiO2 
 PCOD9317517
Probable space group: C 2 2 21
;
_chemical_formula_sum "Si O2"
_cell_formula_units_Z 48
_cell_length_a 16.423293
_cell_length_b 8.049981
_cell_length_c 16.460906
_cell_angle_alpha 90.000000
_cell_angle_beta 90.000000
_cell_angle_gamma 90.000000
_cell_volume 2176.250236
_symmetry_space_group_name_H-M "C 2 2 21"
_symmetry_group_IT_number 20
_symmetry_cell_setting 'orthorhombic'
loop_
_space_group_symop_operation_xyz
x,y,z
-x,-y,1/2+z
x,-y,-z
-x,y,1/2-z
1/2+x,1/2+y,z
1/2-x,1/2-y,1/2+z
1/2+x,1/2-y,-z
1/2-x,1/2+y,1/2-z
loop_
_atom_site_type_symbol
_atom_site_label
_atom_site_fract_x
_atom_site_fract_y
_atom_site_fract_z
Si Si1 0.425963 0.000000 0.500000
Si Si2 0.784934 0.525384 0.628129
Si Si3 0.151761 0.000000 0.500000
Si Si4 0.157165 0.881143 0.826883
Si Si5 0.269638 0.159240 0.872546
Si Si6 0.945693 0.289123 0.083047
Si Si7 0.500000 0.668385 0.250000
Si Si8 0.334532 0.500000 0.500000
O O1 0.366120 0.019820 0.423624
O O2 0.490310 0.144835 0.518252
O O3 0.712864 0.580148 0.566155
O O4 0.728884 0.515098 0.819534
O O5 0.811982 0.690690 0.677491
O O6 0.094025 0.123538 0.452026
O O7 0.249890 0.845768 0.658370
O O8 0.085156 0.922981 0.764585
O O9 0.125219 0.918908 0.920151
O O10 0.362676 0.114809 0.892522
O O11 0.221854 0.139624 0.958401
O O12 0.991142 0.271610 0.168260
#
# Coordination Sequence:
#
# PCOD9317517 Si02
#       8
#     4   8   4   8   8   8   4   4
#     4  11  21  34  64  92 130 164 210 275 319 372
#     4  10  19  40  65  98 122 161 217 280 309 367
#     4   9  22  39  69  95 118 166 234 265 310 393
#     4  10  21  41  65  90 130 168 208 263 329 383
#     4   9  21  39  68  92 118 167 228 256 313 391
#     4  11  23  41  64  99 130 166 221 274 328 390
#     4  12  26  42  58  96 146 170 198 278 348 390
#     4   8  17  35  69  91 106 164 216 262 293 375
#
# _framework density 22.056287000000001
#
# number of rings (size 3 to 8) (size 9 to 14) (size 15 to 20)
#    1.000    1.000    1.667    3.500    2.333    2.000 
#    6.000    0.833    3.667    0.000    0.000    0.000 
#    0.000    0.000    0.000    0.000    0.000    0.000 
#
# Total GULP energy -133640.564675 kJ/mol
# GULP energy per Si atom -5568.356861 kJ/mol
# Density = 2.200609 g / cm^3
# Si number density = 22.056287 Si / 1000 Ang^3
#
#
#
# Elastic Constant Matrix: (Units=GPa)
#
#
# Indices 1 2 3 4 5 6 
#
# 1 101.3606 56.9615 18.1104 0.0000 0.0000 0.0000
# 2 56.9615 100.8924 31.4866 0.0000 0.0000 0.0000
# 3 18.1104 31.4866 61.4657 0.0000 0.0000 0.0000
# 4 0.0000 0.0000 0.0000 34.5619 0.0000 0.0000
# 5 0.0000 0.0000 0.0000 0.0000 34.0183 0.0000
# 6 0.0000 0.0000 0.0000 0.0000 0.0000 32.2269
#
#
#
# Elastic Compliance Matrix: (Units=1/GPa)
#
#
# Indices 1 2 3 4 5 6 
#
# 1 0.014451 -0.008130 -0.000093 0.000000 0.000000 0.000000
# 2 -0.008130 0.016371 -0.005991 0.000000 0.000000 0.000000
# 3 -0.000093 -0.005991 0.019366 0.000000 0.000000 0.000000
# 4 0.000000 0.000000 0.000000 0.028934 0.000000 0.000000
# 5 0.000000 0.000000 0.000000 0.000000 0.029396 0.000000
# 6 0.000000 0.000000 0.000000 0.000000 0.000000 0.031030
#
#
# Mechanical properties :
#
#
# Convention : Reuss Voigt Hill
#
# Bulk Modulus (GPa) = 45.95614 52.98174 49.46894
# Shear Modulus (GPa) = 28.53422 30.63877 29.58650
#
# Velocity S-wave (km/s) = 3.60071 3.73113 3.66650
# Velocity P-wave (km/s) = 6.17801 6.52955 6.35621
#
# Compressibility (1/GPa) = 0.02175988
#
# Stress axis : x y z
#
# Youngs Moduli (GPa) = 69.19932 61.08382 51.63774
#
# Poissons Ratio (x) = 0.49658 0.00482
# Poissons Ratio (y) = 0.56256 0.30936
# Poissons Ratio (z) = 0.00646 0.36595
#
# Static dielectric constant tensor:
#      x y z
#    x 1.857450 0.000000 0.000000 
#    y 0.000000 1.839340 0.000000 
#    z 0.000000 0.000000 1.901450 
# 
# From -- ./inp_files/15771.got.cif
#   From: 2010.05.17/outbox.cif.g08.bks.cpg/sg20_8_cif.got.tgz:15771.got - 2010.06.03 22:52:26.
