data_PCOD9317966
_publ_section_title
;
Structure prediction by ZEFSAII (Michael W. Deem and Ramdas Pophale) SiO2 
 PCOD9317966
Probable space group: C 2 2 21
;
_chemical_formula_sum "Si O2"
_cell_formula_units_Z 48
_cell_length_a 32.464646
_cell_length_b 7.889825
_cell_length_c 8.292024
_cell_angle_alpha 90.000000
_cell_angle_beta 90.000000
_cell_angle_gamma 90.000000
_cell_volume 2123.922142
_symmetry_space_group_name_H-M "C 2 2 21"
_symmetry_group_IT_number 20
_symmetry_cell_setting 'orthorhombic'
loop_
_space_group_symop_operation_xyz
x,y,z
-x,-y,1/2+z
x,-y,-z
-x,y,1/2-z
1/2+x,1/2+y,z
1/2-x,1/2-y,1/2+z
1/2+x,1/2-y,-z
1/2-x,1/2+y,1/2-z
loop_
_atom_site_type_symbol
_atom_site_label
_atom_site_fract_x
_atom_site_fract_y
_atom_site_fract_z
Si Si1 0.101374 0.390261 0.710524
Si Si2 0.226685 0.797829 0.962815
Si Si3 0.150914 0.071206 0.180228
Si Si4 0.500000 0.775246 0.250000
Si Si5 0.190501 0.726229 0.285232
Si Si6 0.947600 0.500000 0.500000
Si Si7 0.080406 0.769844 0.602560
O O1 0.150907 0.392084 0.697290
O O2 0.082406 0.381545 0.890234
O O3 0.085040 0.571850 0.651903
O O4 0.086662 0.241748 0.589594
O O5 0.214025 0.690887 0.117885
O O6 0.187410 0.789862 0.843334
O O7 0.272843 0.763618 0.911051
O O8 0.226910 0.000000 0.000000
O O9 0.114709 0.139028 0.290951
O O10 0.170805 0.910994 0.267745
O O11 0.138740 0.000000 0.000000
O O12 0.477229 0.890859 0.384440
O O13 0.464484 0.673118 0.158627
#
# Coordination Sequence:
#
# PCOD9317966 Si02
#       7
#     8   8   8   4   8   4   8
#     4  10  23  36  66  94 130 170 212 274 327 404
#     4   9  22  40  58  91 122 165 219 266 313 378
#     4   9  22  42  64  89 132 173 214 268 334 399
#     4  10  20  36  70  90 126 166 206 280 332 392
#     4  10  22  41  63  91 123 176 209 271 322 384
#     4  10  20  38  60 108 128 158 220 276 340 394
#     4  10  22  41  64  95 128 171 214 273 335 401
#
# _framework density 22.599698
#
# number of rings (size 3 to 8) (size 9 to 14) (size 15 to 20)
#    0.000    2.667    0.000    2.000   14.000    2.000 
#    3.000    0.000    3.667    0.000    0.000    0.000 
#    0.000    0.000    0.000    0.000    0.000    0.000 
#
# Total GULP energy -133896.325256 kJ/mol
# GULP energy per Si atom -5579.013552 kJ/mol
# Density = 2.254826 g / cm^3
# Si number density = 22.599698 Si / 1000 Ang^3
#
#
#
# Elastic Constant Matrix: (Units=GPa)
#
#
# Indices 1 2 3 4 5 6 
#
# 1 179.5626 10.8890 82.3721 0.0000 0.0000 0.0000
# 2 10.8890 11.9414 17.2389 0.0000 0.0000 0.0000
# 3 82.3721 17.2389 114.5038 0.0000 0.0000 0.0000
# 4 0.0000 0.0000 0.0000 16.1915 0.0000 0.0000
# 5 0.0000 0.0000 0.0000 0.0000 42.9423 0.0000
# 6 0.0000 0.0000 0.0000 0.0000 0.0000 28.9984
#
#
#
# Elastic Compliance Matrix: (Units=1/GPa)
#
#
# Indices 1 2 3 4 5 6 
#
# 1 0.008329 0.001348 -0.006195 0.000000 0.000000 0.000000
# 2 0.001348 0.107216 -0.017111 0.000000 0.000000 0.000000
# 3 -0.006195 -0.017111 0.015766 0.000000 0.000000 0.000000
# 4 0.000000 0.000000 0.000000 0.061761 0.000000 0.000000
# 5 0.000000 0.000000 0.000000 0.000000 0.023287 0.000000
# 6 0.000000 0.000000 0.000000 0.000000 0.000000 0.034485
#
#
# Mechanical properties :
#
#
# Convention : Reuss Voigt Hill
#
# Bulk Modulus (GPa) = 11.44237 58.55644 34.99940
# Shear Modulus (GPa) = 15.43725 30.66027 23.04876
#
# Velocity S-wave (km/s) = 2.61640 3.68729 3.19701
# Velocity P-wave (km/s) = 3.76848 6.64038 5.39890
#
# Compressibility (1/GPa) = 0.08739448
#
# Stress axis : x y z
#
# Youngs Moduli (GPa) = 120.06071 9.32697 63.42798
#
# Poissons Ratio (x) = -0.01257 0.39292
# Poissons Ratio (y) = -0.16182 1.08534
# Poissons Ratio (z) = 0.74375 0.15960
#
# Static dielectric constant tensor:
#      x y z
#    x 1.888800 0.000000 0.000000 
#    y 0.000000 1.846360 0.000000 
#    z 0.000000 0.000000 2.054060 
# 
# From -- ./inp_files/11510.got.cif
#   From: 2010.05.17/outbox.cif.g08.bks.cpg/sg20_6_cif.got.tgz:11510.got - 2010.06.03 22:52:26.
