data_PCOD9317486
_publ_section_title
;
Structure prediction by ZEFSAII (Michael W. Deem and Ramdas Pophale) SiO2 
 PCOD9317486
Probable space group: C 2 2 21
;
_chemical_formula_sum "Si O2"
_cell_formula_units_Z 48
_cell_length_a 14.856959
_cell_length_b 8.375942
_cell_length_c 18.821353
_cell_angle_alpha 90.000000
_cell_angle_beta 90.000000
_cell_angle_gamma 90.000000
_cell_volume 2342.148495
_symmetry_space_group_name_H-M "C 2 2 21"
_symmetry_group_IT_number 20
_symmetry_cell_setting 'orthorhombic'
loop_
_space_group_symop_operation_xyz
x,y,z
-x,-y,1/2+z
x,-y,-z
-x,y,1/2-z
1/2+x,1/2+y,z
1/2-x,1/2-y,1/2+z
1/2+x,1/2-y,-z
1/2-x,1/2+y,1/2-z
loop_
_atom_site_type_symbol
_atom_site_label
_atom_site_fract_x
_atom_site_fract_y
_atom_site_fract_z
Si Si1 0.571599 0.083820 0.927317
Si Si2 0.703347 0.245091 0.821396
Si Si3 0.690572 0.057601 0.676689
Si Si4 0.623983 0.750604 0.448461
Si Si5 0.130802 0.885570 0.402672
Si Si6 0.013609 0.663930 0.330592
O O1 0.632653 0.209310 0.884495
O O2 0.474016 0.163176 0.945054
O O3 0.560269 0.941593 0.869775
O O4 0.606176 0.000000 0.000000
O O5 0.678840 0.173859 0.744239
O O6 0.728794 0.431362 0.815604
O O7 0.792433 0.147692 0.845383
O O8 0.690956 0.154700 0.603129
O O9 0.601375 0.949215 0.671394
O O10 0.620700 0.569335 0.420985
O O11 0.653757 0.726685 0.529593
O O12 0.036448 0.818863 0.375362
O O13 0.000000 0.709416 0.250000
#
# Coordination Sequence:
#
# PCOD9317486 Si02
#       6
#     8   8   8   8   8   8
#     4  11  22  40  66  92 124 161 214 261 313 370
#     4  11  23  40  62  94 124 170 207 268 308 380
#     4  10  22  40  64  89 128 164 214 251 327 373
#     4  10  22  42  63  89 123 171 211 257 313 385
#     4  10  22  41  63  88 130 166 208 255 324 374
#     4  10  19  39  64  88 123 167 206 253 315 377
#
# _framework density 20.494004
#
# number of rings (size 3 to 8) (size 9 to 14) (size 15 to 20)
#    0.000    1.667    3.333    1.000    2.333    0.000 
#    9.000    3.333    0.000    0.000    0.000    0.000 
#    0.000    0.000    0.000    0.000    0.000    0.000 
#
# Total GULP energy -133902.067172 kJ/mol
# GULP energy per Si atom -5579.252799 kJ/mol
# Density = 2.044736 g / cm^3
# Si number density = 20.494004 Si / 1000 Ang^3
#
#
#
# Elastic Constant Matrix: (Units=GPa)
#
#
# Indices 1 2 3 4 5 6 
#
# 1 17.4414 11.8551 -0.3788 0.0000 0.0000 0.0000
# 2 11.8551 71.0674 42.4880 0.0000 0.0000 0.0000
# 3 -0.3788 42.4880 118.7327 0.0000 0.0000 0.0000
# 4 0.0000 0.0000 0.0000 31.7949 0.0000 0.0000
# 5 0.0000 0.0000 0.0000 0.0000 28.5135 0.0000
# 6 0.0000 0.0000 0.0000 0.0000 0.0000 16.7499
#
#
#
# Elastic Compliance Matrix: (Units=1/GPa)
#
#
# Indices 1 2 3 4 5 6 
#
# 1 0.067265 -0.014438 0.005381 0.000000 0.000000 0.000000
# 2 -0.014438 0.021000 -0.007561 0.000000 0.000000 0.000000
# 3 0.005381 -0.007561 0.011145 0.000000 0.000000 0.000000
# 4 0.000000 0.000000 0.000000 0.031452 0.000000 0.000000
# 5 0.000000 0.000000 0.000000 0.000000 0.035071 0.000000
# 6 0.000000 0.000000 0.000000 0.000000 0.000000 0.059702
#
#
# Mechanical properties :
#
#
# Convention : Reuss Voigt Hill
#
# Bulk Modulus (GPa) = 15.11144 35.01889 25.06517
# Shear Modulus (GPa) = 17.79813 25.63015 21.71414
#
# Velocity S-wave (km/s) = 2.95015 3.54024 3.25858
# Velocity P-wave (km/s) = 4.35823 5.81684 5.13954
#
# Compressibility (1/GPa) = 0.06617502
#
# Stress axis : x y z
#
# Youngs Moduli (GPa) = 14.86650 47.61935 89.72603
#
# Poissons Ratio (x) = 0.68753 -0.48283
# Poissons Ratio (y) = 0.21464 0.67840
# Poissons Ratio (z) = -0.08000 0.36004
#
# Static dielectric constant tensor:
#      x y z
#    x 1.756160 0.000000 0.000000 
#    y 0.000000 1.726560 0.000000 
#    z 0.000000 0.000000 1.750010 
# 
# From -- ./inp_files/25170.got.cif
#   From: 2010.05.17/outbox.cif.g08.bks.cpg/sg20_13_cif.got.tgz:25170.got - 2010.06.03 22:52:26.
