data_PCOD9317820
_publ_section_title
;
Structure prediction by ZEFSAII (Michael W. Deem and Ramdas Pophale) SiO2 
 PCOD9317820
Probable space group: C 2 2 21
;
_chemical_formula_sum "Si O2"
_cell_formula_units_Z 28
_cell_length_a 8.656912
_cell_length_b 16.639756
_cell_length_c 7.212689
_cell_angle_alpha 90.000000
_cell_angle_beta 90.000000
_cell_angle_gamma 90.000000
_cell_volume 1038.979941
_symmetry_space_group_name_H-M "C 2 2 21"
_symmetry_group_IT_number 20
_symmetry_cell_setting 'orthorhombic'
loop_
_space_group_symop_operation_xyz
x,y,z
-x,-y,1/2+z
x,-y,-z
-x,y,1/2-z
1/2+x,1/2+y,z
1/2-x,1/2-y,1/2+z
1/2+x,1/2-y,-z
1/2-x,1/2+y,1/2-z
loop_
_atom_site_type_symbol
_atom_site_label
_atom_site_fract_x
_atom_site_fract_y
_atom_site_fract_z
Si Si1 0.143014 0.830504 0.019727
Si Si2 0.402549 0.500000 0.500000
Si Si3 0.145407 0.660370 0.863131
Si Si4 0.677381 0.929704 0.765621
O O1 0.032643 0.909548 0.003122
O O2 0.215779 0.822316 0.221697
O O3 0.206627 0.003355 0.184064
O O4 0.086545 0.745123 0.950032
O O5 0.220418 0.358300 0.621684
O O6 0.194128 0.602280 0.028326
O O7 0.000000 0.627377 0.750000
O O8 0.500000 0.952361 0.750000
#
# Coordination Sequence:
#
# PCOD9317820 Si02
#       4
#     8   4   8   8
#     4  10  21  37  54  88 125 158 200 258 302 368
#     4   8  20  36  54  82 122 150 192 258 310 360
#     4  12  21  36  65  88 123 168 207 254 306 368
#     4  10  20  36  55  90 122 151 202 250 315 366
#
# _framework density 26.949508000000002
#
# number of rings (size 3 to 8) (size 9 to 14) (size 15 to 20)
#    1.714    0.000    5.714    0.000    0.000    4.571 
#    0.000    0.000    0.000    5.143    0.000    0.000 
#    0.000    0.000    0.000    0.000    0.000    0.000 
#
# Total GULP energy -78300.822786 kJ/mol
# GULP energy per Si atom -5592.915913 kJ/mol
# Density = 2.688817 g / cm^3
# Si number density = 26.949508 Si / 1000 Ang^3
#
#
#
# Elastic Constant Matrix: (Units=GPa)
#
#
# Indices 1 2 3 4 5 6 
#
# 1 86.7014 43.1799 31.0853 0.0000 0.0000 0.0000
# 2 43.1799 159.5851 61.6790 0.0000 0.0000 0.0000
# 3 31.0853 61.6790 201.9612 0.0000 0.0000 0.0000
# 4 0.0000 0.0000 0.0000 49.6621 0.0000 0.0000
# 5 0.0000 0.0000 0.0000 0.0000 31.1039 0.0000
# 6 0.0000 0.0000 0.0000 0.0000 0.0000 12.0125
#
#
#
# Elastic Compliance Matrix: (Units=1/GPa)
#
#
# Indices 1 2 3 4 5 6 
#
# 1 0.013540 -0.003241 -0.001094 0.000000 0.000000 0.000000
# 2 -0.003241 0.007880 -0.001908 0.000000 0.000000 0.000000
# 3 -0.001094 -0.001908 0.005703 0.000000 0.000000 0.000000
# 4 0.000000 0.000000 0.000000 0.020136 0.000000 0.000000
# 5 0.000000 0.000000 0.000000 0.000000 0.032150 0.000000
# 6 0.000000 0.000000 0.000000 0.000000 0.000000 0.083247
#
#
# Mechanical properties :
#
#
# Convention : Reuss Voigt Hill
#
# Bulk Modulus (GPa) = 68.31849 80.01513 74.16681
# Shear Modulus (GPa) = 27.77446 39.37591 33.57519
#
# Velocity S-wave (km/s) = 3.21380 3.82658 3.53350
# Velocity P-wave (km/s) = 6.25915 7.01989 6.65040
#
# Compressibility (1/GPa) = 0.01463733
#
# Stress axis : x y z
#
# Youngs Moduli (GPa) = 73.85433 126.89551 175.35971
#
# Poissons Ratio (x) = 0.41123 0.19191
# Poissons Ratio (y) = 0.23934 0.33457
# Poissons Ratio (z) = 0.08082 0.24211
#
# Static dielectric constant tensor:
#      x y z
#    x 2.093830 0.000000 0.000000 
#    y 0.000000 2.104790 0.000000 
#    z 0.000000 0.000000 2.042840 
# 
# From -- ./inp_files/7800.got.cif
#   From: 2010.05.17/outbox.cif.g08.bks.cpg/sg20_4_cif.got.tgz:7800.got - 2010.06.03 22:52:26.
