data_PCOD9317221
_publ_section_title
;
Structure prediction by ZEFSAII (Michael W. Deem and Ramdas Pophale) SiO2 
 PCOD9317221
Probable space group: C 2 2 21
;
_chemical_formula_sum "Si O2"
_cell_formula_units_Z 64
_cell_length_a 12.680525
_cell_length_b 17.763552
_cell_length_c 13.479754
_cell_angle_alpha 90.000000
_cell_angle_beta 90.000000
_cell_angle_gamma 90.000000
_cell_volume 3036.330295
_symmetry_space_group_name_H-M "C 2 2 21"
_symmetry_group_IT_number 20
_symmetry_cell_setting 'orthorhombic'
loop_
_space_group_symop_operation_xyz
x,y,z
-x,-y,1/2+z
x,-y,-z
-x,y,1/2-z
1/2+x,1/2+y,z
1/2-x,1/2-y,1/2+z
1/2+x,1/2-y,-z
1/2-x,1/2+y,1/2-z
loop_
_atom_site_type_symbol
_atom_site_label
_atom_site_fract_x
_atom_site_fract_y
_atom_site_fract_z
Si Si1 0.433310 0.702019 0.650810
Si Si2 0.709649 0.907963 0.089354
Si Si3 0.443717 0.583871 0.967012
Si Si4 0.523036 0.182039 0.858390
Si Si5 0.070457 0.843907 0.675008
Si Si6 0.884649 0.438108 0.628316
Si Si7 0.561723 0.157517 0.434973
Si Si8 0.708323 0.191297 0.262753
O O1 0.500000 0.689367 0.750000
O O2 0.460222 0.630474 0.582102
O O3 0.481963 0.773823 0.592699
O O4 0.326183 0.734286 0.699861
O O5 0.835882 0.912276 0.098747
O O6 0.646183 0.833429 0.119670
O O7 0.651318 0.976697 0.146056
O O8 0.677028 0.918529 0.974015
O O9 0.472858 0.500000 0.000000
O O10 0.406539 0.620122 0.070426
O O11 0.500000 0.149547 0.750000
O O12 0.494504 0.269366 0.852528
O O13 0.448281 0.150846 0.946534
O O14 0.171795 0.821839 0.737483
O O15 0.000000 0.893176 0.750000
O O16 0.849733 0.379861 0.711501
O O17 0.006927 0.418447 0.607077
O O18 0.666504 0.184159 0.376180
#
# Coordination Sequence:
#
# PCOD9317221 Si02
#       8
#     8   8   8   8   8   8   8   8
#     4   9  20  36  59  90 120 155 208 266 310 382
#     4  10  19  35  62  90 127 168 210 257 316 378
#     4  12  22  39  65  93 124 171 218 260 324 390
#     4  10  22  38  56  91 131 163 208 268 327 369
#     4  11  24  41  61  92 126 166 215 273 328 386
#     4   9  16  33  60  97 118 158 219 258 302 372
#     4   9  18  35  62  89 124 164 208 260 315 387
#     4  10  19  38  63  92 124 164 217 262 331 380
#
# _framework density 21.078075999999999
#
# number of rings (size 3 to 8) (size 9 to 14) (size 15 to 20)
#    0.000    2.000    3.750    1.125    0.000    5.500 
#    2.250    0.000    0.000    1.500    0.000    0.000 
#    0.000    0.000    0.000    0.000    0.000    0.000 
#
# Total GULP energy -178147.272333 kJ/mol
# GULP energy per Si atom -5567.102260 kJ/mol
# Density = 2.103010 g / cm^3
# Si number density = 21.078076 Si / 1000 Ang^3
#
#
#
# Elastic Constant Matrix: (Units=GPa)
#
#
# Indices 1 2 3 4 5 6 
#
# 1 69.0082 30.0017 39.7749 0.0000 0.0000 0.0000
# 2 30.0017 73.0967 23.0329 0.0000 0.0000 0.0000
# 3 39.7749 23.0329 95.0169 0.0000 0.0000 0.0000
# 4 0.0000 0.0000 0.0000 4.0610 0.0000 0.0000
# 5 0.0000 0.0000 0.0000 0.0000 19.5782 0.0000
# 6 0.0000 0.0000 0.0000 0.0000 0.0000 9.9956
#
#
#
# Elastic Compliance Matrix: (Units=1/GPa)
#
#
# Indices 1 2 3 4 5 6 
#
# 1 0.021637 -0.006525 -0.007476 0.000000 0.000000 0.000000
# 2 -0.006525 0.016780 -0.001336 0.000000 0.000000 0.000000
# 3 -0.007476 -0.001336 0.013978 0.000000 0.000000 0.000000
# 4 0.000000 0.000000 0.000000 0.246244 0.000000 0.000000
# 5 0.000000 0.000000 0.000000 0.000000 0.051077 0.000000
# 6 0.000000 0.000000 0.000000 0.000000 0.000000 0.100044
#
#
# Mechanical properties :
#
#
# Convention : Reuss Voigt Hill
#
# Bulk Modulus (GPa) = 46.03919 46.97118 46.50518
# Shear Modulus (GPa) = 10.25280 16.34779 13.30029
#
# Velocity S-wave (km/s) = 2.20789 2.78795 2.51470
# Velocity P-wave (km/s) = 5.32816 5.71807 5.52655
#
# Compressibility (1/GPa) = 0.02172063
#
# Stress axis : x y z
#
# Youngs Moduli (GPa) = 46.21816 59.59616 71.54278
#
# Poissons Ratio (x) = 0.38886 0.53482
# Poissons Ratio (y) = 0.30157 0.09559
# Poissons Ratio (z) = 0.34551 0.07963
#
# Static dielectric constant tensor:
#      x y z
#    x 1.809750 0.000000 0.000000 
#    y 0.000000 1.840930 0.000000 
#    z 0.000000 0.000000 1.850770 
# 
# From -- ./inp_files/20274.got.cif
#   From: 2010.05.17/outbox.cif.g08.bks.cpg/sg20_11_cif.got.tgz:20274.got - 2010.06.03 22:52:26.
