data_PCOD9317357
_publ_section_title
;
Structure prediction by ZEFSAII (Michael W. Deem and Ramdas Pophale) SiO2 
 PCOD9317357
Probable space group: C 2 2 21
;
_chemical_formula_sum "Si O2"
_cell_formula_units_Z 44
_cell_length_a 15.796757
_cell_length_b 11.794508
_cell_length_c 10.367044
_cell_angle_alpha 90.000000
_cell_angle_beta 90.000000
_cell_angle_gamma 90.000000
_cell_volume 1931.535562
_symmetry_space_group_name_H-M "C 2 2 21"
_symmetry_group_IT_number 20
_symmetry_cell_setting 'orthorhombic'
loop_
_space_group_symop_operation_xyz
x,y,z
-x,-y,1/2+z
x,-y,-z
-x,y,1/2-z
1/2+x,1/2+y,z
1/2-x,1/2-y,1/2+z
1/2+x,1/2-y,-z
1/2-x,1/2+y,1/2-z
loop_
_atom_site_type_symbol
_atom_site_label
_atom_site_fract_x
_atom_site_fract_y
_atom_site_fract_z
Si Si1 0.167304 0.635658 0.140500
Si Si2 0.237623 0.592493 0.397992
Si Si3 0.529390 0.630755 0.493039
Si Si4 0.333459 0.769762 0.110406
Si Si5 0.500000 0.246076 0.250000
Si Si6 0.619839 0.784144 0.119483
O O1 0.207205 0.557845 0.254557
O O2 0.235456 0.740260 0.138479
O O3 0.076746 0.673022 0.194782
O O4 0.148737 0.623710 0.986972
O O5 0.269605 0.500000 0.500000
O O6 0.163890 0.652634 0.483004
O O7 0.309587 0.685578 0.379029
O O8 0.503838 0.500000 0.500000
O O9 0.618518 0.652576 0.422300
O O10 0.535430 0.674246 0.638099
O O11 0.463935 0.716494 0.423341
O O12 0.379408 0.824448 0.233235
#
# Coordination Sequence:
#
# PCOD9317357 Si02
#       6
#     8   8   8   8   4   8
#     4   9  19  38  58  81 113 158 196 241 295 347
#     4  10  19  37  60  84 113 159 205 241 292 356
#     4  11  22  35  59  92 122 150 191 245 315 372
#     4  10  20  37  57  85 121 153 195 243 297 357
#     4  10  20  38  62  80 120 158 200 242 304 356
#     4   9  20  36  59  84 119 155 189 248 306 363
#
# _framework density 22.779803999999999
#
# number of rings (size 3 to 8) (size 9 to 14) (size 15 to 20)
#    0.000    2.182    1.818    1.091    2.545    0.000 
#    6.545    0.909    4.000    1.091    0.000    0.000 
#    0.000    0.000    0.000    0.000    0.000    0.000 
#
# Total GULP energy -122544.005400 kJ/mol
# GULP energy per Si atom -5570.182064 kJ/mol
# Density = 2.272796 g / cm^3
# Si number density = 22.779804 Si / 1000 Ang^3
#
#
#
# Elastic Constant Matrix: (Units=GPa)
#
#
# Indices 1 2 3 4 5 6 
#
# 1 72.3531 3.1641 27.4633 0.0000 0.0000 0.0000
# 2 3.1641 45.4976 -11.6175 0.0000 0.0000 0.0000
# 3 27.4633 -11.6175 119.2101 0.0000 0.0000 0.0000
# 4 0.0000 0.0000 0.0000 10.4308 0.0000 0.0000
# 5 0.0000 0.0000 0.0000 0.0000 26.8778 0.0000
# 6 0.0000 0.0000 0.0000 0.0000 0.0000 13.0656
#
#
#
# Elastic Compliance Matrix: (Units=1/GPa)
#
#
# Indices 1 2 3 4 5 6 
#
# 1 0.015324 -0.002017 -0.003727 0.000000 0.000000 0.000000
# 2 -0.002017 0.022806 0.002687 0.000000 0.000000 0.000000
# 3 -0.003727 0.002687 0.009509 0.000000 0.000000 0.000000
# 4 0.000000 0.000000 0.000000 0.095870 0.000000 0.000000
# 5 0.000000 0.000000 0.000000 0.000000 0.037205 0.000000
# 6 0.000000 0.000000 0.000000 0.000000 0.000000 0.076537
#
#
# Mechanical properties :
#
#
# Convention : Reuss Voigt Hill
#
# Bulk Modulus (GPa) = 24.08207 30.56452 27.32330
# Shear Modulus (GPa) = 18.03710 24.61156 21.32433
#
# Velocity S-wave (km/s) = 2.81695 3.29053 3.06291
# Velocity P-wave (km/s) = 4.60162 5.28046 4.95268
#
# Compressibility (1/GPa) = 0.04152467
#
# Stress axis : x y z
#
# Youngs Moduli (GPa) = 65.25726 43.84880 105.16323
#
# Poissons Ratio (x) = 0.08846 0.39193
# Poissons Ratio (y) = 0.13165 -0.28260
# Poissons Ratio (z) = 0.24321 -0.11783
#
# Static dielectric constant tensor:
#      x y z
#    x 1.848940 0.000000 0.000000 
#    y 0.000000 1.851490 0.000000 
#    z 0.000000 0.000000 1.950650 
# 
# From -- ./inp_files/9265.got.cif
#   From: 2010.05.17/outbox.cif.g08.bks.cpg/sg20_5_cif.got.tgz:9265.got - 2010.06.03 22:52:26.
