data_PCOD9317343
_publ_section_title
;
Structure prediction by ZEFSAII (Michael W. Deem and Ramdas Pophale) SiO2 
 PCOD9317343
Probable space group: C 2 2 21
;
_chemical_formula_sum "Si O2"
_cell_formula_units_Z 48
_cell_length_a 27.921618
_cell_length_b 5.851516
_cell_length_c 13.742336
_cell_angle_alpha 90.000000
_cell_angle_beta 90.000000
_cell_angle_gamma 90.000000
_cell_volume 2245.275001
_symmetry_space_group_name_H-M "C 2 2 21"
_symmetry_group_IT_number 20
_symmetry_cell_setting 'orthorhombic'
loop_
_space_group_symop_operation_xyz
x,y,z
-x,-y,1/2+z
x,-y,-z
-x,y,1/2-z
1/2+x,1/2+y,z
1/2-x,1/2-y,1/2+z
1/2+x,1/2-y,-z
1/2-x,1/2+y,1/2-z
loop_
_atom_site_type_symbol
_atom_site_label
_atom_site_fract_x
_atom_site_fract_y
_atom_site_fract_z
Si Si1 0.305730 0.645558 0.774465
Si Si2 0.978664 0.754341 0.641275
Si Si3 0.375233 0.242174 0.714653
Si Si4 0.014033 0.248756 0.635968
Si Si5 0.117082 0.578058 0.389314
Si Si6 0.211445 0.520900 0.115523
O O1 0.344088 0.450114 0.754076
O O2 0.334505 0.820135 0.843566
O O3 0.257643 0.585051 0.831488
O O4 0.291454 0.732438 0.666870
O O5 0.921496 0.782676 0.649127
O O6 0.000000 0.749770 0.750000
O O7 0.992828 0.498722 0.602399
O O8 0.996872 0.998568 0.600317
O O9 0.337462 0.094796 0.652695
O O10 0.394483 0.120785 0.812296
O O11 0.070912 0.259548 0.617811
O O12 0.000000 0.246523 0.750000
O O13 0.123368 0.500000 0.500000
O O14 0.215668 0.500000 0.000000
#
# Coordination Sequence:
#
# PCOD9317343 Si02
#       6
#     8   8   8   8   8   8
#     4  11  24  45  69 100 138 183 234 297 368 427
#     4  10  19  36  70  92 133 188 232 290 359 424
#     4  11  23  44  68  98 137 190 235 289 363 431
#     4  10  19  39  64  97 131 183 228 296 360 426
#     4  11  25  40  68 103 140 181 243 299 364 435
#     4  11  26  45  71 104 141 183 240 298 366 442
#
# _framework density 21.378226999999999
#
# number of rings (size 3 to 8) (size 9 to 14) (size 15 to 20)
#    0.000    1.333    5.000    2.000    4.667    0.667 
#    0.000    0.833    3.667    0.000    0.000    0.000 
#    0.000    0.000    0.000    0.000    0.000    0.000 
#
# Total GULP energy -133798.866495 kJ/mol
# GULP energy per Si atom -5574.952771 kJ/mol
# Density = 2.132957 g / cm^3
# Si number density = 21.378227 Si / 1000 Ang^3
#
#
#
# Elastic Constant Matrix: (Units=GPa)
#
#
# Indices 1 2 3 4 5 6 
#
# 1 142.5340 44.2946 37.2612 0.0000 0.0000 0.0000
# 2 44.2946 130.8793 57.6335 0.0000 0.0000 0.0000
# 3 37.2612 57.6335 151.0115 0.0000 0.0000 0.0000
# 4 0.0000 0.0000 0.0000 -24.3049 0.0000 0.0000
# 5 0.0000 0.0000 0.0000 0.0000 -62.8428 0.0000
# 6 0.0000 0.0000 0.0000 0.0000 0.0000 21.4829
#
#
#
# Elastic Compliance Matrix: (Units=1/GPa)
#
#
# Indices 1 2 3 4 5 6 
#
# 1 0.007998 -0.002209 -0.001130 0.000000 0.000000 0.000000
# 2 -0.002209 0.009794 -0.003193 0.000000 0.000000 0.000000
# 3 -0.001130 -0.003193 0.008119 0.000000 0.000000 0.000000
# 4 0.000000 0.000000 0.000000 -0.041144 0.000000 0.000000
# 5 0.000000 0.000000 0.000000 0.000000 -0.015913 0.000000
# 6 0.000000 0.000000 0.000000 0.000000 0.000000 0.046549
#
#
# Mechanical properties :
#
#
# Convention : Reuss Voigt Hill
#
# Bulk Modulus (GPa) = 77.83898 78.08928 77.96413
# Shear Modulus (GPa) = 152.67005 5.88276 79.27641
#
# Velocity S-wave (km/s) = 8.45984 1.66064 6.09617
# Velocity P-wave (km/s) = 11.48541 6.34695 9.27896
#
# Compressibility (1/GPa) = 0.01284703
#
# Stress axis : x y z
#
# Youngs Moduli (GPa) = 125.03359 102.10051 123.16038
#
# Poissons Ratio (x) = 0.22554 0.13921
# Poissons Ratio (y) = 0.27620 0.39324
# Poissons Ratio (z) = 0.14133 0.32600
#
# Static dielectric constant tensor:
#      x y z
#    x 1.798250 0.000000 0.000000 
#    y 0.000000 1.889310 0.000000 
#    z 0.000000 0.000000 1.727830 
# 
# From -- ./inp_files/22147.got.cif
#   From: 2010.05.17/outbox.cif.g08.bks.cpg/sg20_12_cif.got.tgz:22147.got - 2010.06.03 22:52:26.
