data_PCOD9317854
_publ_section_title
;
Structure prediction by ZEFSAII (Michael W. Deem and Ramdas Pophale) SiO2 
 PCOD9317854
Probable space group: C 2 2 21
;
_chemical_formula_sum "Si O2"
_cell_formula_units_Z 48
_cell_length_a 11.703397
_cell_length_b 10.304551
_cell_length_c 15.072830
_cell_angle_alpha 90.000000
_cell_angle_beta 90.000000
_cell_angle_gamma 90.000000
_cell_volume 1817.756940
_symmetry_space_group_name_H-M "C 2 2 21"
_symmetry_group_IT_number 20
_symmetry_cell_setting 'orthorhombic'
loop_
_space_group_symop_operation_xyz
x,y,z
-x,-y,1/2+z
x,-y,-z
-x,y,1/2-z
1/2+x,1/2+y,z
1/2-x,1/2-y,1/2+z
1/2+x,1/2-y,-z
1/2-x,1/2+y,1/2-z
loop_
_atom_site_type_symbol
_atom_site_label
_atom_site_fract_x
_atom_site_fract_y
_atom_site_fract_z
Si Si1 0.922683 0.242087 0.174087
Si Si2 0.818616 0.245594 0.001137
Si Si3 0.963220 0.772162 0.162051
Si Si4 0.113307 0.421361 0.084442
Si Si5 0.757384 0.938278 0.239086
Si Si6 0.838756 0.054605 0.587073
O O1 0.875449 0.171173 0.085540
O O2 0.819518 0.317983 0.223317
O O3 0.000000 0.173011 0.250000
O O4 0.011262 0.344520 0.130812
O O5 0.768187 0.373601 0.044475
O O6 0.904536 0.286064 0.923806
O O7 0.712342 0.171451 0.956386
O O8 0.871656 0.880252 0.195156
O O9 0.000000 0.694236 0.250000
O O10 0.076254 0.840534 0.126954
O O11 0.179252 0.499458 0.162512
O O12 0.072554 0.500000 0.000000
O O13 0.792634 0.021117 0.326116
O O14 0.899705 0.000000 0.500000
#
# Coordination Sequence:
#
# PCOD9317854 Si02
#       6
#     8   8   8   8   8   8
#     4   9  18  35  58  81 111 149 184 226 278 326
#     4  10  20  36  58  84 112 148 188 228 274 326
#     4   9  18  35  58  81 111 149 184 226 278 326
#     4  10  20  36  58  83 111 146 186 229 276 328
#     4   8  18  36  56  78 112 148 180 226 278 326
#     4  10  20  36  58  83 111 146 186 229 276 328
#
# _framework density 26.406172000000002
#
# number of rings (size 3 to 8) (size 9 to 14) (size 15 to 20)
#    0.000    2.667    0.000    1.000    0.000    5.333 
#    0.000   13.333    0.000   20.000    0.000    0.000 
#    0.000    0.000    0.000    0.000    0.000    0.000 
#
# Total GULP energy -134070.434142 kJ/mol
# GULP energy per Si atom -5586.268089 kJ/mol
# Density = 2.634607 g / cm^3
# Si number density = 26.406172 Si / 1000 Ang^3
#
#
#
# Elastic Constant Matrix: (Units=GPa)
#
#
# Indices 1 2 3 4 5 6 
#
# 1 128.4664 27.0170 68.1688 0.0000 0.0000 0.0000
# 2 27.0170 29.7577 39.0746 0.0000 0.0000 0.0000
# 3 68.1688 39.0746 200.4962 0.0000 0.0000 0.0000
# 4 0.0000 0.0000 0.0000 25.1775 0.0000 0.0000
# 5 0.0000 0.0000 0.0000 0.0000 73.5882 0.0000
# 6 0.0000 0.0000 0.0000 0.0000 0.0000 84.3961
#
#
#
# Elastic Compliance Matrix: (Units=1/GPa)
#
#
# Indices 1 2 3 4 5 6 
#
# 1 0.010333 -0.006408 -0.002264 0.000000 0.000000 0.000000
# 2 -0.006408 0.049136 -0.007397 0.000000 0.000000 0.000000
# 3 -0.002264 -0.007397 0.007199 0.000000 0.000000 0.000000
# 4 0.000000 0.000000 0.000000 0.039718 0.000000 0.000000
# 5 0.000000 0.000000 0.000000 0.000000 0.013589 0.000000
# 6 0.000000 0.000000 0.000000 0.000000 0.000000 0.011849
#
#
# Mechanical properties :
#
#
# Convention : Reuss Voigt Hill
#
# Bulk Modulus (GPa) = 28.96140 69.69346 49.32743
# Shear Modulus (GPa) = 28.49417 51.59635 40.04526
#
# Velocity S-wave (km/s) = 3.28849 4.42515 3.89847
# Velocity P-wave (km/s) = 5.04087 7.24979 6.24379
#
# Compressibility (1/GPa) = 0.03452871
#
# Stress axis : x y z
#
# Youngs Moduli (GPa) = 96.77334 20.35160 138.90416
#
# Poissons Ratio (x) = 0.13042 0.31454
# Poissons Ratio (y) = 0.62015 1.02752
# Poissons Ratio (z) = 0.21914 0.15055
#
# Static dielectric constant tensor:
#      x y z
#    x 2.041370 0.000000 0.000000 
#    y 0.000000 2.158720 0.000000 
#    z 0.000000 0.000000 2.276270 
# 
# From -- ./inp_files/19951.got.cif
#   From: 2010.05.17/outbox.cif.g08.bks.cpg/sg20_10_cif.got.tgz:19951.got - 2010.06.03 22:52:26.
