data_PCOD9317723
_publ_section_title
;
Structure prediction by ZEFSAII (Michael W. Deem and Ramdas Pophale) SiO2 
 PCOD9317723
Probable space group: C 2 2 21
;
_chemical_formula_sum "Si O2"
_cell_formula_units_Z 36
_cell_length_a 16.147183
_cell_length_b 9.366725
_cell_length_c 9.267617
_cell_angle_alpha 90.000000
_cell_angle_beta 90.000000
_cell_angle_gamma 90.000000
_cell_volume 1401.692065
_symmetry_space_group_name_H-M "C 2 2 21"
_symmetry_group_IT_number 20
_symmetry_cell_setting 'orthorhombic'
loop_
_space_group_symop_operation_xyz
x,y,z
-x,-y,1/2+z
x,-y,-z
-x,y,1/2-z
1/2+x,1/2+y,z
1/2-x,1/2-y,1/2+z
1/2+x,1/2-y,-z
1/2-x,1/2+y,1/2-z
loop_
_atom_site_type_symbol
_atom_site_label
_atom_site_fract_x
_atom_site_fract_y
_atom_site_fract_z
Si Si1 0.732333 0.353570 0.586073
Si Si2 0.365666 0.433021 0.660562
Si Si3 0.898887 0.764168 0.327480
Si Si4 0.000000 0.697637 0.750000
Si Si5 0.928924 0.312483 0.963514
O O1 0.741147 0.500000 0.500000
O O2 0.715687 0.382468 0.755946
O O3 0.818561 0.269764 0.576228
O O4 0.651594 0.270701 0.526535
O O5 0.361902 0.500000 0.500000
O O6 0.390936 0.579276 0.743338
O O7 0.430574 0.307749 0.690769
O O8 0.899017 0.649324 0.198131
O O9 0.984960 0.761813 0.412349
O O10 0.036359 0.613680 0.611116
#
# Coordination Sequence:
#
# PCOD9317723 Si02
#       5
#     8   8   8   4   8
#     4  11  25  42  66  97 136 173 220 278 333 392
#     4  11  22  34  61  94 131 163 217 271 335 386
#     4  11  23  39  67  93 134 175 220 272 336 397
#     4  10  20  34  62 102 126 162 218 284 324 370
#     4  10  22  40  66  97 130 172 219 276 330 391
#
# _framework density 25.683243999999998
#
# number of rings (size 3 to 8) (size 9 to 14) (size 15 to 20)
#    0.000    1.333    4.444    1.333    6.222    0.000 
#    0.000    0.000    9.778    0.000    0.000    0.000 
#    0.000    0.000    0.000    0.000    0.000    0.000 
#
# Total GULP energy -100222.974721 kJ/mol
# GULP energy per Si atom -5567.943040 kJ/mol
# Density = 2.562479 g / cm^3
# Si number density = 25.683244 Si / 1000 Ang^3
#
#
#
# Elastic Constant Matrix: (Units=GPa)
#
#
# Indices 1 2 3 4 5 6 
#
# 1 202.8264 21.4682 29.3327 0.0000 0.0000 0.0000
# 2 21.4682 41.8674 -5.8955 0.0000 0.0000 0.0000
# 3 29.3327 -5.8955 116.6983 0.0000 0.0000 0.0000
# 4 0.0000 0.0000 0.0000 22.9601 0.0000 0.0000
# 5 0.0000 0.0000 0.0000 0.0000 39.7529 0.0000
# 6 0.0000 0.0000 0.0000 0.0000 0.0000 16.5820
#
#
#
# Elastic Compliance Matrix: (Units=1/GPa)
#
#
# Indices 1 2 3 4 5 6 
#
# 1 0.005471 -0.003020 -0.001528 0.000000 0.000000 0.000000
# 2 -0.003020 0.025724 0.002059 0.000000 0.000000 0.000000
# 3 -0.001528 0.002059 0.009057 0.000000 0.000000 0.000000
# 4 0.000000 0.000000 0.000000 0.043554 0.000000 0.000000
# 5 0.000000 0.000000 0.000000 0.000000 0.025155 0.000000
# 6 0.000000 0.000000 0.000000 0.000000 0.000000 0.060306
#
#
# Mechanical properties :
#
#
# Convention : Reuss Voigt Hill
#
# Bulk Modulus (GPa) = 28.35047 50.13366 39.24206
# Shear Modulus (GPa) = 26.88117 36.95811 31.91964
#
# Velocity S-wave (km/s) = 3.23869 3.79753 3.52919
# Velocity P-wave (km/s) = 5.00480 6.22821 5.64972
#
# Compressibility (1/GPa) = 0.03527279
#
# Stress axis : x y z
#
# Youngs Moduli (GPa) = 182.78297 38.87477 110.41043
#
# Poissons Ratio (x) = 0.11742 0.16868
# Poissons Ratio (y) = 0.55209 -0.22731
# Poissons Ratio (z) = 0.27925 -0.08003
#
# Static dielectric constant tensor:
#      x y z
#    x 1.958240 0.000000 0.000000 
#    y 0.000000 2.048680 0.000000 
#    z 0.000000 0.000000 2.210790 
# 
# From -- ./inp_files/8045.got.cif
#   From: 2010.05.17/outbox.cif.g08.bks.cpg/sg20_5_cif.got.tgz:8045.got - 2010.06.03 22:52:26.
