data_PCOD9317749
_publ_section_title
;
Structure prediction by ZEFSAII (Michael W. Deem and Ramdas Pophale) SiO2 
 PCOD9317749
Probable space group: C 2 2 21
;
_chemical_formula_sum "Si O2"
_cell_formula_units_Z 56
_cell_length_a 4.970458
_cell_length_b 32.273563
_cell_length_c 17.229661
_cell_angle_alpha 90.000000
_cell_angle_beta 90.000000
_cell_angle_gamma 90.000000
_cell_volume 2763.885549
_symmetry_space_group_name_H-M "C 2 2 21"
_symmetry_group_IT_number 20
_symmetry_cell_setting 'orthorhombic'
loop_
_space_group_symop_operation_xyz
x,y,z
-x,-y,1/2+z
x,-y,-z
-x,y,1/2-z
1/2+x,1/2+y,z
1/2-x,1/2-y,1/2+z
1/2+x,1/2-y,-z
1/2-x,1/2+y,1/2-z
loop_
_atom_site_type_symbol
_atom_site_label
_atom_site_fract_x
_atom_site_fract_y
_atom_site_fract_z
Si Si1 0.479820 0.953113 0.976181
Si Si2 0.263514 0.206466 0.696717
Si Si3 0.083608 0.151643 0.407879
Si Si4 0.021480 0.087605 0.537653
Si Si5 0.738734 0.888497 0.197278
Si Si6 0.587816 0.107090 0.338518
Si Si7 0.878514 0.241442 0.450439
O O1 0.417390 0.934930 0.890474
O O2 0.794219 0.943979 0.988892
O O3 0.287949 0.925611 0.032257
O O4 0.422967 0.000000 0.000000
O O5 0.500000 0.224190 0.750000
O O6 0.338768 0.158867 0.676510
O O7 0.248100 0.232002 0.618396
O O8 0.000000 0.207161 0.750000
O O9 0.878214 0.127715 0.350779
O O10 0.002786 0.199141 0.416573
O O11 0.049055 0.131033 0.492881
O O12 0.378861 0.139578 0.377974
O O13 0.158834 0.088845 0.620910
O O14 0.500000 0.906671 0.250000
O O15 0.000000 0.885452 0.250000
O O16 0.500000 0.100428 0.250000
O O17 0.631834 0.234951 0.510307
#
# Coordination Sequence:
#
# PCOD9317749 Si02
#       7
#     8   8   8   8   8   8   8
#     4  10  21  38  61  88 116 150 186 229 290 350
#     4  10  22  38  55  79 114 154 190 236 297 343
#     4  10  22  37  58  85 113 154 197 241 290 340
#     4  10  20  37  59  81 113 147 186 231 279 343
#     4  10  20  35  56  80 109 147 190 233 280 336
#     4  10  21  39  61  86 116 154 197 241 292 352
#     4  12  24  38  58  85 116 152 201 251 292 340
#
# _framework density 20.261331999999999
#
# number of rings (size 3 to 8) (size 9 to 14) (size 15 to 20)
#    0.000    1.714    0.000    4.286    0.000    6.286 
#    0.000    2.143    0.000    1.714    0.000    0.000 
#    0.000    0.000    0.000    0.000    0.000    0.000 
#
# Total GULP energy -156291.366914 kJ/mol
# GULP energy per Si atom -5581.834533 kJ/mol
# Density = 2.021522 g / cm^3
# Si number density = 20.261332 Si / 1000 Ang^3
#
#
#
# Elastic Constant Matrix: (Units=GPa)
#
#
# Indices 1 2 3 4 5 6 
#
# 1 84.6490 -13.4951 6.7042 0.0000 0.0000 0.0000
# 2 -13.4951 43.1934 18.1663 0.0000 0.0000 0.0000
# 3 6.7042 18.1663 89.6569 0.0000 0.0000 0.0000
# 4 0.0000 0.0000 0.0000 20.3312 0.0000 0.0000
# 5 0.0000 0.0000 0.0000 0.0000 31.8919 0.0000
# 6 0.0000 0.0000 0.0000 0.0000 0.0000 16.9903
#
#
#
# Elastic Compliance Matrix: (Units=1/GPa)
#
#
# Indices 1 2 3 4 5 6 
#
# 1 0.012728 0.004785 -0.001921 0.000000 0.000000 0.000000
# 2 0.004785 0.027107 -0.005850 0.000000 0.000000 0.000000
# 3 -0.001921 -0.005850 0.012483 0.000000 0.000000 0.000000
# 4 0.000000 0.000000 0.000000 0.049185 0.000000 0.000000
# 5 0.000000 0.000000 0.000000 0.000000 0.031356 0.000000
# 6 0.000000 0.000000 0.000000 0.000000 0.000000 0.058857
#
#
# Mechanical properties :
#
#
# Convention : Reuss Voigt Hill
#
# Bulk Modulus (GPa) = 21.57732 26.69445 24.13588
# Shear Modulus (GPa) = 23.45892 27.58427 25.52160
#
# Velocity S-wave (km/s) = 3.40636 3.69375 3.55296
# Velocity P-wave (km/s) = 5.11309 5.60316 5.36373
#
# Compressibility (1/GPa) = 0.04634496
#
# Stress axis : x y z
#
# Youngs Moduli (GPa) = 78.56395 36.89066 80.11104
#
# Poissons Ratio (x) = -0.17652 0.15392
# Poissons Ratio (y) = -0.37592 0.46867
# Poissons Ratio (z) = 0.15094 0.21582
#
# Static dielectric constant tensor:
#      x y z
#    x 1.702500 0.000000 0.000000 
#    y 0.000000 1.713720 0.000000 
#    z 0.000000 0.000000 1.702010 
# 
# From -- ./inp_files/17957.got.cif
#   From: 2010.05.17/outbox.cif.g08.bks.cpg/sg20_9_cif.got.tgz:17957.got - 2010.06.03 22:52:26.
