data_PCOD9317320
_publ_section_title
;
Structure prediction by ZEFSAII (Michael W. Deem and Ramdas Pophale) SiO2 
 PCOD9317320
Probable space group: C 2 2 21
;
_chemical_formula_sum "Si O2"
_cell_formula_units_Z 48
_cell_length_a 13.017716
_cell_length_b 17.182548
_cell_length_c 11.249868
_cell_angle_alpha 90.000000
_cell_angle_beta 90.000000
_cell_angle_gamma 90.000000
_cell_volume 2516.342687
_symmetry_space_group_name_H-M "C 2 2 21"
_symmetry_group_IT_number 20
_symmetry_cell_setting 'orthorhombic'
loop_
_space_group_symop_operation_xyz
x,y,z
-x,-y,1/2+z
x,-y,-z
-x,y,1/2-z
1/2+x,1/2+y,z
1/2-x,1/2-y,1/2+z
1/2+x,1/2-y,-z
1/2-x,1/2+y,1/2-z
loop_
_atom_site_type_symbol
_atom_site_label
_atom_site_fract_x
_atom_site_fract_y
_atom_site_fract_z
Si Si1 0.415655 0.194242 0.646521
Si Si2 0.749161 0.250458 0.184137
Si Si3 0.797110 0.466669 0.367651
Si Si4 0.907899 0.272896 0.972334
Si Si5 0.389584 0.369555 0.210790
Si Si6 0.378668 0.889563 0.772430
O O1 0.500000 0.195363 0.750000
O O2 0.320515 0.245137 0.696279
O O3 0.371059 0.107963 0.636339
O O4 0.479444 0.218494 0.530788
O O5 0.825419 0.252621 0.073602
O O6 0.677587 0.326912 0.187194
O O7 0.678845 0.174619 0.191215
O O8 0.804953 0.500000 0.500000
O O9 0.682760 0.434939 0.344442
O O10 0.829743 0.528785 0.266911
O O11 0.908996 0.202279 0.879298
O O12 0.874178 0.351969 0.904380
O O13 0.500000 0.399279 0.250000
O O14 0.500000 0.893422 0.750000
#
# Coordination Sequence:
#
# PCOD9317320 Si02
#       6
#     8   8   8   8   8   8
#     4   9  19  35  57  86 117 145 181 231 280 330
#     4   9  19  36  58  86 115 144 187 237 280 331
#     4  11  22  38  56  79 115 150 181 231 292 341
#     4  10  19  36  62  86 109 148 191 231 279 338
#     4  10  22  38  56  79 110 144 188 234 275 329
#     4  11  22  35  57  86 111 147 195 232 284 353
#
# _framework density 19.075303000000002
#
# number of rings (size 3 to 8) (size 9 to 14) (size 15 to 20)
#    0.000    2.000    0.000    4.500    0.000    6.667 
#    0.000   14.167    0.000    0.000    0.000    0.000 
#    0.000    0.000    0.000    0.000    0.000    0.000 
#
# Total GULP energy -133929.890875 kJ/mol
# GULP energy per Si atom -5580.412120 kJ/mol
# Density = 1.903189 g / cm^3
# Si number density = 19.075303 Si / 1000 Ang^3
#
#
#
# Elastic Constant Matrix: (Units=GPa)
#
#
# Indices 1 2 3 4 5 6 
#
# 1 122.3850 38.2431 23.8857 0.0000 0.0000 0.0000
# 2 38.2431 79.4475 26.8945 0.0000 0.0000 0.0000
# 3 23.8857 26.8945 61.3558 0.0000 0.0000 0.0000
# 4 0.0000 0.0000 0.0000 19.1377 0.0000 0.0000
# 5 0.0000 0.0000 0.0000 0.0000 32.6492 0.0000
# 6 0.0000 0.0000 0.0000 0.0000 0.0000 26.8315
#
#
#
# Elastic Compliance Matrix: (Units=1/GPa)
#
#
# Indices 1 2 3 4 5 6 
#
# 1 0.009834 -0.004037 -0.002059 0.000000 0.000000 0.000000
# 2 -0.004037 0.016437 -0.005633 0.000000 0.000000 0.000000
# 3 -0.002059 -0.005633 0.019569 0.000000 0.000000 0.000000
# 4 0.000000 0.000000 0.000000 0.052253 0.000000 0.000000
# 5 0.000000 0.000000 0.000000 0.000000 0.030629 0.000000
# 6 0.000000 0.000000 0.000000 0.000000 0.000000 0.037270
#
#
# Mechanical properties :
#
#
# Convention : Reuss Voigt Hill
#
# Bulk Modulus (GPa) = 44.67847 49.02608 46.85228
# Shear Modulus (GPa) = 25.39219 27.33468 26.36343
#
# Velocity S-wave (km/s) = 3.65246 3.78959 3.72166
# Velocity P-wave (km/s) = 6.42342 6.70113 6.56374
#
# Compressibility (1/GPa) = 0.02238214
#
# Stress axis : x y z
#
# Youngs Moduli (GPa) = 101.68574 60.83779 51.10048
#
# Poissons Ratio (x) = 0.24559 0.10521
# Poissons Ratio (y) = 0.41049 0.28787
# Poissons Ratio (z) = 0.20937 0.34273
#
# Static dielectric constant tensor:
#      x y z
#    x 1.677150 0.000000 0.000000 
#    y 0.000000 1.638040 0.000000 
#    z 0.000000 0.000000 1.701540 
# 
# From -- ./inp_files/14104.got.cif
#   From: 2010.05.17/outbox.cif.g08.bks.cpg/sg20_8_cif.got.tgz:14104.got - 2010.06.03 22:52:26.
