data_PCOD9317211
_publ_section_title
;
Structure prediction by ZEFSAII (Michael W. Deem and Ramdas Pophale) SiO2 
 PCOD9317211
Probable space group: C 2 2 21
;
_chemical_formula_sum "Si O2"
_cell_formula_units_Z 64
_cell_length_a 8.314902
_cell_length_b 33.777353
_cell_length_c 10.863603
_cell_angle_alpha 90.000000
_cell_angle_beta 90.000000
_cell_angle_gamma 90.000000
_cell_volume 3051.101349
_symmetry_space_group_name_H-M "C 2 2 21"
_symmetry_group_IT_number 20
_symmetry_cell_setting 'orthorhombic'
loop_
_space_group_symop_operation_xyz
x,y,z
-x,-y,1/2+z
x,-y,-z
-x,y,1/2-z
1/2+x,1/2+y,z
1/2-x,1/2-y,1/2+z
1/2+x,1/2-y,-z
1/2-x,1/2+y,1/2-z
loop_
_atom_site_type_symbol
_atom_site_label
_atom_site_fract_x
_atom_site_fract_y
_atom_site_fract_z
Si Si1 0.164230 0.632120 0.671414
Si Si2 0.489270 0.833973 0.541301
Si Si3 0.686110 0.435094 0.287948
Si Si4 0.268258 0.697838 0.846810
Si Si5 0.126714 0.016238 0.362550
Si Si6 0.261910 0.210963 0.205827
Si Si7 0.221079 0.898488 0.555408
Si Si8 0.944369 0.178771 0.078506
O O1 0.132186 0.645739 0.535000
O O2 0.229313 0.587997 0.678985
O O3 0.268988 0.664933 0.741439
O O4 0.000000 0.631532 0.750000
O O5 0.387721 0.810070 0.436023
O O6 0.579659 0.807138 0.641293
O O7 0.376519 0.871028 0.581864
O O8 0.500000 0.436647 0.250000
O O9 0.737900 0.479659 0.318689
O O10 0.713995 0.408487 0.409718
O O11 0.267644 0.741819 0.795788
O O12 0.414812 0.691262 0.939181
O O13 0.206877 0.058927 0.381827
O O14 0.000000 0.020799 0.250000
O O15 0.067555 0.000000 0.500000
O O16 0.205207 0.196476 0.340726
O O17 0.108518 0.196130 0.127584
O O18 0.074823 0.868657 0.587418
#
# Coordination Sequence:
#
# PCOD9317211 Si02
#       8
#     8   8   8   8   8   8   8   8
#     4  10  19  35  61  86 125 158 199 255 316 362
#     4  10  22  38  62  87 119 166 204 258 321 378
#     4  10  19  36  62  96 121 157 202 257 301 368
#     4  10  21  38  59  82 120 159 203 260 314 367
#     4   9  20  37  68  97 129 167 207 259 316 379
#     4  11  24  36  59  85 117 164 208 263 305 383
#     4  10  20  41  60  87 125 163 202 247 318 373
#     4  10  23  39  56  84 117 159 210 256 317 366
#
# _framework density 20.976032
#
# number of rings (size 3 to 8) (size 9 to 14) (size 15 to 20)
#    0.000    2.000    3.750    0.750   10.500    2.000 
#    0.000    0.000    2.750    0.000    0.000    0.000 
#    0.000    0.000    0.000    0.000    0.000    0.000 
#
# Total GULP energy -178442.957236 kJ/mol
# GULP energy per Si atom -5576.342414 kJ/mol
# Density = 2.092829 g / cm^3
# Si number density = 20.976032 Si / 1000 Ang^3
#
#
#
# Elastic Constant Matrix: (Units=GPa)
#
#
# Indices 1 2 3 4 5 6 
#
# 1 25.1748 16.3173 20.6812 0.0000 0.0000 0.0000
# 2 16.3173 181.6106 43.2688 0.0000 0.0000 0.0000
# 3 20.6812 43.2688 58.2370 0.0000 0.0000 0.0000
# 4 0.0000 0.0000 0.0000 3.7809 0.0000 0.0000
# 5 0.0000 0.0000 0.0000 0.0000 34.4366 0.0000
# 6 0.0000 0.0000 0.0000 0.0000 0.0000 0.0348
#
#
#
# Elastic Compliance Matrix: (Units=1/GPa)
#
#
# Indices 1 2 3 4 5 6 
#
# 1 0.056103 -0.000357 -0.019658 0.000000 0.000000 0.000000
# 2 -0.000357 0.006693 -0.004846 0.000000 0.000000 0.000000
# 3 -0.019658 -0.004846 0.027753 0.000000 0.000000 0.000000
# 4 0.000000 0.000000 0.000000 0.264485 0.000000 0.000000
# 5 0.000000 0.000000 0.000000 0.000000 0.029039 0.000000
# 6 0.000000 0.000000 0.000000 0.000000 0.000000 28.695609
#
#
# Mechanical properties :
#
#
# Convention : Reuss Voigt Hill
#
# Bulk Modulus (GPa) = 24.49398 47.28412 35.88905
# Shear Modulus (GPa) = 0.17157 19.96747 10.06952
#
# Velocity S-wave (km/s) = 0.28630 3.08866 2.19338
# Velocity P-wave (km/s) = 3.43683 5.94228 4.85399
#
# Compressibility (1/GPa) = 0.04082636
#
# Stress axis : x y z
#
# Youngs Moduli (GPa) = 17.82439 149.41200 36.03279
#
# Poissons Ratio (x) = 0.05337 0.70833
# Poissons Ratio (y) = 0.00637 0.17461
# Poissons Ratio (z) = 0.35039 0.72403
#
# Static dielectric constant tensor:
#      x y z
#    x 1.821230 0.000000 0.000000 
#    y 0.000000 1.752710 0.000000 
#    z 0.000000 0.000000 1.829770 
# 
# From -- ./inp_files/13401.got.cif
#   From: 2010.05.17/outbox.cif.g08.bks.cpg/sg20_7_cif.got.tgz:13401.got - 2010.06.03 22:52:26.
