data_PCOD9317079
_publ_section_title
;
Structure prediction by ZEFSAII (Michael W. Deem and Ramdas Pophale) SiO2 
 PCOD9317079
Probable space group: C 2 2 21
;
_chemical_formula_sum "Si O2"
_cell_formula_units_Z 64
_cell_length_a 10.281763
_cell_length_b 8.865644
_cell_length_c 31.365528
_cell_angle_alpha 90.000000
_cell_angle_beta 90.000000
_cell_angle_gamma 90.000000
_cell_volume 2859.107468
_symmetry_space_group_name_H-M "C 2 2 21"
_symmetry_group_IT_number 20
_symmetry_cell_setting 'orthorhombic'
loop_
_space_group_symop_operation_xyz
x,y,z
-x,-y,1/2+z
x,-y,-z
-x,y,1/2-z
1/2+x,1/2+y,z
1/2-x,1/2-y,1/2+z
1/2+x,1/2-y,-z
1/2-x,1/2+y,1/2-z
loop_
_atom_site_type_symbol
_atom_site_label
_atom_site_fract_x
_atom_site_fract_y
_atom_site_fract_z
Si Si1 0.445394 0.151014 0.011470
Si Si2 0.262672 0.688185 0.719613
Si Si3 0.059865 0.961907 0.451735
Si Si4 0.511673 0.788979 0.328860
Si Si5 0.963164 0.633481 0.337988
Si Si6 0.259538 0.841646 0.808199
Si Si7 0.976687 0.231154 0.418651
Si Si8 0.340128 0.967252 0.575568
O O1 0.406754 0.285127 0.043549
O O2 0.573318 0.088392 0.035854
O O3 0.469490 0.220500 0.964949
O O4 0.363296 0.000000 0.000000
O O5 0.125004 0.756999 0.703298
O O6 0.380198 0.760588 0.692860
O O7 0.280422 0.728832 0.768693
O O8 0.247715 0.511383 0.710042
O O9 0.021124 0.000000 0.500000
O O10 0.955771 0.050321 0.422092
O O11 0.191421 0.044033 0.437035
O O12 0.381147 0.692057 0.327409
O O13 0.562785 0.772489 0.377336
O O14 0.468599 0.961329 0.320514
O O15 0.892259 0.622524 0.383472
O O16 0.115838 0.676406 0.338959
O O17 0.863458 0.355507 0.414249
#
# Coordination Sequence:
#
# PCOD9317079 Si02
#       8
#     8   8   8   8   8   8   8   8
#     4   9  19  36  56  83 116 152 198 246 295 352
#     4  11  23  41  63  89 120 157 200 251 306 366
#     4  10  19  34  56  80 111 152 194 240 289 341
#     4  10  22  40  61  88 123 159 199 250 303 359
#     4  10  23  40  60  88 124 158 196 250 304 361
#     4  11  24  40  62  90 119 156 202 247 305 372
#     4   9  19  36  56  82 116 151 193 242 293 348
#     4  10  20  37  58  82 116 155 195 242 299 355
#
# _framework density 22.384608
#
# number of rings (size 3 to 8) (size 9 to 14) (size 15 to 20)
#    0.000    2.000    0.000    3.375    0.000    8.000 
#    0.000    6.875    0.000    0.000    0.000    0.000 
#    0.000    0.000    0.000    0.000    0.000    0.000 
#
# Total GULP energy -178227.532644 kJ/mol
# GULP energy per Si atom -5569.610395 kJ/mol
# Density = 2.233366 g / cm^3
# Si number density = 22.384608 Si / 1000 Ang^3
#
#
#
# Elastic Constant Matrix: (Units=GPa)
#
#
# Indices 1 2 3 4 5 6 
#
# 1 79.6720 16.4131 9.5518 0.0000 0.0000 0.0000
# 2 16.4131 65.8437 7.1022 0.0000 0.0000 0.0000
# 3 9.5518 7.1022 56.5033 0.0000 0.0000 0.0000
# 4 0.0000 0.0000 0.0000 30.0693 0.0000 0.0000
# 5 0.0000 0.0000 0.0000 0.0000 25.6710 0.0000
# 6 0.0000 0.0000 0.0000 0.0000 0.0000 24.3198
#
#
#
# Elastic Compliance Matrix: (Units=1/GPa)
#
#
# Indices 1 2 3 4 5 6 
#
# 1 0.013424 -0.003144 -0.001874 0.000000 0.000000 0.000000
# 2 -0.003144 0.016133 -0.001496 0.000000 0.000000 0.000000
# 3 -0.001874 -0.001496 0.018203 0.000000 0.000000 0.000000
# 4 0.000000 0.000000 0.000000 0.033257 0.000000 0.000000
# 5 0.000000 0.000000 0.000000 0.000000 0.038954 0.000000
# 6 0.000000 0.000000 0.000000 0.000000 0.000000 0.041119
#
#
# Mechanical properties :
#
#
# Convention : Reuss Voigt Hill
#
# Bulk Modulus (GPa) = 28.79311 29.79481 29.29396
# Shear Modulus (GPa) = 26.92590 27.27549 27.10069
#
# Velocity S-wave (km/s) = 3.47201 3.49448 3.48326
# Velocity P-wave (km/s) = 5.38182 5.44253 5.41226
#
# Compressibility (1/GPa) = 0.03473053
#
# Stress axis : x y z
#
# Youngs Moduli (GPa) = 74.49426 61.98627 54.93606
#
# Poissons Ratio (x) = 0.19489 0.10296
# Poissons Ratio (y) = 0.23421 0.08220
# Poissons Ratio (z) = 0.13961 0.09275
#
# Static dielectric constant tensor:
#      x y z
#    x 1.832570 0.000000 0.000000 
#    y 0.000000 1.965200 0.000000 
#    z 0.000000 0.000000 1.836810 
# 
# From -- ./inp_files/31226.got.cif
#   From: 2010.05.17/outbox.cif.g08.bks.cpg/sg20_16_cif.got.tgz:31226.got - 2010.06.03 22:52:26.
