data_PCOD9317962
_publ_section_title
;
Structure prediction by ZEFSAII (Michael W. Deem and Ramdas Pophale) SiO2 
 PCOD9317962
Probable space group: C 2 2 21
;
_chemical_formula_sum "Si O2"
_cell_formula_units_Z 52
_cell_length_a 19.176280
_cell_length_b 8.908349
_cell_length_c 14.290212
_cell_angle_alpha 90.000000
_cell_angle_beta 90.000000
_cell_angle_gamma 90.000000
_cell_volume 2441.182551
_symmetry_space_group_name_H-M "C 2 2 21"
_symmetry_group_IT_number 20
_symmetry_cell_setting 'orthorhombic'
loop_
_space_group_symop_operation_xyz
x,y,z
-x,-y,1/2+z
x,-y,-z
-x,y,1/2-z
1/2+x,1/2+y,z
1/2-x,1/2-y,1/2+z
1/2+x,1/2-y,-z
1/2-x,1/2+y,1/2-z
loop_
_atom_site_type_symbol
_atom_site_label
_atom_site_fract_x
_atom_site_fract_y
_atom_site_fract_z
Si Si1 0.439314 0.014859 0.389188
Si Si2 0.536973 0.701306 0.659702
Si Si3 0.625574 0.249433 0.635687
Si Si4 0.696170 0.793650 0.657198
Si Si5 0.000000 0.732562 0.750000
Si Si6 0.647015 0.000000 0.500000
Si Si7 0.796704 0.451678 0.290323
Si Si8 0.900486 0.000000 0.000000
O O1 0.485896 0.159420 0.363207
O O2 0.441272 0.000000 0.500000
O O3 0.469021 0.875000 0.330277
O O4 0.359222 0.013265 0.354191
O O5 0.500000 0.628730 0.750000
O O6 0.615080 0.762040 0.682231
O O7 0.551207 0.598082 0.569516
O O8 0.563237 0.313334 0.699030
O O9 0.604157 0.109032 0.568093
O O10 0.674756 0.162677 0.709332
O O11 0.643344 0.383661 0.564295
O O12 0.739037 0.641281 0.654437
O O13 0.692947 0.887610 0.561710
O O14 0.729652 0.905078 0.733113
#
# Coordination Sequence:
#
# PCOD9317962 Si02
#       8
#     8   8   8   8   4   4   8   4
#     4  11  21  42  72 100 135 182 241 287 348 425
#     4  12  24  45  72 104 142 190 241 299 359 426
#     4  10  22  40  64  98 136 184 234 285 355 424
#     4  11  23  45  72 102 141 191 240 292 362 431
#     4  10  20  36  68  96 128 176 236 290 340 414
#     4  10  20  42  66  97 133 188 238 278 346 442
#     4  10  24  44  69 102 140 193 231 300 357 432
#     4  12  26  38  68 109 141 182 234 310 350 436
#
# _framework density 21.30115
#
# number of rings (size 3 to 8) (size 9 to 14) (size 15 to 20)
#    0.000    1.231    3.846    2.769    5.385    0.000 
#    6.923    0.000    0.000    2.769    0.000    0.000 
#    0.000    0.000    0.000    0.000    0.000    0.000 
#
# Total GULP energy -145062.322079 kJ/mol
# GULP energy per Si atom -5579.320080 kJ/mol
# Density = 2.125267 g / cm^3
# Si number density = 21.301150 Si / 1000 Ang^3
#
#
#
# Elastic Constant Matrix: (Units=GPa)
#
#
# Indices 1 2 3 4 5 6 
#
# 1 66.6330 46.5511 20.6340 0.0000 0.0000 0.0000
# 2 46.5511 101.7373 36.6604 0.0000 0.0000 0.0000
# 3 20.6340 36.6604 113.7542 0.0000 0.0000 0.0000
# 4 0.0000 0.0000 0.0000 59.8896 0.0000 0.0000
# 5 0.0000 0.0000 0.0000 0.0000 7.9675 0.0000
# 6 0.0000 0.0000 0.0000 0.0000 0.0000 67.8469
#
#
#
# Elastic Compliance Matrix: (Units=1/GPa)
#
#
# Indices 1 2 3 4 5 6 
#
# 1 0.022131 -0.009820 -0.000850 0.000000 0.000000 0.000000
# 2 -0.009820 0.015478 -0.003207 0.000000 0.000000 0.000000
# 3 -0.000850 -0.003207 0.009979 0.000000 0.000000 0.000000
# 4 0.000000 0.000000 0.000000 0.016697 0.000000 0.000000
# 5 0.000000 0.000000 0.000000 0.000000 0.125510 0.000000
# 6 0.000000 0.000000 0.000000 0.000000 0.000000 0.014739
#
#
# Mechanical properties :
#
#
# Convention : Reuss Voigt Hill
#
# Bulk Modulus (GPa) = 50.41746 54.42394 52.42070
# Shear Modulus (GPa) = 20.92925 39.02606 29.97766
#
# Velocity S-wave (km/s) = 3.13795 4.28496 3.75550
# Velocity P-wave (km/s) = 6.07036 7.07718 6.59301
#
# Compressibility (1/GPa) = 0.01983440
#
# Stress axis : x y z
#
# Youngs Moduli (GPa) = 45.18486 64.60679 100.21532
#
# Poissons Ratio (x) = 0.63446 0.08514
# Poissons Ratio (y) = 0.44373 0.32139
# Poissons Ratio (z) = 0.03839 0.20719
#
# Static dielectric constant tensor:
#      x y z
#    x 1.777340 0.000000 0.000000 
#    y 0.000000 1.793830 0.000000 
#    z 0.000000 0.000000 1.780980 
# 
# From -- ./inp_files/21742.got.cif
#   From: 2010.05.17/outbox.cif.g08.bks.cpg/sg20_11_cif.got.tgz:21742.got - 2010.06.03 22:52:26.
