data_PCOD9317240
_publ_section_title
;
Structure prediction by ZEFSAII (Michael W. Deem and Ramdas Pophale) SiO2 
 PCOD9317240
Probable space group: C 2 2 21
;
_chemical_formula_sum "Si O2"
_cell_formula_units_Z 40
_cell_length_a 9.095861
_cell_length_b 18.840205
_cell_length_c 8.243876
_cell_angle_alpha 90.000000
_cell_angle_beta 90.000000
_cell_angle_gamma 90.000000
_cell_volume 1412.735602
_symmetry_space_group_name_H-M "C 2 2 21"
_symmetry_group_IT_number 20
_symmetry_cell_setting 'orthorhombic'
loop_
_space_group_symop_operation_xyz
x,y,z
-x,-y,1/2+z
x,-y,-z
-x,y,1/2-z
1/2+x,1/2+y,z
1/2-x,1/2-y,1/2+z
1/2+x,1/2-y,-z
1/2-x,1/2+y,1/2-z
loop_
_atom_site_type_symbol
_atom_site_label
_atom_site_fract_x
_atom_site_fract_y
_atom_site_fract_z
Si Si1 0.500000 0.877962 0.750000
Si Si2 0.297177 0.295232 0.827918
Si Si3 0.000000 0.322691 0.250000
Si Si4 0.000000 0.985909 0.750000
Si Si5 0.905476 0.500000 0.000000
Si Si6 0.056430 0.139320 0.022722
Si Si7 0.734382 0.592529 0.734909
O O1 0.634055 0.824687 0.800413
O O2 0.523001 0.935372 0.604246
O O3 0.385300 0.221494 0.862967
O O4 0.363222 0.306779 0.645286
O O5 0.383008 0.344063 0.959969
O O6 0.874561 0.368499 0.340479
O O7 0.118204 0.036538 0.663168
O O8 0.075830 0.934157 0.879350
O O9 0.815689 0.457155 0.133779
O O10 0.129484 0.141642 0.848713
#
# Coordination Sequence:
#
# PCOD9317240 Si02
#       7
#     4   8   4   4   4   8   8
#     4  12  23  47  78 109 159 200 240 322 378 456
#     4   9  21  47  67  97 144 198 246 288 378 440
#     4  10  26  44  70 100 144 196 266 298 358 458
#     4  10  19  35  68  95 139 176 228 290 390 434
#     4  12  24  44  74 116 154 176 254 310 400 444
#     4   9  18  41  67  92 138 185 223 302 368 445
#     4  12  21  43  66 104 145 183 243 322 358 458
#
# _framework density 28.313862
#
# number of rings (size 3 to 8) (size 9 to 14) (size 15 to 20)
#    0.000    2.000    4.000    1.800    0.000    0.800 
#   21.600    4.000    0.000    0.000    0.000    0.000 
#    0.000    0.000    0.000    0.000    0.000    0.000 
#
# Total GULP energy -111482.193853 kJ/mol
# GULP energy per Si atom -5574.109693 kJ/mol
# Density = 2.824942 g / cm^3
# Si number density = 28.313862 Si / 1000 Ang^3
#
#
#
# Elastic Constant Matrix: (Units=GPa)
#
#
# Indices 1 2 3 4 5 6 
#
# 1 253.4578 76.4220 41.6330 0.0000 0.0000 0.0000
# 2 76.4220 94.0372 10.7981 0.0000 0.0000 0.0000
# 3 41.6330 10.7981 74.9989 0.0000 0.0000 0.0000
# 4 0.0000 0.0000 0.0000 5.2994 0.0000 0.0000
# 5 0.0000 0.0000 0.0000 0.0000 53.7668 0.0000
# 6 0.0000 0.0000 0.0000 0.0000 0.0000 29.8241
#
#
#
# Elastic Compliance Matrix: (Units=1/GPa)
#
#
# Indices 1 2 3 4 5 6 
#
# 1 0.005659 -0.004309 -0.002521 0.000000 0.000000 0.000000
# 2 -0.004309 0.014095 0.000363 0.000000 0.000000 0.000000
# 3 -0.002521 0.000363 0.014681 0.000000 0.000000 0.000000
# 4 0.000000 0.000000 0.000000 0.188700 0.000000 0.000000
# 5 0.000000 0.000000 0.000000 0.000000 0.018599 0.000000
# 6 0.000000 0.000000 0.000000 0.000000 0.000000 0.033530
#
#
# Mechanical properties :
#
#
# Convention : Reuss Voigt Hill
#
# Bulk Modulus (GPa) = 46.51294 75.57779 61.04536
# Shear Modulus (GPa) = 16.92829 37.35412 27.14120
#
# Velocity S-wave (km/s) = 2.44781 3.63614 3.09946
# Velocity P-wave (km/s) = 4.94493 6.66179 5.86651
#
# Compressibility (1/GPa) = 0.02149939
#
# Stress axis : x y z
#
# Youngs Moduli (GPa) = 176.71411 70.94940 68.11690
#
# Poissons Ratio (x) = 0.30575 0.17171
# Poissons Ratio (y) = 0.76153 -0.02472
# Poissons Ratio (z) = 0.44547 -0.02575
#
# Static dielectric constant tensor:
#      x y z
#    x 2.267600 0.000000 0.000000 
#    y 0.000000 2.414230 0.000000 
#    z 0.000000 0.000000 2.232850 
# 
# From -- ./inp_files/12798.got.cif
#   From: 2010.05.17/outbox.cif.g08.bks.cpg/sg20_7_cif.got.tgz:12798.got - 2010.06.03 22:52:26.
