data_PCOD9317904
_publ_section_title
;
Structure prediction by ZEFSAII (Michael W. Deem and Ramdas Pophale) SiO2 
 PCOD9317904
Probable space group: C 2 2 21
;
_chemical_formula_sum "Si O2"
_cell_formula_units_Z 48
_cell_length_a 12.286410
_cell_length_b 14.026059
_cell_length_c 14.417278
_cell_angle_alpha 90.000000
_cell_angle_beta 90.000000
_cell_angle_gamma 90.000000
_cell_volume 2484.528243
_symmetry_space_group_name_H-M "C 2 2 21"
_symmetry_group_IT_number 20
_symmetry_cell_setting 'orthorhombic'
loop_
_space_group_symop_operation_xyz
x,y,z
-x,-y,1/2+z
x,-y,-z
-x,y,1/2-z
1/2+x,1/2+y,z
1/2-x,1/2-y,1/2+z
1/2+x,1/2-y,-z
1/2-x,1/2+y,1/2-z
loop_
_atom_site_type_symbol
_atom_site_label
_atom_site_fract_x
_atom_site_fract_y
_atom_site_fract_z
Si Si1 0.149235 0.585175 0.184040
Si Si2 0.692243 0.751941 0.348941
Si Si3 0.471010 0.751974 0.458715
Si Si4 0.112844 0.378716 0.192899
Si Si5 0.783373 0.108021 0.500292
Si Si6 0.431595 0.861521 0.883435
O O1 0.236433 0.656885 0.142237
O O2 0.181573 0.475911 0.200772
O O3 0.113094 0.638612 0.278903
O O4 0.039178 0.573861 0.123832
O O5 0.575226 0.731618 0.394749
O O6 0.671616 0.791301 0.245623
O O7 0.749131 0.838749 0.404723
O O8 0.417399 0.845325 0.410496
O O9 0.378350 0.672980 0.458463
O O10 0.518871 0.770937 0.561705
O O11 0.000000 0.395150 0.250000
O O12 0.670625 0.105647 0.443108
O O13 0.822759 0.000000 0.500000
#
# Coordination Sequence:
#
# PCOD9317904 Si02
#       6
#     8   8   8   8   8   8
#     4  11  20  38  61  92 117 153 206 251 303 350
#     4  10  22  39  60  87 123 157 199 249 300 359
#     4  10  22  40  58  89 120 157 199 250 302 357
#     4  10  20  36  61  88 118 154 198 248 300 353
#     4  11  22  38  61  86 120 163 202 241 304 358
#     4  10  21  35  62  87 118 148 201 257 288 356
#
# _framework density 19.319562999999999
#
# number of rings (size 3 to 8) (size 9 to 14) (size 15 to 20)
#    0.000    1.667    3.333    2.000    4.667    0.000 
#    0.000    5.000    0.000    0.000    0.000    0.000 
#    0.000    0.000    0.000    0.000    0.000    0.000 
#
# Total GULP energy -133684.789128 kJ/mol
# GULP energy per Si atom -5570.199547 kJ/mol
# Density = 1.927559 g / cm^3
# Si number density = 19.319563 Si / 1000 Ang^3
#
#
#
# Elastic Constant Matrix: (Units=GPa)
#
#
# Indices 1 2 3 4 5 6 
#
# 1 70.2758 50.6632 27.6454 0.0000 0.0000 0.0000
# 2 50.6632 110.2509 32.4440 0.0000 0.0000 0.0000
# 3 27.6454 32.4440 63.1635 0.0000 0.0000 0.0000
# 4 0.0000 0.0000 0.0000 13.6267 0.0000 0.0000
# 5 0.0000 0.0000 0.0000 0.0000 16.7714 0.0000
# 6 0.0000 0.0000 0.0000 0.0000 0.0000 11.7232
#
#
#
# Elastic Compliance Matrix: (Units=1/GPa)
#
#
# Indices 1 2 3 4 5 6 
#
# 1 0.022743 -0.008861 -0.005403 0.000000 0.000000 0.000000
# 2 -0.008861 0.014138 -0.003384 0.000000 0.000000 0.000000
# 3 -0.005403 -0.003384 0.019935 0.000000 0.000000 0.000000
# 4 0.000000 0.000000 0.000000 0.073385 0.000000 0.000000
# 5 0.000000 0.000000 0.000000 0.000000 0.059625 0.000000
# 6 0.000000 0.000000 0.000000 0.000000 0.000000 0.085301
#
#
# Mechanical properties :
#
#
# Convention : Reuss Voigt Hill
#
# Bulk Modulus (GPa) = 46.46685 51.68838 49.07761
# Shear Modulus (GPa) = 15.74330 17.28678 16.51504
#
# Velocity S-wave (km/s) = 2.85772 2.99453 2.92693
# Velocity P-wave (km/s) = 5.91546 6.22646 6.07295
#
# Compressibility (1/GPa) = 0.02152072
#
# Stress axis : x y z
#
# Youngs Moduli (GPa) = 43.96910 70.73189 50.16421
#
# Poissons Ratio (x) = 0.62677 0.27102
# Poissons Ratio (y) = 0.38962 0.16973
# Poissons Ratio (z) = 0.23755 0.23932
#
# Static dielectric constant tensor:
#      x y z
#    x 1.668080 0.000000 0.000000 
#    y 0.000000 1.660270 0.000000 
#    z 0.000000 0.000000 1.744080 
# 
# From -- ./inp_files/20658.got.cif
#   From: 2010.05.17/outbox.cif.g08.bks.cpg/sg20_11_cif.got.tgz:20658.got - 2010.06.03 22:52:26.
