data_PCOD9317870
_publ_section_title
;
Structure prediction by ZEFSAII (Michael W. Deem and Ramdas Pophale) SiO2 
 PCOD9317870
Probable space group: C 2 2 21
;
_chemical_formula_sum "Si O2"
_cell_formula_units_Z 48
_cell_length_a 11.245431
_cell_length_b 7.769471
_cell_length_c 21.462678
_cell_angle_alpha 90.000000
_cell_angle_beta 90.000000
_cell_angle_gamma 90.000000
_cell_volume 1875.216713
_symmetry_space_group_name_H-M "C 2 2 21"
_symmetry_group_IT_number 20
_symmetry_cell_setting 'orthorhombic'
loop_
_space_group_symop_operation_xyz
x,y,z
-x,-y,1/2+z
x,-y,-z
-x,y,1/2-z
1/2+x,1/2+y,z
1/2-x,1/2-y,1/2+z
1/2+x,1/2-y,-z
1/2-x,1/2+y,1/2-z
loop_
_atom_site_type_symbol
_atom_site_label
_atom_site_fract_x
_atom_site_fract_y
_atom_site_fract_z
Si Si1 0.374497 0.411755 0.431340
Si Si2 0.883341 0.243717 0.888763
Si Si3 0.381349 0.897701 0.064792
Si Si4 0.624161 0.951834 0.783820
Si Si5 0.872513 0.920526 0.249044
Si Si6 0.372019 0.775904 0.395508
O O1 0.374565 0.500000 0.500000
O O2 0.496640 0.313524 0.422125
O O3 0.248205 0.312165 0.426732
O O4 0.371883 0.571303 0.382291
O O5 0.888148 0.449325 0.884814
O O6 0.873539 0.161206 0.820863
O O7 0.759968 0.197721 0.924501
O O8 0.503971 0.797159 0.068511
O O9 0.380045 0.000000 0.000000
O O10 0.500000 0.986929 0.750000
O O11 0.748426 0.981656 0.747460
O O12 0.625487 0.085211 0.840684
O O13 0.624083 0.745319 0.794799
O O14 0.000000 0.017241 0.250000
#
# Coordination Sequence:
#
# PCOD9317870 Si02
#       6
#     8   8   8   8   8   8
#     4  10  22  39  59  86 118 152 193 239 288 345
#     4  10  22  38  56  84 116 147 193 239 282 346
#     4  10  20  36  59  85 116 153 191 237 290 341
#     4  10  22  39  58  83 116 150 194 240 284 344
#     4  10  22  38  57  82 112 149 191 236 286 340
#     4  10  22  38  57  86 116 149 194 237 284 346
#
# _framework density 25.597041000000001
#
# number of rings (size 3 to 8) (size 9 to 14) (size 15 to 20)
#    0.000    2.000    0.000    3.000    0.000   10.667 
#    0.000    0.000    0.000    0.000    0.000    0.000 
#    0.000    0.000    0.000    0.000    0.000    0.000 
#
# Total GULP energy -134081.192629 kJ/mol
# GULP energy per Si atom -5586.716360 kJ/mol
# Density = 2.553878 g / cm^3
# Si number density = 25.597041 Si / 1000 Ang^3
#
#
#
# Elastic Constant Matrix: (Units=GPa)
#
#
# Indices 1 2 3 4 5 6 
#
# 1 335.0280 69.4291 40.4250 0.0000 0.0000 0.0000
# 2 69.4291 57.0642 1.0939 0.0000 0.0000 0.0000
# 3 40.4250 1.0939 59.2987 0.0000 0.0000 0.0000
# 4 0.0000 0.0000 0.0000 34.1131 0.0000 0.0000
# 5 0.0000 0.0000 0.0000 0.0000 30.3436 0.0000
# 6 0.0000 0.0000 0.0000 0.0000 0.0000 38.1655
#
#
#
# Elastic Compliance Matrix: (Units=1/GPa)
#
#
# Indices 1 2 3 4 5 6 
#
# 1 0.004449 -0.005357 -0.002934 0.000000 0.000000 0.000000
# 2 -0.005357 0.023980 0.003209 0.000000 0.000000 0.000000
# 3 -0.002934 0.003209 0.018805 0.000000 0.000000 0.000000
# 4 0.000000 0.000000 0.000000 0.029314 0.000000 0.000000
# 5 0.000000 0.000000 0.000000 0.000000 0.032956 0.000000
# 6 0.000000 0.000000 0.000000 0.000000 0.000000 0.026202
#
#
# Mechanical properties :
#
#
# Convention : Reuss Voigt Hill
#
# Bulk Modulus (GPa) = 26.97530 74.80965 50.89248
# Shear Modulus (GPa) = 31.60049 43.22064 37.41056
#
# Velocity S-wave (km/s) = 3.51741 4.11360 3.82713
# Velocity P-wave (km/s) = 5.20169 7.20080 6.28129
#
# Compressibility (1/GPa) = 0.03707094
#
# Stress axis : x y z
#
# Youngs Moduli (GPa) = 224.77194 41.70138 53.17786
#
# Poissons Ratio (x) = 0.22338 0.15603
# Poissons Ratio (y) = 1.20404 -0.17067
# Poissons Ratio (z) = 0.65951 -0.13384
#
# Static dielectric constant tensor:
#      x y z
#    x 2.025650 0.000000 0.000000 
#    y 0.000000 1.989470 0.000000 
#    z 0.000000 0.000000 2.153140 
# 
# From -- ./inp_files/29092.got.cif
#   From: 2010.05.17/outbox.cif.g08.bks.cpg/sg20_15_cif.got.tgz:29092.got - 2010.06.03 22:52:26.
