data_PCOD9317552
_publ_section_title
;
Structure prediction by ZEFSAII (Michael W. Deem and Ramdas Pophale) SiO2 
 PCOD9317552
Probable space group: C 2 2 21
;
_chemical_formula_sum "Si O2"
_cell_formula_units_Z 64
_cell_length_a 11.493302
_cell_length_b 10.738765
_cell_length_c 24.722984
_cell_angle_alpha 90.000000
_cell_angle_beta 90.000000
_cell_angle_gamma 90.000000
_cell_volume 3051.406345
_symmetry_space_group_name_H-M "C 2 2 21"
_symmetry_group_IT_number 20
_symmetry_cell_setting 'orthorhombic'
loop_
_space_group_symop_operation_xyz
x,y,z
-x,-y,1/2+z
x,-y,-z
-x,y,1/2-z
1/2+x,1/2+y,z
1/2-x,1/2-y,1/2+z
1/2+x,1/2-y,-z
1/2-x,1/2+y,1/2-z
loop_
_atom_site_type_symbol
_atom_site_label
_atom_site_fract_x
_atom_site_fract_y
_atom_site_fract_z
Si Si1 0.922480 0.656466 0.669170
Si Si2 0.934109 0.589333 0.195757
Si Si3 0.343640 0.291833 0.856396
Si Si4 0.233862 0.617506 0.931789
Si Si5 0.430820 0.483502 0.201047
Si Si6 0.733159 0.882546 0.268466
Si Si7 0.312336 0.174888 0.450089
Si Si8 0.024859 0.195855 0.612476
O O1 0.827450 0.662960 0.622593
O O2 0.863512 0.672301 0.727444
O O3 0.984208 0.521301 0.672212
O O4 0.025088 0.749708 0.654043
O O5 0.815477 0.518205 0.213273
O O6 0.924861 0.693295 0.150223
O O7 0.000000 0.634024 0.250000
O O8 0.341726 0.429471 0.831658
O O9 0.262091 0.205471 0.819895
O O10 0.301894 0.280779 0.917458
O O11 0.192839 0.474289 0.939559
O O12 0.371834 0.637779 0.923850
O O13 0.194747 0.690124 0.985714
O O14 0.500000 0.548763 0.250000
O O15 0.350176 0.389788 0.234820
O O16 0.506417 0.412613 0.155981
O O17 0.421243 0.244919 0.422695
#
# Coordination Sequence:
#
# PCOD9317552 Si02
#       8
#     8   8   8   8   8   8   8   8
#     4  10  19  42  64  93 126 179 219 267 337 408
#     4   9  20  35  64  95 129 168 212 264 331 404
#     4  11  23  40  63  95 137 173 216 278 338 397
#     4  11  24  45  69  95 123 179 229 279 342 396
#     4  12  24  36  60  99 138 173 217 268 339 415
#     4  10  21  38  63  93 136 176 214 266 340 410
#     4  11  25  45  68  91 136 176 226 289 334 405
#     4  12  23  41  69  99 128 173 229 274 338 413
#
# _framework density 20.973934
#
# number of rings (size 3 to 8) (size 9 to 14) (size 15 to 20)
#    0.000    1.250    3.750    3.000    5.250    1.000 
#    0.000    0.000    0.000    3.000    0.000    0.000 
#    0.000    0.000    0.000    0.000    0.000    0.000 
#
# Total GULP energy -178742.504836 kJ/mol
# GULP energy per Si atom -5585.703276 kJ/mol
# Density = 2.092620 g / cm^3
# Si number density = 20.973934 Si / 1000 Ang^3
#
#
#
# Elastic Constant Matrix: (Units=GPa)
#
#
# Indices 1 2 3 4 5 6 
#
# 1 56.2765 -2.4134 11.1544 0.0000 0.0000 0.0000
# 2 -2.4134 38.8880 4.0437 0.0000 0.0000 0.0000
# 3 11.1544 4.0437 74.8830 0.0000 0.0000 0.0000
# 4 0.0000 0.0000 0.0000 24.5168 0.0000 0.0000
# 5 0.0000 0.0000 0.0000 0.0000 33.5409 0.0000
# 6 0.0000 0.0000 0.0000 0.0000 0.0000 3.8487
#
#
#
# Elastic Compliance Matrix: (Units=1/GPa)
#
#
# Indices 1 2 3 4 5 6 
#
# 1 0.018389 0.001434 -0.002817 0.000000 0.000000 0.000000
# 2 0.001434 0.025972 -0.001616 0.000000 0.000000 0.000000
# 3 -0.002817 -0.001616 0.013861 0.000000 0.000000 0.000000
# 4 0.000000 0.000000 0.000000 0.040788 0.000000 0.000000
# 5 0.000000 0.000000 0.000000 0.000000 0.029814 0.000000
# 6 0.000000 0.000000 0.000000 0.000000 0.000000 0.259830
#
#
# Mechanical properties :
#
#
# Convention : Reuss Voigt Hill
#
# Bulk Modulus (GPa) = 19.14798 21.73522 20.44160
# Shear Modulus (GPa) = 12.13415 22.86547 17.49981
#
# Velocity S-wave (km/s) = 2.40788 3.30538 2.89166
# Velocity P-wave (km/s) = 4.10850 4.99528 4.57343
#
# Compressibility (1/GPa) = 0.05222482
#
# Stress axis : x y z
#
# Youngs Moduli (GPa) = 54.37975 38.50309 72.14489
#
# Poissons Ratio (x) = -0.05522 0.20321
# Poissons Ratio (y) = -0.07799 0.11659
# Poissons Ratio (z) = 0.15317 0.06223
#
# Static dielectric constant tensor:
#      x y z
#    x 1.780010 0.000000 0.000000 
#    y 0.000000 1.822670 0.000000 
#    z 0.000000 0.000000 1.724740 
# 
# From -- ./inp_files/29159.got.cif
#   From: 2010.05.17/outbox.cif.g08.bks.cpg/sg20_15_cif.got.tgz:29159.got - 2010.06.03 22:52:26.
