data_PCOD9317688
_publ_section_title
;
Structure prediction by ZEFSAII (Michael W. Deem and Ramdas Pophale) SiO2 
 PCOD9317688
Probable space group: C 2 2 21
;
_chemical_formula_sum "Si O2"
_cell_formula_units_Z 40
_cell_length_a 24.930692
_cell_length_b 5.182480
_cell_length_c 13.354571
_cell_angle_alpha 90.000000
_cell_angle_beta 90.000000
_cell_angle_gamma 90.000000
_cell_volume 1725.448135
_symmetry_space_group_name_H-M "C 2 2 21"
_symmetry_group_IT_number 20
_symmetry_cell_setting 'orthorhombic'
loop_
_space_group_symop_operation_xyz
x,y,z
-x,-y,1/2+z
x,-y,-z
-x,y,1/2-z
1/2+x,1/2+y,z
1/2-x,1/2-y,1/2+z
1/2+x,1/2-y,-z
1/2-x,1/2+y,1/2-z
loop_
_atom_site_type_symbol
_atom_site_label
_atom_site_fract_x
_atom_site_fract_y
_atom_site_fract_z
Si Si1 0.754760 0.251546 0.687961
Si Si2 0.135642 0.749922 0.069778
Si Si3 0.643996 0.051805 0.615531
Si Si4 0.981841 0.249707 0.571134
Si Si5 0.408193 0.446227 0.121303
O O1 0.748072 0.546206 0.721753
O O2 0.811648 0.227532 0.635480
O O3 0.703853 0.162238 0.621920
O O4 0.076765 0.724309 0.120431
O O5 0.140994 0.500000 0.000000
O O6 0.134526 0.000000 0.000000
O O7 0.605786 0.271333 0.663177
O O8 0.629916 0.000000 0.500000
O O9 0.634189 0.767010 0.657891
O O10 0.991571 0.500000 0.500000
O O11 0.033632 0.180918 0.636946
O O12 0.977931 0.000000 0.500000
O O13 0.403781 0.500000 0.000000
#
# Coordination Sequence:
#
# PCOD9317688 Si02
#       5
#     8   8   8   8   8
#     4  12  25  40  57  80 116 153 188 234 285 330
#     4  10  21  38  61  85 110 146 192 232 271 331
#     4  10  20  34  56  81 108 143 185 227 270 328
#     4   9  16  29  52  83 112 136 173 229 280 321
#     4   9  16  29  52  83 110 134 172 228 280 320
#
# _framework density 23.182382
#
# number of rings (size 3 to 8) (size 9 to 14) (size 15 to 20)
#    0.000    2.000    0.000    6.000    0.000    2.400 
#    0.000    0.000    0.000    7.200    0.000    0.000 
#    0.000    0.000    0.000    0.000    0.000    0.000 
#
# Total GULP energy -111648.315975 kJ/mol
# GULP energy per Si atom -5582.415799 kJ/mol
# Density = 2.312962 g / cm^3
# Si number density = 23.182382 Si / 1000 Ang^3
#
#
#
# Elastic Constant Matrix: (Units=GPa)
#
#
# Indices 1 2 3 4 5 6 
#
# 1 174.1643 52.8196 18.8871 0.0000 0.0000 0.0000
# 2 52.8196 128.4764 19.8561 0.0000 0.0000 0.0000
# 3 18.8871 19.8561 19.6895 0.0000 0.0000 0.0000
# 4 0.0000 0.0000 0.0000 17.2804 0.0000 0.0000
# 5 0.0000 0.0000 0.0000 0.0000 19.6028 0.0000
# 6 0.0000 0.0000 0.0000 0.0000 0.0000 38.4371
#
#
#
# Elastic Compliance Matrix: (Units=1/GPa)
#
#
# Indices 1 2 3 4 5 6 
#
# 1 0.006871 -0.002140 -0.004434 0.000000 0.000000 0.000000
# 2 -0.002140 0.009887 -0.007918 0.000000 0.000000 0.000000
# 3 -0.004434 -0.007918 0.063026 0.000000 0.000000 0.000000
# 4 0.000000 0.000000 0.000000 0.057869 0.000000 0.000000
# 5 0.000000 0.000000 0.000000 0.000000 0.051013 0.000000
# 6 0.000000 0.000000 0.000000 0.000000 0.000000 0.026017
#
#
# Mechanical properties :
#
#
# Convention : Reuss Voigt Hill
#
# Bulk Modulus (GPa) = 19.68422 56.16175 37.92298
# Shear Modulus (GPa) = 19.18649 30.44857 24.81753
#
# Velocity S-wave (km/s) = 2.87998 3.62807 3.27545
# Velocity P-wave (km/s) = 4.42363 6.46754 5.54065
#
# Compressibility (1/GPa) = 0.05080213
#
# Stress axis : x y z
#
# Youngs Moduli (GPa) = 145.52987 101.14298 15.86637
#
# Poissons Ratio (x) = 0.21643 0.07034
# Poissons Ratio (y) = 0.31141 0.12563
# Poissons Ratio (z) = 0.64521 0.80085
#
# Static dielectric constant tensor:
#      x y z
#    x 1.926510 0.000000 0.000000 
#    y 0.000000 1.847320 0.000000 
#    z 0.000000 0.000000 1.865130 
# 
# From -- ./inp_files/21924.got.cif
#   From: 2010.05.17/outbox.cif.g08.bks.cpg/sg20_11_cif.got.tgz:21924.got - 2010.06.03 22:52:26.
