data_PCOD9317554
_publ_section_title
;
Structure prediction by ZEFSAII (Michael W. Deem and Ramdas Pophale) SiO2 
 PCOD9317554
Probable space group: C 2 2 21
;
_chemical_formula_sum "Si O2"
_cell_formula_units_Z 48
_cell_length_a 5.275074
_cell_length_b 28.251030
_cell_length_c 14.325345
_cell_angle_alpha 90.000000
_cell_angle_beta 90.000000
_cell_angle_gamma 90.000000
_cell_volume 2134.852787
_symmetry_space_group_name_H-M "C 2 2 21"
_symmetry_group_IT_number 20
_symmetry_cell_setting 'orthorhombic'
loop_
_space_group_symop_operation_xyz
x,y,z
-x,-y,1/2+z
x,-y,-z
-x,y,1/2-z
1/2+x,1/2+y,z
1/2-x,1/2-y,1/2+z
1/2+x,1/2-y,-z
1/2-x,1/2+y,1/2-z
loop_
_atom_site_type_symbol
_atom_site_label
_atom_site_fract_x
_atom_site_fract_y
_atom_site_fract_z
Si Si1 0.399091 0.950908 0.159788
Si Si2 0.421988 0.500000 0.500000
Si Si3 0.534835 0.423448 0.644999
Si Si4 0.000000 0.722638 0.250000
Si Si5 0.020779 0.362135 0.609022
Si Si6 0.000000 0.120931 0.750000
Si Si7 0.362076 0.141356 0.602085
Si Si8 0.000000 0.713399 0.750000
O O1 0.500000 0.979563 0.250000
O O2 0.600487 0.915347 0.113983
O O3 0.210659 0.913499 0.207562
O O4 0.257691 0.977827 0.079047
O O5 0.571461 0.461537 0.561817
O O6 0.500000 0.443872 0.750000
O O7 0.788315 0.392325 0.651121
O O8 0.285349 0.391795 0.617051
O O9 0.965070 0.686941 0.163484
O O10 0.252381 0.754040 0.248684
O O11 0.926933 0.350927 0.504469
O O12 0.101740 0.148873 0.659650
O O13 0.528079 0.177587 0.662706
#
# Coordination Sequence:
#
# PCOD9317554 Si02
#       8
#     8   4   8   4   8   4   8   4
#     4  10  22  42  66 101 144 195 242 308 368 447
#     4  12  26  44  70 116 146 190 280 298 362 450
#     4  12  26  49  76 107 150 206 247 313 375 449
#     4  12  27  48  74 111 144 193 256 310 372 467
#     4  12  26  50  78 102 149 204 245 304 396 457
#     4  10  19  42  66 101 144 200 239 300 384 451
#     4  11  23  43  74 104 149 194 245 303 402 434
#     4  12  26  44  76 110 148 185 249 324 364 458
#
# _framework density 22.483982999999998
#
# number of rings (size 3 to 8) (size 9 to 14) (size 15 to 20)
#    0.000    0.667    5.833    2.500    1.167    3.333 
#    3.000    0.000    0.000    0.000    0.000    0.000 
#    0.000    0.000    0.000    0.000    0.000    0.000 
#
# Total GULP energy -133971.029430 kJ/mol
# GULP energy per Si atom -5582.126226 kJ/mol
# Density = 2.243281 g / cm^3
# Si number density = 22.483983 Si / 1000 Ang^3
#
#
#
# Elastic Constant Matrix: (Units=GPa)
#
#
# Indices 1 2 3 4 5 6 
#
# 1 106.1946 20.8064 -5.9601 0.0000 0.0000 0.0000
# 2 20.8064 64.2644 15.9098 0.0000 0.0000 0.0000
# 3 -5.9601 15.9098 157.4538 0.0000 0.0000 0.0000
# 4 0.0000 0.0000 0.0000 44.8433 0.0000 0.0000
# 5 0.0000 0.0000 0.0000 0.0000 31.7725 0.0000
# 6 0.0000 0.0000 0.0000 0.0000 0.0000 -6.7960
#
#
#
# Elastic Compliance Matrix: (Units=1/GPa)
#
#
# Indices 1 2 3 4 5 6 
#
# 1 0.010136 -0.003463 0.000734 0.000000 0.000000 0.000000
# 2 -0.003463 0.017143 -0.001863 0.000000 0.000000 0.000000
# 3 0.000734 -0.001863 0.006567 0.000000 0.000000 0.000000
# 4 0.000000 0.000000 0.000000 0.022300 0.000000 0.000000
# 5 0.000000 0.000000 0.000000 0.000000 0.031474 0.000000
# 6 0.000000 0.000000 0.000000 0.000000 0.000000 -0.147145
#
#
# Mechanical properties :
#
#
# Convention : Reuss Voigt Hill
#
# Bulk Modulus (GPa) = 40.55040 43.26945 41.90993
# Shear Modulus (GPa) = -118.71296 33.77441 -42.46928
#
# Velocity S-wave (km/s) = -7.27417 3.87997 -4.35083
# Velocity P-wave (km/s) = 7.24410 6.27364 2.56110
#
# Compressibility (1/GPa) = 0.02466067
#
# Stress axis : x y z
#
# Youngs Moduli (GPa) = 98.65407 58.33169 152.27372
#
# Poissons Ratio (x) = 0.20203 -0.11172
# Poissons Ratio (y) = 0.34168 0.28374
# Poissons Ratio (z) = -0.07238 0.10869
#
# Static dielectric constant tensor:
#      x y z
#    x 1.906750 0.000000 0.000000 
#    y 0.000000 1.851920 0.000000 
#    z 0.000000 0.000000 1.861500 
# 
# From -- ./inp_files/17865.got.cif
#   From: 2010.05.17/outbox.cif.g08.bks.cpg/sg20_9_cif.got.tgz:17865.got - 2010.06.03 22:52:26.
