data_PCOD9317721
_publ_section_title
;
Structure prediction by ZEFSAII (Michael W. Deem and Ramdas Pophale) SiO2 
 PCOD9317721
Probable space group: C 2 2 21
;
_chemical_formula_sum "Si O2"
_cell_formula_units_Z 64
_cell_length_a 16.990720
_cell_length_b 9.554209
_cell_length_c 16.564998
_cell_angle_alpha 90.000000
_cell_angle_beta 90.000000
_cell_angle_gamma 90.000000
_cell_volume 2689.043997
_symmetry_space_group_name_H-M "C 2 2 21"
_symmetry_group_IT_number 20
_symmetry_cell_setting 'orthorhombic'
loop_
_space_group_symop_operation_xyz
x,y,z
-x,-y,1/2+z
x,-y,-z
-x,y,1/2-z
1/2+x,1/2+y,z
1/2-x,1/2-y,1/2+z
1/2+x,1/2-y,-z
1/2-x,1/2+y,1/2-z
loop_
_atom_site_type_symbol
_atom_site_label
_atom_site_fract_x
_atom_site_fract_y
_atom_site_fract_z
Si Si1 0.973856 0.940863 0.413821
Si Si2 0.437795 0.636846 0.177840
Si Si3 0.682431 0.943272 0.165643
Si Si4 0.412334 0.860344 0.035678
Si Si5 0.300129 0.351600 0.042820
Si Si6 0.163562 0.268262 0.917328
Si Si7 0.146213 0.846833 0.829189
Si Si8 0.277442 0.041438 0.848806
O O1 0.911256 0.047843 0.374006
O O2 0.046133 0.979161 0.354794
O O3 0.995673 0.000000 0.500000
O O4 0.922909 0.800872 0.427739
O O5 0.500000 0.668925 0.250000
O O6 0.442294 0.750417 0.105597
O O7 0.358747 0.641216 0.231588
O O8 0.766863 0.897998 0.129306
O O9 0.627974 0.810696 0.147509
O O10 0.685765 0.957568 0.260925
O O11 0.654776 0.082053 0.122906
O O12 0.341064 0.934516 0.083279
O O13 0.372445 0.755869 0.969571
O O14 0.456570 0.000000 0.000000
O O15 0.319967 0.500000 0.000000
O O16 0.223069 0.291547 0.993007
O O17 0.212994 0.164171 0.859474
O O18 0.231510 0.896592 0.857423
#
# Coordination Sequence:
#
# PCOD9317721 Si02
#       8
#     8   8   8   8   8   8   8   8
#     4  10  21  41  64  82 111 165 225 262 306 370
#     4  10  23  43  65  86 121 177 227 261 316 384
#     4  11  18  32  58  96 130 162 192 250 329 392
#     4  11  22  40  63  96 132 168 217 266 324 390
#     4   9  20  33  56  99 141 160 190 256 335 400
#     4   9  20  35  55  92 127 157 210 257 305 384
#     4  10  20  36  63  89 124 168 201 254 320 391
#     4  10  20  34  61  94 131 166 198 247 328 402
#
# _framework density 23.800280999999998
#
# number of rings (size 3 to 8) (size 9 to 14) (size 15 to 20)
#    0.000    2.000    1.250    2.250    3.500    4.000 
#    0.000    2.500    5.500   11.250    0.000    0.000 
#    0.000    0.000    0.000    0.000    0.000    0.000 
#
# Total GULP energy -178548.110965 kJ/mol
# GULP energy per Si atom -5579.628468 kJ/mol
# Density = 2.374611 g / cm^3
# Si number density = 23.800281 Si / 1000 Ang^3
#
#
#
# Elastic Constant Matrix: (Units=GPa)
#
#
# Indices 1 2 3 4 5 6 
#
# 1 47.9465 22.5482 7.5656 0.0000 0.0000 0.0000
# 2 22.5482 160.4075 34.5125 0.0000 0.0000 0.0000
# 3 7.5656 34.5125 89.2187 0.0000 0.0000 0.0000
# 4 0.0000 0.0000 0.0000 39.8975 0.0000 0.0000
# 5 0.0000 0.0000 0.0000 0.0000 19.4353 0.0000
# 6 0.0000 0.0000 0.0000 0.0000 0.0000 24.0620
#
#
#
# Elastic Compliance Matrix: (Units=1/GPa)
#
#
# Indices 1 2 3 4 5 6 
#
# 1 0.022378 -0.002986 -0.000743 0.000000 0.000000 0.000000
# 2 -0.002986 0.007198 -0.002531 0.000000 0.000000 0.000000
# 3 -0.000743 -0.002531 0.012251 0.000000 0.000000 0.000000
# 4 0.000000 0.000000 0.000000 0.025064 0.000000 0.000000
# 5 0.000000 0.000000 0.000000 0.000000 0.051453 0.000000
# 6 0.000000 0.000000 0.000000 0.000000 0.000000 0.041559
#
#
# Mechanical properties :
#
#
# Convention : Reuss Voigt Hill
#
# Bulk Modulus (GPa) = 34.12115 47.42502 40.77309
# Shear Modulus (GPa) = 27.44354 32.20871 29.82613
#
# Velocity S-wave (km/s) = 3.39938 3.68270 3.54387
# Velocity P-wave (km/s) = 5.45667 6.16868 5.82357
#
# Compressibility (1/GPa) = 0.02930734
#
# Stress axis : x y z
#
# Youngs Moduli (GPa) = 44.68685 138.91819 81.62862
#
# Poissons Ratio (x) = 0.41479 0.06062
# Poissons Ratio (y) = 0.13343 0.20663
# Poissons Ratio (z) = 0.03318 0.35166
#
# Static dielectric constant tensor:
#      x y z
#    x 2.075770 0.000000 0.000000 
#    y 0.000000 1.945880 0.000000 
#    z 0.000000 0.000000 1.900770 
# 
# From -- ./inp_files/25491.got.cif
#   From: 2010.05.17/outbox.cif.g08.bks.cpg/sg20_13_cif.got.tgz:25491.got - 2010.06.03 22:52:26.
