data_PCOD9317288
_publ_section_title
;
Structure prediction by ZEFSAII (Michael W. Deem and Ramdas Pophale) SiO2 
 PCOD9317288
Probable space group: C 2 2 21
;
_chemical_formula_sum "Si O2"
_cell_formula_units_Z 36
_cell_length_a 11.852358
_cell_length_b 7.663065
_cell_length_c 15.197481
_cell_angle_alpha 90.000000
_cell_angle_beta 90.000000
_cell_angle_gamma 90.000000
_cell_volume 1380.317135
_symmetry_space_group_name_H-M "C 2 2 21"
_symmetry_group_IT_number 20
_symmetry_cell_setting 'orthorhombic'
loop_
_space_group_symop_operation_xyz
x,y,z
-x,-y,1/2+z
x,-y,-z
-x,y,1/2-z
1/2+x,1/2+y,z
1/2-x,1/2-y,1/2+z
1/2+x,1/2-y,-z
1/2-x,1/2+y,1/2-z
loop_
_atom_site_type_symbol
_atom_site_label
_atom_site_fract_x
_atom_site_fract_y
_atom_site_fract_z
Si Si1 0.185388 0.500000 0.000000
Si Si2 0.145725 0.062199 0.844050
Si Si3 0.500000 0.022198 0.250000
Si Si4 0.233216 0.455979 0.812904
Si Si5 0.309047 0.000000 0.000000
Si Si6 0.486643 0.233971 0.067970
O O1 0.254709 0.477111 0.088944
O O2 0.099042 0.659191 0.018882
O O3 0.187731 0.258271 0.819104
O O4 0.232878 0.991477 0.914578
O O5 0.026512 0.080743 0.893825
O O6 0.162809 0.966811 0.752512
O O7 0.379083 0.941532 0.277206
O O8 0.468410 0.125959 0.159586
O O9 0.387802 0.827905 0.996190
#
# Coordination Sequence:
#
# PCOD9317288 Si02
#       6
#     4   8   4   8   4   8
#     4   7  16  30  52  83 124 149 202 262 296 375
#     4  10  22  36  69  97 124 177 217 268 330 395
#     4   8  14  32  58  82 114 164 196 254 312 366
#     4  10  19  36  59  96 124 169 217 265 324 386
#     4  11  20  40  70  91 130 175 212 270 338 379
#     4   9  18  35  59  94 119 161 216 260 310 393
#
# _framework density 26.080964999999999
#
# number of rings (size 3 to 8) (size 9 to 14) (size 15 to 20)
#    0.000    3.111    2.222    0.000    0.000    3.556 
#    0.000    0.000   19.556    0.000    0.000    0.000 
#    0.000    0.000    0.000    0.000    0.000    0.000 
#
# Total GULP energy -100417.062038 kJ/mol
# GULP energy per Si atom -5578.725669 kJ/mol
# Density = 2.602160 g / cm^3
# Si number density = 26.080965 Si / 1000 Ang^3
#
#
#
# Elastic Constant Matrix: (Units=GPa)
#
#
# Indices 1 2 3 4 5 6 
#
# 1 95.6822 8.7150 30.4901 0.0000 0.0000 0.0000
# 2 8.7150 49.6559 -6.2624 0.0000 0.0000 0.0000
# 3 30.4901 -6.2624 135.1922 0.0000 0.0000 0.0000
# 4 0.0000 0.0000 0.0000 28.9016 0.0000 0.0000
# 5 0.0000 0.0000 0.0000 0.0000 23.2910 0.0000
# 6 0.0000 0.0000 0.0000 0.0000 0.0000 17.5501
#
#
#
# Elastic Compliance Matrix: (Units=1/GPa)
#
#
# Indices 1 2 3 4 5 6 
#
# 1 0.011530 -0.002365 -0.002710 0.000000 0.000000 0.000000
# 2 -0.002365 0.020742 0.001494 0.000000 0.000000 0.000000
# 3 -0.002710 0.001494 0.008077 0.000000 0.000000 0.000000
# 4 0.000000 0.000000 0.000000 0.034600 0.000000 0.000000
# 5 0.000000 0.000000 0.000000 0.000000 0.042935 0.000000
# 6 0.000000 0.000000 0.000000 0.000000 0.000000 0.056980
#
#
# Mechanical properties :
#
#
# Convention : Reuss Voigt Hill
#
# Bulk Modulus (GPa) = 30.13182 38.49063 34.31123
# Shear Modulus (GPa) = 25.89472 30.45437 28.17455
#
# Velocity S-wave (km/s) = 3.15439 3.42085 3.29032
# Velocity P-wave (km/s) = 4.98449 5.51299 5.25539
#
# Compressibility (1/GPa) = 0.03318750
#
# Stress axis : x y z
#
# Youngs Moduli (GPa) = 86.72806 48.21087 123.80386
#
# Poissons Ratio (x) = 0.11404 0.33551
# Poissons Ratio (y) = 0.20515 -0.18500
# Poissons Ratio (z) = 0.23503 -0.07204
#
# Static dielectric constant tensor:
#      x y z
#    x 2.126990 0.000000 0.000000 
#    y 0.000000 2.156640 0.000000 
#    z 0.000000 0.000000 2.071560 
# 
# From -- ./inp_files/19637.got.cif
#   From: 2010.05.17/outbox.cif.g08.bks.cpg/sg20_10_cif.got.tgz:19637.got - 2010.06.03 22:52:26.
