data_PCOD9317575
_publ_section_title
;
Structure prediction by ZEFSAII (Michael W. Deem and Ramdas Pophale) SiO2 
 PCOD9317575
Probable space group: C 2 2 21
;
_chemical_formula_sum "Si O2"
_cell_formula_units_Z 40
_cell_length_a 12.474474
_cell_length_b 7.924475
_cell_length_c 17.531593
_cell_angle_alpha 90.000000
_cell_angle_beta 90.000000
_cell_angle_gamma 90.000000
_cell_volume 1733.062087
_symmetry_space_group_name_H-M "C 2 2 21"
_symmetry_group_IT_number 20
_symmetry_cell_setting 'orthorhombic'
loop_
_space_group_symop_operation_xyz
x,y,z
-x,-y,1/2+z
x,-y,-z
-x,y,1/2-z
1/2+x,1/2+y,z
1/2-x,1/2-y,1/2+z
1/2+x,1/2-y,-z
1/2-x,1/2+y,1/2-z
loop_
_atom_site_type_symbol
_atom_site_label
_atom_site_fract_x
_atom_site_fract_y
_atom_site_fract_z
Si Si1 0.535058 0.525064 0.414894
Si Si2 0.111220 0.496935 0.777082
Si Si3 0.185569 0.817150 0.690675
Si Si4 0.569850 0.881453 0.058396
Si Si5 0.187346 0.844770 0.052804
O O1 0.582599 0.500000 0.500000
O O2 0.617458 0.528033 0.345223
O O3 0.493285 0.717672 0.414441
O O4 0.429312 0.406286 0.413604
O O5 0.121107 0.681349 0.739544
O O6 0.217001 0.390850 0.759733
O O7 0.106782 0.518829 0.867914
O O8 0.000000 0.417712 0.750000
O O9 0.235832 0.713448 0.619674
O O10 0.664086 0.806395 0.005954
O O11 0.505381 0.000000 0.000000
O O12 0.225202 0.000000 0.000000
#
# Coordination Sequence:
#
# PCOD9317575 Si02
#       5
#     8   8   8   8   8
#     4   9  22  42  70  99 128 171 224 285 342 395
#     4  12  28  45  64 102 142 179 226 286 344 405
#     4  12  26  44  70  98 135 186 222 274 355 412
#     4  10  19  44  70  93 141 173 226 296 323 399
#     4   9  22  42  70 100 130 172 227 285 335 401
#
# _framework density 23.080535000000001
#
# number of rings (size 3 to 8) (size 9 to 14) (size 15 to 20)
#    0.000    2.000    4.000    0.000    8.400    2.400 
#    0.000    0.000    0.000    0.000    0.000    0.000 
#    0.000    0.000    0.000    0.000    0.000    0.000 
#
# Total GULP energy -111748.653383 kJ/mol
# GULP energy per Si atom -5587.432669 kJ/mol
# Density = 2.302800 g / cm^3
# Si number density = 23.080535 Si / 1000 Ang^3
#
#
#
# Elastic Constant Matrix: (Units=GPa)
#
#
# Indices 1 2 3 4 5 6 
#
# 1 88.2593 9.1369 24.0703 0.0000 0.0000 0.0000
# 2 9.1369 48.7096 9.7467 0.0000 0.0000 0.0000
# 3 24.0703 9.7467 90.7781 0.0000 0.0000 0.0000
# 4 0.0000 0.0000 0.0000 41.3655 0.0000 0.0000
# 5 0.0000 0.0000 0.0000 0.0000 21.0909 0.0000
# 6 0.0000 0.0000 0.0000 0.0000 0.0000 24.4181
#
#
#
# Elastic Compliance Matrix: (Units=1/GPa)
#
#
# Indices 1 2 3 4 5 6 
#
# 1 0.012349 -0.001698 -0.003092 0.000000 0.000000 0.000000
# 2 -0.001698 0.021214 -0.001828 0.000000 0.000000 0.000000
# 3 -0.003092 -0.001828 0.012032 0.000000 0.000000 0.000000
# 4 0.000000 0.000000 0.000000 0.024175 0.000000 0.000000
# 5 0.000000 0.000000 0.000000 0.000000 0.047414 0.000000
# 6 0.000000 0.000000 0.000000 0.000000 0.000000 0.040953
#
#
# Mechanical properties :
#
#
# Convention : Reuss Voigt Hill
#
# Bulk Modulus (GPa) = 30.90201 34.85053 32.87627
# Shear Modulus (GPa) = 27.44858 29.69444 28.57151
#
# Velocity S-wave (km/s) = 3.45229 3.59075 3.52220
# Velocity P-wave (km/s) = 5.41378 5.68539 5.55124
#
# Compressibility (1/GPa) = 0.03236036
#
# Stress axis : x y z
#
# Youngs Moduli (GPa) = 80.97612 47.13870 83.11163
#
# Poissons Ratio (x) = 0.08003 0.25700
# Poissons Ratio (y) = 0.13747 0.15189
# Poissons Ratio (z) = 0.25040 0.08615
#
# Static dielectric constant tensor:
#      x y z
#    x 1.943720 0.000000 0.000000 
#    y 0.000000 1.888530 0.000000 
#    z 0.000000 0.000000 1.873990 
# 
# From -- ./inp_files/24700.got.cif
#   From: 2010.05.17/outbox.cif.g08.bks.cpg/sg20_13_cif.got.tgz:24700.got - 2010.06.03 22:52:26.
