data_PCOD9317133
_publ_section_title
;
Structure prediction by ZEFSAII (Michael W. Deem and Ramdas Pophale) SiO2 
 PCOD9317133
Probable space group: C 2 2 21
;
_chemical_formula_sum "Si O2"
_cell_formula_units_Z 52
_cell_length_a 18.185379
_cell_length_b 8.458461
_cell_length_c 17.409123
_cell_angle_alpha 90.000000
_cell_angle_beta 90.000000
_cell_angle_gamma 90.000000
_cell_volume 2677.876854
_symmetry_space_group_name_H-M "C 2 2 21"
_symmetry_group_IT_number 20
_symmetry_cell_setting 'orthorhombic'
loop_
_space_group_symop_operation_xyz
x,y,z
-x,-y,1/2+z
x,-y,-z
-x,y,1/2-z
1/2+x,1/2+y,z
1/2-x,1/2-y,1/2+z
1/2+x,1/2-y,-z
1/2-x,1/2+y,1/2-z
loop_
_atom_site_type_symbol
_atom_site_label
_atom_site_fract_x
_atom_site_fract_y
_atom_site_fract_z
Si Si1 0.925078 0.068525 0.371448
Si Si2 0.581286 0.855426 0.247731
Si Si3 0.761066 0.160136 0.045516
Si Si4 0.086584 0.881867 0.609125
Si Si5 0.194278 0.000000 0.000000
Si Si6 0.713518 0.905327 0.778543
Si Si7 0.857173 0.086446 0.760595
O O1 0.920173 0.226167 0.320004
O O2 0.917360 0.932154 0.306358
O O3 0.003023 0.085869 0.413930
O O4 0.859059 0.039536 0.428997
O O5 0.500000 0.933831 0.250000
O O6 0.589014 0.759425 0.327543
O O7 0.650290 0.965239 0.231748
O O8 0.850014 0.154748 0.048858
O O9 0.736908 0.334341 0.016472
O O10 0.730810 0.137448 0.132645
O O11 0.737059 0.000000 0.000000
O O12 0.110539 0.034772 0.658371
O O13 0.790131 0.965072 0.743625
O O14 0.681861 0.752828 0.737208
#
# Coordination Sequence:
#
# PCOD9317133 Si02
#       7
#     8   8   8   8   4   8   8
#     4  10  20  38  62  86 119 163 197 251 312 369
#     4   9  19  36  61  87 123 154 194 268 321 358
#     4  11  24  41  61  89 126 169 210 254 301 375
#     4   9  21  40  60  89 120 154 204 254 320 363
#     4  12  24  40  68  86 126 172 212 244 300 386
#     4  11  20  36  57  93 120 155 209 254 310 369
#     4  10  19  34  61  87 117 149 201 254 306 366
#
# _framework density 19.418368999999998
#
# number of rings (size 3 to 8) (size 9 to 14) (size 15 to 20)
#    0.000    1.846    1.538    5.077    1.077    2.462 
#    0.000    0.000    8.462    0.000    0.000    0.000 
#    0.000    0.000    0.000    0.000    0.000    0.000 
#
# Total GULP energy -144978.125939 kJ/mol
# GULP energy per Si atom -5576.081767 kJ/mol
# Density = 1.937417 g / cm^3
# Si number density = 19.418369 Si / 1000 Ang^3
#
#
#
# Elastic Constant Matrix: (Units=GPa)
#
#
# Indices 1 2 3 4 5 6 
#
# 1 120.9786 39.3398 17.9545 0.0000 0.0000 0.0000
# 2 39.3398 78.3778 9.5690 0.0000 0.0000 0.0000
# 3 17.9545 9.5690 41.8246 0.0000 0.0000 0.0000
# 4 0.0000 0.0000 0.0000 8.3308 0.0000 0.0000
# 5 0.0000 0.0000 0.0000 0.0000 21.7664 0.0000
# 6 0.0000 0.0000 0.0000 0.0000 0.0000 -0.6173
#
#
#
# Elastic Compliance Matrix: (Units=1/GPa)
#
#
# Indices 1 2 3 4 5 6 
#
# 1 0.010312 -0.004768 -0.003336 0.000000 0.000000 0.000000
# 2 -0.004768 0.015330 -0.001460 0.000000 0.000000 0.000000
# 3 -0.003336 -0.001460 0.025675 0.000000 0.000000 0.000000
# 4 0.000000 0.000000 0.000000 0.120037 0.000000 0.000000
# 5 0.000000 0.000000 0.000000 0.000000 0.045942 0.000000
# 6 0.000000 0.000000 0.000000 0.000000 0.000000 -1.619920
#
#
# Mechanical properties :
#
#
# Convention : Reuss Voigt Hill
#
# Bulk Modulus (GPa) = 31.06703 41.65642 36.36173
# Shear Modulus (GPa) = -3.64228 17.51715 6.93743
#
# Velocity S-wave (km/s) = -1.37104 3.00674 1.89219
# Velocity P-wave (km/s) = 3.67793 5.79246 4.85179
#
# Compressibility (1/GPa) = 0.03218846
#
# Stress axis : x y z
#
# Youngs Moduli (GPa) = 96.97863 65.22993 38.94780
#
# Poissons Ratio (x) = 0.31104 0.12991
# Poissons Ratio (y) = 0.46243 0.05688
# Poissons Ratio (z) = 0.32348 0.09526
#
# Static dielectric constant tensor:
#      x y z
#    x 1.706520 0.000000 0.000000 
#    y 0.000000 1.692490 0.000000 
#    z 0.000000 0.000000 1.694500 
# 
# From -- ./inp_files/25220.got.cif
#   From: 2010.05.17/outbox.cif.g08.bks.cpg/sg20_13_cif.got.tgz:25220.got - 2010.06.03 22:52:26.
