data_PCOD9317291
_publ_section_title
;
Structure prediction by ZEFSAII (Michael W. Deem and Ramdas Pophale) SiO2 
 PCOD9317291
Probable space group: C 2 2 21
;
_chemical_formula_sum "Si O2"
_cell_formula_units_Z 60
_cell_length_a 14.516951
_cell_length_b 17.322736
_cell_length_c 13.479699
_cell_angle_alpha 90.000000
_cell_angle_beta 90.000000
_cell_angle_gamma 90.000000
_cell_volume 3389.784521
_symmetry_space_group_name_H-M "C 2 2 21"
_symmetry_group_IT_number 20
_symmetry_cell_setting 'orthorhombic'
loop_
_space_group_symop_operation_xyz
x,y,z
-x,-y,1/2+z
x,-y,-z
-x,y,1/2-z
1/2+x,1/2+y,z
1/2-x,1/2-y,1/2+z
1/2+x,1/2-y,-z
1/2-x,1/2+y,1/2-z
loop_
_atom_site_type_symbol
_atom_site_label
_atom_site_fract_x
_atom_site_fract_y
_atom_site_fract_z
Si Si1 0.374347 0.126382 0.919442
Si Si2 0.166267 0.505525 0.275864
Si Si3 0.791960 0.069006 0.444405
Si Si4 0.628243 0.298614 0.656167
Si Si5 0.560510 0.849329 0.968624
Si Si6 0.084518 0.792887 0.883399
Si Si7 0.255570 0.058978 0.421144
Si Si8 0.000000 0.375609 0.750000
O O1 0.354801 0.216422 0.897805
O O2 0.370884 0.074644 0.820132
O O3 0.294734 0.093799 0.989189
O O4 0.471365 0.115477 0.975709
O O5 0.248484 0.537061 0.344014
O O6 0.208432 0.504592 0.167355
O O7 0.085101 0.568690 0.277192
O O8 0.858244 0.138925 0.429559
O O9 0.842267 0.000000 0.500000
O O10 0.629291 0.280443 0.774280
O O11 0.521587 0.316542 0.632740
O O12 0.693174 0.369503 0.620437
O O13 0.650403 0.902946 0.963516
O O14 0.529956 0.832951 0.853043
O O15 0.585278 0.777349 0.039075
O O16 0.211068 0.000000 0.500000
#
# Coordination Sequence:
#
# PCOD9317291 Si02
#       8
#     8   8   8   8   8   8   8   4
#     4  10  21  36  59  88 115 154 192 241 298 362
#     4  10  21  35  58  86 121 150 192 238 300 364
#     4  10  19  36  60  81 107 146 195 241 284 348
#     4  10  22  40  58  82 117 156 197 251 294 346
#     4  10  22  36  59  91 121 157 192 240 309 375
#     4  10  21  39  61  81 112 157 205 241 295 354
#     4  11  24  38  58  90 123 158 196 251 309 359
#     4  10  20  34  56  88 126 154 180 244 302 364
#
# _framework density 17.700240999999998
#
# number of rings (size 3 to 8) (size 9 to 14) (size 15 to 20)
#    0.000    1.867    2.667    0.800    5.600    1.600 
#    0.000    0.000    8.800    0.000    0.000    0.000 
#    0.000    0.000    0.000    0.000    0.000    0.000 
#
# Total GULP energy -167162.154286 kJ/mol
# GULP energy per Si atom -5572.071810 kJ/mol
# Density = 1.765995 g / cm^3
# Si number density = 17.700241 Si / 1000 Ang^3
#
#
#
# Elastic Constant Matrix: (Units=GPa)
#
#
# Indices 1 2 3 4 5 6 
#
# 1 31.9120 39.2402 33.0530 0.0000 0.0000 0.0000
# 2 39.2402 73.4570 55.5248 0.0000 0.0000 0.0000
# 3 33.0530 55.5248 110.2896 0.0000 0.0000 0.0000
# 4 0.0000 0.0000 0.0000 32.5522 0.0000 0.0000
# 5 0.0000 0.0000 0.0000 0.0000 26.0653 0.0000
# 6 0.0000 0.0000 0.0000 0.0000 0.0000 139.6691
#
#
#
# Elastic Compliance Matrix: (Units=1/GPa)
#
#
# Indices 1 2 3 4 5 6 
#
# 1 0.092749 -0.046065 -0.004605 0.000000 0.000000 0.000000
# 2 -0.046065 0.044856 -0.008777 0.000000 0.000000 0.000000
# 3 -0.004605 -0.008777 0.014866 0.000000 0.000000 0.000000
# 4 0.000000 0.000000 0.000000 0.030720 0.000000 0.000000
# 5 0.000000 0.000000 0.000000 0.000000 0.038365 0.000000
# 6 0.000000 0.000000 0.000000 0.000000 0.000000 0.007160
#
#
# Mechanical properties :
#
#
# Convention : Reuss Voigt Hill
#
# Bulk Modulus (GPa) = 29.78277 52.36606 41.07442
# Shear Modulus (GPa) = 13.93526 45.51335 29.72430
#
# Velocity S-wave (km/s) = 2.80892 5.07634 4.10239
# Velocity P-wave (km/s) = 5.23285 8.00051 6.75984
#
# Compressibility (1/GPa) = 0.03357646
#
# Stress axis : x y z
#
# Youngs Moduli (GPa) = 10.78173 22.29380 67.26862
#
# Poissons Ratio (x) = 1.02697 0.30977
# Poissons Ratio (y) = 0.49666 0.59041
# Poissons Ratio (z) = 0.04965 0.19567
#
# Static dielectric constant tensor:
#      x y z
#    x 1.582560 0.000000 0.000000 
#    y 0.000000 1.587640 0.000000 
#    z 0.000000 0.000000 1.683480 
# 
# From -- ./inp_files/15290.got.cif
#   From: 2010.05.17/outbox.cif.g08.bks.cpg/sg20_8_cif.got.tgz:15290.got - 2010.06.03 22:52:26.
