data_PCOD9317650
_publ_section_title
;
Structure prediction by ZEFSAII (Michael W. Deem and Ramdas Pophale) SiO2 
 PCOD9317650
Probable space group: C 2 2 21
;
_chemical_formula_sum "Si O2"
_cell_formula_units_Z 36
_cell_length_a 17.340096
_cell_length_b 16.837454
_cell_length_c 5.675947
_cell_angle_alpha 90.000000
_cell_angle_beta 90.000000
_cell_angle_gamma 90.000000
_cell_volume 1657.166904
_symmetry_space_group_name_H-M "C 2 2 21"
_symmetry_group_IT_number 20
_symmetry_cell_setting 'orthorhombic'
loop_
_space_group_symop_operation_xyz
x,y,z
-x,-y,1/2+z
x,-y,-z
-x,y,1/2-z
1/2+x,1/2+y,z
1/2-x,1/2-y,1/2+z
1/2+x,1/2-y,-z
1/2-x,1/2+y,1/2-z
loop_
_atom_site_type_symbol
_atom_site_label
_atom_site_fract_x
_atom_site_fract_y
_atom_site_fract_z
Si Si1 0.000000 0.793261 0.750000
Si Si2 0.412539 0.165214 0.443435
Si Si3 0.423876 0.000000 0.500000
Si Si4 0.333192 0.000000 0.000000
Si Si5 0.867863 0.219113 0.948625
Si Si6 0.273087 0.154810 0.780909
O O1 0.064021 0.829342 0.576434
O O2 0.946829 0.735967 0.595317
O O3 0.404557 0.205127 0.188834
O O4 0.328548 0.142542 0.552237
O O5 0.462876 0.086331 0.492372
O O6 0.380538 0.994023 0.754506
O O7 0.286088 0.081096 0.956157
O O8 0.816004 0.165648 0.779966
O O9 0.805108 0.262593 0.114066
#
# Coordination Sequence:
#
# PCOD9317650 Si02
#       6
#     4   8   4   4   8   8
#     4  10  24  36  52  82 124 166 216 256 316 372
#     4  10  20  37  53  80 121 161 204 254 309 384
#     4  10  20  36  59  82 126 169 202 252 314 376
#     4  10  20  36  57  94 126 157 202 272 322 376
#     4  11  19  37  56  85 119 170 211 270 309 389
#     4  10  20  33  61  86 121 162 212 263 323 372
#
# _framework density 21.723821999999998
#
# number of rings (size 3 to 8) (size 9 to 14) (size 15 to 20)
#    0.000    1.778    4.444    0.667    0.000    0.000 
#    4.000    0.000    0.000    0.000    0.000    0.000 
#    6.667    0.000    0.000    0.000    0.000    0.000 
#
# Total GULP energy -100274.740248 kJ/mol
# GULP energy per Si atom -5570.818903 kJ/mol
# Density = 2.167438 g / cm^3
# Si number density = 21.723822 Si / 1000 Ang^3
#
#
#
# Elastic Constant Matrix: (Units=GPa)
#
#
# Indices 1 2 3 4 5 6 
#
# 1 96.8381 16.4796 43.6954 0.0000 0.0000 0.0000
# 2 16.4796 33.5664 15.3957 0.0000 0.0000 0.0000
# 3 43.6954 15.3957 101.2961 0.0000 0.0000 0.0000
# 4 0.0000 0.0000 0.0000 23.6877 0.0000 0.0000
# 5 0.0000 0.0000 0.0000 0.0000 48.8121 0.0000
# 6 0.0000 0.0000 0.0000 0.0000 0.0000 17.2942
#
#
#
# Elastic Compliance Matrix: (Units=1/GPa)
#
#
# Indices 1 2 3 4 5 6 
#
# 1 0.013353 -0.004207 -0.005121 0.000000 0.000000 0.000000
# 2 -0.004207 0.033350 -0.003254 0.000000 0.000000 0.000000
# 3 -0.005121 -0.003254 0.012575 0.000000 0.000000 0.000000
# 4 0.000000 0.000000 0.000000 0.042216 0.000000 0.000000
# 5 0.000000 0.000000 0.000000 0.000000 0.020487 0.000000
# 6 0.000000 0.000000 0.000000 0.000000 0.000000 0.057823
#
#
# Mechanical properties :
#
#
# Convention : Reuss Voigt Hill
#
# Bulk Modulus (GPa) = 29.31273 42.53801 35.92537
# Shear Modulus (GPa) = 23.11193 28.36745 25.73969
#
# Velocity S-wave (km/s) = 3.26528 3.61754 3.44591
# Velocity P-wave (km/s) = 5.26676 6.08872 5.69260
#
# Compressibility (1/GPa) = 0.03411487
#
# Stress axis : x y z
#
# Youngs Moduli (GPa) = 74.88961 29.98533 79.52019
#
# Poissons Ratio (x) = 0.12615 0.40719
# Poissons Ratio (y) = 0.31507 0.25875
# Poissons Ratio (z) = 0.38348 0.09757
#
# Static dielectric constant tensor:
#      x y z
#    x 1.890970 0.000000 0.000000 
#    y 0.000000 1.809470 0.000000 
#    z 0.000000 0.000000 1.994990 
# 
# From -- ./inp_files/1769.got.cif
#   From: 2010.05.17/outbox.cif.g08.bks.cpg/sg20_1_cif.got.tgz:1769.got - 2010.06.03 22:52:26.
