data_PCOD9317264
_publ_section_title
;
Structure prediction by ZEFSAII (Michael W. Deem and Ramdas Pophale) SiO2 
 PCOD9317264
Probable space group: C 2 2 21
;
_chemical_formula_sum "Si O2"
_cell_formula_units_Z 48
_cell_length_a 32.556562
_cell_length_b 15.046730
_cell_length_c 4.904402
_cell_angle_alpha 90.000000
_cell_angle_beta 90.000000
_cell_angle_gamma 90.000000
_cell_volume 2402.518418
_symmetry_space_group_name_H-M "C 2 2 21"
_symmetry_group_IT_number 20
_symmetry_cell_setting 'orthorhombic'
loop_
_space_group_symop_operation_xyz
x,y,z
-x,-y,1/2+z
x,-y,-z
-x,y,1/2-z
1/2+x,1/2+y,z
1/2-x,1/2-y,1/2+z
1/2+x,1/2-y,-z
1/2-x,1/2+y,1/2-z
loop_
_atom_site_type_symbol
_atom_site_label
_atom_site_fract_x
_atom_site_fract_y
_atom_site_fract_z
Si Si1 0.654952 0.662196 0.589808
Si Si2 0.820114 0.562250 0.756007
Si Si3 0.371224 0.228411 0.578551
Si Si4 0.426974 0.583302 0.814373
Si Si5 0.046767 0.808231 0.808488
Si Si6 0.755248 0.813129 0.252134
O O1 0.646042 0.693627 0.281283
O O2 0.622738 0.587485 0.694505
O O3 0.702469 0.643668 0.646801
O O4 0.644177 0.747194 0.778286
O O5 0.810830 0.500000 0.500000
O O6 0.853486 0.635798 0.675872
O O7 0.778899 0.615734 0.833945
O O8 0.834102 0.500000 0.000000
O O9 0.420506 0.236725 0.586183
O O10 0.447156 0.608581 0.523870
O O11 0.440432 0.500000 0.000000
O O12 0.437759 0.664291 0.011239
O O13 0.000000 0.783908 0.750000
O O14 0.762182 0.747300 0.505909
#
# Coordination Sequence:
#
# PCOD9317264 Si02
#       6
#     8   8   8   8   8   8
#     4  10  19  36  58  80 108 160 200 226 277 349
#     4  12  24  37  57  89 117 145 194 244 295 337
#     4  10  20  38  59  80 112 152 190 240 285 347
#     4  10  21  35  55  84 120 152 185 239 295 336
#     4  10  21  37  60  85 109 148 202 236 282 356
#     4  12  21  37  60  82 116 159 199 239 284 344
#
# _framework density 19.979037000000002
#
# number of rings (size 3 to 8) (size 9 to 14) (size 15 to 20)
#    0.000    1.333    3.333    3.000    0.000    2.000 
#    0.000    3.333    0.000    1.000    0.000    0.000 
#    0.000    0.000    0.000    0.000    0.000    0.000 
#
# Total GULP energy -133924.838988 kJ/mol
# GULP energy per Si atom -5580.201624 kJ/mol
# Density = 1.993356 g / cm^3
# Si number density = 19.979037 Si / 1000 Ang^3
#
#
#
# Elastic Constant Matrix: (Units=GPa)
#
#
# Indices 1 2 3 4 5 6 
#
# 1 124.9387 17.1715 -12.1211 0.0000 0.0000 0.0000
# 2 17.1715 46.6002 -1.0642 0.0000 0.0000 0.0000
# 3 -12.1211 -1.0642 87.1593 0.0000 0.0000 0.0000
# 4 0.0000 0.0000 0.0000 28.7043 0.0000 0.0000
# 5 0.0000 0.0000 0.0000 0.0000 23.2630 0.0000
# 6 0.0000 0.0000 0.0000 0.0000 0.0000 36.8369
#
#
#
# Elastic Compliance Matrix: (Units=1/GPa)
#
#
# Indices 1 2 3 4 5 6 
#
# 1 0.008545 -0.003122 0.001150 0.000000 0.000000 0.000000
# 2 -0.003122 0.022606 -0.000158 0.000000 0.000000 0.000000
# 3 0.001150 -0.000158 0.011631 0.000000 0.000000 0.000000
# 4 0.000000 0.000000 0.000000 0.034838 0.000000 0.000000
# 5 0.000000 0.000000 0.000000 0.000000 0.042987 0.000000
# 6 0.000000 0.000000 0.000000 0.000000 0.000000 0.027147
#
#
# Mechanical properties :
#
#
# Convention : Reuss Voigt Hill
#
# Bulk Modulus (GPa) = 25.95968 29.63007 27.79487
# Shear Modulus (GPa) = 30.32979 34.74165 32.53572
#
# Velocity S-wave (km/s) = 3.90048 4.17454 4.03984
# Velocity P-wave (km/s) = 5.77119 6.17240 5.97516
#
# Compressibility (1/GPa) = 0.03852128
#
# Stress axis : x y z
#
# Youngs Moduli (GPa) = 117.03249 44.23592 85.97518
#
# Poissons Ratio (x) = 0.13812 -0.09889
# Poissons Ratio (y) = 0.36541 0.01360
# Poissons Ratio (z) = -0.13461 0.00700
#
# Static dielectric constant tensor:
#      x y z
#    x 1.783860 0.000000 0.000000 
#    y 0.000000 1.711240 0.000000 
#    z 0.000000 0.000000 1.660920 
# 
# From -- ./inp_files/4622.got.cif
#   From: 2010.05.17/outbox.cif.g08.bks.cpg/sg20_3_cif.got.tgz:4622.got - 2010.06.03 22:52:26.
