data_PCOD9317525
_publ_section_title
;
Structure prediction by ZEFSAII (Michael W. Deem and Ramdas Pophale) SiO2 
 PCOD9317525
Probable space group: C 2 2 21
;
_chemical_formula_sum "Si O2"
_cell_formula_units_Z 60
_cell_length_a 17.726987
_cell_length_b 20.923668
_cell_length_c 8.044568
_cell_angle_alpha 90.000000
_cell_angle_beta 90.000000
_cell_angle_gamma 90.000000
_cell_volume 2983.839602
_symmetry_space_group_name_H-M "C 2 2 21"
_symmetry_group_IT_number 20
_symmetry_cell_setting 'orthorhombic'
loop_
_space_group_symop_operation_xyz
x,y,z
-x,-y,1/2+z
x,-y,-z
-x,y,1/2-z
1/2+x,1/2+y,z
1/2-x,1/2-y,1/2+z
1/2+x,1/2-y,-z
1/2-x,1/2+y,1/2-z
loop_
_atom_site_type_symbol
_atom_site_label
_atom_site_fract_x
_atom_site_fract_y
_atom_site_fract_z
Si Si1 0.055791 0.381820 0.408742
Si Si2 0.181613 0.718040 0.697867
Si Si3 0.663150 0.000000 0.500000
Si Si4 0.551102 0.201286 0.113038
Si Si5 0.762439 0.960689 0.830067
Si Si6 0.423887 0.312946 0.648058
Si Si7 0.080636 0.044913 0.157622
Si Si8 0.715881 0.819175 0.934767
O O1 0.116427 0.324714 0.383003
O O2 0.107118 0.442273 0.450260
O O3 0.000000 0.390001 0.250000
O O4 0.997939 0.358335 0.549484
O O5 0.142513 0.785391 0.741019
O O6 0.250750 0.747331 0.595211
O O7 0.205633 0.680641 0.864756
O O8 0.713266 0.019064 0.335318
O O9 0.500000 0.233319 0.250000
O O10 0.634783 0.180198 0.156941
O O11 0.562376 0.255122 0.976054
O O12 0.849792 0.971045 0.779128
O O13 0.752364 0.885604 0.875466
O O14 0.743272 0.000000 0.000000
O O15 0.500000 0.319207 0.750000
O O16 0.405659 0.383325 0.588070
O O17 0.000000 0.041207 0.250000
O O18 0.080525 0.000000 0.000000
#
# Coordination Sequence:
#
# PCOD9317525 Si02
#       8
#     8   8   4   8   8   8   8   8
#     4  12  24  49  72 101 145 187 237 298 369 432
#     4  11  22  42  69 100 136 177 232 292 360 416
#     4  12  30  44  80 104 148 204 238 302 366 456
#     4  11  23  40  66 103 138 175 235 293 342 426
#     4  12  26  49  70 105 148 190 244 299 363 433
#     4  10  19  40  68  92 131 180 220 284 356 401
#     4  11  24  45  71 100 142 189 242 297 362 442
#     4  11  25  41  69 102 136 182 232 295 350 421
#
# _framework density 20.108318000000001
#
# number of rings (size 3 to 8) (size 9 to 14) (size 15 to 20)
#    0.000    0.800    6.000    2.000    3.733    2.133 
#    4.800    0.000    0.000    0.000    0.000    0.000 
#    0.000    0.000    0.000    0.000    0.000    0.000 
#
# Total GULP energy -167216.358913 kJ/mol
# GULP energy per Si atom -5573.878630 kJ/mol
# Density = 2.006255 g / cm^3
# Si number density = 20.108318 Si / 1000 Ang^3
#
#
#
# Elastic Constant Matrix: (Units=GPa)
#
#
# Indices 1 2 3 4 5 6 
#
# 1 112.9460 41.3664 30.8755 0.0000 0.0000 0.0000
# 2 41.3664 135.1508 25.5592 0.0000 0.0000 0.0000
# 3 30.8755 25.5592 52.6956 0.0000 0.0000 0.0000
# 4 0.0000 0.0000 0.0000 16.0558 0.0000 0.0000
# 5 0.0000 0.0000 0.0000 0.0000 32.0554 0.0000
# 6 0.0000 0.0000 0.0000 0.0000 0.0000 67.7116
#
#
#
# Elastic Compliance Matrix: (Units=1/GPa)
#
#
# Indices 1 2 3 4 5 6 
#
# 1 0.011213 -0.002411 -0.005401 0.000000 0.000000 0.000000
# 2 -0.002411 0.008665 -0.002790 0.000000 0.000000 0.000000
# 3 -0.005401 -0.002790 0.023495 0.000000 0.000000 0.000000
# 4 0.000000 0.000000 0.000000 0.062283 0.000000 0.000000
# 5 0.000000 0.000000 0.000000 0.000000 0.031196 0.000000
# 6 0.000000 0.000000 0.000000 0.000000 0.000000 0.014769
#
#
# Mechanical properties :
#
#
# Convention : Reuss Voigt Hill
#
# Bulk Modulus (GPa) = 45.10764 55.15496 50.13130
# Shear Modulus (GPa) = 27.74504 36.69733 32.22119
#
# Velocity S-wave (km/s) = 3.71857 4.27662 4.00732
# Velocity P-wave (km/s) = 6.39672 7.20239 6.81148
#
# Compressibility (1/GPa) = 0.02216919
#
# Stress axis : x y z
#
# Youngs Moduli (GPa) = 89.18164 115.41126 42.56292
#
# Poissons Ratio (x) = 0.27822 0.22987
# Poissons Ratio (y) = 0.21499 0.11876
# Poissons Ratio (z) = 0.48164 0.32202
#
# Static dielectric constant tensor:
#      x y z
#    x 1.987210 0.000000 0.000000 
#    y 0.000000 1.695110 0.000000 
#    z 0.000000 0.000000 1.838110 
# 
# From -- ./inp_files/9604.got.cif
#   From: 2010.05.17/outbox.cif.g08.bks.cpg/sg20_5_cif.got.tgz:9604.got - 2010.06.03 22:52:26.
