data_PCOD9317608
_publ_section_title
;
Structure prediction by ZEFSAII (Michael W. Deem and Ramdas Pophale) SiO2 
 PCOD9317608
Probable space group: C 2 2 21
;
_chemical_formula_sum "Si O2"
_cell_formula_units_Z 36
_cell_length_a 25.652491
_cell_length_b 13.856681
_cell_length_c 5.059579
_cell_angle_alpha 90.000000
_cell_angle_beta 90.000000
_cell_angle_gamma 90.000000
_cell_volume 1798.469778
_symmetry_space_group_name_H-M "C 2 2 21"
_symmetry_group_IT_number 20
_symmetry_cell_setting 'orthorhombic'
loop_
_space_group_symop_operation_xyz
x,y,z
-x,-y,1/2+z
x,-y,-z
-x,y,1/2-z
1/2+x,1/2+y,z
1/2-x,1/2-y,1/2+z
1/2+x,1/2-y,-z
1/2-x,1/2+y,1/2-z
loop_
_atom_site_type_symbol
_atom_site_label
_atom_site_fract_x
_atom_site_fract_y
_atom_site_fract_z
Si Si1 0.943289 0.604204 0.652375
Si Si2 0.369907 0.000000 0.000000
Si Si3 0.347979 0.229870 0.624579
Si Si4 0.203676 0.356320 0.650373
Si Si5 0.320331 0.432783 0.742991
O O1 0.947486 0.500000 0.500000
O O2 0.909567 0.580711 0.909784
O O3 0.903477 0.682898 0.535123
O O4 0.000000 0.635232 0.750000
O O5 0.331926 0.950833 0.789753
O O6 0.312222 0.224317 0.362096
O O7 0.355232 0.336639 0.739726
O O8 0.314582 0.174144 0.855069
O O9 0.262391 0.390172 0.687491
O O10 0.335187 0.500000 0.500000
O O11 0.320392 0.500000 0.000000
#
# Coordination Sequence:
#
# PCOD9317608 Si02
#       5
#     8   4   8   8   8
#     4  11  21  36  58  88 117 151 189 238 305 364
#     4  10  20  32  56  86 122 150 186 226 294 358
#     4  11  24  39  59  87 122 157 200 247 293 352
#     4  11  21  37  58  88 121 157 192 241 291 359
#     4  12  24  39  60  84 119 163 207 243 286 345
#
# _framework density 20.017016999999999
#
# number of rings (size 3 to 8) (size 9 to 14) (size 15 to 20)
#    0.000    0.889    4.444    4.000    3.111    0.000 
#    0.000    0.000    0.000    1.333    0.000    0.000 
#    0.000    0.000    0.000    0.000    0.000    0.000 
#
# Total GULP energy -100285.804199 kJ/mol
# GULP energy per Si atom -5571.433567 kJ/mol
# Density = 1.997146 g / cm^3
# Si number density = 20.017017 Si / 1000 Ang^3
#
#
#
# Elastic Constant Matrix: (Units=GPa)
#
#
# Indices 1 2 3 4 5 6 
#
# 1 84.3446 27.0581 3.5284 0.0000 0.0000 0.0000
# 2 27.0581 100.2201 15.1231 0.0000 0.0000 0.0000
# 3 3.5284 15.1231 79.6140 0.0000 0.0000 0.0000
# 4 0.0000 0.0000 0.0000 38.5336 0.0000 0.0000
# 5 0.0000 0.0000 0.0000 0.0000 -5.6041 0.0000
# 6 0.0000 0.0000 0.0000 0.0000 0.0000 16.2980
#
#
#
# Elastic Compliance Matrix: (Units=1/GPa)
#
#
# Indices 1 2 3 4 5 6 
#
# 1 0.012981 -0.003519 0.000093 0.000000 0.000000 0.000000
# 2 -0.003519 0.011226 -0.001977 0.000000 0.000000 0.000000
# 3 0.000093 -0.001977 0.012932 0.000000 0.000000 0.000000
# 4 0.000000 0.000000 0.000000 0.025951 0.000000 0.000000
# 5 0.000000 0.000000 0.000000 0.000000 -0.178441 0.000000
# 6 0.000000 0.000000 0.000000 0.000000 0.000000 0.061357
#
#
# Mechanical properties :
#
#
# Convention : Reuss Voigt Hill
#
# Bulk Modulus (GPa) = 37.97244 39.51088 38.74166
# Shear Modulus (GPa) = -145.30550 24.41011 -60.44769
#
# Velocity S-wave (km/s) = -8.52928 3.49588 -5.50125
# Velocity P-wave (km/s) = 8.83102 6.00636 4.57769
#
# Compressibility (1/GPa) = 0.02633489
#
# Stress axis : x y z
#
# Youngs Moduli (GPa) = 77.03533 89.07636 77.32797
#
# Poissons Ratio (x) = 0.31344 -0.00720
# Poissons Ratio (y) = 0.27107 0.15284
# Poissons Ratio (z) = -0.00717 0.17606
#
# Static dielectric constant tensor:
#      x y z
#    x 1.706480 0.000000 0.000000 
#    y 0.000000 1.984390 0.000000 
#    z 0.000000 0.000000 1.806640 
# 
# From -- ./inp_files/3558.got.cif
#   From: 2010.05.17/outbox.cif.g08.bks.cpg/sg20_2_cif.got.tgz:3558.got - 2010.06.03 22:52:26.
