data_PCOD9317884
_publ_section_title
;
Structure prediction by ZEFSAII (Michael W. Deem and Ramdas Pophale) SiO2 
 PCOD9317884
Probable space group: C 2 2 21
;
_chemical_formula_sum "Si O2"
_cell_formula_units_Z 48
_cell_length_a 10.419663
_cell_length_b 24.612250
_cell_length_c 9.173901
_cell_angle_alpha 90.000000
_cell_angle_beta 90.000000
_cell_angle_gamma 90.000000
_cell_volume 2352.659302
_symmetry_space_group_name_H-M "C 2 2 21"
_symmetry_group_IT_number 20
_symmetry_cell_setting 'orthorhombic'
loop_
_space_group_symop_operation_xyz
x,y,z
-x,-y,1/2+z
x,-y,-z
-x,y,1/2-z
1/2+x,1/2+y,z
1/2-x,1/2-y,1/2+z
1/2+x,1/2-y,-z
1/2-x,1/2+y,1/2-z
loop_
_atom_site_type_symbol
_atom_site_label
_atom_site_fract_x
_atom_site_fract_y
_atom_site_fract_z
Si Si1 0.286676 0.384916 0.935166
Si Si2 0.624131 0.790295 0.447188
Si Si3 0.500000 0.980019 0.750000
Si Si4 0.801061 0.395966 0.884004
Si Si5 0.670291 0.213222 0.897506
Si Si6 0.029544 0.057091 0.078592
Si Si7 0.666458 0.000000 0.000000
O O1 0.249051 0.369568 0.769262
O O2 0.438285 0.391880 0.962322
O O3 0.242603 0.447155 0.952997
O O4 0.214357 0.345577 0.043989
O O5 0.642452 0.850897 0.509744
O O6 0.473509 0.774602 0.456676
O O7 0.661798 0.786180 0.277217
O O8 0.721611 0.753322 0.539536
O O9 0.407774 0.940147 0.841496
O O10 0.580609 0.015048 0.861784
O O11 0.676190 0.426066 0.945959
O O12 0.000000 0.048698 0.250000
O O13 0.003907 0.000000 0.000000
#
# Coordination Sequence:
#
# PCOD9317884 Si02
#       7
#     8   8   4   8   8   8   4
#     4  10  21  41  62  91 127 173 208 265 318 382
#     4  11  25  46  67 101 125 172 211 274 325 394
#     4  10  22  36  60  92 122 170 208 266 316 378
#     4  10  22  40  63  90 128 166 216 262 325 377
#     4  11  26  44  71  95 133 164 220 265 331 388
#     4  10  22  39  62  93 129 171 214 262 317 380
#     4  10  20  36  60  86 124 166 208 254 316 376
#
# _framework density 20.402443999999999
#
# number of rings (size 3 to 8) (size 9 to 14) (size 15 to 20)
#    0.000    1.667    0.833    3.000    3.500    6.000 
#    0.000    0.000    0.000    0.000    0.000    0.000 
#    0.000    0.000    0.000    0.000    0.000    0.000 
#
# Total GULP energy -134045.023196 kJ/mol
# GULP energy per Si atom -5585.209300 kJ/mol
# Density = 2.035601 g / cm^3
# Si number density = 20.402444 Si / 1000 Ang^3
#
#
#
# Elastic Constant Matrix: (Units=GPa)
#
#
# Indices 1 2 3 4 5 6 
#
# 1 134.6957 27.8880 43.9761 0.0000 0.0000 0.0000
# 2 27.8880 43.9001 30.5731 0.0000 0.0000 0.0000
# 3 43.9761 30.5731 71.7523 0.0000 0.0000 0.0000
# 4 0.0000 0.0000 0.0000 36.1511 0.0000 0.0000
# 5 0.0000 0.0000 0.0000 0.0000 28.2520 0.0000
# 6 0.0000 0.0000 0.0000 0.0000 0.0000 47.5052
#
#
#
# Elastic Compliance Matrix: (Units=1/GPa)
#
#
# Indices 1 2 3 4 5 6 
#
# 1 0.009521 -0.002822 -0.004633 0.000000 0.000000 0.000000
# 2 -0.002822 0.033227 -0.012428 0.000000 0.000000 0.000000
# 3 -0.004633 -0.012428 0.022072 0.000000 0.000000 0.000000
# 4 0.000000 0.000000 0.000000 0.027662 0.000000 0.000000
# 5 0.000000 0.000000 0.000000 0.000000 0.035396 0.000000
# 6 0.000000 0.000000 0.000000 0.000000 0.000000 0.021050
#
#
# Mechanical properties :
#
#
# Convention : Reuss Voigt Hill
#
# Bulk Modulus (GPa) = 39.91420 50.58030 45.24725
# Shear Modulus (GPa) = 25.37490 32.24237 28.80864
#
# Velocity S-wave (km/s) = 3.53047 3.97964 3.76176
# Velocity P-wave (km/s) = 6.01871 6.77951 6.41041
#
# Compressibility (1/GPa) = 0.02505374
#
# Stress axis : x y z
#
# Youngs Moduli (GPa) = 105.03133 30.09600 45.30642
#
# Poissons Ratio (x) = 0.08493 0.20990
# Poissons Ratio (y) = 0.29638 0.56308
# Poissons Ratio (z) = 0.48660 0.37404
#
# Static dielectric constant tensor:
#      x y z
#    x 1.781480 0.000000 0.000000 
#    y 0.000000 1.693310 0.000000 
#    z 0.000000 0.000000 1.703900 
# 
# From -- ./inp_files/7429.got.cif
#   From: 2010.05.17/outbox.cif.g08.bks.cpg/sg20_4_cif.got.tgz:7429.got - 2010.06.03 22:52:26.
