data_PCOD9317345
_publ_section_title
;
Structure prediction by ZEFSAII (Michael W. Deem and Ramdas Pophale) SiO2 
 PCOD9317345
Probable space group: C 2 2 21
;
_chemical_formula_sum "Si O2"
_cell_formula_units_Z 60
_cell_length_a 19.431416
_cell_length_b 8.982258
_cell_length_c 13.843241
_cell_angle_alpha 90.000000
_cell_angle_beta 90.000000
_cell_angle_gamma 90.000000
_cell_volume 2416.171484
_symmetry_space_group_name_H-M "C 2 2 21"
_symmetry_group_IT_number 20
_symmetry_cell_setting 'orthorhombic'
loop_
_space_group_symop_operation_xyz
x,y,z
-x,-y,1/2+z
x,-y,-z
-x,y,1/2-z
1/2+x,1/2+y,z
1/2-x,1/2-y,1/2+z
1/2+x,1/2-y,-z
1/2-x,1/2+y,1/2-z
loop_
_atom_site_type_symbol
_atom_site_label
_atom_site_fract_x
_atom_site_fract_y
_atom_site_fract_z
Si Si1 0.343447 0.265089 0.516297
Si Si2 0.000000 0.128437 0.750000
Si Si3 0.783368 0.153304 0.886490
Si Si4 0.427775 0.220027 0.074759
Si Si5 0.945431 0.396403 0.127468
Si Si6 0.263934 0.907040 0.732860
Si Si7 0.135746 0.035386 0.847532
Si Si8 0.599458 0.931525 0.178764
O O1 0.262844 0.239131 0.534731
O O2 0.357927 0.309919 0.406954
O O3 0.374468 0.401885 0.577238
O O4 0.373231 0.128782 0.577217
O O5 0.018502 0.222742 0.654262
O O6 0.070382 0.043152 0.777280
O O7 0.861559 0.177771 0.913207
O O8 0.766023 0.979797 0.867214
O O9 0.765909 0.247411 0.787064
O O10 0.407116 0.048832 0.097936
O O11 0.451649 0.212297 0.963484
O O12 0.910787 0.329740 0.224080
O O13 0.020702 0.461510 0.152954
O O14 0.209256 0.990642 0.803020
O O15 0.343453 0.955096 0.718311
#
# Coordination Sequence:
#
# PCOD9317345 Si02
#       8
#     8   4   8   8   8   8   8   8
#     4   9  21  37  61  86 116 157 211 240 299 362
#     4  12  22  36  58  84 128 152 196 256 320 354
#     4  10  20  37  62  90 121 157 206 253 298 363
#     4  11  22  36  56  90 117 159 196 255 301 369
#     4  10  22  34  58  86 116 151 204 242 310 350
#     4  10  20  36  60  88 122 158 203 248 304 355
#     4  10  21  37  58  91 115 161 203 251 296 367
#     4  10  19  37  56  85 116 155 192 258 297 360
#
# _framework density 24.832674000000001
#
# number of rings (size 3 to 8) (size 9 to 14) (size 15 to 20)
#    0.000    1.867    2.667    1.600    1.867    2.133 
#    0.000    0.000    0.000    4.000    0.000    0.000 
#    0.000    0.000    0.000    0.000    0.000    0.000 
#
# Total GULP energy -167049.775909 kJ/mol
# GULP energy per Si atom -5568.325864 kJ/mol
# Density = 2.477615 g / cm^3
# Si number density = 24.832674 Si / 1000 Ang^3
#
#
#
# Elastic Constant Matrix: (Units=GPa)
#
#
# Indices 1 2 3 4 5 6 
#
# 1 84.7735 23.5198 38.4997 0.0000 0.0000 0.0000
# 2 23.5198 63.1682 48.4583 0.0000 0.0000 0.0000
# 3 38.4997 48.4583 108.4459 0.0000 0.0000 0.0000
# 4 0.0000 0.0000 0.0000 36.0433 0.0000 0.0000
# 5 0.0000 0.0000 0.0000 0.0000 24.8630 0.0000
# 6 0.0000 0.0000 0.0000 0.0000 0.0000 6.1882
#
#
#
# Elastic Compliance Matrix: (Units=1/GPa)
#
#
# Indices 1 2 3 4 5 6 
#
# 1 0.014256 -0.002169 -0.004092 0.000000 0.000000 0.000000
# 2 -0.002169 0.024418 -0.010141 0.000000 0.000000 0.000000
# 3 -0.004092 -0.010141 0.015205 0.000000 0.000000 0.000000
# 4 0.000000 0.000000 0.000000 0.027744 0.000000 0.000000
# 5 0.000000 0.000000 0.000000 0.000000 0.040220 0.000000
# 6 0.000000 0.000000 0.000000 0.000000 0.000000 0.161597
#
#
# Mechanical properties :
#
#
# Convention : Reuss Voigt Hill
#
# Bulk Modulus (GPa) = 47.44836 53.03814 50.24325
# Shear Modulus (GPa) = 15.46696 23.14623 19.30659
#
# Velocity S-wave (km/s) = 2.49840 3.05632 2.79134
# Velocity P-wave (km/s) = 5.24131 5.81888 5.53763
#
# Compressibility (1/GPa) = 0.02107554
#
# Stress axis : x y z
#
# Youngs Moduli (GPa) = 70.14459 40.95378 65.76683
#
# Poissons Ratio (x) = 0.08883 0.26911
# Poissons Ratio (y) = 0.15215 0.66693
# Poissons Ratio (z) = 0.28703 0.41531
#
# Static dielectric constant tensor:
#      x y z
#    x 1.981270 0.000000 0.000000 
#    y 0.000000 2.075220 0.000000 
#    z 0.000000 0.000000 2.049290 
# 
# From -- ./inp_files/21464.got.cif
#   From: 2010.05.17/outbox.cif.g08.bks.cpg/sg20_11_cif.got.tgz:21464.got - 2010.06.03 22:52:26.
