data_PCOD9317478
_publ_section_title
;
Structure prediction by ZEFSAII (Michael W. Deem and Ramdas Pophale) SiO2 
 PCOD9317478
Probable space group: C 2 2 21
;
_chemical_formula_sum "Si O2"
_cell_formula_units_Z 60
_cell_length_a 7.979475
_cell_length_b 12.230150
_cell_length_c 30.488473
_cell_angle_alpha 90.000000
_cell_angle_beta 90.000000
_cell_angle_gamma 90.000000
_cell_volume 2975.375451
_symmetry_space_group_name_H-M "C 2 2 21"
_symmetry_group_IT_number 20
_symmetry_cell_setting 'orthorhombic'
loop_
_space_group_symop_operation_xyz
x,y,z
-x,-y,1/2+z
x,-y,-z
-x,y,1/2-z
1/2+x,1/2+y,z
1/2-x,1/2-y,1/2+z
1/2+x,1/2-y,-z
1/2-x,1/2+y,1/2-z
loop_
_atom_site_type_symbol
_atom_site_label
_atom_site_fract_x
_atom_site_fract_y
_atom_site_fract_z
Si Si1 0.384380 0.000000 0.500000
Si Si2 0.118175 0.734417 0.786618
Si Si3 0.637834 0.852995 0.779751
Si Si4 0.551646 0.336051 0.333341
Si Si5 0.476839 0.674028 0.937363
Si Si6 0.583399 0.573713 0.439769
Si Si7 0.416500 0.419986 0.837085
Si Si8 0.618039 0.227682 0.982905
O O1 0.259100 0.950351 0.536424
O O2 0.472286 0.891872 0.481404
O O3 0.226769 0.811837 0.754994
O O4 0.256092 0.673466 0.816279
O O5 0.000000 0.675565 0.750000
O O6 0.011604 0.815151 0.817611
O O7 0.500000 0.910545 0.750000
O O8 0.554832 0.748412 0.804098
O O9 0.734113 0.922783 0.815193
O O10 0.533708 0.307223 0.385070
O O11 0.498014 0.462681 0.327628
O O12 0.505240 0.544618 0.944506
O O13 0.297887 0.708831 0.959519
O O14 0.615618 0.735869 0.966024
O O15 0.603948 0.592580 0.388577
O O16 0.480795 0.674066 0.459693
#
# Coordination Sequence:
#
# PCOD9317478 Si02
#       8
#     4   8   8   8   8   8   8   8
#     4  10  22  36  56  88 114 160 196 232 314 338
#     4   9  19  37  57  86 114 149 190 233 292 350
#     4   9  20  36  58  84 115 146 189 234 289 345
#     4  10  21  38  57  88 113 150 191 243 286 344
#     4  10  22  36  62  84 115 158 200 235 302 340
#     4  10  19  39  60  83 117 157 196 238 291 343
#     4  10  21  36  63  83 115 156 191 238 289 346
#     4  11  19  39  58  82 120 158 189 252 278 355
#
# _framework density 20.165521999999999
#
# number of rings (size 3 to 8) (size 9 to 14) (size 15 to 20)
#    0.000    2.133    2.667    0.800    1.867    5.333 
#    2.400    4.000    2.933    0.000    0.000    0.000 
#    0.000    0.000    0.000    0.000    0.000    0.000 
#
# Total GULP energy -167097.171192 kJ/mol
# GULP energy per Si atom -5569.905706 kJ/mol
# Density = 2.011962 g / cm^3
# Si number density = 20.165522 Si / 1000 Ang^3
#
#
#
# Elastic Constant Matrix: (Units=GPa)
#
#
# Indices 1 2 3 4 5 6 
#
# 1 29.4773 14.7650 15.6148 0.0000 0.0000 0.0000
# 2 14.7650 113.0975 47.9114 0.0000 0.0000 0.0000
# 3 15.6148 47.9114 111.1559 0.0000 0.0000 0.0000
# 4 0.0000 0.0000 0.0000 165.6069 0.0000 0.0000
# 5 0.0000 0.0000 0.0000 0.0000 -11.0877 0.0000
# 6 0.0000 0.0000 0.0000 0.0000 0.0000 29.2828
#
#
#
# Elastic Compliance Matrix: (Units=1/GPa)
#
#
# Indices 1 2 3 4 5 6 
#
# 1 0.037614 -0.003269 -0.003875 0.000000 0.000000 0.000000
# 2 -0.003269 0.011101 -0.004326 0.000000 0.000000 0.000000
# 3 -0.003875 -0.004326 0.011405 0.000000 0.000000 0.000000
# 4 0.000000 0.000000 0.000000 0.006038 0.000000 0.000000
# 5 0.000000 0.000000 0.000000 0.000000 -0.090190 0.000000
# 6 0.000000 0.000000 0.000000 0.000000 0.000000 0.034150
#
#
# Mechanical properties :
#
#
# Convention : Reuss Voigt Hill
#
# Bulk Modulus (GPa) = 26.89509 45.59035 36.24272
# Shear Modulus (GPa) = 110.00612 48.45638 79.23125
#
# Velocity S-wave (km/s) = 7.39392 4.90729 6.27501
# Velocity P-wave (km/s) = 9.28760 7.40039 8.39718
#
# Compressibility (1/GPa) = 0.03718151
#
# Stress axis : x y z
#
# Youngs Moduli (GPa) = 26.58551 90.08028 87.67920
#
# Poissons Ratio (x) = 0.29448 0.33975
# Poissons Ratio (y) = 0.08691 0.37927
# Poissons Ratio (z) = 0.10302 0.38966
#
# Static dielectric constant tensor:
#      x y z
#    x 1.738100 0.000000 0.000000 
#    y 0.000000 1.757620 0.000000 
#    z 0.000000 0.000000 1.775160 
# 
# From -- ./inp_files/31041.got.cif
#   From: 2010.05.17/outbox.cif.g08.bks.cpg/sg20_16_cif.got.tgz:31041.got - 2010.06.03 22:52:26.
