data_PCOD9317126
_publ_section_title
;
Structure prediction by ZEFSAII (Michael W. Deem and Ramdas Pophale) SiO2 
 PCOD9317126
Probable space group: C 2 2 21
;
_chemical_formula_sum "Si O2"
_cell_formula_units_Z 36
_cell_length_a 11.067991
_cell_length_b 8.199422
_cell_length_c 15.771353
_cell_angle_alpha 90.000000
_cell_angle_beta 90.000000
_cell_angle_gamma 90.000000
_cell_volume 1431.268089
_symmetry_space_group_name_H-M "C 2 2 21"
_symmetry_group_IT_number 20
_symmetry_cell_setting 'orthorhombic'
loop_
_space_group_symop_operation_xyz
x,y,z
-x,-y,1/2+z
x,-y,-z
-x,y,1/2-z
1/2+x,1/2+y,z
1/2-x,1/2-y,1/2+z
1/2+x,1/2-y,-z
1/2-x,1/2+y,1/2-z
loop_
_atom_site_type_symbol
_atom_site_label
_atom_site_fract_x
_atom_site_fract_y
_atom_site_fract_z
Si Si1 0.698945 0.849318 0.048812
Si Si2 0.253428 0.136424 0.203464
Si Si3 0.907270 0.946160 0.867584
Si Si4 0.833708 0.374402 0.070028
Si Si5 0.000000 0.822022 0.250000
O O1 0.679893 0.753391 0.137827
O O2 0.825981 0.935027 0.076149
O O3 0.722043 0.715538 0.976360
O O4 0.634328 0.000000 0.000000
O O5 0.176527 0.098851 0.286568
O O6 0.379679 0.219409 0.233275
O O7 0.295333 0.976230 0.151851
O O8 0.926588 0.772070 0.911038
O O9 0.013134 0.056838 0.830650
O O10 0.878456 0.500000 0.000000
#
# Coordination Sequence:
#
# PCOD9317126 Si02
#       5
#     8   8   8   8   4
#     4   8  16  31  54  79 112 156 186 225 294 343
#     4  10  19  34  59  86 113 148 196 240 280 338
#     4  10  19  35  59  84 113 149 192 240 286 335
#     4   9  17  31  55  80 110 156 189 224 290 344
#     4  10  22  36  56  84 112 144 186 240 290 332
#
# _framework density 25.152519000000002
#
# number of rings (size 3 to 8) (size 9 to 14) (size 15 to 20)
#    0.000    2.667    0.000    2.667    0.000    0.889 
#    0.000    0.000    0.000  168.000    0.000    0.000 
#    0.000    0.000    0.000    0.000    0.000    0.000 
#
# Total GULP energy -100452.433960 kJ/mol
# GULP energy per Si atom -5580.690776 kJ/mol
# Density = 2.509527 g / cm^3
# Si number density = 25.152519 Si / 1000 Ang^3
#
#
#
# Elastic Constant Matrix: (Units=GPa)
#
#
# Indices 1 2 3 4 5 6 
#
# 1 79.2921 28.9406 24.6248 0.0000 0.0000 0.0000
# 2 28.9406 153.9245 58.3499 0.0000 0.0000 0.0000
# 3 24.6248 58.3499 128.6288 0.0000 0.0000 0.0000
# 4 0.0000 0.0000 0.0000 86.3006 0.0000 0.0000
# 5 0.0000 0.0000 0.0000 0.0000 -0.7281 0.0000
# 6 0.0000 0.0000 0.0000 0.0000 0.0000 -392.7740
#
#
#
# Elastic Compliance Matrix: (Units=1/GPa)
#
#
# Indices 1 2 3 4 5 6 
#
# 1 0.013870 -0.001934 -0.001778 0.000000 0.000000 0.000000
# 2 -0.001934 0.008115 -0.003311 0.000000 0.000000 0.000000
# 3 -0.001778 -0.003311 0.009617 0.000000 0.000000 0.000000
# 4 0.000000 0.000000 0.000000 0.011587 0.000000 0.000000
# 5 0.000000 0.000000 0.000000 0.000000 -1.373467 0.000000
# 6 0.000000 0.000000 0.000000 0.000000 0.000000 -0.002546
#
#
# Mechanical properties :
#
#
# Convention : Reuss Voigt Hill
#
# Bulk Modulus (GPa) = 56.96095 65.07511 61.01803
# Shear Modulus (GPa) = -3.80829 -44.77830 -24.29329
#
# Velocity S-wave (km/s) = -1.23181 -4.22390 -3.11117
# Velocity P-wave (km/s) = 4.54667 1.46284 3.37729
#
# Compressibility (1/GPa) = 0.01755589
#
# Stress axis : x y z
#
# Youngs Moduli (GPa) = 72.10043 123.22102 103.98493
#
# Poissons Ratio (x) = 0.23827 0.18489
# Poissons Ratio (y) = 0.13942 0.34432
# Poissons Ratio (z) = 0.12820 0.40802
#
# Static dielectric constant tensor:
#      x y z
#    x 1.983870 0.000000 0.000000 
#    y 0.000000 2.051540 0.000000 
#    z 0.000000 0.000000 4.609490 
# 
# From -- ./inp_files/18404.got.cif
#   From: 2010.05.17/outbox.cif.g08.bks.cpg/sg20_10_cif.got.tgz:18404.got - 2010.06.03 22:52:26.
