data_PCOD9317047
_publ_section_title
;
Structure prediction by ZEFSAII (Michael W. Deem and Ramdas Pophale) SiO2 
 PCOD9317047
Probable space group: C 2 2 21
;
_chemical_formula_sum "Si O2"
_cell_formula_units_Z 60
_cell_length_a 13.083161
_cell_length_b 25.993523
_cell_length_c 8.897231
_cell_angle_alpha 90.000000
_cell_angle_beta 90.000000
_cell_angle_gamma 90.000000
_cell_volume 3025.747598
_symmetry_space_group_name_H-M "C 2 2 21"
_symmetry_group_IT_number 20
_symmetry_cell_setting 'orthorhombic'
loop_
_space_group_symop_operation_xyz
x,y,z
-x,-y,1/2+z
x,-y,-z
-x,y,1/2-z
1/2+x,1/2+y,z
1/2-x,1/2-y,1/2+z
1/2+x,1/2-y,-z
1/2-x,1/2+y,1/2-z
loop_
_atom_site_type_symbol
_atom_site_label
_atom_site_fract_x
_atom_site_fract_y
_atom_site_fract_z
Si Si1 0.881065 0.148062 0.773088
Si Si2 0.500000 0.766224 0.250000
Si Si3 0.202092 0.946573 0.437139
Si Si4 0.699056 0.133767 0.171635
Si Si5 0.824174 0.225214 0.034133
Si Si6 0.411139 0.965700 0.352758
Si Si7 0.781319 0.342814 0.006317
Si Si8 0.023010 0.355137 0.038365
O O1 0.871349 0.094045 0.860638
O O2 0.846709 0.194524 0.881305
O O3 0.804795 0.144528 0.629970
O O4 0.000000 0.157443 0.750000
O O5 0.577766 0.734789 0.355889
O O6 0.557538 0.805181 0.134118
O O7 0.255985 0.913206 0.571532
O O8 0.291079 0.962415 0.317310
O O9 0.159057 0.000000 0.500000
O O10 0.727374 0.128973 0.345911
O O11 0.749715 0.187173 0.121261
O O12 0.580722 0.141341 0.121639
O O13 0.779053 0.280789 0.994259
O O14 0.500000 0.988105 0.250000
O O15 0.441511 0.907198 0.383811
O O16 0.413685 0.000000 0.500000
O O17 0.900445 0.353867 0.044760
#
# Coordination Sequence:
#
# PCOD9317047 Si02
#       8
#     8   4   8   8   8   8   8   8
#     4  11  25  44  65  93 129 170 226 279 332 402
#     4  10  22  36  62  84 126 180 214 266 324 394
#     4   9  21  43  64  86 123 170 212 274 335 386
#     4  10  22  37  62  90 125 161 213 265 324 397
#     4  10  24  37  61  90 123 169 211 262 324 396
#     4  10  19  33  59  88 122 162 205 257 319 386
#     4  11  23  38  61  92 130 169 205 270 325 396
#     4  10  21  36  60  86 128 164 214 253 327 395
#
# _framework density 19.829809999999998
#
# number of rings (size 3 to 8) (size 9 to 14) (size 15 to 20)
#    0.000    1.867    0.667    2.000   13.067    6.400 
#    0.000    2.000    0.000    0.000    0.000    0.000 
#    0.000    0.000    0.000    0.000    0.000    0.000 
#
# Total GULP energy -167158.715257 kJ/mol
# GULP energy per Si atom -5571.957175 kJ/mol
# Density = 1.978468 g / cm^3
# Si number density = 19.829810 Si / 1000 Ang^3
#
#
#
# Elastic Constant Matrix: (Units=GPa)
#
#
# Indices 1 2 3 4 5 6 
#
# 1 62.1915 0.4770 37.1833 0.0000 0.0000 0.0000
# 2 0.4770 66.9807 3.9655 0.0000 0.0000 0.0000
# 3 37.1833 3.9655 98.0729 0.0000 0.0000 0.0000
# 4 0.0000 0.0000 0.0000 11.3928 0.0000 0.0000
# 5 0.0000 0.0000 0.0000 0.0000 23.7866 0.0000
# 6 0.0000 0.0000 0.0000 0.0000 0.0000 18.3966
#
#
#
# Elastic Compliance Matrix: (Units=1/GPa)
#
#
# Indices 1 2 3 4 5 6 
#
# 1 0.020800 0.000320 -0.007899 0.000000 0.000000 0.000000
# 2 0.000320 0.014970 -0.000726 0.000000 0.000000 0.000000
# 3 -0.007899 -0.000726 0.013221 0.000000 0.000000 0.000000
# 4 0.000000 0.000000 0.000000 0.087775 0.000000 0.000000
# 5 0.000000 0.000000 0.000000 0.000000 0.042040 0.000000
# 6 0.000000 0.000000 0.000000 0.000000 0.000000 0.054358
#
#
# Mechanical properties :
#
#
# Convention : Reuss Voigt Hill
#
# Bulk Modulus (GPa) = 30.88424 34.49965 32.69194
# Shear Modulus (GPa) = 19.18884 23.08982 21.13933
#
# Velocity S-wave (km/s) = 3.11412 3.41603 3.26857
# Velocity P-wave (km/s) = 5.34217 5.74410 5.54678
#
# Compressibility (1/GPa) = 0.03237898
#
# Stress axis : x y z
#
# Youngs Moduli (GPa) = 48.07806 66.79846 75.63936
#
# Poissons Ratio (x) = -0.02134 0.59746
# Poissons Ratio (y) = -0.01536 0.05495
# Poissons Ratio (z) = 0.37976 0.04853
#
# Static dielectric constant tensor:
#      x y z
#    x 1.753500 0.000000 0.000000 
#    y 0.000000 1.687980 0.000000 
#    z 0.000000 0.000000 1.766370 
# 
# From -- ./inp_files/7584.got.cif
#   From: 2010.05.17/outbox.cif.g08.bks.cpg/sg20_4_cif.got.tgz:7584.got - 2010.06.03 22:52:26.
