data_PCOD9317403
_publ_section_title
;
Structure prediction by ZEFSAII (Michael W. Deem and Ramdas Pophale) SiO2 
 PCOD9317403
Probable space group: C 2 2 21
;
_chemical_formula_sum "Si O2"
_cell_formula_units_Z 64
_cell_length_a 8.998876
_cell_length_b 17.038783
_cell_length_c 16.667040
_cell_angle_alpha 90.000000
_cell_angle_beta 90.000000
_cell_angle_gamma 90.000000
_cell_volume 2555.555500
_symmetry_space_group_name_H-M "C 2 2 21"
_symmetry_group_IT_number 20
_symmetry_cell_setting 'orthorhombic'
loop_
_space_group_symop_operation_xyz
x,y,z
-x,-y,1/2+z
x,-y,-z
-x,y,1/2-z
1/2+x,1/2+y,z
1/2-x,1/2-y,1/2+z
1/2+x,1/2-y,-z
1/2-x,1/2+y,1/2-z
loop_
_atom_site_type_symbol
_atom_site_label
_atom_site_fract_x
_atom_site_fract_y
_atom_site_fract_z
Si Si1 0.218106 0.869012 0.836518
Si Si2 0.242041 0.255012 0.799405
Si Si3 0.940315 0.821999 0.427670
Si Si4 0.825210 0.403739 0.263644
Si Si5 0.025370 0.739254 0.918972
Si Si6 0.189530 0.580885 0.493315
Si Si7 0.628550 0.934225 0.062322
Si Si8 0.577790 0.530182 0.833918
O O1 0.259640 0.837653 0.748074
O O2 0.140420 0.795328 0.875871
O O3 0.341967 0.897059 0.900861
O O4 0.093263 0.937482 0.844193
O O5 0.100733 0.236600 0.855595
O O6 0.251314 0.182171 0.737250
O O7 0.387947 0.240453 0.855604
O O8 0.027521 0.779194 0.497931
O O9 0.785013 0.850091 0.468457
O O10 0.993105 0.906277 0.393904
O O11 0.814604 0.449410 0.347771
O O12 0.747166 0.445585 0.188815
O O13 0.000000 0.394744 0.250000
O O14 0.121816 0.661500 0.942470
O O15 0.283137 0.500000 0.500000
O O16 0.048762 0.560858 0.547220
O O17 0.691004 0.000000 0.000000
O O18 0.500000 0.544681 0.750000
#
# Coordination Sequence:
#
# PCOD9317403 Si02
#       8
#     8   8   8   8   8   8   8   8
#     4  11  22  37  70  94 127 179 233 275 332 420
#     4  11  20  41  65  94 129 174 236 283 335 416
#     4  10  22  39  61  90 134 170 223 279 348 403
#     4  11  21  41  71  95 130 177 232 281 343 405
#     4  11  21  38  62  97 122 173 229 279 338 408
#     4  10  19  37  65  96 124 168 224 281 335 416
#     4  11  22  38  66 100 131 165 222 289 353 393
#     4  11  24  43  65  98 136 184 230 278 342 414
#
# _framework density 25.043479000000001
#
# number of rings (size 3 to 8) (size 9 to 14) (size 15 to 20)
#    0.000    1.250    5.000    1.875    1.750    1.000 
#    6.750    0.000    2.750    0.000    0.000    0.000 
#    0.000    0.000    0.000    0.000    0.000    0.000 
#
# Total GULP energy -178320.346550 kJ/mol
# GULP energy per Si atom -5572.510830 kJ/mol
# Density = 2.498648 g / cm^3
# Si number density = 25.043479 Si / 1000 Ang^3
#
#
#
# Elastic Constant Matrix: (Units=GPa)
#
#
# Indices 1 2 3 4 5 6 
#
# 1 32.0027 -5.1901 2.8735 0.0000 0.0000 0.0000
# 2 -5.1901 149.6297 60.6077 0.0000 0.0000 0.0000
# 3 2.8735 60.6077 135.8377 0.0000 0.0000 0.0000
# 4 0.0000 0.0000 0.0000 58.2274 0.0000 0.0000
# 5 0.0000 0.0000 0.0000 0.0000 19.3824 0.0000
# 6 0.0000 0.0000 0.0000 0.0000 0.0000 16.1855
#
#
#
# Elastic Compliance Matrix: (Units=1/GPa)
#
#
# Indices 1 2 3 4 5 6 
#
# 1 0.031645 0.001671 -0.001415 0.000000 0.000000 0.000000
# 2 0.001671 0.008246 -0.003714 0.000000 0.000000 0.000000
# 3 -0.001415 -0.003714 0.009049 0.000000 0.000000 0.000000
# 4 0.000000 0.000000 0.000000 0.017174 0.000000 0.000000
# 5 0.000000 0.000000 0.000000 0.000000 0.051593 0.000000
# 6 0.000000 0.000000 0.000000 0.000000 0.000000 0.061784
#
#
# Mechanical properties :
#
#
# Convention : Reuss Voigt Hill
#
# Bulk Modulus (GPa) = 23.79653 48.22804 36.01229
# Shear Modulus (GPa) = 24.94818 36.03765 30.49292
#
# Velocity S-wave (km/s) = 3.15968 3.79754 3.49320
# Velocity P-wave (km/s) = 4.77851 6.20708 5.53905
#
# Compressibility (1/GPa) = 0.04202293
#
# Stress axis : x y z
#
# Youngs Moduli (GPa) = 31.60023 121.27643 110.51039
#
# Poissons Ratio (x) = -0.20262 0.15636
# Poissons Ratio (y) = -0.05280 0.41048
# Poissons Ratio (z) = 0.04471 0.45046
#
# Static dielectric constant tensor:
#      x y z
#    x 2.038010 0.000000 0.000000 
#    y 0.000000 2.189250 0.000000 
#    z 0.000000 0.000000 2.120940 
# 
# From -- ./inp_files/20258.got.cif
#   From: 2010.05.17/outbox.cif.g08.bks.cpg/sg20_11_cif.got.tgz:20258.got - 2010.06.03 22:52:26.
