data_PCOD9317879
_publ_section_title
;
Structure prediction by ZEFSAII (Michael W. Deem and Ramdas Pophale) SiO2 
 PCOD9317879
Probable space group: C 2 2 21
;
_chemical_formula_sum "Si O2"
_cell_formula_units_Z 64
_cell_length_a 7.529168
_cell_length_b 12.928971
_cell_length_c 27.090426
_cell_angle_alpha 90.000000
_cell_angle_beta 90.000000
_cell_angle_gamma 90.000000
_cell_volume 2637.101122
_symmetry_space_group_name_H-M "C 2 2 21"
_symmetry_group_IT_number 20
_symmetry_cell_setting 'orthorhombic'
loop_
_space_group_symop_operation_xyz
x,y,z
-x,-y,1/2+z
x,-y,-z
-x,y,1/2-z
1/2+x,1/2+y,z
1/2-x,1/2-y,1/2+z
1/2+x,1/2-y,-z
1/2-x,1/2+y,1/2-z
loop_
_atom_site_type_symbol
_atom_site_label
_atom_site_fract_x
_atom_site_fract_y
_atom_site_fract_z
Si Si1 0.172570 0.126151 0.783205
Si Si2 0.719047 0.828709 0.828885
Si Si3 0.541732 0.778784 0.935189
Si Si4 0.955566 0.011786 0.863770
Si Si5 0.282252 0.613954 0.984016
Si Si6 0.684954 0.641900 0.106708
Si Si7 0.904491 0.376837 0.388455
Si Si8 0.100613 0.530559 0.313489
O O1 0.266289 0.233429 0.794250
O O2 0.000000 0.138724 0.750000
O O3 0.091913 0.079819 0.833475
O O4 0.311273 0.036695 0.770036
O O5 0.639373 0.785471 0.881370
O O6 0.559696 0.892503 0.804460
O O7 0.871580 0.912291 0.836650
O O8 0.446960 0.676169 0.958458
O O9 0.360948 0.845802 0.926498
O O10 0.691794 0.820923 0.972045
O O11 0.790876 0.086863 0.871562
O O12 0.056193 0.952278 0.908012
O O13 0.115191 0.597776 0.946103
O O14 0.334909 0.500000 0.000000
O O15 0.588030 0.752482 0.112452
O O16 0.758065 0.605726 0.159870
O O17 0.033692 0.445326 0.354793
#
# Coordination Sequence:
#
# PCOD9317879 Si02
#       8
#     8   8   8   8   8   8   8   8
#     4  11  23  37  58  90 118 145 187 236 292 360
#     4  10  21  41  63  84 116 159 196 239 293 351
#     4  10  23  38  58  87 117 156 204 238 286 351
#     4  10  20  37  64  85 109 151 193 236 294 352
#     4  11  22  38  57  85 122 154 194 252 291 326
#     4   9  18  35  56  80 109 143 185 234 278 333
#     4  10  20  36  60  83 109 153 197 234 284 340
#     4   9  19  36  58  82 110 145 188 231 283 345
#
# _framework density 24.269072000000001
#
# number of rings (size 3 to 8) (size 9 to 14) (size 15 to 20)
#    0.000    2.000    0.000    5.250    0.000    6.000 
#    0.000    6.250    0.000    3.000    0.000    0.000 
#    0.000    0.000    0.000    0.000    0.000    0.000 
#
# Total GULP energy -178513.672264 kJ/mol
# GULP energy per Si atom -5578.552258 kJ/mol
# Density = 2.421383 g / cm^3
# Si number density = 24.269072 Si / 1000 Ang^3
#
#
#
# Elastic Constant Matrix: (Units=GPa)
#
#
# Indices 1 2 3 4 5 6 
#
# 1 66.5756 -5.9059 5.0899 0.0000 0.0000 0.0000
# 2 -5.9059 54.5056 32.1660 0.0000 0.0000 0.0000
# 3 5.0899 32.1660 37.3563 0.0000 0.0000 0.0000
# 4 0.0000 0.0000 0.0000 24.7139 0.0000 0.0000
# 5 0.0000 0.0000 0.0000 0.0000 22.3605 0.0000
# 6 0.0000 0.0000 0.0000 0.0000 0.0000 32.4800
#
#
#
# Elastic Compliance Matrix: (Units=1/GPa)
#
#
# Indices 1 2 3 4 5 6 
#
# 1 0.016146 0.006197 -0.007536 0.000000 0.000000 0.000000
# 2 0.006197 0.039679 -0.035011 0.000000 0.000000 0.000000
# 3 -0.007536 -0.035011 0.057942 0.000000 0.000000 0.000000
# 4 0.000000 0.000000 0.000000 0.040463 0.000000 0.000000
# 5 0.000000 0.000000 0.000000 0.000000 0.044722 0.000000
# 6 0.000000 0.000000 0.000000 0.000000 0.000000 0.030788
#
#
# Mechanical properties :
#
#
# Convention : Reuss Voigt Hill
#
# Bulk Modulus (GPa) = 24.34949 24.57085 24.46017
# Shear Modulus (GPa) = 15.81628 24.38338 20.09983
#
# Velocity S-wave (km/s) = 2.55562 3.17315 2.88098
# Velocity P-wave (km/s) = 4.33165 4.85505 4.60080
#
# Compressibility (1/GPa) = 0.04106863
#
# Stress axis : x y z
#
# Youngs Moduli (GPa) = 61.93352 25.20197 17.25856
#
# Poissons Ratio (x) = -0.15617 0.13005
# Poissons Ratio (y) = -0.38378 0.60423
# Poissons Ratio (z) = 0.46671 0.88234
#
# Static dielectric constant tensor:
#      x y z
#    x 2.033540 0.000000 0.000000 
#    y 0.000000 1.977700 0.000000 
#    z 0.000000 0.000000 2.082980 
# 
# From -- ./inp_files/31084.got.cif
#   From: 2010.05.17/outbox.cif.g08.bks.cpg/sg20_16_cif.got.tgz:31084.got - 2010.06.03 22:52:26.
