data_PCOD9317959
_publ_section_title
;
Structure prediction by ZEFSAII (Michael W. Deem and Ramdas Pophale) SiO2 
 PCOD9317959
Probable space group: C 2 2 21
;
_chemical_formula_sum "Si O2"
_cell_formula_units_Z 40
_cell_length_a 5.131907
_cell_length_b 19.169290
_cell_length_c 18.919245
_cell_angle_alpha 90.000000
_cell_angle_beta 90.000000
_cell_angle_gamma 90.000000
_cell_volume 1861.180983
_symmetry_space_group_name_H-M "C 2 2 21"
_symmetry_group_IT_number 20
_symmetry_cell_setting 'orthorhombic'
loop_
_space_group_symop_operation_xyz
x,y,z
-x,-y,1/2+z
x,-y,-z
-x,y,1/2-z
1/2+x,1/2+y,z
1/2-x,1/2-y,1/2+z
1/2+x,1/2-y,-z
1/2-x,1/2+y,1/2-z
loop_
_atom_site_type_symbol
_atom_site_label
_atom_site_fract_x
_atom_site_fract_y
_atom_site_fract_z
Si Si1 0.345309 0.000000 0.500000
Si Si2 0.125448 0.296679 0.671528
Si Si3 0.627393 0.636752 0.671531
Si Si4 0.500000 0.389091 0.750000
Si Si5 0.365774 0.062226 0.882207
Si Si6 0.860139 0.429118 0.633724
O O1 0.526094 0.057991 0.537831
O O2 0.211493 0.038948 0.434310
O O3 0.149322 0.217459 0.648218
O O4 0.389202 0.337674 0.689369
O O5 0.000000 0.293862 0.750000
O O6 0.954483 0.349894 0.625787
O O7 0.500000 0.634028 0.750000
O O8 0.414667 0.595534 0.625477
O O9 0.912228 0.602855 0.662851
O O10 0.706965 0.433887 0.707017
O O11 0.391980 0.981070 0.860450
#
# Coordination Sequence:
#
# PCOD9317959 Si02
#       6
#     4   8   8   4   8   8
#     4   8  22  44  60  92 134 182 218 288 330 408
#     4   9  21  37  61  91 130 168 213 273 341 401
#     4  11  24  39  64  99 132 163 213 281 338 391
#     4  10  20  36  68 100 128 174 226 284 342 410
#     4  10  24  41  64  92 131 172 217 268 333 389
#     4   9  21  40  63  91 128 179 226 275 335 411
#
# _framework density 21.491731999999999
#
# number of rings (size 3 to 8) (size 9 to 14) (size 15 to 20)
#    1.200    1.200    0.000    0.600   12.600    4.000 
#    3.600    2.000    0.000    0.000    0.000    0.000 
#    0.000    0.000    0.000    0.000    0.000    0.000 
#
# Total GULP energy -111392.371850 kJ/mol
# GULP energy per Si atom -5569.618593 kJ/mol
# Density = 2.144282 g / cm^3
# Si number density = 21.491732 Si / 1000 Ang^3
#
#
#
# Elastic Constant Matrix: (Units=GPa)
#
#
# Indices 1 2 3 4 5 6 
#
# 1 66.0951 12.0307 9.1033 0.0000 0.0000 0.0000
# 2 12.0307 114.2834 27.8935 0.0000 0.0000 0.0000
# 3 9.1033 27.8935 75.7121 0.0000 0.0000 0.0000
# 4 0.0000 0.0000 0.0000 10.6009 0.0000 0.0000
# 5 0.0000 0.0000 0.0000 0.0000 18.7209 0.0000
# 6 0.0000 0.0000 0.0000 0.0000 0.0000 225.6580
#
#
#
# Elastic Compliance Matrix: (Units=1/GPa)
#
#
# Indices 1 2 3 4 5 6 
#
# 1 0.015558 -0.001298 -0.001392 0.000000 0.000000 0.000000
# 2 -0.001298 0.009723 -0.003426 0.000000 0.000000 0.000000
# 3 -0.001392 -0.003426 0.014638 0.000000 0.000000 0.000000
# 4 0.000000 0.000000 0.000000 0.094332 0.000000 0.000000
# 5 0.000000 0.000000 0.000000 0.000000 0.053416 0.000000
# 6 0.000000 0.000000 0.000000 0.000000 0.000000 0.004431
#
#
# Mechanical properties :
#
#
# Convention : Reuss Voigt Hill
#
# Bulk Modulus (GPa) = 36.11995 39.34951 37.73473
# Shear Modulus (GPa) = 23.41274 64.80017 44.10645
#
# Velocity S-wave (km/s) = 3.30416 5.49697 4.53509
# Velocity P-wave (km/s) = 5.60353 7.65753 6.70960
#
# Compressibility (1/GPa) = 0.02768553
#
# Stress axis : x y z
#
# Youngs Moduli (GPa) = 64.27668 102.84873 68.31741
#
# Poissons Ratio (x) = 0.13349 0.09513
# Poissons Ratio (y) = 0.08343 0.23406
# Poissons Ratio (z) = 0.08950 0.35237
#
# Static dielectric constant tensor:
#      x y z
#    x 1.880590 0.000000 0.000000 
#    y 0.000000 1.783120 0.000000 
#    z 0.000000 0.000000 1.813290 
# 
# From -- ./inp_files/26010.got.cif
#   From: 2010.05.17/outbox.cif.g08.bks.cpg/sg20_14_cif.got.tgz:26010.got - 2010.06.03 22:52:26.
