data_PCOD9317373
_publ_section_title
;
Structure prediction by ZEFSAII (Michael W. Deem and Ramdas Pophale) SiO2 
 PCOD9317373
Probable space group: C 2 2 21
;
_chemical_formula_sum "Si O2"
_cell_formula_units_Z 48
_cell_length_a 16.564036
_cell_length_b 8.516363
_cell_length_c 18.660771
_cell_angle_alpha 90.000000
_cell_angle_beta 90.000000
_cell_angle_gamma 90.000000
_cell_volume 2632.388068
_symmetry_space_group_name_H-M "C 2 2 21"
_symmetry_group_IT_number 20
_symmetry_cell_setting 'orthorhombic'
loop_
_space_group_symop_operation_xyz
x,y,z
-x,-y,1/2+z
x,-y,-z
-x,y,1/2-z
1/2+x,1/2+y,z
1/2-x,1/2-y,1/2+z
1/2+x,1/2-y,-z
1/2-x,1/2+y,1/2-z
loop_
_atom_site_type_symbol
_atom_site_label
_atom_site_fract_x
_atom_site_fract_y
_atom_site_fract_z
Si Si1 0.137272 0.068051 0.919854
Si Si2 0.845733 0.436411 0.577958
Si Si3 0.213641 0.151104 0.197528
Si Si4 0.197097 0.944731 0.337210
Si Si5 0.515535 0.459575 0.663964
Si Si6 0.445388 0.136766 0.684428
O O1 0.161289 0.249521 0.920731
O O2 0.050425 0.052683 0.881453
O O3 0.194432 0.960905 0.869661
O O4 0.134997 0.000000 0.000000
O O5 0.867443 0.500000 0.500000
O O6 0.760412 0.511833 0.601241
O O7 0.912579 0.501963 0.633169
O O8 0.288876 0.263500 0.182889
O O9 0.135501 0.265956 0.207615
O O10 0.221977 0.047262 0.267913
O O11 0.105346 0.987100 0.353311
O O12 0.500000 0.479193 0.750000
O O13 0.498828 0.275125 0.648436
O O14 0.500000 0.078468 0.750000
#
# Coordination Sequence:
#
# PCOD9317373 Si02
#       6
#     8   8   8   8   8   8
#     4  11  22  41  61  82 121 165 204 250 308 361
#     4  11  24  39  59  90 121 160 206 251 305 367
#     4  10  20  36  59  93 116 160 197 250 297 357
#     4  11  20  36  62  87 125 154 206 246 300 361
#     4  10  19  37  61  89 122 156 199 245 303 363
#     4   9  17  37  61  87 119 156 196 247 299 354
#
# _framework density 18.234394000000002
#
# number of rings (size 3 to 8) (size 9 to 14) (size 15 to 20)
#    0.000    1.667    5.000    4.000    0.000    1.333 
#    3.000    0.000    0.000    2.000    0.000    0.000 
#    0.000    0.000    0.000    0.000    0.000    0.000 
#
# Total GULP energy -133944.879661 kJ/mol
# GULP energy per Si atom -5581.036653 kJ/mol
# Density = 1.819289 g / cm^3
# Si number density = 18.234394 Si / 1000 Ang^3
#
#
#
# Elastic Constant Matrix: (Units=GPa)
#
#
# Indices 1 2 3 4 5 6 
#
# 1 62.4898 14.5496 -8.4202 0.0000 0.0000 0.0000
# 2 14.5496 79.2603 12.1976 0.0000 0.0000 0.0000
# 3 -8.4202 12.1976 59.6672 0.0000 0.0000 0.0000
# 4 0.0000 0.0000 0.0000 29.1452 0.0000 0.0000
# 5 0.0000 0.0000 0.0000 0.0000 20.5526 0.0000
# 6 0.0000 0.0000 0.0000 0.0000 0.0000 27.6289
#
#
#
# Elastic Compliance Matrix: (Units=1/GPa)
#
#
# Indices 1 2 3 4 5 6 
#
# 1 0.017285 -0.003664 0.003188 0.000000 0.000000 0.000000
# 2 -0.003664 0.013803 -0.003339 0.000000 0.000000 0.000000
# 3 0.003188 -0.003339 0.017892 0.000000 0.000000 0.000000
# 4 0.000000 0.000000 0.000000 0.034311 0.000000 0.000000
# 5 0.000000 0.000000 0.000000 0.000000 0.048656 0.000000
# 6 0.000000 0.000000 0.000000 0.000000 0.000000 0.036194
#
#
# Mechanical properties :
#
#
# Convention : Reuss Voigt Hill
#
# Bulk Modulus (GPa) = 24.18261 26.45236 25.31748
# Shear Modulus (GPa) = 26.37782 27.67136 27.02459
#
# Velocity S-wave (km/s) = 3.80754 3.89978 3.85394
# Velocity P-wave (km/s) = 5.71145 5.90052 5.80675
#
# Compressibility (1/GPa) = 0.04135203
#
# Stress axis : x y z
#
# Youngs Moduli (GPa) = 57.85290 72.44804 55.89060
#
# Poissons Ratio (x) = 0.26542 -0.17819
# Poissons Ratio (y) = 0.21195 0.18660
# Poissons Ratio (z) = -0.18445 0.24188
#
# Static dielectric constant tensor:
#      x y z
#    x 1.628710 0.000000 0.000000 
#    y 0.000000 1.629310 0.000000 
#    z 0.000000 0.000000 1.621640 
# 
# From -- ./inp_files/25154.got.cif
#   From: 2010.05.17/outbox.cif.g08.bks.cpg/sg20_13_cif.got.tgz:25154.got - 2010.06.03 22:52:26.
