data_PCOD9317681
_publ_section_title
;
Structure prediction by ZEFSAII (Michael W. Deem and Ramdas Pophale) SiO2 
 PCOD9317681
Probable space group: C 2 2 21
;
_chemical_formula_sum "Si O2"
_cell_formula_units_Z 44
_cell_length_a 15.964218
_cell_length_b 9.421707
_cell_length_c 11.965573
_cell_angle_alpha 90.000000
_cell_angle_beta 90.000000
_cell_angle_gamma 90.000000
_cell_volume 1799.744042
_symmetry_space_group_name_H-M "C 2 2 21"
_symmetry_group_IT_number 20
_symmetry_cell_setting 'orthorhombic'
loop_
_space_group_symop_operation_xyz
x,y,z
-x,-y,1/2+z
x,-y,-z
-x,y,1/2-z
1/2+x,1/2+y,z
1/2-x,1/2-y,1/2+z
1/2+x,1/2-y,-z
1/2-x,1/2+y,1/2-z
loop_
_atom_site_type_symbol
_atom_site_label
_atom_site_fract_x
_atom_site_fract_y
_atom_site_fract_z
Si Si1 0.816743 0.500000 0.000000
Si Si2 0.771279 0.408333 0.650541
Si Si3 0.370481 0.276733 0.948480
Si Si4 0.179623 0.092292 0.822841
Si Si5 0.592351 0.134859 0.790876
Si Si6 0.467391 0.588100 0.377979
O O1 0.871284 0.361448 0.973478
O O2 0.753719 0.461703 0.097907
O O3 0.719319 0.353546 0.542283
O O4 0.807704 0.258989 0.699017
O O5 0.697028 0.493979 0.715236
O O6 0.848693 0.515919 0.656819
O O7 0.373774 0.207023 0.823263
O O8 0.452152 0.372855 0.952399
O O9 0.093478 0.047226 0.884114
O O10 0.500000 0.084743 0.750000
O O11 0.585059 0.265173 0.877317
O O12 0.500000 0.577541 0.250000
#
# Coordination Sequence:
#
# PCOD9317681 Si02
#       6
#     4   8   8   8   8   8
#     4  10  20  34  54  82 110 154 176 222 286 340
#     4  11  17  32  55  82 105 141 187 230 260 327
#     4   9  18  33  58  74 109 145 180 219 273 332
#     4  11  20  33  59  82 111 144 186 229 279 328
#     4   9  17  32  52  83 102 134 186 231 258 318
#     4   9  17  35  57  80 104 141 188 228 271 323
#
# _framework density 24.44792
#
# number of rings (size 3 to 8) (size 9 to 14) (size 15 to 20)
#    0.000    2.545    7.273    0.000    0.000    0.727 
#    0.000    7.273    4.000   13.091    0.000    0.000 
#    0.000    0.000    0.000    0.000    0.000    0.000 
#
# Total GULP energy -122631.283441 kJ/mol
# GULP energy per Si atom -5574.149247 kJ/mol
# Density = 2.439228 g / cm^3
# Si number density = 24.447920 Si / 1000 Ang^3
#
#
#
# Elastic Constant Matrix: (Units=GPa)
#
#
# Indices 1 2 3 4 5 6 
#
# 1 159.4495 79.2401 -1.4055 0.0000 0.0000 0.0000
# 2 79.2401 201.5569 24.0604 0.0000 0.0000 0.0000
# 3 -1.4055 24.0604 21.8420 0.0000 0.0000 0.0000
# 4 0.0000 0.0000 0.0000 29.3641 0.0000 0.0000
# 5 0.0000 0.0000 0.0000 0.0000 10.4419 0.0000
# 6 0.0000 0.0000 0.0000 0.0000 0.0000 52.6265
#
#
#
# Elastic Compliance Matrix: (Units=1/GPa)
#
#
# Indices 1 2 3 4 5 6 
#
# 1 0.008192 -0.003781 0.004692 0.000000 0.000000 0.000000
# 2 -0.003781 0.007457 -0.008458 0.000000 0.000000 0.000000
# 3 0.004692 -0.008458 0.055402 0.000000 0.000000 0.000000
# 4 0.000000 0.000000 0.000000 0.034055 0.000000 0.000000
# 5 0.000000 0.000000 0.000000 0.000000 0.095768 0.000000
# 6 0.000000 0.000000 0.000000 0.000000 0.000000 0.019002
#
#
# Mechanical properties :
#
#
# Convention : Reuss Voigt Hill
#
# Bulk Modulus (GPa) = 17.87066 65.18204 41.52635
# Shear Modulus (GPa) = 19.71432 37.21673 28.46552
#
# Velocity S-wave (km/s) = 2.84276 3.90588 3.41593
# Velocity P-wave (km/s) = 4.25448 6.86008 5.70795
#
# Compressibility (1/GPa) = 0.05595764
#
# Stress axis : x y z
#
# Youngs Moduli (GPa) = 122.07462 134.09654 18.04975
#
# Poissons Ratio (x) = 0.50696 -0.08468
# Poissons Ratio (y) = 0.46151 0.15266
# Poissons Ratio (z) = -0.57273 1.13419
#
# Static dielectric constant tensor:
#      x y z
#    x 2.009530 0.000000 0.000000 
#    y 0.000000 2.113650 0.000000 
#    z 0.000000 0.000000 2.223530 
# 
# From -- ./inp_files/21236.got.cif
#   From: 2010.05.17/outbox.cif.g08.bks.cpg/sg20_11_cif.got.tgz:21236.got - 2010.06.03 22:52:26.
