data_PCOD9317132
_publ_section_title
;
Structure prediction by ZEFSAII (Michael W. Deem and Ramdas Pophale) SiO2 
 PCOD9317132
Probable space group: C 2 2 21
;
_chemical_formula_sum "Si O2"
_cell_formula_units_Z 40
_cell_length_a 8.491861
_cell_length_b 27.261934
_cell_length_c 7.274649
_cell_angle_alpha 90.000000
_cell_angle_beta 90.000000
_cell_angle_gamma 90.000000
_cell_volume 1684.114373
_symmetry_space_group_name_H-M "C 2 2 21"
_symmetry_group_IT_number 20
_symmetry_cell_setting 'orthorhombic'
loop_
_space_group_symop_operation_xyz
x,y,z
-x,-y,1/2+z
x,-y,-z
-x,y,1/2-z
1/2+x,1/2+y,z
1/2-x,1/2-y,1/2+z
1/2+x,1/2-y,-z
1/2-x,1/2+y,1/2-z
loop_
_atom_site_type_symbol
_atom_site_label
_atom_site_fract_x
_atom_site_fract_y
_atom_site_fract_z
Si Si1 0.397897 0.787751 0.085835
Si Si2 0.657278 0.410958 0.465384
Si Si3 0.318210 0.556328 0.537050
Si Si4 0.997420 0.610348 0.973399
Si Si5 0.849672 0.803002 0.137676
O O1 0.500000 0.763896 0.250000
O O2 0.494373 0.830729 0.984762
O O3 0.270794 0.817227 0.203517
O O4 0.311218 0.744964 0.978386
O O5 0.669041 0.430515 0.254544
O O6 0.495412 0.434313 0.539746
O O7 0.621730 0.352615 0.470648
O O8 0.837893 0.414222 0.538160
O O9 0.280364 0.500000 0.500000
O O10 0.168207 0.587294 0.464339
O O11 0.000000 0.605519 0.750000
O O12 0.000000 0.786534 0.250000
#
# Coordination Sequence:
#
# PCOD9317132 Si02
#       5
#     8   8   8   8   8
#     4  11  21  37  60  97 128 172 220 257 314 400
#     4  10  19  38  61  85 117 163 205 262 331 383
#     4  10  19  34  61  87 109 152 213 257 318 385
#     4   9  17  36  58  84 123 157 205 255 315 385
#     4  12  21  36  64  92 129 174 213 263 325 385
#
# _framework density 23.751355
#
# number of rings (size 3 to 8) (size 9 to 14) (size 15 to 20)
#    0.000    1.600    8.000    1.200    0.000    0.800 
#    0.000    0.000   13.200    3.600    0.000    0.000 
#    0.000    0.000    0.000    0.000    0.000    0.000 
#
# Total GULP energy -111435.700215 kJ/mol
# GULP energy per Si atom -5571.785011 kJ/mol
# Density = 2.369730 g / cm^3
# Si number density = 23.751355 Si / 1000 Ang^3
#
#
#
# Elastic Constant Matrix: (Units=GPa)
#
#
# Indices 1 2 3 4 5 6 
#
# 1 150.8982 34.7210 26.8984 0.0000 0.0000 0.0000
# 2 34.7210 119.9172 11.7362 0.0000 0.0000 0.0000
# 3 26.8984 11.7362 59.2263 0.0000 0.0000 0.0000
# 4 0.0000 0.0000 0.0000 -3.5344 0.0000 0.0000
# 5 0.0000 0.0000 0.0000 0.0000 -5.6427 0.0000
# 6 0.0000 0.0000 0.0000 0.0000 0.0000 36.0860
#
#
#
# Elastic Compliance Matrix: (Units=1/GPa)
#
#
# Indices 1 2 3 4 5 6 
#
# 1 0.007614 -0.001903 -0.003081 0.000000 0.000000 0.000000
# 2 -0.001903 0.008980 -0.000915 0.000000 0.000000 0.000000
# 3 -0.003081 -0.000915 0.018465 0.000000 0.000000 0.000000
# 4 0.000000 0.000000 0.000000 -0.282936 0.000000 0.000000
# 5 0.000000 0.000000 0.000000 0.000000 -0.177221 0.000000
# 6 0.000000 0.000000 0.000000 0.000000 0.000000 0.027712
#
#
# Mechanical properties :
#
#
# Convention : Reuss Voigt Hill
#
# Bulk Modulus (GPa) = 42.99125 52.97252 47.98188
# Shear Modulus (GPa) = -13.23329 22.49420 4.63045
#
# Velocity S-wave (km/s) = -2.36298 3.08079 1.39778
# Velocity P-wave (km/s) = 3.27031 5.91662 4.78024
#
# Compressibility (1/GPa) = 0.02326055
#
# Stress axis : x y z
#
# Youngs Moduli (GPa) = 131.33598 111.36275 54.15659
#
# Poissons Ratio (x) = 0.21193 0.16685
# Poissons Ratio (y) = 0.24994 0.04956
# Poissons Ratio (z) = 0.40464 0.10191
#
# Static dielectric constant tensor:
#      x y z
#    x 2.178310 0.000000 0.000000 
#    y 0.000000 1.805190 0.000000 
#    z 0.000000 0.000000 1.888840 
# 
# From -- ./inp_files/6083.got.cif
#   From: 2010.05.17/outbox.cif.g08.bks.cpg/sg20_4_cif.got.tgz:6083.got - 2010.06.03 22:52:26.
