data_PCOD9317123
_publ_section_title
;
Structure prediction by ZEFSAII (Michael W. Deem and Ramdas Pophale) SiO2 
 PCOD9317123
Probable space group: C 2 2 21
;
_chemical_formula_sum "Si O2"
_cell_formula_units_Z 56
_cell_length_a 11.242358
_cell_length_b 14.268611
_cell_length_c 13.123809
_cell_angle_alpha 90.000000
_cell_angle_beta 90.000000
_cell_angle_gamma 90.000000
_cell_volume 2105.227382
_symmetry_space_group_name_H-M "C 2 2 21"
_symmetry_group_IT_number 20
_symmetry_cell_setting 'orthorhombic'
loop_
_space_group_symop_operation_xyz
x,y,z
-x,-y,1/2+z
x,-y,-z
-x,y,1/2-z
1/2+x,1/2+y,z
1/2-x,1/2-y,1/2+z
1/2+x,1/2-y,-z
1/2-x,1/2+y,1/2-z
loop_
_atom_site_type_symbol
_atom_site_label
_atom_site_fract_x
_atom_site_fract_y
_atom_site_fract_z
Si Si1 0.606512 0.896283 0.472452
Si Si2 0.933277 0.163144 0.337082
Si Si3 0.231666 0.355237 0.821867
Si Si4 0.717638 0.346228 0.211454
Si Si5 0.974216 0.034285 0.609828
Si Si6 0.091215 0.800498 0.492971
Si Si7 0.101463 0.446310 0.162642
O O1 0.686944 0.862187 0.378892
O O2 0.613109 0.805312 0.545497
O O3 0.650313 0.000000 0.500000
O O4 0.472080 0.914927 0.435463
O O5 0.809583 0.139146 0.283977
O O6 0.000000 0.223141 0.250000
O O7 0.963048 0.206987 0.445751
O O8 0.008624 0.066495 0.348906
O O9 0.164543 0.257201 0.800456
O O10 0.309786 0.331336 0.923632
O O11 0.162101 0.451273 0.839433
O O12 0.617814 0.421378 0.187159
O O13 0.797534 0.370415 0.309174
O O14 0.069587 0.113876 0.583488
O O15 0.921653 0.000000 0.500000
O O16 0.000000 0.452420 0.250000
#
# Coordination Sequence:
#
# PCOD9317123 Si02
#       7
#     8   8   8   8   8   8   8
#     4  10  21  37  58  85 123 159 199 245 299 368
#     4   9  17  34  59  82 112 152 197 244 297 357
#     4  10  19  36  62  87 118 159 198 249 300 363
#     4  10  20  36  62  85 116 161 207 242 303 362
#     4  10  19  34  59  83 115 152 200 249 294 363
#     4   9  20  35  59  86 114 158 197 238 301 365
#     4  10  21  38  62  91 120 161 203 249 300 361
#
# _framework density 26.600452000000001
#
# number of rings (size 3 to 8) (size 9 to 14) (size 15 to 20)
#    0.000    2.286    1.429    1.286    2.000    3.429 
#    0.000    4.286    0.000    0.000    0.000    0.000 
#    0.000    0.000    0.000    0.000    0.000    0.000 
#
# Total GULP energy -156315.159246 kJ/mol
# GULP energy per Si atom -5582.684259 kJ/mol
# Density = 2.653991 g / cm^3
# Si number density = 26.600452 Si / 1000 Ang^3
#
#
#
# Elastic Constant Matrix: (Units=GPa)
#
#
# Indices 1 2 3 4 5 6 
#
# 1 81.4191 30.5929 16.5126 0.0000 0.0000 0.0000
# 2 30.5929 203.2605 1.4897 0.0000 0.0000 0.0000
# 3 16.5126 1.4897 67.6163 0.0000 0.0000 0.0000
# 4 0.0000 0.0000 0.0000 29.0848 0.0000 0.0000
# 5 0.0000 0.0000 0.0000 0.0000 31.8576 0.0000
# 6 0.0000 0.0000 0.0000 0.0000 0.0000 33.3119
#
#
#
# Elastic Compliance Matrix: (Units=1/GPa)
#
#
# Indices 1 2 3 4 5 6 
#
# 1 0.013719 -0.002041 -0.003305 0.000000 0.000000 0.000000
# 2 -0.002041 0.005224 0.000383 0.000000 0.000000 0.000000
# 3 -0.003305 0.000383 0.015588 0.000000 0.000000 0.000000
# 4 0.000000 0.000000 0.000000 0.034382 0.000000 0.000000
# 5 0.000000 0.000000 0.000000 0.000000 0.031390 0.000000
# 6 0.000000 0.000000 0.000000 0.000000 0.000000 0.030019
#
#
# Mechanical properties :
#
#
# Convention : Reuss Voigt Hill
#
# Bulk Modulus (GPa) = 40.64077 49.94291 45.29184
# Shear Modulus (GPa) = 33.68129 39.09757 36.38943
#
# Velocity S-wave (km/s) = 3.56222 3.83797 3.70266
# Velocity P-wave (km/s) = 5.67720 6.20129 5.94502
#
# Compressibility (1/GPa) = 0.02460583
#
# Stress axis : x y z
#
# Youngs Moduli (GPa) = 72.89013 191.41947 64.15145
#
# Poissons Ratio (x) = 0.39062 0.21205
# Poissons Ratio (y) = 0.14874 -0.02459
# Poissons Ratio (z) = 0.24093 -0.07336
#
# Static dielectric constant tensor:
#      x y z
#    x 2.084250 0.000000 0.000000 
#    y 0.000000 2.101090 0.000000 
#    z 0.000000 0.000000 2.214340 
# 
# From -- ./inp_files/20039.got.cif
#   From: 2010.05.17/outbox.cif.g08.bks.cpg/sg20_11_cif.got.tgz:20039.got - 2010.06.03 22:52:26.
