data_PCOD9317070
_publ_section_title
;
Structure prediction by ZEFSAII (Michael W. Deem and Ramdas Pophale) SiO2 
 PCOD9317070
Probable space group: C 2 2 21
;
_chemical_formula_sum "Si O2"
_cell_formula_units_Z 36
_cell_length_a 6.968892
_cell_length_b 17.845826
_cell_length_c 9.819167
_cell_angle_alpha 90.000000
_cell_angle_beta 90.000000
_cell_angle_gamma 90.000000
_cell_volume 1221.166930
_symmetry_space_group_name_H-M "C 2 2 21"
_symmetry_group_IT_number 20
_symmetry_cell_setting 'orthorhombic'
loop_
_space_group_symop_operation_xyz
x,y,z
-x,-y,1/2+z
x,-y,-z
-x,y,1/2-z
1/2+x,1/2+y,z
1/2-x,1/2-y,1/2+z
1/2+x,1/2-y,-z
1/2-x,1/2+y,1/2-z
loop_
_atom_site_type_symbol
_atom_site_label
_atom_site_fract_x
_atom_site_fract_y
_atom_site_fract_z
Si Si1 0.760159 0.154223 0.482549
Si Si2 0.701438 0.613399 0.443264
Si Si3 0.277715 0.540817 0.787661
Si Si4 0.903409 0.500000 0.000000
Si Si5 0.727843 0.754569 0.259294
O O1 0.792188 0.179436 0.639384
O O2 0.710142 0.227398 0.391211
O O3 0.966665 0.119903 0.439009
O O4 0.603944 0.090488 0.455117
O O5 0.754852 0.533681 0.378018
O O6 0.757203 0.607160 0.603070
O O7 0.768329 0.681003 0.350883
O O8 0.500000 0.541343 0.750000
O O9 0.162018 0.528338 0.651339
O O10 0.500000 0.764393 0.250000
#
# Coordination Sequence:
#
# PCOD9317070 Si02
#       5
#     8   8   8   4   8
#     4  11  21  36  58  83 116 158 195 235 303 345
#     4  10  19  34  54  82 121 148 184 243 296 352
#     4  11  16  29  54  87 123 141 175 248 308 335
#     4  12  20  32  58  94 116 154 194 234 296 364
#     4  10  23  40  54  84 122 155 199 241 286 354
#
# _framework density 29.480001000000001
#
# number of rings (size 3 to 8) (size 9 to 14) (size 15 to 20)
#    0.000    1.333    6.667    0.667    3.111    0.000 
#    0.000    0.000    0.000    5.333    0.000    0.000 
#    0.000    0.000    0.000    0.000    0.000    0.000 
#
# Total GULP energy -100596.260274 kJ/mol
# GULP energy per Si atom -5588.681126 kJ/mol
# Density = 2.941290 g / cm^3
# Si number density = 29.480001 Si / 1000 Ang^3
#
#
#
# Elastic Constant Matrix: (Units=GPa)
#
#
# Indices 1 2 3 4 5 6 
#
# 1 92.1401 -10.8071 -0.7486 0.0000 0.0000 0.0000
# 2 -10.8071 125.1662 7.6157 0.0000 0.0000 0.0000
# 3 -0.7486 7.6157 215.8781 0.0000 0.0000 0.0000
# 4 0.0000 0.0000 0.0000 53.6017 0.0000 0.0000
# 5 0.0000 0.0000 0.0000 0.0000 5.0407 0.0000
# 6 0.0000 0.0000 0.0000 0.0000 0.0000 -20.0361
#
#
#
# Elastic Compliance Matrix: (Units=1/GPa)
#
#
# Indices 1 2 3 4 5 6 
#
# 1 0.010964 0.000946 0.000005 0.000000 0.000000 0.000000
# 2 0.000946 0.008088 -0.000282 0.000000 0.000000 0.000000
# 3 0.000005 -0.000282 0.004642 0.000000 0.000000 0.000000
# 4 0.000000 0.000000 0.000000 0.018656 0.000000 0.000000
# 5 0.000000 0.000000 0.000000 0.000000 0.198384 0.000000
# 6 0.000000 0.000000 0.000000 0.000000 0.000000 -0.049910
#
#
# Mechanical properties :
#
#
# Convention : Reuss Voigt Hill
#
# Bulk Modulus (GPa) = 39.94812 47.25603 43.60207
# Shear Modulus (GPa) = 25.27407 36.86289 31.06848
#
# Velocity S-wave (km/s) = 2.93120 3.53999 3.24988
# Velocity P-wave (km/s) = 5.00362 5.72480 5.37632
#
# Compressibility (1/GPa) = 0.02503247
#
# Stress axis : x y z
#
# Youngs Moduli (GPa) = 91.20691 123.63607 215.41466
#
# Poissons Ratio (x) = -0.11701 -0.00100
# Poissons Ratio (y) = -0.08632 0.06076
# Poissons Ratio (z) = -0.00042 0.03487
#
# Static dielectric constant tensor:
#      x y z
#    x 2.407030 0.000000 0.000000 
#    y 0.000000 2.372350 0.000000 
#    z 0.000000 0.000000 2.418510 
# 
# From -- ./inp_files/7181.got.cif
#   From: 2010.05.17/outbox.cif.g08.bks.cpg/sg20_4_cif.got.tgz:7181.got - 2010.06.03 22:52:26.
