data_PCOD9317468
_publ_section_title
;
Structure prediction by ZEFSAII (Michael W. Deem and Ramdas Pophale) SiO2 
 PCOD9317468
Probable space group: C 2 2 21
;
_chemical_formula_sum "Si O2"
_cell_formula_units_Z 60
_cell_length_a 23.521508
_cell_length_b 11.068636
_cell_length_c 9.214486
_cell_angle_alpha 90.000000
_cell_angle_beta 90.000000
_cell_angle_gamma 90.000000
_cell_volume 2399.000739
_symmetry_space_group_name_H-M "C 2 2 21"
_symmetry_group_IT_number 20
_symmetry_cell_setting 'orthorhombic'
loop_
_space_group_symop_operation_xyz
x,y,z
-x,-y,1/2+z
x,-y,-z
-x,y,1/2-z
1/2+x,1/2+y,z
1/2-x,1/2-y,1/2+z
1/2+x,1/2-y,-z
1/2-x,1/2+y,1/2-z
loop_
_atom_site_type_symbol
_atom_site_label
_atom_site_fract_x
_atom_site_fract_y
_atom_site_fract_z
Si Si1 0.211652 0.374384 0.574497
Si Si2 0.874733 0.721045 0.745463
Si Si3 0.521176 0.755831 0.413226
Si Si4 0.579887 0.173801 0.084796
Si Si5 0.674916 0.002104 0.159542
Si Si6 0.643106 0.661607 0.677688
Si Si7 0.055117 0.000000 0.500000
Si Si8 0.669690 0.454678 0.861128
O O1 0.189894 0.500000 0.500000
O O2 0.205459 0.399382 0.746290
O O3 0.178471 0.248184 0.568194
O O4 0.279396 0.381086 0.559472
O O5 0.915022 0.697770 0.883390
O O6 0.897347 0.703518 0.578125
O O7 0.824099 0.625603 0.739783
O O8 0.859639 0.860200 0.743854
O O9 0.500000 0.783011 0.250000
O O10 0.487207 0.816447 0.547047
O O11 0.518903 0.610218 0.431552
O O12 0.608990 0.049406 0.140967
O O13 0.605566 0.265197 0.202933
O O14 0.699321 0.000000 0.000000
O O15 0.596542 0.577314 0.602149
O O16 0.684490 0.570370 0.763958
O O17 0.633489 0.500000 0.000000
#
# Coordination Sequence:
#
# PCOD9317468 Si02
#       8
#     8   8   8   8   8   8   4   8
#     4  10  25  43  67  99 139 186 230 282 356 419
#     4  10  19  38  68  95 131 168 221 280 342 407
#     4  10  23  38  64  99 124 172 219 279 348 407
#     4   9  20  41  68  87 129 171 225 273 336 420
#     4   9  20  41  69  94 127 182 229 277 337 417
#     4  11  24  44  63 100 137 179 230 288 350 420
#     4  12  26  38  62  98 134 168 220 288 350 390
#     4  11  22  41  68  99 135 182 226 289 349 423
#
# _framework density 25.010414000000001
#
# number of rings (size 3 to 8) (size 9 to 14) (size 15 to 20)
#    0.000    1.867    2.667    0.000    5.600    0.000 
#    3.600    0.000   44.000    0.000    0.000    0.000 
#    0.000    0.000    0.000    0.000    0.000    0.000 
#
# Total GULP energy -167090.738992 kJ/mol
# GULP energy per Si atom -5569.691300 kJ/mol
# Density = 2.495349 g / cm^3
# Si number density = 25.010414 Si / 1000 Ang^3
#
#
#
# Elastic Constant Matrix: (Units=GPa)
#
#
# Indices 1 2 3 4 5 6 
#
# 1 47.0264 6.0906 14.9827 0.0000 0.0000 0.0000
# 2 6.0906 95.7502 17.1427 0.0000 0.0000 0.0000
# 3 14.9827 17.1427 53.1542 0.0000 0.0000 0.0000
# 4 0.0000 0.0000 0.0000 54.1305 0.0000 0.0000
# 5 0.0000 0.0000 0.0000 0.0000 34.0338 0.0000
# 6 0.0000 0.0000 0.0000 0.0000 0.0000 26.2929
#
#
#
# Elastic Compliance Matrix: (Units=1/GPa)
#
#
# Indices 1 2 3 4 5 6 
#
# 1 0.023372 -0.000326 -0.006483 0.000000 0.000000 0.000000
# 2 -0.000326 0.011088 -0.003484 0.000000 0.000000 0.000000
# 3 -0.006483 -0.003484 0.021764 0.000000 0.000000 0.000000
# 4 0.000000 0.000000 0.000000 0.018474 0.000000 0.000000
# 5 0.000000 0.000000 0.000000 0.000000 0.029383 0.000000
# 6 0.000000 0.000000 0.000000 0.000000 0.000000 0.038033
#
#
# Mechanical properties :
#
#
# Convention : Reuss Voigt Hill
#
# Bulk Modulus (GPa) = 28.05936 30.26253 29.16094
# Shear Modulus (GPa) = 28.64012 33.40574 31.02293
#
# Velocity S-wave (km/s) = 3.38764 3.65865 3.52575
# Velocity P-wave (km/s) = 5.15218 5.47484 5.31596
#
# Compressibility (1/GPa) = 0.03563873
#
# Stress axis : x y z
#
# Youngs Moduli (GPa) = 42.78560 90.18450 45.94704
#
# Poissons Ratio (x) = 0.02940 0.29787
# Poissons Ratio (y) = 0.01395 0.16009
# Poissons Ratio (z) = 0.27737 0.31422
#
# Static dielectric constant tensor:
#      x y z
#    x 2.343520 0.000000 0.000000 
#    y 0.000000 2.056070 0.000000 
#    z 0.000000 0.000000 2.023600 
# 
# From -- ./inp_files/11155.got.cif
#   From: 2010.05.17/outbox.cif.g08.bks.cpg/sg20_6_cif.got.tgz:11155.got - 2010.06.03 22:52:26.
