data_PCOD9317767
_publ_section_title
;
Structure prediction by ZEFSAII (Michael W. Deem and Ramdas Pophale) SiO2 
 PCOD9317767
Probable space group: C 2 2 21
;
_chemical_formula_sum "Si O2"
_cell_formula_units_Z 56
_cell_length_a 16.050121
_cell_length_b 9.208221
_cell_length_c 19.237828
_cell_angle_alpha 90.000000
_cell_angle_beta 90.000000
_cell_angle_gamma 90.000000
_cell_volume 2843.217492
_symmetry_space_group_name_H-M "C 2 2 21"
_symmetry_group_IT_number 20
_symmetry_cell_setting 'orthorhombic'
loop_
_space_group_symop_operation_xyz
x,y,z
-x,-y,1/2+z
x,-y,-z
-x,y,1/2-z
1/2+x,1/2+y,z
1/2-x,1/2-y,1/2+z
1/2+x,1/2-y,-z
1/2-x,1/2+y,1/2-z
loop_
_atom_site_type_symbol
_atom_site_label
_atom_site_fract_x
_atom_site_fract_y
_atom_site_fract_z
Si Si1 0.575440 0.096592 0.388237
Si Si2 0.659432 0.878114 0.208076
Si Si3 0.997582 0.148468 0.527371
Si Si4 0.262972 0.900721 0.809792
Si Si5 0.415976 0.464960 0.335228
Si Si6 0.000000 0.272498 0.750000
Si Si7 0.433700 0.895111 0.437667
Si Si8 0.000000 0.792920 0.750000
O O1 0.558376 0.232646 0.438837
O O2 0.671978 0.080821 0.372310
O O3 0.533116 0.136277 0.314329
O O4 0.524209 0.960386 0.417089
O O5 0.735014 0.763548 0.204790
O O6 0.622723 0.900085 0.130830
O O7 0.582803 0.806455 0.252432
O O8 0.693527 0.022401 0.244027
O O9 0.937814 0.097720 0.589844
O O10 0.946497 0.235091 0.468605
O O11 0.037673 0.000000 0.500000
O O12 0.176603 0.977893 0.828210
O O13 0.430567 0.335780 0.280296
O O14 0.479142 0.596184 0.313266
O O15 0.402610 0.000000 0.500000
#
# Coordination Sequence:
#
# PCOD9317767 Si02
#       8
#     8   8   8   8   8   4   8   4
#     4  10  20  35  58  84 112 144 188 238 287 335
#     4  11  22  38  61  89 120 151 190 240 298 350
#     4  10  20  38  61  81 110 157 205 236 273 352
#     4  11  22  36  58  91 121 143 182 250 308 339
#     4   9  19  34  59  89 116 148 191 239 293 344
#     4   9  16  33  58  84 110 146 186 228 278 344
#     4  10  22  40  60  82 112 160 205 233 275 357
#     4   9  18  35  60  86 112 150 192 232 282 346
#
# _framework density 19.695996999999998
#
# number of rings (size 3 to 8) (size 9 to 14) (size 15 to 20)
#    0.000    2.000    0.000    4.286    0.000    3.429 
#    0.000    7.143    0.000    3.429    0.000    0.000 
#    0.000    0.000    0.000    0.000    0.000    0.000 
#
# Total GULP energy -156332.641848 kJ/mol
# GULP energy per Si atom -5583.308637 kJ/mol
# Density = 1.965117 g / cm^3
# Si number density = 19.695997 Si / 1000 Ang^3
#
#
#
# Elastic Constant Matrix: (Units=GPa)
#
#
# Indices 1 2 3 4 5 6 
#
# 1 86.5157 32.1138 48.4095 0.0000 0.0000 0.0000
# 2 32.1138 98.3533 48.8588 0.0000 0.0000 0.0000
# 3 48.4095 48.8588 114.1439 0.0000 0.0000 0.0000
# 4 0.0000 0.0000 0.0000 32.3166 0.0000 0.0000
# 5 0.0000 0.0000 0.0000 0.0000 22.7193 0.0000
# 6 0.0000 0.0000 0.0000 0.0000 0.0000 28.6414
#
#
#
# Elastic Compliance Matrix: (Units=1/GPa)
#
#
# Indices 1 2 3 4 5 6 
#
# 1 0.015550 -0.002288 -0.005616 0.000000 0.000000 0.000000
# 2 -0.002288 0.013250 -0.004701 0.000000 0.000000 0.000000
# 3 -0.005616 -0.004701 0.013155 0.000000 0.000000 0.000000
# 4 0.000000 0.000000 0.000000 0.030944 0.000000 0.000000
# 5 0.000000 0.000000 0.000000 0.000000 0.044015 0.000000
# 6 0.000000 0.000000 0.000000 0.000000 0.000000 0.034914
#
#
# Mechanical properties :
#
#
# Convention : Reuss Voigt Hill
#
# Bulk Modulus (GPa) = 59.71766 61.97524 60.84645
# Shear Modulus (GPa) = 27.37932 28.04418 27.71175
#
# Velocity S-wave (km/s) = 3.73244 3.77749 3.75503
# Velocity P-wave (km/s) = 6.99717 7.11056 7.05409
#
# Compressibility (1/GPa) = 0.01674547
#
# Stress axis : x y z
#
# Youngs Moduli (GPa) = 64.30879 75.47267 76.01713
#
# Poissons Ratio (x) = 0.17265 0.42689
# Poissons Ratio (y) = 0.14711 0.35738
# Poissons Ratio (z) = 0.36114 0.35482
#
# Static dielectric constant tensor:
#      x y z
#    x 1.664750 0.000000 0.000000 
#    y 0.000000 1.737850 0.000000 
#    z 0.000000 0.000000 1.711070 
# 
# From -- ./inp_files/27610.got.cif
#   From: 2010.05.17/outbox.cif.g08.bks.cpg/sg20_14_cif.got.tgz:27610.got - 2010.06.03 22:52:26.
