data_PCOD9317130
_publ_section_title
;
Structure prediction by ZEFSAII (Michael W. Deem and Ramdas Pophale) SiO2 
 PCOD9317130
Probable space group: C 2 2 21
;
_chemical_formula_sum "Si O2"
_cell_formula_units_Z 56
_cell_length_a 7.099864
_cell_length_b 18.356103
_cell_length_c 17.229831
_cell_angle_alpha 90.000000
_cell_angle_beta 90.000000
_cell_angle_gamma 90.000000
_cell_volume 2245.492110
_symmetry_space_group_name_H-M "C 2 2 21"
_symmetry_group_IT_number 20
_symmetry_cell_setting 'orthorhombic'
loop_
_space_group_symop_operation_xyz
x,y,z
-x,-y,1/2+z
x,-y,-z
-x,y,1/2-z
1/2+x,1/2+y,z
1/2-x,1/2-y,1/2+z
1/2+x,1/2-y,-z
1/2-x,1/2+y,1/2-z
loop_
_atom_site_type_symbol
_atom_site_label
_atom_site_fract_x
_atom_site_fract_y
_atom_site_fract_z
Si Si1 0.250512 0.285177 0.915755
Si Si2 0.907514 0.273442 0.334198
Si Si3 0.760258 0.871779 0.606005
Si Si4 0.188205 0.026500 0.910920
Si Si5 0.992101 0.838170 0.045464
Si Si6 0.918953 0.430934 0.337107
Si Si7 0.615576 0.910405 0.831061
O O1 0.424299 0.232441 0.896355
O O2 0.301388 0.323399 0.997347
O O3 0.258931 0.346073 0.848236
O O4 0.065833 0.235445 0.914702
O O5 0.000000 0.274832 0.250000
O O6 0.788896 0.199821 0.342279
O O7 0.817644 0.353231 0.346878
O O8 0.856446 0.850146 0.525395
O O9 0.540909 0.891957 0.603033
O O10 0.844148 0.949908 0.634325
O O11 0.391388 0.059321 0.888225
O O12 0.032907 0.089504 0.905046
O O13 0.191667 0.000000 0.000000
O O14 0.812595 0.507989 0.344085
O O15 0.000000 0.430754 0.250000
O O16 0.500000 0.905842 0.750000
#
# Coordination Sequence:
#
# PCOD9317130 Si02
#       7
#     8   8   8   8   8   8   8
#     4  11  21  35  62  85 121 152 201 250 296 363
#     4  10  19  34  60  88 117 158 201 247 298 354
#     4   9  19  34  58  80 115 154 200 235 299 352
#     4   9  17  34  59  81 116 168 200 244 307 367
#     4  10  20  35  58  86 116 155 202 241 306 359
#     4   9  18  34  59  89 120 157 203 246 300 361
#     4  10  20  36  59  87 115 152 200 249 299 361
#
# _framework density 24.938853999999999
#
# number of rings (size 3 to 8) (size 9 to 14) (size 15 to 20)
#    0.000    2.286    1.429    1.714    0.000    0.000 
#    0.000    0.000   44.000    0.857    0.000    0.000 
#    0.000    0.000    0.000    0.000    0.000    0.000 
#
# Total GULP energy -156281.690180 kJ/mol
# GULP energy per Si atom -5581.488935 kJ/mol
# Density = 2.488209 g / cm^3
# Si number density = 24.938854 Si / 1000 Ang^3
#
#
#
# Elastic Constant Matrix: (Units=GPa)
#
#
# Indices 1 2 3 4 5 6 
#
# 1 49.8390 27.4913 9.1400 0.0000 0.0000 0.0000
# 2 27.4913 246.1018 25.2101 0.0000 0.0000 0.0000
# 3 9.1400 25.2101 41.2192 0.0000 0.0000 0.0000
# 4 0.0000 0.0000 0.0000 16.8721 0.0000 0.0000
# 5 0.0000 0.0000 0.0000 0.0000 25.6451 0.0000
# 6 0.0000 0.0000 0.0000 0.0000 0.0000 41.4383
#
#
#
# Elastic Compliance Matrix: (Units=1/GPa)
#
#
# Indices 1 2 3 4 5 6 
#
# 1 0.021866 -0.002076 -0.003579 0.000000 0.000000 0.000000
# 2 -0.002076 0.004532 -0.002312 0.000000 0.000000 0.000000
# 3 -0.003579 -0.002312 0.026468 0.000000 0.000000 0.000000
# 4 0.000000 0.000000 0.000000 0.059269 0.000000 0.000000
# 5 0.000000 0.000000 0.000000 0.000000 0.038994 0.000000
# 6 0.000000 0.000000 0.000000 0.000000 0.000000 0.024132
#
#
# Mechanical properties :
#
#
# Convention : Reuss Voigt Hill
#
# Bulk Modulus (GPa) = 27.07593 51.20475 39.14034
# Shear Modulus (GPa) = 24.56938 35.14566 29.85752
#
# Velocity S-wave (km/s) = 3.14217 3.75810 3.46385
# Velocity P-wave (km/s) = 4.90355 6.27756 5.63261
#
# Compressibility (1/GPa) = 0.03693317
#
# Stress axis : x y z
#
# Youngs Moduli (GPa) = 45.73298 220.65085 37.78161
#
# Poissons Ratio (x) = 0.45806 0.13522
# Poissons Ratio (y) = 0.09494 0.08733
# Poissons Ratio (z) = 0.16367 0.51004
#
# Static dielectric constant tensor:
#      x y z
#    x 2.046550 0.000000 0.000000 
#    y 0.000000 2.071960 0.000000 
#    z 0.000000 0.000000 1.968950 
# 
# From -- ./inp_files/26713.got.cif
#   From: 2010.05.17/outbox.cif.g08.bks.cpg/sg20_14_cif.got.tgz:26713.got - 2010.06.03 22:52:26.
