data_PCOD9317007
_publ_section_title
;
Structure prediction by ZEFSAII (Michael W. Deem and Ramdas Pophale) SiO2 
 PCOD9317007
Probable space group: C 2 2 21
;
_chemical_formula_sum "Si O2"
_cell_formula_units_Z 64
_cell_length_a 18.871823
_cell_length_b 8.430277
_cell_length_c 21.783123
_cell_angle_alpha 90.000000
_cell_angle_beta 90.000000
_cell_angle_gamma 90.000000
_cell_volume 3465.579318
_symmetry_space_group_name_H-M "C 2 2 21"
_symmetry_group_IT_number 20
_symmetry_cell_setting 'orthorhombic'
loop_
_space_group_symop_operation_xyz
x,y,z
-x,-y,1/2+z
x,-y,-z
-x,y,1/2-z
1/2+x,1/2+y,z
1/2-x,1/2-y,1/2+z
1/2+x,1/2-y,-z
1/2-x,1/2+y,1/2-z
loop_
_atom_site_type_symbol
_atom_site_label
_atom_site_fract_x
_atom_site_fract_y
_atom_site_fract_z
Si Si1 0.331679 0.189510 0.882591
Si Si2 0.579233 0.305694 0.000000
Si Si3 0.831120 0.809914 0.752630
Si Si4 0.416519 0.689732 0.000000
Si Si5 0.668879 0.690088 0.747370
Si Si6 0.668321 0.189509 0.382591
Si Si7 0.667004 0.693246 0.881619
Si Si8 0.832996 0.806754 0.618381
O O1 0.360859 0.243801 0.816288
O O2 0.376221 0.252413 0.939400
O O3 0.249265 0.244018 0.887824
O O4 0.330868 0.000000 0.884083
O O5 0.620448 0.252871 0.061143
O O6 0.580219 0.500000 0.000000
O O7 0.497880 0.254410 1.000000
O O8 0.620448 0.252870 0.938858
O O9 0.750000 0.750002 0.749999
O O10 0.861206 0.760492 0.686054
O O11 0.831929 0.000001 0.755658
O O12 0.416836 0.500000 0.000000
O O13 0.376221 0.747588 0.939401
O O14 0.639140 0.756198 0.683711
O O15 0.638793 0.739508 0.813946
O O16 0.750734 0.244018 0.387824
O O17 0.667598 0.500000 0.882694
#
# Coordination Sequence:
#
# PCOD9317007 Si02
#       8
#     8   8   8   8   8   8   8   8
#     4  10  19  33  54  75  99 132 167 205 249 300
#     4   9  17  31  49  71  98 127 166 208 244 289
#     4   9  16  28  49  78 106 129 162 207 252 296
#     4  11  22  33  49  73 100 129 162 208 256 297
#     4   9  16  28  49  78 106 129 162 207 252 296
#     4  10  19  33  54  75  99 132 167 205 249 300
#     4   8  15  29  52  77  97 126 166 204 241 287
#     4   8  15  29  52  77  97 126 166 204 241 287
#
# _framework density 18.467331000000001
#
# number of rings (size 3 to 8) (size 9 to 14) (size 15 to 20)
#    0.000    2.750    0.000    4.125    0.000    2.000 
#    0.000    1.250    0.000   28.500    0.000    0.000 
#    0.000    0.000    0.000    0.000    0.000    0.000 
#
# Total GULP energy -178319.867507 kJ/mol
# GULP energy per Si atom -5572.495860 kJ/mol
# Density = 1.842530 g / cm^3
# Si number density = 18.467331 Si / 1000 Ang^3
#
#
#
# Elastic Constant Matrix: (Units=GPa)
#
#
# Indices 1 2 3 4 5 6 
#
# 1 82.6808 18.5503 91.8615 0.0000 0.0000 0.0000
# 2 18.5503 33.8074 33.3656 0.0000 0.0000 0.0000
# 3 91.8615 33.3656 242.4929 0.0000 0.0000 0.0000
# 4 0.0000 0.0000 0.0000 29.1331 0.0000 0.0000
# 5 0.0000 0.0000 0.0000 0.0000 -5.3431 0.0000
# 6 0.0000 0.0000 0.0000 0.0000 0.0000 14.7455
#
#
#
# Elastic Compliance Matrix: (Units=1/GPa)
#
#
# Indices 1 2 3 4 5 6 
#
# 1 0.021420 -0.004333 -0.007518 0.000000 0.000000 0.000000
# 2 -0.004333 0.035104 -0.003189 0.000000 0.000000 0.000000
# 3 -0.007518 -0.003189 0.007411 0.000000 0.000000 0.000000
# 4 0.000000 0.000000 0.000000 0.034325 0.000000 0.000000
# 5 0.000000 0.000000 0.000000 0.000000 -0.187158 0.000000
# 6 0.000000 0.000000 0.000000 0.000000 0.000000 0.067817
#
#
# Mechanical properties :
#
#
# Convention : Reuss Voigt Hill
#
# Bulk Modulus (GPa) = 29.53827 71.83735 50.68781
# Shear Modulus (GPa) = 246.50488 22.05401 134.27944
#
# Velocity S-wave (km/s) = 11.56596 3.45949 8.53638
# Velocity P-wave (km/s) = 13.94243 7.41226 11.16542
#
# Compressibility (1/GPa) = 0.03385439
#
# Stress axis : x y z
#
# Youngs Moduli (GPa) = 46.68591 28.48682 134.94300
#
# Poissons Ratio (x) = 0.12344 1.01450
# Poissons Ratio (y) = 0.20231 0.43027
# Poissons Ratio (z) = 0.35099 0.09083
#
# Static dielectric constant tensor:
#      x y z
#    x 1.607820 0.000000 0.000000 
#    y 0.000000 1.634950 0.000000 
#    z 0.000000 0.000000 1.666300 
# 
# From -- ./inp_files/27949.got.cif
#   From: 2010.05.17/outbox.cif.g08.bks.cpg/sg20_14_cif.got.tgz:27949.got - 2010.06.03 22:52:26.
