data_PCOD9317770
_publ_section_title
;
Structure prediction by ZEFSAII (Michael W. Deem and Ramdas Pophale) SiO2 
 PCOD9317770
Probable space group: C 2 2 21
;
_chemical_formula_sum "Si O2"
_cell_formula_units_Z 64
_cell_length_a 8.679672
_cell_length_b 20.465434
_cell_length_c 20.149229
_cell_angle_alpha 90.000000
_cell_angle_beta 90.000000
_cell_angle_gamma 90.000000
_cell_volume 3579.173122
_symmetry_space_group_name_H-M "C 2 2 21"
_symmetry_group_IT_number 20
_symmetry_cell_setting 'orthorhombic'
loop_
_space_group_symop_operation_xyz
x,y,z
-x,-y,1/2+z
x,-y,-z
-x,y,1/2-z
1/2+x,1/2+y,z
1/2-x,1/2-y,1/2+z
1/2+x,1/2-y,-z
1/2-x,1/2+y,1/2-z
loop_
_atom_site_type_symbol
_atom_site_label
_atom_site_fract_x
_atom_site_fract_y
_atom_site_fract_z
Si Si1 0.934238 0.917509 0.054597
Si Si2 0.934185 0.448301 0.909209
Si Si3 0.565761 0.917509 0.054597
Si Si4 0.434333 0.268702 0.072112
Si Si5 0.433931 0.666324 0.176857
Si Si6 0.065813 0.948301 0.909209
Si Si7 0.934334 0.268702 0.427888
Si Si8 0.066068 0.666324 0.176857
O O1 0.749999 0.926261 0.050074
O O2 0.965674 0.845600 0.082594
O O3 0.006846 0.977314 0.095111
O O4 0.003520 0.922598 0.980378
O O5 0.749999 0.446293 0.909412
O O6 0.993153 0.522686 0.904889
O O7 0.001146 0.401236 0.853207
O O8 0.996478 0.422597 0.980378
O O9 0.534325 0.845600 0.082594
O O10 0.250000 0.258800 0.072063
O O11 0.509860 0.223148 0.127336
O O12 0.500000 0.250000 0.000000
O O13 0.500000 0.677042 0.250000
O O14 0.498853 0.598764 0.146793
O O15 0.490140 0.723147 0.127336
O O16 0.250000 0.664228 0.178084
O O17 0.000000 0.677042 0.250000
#
# Coordination Sequence:
#
# PCOD9317770 Si02
#       8
#     8   8   8   8   8   8   8   8
#     4  10  20  35  58  88 121 154 195 246 298 347
#     4  11  21  35  58  87 119 154 197 245 298 356
#     4  10  20  35  58  88 121 154 195 246 298 347
#     4  11  22  37  61  91 123 159 201 249 301 357
#     4  12  25  42  62  86 121 161 203 251 305 368
#     4  11  21  35  58  87 119 154 197 245 298 356
#     4  11  22  37  61  91 123 159 201 249 301 357
#     4  12  25  42  62  86 121 161 203 251 305 368
#
# _framework density 17.881226000000002
#
# number of rings (size 3 to 8) (size 9 to 14) (size 15 to 20)
#    0.000    1.000    2.500    7.500    0.000    3.000 
#    0.000    1.250    0.000    6.000    0.000    0.000 
#    0.000    0.000    0.000    0.000    0.000    0.000 
#
# Total GULP energy -178922.917576 kJ/mol
# GULP energy per Si atom -5591.341174 kJ/mol
# Density = 1.784053 g / cm^3
# Si number density = 17.881226 Si / 1000 Ang^3
#
#
#
# Elastic Constant Matrix: (Units=GPa)
#
#
# Indices 1 2 3 4 5 6 
#
# 1 160.8429 85.9957 63.4300 0.0000 0.0000 0.0000
# 2 85.9957 150.0562 82.0381 0.0000 0.0000 0.0000
# 3 63.4300 82.0381 129.0182 0.0000 0.0000 0.0000
# 4 0.0000 0.0000 0.0000 27.6588 0.0000 0.0000
# 5 0.0000 0.0000 0.0000 0.0000 30.7814 0.0000
# 6 0.0000 0.0000 0.0000 0.0000 0.0000 34.6456
#
#
#
# Elastic Compliance Matrix: (Units=1/GPa)
#
#
# Indices 1 2 3 4 5 6 
#
# 1 0.009229 -0.004305 -0.001800 0.000000 0.000000 0.000000
# 2 -0.004305 0.012223 -0.005656 0.000000 0.000000 0.000000
# 3 -0.001800 -0.005656 0.012232 0.000000 0.000000 0.000000
# 4 0.000000 0.000000 0.000000 0.036155 0.000000 0.000000
# 5 0.000000 0.000000 0.000000 0.000000 0.032487 0.000000
# 6 0.000000 0.000000 0.000000 0.000000 0.000000 0.028864
#
#
# Mechanical properties :
#
#
# Convention : Reuss Voigt Hill
#
# Bulk Modulus (GPa) = 98.39769 100.31610 99.35689
# Shear Modulus (GPa) = 31.62572 32.51406 32.06989
#
# Velocity S-wave (km/s) = 4.21010 4.26882 4.23956
# Velocity P-wave (km/s) = 8.87588 8.97331 8.92473
#
# Compressibility (1/GPa) = 0.01016284
#
# Stress axis : x y z
#
# Youngs Moduli (GPa) = 108.35834 81.80965 81.75137
#
# Poissons Ratio (x) = 0.35218 0.14714
# Poissons Ratio (y) = 0.46647 0.46239
# Poissons Ratio (z) = 0.19503 0.46272
#
# Static dielectric constant tensor:
#      x y z
#    x 1.595210 0.000000 0.000000 
#    y 0.000000 1.627220 0.000000 
#    z 0.000000 0.000000 1.571720 
# 
# From -- ./inp_files/23905.got.cif
#   From: 2010.05.17/outbox.cif.g08.bks.cpg/sg20_12_cif.got.tgz:23905.got - 2010.06.03 22:52:26.
