data_PCOD9317981
_publ_section_title
;
Structure prediction by ZEFSAII (Michael W. Deem and Ramdas Pophale) SiO2 
 PCOD9317981
Probable space group: C 2 2 21
;
_chemical_formula_sum "Si O2"
_cell_formula_units_Z 56
_cell_length_a 27.613628
_cell_length_b 5.393623
_cell_length_c 17.818260
_cell_angle_alpha 90.000000
_cell_angle_beta 90.000000
_cell_angle_gamma 90.000000
_cell_volume 2653.807083
_symmetry_space_group_name_H-M "C 2 2 21"
_symmetry_group_IT_number 20
_symmetry_cell_setting 'orthorhombic'
loop_
_space_group_symop_operation_xyz
x,y,z
-x,-y,1/2+z
x,-y,-z
-x,y,1/2-z
1/2+x,1/2+y,z
1/2-x,1/2-y,1/2+z
1/2+x,1/2-y,-z
1/2-x,1/2+y,1/2-z
loop_
_atom_site_type_symbol
_atom_site_label
_atom_site_fract_x
_atom_site_fract_y
_atom_site_fract_z
Si Si1 0.948420 0.561064 0.204260
Si Si2 0.275658 0.626630 0.218470
Si Si3 0.865778 0.698657 0.700271
Si Si4 0.744630 0.760180 0.452241
Si Si5 0.073172 0.963426 0.088112
Si Si6 0.476443 0.438740 0.833461
Si Si7 0.655623 0.129118 0.079326
O O1 0.902967 0.463616 0.251257
O O2 0.939155 0.835830 0.173507
O O3 0.000000 0.588356 0.250000
O O4 0.958115 0.334754 0.146992
O O5 0.253987 0.357764 0.242838
O O6 0.330876 0.636446 0.249100
O O7 0.277145 0.693359 0.129344
O O8 0.829514 0.544149 0.647384
O O9 0.899027 0.845036 0.641155
O O10 0.743884 0.500000 0.500000
O O11 0.801295 0.822342 0.432463
O O12 0.726421 0.000000 0.500000
O O13 0.102632 0.715687 0.103077
O O14 0.018023 0.969788 0.111338
O O15 0.079492 0.000000 0.000000
O O16 0.500000 0.407905 0.750000
O O17 0.650141 0.000000 0.000000
#
# Coordination Sequence:
#
# PCOD9317981 Si02
#       7
#     8   8   8   8   8   8   8
#     4  10  20  38  61  85 117 161 215 253 306 373
#     4  12  26  44  66 103 138 172 233 280 329 408
#     4  12  24  40  64  96 131 175 217 276 327 396
#     4  11  24  44  67  90 133 182 221 275 343 397
#     4  12  23  36  60  97 133 167 205 269 343 410
#     4  10  20  37  58  82 123 159 209 247 303 382
#     4  11  22  35  58  91 133 171 205 263 337 410
#
# _framework density 21.101761
#
# number of rings (size 3 to 8) (size 9 to 14) (size 15 to 20)
#    0.000    0.857    5.714    3.857    4.000    0.000 
#    0.000    0.000    0.000    2.571    0.000    0.000 
#    0.000    0.000    0.000    0.000    0.000    0.000 
#
# Total GULP energy -156062.362903 kJ/mol
# GULP energy per Si atom -5573.655818 kJ/mol
# Density = 2.105373 g / cm^3
# Si number density = 21.101761 Si / 1000 Ang^3
#
#
#
# Elastic Constant Matrix: (Units=GPa)
#
#
# Indices 1 2 3 4 5 6 
#
# 1 40.6088 -4.6412 18.1591 0.0000 0.0000 0.0000
# 2 -4.6412 89.5870 11.7011 0.0000 0.0000 0.0000
# 3 18.1591 11.7011 79.7101 0.0000 0.0000 0.0000
# 4 0.0000 0.0000 0.0000 25.8558 0.0000 0.0000
# 5 0.0000 0.0000 0.0000 0.0000 -47.9142 0.0000
# 6 0.0000 0.0000 0.0000 0.0000 0.0000 22.8537
#
#
#
# Elastic Compliance Matrix: (Units=1/GPa)
#
#
# Indices 1 2 3 4 5 6 
#
# 1 0.027883 0.002319 -0.006693 0.000000 0.000000 0.000000
# 2 0.002319 0.011573 -0.002227 0.000000 0.000000 0.000000
# 3 -0.006693 -0.002227 0.014397 0.000000 0.000000 0.000000
# 4 0.000000 0.000000 0.000000 0.038676 0.000000 0.000000
# 5 0.000000 0.000000 0.000000 0.000000 -0.020871 0.000000
# 6 0.000000 0.000000 0.000000 0.000000 0.000000 0.043757
#
#
# Mechanical properties :
#
#
# Convention : Reuss Voigt Hill
#
# Bulk Modulus (GPa) = 24.59944 28.92709 26.76327
# Shear Modulus (GPa) = 35.16970 12.47151 23.82061
#
# Velocity S-wave (km/s) = 4.08692 2.43372 3.36347
# Velocity P-wave (km/s) = 5.82695 4.65140 5.27204
#
# Compressibility (1/GPa) = 0.04065133
#
# Stress axis : x y z
#
# Youngs Moduli (GPa) = 35.86423 86.40540 69.45871
#
# Poissons Ratio (x) = -0.20034 0.46485
# Poissons Ratio (y) = -0.08316 0.15469
# Poissons Ratio (z) = 0.24002 0.19244
#
# Static dielectric constant tensor:
#      x y z
#    x 1.897460 0.000000 0.000000 
#    y 0.000000 1.903530 0.000000 
#    z 0.000000 0.000000 1.764910 
# 
# From -- ./inp_files/22309.got.cif
#   From: 2010.05.17/outbox.cif.g08.bks.cpg/sg20_12_cif.got.tgz:22309.got - 2010.06.03 22:52:26.
