data_PCOD9317864
_publ_section_title
;
Structure prediction by ZEFSAII (Michael W. Deem and Ramdas Pophale) SiO2 
 PCOD9317864
Probable space group: C 2 2 21
;
_chemical_formula_sum "Si O2"
_cell_formula_units_Z 48
_cell_length_a 9.832136
_cell_length_b 16.682204
_cell_length_c 13.477760
_cell_angle_alpha 90.000000
_cell_angle_beta 90.000000
_cell_angle_gamma 90.000000
_cell_volume 2210.645087
_symmetry_space_group_name_H-M "C 2 2 21"
_symmetry_group_IT_number 20
_symmetry_cell_setting 'orthorhombic'
loop_
_space_group_symop_operation_xyz
x,y,z
-x,-y,1/2+z
x,-y,-z
-x,y,1/2-z
1/2+x,1/2+y,z
1/2-x,1/2-y,1/2+z
1/2+x,1/2-y,-z
1/2-x,1/2+y,1/2-z
loop_
_atom_site_type_symbol
_atom_site_label
_atom_site_fract_x
_atom_site_fract_y
_atom_site_fract_z
Si Si1 0.546812 0.500000 0.000000
Si Si2 0.433708 0.911475 0.494535
Si Si3 0.616352 0.623973 0.163461
Si Si4 0.193274 0.678013 0.173735
Si Si5 0.336661 0.379088 0.101066
Si Si6 0.000000 0.799462 0.250000
Si Si7 0.068735 0.248311 0.443443
O O1 0.623706 0.447484 0.916885
O O2 0.445592 0.558228 0.940207
O O3 0.348421 0.889469 0.594567
O O4 0.314701 0.909798 0.412015
O O5 0.534340 0.838901 0.469974
O O6 0.494140 0.000000 0.500000
O O7 0.500000 0.607622 0.250000
O O8 0.755789 0.641266 0.222308
O O9 0.562894 0.700603 0.099695
O O10 0.067415 0.738076 0.174176
O O11 0.319337 0.732980 0.140582
O O12 0.380258 0.354074 0.209747
O O13 0.363837 0.300446 0.034025
#
# Coordination Sequence:
#
# PCOD9317864 Si02
#       7
#     4   8   8   8   8   4   8
#     4  10  20  36  58  98 134 168 220 280 336 390
#     4  11  21  38  67  93 131 173 211 272 333 392
#     4   9  19  36  63  91 131 173 222 279 332 399
#     4  10  22  39  65  93 126 172 225 269 322 398
#     4  10  21  35  61  93 123 163 218 262 323 387
#     4  12  22  38  68  90 122 170 224 270 310 406
#     4   9  19  40  61  86 126 172 211 260 332 395
#
# _framework density 21.713117
#
# number of rings (size 3 to 8) (size 9 to 14) (size 15 to 20)
#    0.000    2.000    2.500    2.000    1.167    0.000 
#    0.000    0.000   16.500    0.000    0.000    0.000 
#    0.000    0.000    0.000    0.000    0.000    0.000 
#
# Total GULP energy -133915.932457 kJ/mol
# GULP energy per Si atom -5579.830519 kJ/mol
# Density = 2.166370 g / cm^3
# Si number density = 21.713117 Si / 1000 Ang^3
#
#
#
# Elastic Constant Matrix: (Units=GPa)
#
#
# Indices 1 2 3 4 5 6 
#
# 1 23.9145 25.3746 -3.5973 0.0000 0.0000 0.0000
# 2 25.3746 157.7293 38.6711 0.0000 0.0000 0.0000
# 3 -3.5973 38.6711 36.4178 0.0000 0.0000 0.0000
# 4 0.0000 0.0000 0.0000 28.0598 0.0000 0.0000
# 5 0.0000 0.0000 0.0000 0.0000 7.1035 0.0000
# 6 0.0000 0.0000 0.0000 0.0000 0.0000 22.3775
#
#
#
# Elastic Compliance Matrix: (Units=1/GPa)
#
#
# Indices 1 2 3 4 5 6 
#
# 1 0.061525 -0.015396 0.022426 0.000000 0.000000 0.000000
# 2 -0.015396 0.012424 -0.014714 0.000000 0.000000 0.000000
# 3 0.022426 -0.014714 0.045299 0.000000 0.000000 0.000000
# 4 0.000000 0.000000 0.000000 0.035638 0.000000 0.000000
# 5 0.000000 0.000000 0.000000 0.000000 0.140776 0.000000
# 6 0.000000 0.000000 0.000000 0.000000 0.000000 0.044688
#
#
# Mechanical properties :
#
#
# Convention : Reuss Voigt Hill
#
# Bulk Modulus (GPa) = 9.62643 37.66205 23.64424
# Shear Modulus (GPa) = 12.80919 22.01571 17.41245
#
# Velocity S-wave (km/s) = 2.43148 3.18769 2.83491
# Velocity P-wave (km/s) = 3.51082 5.56160 4.65066
#
# Compressibility (1/GPa) = 0.10388066
#
# Stress axis : x y z
#
# Youngs Moduli (GPa) = 16.25347 80.48749 22.07573
#
# Poissons Ratio (x) = 1.23920 -0.49508
# Poissons Ratio (y) = 0.25024 0.32482
# Poissons Ratio (z) = -0.36450 1.18428
#
# Static dielectric constant tensor:
#      x y z
#    x 1.806660 0.000000 0.000000 
#    y 0.000000 1.781400 0.000000 
#    z 0.000000 0.000000 1.886130 
# 
# From -- ./inp_files/15749.got.cif
#   From: 2010.05.17/outbox.cif.g08.bks.cpg/sg20_8_cif.got.tgz:15749.got - 2010.06.03 22:52:26.
