data_PCOD9317172
_publ_section_title
;
Structure prediction by ZEFSAII (Michael W. Deem and Ramdas Pophale) SiO2 
 PCOD9317172
Probable space group: C 2 2 21
;
_chemical_formula_sum "Si O2"
_cell_formula_units_Z 44
_cell_length_a 7.430923
_cell_length_b 16.559225
_cell_length_c 14.701559
_cell_angle_alpha 90.000000
_cell_angle_beta 90.000000
_cell_angle_gamma 90.000000
_cell_volume 1809.031626
_symmetry_space_group_name_H-M "C 2 2 21"
_symmetry_group_IT_number 20
_symmetry_cell_setting 'orthorhombic'
loop_
_space_group_symop_operation_xyz
x,y,z
-x,-y,1/2+z
x,-y,-z
-x,y,1/2-z
1/2+x,1/2+y,z
1/2-x,1/2-y,1/2+z
1/2+x,1/2-y,-z
1/2-x,1/2+y,1/2-z
loop_
_atom_site_type_symbol
_atom_site_label
_atom_site_fract_x
_atom_site_fract_y
_atom_site_fract_z
Si Si1 0.288014 0.138634 0.676916
Si Si2 0.382530 0.603365 0.107050
Si Si3 0.967666 0.766930 0.035114
Si Si4 0.690605 0.231523 0.198672
Si Si5 0.500000 0.514268 0.750000
Si Si6 0.479209 0.085342 0.512754
O O1 0.315922 0.206753 0.750563
O O2 0.441336 0.095987 0.619799
O O3 0.179474 0.188153 0.597742
O O4 0.166266 0.072939 0.727925
O O5 0.281590 0.645653 0.191203
O O6 0.505904 0.537084 0.155734
O O7 0.213152 0.576338 0.043225
O O8 0.483571 0.674777 0.052046
O O9 0.145459 0.763861 0.097964
O O10 0.939350 0.671086 0.019061
O O11 0.500000 0.227077 0.250000
O O12 0.577850 0.000000 0.500000
#
# Coordination Sequence:
#
# PCOD9317172 Si02
#       6
#     8   8   8   8   4   8
#     4  10  19  36  58  79 115 153 196 237 288 342
#     4  10  22  33  58  88 112 150 199 237 293 345
#     4   9  19  35  57  81 110 154 189 233 289 350
#     4   9  18  38  62  76 113 158 192 229 295 349
#     4  12  20  34  56  92 116 146 200 256 268 344
#     4  10  19  35  57  79 113 154 197 240 290 345
#
# _framework density 24.322403999999999
#
# number of rings (size 3 to 8) (size 9 to 14) (size 15 to 20)
#    0.000    2.182    4.545    0.000    2.545    0.000 
#    0.000    0.000   12.000    0.000    0.000    0.000 
#    0.000    0.000    0.000    0.000    0.000    0.000 
#
# Total GULP energy -122753.256411 kJ/mol
# GULP energy per Si atom -5579.693473 kJ/mol
# Density = 2.426705 g / cm^3
# Si number density = 24.322404 Si / 1000 Ang^3
#
#
#
# Elastic Constant Matrix: (Units=GPa)
#
#
# Indices 1 2 3 4 5 6 
#
# 1 64.1969 31.4638 30.2028 0.0000 0.0000 0.0000
# 2 31.4638 155.5000 60.1002 0.0000 0.0000 0.0000
# 3 30.2028 60.1002 69.2733 0.0000 0.0000 0.0000
# 4 0.0000 0.0000 0.0000 39.5305 0.0000 0.0000
# 5 0.0000 0.0000 0.0000 0.0000 16.3797 0.0000
# 6 0.0000 0.0000 0.0000 0.0000 0.0000 -15.4884
#
#
#
# Elastic Compliance Matrix: (Units=1/GPa)
#
#
# Indices 1 2 3 4 5 6 
#
# 1 0.019700 -0.001003 -0.007719 0.000000 0.000000 0.000000
# 2 -0.001003 0.009726 -0.008001 0.000000 0.000000 0.000000
# 3 -0.007719 -0.008001 0.024743 0.000000 0.000000 0.000000
# 4 0.000000 0.000000 0.000000 0.025297 0.000000 0.000000
# 5 0.000000 0.000000 0.000000 0.000000 0.061051 0.000000
# 6 0.000000 0.000000 0.000000 0.000000 0.000000 -0.064565
#
#
# Mechanical properties :
#
#
# Convention : Reuss Voigt Hill
#
# Bulk Modulus (GPa) = 48.25549 59.16709 53.71129
# Shear Modulus (GPa) = 42.98995 19.23125 31.11060
#
# Velocity S-wave (km/s) = 4.20873 2.81495 3.58032
# Velocity P-wave (km/s) = 6.59552 5.91137 6.26279
#
# Compressibility (1/GPa) = 0.02072303
#
# Stress axis : x y z
#
# Youngs Moduli (GPa) = 50.76091 102.81593 40.41596
#
# Poissons Ratio (x) = 0.10309 0.31198
# Poissons Ratio (y) = 0.05090 0.32337
# Poissons Ratio (z) = 0.39184 0.82264
#
# Static dielectric constant tensor:
#      x y z
#    x 2.087410 0.000000 0.000000 
#    y 0.000000 2.008770 0.000000 
#    z 0.000000 0.000000 1.974520 
# 
# From -- ./inp_files/18770.got.cif
#   From: 2010.05.17/outbox.cif.g08.bks.cpg/sg20_10_cif.got.tgz:18770.got - 2010.06.03 22:52:26.
