data_PCOD9317375
_publ_section_title
;
Structure prediction by ZEFSAII (Michael W. Deem and Ramdas Pophale) SiO2 
 PCOD9317375
Probable space group: C 2 2 21
;
_chemical_formula_sum "Si O2"
_cell_formula_units_Z 60
_cell_length_a 9.314594
_cell_length_b 18.062672
_cell_length_c 18.565171
_cell_angle_alpha 90.000000
_cell_angle_beta 90.000000
_cell_angle_gamma 90.000000
_cell_volume 3123.524230
_symmetry_space_group_name_H-M "C 2 2 21"
_symmetry_group_IT_number 20
_symmetry_cell_setting 'orthorhombic'
loop_
_space_group_symop_operation_xyz
x,y,z
-x,-y,1/2+z
x,-y,-z
-x,y,1/2-z
1/2+x,1/2+y,z
1/2-x,1/2-y,1/2+z
1/2+x,1/2-y,-z
1/2-x,1/2+y,1/2-z
loop_
_atom_site_type_symbol
_atom_site_label
_atom_site_fract_x
_atom_site_fract_y
_atom_site_fract_z
Si Si1 0.803852 0.879478 0.091816
Si Si2 0.485978 0.500000 0.000000
Si Si3 0.949104 0.536573 0.666792
Si Si4 0.443239 0.716623 0.615447
Si Si5 0.586186 0.756654 0.049643
Si Si6 0.210746 0.105816 0.073098
Si Si7 0.507016 0.880659 0.664628
Si Si8 0.165406 0.637438 0.586086
O O1 0.690449 0.916940 0.145504
O O2 0.710468 0.819080 0.046910
O O3 0.919688 0.831733 0.135737
O O4 0.888071 0.939158 0.041879
O O5 0.591982 0.542621 0.056814
O O6 0.000000 0.539888 0.750000
O O7 0.916341 0.452600 0.642655
O O8 0.081833 0.569890 0.621690
O O9 0.448448 0.726416 0.529181
O O10 0.452626 0.800444 0.641557
O O11 0.301467 0.668631 0.629168
O O12 0.636121 0.684080 0.091550
O O13 0.447544 0.795870 0.081174
O O14 0.336320 0.099742 0.131938
O O15 0.288155 0.116498 0.995125
O O16 0.500000 0.879580 0.750000
#
# Coordination Sequence:
#
# PCOD9317375 Si02
#       8
#     8   4   8   8   8   8   8   8
#     4  11  23  38  63 100 126 168 210 266 328 388
#     4  12  24  34  66 108 134 156 220 278 342 378
#     4  10  25  44  60  85 129 166 217 266 320 389
#     4  11  20  38  61  95 124 159 214 266 320 386
#     4  10  19  37  61  93 130 159 200 263 328 370
#     4  11  21  38  64  92 134 158 211 275 318 382
#     4  11  24  41  63  87 128 178 218 259 324 395
#     4  10  20  37  66  89 120 169 203 264 331 373
#
# _framework density 19.209071000000002
#
# number of rings (size 3 to 8) (size 9 to 14) (size 15 to 20)
#    0.000    1.333    5.333    1.600    1.867    1.067 
#    0.000    0.000    0.000    1.600    0.000    0.000 
#    0.000    0.000    0.000    0.000    0.000    0.000 
#
# Total GULP energy -167275.102480 kJ/mol
# GULP energy per Si atom -5575.836749 kJ/mol
# Density = 1.916535 g / cm^3
# Si number density = 19.209071 Si / 1000 Ang^3
#
#
#
# Elastic Constant Matrix: (Units=GPa)
#
#
# Indices 1 2 3 4 5 6 
#
# 1 116.3899 50.9589 28.5106 0.0000 0.0000 0.0000
# 2 50.9589 122.0385 21.5836 0.0000 0.0000 0.0000
# 3 28.5106 21.5836 36.3708 0.0000 0.0000 0.0000
# 4 0.0000 0.0000 0.0000 31.3319 0.0000 0.0000
# 5 0.0000 0.0000 0.0000 0.0000 -1.2096 0.0000
# 6 0.0000 0.0000 0.0000 0.0000 0.0000 18.6469
#
#
#
# Elastic Compliance Matrix: (Units=1/GPa)
#
#
# Indices 1 2 3 4 5 6 
#
# 1 0.011986 -0.003735 -0.007179 0.000000 0.000000 0.000000
# 2 -0.003735 0.010319 -0.003196 0.000000 0.000000 0.000000
# 3 -0.007179 -0.003196 0.035018 0.000000 0.000000 0.000000
# 4 0.000000 0.000000 0.000000 0.031916 0.000000 0.000000
# 5 0.000000 0.000000 0.000000 0.000000 -0.826716 0.000000
# 6 0.000000 0.000000 0.000000 0.000000 0.000000 0.053628
#
#
# Mechanical properties :
#
#
# Convention : Reuss Voigt Hill
#
# Bulk Modulus (GPa) = 34.35991 52.98948 43.67470
# Shear Modulus (GPa) = -7.74080 21.33693 6.79807
#
# Velocity S-wave (km/s) = -2.00960 3.33644 1.88326
# Velocity P-wave (km/s) = 3.54140 6.51828 5.24545
#
# Compressibility (1/GPa) = 0.02910368
#
# Stress axis : x y z
#
# Youngs Moduli (GPa) = 83.43294 96.90881 28.55644
#
# Poissons Ratio (x) = 0.36197 0.20500
# Poissons Ratio (y) = 0.31163 0.09126
# Poissons Ratio (z) = 0.59895 0.30969
#
# Static dielectric constant tensor:
#      x y z
#    x 1.707530 0.000000 0.000000 
#    y 0.000000 1.731950 0.000000 
#    z 0.000000 0.000000 1.659920 
# 
# From -- ./inp_files/23769.got.cif
#   From: 2010.05.17/outbox.cif.g08.bks.cpg/sg20_12_cif.got.tgz:23769.got - 2010.06.03 22:52:26.
