data_PCOD9317751
_publ_section_title
;
Structure prediction by ZEFSAII (Michael W. Deem and Ramdas Pophale) SiO2 
 PCOD9317751
Probable space group: C 2 2 21
;
_chemical_formula_sum "Si O2"
_cell_formula_units_Z 56
_cell_length_a 12.314380
_cell_length_b 11.881015
_cell_length_c 18.624806
_cell_angle_alpha 90.000000
_cell_angle_beta 90.000000
_cell_angle_gamma 90.000000
_cell_volume 2724.945703
_symmetry_space_group_name_H-M "C 2 2 21"
_symmetry_group_IT_number 20
_symmetry_cell_setting 'orthorhombic'
loop_
_space_group_symop_operation_xyz
x,y,z
-x,-y,1/2+z
x,-y,-z
-x,y,1/2-z
1/2+x,1/2+y,z
1/2-x,1/2-y,1/2+z
1/2+x,1/2-y,-z
1/2-x,1/2+y,1/2-z
loop_
_atom_site_type_symbol
_atom_site_label
_atom_site_fract_x
_atom_site_fract_y
_atom_site_fract_z
Si Si1 0.248986 0.765267 0.373463
Si Si2 0.556819 0.589186 0.561989
Si Si3 0.671146 0.634087 0.993831
Si Si4 0.914058 0.071552 0.189213
Si Si5 0.313179 0.953880 0.269145
Si Si6 0.796504 0.294973 0.141698
Si Si7 0.617914 0.810430 0.761276
O O1 0.315154 0.690761 0.428915
O O2 0.319046 0.855409 0.328259
O O3 0.186093 0.694795 0.312440
O O4 0.157396 0.832501 0.417822
O O5 0.586770 0.500000 0.500000
O O6 0.449307 0.654747 0.537631
O O7 0.533777 0.512951 0.631833
O O8 0.763856 0.675586 0.938913
O O9 0.679845 0.500000 0.000000
O O10 0.872603 0.185907 0.151324
O O11 0.000000 0.099989 0.250000
O O12 0.808880 0.006501 0.222324
O O13 0.334587 0.898820 0.191490
O O14 0.388441 0.060155 0.284814
O O15 0.684923 0.258451 0.180944
O O16 0.500000 0.760329 0.750000
#
# Coordination Sequence:
#
# PCOD9317751 Si02
#       7
#     8   8   8   8   8   8   8
#     4  10  21  38  58  83 114 148 188 235 283 334
#     4  10  21  36  57  82 110 147 189 230 278 333
#     4  11  22  37  57  80 112 149 186 231 279 337
#     4  10  20  35  58  84 111 143 187 235 277 330
#     4   9  20  36  56  83 113 144 183 233 281 330
#     4  10  20  35  56  82 111 145 184 229 279 330
#     4  10  20  37  59  82 110 146 187 229 280 338
#
# _framework density 20.550868999999999
#
# number of rings (size 3 to 8) (size 9 to 14) (size 15 to 20)
#    0.000    2.000    0.000    3.429    0.000   10.286 
#    0.000    2.857    0.000    0.000    0.000    0.000 
#    0.000    0.000    0.000    0.000    0.000    0.000 
#
# Total GULP energy -156477.339331 kJ/mol
# GULP energy per Si atom -5588.476405 kJ/mol
# Density = 2.050409 g / cm^3
# Si number density = 20.550869 Si / 1000 Ang^3
#
#
#
# Elastic Constant Matrix: (Units=GPa)
#
#
# Indices 1 2 3 4 5 6 
#
# 1 37.9410 -6.6020 9.8130 0.0000 0.0000 0.0000
# 2 -6.6020 51.6085 0.5404 0.0000 0.0000 0.0000
# 3 9.8130 0.5404 73.6403 0.0000 0.0000 0.0000
# 4 0.0000 0.0000 0.0000 34.2782 0.0000 0.0000
# 5 0.0000 0.0000 0.0000 0.0000 28.7223 0.0000
# 6 0.0000 0.0000 0.0000 0.0000 0.0000 8.8436
#
#
#
# Elastic Compliance Matrix: (Units=1/GPa)
#
#
# Indices 1 2 3 4 5 6 
#
# 1 0.027956 0.003616 -0.003752 0.000000 0.000000 0.000000
# 2 0.003616 0.019846 -0.000627 0.000000 0.000000 0.000000
# 3 -0.003752 -0.000627 0.014084 0.000000 0.000000 0.000000
# 4 0.000000 0.000000 0.000000 0.029173 0.000000 0.000000
# 5 0.000000 0.000000 0.000000 0.000000 0.034816 0.000000
# 6 0.000000 0.000000 0.000000 0.000000 0.000000 0.113077
#
#
# Mechanical properties :
#
#
# Convention : Reuss Voigt Hill
#
# Bulk Modulus (GPa) = 16.56765 18.96584 17.76674
# Shear Modulus (GPa) = 19.18657 24.99803 22.09230
#
# Velocity S-wave (km/s) = 3.05882 3.49147 3.28228
# Velocity P-wave (km/s) = 4.53371 5.05001 4.79881
#
# Compressibility (1/GPa) = 0.06035859
#
# Stress axis : x y z
#
# Youngs Moduli (GPa) = 35.77025 50.38868 71.00217
#
# Poissons Ratio (x) = -0.18218 0.26639
# Poissons Ratio (y) = -0.12933 0.04455
# Poissons Ratio (z) = 0.13420 0.03161
#
# Static dielectric constant tensor:
#      x y z
#    x 1.756070 0.000000 0.000000 
#    y 0.000000 1.733210 0.000000 
#    z 0.000000 0.000000 1.734040 
# 
# From -- ./inp_files/27181.got.cif
#   From: 2010.05.17/outbox.cif.g08.bks.cpg/sg20_14_cif.got.tgz:27181.got - 2010.06.03 22:52:26.
