data_PCOD9317793
_publ_section_title
;
Structure prediction by ZEFSAII (Michael W. Deem and Ramdas Pophale) SiO2 
 PCOD9317793
Probable space group: C 2 2 21
;
_chemical_formula_sum "Si O2"
_cell_formula_units_Z 40
_cell_length_a 15.072418
_cell_length_b 22.697401
_cell_length_c 5.915200
_cell_angle_alpha 90.000000
_cell_angle_beta 90.000000
_cell_angle_gamma 90.000000
_cell_volume 2023.617812
_symmetry_space_group_name_H-M "C 2 2 21"
_symmetry_group_IT_number 20
_symmetry_cell_setting 'orthorhombic'
loop_
_space_group_symop_operation_xyz
x,y,z
-x,-y,1/2+z
x,-y,-z
-x,y,1/2-z
1/2+x,1/2+y,z
1/2-x,1/2-y,1/2+z
1/2+x,1/2-y,-z
1/2-x,1/2+y,1/2-z
loop_
_atom_site_type_symbol
_atom_site_label
_atom_site_fract_x
_atom_site_fract_y
_atom_site_fract_z
Si Si1 0.878796 0.159691 0.394631
Si Si2 0.902763 0.275009 0.140499
Si Si3 0.336585 0.442864 0.888779
Si Si4 0.284881 0.000000 0.000000
Si Si5 0.000000 0.223319 0.750000
Si Si6 0.779895 0.615061 0.785972
O O1 0.857392 0.216317 0.240473
O O2 0.897805 0.105159 0.229998
O O3 0.955294 0.181968 0.561925
O O4 0.797034 0.138257 0.546458
O O5 0.847349 0.331039 0.219228
O O6 0.000000 0.280083 0.250000
O O7 0.925248 0.262812 0.876191
O O8 0.275602 0.473172 0.698330
O O9 0.382453 0.500000 0.000000
O O10 0.272013 0.407612 0.062691
O O11 0.329066 0.942564 0.109667
#
# Coordination Sequence:
#
# PCOD9317793 Si02
#       6
#     8   8   8   4   4   8
#     4  10  21  33  58  90 115 160 199 245 300 355
#     4  10  23  37  56  87 125 159 192 246 303 357
#     4   9  18  35  58  92 114 152 201 250 291 350
#     4   8  18  34  56  88 114 156 194 246 292 340
#     4  10  22  40  52  88 128 158 190 246 308 354
#     4  10  20  35  62  87 120 151 206 242 295 360
#
# _framework density 19.766579
#
# number of rings (size 3 to 8) (size 9 to 14) (size 15 to 20)
#    0.000    2.400    0.000    1.200    5.600    4.800 
#    0.000    0.000    8.800    0.000  618.800    0.000 
#    0.000    0.000    0.000    0.000    0.000    0.000 
#
# Total GULP energy -111396.091323 kJ/mol
# GULP energy per Si atom -5569.804566 kJ/mol
# Density = 1.972159 g / cm^3
# Si number density = 19.766579 Si / 1000 Ang^3
#
#
#
# Elastic Constant Matrix: (Units=GPa)
#
#
# Indices 1 2 3 4 5 6 
#
# 1 44.4962 42.9275 23.3104 0.0000 0.0000 0.0000
# 2 42.9275 179.2491 58.5855 0.0000 0.0000 0.0000
# 3 23.3104 58.5855 99.7548 0.0000 0.0000 0.0000
# 4 0.0000 0.0000 0.0000 24.8269 0.0000 0.0000
# 5 0.0000 0.0000 0.0000 0.0000 9.1881 0.0000
# 6 0.0000 0.0000 0.0000 0.0000 0.0000 -9.0830
#
#
#
# Elastic Compliance Matrix: (Units=1/GPa)
#
#
# Indices 1 2 3 4 5 6 
#
# 1 0.030168 -0.006090 -0.003473 0.000000 0.000000 0.000000
# 2 -0.006090 0.008133 -0.003354 0.000000 0.000000 0.000000
# 3 -0.003473 -0.003354 0.012806 0.000000 0.000000 0.000000
# 4 0.000000 0.000000 0.000000 0.040279 0.000000 0.000000
# 5 0.000000 0.000000 0.000000 0.000000 0.108837 0.000000
# 6 0.000000 0.000000 0.000000 0.000000 0.000000 -0.110095
#
#
# Mechanical properties :
#
#
# Convention : Reuss Voigt Hill
#
# Bulk Modulus (GPa) = 39.56578 63.68299 51.62439
# Shear Modulus (GPa) = 40.19758 18.23151 29.21454
#
# Velocity S-wave (km/s) = 4.51445 3.04030 3.84862
# Velocity P-wave (km/s) = 6.87268 6.67922 6.77664
#
# Compressibility (1/GPa) = 0.02527437
#
# Stress axis : x y z
#
# Youngs Moduli (GPa) = 33.14735 122.95109 78.08986
#
# Poissons Ratio (x) = 0.74873 0.27122
# Poissons Ratio (y) = 0.20186 0.26189
# Poissons Ratio (z) = 0.11513 0.41233
#
# Static dielectric constant tensor:
#      x y z
#    x 1.666070 0.000000 0.000000 
#    y 0.000000 1.723850 0.000000 
#    z 0.000000 0.000000 1.778030 
# 
# From -- ./inp_files/2511.got.cif
#   From: 2010.05.17/outbox.cif.g08.bks.cpg/sg20_2_cif.got.tgz:2511.got - 2010.06.03 22:52:26.
