data_PCOD9317441
_publ_section_title
;
Structure prediction by ZEFSAII (Michael W. Deem and Ramdas Pophale) SiO2 
 PCOD9317441
Probable space group: C 2 2 21
;
_chemical_formula_sum "Si O2"
_cell_formula_units_Z 64
_cell_length_a 15.727335
_cell_length_b 8.789253
_cell_length_c 24.196870
_cell_angle_alpha 90.000000
_cell_angle_beta 90.000000
_cell_angle_gamma 90.000000
_cell_volume 3344.770273
_symmetry_space_group_name_H-M "C 2 2 21"
_symmetry_group_IT_number 20
_symmetry_cell_setting 'orthorhombic'
loop_
_space_group_symop_operation_xyz
x,y,z
-x,-y,1/2+z
x,-y,-z
-x,y,1/2-z
1/2+x,1/2+y,z
1/2-x,1/2-y,1/2+z
1/2+x,1/2-y,-z
1/2-x,1/2+y,1/2-z
loop_
_atom_site_type_symbol
_atom_site_label
_atom_site_fract_x
_atom_site_fract_y
_atom_site_fract_z
Si Si1 0.098972 0.822835 0.381549
Si Si2 0.339667 0.817533 0.498332
Si Si3 0.911484 0.814617 0.891087
Si Si4 0.248825 0.286045 0.819079
Si Si5 0.846427 0.680736 0.002064
Si Si6 0.410687 0.823093 0.377279
Si Si7 0.419672 0.812486 0.613714
Si Si8 0.747947 0.850120 0.198283
O O1 0.125793 0.742411 0.438428
O O2 0.169818 0.791600 0.335179
O O3 0.005773 0.764261 0.366261
O O4 0.096046 0.003597 0.391396
O O5 0.250614 0.733653 0.507307
O O6 0.376649 0.779776 0.438286
O O7 0.403053 0.782559 0.548678
O O8 0.323167 0.000000 0.500000
O O9 0.831989 0.752492 0.855688
O O10 0.001181 0.761435 0.866640
O O11 0.902273 0.751783 0.953059
O O12 0.163300 0.255782 0.853649
O O13 0.250335 0.199121 0.761451
O O14 0.248994 0.467032 0.806967
O O15 0.853895 0.500000 0.000000
O O16 0.336809 0.793091 0.332963
O O17 0.425683 0.005223 0.378883
#
# Coordination Sequence:
#
# PCOD9317441 Si02
#       8
#     8   8   8   8   8   8   8   8
#     4  11  23  41  63  90 123 160 200 247 303 359
#     4  10  19  38  63  86 124 160 193 243 302 359
#     4  11  23  41  63  90 123 160 200 247 303 359
#     4  10  23  42  63  86 120 162 204 252 303 352
#     4  12  23  36  61  94 124 158 199 243 298 363
#     4  10  21  39  63  91 122 160 200 246 303 359
#     4  10  21  39  63  91 122 160 200 246 303 359
#     4  10  23  42  63  86 120 162 204 252 303 352
#
# _framework density 19.134349
#
# number of rings (size 3 to 8) (size 9 to 14) (size 15 to 20)
#    0.000    1.500    2.500    2.625    0.000    6.000 
#    0.000    5.000    0.000    0.000    0.000    0.000 
#    0.000    0.000    0.000    0.000    0.000    0.000 
#
# Total GULP energy -178905.982821 kJ/mol
# GULP energy per Si atom -5590.811963 kJ/mol
# Density = 1.909080 g / cm^3
# Si number density = 19.134349 Si / 1000 Ang^3
#
#
#
# Elastic Constant Matrix: (Units=GPa)
#
#
# Indices 1 2 3 4 5 6 
#
# 1 85.6836 17.9417 -3.1708 0.0000 0.0000 0.0000
# 2 17.9417 23.7219 5.8404 0.0000 0.0000 0.0000
# 3 -3.1708 5.8404 69.6856 0.0000 0.0000 0.0000
# 4 0.0000 0.0000 0.0000 31.3953 0.0000 0.0000
# 5 0.0000 0.0000 0.0000 0.0000 6.4595 0.0000
# 6 0.0000 0.0000 0.0000 0.0000 0.0000 31.3044
#
#
#
# Elastic Compliance Matrix: (Units=1/GPa)
#
#
# Indices 1 2 3 4 5 6 
#
# 1 0.014031 -0.010996 0.001560 0.000000 0.000000 0.000000
# 2 -0.010996 0.051661 -0.004830 0.000000 0.000000 0.000000
# 3 0.001560 -0.004830 0.014826 0.000000 0.000000 0.000000
# 4 0.000000 0.000000 0.000000 0.031852 0.000000 0.000000
# 5 0.000000 0.000000 0.000000 0.000000 0.154811 0.000000
# 6 0.000000 0.000000 0.000000 0.000000 0.000000 0.031944
#
#
# Mechanical properties :
#
#
# Convention : Reuss Voigt Hill
#
# Bulk Modulus (GPa) = 19.23610 24.47929 21.85769
# Shear Modulus (GPa) = 14.49331 24.39718 19.44525
#
# Velocity S-wave (km/s) = 2.75517 3.57465 3.19132
# Velocity P-wave (km/s) = 4.49402 5.46431 5.00275
#
# Compressibility (1/GPa) = 0.05198559
#
# Stress axis : x y z
#
# Youngs Moduli (GPa) = 71.27007 19.35688 67.44921
#
# Poissons Ratio (x) = 0.21285 -0.10522
# Poissons Ratio (y) = 0.78371 0.32579
# Poissons Ratio (z) = -0.11118 0.09350
#
# Static dielectric constant tensor:
#      x y z
#    x 1.663280 0.000000 0.000000 
#    y 0.000000 1.646020 0.000000 
#    z 0.000000 0.000000 1.634560 
# 
# From -- ./inp_files/29372.got.cif
#   From: 2010.05.17/outbox.cif.g08.bks.cpg/sg20_15_cif.got.tgz:29372.got - 2010.06.03 22:52:26.
