data_PCOD9317788
_publ_section_title
;
Structure prediction by ZEFSAII (Michael W. Deem and Ramdas Pophale) SiO2 
 PCOD9317788
Probable space group: C 2 2 21
;
_chemical_formula_sum "Si O2"
_cell_formula_units_Z 32
_cell_length_a 20.866972
_cell_length_b 4.963587
_cell_length_c 14.350423
_cell_angle_alpha 90.000000
_cell_angle_beta 90.000000
_cell_angle_gamma 90.000000
_cell_volume 1486.345506
_symmetry_space_group_name_H-M "C 2 2 21"
_symmetry_group_IT_number 20
_symmetry_cell_setting 'orthorhombic'
loop_
_space_group_symop_operation_xyz
x,y,z
-x,-y,1/2+z
x,-y,-z
-x,y,1/2-z
1/2+x,1/2+y,z
1/2-x,1/2-y,1/2+z
1/2+x,1/2-y,-z
1/2-x,1/2+y,1/2-z
loop_
_atom_site_type_symbol
_atom_site_label
_atom_site_fract_x
_atom_site_fract_y
_atom_site_fract_z
Si Si1 0.453578 0.559607 0.837509
Si Si2 0.130868 0.500000 0.000000
Si Si3 0.749485 0.238688 0.062813
Si Si4 0.373785 0.043456 0.886996
Si Si5 0.546121 0.500000 0.000000
O O1 0.500000 0.566244 0.750000
O O2 0.424445 0.267710 0.857244
O O3 0.395384 0.770376 0.837750
O O4 0.500144 0.626927 0.923128
O O5 0.180045 0.393126 0.919584
O O6 0.089558 0.248190 0.034100
O O7 0.802402 0.343928 0.134140
O O8 0.734911 0.500000 0.000000
O O9 0.781537 0.000000 0.000000
O O10 0.375108 0.000000 0.000000
#
# Coordination Sequence:
#
# PCOD9317788 Si02
#       5
#     8   4   8   8   4
#     4  12  25  39  60  95 127 165 206 257 314 373
#     4  10  20  35  60  95 118 158 208 238 316 376
#     4   9  17  32  58  94 111 149 211 254 288 360
#     4  11  19  38  64  91 117 156 213 257 305 357
#     4  12  22  39  60  87 130 166 194 246 322 384
#
# _framework density 21.529316999999999
#
# number of rings (size 3 to 8) (size 9 to 14) (size 15 to 20)
#    0.750    0.500    3.750    5.250    0.000    0.000 
#    0.000    0.000    0.000    6.000    6.500    0.000 
#    0.000    0.000    0.000    0.000    0.000    0.000 
#
# Total GULP energy -89176.991570 kJ/mol
# GULP energy per Si atom -5573.561973 kJ/mol
# Density = 2.148032 g / cm^3
# Si number density = 21.529317 Si / 1000 Ang^3
#
#
#
# Elastic Constant Matrix: (Units=GPa)
#
#
# Indices 1 2 3 4 5 6 
#
# 1 80.3174 10.8612 -4.7773 0.0000 0.0000 0.0000
# 2 10.8612 119.9273 -8.3670 0.0000 0.0000 0.0000
# 3 -4.7773 -8.3670 15.3772 0.0000 0.0000 0.0000
# 4 0.0000 0.0000 0.0000 11.7155 0.0000 0.0000
# 5 0.0000 0.0000 0.0000 0.0000 51.8006 0.0000
# 6 0.0000 0.0000 0.0000 0.0000 0.0000 10.9717
#
#
#
# Elastic Compliance Matrix: (Units=1/GPa)
#
#
# Indices 1 2 3 4 5 6 
#
# 1 0.012781 -0.000915 0.003473 0.000000 0.000000 0.000000
# 2 -0.000915 0.008733 0.004467 0.000000 0.000000 0.000000
# 3 0.003473 0.004467 0.068541 0.000000 0.000000 0.000000
# 4 0.000000 0.000000 0.000000 0.085357 0.000000 0.000000
# 5 0.000000 0.000000 0.000000 0.000000 0.019305 0.000000
# 6 0.000000 0.000000 0.000000 0.000000 0.000000 0.091144
#
#
# Mechanical properties :
#
#
# Convention : Reuss Voigt Hill
#
# Bulk Modulus (GPa) = 9.60571 23.45062 16.52817
# Shear Modulus (GPa) = 16.31255 29.42455 22.86855
#
# Velocity S-wave (km/s) = 2.75560 3.70093 3.26268
# Velocity P-wave (km/s) = 3.82045 5.40172 4.67838
#
# Compressibility (1/GPa) = 0.10410471
#
# Stress axis : x y z
#
# Youngs Moduli (GPa) = 78.24156 114.50888 14.58981
#
# Poissons Ratio (x) = 0.10480 -0.05067
# Poissons Ratio (y) = 0.07161 -0.06518
# Poissons Ratio (z) = -0.27171 -0.51156
#
# Static dielectric constant tensor:
#      x y z
#    x 1.843010 0.000000 0.000000 
#    y 0.000000 1.810240 0.000000 
#    z 0.000000 0.000000 1.811470 
# 
# From -- ./inp_files/17583.got.cif
#   From: 2010.05.17/outbox.cif.g08.bks.cpg/sg20_9_cif.got.tgz:17583.got - 2010.06.03 22:52:26.
