data_PCOD9317016
_publ_section_title
;
Structure prediction by ZEFSAII (Michael W. Deem and Ramdas Pophale) SiO2 
 PCOD9317016
Probable space group: C 2 2 21
;
_chemical_formula_sum "Si O2"
_cell_formula_units_Z 64
_cell_length_a 7.376779
_cell_length_b 27.766855
_cell_length_c 13.141373
_cell_angle_alpha 90.000000
_cell_angle_beta 90.000000
_cell_angle_gamma 90.000000
_cell_volume 2691.746812
_symmetry_space_group_name_H-M "C 2 2 21"
_symmetry_group_IT_number 20
_symmetry_cell_setting 'orthorhombic'
loop_
_space_group_symop_operation_xyz
x,y,z
-x,-y,1/2+z
x,-y,-z
-x,y,1/2-z
1/2+x,1/2+y,z
1/2-x,1/2-y,1/2+z
1/2+x,1/2-y,-z
1/2-x,1/2+y,1/2-z
loop_
_atom_site_type_symbol
_atom_site_label
_atom_site_fract_x
_atom_site_fract_y
_atom_site_fract_z
Si Si1 0.200377 0.300771 0.799722
Si Si2 0.577078 0.733552 0.950824
Si Si3 0.177513 0.271439 0.146318
Si Si4 0.347708 0.370482 0.389435
Si Si5 0.341871 0.947074 0.516845
Si Si6 0.779245 0.592010 0.267700
Si Si7 0.229474 0.378341 0.170532
Si Si8 0.270603 0.549573 0.445404
O O1 0.161740 0.284654 0.914653
O O2 0.303106 0.255629 0.752048
O O3 0.280250 0.352190 0.771475
O O4 0.000000 0.301973 0.750000
O O5 0.382474 0.730229 0.898729
O O6 0.684797 0.685229 0.920149
O O7 0.564109 0.738569 0.070660
O O8 0.131689 0.327246 0.153615
O O9 0.229619 0.388124 0.292106
O O10 0.557343 0.372030 0.355283
O O11 0.328035 0.405388 0.485150
O O12 0.247535 0.925738 0.617171
O O13 0.333442 0.916804 0.412719
O O14 0.552509 0.951843 0.545835
O O15 0.265709 0.000000 0.500000
O O16 0.694847 0.561455 0.174213
O O17 0.000000 0.591447 0.250000
O O18 0.335601 0.500000 0.500000
#
# Coordination Sequence:
#
# PCOD9317016 Si02
#       8
#     8   8   8   8   8   8   8   8
#     4   9  16  30  52  73 103 145 181 209 262 335
#     4  10  19  33  54  80 110 148 188 226 271 327
#     4  10  19  33  54  80 110 148 188 226 271 327
#     4  10  21  38  58  84 119 155 191 233 286 346
#     4  10  22  38  60  86 112 147 193 244 291 338
#     4   9  18  34  54  81 113 145 185 233 288 341
#     4  10  21  38  58  84 119 155 191 233 286 346
#     4  10  22  38  60  86 112 147 193 244 291 338
#
# _framework density 23.776382000000002
#
# number of rings (size 3 to 8) (size 9 to 14) (size 15 to 20)
#    0.000    2.250    1.250    1.500    1.750    4.000 
#    0.000    1.250    0.000    4.500    0.000    0.000 
#    0.000    0.000    0.000    0.000    0.000    0.000 
#
# Total GULP energy -178757.924465 kJ/mol
# GULP energy per Si atom -5586.185140 kJ/mol
# Density = 2.372227 g / cm^3
# Si number density = 23.776382 Si / 1000 Ang^3
#
#
#
# Elastic Constant Matrix: (Units=GPa)
#
#
# Indices 1 2 3 4 5 6 
#
# 1 52.2206 13.2176 10.7267 0.0000 0.0000 0.0000
# 2 13.2176 147.3201 64.6460 0.0000 0.0000 0.0000
# 3 10.7267 64.6460 154.3519 0.0000 0.0000 0.0000
# 4 0.0000 0.0000 0.0000 31.7213 0.0000 0.0000
# 5 0.0000 0.0000 0.0000 0.0000 32.3719 0.0000
# 6 0.0000 0.0000 0.0000 0.0000 0.0000 -1.5389
#
#
#
# Elastic Compliance Matrix: (Units=1/GPa)
#
#
# Indices 1 2 3 4 5 6 
#
# 1 0.019669 -0.001427 -0.000769 0.000000 0.000000 0.000000
# 2 -0.001427 0.008420 -0.003427 0.000000 0.000000 0.000000
# 3 -0.000769 -0.003427 0.007968 0.000000 0.000000 0.000000
# 4 0.000000 0.000000 0.000000 0.031525 0.000000 0.000000
# 5 0.000000 0.000000 0.000000 0.000000 0.030891 0.000000
# 6 0.000000 0.000000 0.000000 0.000000 0.000000 -0.649823
#
#
# Mechanical properties :
#
#
# Convention : Reuss Voigt Hill
#
# Bulk Modulus (GPa) = 40.30785 59.00812 49.65799
# Shear Modulus (GPa) = -9.40142 30.19768 10.39813
#
# Velocity S-wave (km/s) = -1.99065 3.56767 2.09351
# Velocity P-wave (km/s) = 3.42142 6.46861 5.17441
#
# Compressibility (1/GPa) = 0.02480906
#
# Stress axis : x y z
#
# Youngs Moduli (GPa) = 50.84207 118.76607 125.50883
#
# Poissons Ratio (x) = 0.16950 0.09654
# Poissons Ratio (y) = 0.07256 0.43015
# Poissons Ratio (z) = 0.03911 0.40704
#
# Static dielectric constant tensor:
#      x y z
#    x 1.992210 0.000000 0.000000 
#    y 0.000000 1.862770 0.000000 
#    z 0.000000 0.000000 1.896330 
# 
# From -- ./inp_files/13374.got.cif
#   From: 2010.05.17/outbox.cif.g08.bks.cpg/sg20_7_cif.got.tgz:13374.got - 2010.06.03 22:52:26.
