data_PCOD9317976
_publ_section_title
;
Structure prediction by ZEFSAII (Michael W. Deem and Ramdas Pophale) SiO2 
 PCOD9317976
Probable space group: C 2 2 21
;
_chemical_formula_sum "Si O2"
_cell_formula_units_Z 64
_cell_length_a 33.328380
_cell_length_b 11.140134
_cell_length_c 9.057688
_cell_angle_alpha 90.000000
_cell_angle_beta 90.000000
_cell_angle_gamma 90.000000
_cell_volume 3362.962125
_symmetry_space_group_name_H-M "C 2 2 21"
_symmetry_group_IT_number 20
_symmetry_cell_setting 'orthorhombic'
loop_
_space_group_symop_operation_xyz
x,y,z
-x,-y,1/2+z
x,-y,-z
-x,y,1/2-z
1/2+x,1/2+y,z
1/2-x,1/2-y,1/2+z
1/2+x,1/2-y,-z
1/2-x,1/2+y,1/2-z
loop_
_atom_site_type_symbol
_atom_site_label
_atom_site_fract_x
_atom_site_fract_y
_atom_site_fract_z
Si Si1 0.045909 0.363840 0.945291
Si Si2 0.601413 0.511250 0.164430
Si Si3 0.394594 0.243655 0.208375
Si Si4 0.454940 0.862354 0.998644
Si Si5 0.307313 0.522230 0.336368
Si Si6 0.542868 0.703785 0.228203
Si Si7 0.742124 0.368314 0.577400
Si Si8 0.802024 0.757794 0.201559
O O1 0.079355 0.335911 0.823168
O O2 0.997785 0.354201 0.914758
O O3 0.051457 0.500000 0.000000
O O4 0.051553 0.263190 0.070790
O O5 0.603052 0.380740 0.237161
O O6 0.646565 0.559308 0.143060
O O7 0.576604 0.606189 0.257770
O O8 0.583199 0.500000 0.000000
O O9 0.420615 0.222692 0.063561
O O10 0.347821 0.211724 0.184097
O O11 0.461047 0.816147 0.163059
O O12 0.442138 0.000000 0.000000
O O13 0.289141 0.500000 0.500000
O O14 0.287594 0.609384 0.216423
O O15 0.306176 0.392733 0.261000
O O16 0.500000 0.640195 0.250000
O O17 0.749074 0.500000 0.500000
O O18 0.780223 0.315480 0.666549
O O19 0.723292 0.278700 0.451952
#
# Coordination Sequence:
#
# PCOD9317976 Si02
#       8
#     8   8   8   8   8   8   8   8
#     4  10  20  38  62  81 114 165 205 244 298 363
#     4  10  20  37  57  86 119 149 198 242 292 361
#     4  11  22  37  60  88 117 152 201 252 301 354
#     4  10  22  39  57  85 120 158 203 247 299 356
#     4   9  19  36  64  87 111 158 196 238 302 365
#     4  10  21  36  56  85 118 155 198 242 295 354
#     4  10  21  40  62  87 124 155 198 248 308 376
#     4  10  22  38  59  90 118 154 202 249 303 377
#
# _framework density 19.030840000000001
#
# number of rings (size 3 to 8) (size 9 to 14) (size 15 to 20)
#    0.000    2.000    1.250    1.875    1.750    4.000 
#    0.000    3.125    0.000    0.000    0.000    0.000 
#    0.000    0.000    0.000    0.000    0.000    0.000 
#
# Total GULP energy -178137.985038 kJ/mol
# GULP energy per Si atom -5566.812032 kJ/mol
# Density = 1.898753 g / cm^3
# Si number density = 19.030840 Si / 1000 Ang^3
#
#
#
# Elastic Constant Matrix: (Units=GPa)
#
#
# Indices 1 2 3 4 5 6 
#
# 1 92.6201 34.3687 30.7836 0.0000 0.0000 0.0000
# 2 34.3687 56.7401 9.5000 0.0000 0.0000 0.0000
# 3 30.7836 9.5000 87.2983 0.0000 0.0000 0.0000
# 4 0.0000 0.0000 0.0000 19.9712 0.0000 0.0000
# 5 0.0000 0.0000 0.0000 0.0000 29.6263 0.0000
# 6 0.0000 0.0000 0.0000 0.0000 0.0000 -5.2812
#
#
#
# Elastic Compliance Matrix: (Units=1/GPa)
#
#
# Indices 1 2 3 4 5 6 
#
# 1 0.015506 -0.008634 -0.004528 0.000000 0.000000 0.000000
# 2 -0.008634 0.022759 0.000568 0.000000 0.000000 0.000000
# 3 -0.004528 0.000568 0.012990 0.000000 0.000000 0.000000
# 4 0.000000 0.000000 0.000000 0.050072 0.000000 0.000000
# 5 0.000000 0.000000 0.000000 0.000000 0.033754 0.000000
# 6 0.000000 0.000000 0.000000 0.000000 0.000000 -0.189351
#
#
# Mechanical properties :
#
#
# Convention : Reuss Voigt Hill
#
# Bulk Modulus (GPa) = 38.36406 42.88480 40.62443
# Shear Modulus (GPa) = -245.17139 19.66368 -112.75386
#
# Velocity S-wave (km/s) = -11.36258 3.21791 -7.70562
# Velocity P-wave (km/s) = 12.32646 6.03240 7.60104
#
# Compressibility (1/GPa) = 0.02606607
#
# Stress axis : x y z
#
# Youngs Moduli (GPa) = 64.49300 43.93893 76.98289
#
# Poissons Ratio (x) = 0.37936 0.34859
# Poissons Ratio (y) = 0.55683 -0.04372
# Poissons Ratio (z) = 0.29203 -0.02495
#
# Static dielectric constant tensor:
#      x y z
#    x 1.691790 0.000000 0.000000 
#    y 0.000000 1.639390 0.000000 
#    z 0.000000 0.000000 1.859030 
# 
# From -- ./inp_files/11605.got.cif
#   From: 2010.05.17/outbox.cif.g08.bks.cpg/sg20_6_cif.got.tgz:11605.got - 2010.06.03 22:52:26.
