data_PCOD9317558
_publ_section_title
;
Structure prediction by ZEFSAII (Michael W. Deem and Ramdas Pophale) SiO2 
 PCOD9317558
Probable space group: C 2 2 21
;
_chemical_formula_sum "Si O2"
_cell_formula_units_Z 48
_cell_length_a 17.124430
_cell_length_b 9.332181
_cell_length_c 12.846205
_cell_angle_alpha 90.000000
_cell_angle_beta 90.000000
_cell_angle_gamma 90.000000
_cell_volume 2052.929929
_symmetry_space_group_name_H-M "C 2 2 21"
_symmetry_group_IT_number 20
_symmetry_cell_setting 'orthorhombic'
loop_
_space_group_symop_operation_xyz
x,y,z
-x,-y,1/2+z
x,-y,-z
-x,y,1/2-z
1/2+x,1/2+y,z
1/2-x,1/2-y,1/2+z
1/2+x,1/2-y,-z
1/2-x,1/2+y,1/2-z
loop_
_atom_site_type_symbol
_atom_site_label
_atom_site_fract_x
_atom_site_fract_y
_atom_site_fract_z
Si Si1 0.433646 0.465340 0.642885
Si Si2 0.008096 0.237347 0.956007
Si Si3 0.787204 0.000000 0.500000
Si Si4 0.116188 0.500000 0.000000
Si Si5 0.166948 0.159779 0.311529
Si Si6 0.331632 0.743504 0.959785
Si Si7 0.774399 0.582946 0.689204
O O1 0.470994 0.347905 0.563997
O O2 0.479520 0.613715 0.630053
O O3 0.348232 0.506434 0.594944
O O4 0.410121 0.398876 0.753604
O O5 0.065452 0.371733 0.951950
O O6 0.920211 0.293969 0.948888
O O7 0.732061 0.864304 0.515304
O O8 0.168871 0.434264 0.090905
O O9 0.164526 0.148117 0.435425
O O10 0.182936 0.321937 0.275084
O O11 0.243157 0.070488 0.276407
O O12 0.301797 0.661168 0.858273
#
# Coordination Sequence:
#
# PCOD9317558 Si02
#       7
#     8   8   4   4   8   8   8
#     4  10  22  43  65  96 133 180 216 274 353 401
#     4  10  24  41  69  94 143 176 216 278 354 401
#     4  10  19  42  69  92 136 174 222 282 339 398
#     4  12  21  48  67  98 134 188 218 278 347 416
#     4  12  25  42  73 101 135 180 236 285 336 412
#     4  12  24  44  71 105 133 180 231 290 338 407
#     4  12  26  44  72 105 132 179 241 286 334 409
#
# _framework density 23.381218000000001
#
# number of rings (size 3 to 8) (size 9 to 14) (size 15 to 20)
#    0.000    1.000    5.000    2.500    7.000    0.667 
#    0.000    0.000    0.000    0.000    0.000    0.000 
#    0.000    0.000    0.000    0.000    0.000    0.000 
#
# Total GULP energy -134308.548404 kJ/mol
# GULP energy per Si atom -5596.189517 kJ/mol
# Density = 2.332800 g / cm^3
# Si number density = 23.381218 Si / 1000 Ang^3
#
#
#
# Elastic Constant Matrix: (Units=GPa)
#
#
# Indices 1 2 3 4 5 6 
#
# 1 103.7368 1.6773 -6.7030 0.0000 0.0000 0.0000
# 2 1.6773 55.0325 -15.9948 0.0000 0.0000 0.0000
# 3 -6.7030 -15.9948 57.4920 0.0000 0.0000 0.0000
# 4 0.0000 0.0000 0.0000 25.6213 0.0000 0.0000
# 5 0.0000 0.0000 0.0000 0.0000 17.7700 0.0000
# 6 0.0000 0.0000 0.0000 0.0000 0.0000 -5.8638
#
#
#
# Elastic Compliance Matrix: (Units=1/GPa)
#
#
# Indices 1 2 3 4 5 6 
#
# 1 0.009713 0.000036 0.001142 0.000000 0.000000 0.000000
# 2 0.000036 0.019770 0.005504 0.000000 0.000000 0.000000
# 3 0.001142 0.005504 0.019058 0.000000 0.000000 0.000000
# 4 0.000000 0.000000 0.000000 0.039030 0.000000 0.000000
# 5 0.000000 0.000000 0.000000 0.000000 0.056275 0.000000
# 6 0.000000 0.000000 0.000000 0.000000 0.000000 -0.170538
#
#
# Mechanical properties :
#
#
# Convention : Reuss Voigt Hill
#
# Bulk Modulus (GPa) = 16.15336 19.35781 17.75558
# Shear Modulus (GPa) = -257.42997 23.32430 -117.05283
#
# Velocity S-wave (km/s) = -10.50429 3.16185 -7.08318
# Velocity P-wave (km/s) = 11.84046 4.65048 7.69966
#
# Compressibility (1/GPa) = 0.06190663
#
# Stress axis : x y z
#
# Youngs Moduli (GPa) = 102.95458 50.58232 52.47069
#
# Poissons Ratio (x) = -0.00182 -0.05995
# Poissons Ratio (y) = -0.00371 -0.28882
# Poissons Ratio (z) = -0.11762 -0.27842
#
# Static dielectric constant tensor:
#      x y z
#    x 1.889550 0.000000 0.000000 
#    y 0.000000 1.877220 0.000000 
#    z 0.000000 0.000000 1.937310 
# 
# From -- ./inp_files/21335.got.cif
#   From: 2010.05.17/outbox.cif.g08.bks.cpg/sg20_11_cif.got.tgz:21335.got - 2010.06.03 22:52:26.
