data_PCOD9317774
_publ_section_title
;
Structure prediction by ZEFSAII (Michael W. Deem and Ramdas Pophale) SiO2 
 PCOD9317774
Probable space group: C 2 2 21
;
_chemical_formula_sum "Si O2"
_cell_formula_units_Z 32
_cell_length_a 8.990981
_cell_length_b 14.910390
_cell_length_c 10.247411
_cell_angle_alpha 90.000000
_cell_angle_beta 90.000000
_cell_angle_gamma 90.000000
_cell_volume 1373.758011
_symmetry_space_group_name_H-M "C 2 2 21"
_symmetry_group_IT_number 20
_symmetry_cell_setting 'orthorhombic'
loop_
_space_group_symop_operation_xyz
x,y,z
-x,-y,1/2+z
x,-y,-z
-x,y,1/2-z
1/2+x,1/2+y,z
1/2-x,1/2-y,1/2+z
1/2+x,1/2-y,-z
1/2-x,1/2+y,1/2-z
loop_
_atom_site_type_symbol
_atom_site_label
_atom_site_fract_x
_atom_site_fract_y
_atom_site_fract_z
Si Si1 0.804068 0.146308 0.510462
Si Si2 0.500000 0.935933 0.750000
Si Si3 0.809529 0.000282 0.291877
Si Si4 0.737053 0.500000 0.500000
Si Si5 0.052822 0.661539 0.001837
O O1 0.856135 0.093145 0.640805
O O2 0.879916 0.241117 0.483747
O O3 0.624448 0.159237 0.521490
O O4 0.844811 0.082284 0.388917
O O5 0.426245 0.867899 0.650940
O O6 0.370572 0.995903 0.807065
O O7 0.846918 0.016743 0.138530
O O8 0.844196 0.419019 0.447531
#
# Coordination Sequence:
#
# PCOD9317774 Si02
#       5
#     8   4   8   4   8
#     4  10  20  36  60  86 114 149 191 236 283 337
#     4   8  16  34  56  82 112 150 192 234 274 332
#     4   9  18  35  58  82 112 152 196 233 275 336
#     4  10  20  36  58  84 114 152 196 238 276 332
#     4  10  20  35  59  86 115 149 189 234 283 336
#
# _framework density 23.293765
#
# number of rings (size 3 to 8) (size 9 to 14) (size 15 to 20)
#    0.000    2.500    0.000    4.500    0.000    6.000 
#    0.000    2.500    0.000    6.000    0.000    0.000 
#    0.000    0.000    0.000    0.000    0.000    0.000 
#
# Total GULP energy -89079.372084 kJ/mol
# GULP energy per Si atom -5567.460755 kJ/mol
# Density = 2.324075 g / cm^3
# Si number density = 23.293765 Si / 1000 Ang^3
#
#
#
# Elastic Constant Matrix: (Units=GPa)
#
#
# Indices 1 2 3 4 5 6 
#
# 1 119.5584 69.6042 20.5455 0.0000 0.0000 0.0000
# 2 69.6042 174.8963 45.3761 0.0000 0.0000 0.0000
# 3 20.5455 45.3761 135.2669 0.0000 0.0000 0.0000
# 4 0.0000 0.0000 0.0000 18.5473 0.0000 0.0000
# 5 0.0000 0.0000 0.0000 0.0000 -41.1735 0.0000
# 6 0.0000 0.0000 0.0000 0.0000 0.0000 16.1315
#
#
#
# Elastic Compliance Matrix: (Units=1/GPa)
#
#
# Indices 1 2 3 4 5 6 
#
# 1 0.010892 -0.004278 -0.000219 0.000000 0.000000 0.000000
# 2 -0.004278 0.007943 -0.002015 0.000000 0.000000 0.000000
# 3 -0.000219 -0.002015 0.008102 0.000000 0.000000 0.000000
# 4 0.000000 0.000000 0.000000 0.053916 0.000000 0.000000
# 5 0.000000 0.000000 0.000000 0.000000 -0.024287 0.000000
# 6 0.000000 0.000000 0.000000 0.000000 0.000000 0.061990
#
#
# Mechanical properties :
#
#
# Convention : Reuss Voigt Hill
#
# Bulk Modulus (GPa) = 71.87454 77.86368 74.86911
# Shear Modulus (GPa) = 36.70583 18.31411 27.50997
#
# Velocity S-wave (km/s) = 3.97391 2.80701 3.44030
# Velocity P-wave (km/s) = 7.20962 6.63364 6.92762
#
# Compressibility (1/GPa) = 0.01391313
#
# Stress axis : x y z
#
# Youngs Moduli (GPa) = 91.80761 125.89850 123.42690
#
# Poissons Ratio (x) = 0.53859 0.02707
# Poissons Ratio (y) = 0.39275 0.24867
# Poissons Ratio (z) = 0.02014 0.25365
#
# Static dielectric constant tensor:
#      x y z
#    x 2.111380 0.000000 0.000000 
#    y 0.000000 1.991410 0.000000 
#    z 0.000000 0.000000 2.059720 
# 
# From -- ./inp_files/12532.got.cif
#   From: 2010.05.17/outbox.cif.g08.bks.cpg/sg20_7_cif.got.tgz:12532.got - 2010.06.03 22:52:26.
