data_PCOD9317040
_publ_section_title
;
Structure prediction by ZEFSAII (Michael W. Deem and Ramdas Pophale) SiO2 
 PCOD9317040
Probable space group: C 2 2 21
;
_chemical_formula_sum "Si O2"
_cell_formula_units_Z 40
_cell_length_a 12.568702
_cell_length_b 11.301329
_cell_length_c 11.399172
_cell_angle_alpha 90.000000
_cell_angle_beta 90.000000
_cell_angle_gamma 90.000000
_cell_volume 1619.173003
_symmetry_space_group_name_H-M "C 2 2 21"
_symmetry_group_IT_number 20
_symmetry_cell_setting 'orthorhombic'
loop_
_space_group_symop_operation_xyz
x,y,z
-x,-y,1/2+z
x,-y,-z
-x,y,1/2-z
1/2+x,1/2+y,z
1/2-x,1/2-y,1/2+z
1/2+x,1/2-y,-z
1/2-x,1/2+y,1/2-z
loop_
_atom_site_type_symbol
_atom_site_label
_atom_site_fract_x
_atom_site_fract_y
_atom_site_fract_z
Si Si1 0.412698 0.792351 0.662691
Si Si2 0.063830 0.030038 0.371461
Si Si3 0.221716 0.186500 0.663285
Si Si4 0.918533 0.282709 0.036328
Si Si5 0.424352 0.947016 0.374097
O O1 0.500000 0.738651 0.750000
O O2 0.307325 0.728887 0.705629
O O3 0.471081 0.771966 0.540289
O O4 0.405089 0.930873 0.694510
O O5 0.095841 0.166431 0.386804
O O6 0.000000 0.020401 0.250000
O O7 0.011187 0.000000 0.500000
O O8 0.161051 0.937393 0.363005
O O9 0.173920 0.276800 0.563970
O O10 0.344769 0.157571 0.655874
O O11 0.954701 0.397456 0.112035
O O12 0.392129 0.000000 0.500000
#
# Coordination Sequence:
#
# PCOD9317040 Si02
#       5
#     8   8   8   8   8
#     4   9  19  37  56  78 118 162 199 251 316 375
#     4  10  19  33  57  86 117 156 205 261 317 370
#     4  10  19  36  59  84 117 159 203 252 312 375
#     4   9  19  35  55  82 116 155 201 255 310 368
#     4  10  20  35  57  84 118 160 204 251 314 380
#
# _framework density 24.703969000000001
#
# number of rings (size 3 to 8) (size 9 to 14) (size 15 to 20)
#    0.000    2.400    0.000    4.800    0.000    2.400 
#    0.000    4.000    0.000   10.800    0.000    0.000 
#    0.000    0.000    0.000    0.000    0.000    0.000 
#
# Total GULP energy -111421.837808 kJ/mol
# GULP energy per Si atom -5571.091890 kJ/mol
# Density = 2.464774 g / cm^3
# Si number density = 24.703969 Si / 1000 Ang^3
#
#
#
# Elastic Constant Matrix: (Units=GPa)
#
#
# Indices 1 2 3 4 5 6 
#
# 1 66.6348 11.6536 39.5486 0.0000 0.0000 0.0000
# 2 11.6536 107.1992 17.3005 0.0000 0.0000 0.0000
# 3 39.5486 17.3005 99.8097 0.0000 0.0000 0.0000
# 4 0.0000 0.0000 0.0000 46.5822 0.0000 0.0000
# 5 0.0000 0.0000 0.0000 0.0000 37.6317 0.0000
# 6 0.0000 0.0000 0.0000 0.0000 0.0000 31.6894
#
#
#
# Elastic Compliance Matrix: (Units=1/GPa)
#
#
# Indices 1 2 3 4 5 6 
#
# 1 0.019707 -0.000908 -0.007651 0.000000 0.000000 0.000000
# 2 -0.000908 0.009639 -0.001311 0.000000 0.000000 0.000000
# 3 -0.007651 -0.001311 0.013278 0.000000 0.000000 0.000000
# 4 0.000000 0.000000 0.000000 0.021467 0.000000 0.000000
# 5 0.000000 0.000000 0.000000 0.000000 0.026573 0.000000
# 6 0.000000 0.000000 0.000000 0.000000 0.000000 0.031556
#
#
# Mechanical properties :
#
#
# Convention : Reuss Voigt Hill
#
# Bulk Modulus (GPa) = 43.69908 45.62766 44.66337
# Shear Modulus (GPa) = 33.42487 36.85670 35.14079
#
# Velocity S-wave (km/s) = 3.68233 3.86675 3.77566
# Velocity P-wave (km/s) = 5.98388 6.20044 6.09313
#
# Compressibility (1/GPa) = 0.02288377
#
# Stress axis : x y z
#
# Youngs Moduli (GPa) = 50.74306 103.74858 75.31170
#
# Poissons Ratio (x) = 0.09415 0.57624
# Poissons Ratio (y) = 0.04605 0.09874
# Poissons Ratio (z) = 0.38826 0.13603
#
# Static dielectric constant tensor:
#      x y z
#    x 2.025710 0.000000 0.000000 
#    y 0.000000 1.982790 0.000000 
#    z 0.000000 0.000000 2.294180 
# 
# From -- ./inp_files/14869.got.cif
#   From: 2010.05.17/outbox.cif.g08.bks.cpg/sg20_8_cif.got.tgz:14869.got - 2010.06.03 22:52:26.
