data_PCOD9317225
_publ_section_title
;
Structure prediction by ZEFSAII (Michael W. Deem and Ramdas Pophale) SiO2 
 PCOD9317225
Probable space group: C 2 2 21
;
_chemical_formula_sum "Si O2"
_cell_formula_units_Z 32
_cell_length_a 7.036756
_cell_length_b 12.190633
_cell_length_c 13.412111
_cell_angle_alpha 90.000000
_cell_angle_beta 90.000000
_cell_angle_gamma 90.000000
_cell_volume 1150.524545
_symmetry_space_group_name_H-M "C 2 2 21"
_symmetry_group_IT_number 20
_symmetry_cell_setting 'orthorhombic'
loop_
_space_group_symop_operation_xyz
x,y,z
-x,-y,1/2+z
x,-y,-z
-x,y,1/2-z
1/2+x,1/2+y,z
1/2-x,1/2-y,1/2+z
1/2+x,1/2-y,-z
1/2-x,1/2+y,1/2-z
loop_
_atom_site_type_symbol
_atom_site_label
_atom_site_fract_x
_atom_site_fract_y
_atom_site_fract_z
Si Si1 0.638345 0.800168 0.333522
Si Si2 0.389463 0.111865 0.039248
Si Si3 0.926215 0.156024 0.903191
Si Si4 0.706932 0.569553 0.379450
O O1 0.500000 0.848333 0.250000
O O2 0.538973 0.832026 0.437590
O O3 0.857473 0.828798 0.365035
O O4 0.661113 0.671443 0.310477
O O5 0.328984 0.222542 0.099121
O O6 0.569594 0.067960 0.098907
O O7 0.285413 0.000000 0.000000
O O8 0.851962 0.050086 0.844188
O O9 0.892606 0.110746 0.016394
#
# Coordination Sequence:
#
# PCOD9317225 Si02
#       4
#     8   8   8   8
#     4  10  22  38  56  90 126 152 196 266 312 344
#     4  10  19  35  63  86 117 158 208 243 293 367
#     4   9  18  36  60  87 111 155 208 236 293 368
#     4   9  18  39  63  83 112 161 210 240 288 367
#
# _framework density 27.813400999999999
#
# number of rings (size 3 to 8) (size 9 to 14) (size 15 to 20)
#    0.000    2.500    2.500    0.000    3.500    0.000 
#    9.000    1.250    0.000    1.500    0.000    0.000 
#    0.000    0.000    0.000    0.000    0.000    0.000 
#
# Total GULP energy -89143.430012 kJ/mol
# GULP energy per Si atom -5571.464376 kJ/mol
# Density = 2.775010 g / cm^3
# Si number density = 27.813401 Si / 1000 Ang^3
#
#
#
# Elastic Constant Matrix: (Units=GPa)
#
#
# Indices 1 2 3 4 5 6 
#
# 1 93.3244 64.4609 2.1460 0.0000 0.0000 0.0000
# 2 64.4609 294.6590 1.3770 0.0000 0.0000 0.0000
# 3 2.1460 1.3770 78.6051 0.0000 0.0000 0.0000
# 4 0.0000 0.0000 0.0000 -5.1454 0.0000 0.0000
# 5 0.0000 0.0000 0.0000 0.0000 33.0709 0.0000
# 6 0.0000 0.0000 0.0000 0.0000 0.0000 77.4194
#
#
#
# Elastic Compliance Matrix: (Units=1/GPa)
#
#
# Indices 1 2 3 4 5 6 
#
# 1 0.012630 -0.002762 -0.000296 0.000000 0.000000 0.000000
# 2 -0.002762 0.003998 0.000005 0.000000 0.000000 0.000000
# 3 -0.000296 0.000005 0.012730 0.000000 0.000000 0.000000
# 4 0.000000 0.000000 0.000000 -0.194350 0.000000 0.000000
# 5 0.000000 0.000000 0.000000 0.000000 0.030238 0.000000
# 6 0.000000 0.000000 0.000000 0.000000 0.000000 0.012917
#
#
# Mechanical properties :
#
#
# Convention : Reuss Voigt Hill
#
# Bulk Modulus (GPa) = 43.00692 66.95070 54.97881
# Shear Modulus (GPa) = -46.30407 47.64264 0.66928
#
# Velocity S-wave (km/s) = -4.08464 4.14326 0.49108
# Velocity P-wave (km/s) = 2.59797 6.85656 4.48681
#
# Compressibility (1/GPa) = 0.02325207
#
# Stress axis : x y z
#
# Youngs Moduli (GPa) = 79.17940 250.13458 78.55571
#
# Poissons Ratio (x) = 0.69075 0.02329
# Poissons Ratio (y) = 0.21865 -0.00042
# Poissons Ratio (z) = 0.02347 -0.00134
#
# Static dielectric constant tensor:
#      x y z
#    x 2.242180 0.000000 0.000000 
#    y 0.000000 2.266940 0.000000 
#    z 0.000000 0.000000 2.185950 
# 
# From -- ./inp_files/18291.got.cif
#   From: 2010.05.17/outbox.cif.g08.bks.cpg/sg20_10_cif.got.tgz:18291.got - 2010.06.03 22:52:26.
