data_PCOD9317413
_publ_section_title
;
Structure prediction by ZEFSAII (Michael W. Deem and Ramdas Pophale) SiO2 
 PCOD9317413
Probable space group: C 2 2 21
;
_chemical_formula_sum "Si O2"
_cell_formula_units_Z 40
_cell_length_a 17.363464
_cell_length_b 9.297591
_cell_length_c 11.869456
_cell_angle_alpha 90.000000
_cell_angle_beta 90.000000
_cell_angle_gamma 90.000000
_cell_volume 1916.185827
_symmetry_space_group_name_H-M "C 2 2 21"
_symmetry_group_IT_number 20
_symmetry_cell_setting 'orthorhombic'
loop_
_space_group_symop_operation_xyz
x,y,z
-x,-y,1/2+z
x,-y,-z
-x,y,1/2-z
1/2+x,1/2+y,z
1/2-x,1/2-y,1/2+z
1/2+x,1/2-y,-z
1/2-x,1/2+y,1/2-z
loop_
_atom_site_type_symbol
_atom_site_label
_atom_site_fract_x
_atom_site_fract_y
_atom_site_fract_z
Si Si1 0.178928 0.404220 0.671401
Si Si2 0.206645 0.645699 0.070731
Si Si3 0.377093 0.328198 0.995662
Si Si4 0.354717 0.378267 0.587133
Si Si5 0.079089 0.687954 0.706854
O O1 0.183000 0.361629 0.801342
O O2 0.135623 0.275287 0.603574
O O3 0.266599 0.421282 0.624580
O O4 0.136322 0.557642 0.675038
O O5 0.295450 0.691834 0.067757
O O6 0.205428 0.500000 0.000000
O O7 0.154343 0.748243 0.998569
O O8 0.439334 0.266785 0.910559
O O9 0.387887 0.500000 0.000000
O O10 0.386813 0.500000 0.500000
O O11 0.392300 0.307627 0.700672
O O12 0.000000 0.621048 0.750000
#
# Coordination Sequence:
#
# PCOD9317413 Si02
#       5
#     8   8   8   8   8
#     4  11  22  44  70  98 135 179 233 280 340 405
#     4  10  19  37  68 104 131 168 226 288 330 402
#     4  10  23  40  68 100 132 174 225 286 339 397
#     4  11  24  38  70 100 131 176 234 283 335 397
#     4  12  26  46  65  98 143 181 221 278 348 418
#
# _framework density 20.874803
#
# number of rings (size 3 to 8) (size 9 to 14) (size 15 to 20)
#    0.000    1.200    4.000    3.000    2.800    0.800 
#    7.200    1.000    0.000    0.000    0.000    0.000 
#    0.000    0.000    0.000    0.000    0.000    0.000 
#
# Total GULP energy -111393.092406 kJ/mol
# GULP energy per Si atom -5569.654620 kJ/mol
# Density = 2.082729 g / cm^3
# Si number density = 20.874803 Si / 1000 Ang^3
#
#
#
# Elastic Constant Matrix: (Units=GPa)
#
#
# Indices 1 2 3 4 5 6 
#
# 1 33.3893 34.8614 18.0128 0.0000 0.0000 0.0000
# 2 34.8614 107.3316 62.1454 0.0000 0.0000 0.0000
# 3 18.0128 62.1454 165.8526 0.0000 0.0000 0.0000
# 4 0.0000 0.0000 0.0000 47.0949 0.0000 0.0000
# 5 0.0000 0.0000 0.0000 0.0000 15.9975 0.0000
# 6 0.0000 0.0000 0.0000 0.0000 0.0000 11.5370
#
#
#
# Elastic Compliance Matrix: (Units=1/GPa)
#
#
# Indices 1 2 3 4 5 6 
#
# 1 0.045393 -0.015183 0.000759 0.000000 0.000000 0.000000
# 2 -0.015183 0.016977 -0.004712 0.000000 0.000000 0.000000
# 3 0.000759 -0.004712 0.007713 0.000000 0.000000 0.000000
# 4 0.000000 0.000000 0.000000 0.021234 0.000000 0.000000
# 5 0.000000 0.000000 0.000000 0.000000 0.062510 0.000000
# 6 0.000000 0.000000 0.000000 0.000000 0.000000 0.086678
#
#
# Mechanical properties :
#
#
# Convention : Reuss Voigt Hill
#
# Bulk Modulus (GPa) = 31.43687 59.62364 45.53025
# Shear Modulus (GPa) = 17.27835 27.69612 22.48724
#
# Velocity S-wave (km/s) = 2.88012 3.64644 3.28570
# Velocity P-wave (km/s) = 5.11396 6.80832 6.02104
#
# Compressibility (1/GPa) = 0.03180979
#
# Stress axis : x y z
#
# Youngs Moduli (GPa) = 22.02995 58.90373 129.65636
#
# Poissons Ratio (x) = 0.89435 -0.09843
# Poissons Ratio (y) = 0.33448 0.61098
# Poissons Ratio (z) = -0.01672 0.27757
#
# Static dielectric constant tensor:
#      x y z
#    x 1.794710 0.000000 0.000000 
#    y 0.000000 1.911200 0.000000 
#    z 0.000000 0.000000 1.749770 
# 
# From -- ./inp_files/12671.got.cif
#   From: 2010.05.17/outbox.cif.g08.bks.cpg/sg20_7_cif.got.tgz:12671.got - 2010.06.03 22:52:26.
