data_PCOD9317330
_publ_section_title
;
Structure prediction by ZEFSAII (Michael W. Deem and Ramdas Pophale) SiO2 
 PCOD9317330
Probable space group: C 2 2 21
;
_chemical_formula_sum "Si O2"
_cell_formula_units_Z 64
_cell_length_a 18.164531
_cell_length_b 11.788443
_cell_length_c 15.173422
_cell_angle_alpha 90.000000
_cell_angle_beta 90.000000
_cell_angle_gamma 90.000000
_cell_volume 3249.108194
_symmetry_space_group_name_H-M "C 2 2 21"
_symmetry_group_IT_number 20
_symmetry_cell_setting 'orthorhombic'
loop_
_space_group_symop_operation_xyz
x,y,z
-x,-y,1/2+z
x,-y,-z
-x,y,1/2-z
1/2+x,1/2+y,z
1/2-x,1/2-y,1/2+z
1/2+x,1/2-y,-z
1/2-x,1/2+y,1/2-z
loop_
_atom_site_type_symbol
_atom_site_label
_atom_site_fract_x
_atom_site_fract_y
_atom_site_fract_z
Si Si1 0.403134 0.191390 0.591669
Si Si2 0.345155 0.999858 0.277716
Si Si3 0.066831 0.676690 0.320233
Si Si4 0.912022 0.883963 0.269072
Si Si5 0.549896 0.128204 0.517004
Si Si6 0.819168 0.678736 0.858937
Si Si7 0.909986 0.143303 0.259196
Si Si8 0.834810 0.278660 0.599118
O O1 0.490133 0.187444 0.577298
O O2 0.386908 0.304191 0.646745
O O3 0.364160 0.187031 0.496929
O O4 0.383459 0.085103 0.653661
O O5 0.394877 0.058670 0.202503
O O6 0.326678 0.110520 0.337107
O O7 0.297704 0.914122 0.216636
O O8 0.114736 0.788697 0.300168
O O9 0.046526 0.683201 0.421086
O O10 0.000000 0.676616 0.250000
O O11 0.889110 0.818023 0.358733
O O12 0.000000 0.894480 0.250000
O O13 0.885737 0.011910 0.256841
O O14 0.628116 0.131209 0.564505
O O15 0.525353 0.000000 0.500000
O O16 0.866794 0.778299 0.811085
O O17 0.745615 0.725255 0.902173
O O18 0.000000 0.151149 0.250000
#
# Coordination Sequence:
#
# PCOD9317330 Si02
#       8
#     8   8   8   8   8   8   8   8
#     4  11  22  40  68  95 126 168 214 274 322 384
#     4  10  22  41  63  91 128 172 207 259 331 386
#     4  10  19  36  63  95 126 159 213 264 320 381
#     4   9  20  40  65  88 121 176 218 259 313 380
#     4  12  21  38  66 100 131 161 216 283 323 377
#     4  11  25  41  63  99 131 168 213 267 332 386
#     4  10  21  43  67  90 131 173 222 260 320 392
#     4  11  24  43  63  97 133 166 224 264 328 393
#
# _framework density 19.697711999999999
#
# number of rings (size 3 to 8) (size 9 to 14) (size 15 to 20)
#    0.000    1.500    2.500    4.125    1.750    0.500 
#   11.250    1.875    0.000    0.000    0.000    0.000 
#    0.000    0.000    0.000    0.000    0.000    0.000 
#
# Total GULP energy -178182.376055 kJ/mol
# GULP energy per Si atom -5568.199252 kJ/mol
# Density = 1.965288 g / cm^3
# Si number density = 19.697712 Si / 1000 Ang^3
#
#
#
# Elastic Constant Matrix: (Units=GPa)
#
#
# Indices 1 2 3 4 5 6 
#
# 1 65.0750 6.2974 16.6687 0.0000 0.0000 0.0000
# 2 6.2974 120.2686 20.7587 0.0000 0.0000 0.0000
# 3 16.6687 20.7587 65.6002 0.0000 0.0000 0.0000
# 4 0.0000 0.0000 0.0000 5.0220 0.0000 0.0000
# 5 0.0000 0.0000 0.0000 0.0000 18.3633 0.0000
# 6 0.0000 0.0000 0.0000 0.0000 0.0000 15.6361
#
#
#
# Elastic Compliance Matrix: (Units=1/GPa)
#
#
# Indices 1 2 3 4 5 6 
#
# 1 0.016439 -0.000148 -0.004130 0.000000 0.000000 0.000000
# 2 -0.000148 0.008796 -0.002746 0.000000 0.000000 0.000000
# 3 -0.004130 -0.002746 0.017162 0.000000 0.000000 0.000000
# 4 0.000000 0.000000 0.000000 0.199125 0.000000 0.000000
# 5 0.000000 0.000000 0.000000 0.000000 0.054456 0.000000
# 6 0.000000 0.000000 0.000000 0.000000 0.000000 0.063954
#
#
# Mechanical properties :
#
#
# Convention : Reuss Voigt Hill
#
# Bulk Modulus (GPa) = 35.27395 37.59926 36.43660
# Shear Modulus (GPa) = 13.04013 21.61888 17.32951
#
# Velocity S-wave (km/s) = 2.57575 3.31650 2.96931
# Velocity P-wave (km/s) = 5.17615 5.81336 5.50398
#
# Compressibility (1/GPa) = 0.02834953
#
# Stress axis : x y z
#
# Youngs Moduli (GPa) = 60.83035 113.68250 58.26726
#
# Poissons Ratio (x) = 0.01681 0.24066
# Poissons Ratio (y) = 0.00900 0.16000
# Poissons Ratio (z) = 0.25125 0.31217
#
# Static dielectric constant tensor:
#      x y z
#    x 1.735870 0.000000 0.000000 
#    y 0.000000 1.731250 0.000000 
#    z 0.000000 0.000000 1.708220 
# 
# From -- ./inp_files/21514.got.cif
#   From: 2010.05.17/outbox.cif.g08.bks.cpg/sg20_11_cif.got.tgz:21514.got - 2010.06.03 22:52:26.
