data_PCOD9317540
_publ_section_title
;
Structure prediction by ZEFSAII (Michael W. Deem and Ramdas Pophale) SiO2 
 PCOD9317540
Probable space group: C 2 2 21
;
_chemical_formula_sum "Si O2"
_cell_formula_units_Z 56
_cell_length_a 19.455856
_cell_length_b 8.780645
_cell_length_c 17.284445
_cell_angle_alpha 90.000000
_cell_angle_beta 90.000000
_cell_angle_gamma 90.000000
_cell_volume 2952.787552
_symmetry_space_group_name_H-M "C 2 2 21"
_symmetry_group_IT_number 20
_symmetry_cell_setting 'orthorhombic'
loop_
_space_group_symop_operation_xyz
x,y,z
-x,-y,1/2+z
x,-y,-z
-x,y,1/2-z
1/2+x,1/2+y,z
1/2-x,1/2-y,1/2+z
1/2+x,1/2-y,-z
1/2-x,1/2+y,1/2-z
loop_
_atom_site_type_symbol
_atom_site_label
_atom_site_fract_x
_atom_site_fract_y
_atom_site_fract_z
Si Si1 0.678772 0.177349 0.757049
Si Si2 0.763094 0.043827 0.354936
Si Si3 0.530215 0.396989 0.425783
Si Si4 0.581942 0.929024 0.749283
Si Si5 0.377047 0.895410 0.927816
Si Si6 0.392176 0.634772 0.655992
Si Si7 0.431790 0.613421 0.215751
O O1 0.712633 0.297673 0.815311
O O2 0.633100 0.280585 0.699181
O O3 0.730468 0.064972 0.712633
O O4 0.619208 0.069168 0.792131
O O5 0.705097 0.089558 0.416605
O O6 0.825556 0.937706 0.384929
O O7 0.520199 0.500000 0.500000
O O8 0.588049 0.269199 0.438578
O O9 0.456557 0.329544 0.399337
O O10 0.552377 0.508637 0.356760
O O11 0.500000 0.916352 0.750000
O O12 0.598156 0.943381 0.658089
O O13 0.615972 0.780183 0.788170
O O14 0.398139 0.000000 0.000000
O O15 0.412705 0.499843 0.714633
O O16 0.500000 0.695623 0.250000
#
# Coordination Sequence:
#
# PCOD9317540 Si02
#       7
#     8   8   8   8   8   8   8
#     4  10  21  32  59  92 118 154 207 265 316 378
#     4  10  22  38  59  87 126 163 205 259 321 387
#     4  11  23  38  64  88 124 169 210 266 326 391
#     4  11  19  38  68  94 124 166 222 277 323 378
#     4  11  24  41  60  91 132 172 212 267 335 393
#     4  10  19  41  65  91 119 168 216 262 319 382
#     4   9  18  36  59  91 120 151 212 264 311 375
#
# _framework density 18.965131
#
# number of rings (size 3 to 8) (size 9 to 14) (size 15 to 20)
#    0.000    1.714    2.857    2.571    6.000    0.571 
#    0.000    0.000    0.000    0.000    0.000    0.000 
#    0.000    0.000    0.000    0.000    0.000    0.000 
#
# Total GULP energy -155916.938938 kJ/mol
# GULP energy per Si atom -5568.462105 kJ/mol
# Density = 1.892197 g / cm^3
# Si number density = 18.965131 Si / 1000 Ang^3
#
#
#
# Elastic Constant Matrix: (Units=GPa)
#
#
# Indices 1 2 3 4 5 6 
#
# 1 84.6756 35.1314 26.3016 0.0000 0.0000 0.0000
# 2 35.1314 95.2438 24.3893 0.0000 0.0000 0.0000
# 3 26.3016 24.3893 67.2286 0.0000 0.0000 0.0000
# 4 0.0000 0.0000 0.0000 21.7625 0.0000 0.0000
# 5 0.0000 0.0000 0.0000 0.0000 27.1970 0.0000
# 6 0.0000 0.0000 0.0000 0.0000 0.0000 28.0720
#
#
#
# Elastic Compliance Matrix: (Units=1/GPa)
#
#
# Indices 1 2 3 4 5 6 
#
# 1 0.014969 -0.004434 -0.004248 0.000000 0.000000 0.000000
# 2 -0.004434 0.012888 -0.002941 0.000000 0.000000 0.000000
# 3 -0.004248 -0.002941 0.017603 0.000000 0.000000 0.000000
# 4 0.000000 0.000000 0.000000 0.045951 0.000000 0.000000
# 5 0.000000 0.000000 0.000000 0.000000 0.036769 0.000000
# 6 0.000000 0.000000 0.000000 0.000000 0.000000 0.035623
#
#
# Mechanical properties :
#
#
# Convention : Reuss Voigt Hill
#
# Bulk Modulus (GPa) = 45.01385 46.53251 45.77318
# Shear Modulus (GPa) = 25.71334 26.16133 25.93733
#
# Velocity S-wave (km/s) = 3.68614 3.71812 3.70216
# Velocity P-wave (km/s) = 6.47329 6.55909 6.51633
#
# Compressibility (1/GPa) = 0.02221539
#
# Stress axis : x y z
#
# Youngs Moduli (GPa) = 66.80623 77.59264 56.80734
#
# Poissons Ratio (x) = 0.34401 0.24130
# Poissons Ratio (y) = 0.29619 0.16707
# Poissons Ratio (z) = 0.28377 0.22819
#
# Static dielectric constant tensor:
#      x y z
#    x 1.766220 0.000000 0.000000 
#    y 0.000000 1.684620 0.000000 
#    z 0.000000 0.000000 1.644000 
# 
# From -- ./inp_files/25463.got.cif
#   From: 2010.05.17/outbox.cif.g08.bks.cpg/sg20_13_cif.got.tgz:25463.got - 2010.06.03 22:52:26.
