data_PCOD9317894
_publ_section_title
;
Structure prediction by ZEFSAII (Michael W. Deem and Ramdas Pophale) SiO2 
 PCOD9317894
Probable space group: C 2 2 21
;
_chemical_formula_sum "Si O2"
_cell_formula_units_Z 64
_cell_length_a 33.323657
_cell_length_b 11.071891
_cell_length_c 8.928444
_cell_angle_alpha 90.000000
_cell_angle_beta 90.000000
_cell_angle_gamma 90.000000
_cell_volume 3294.202074
_symmetry_space_group_name_H-M "C 2 2 21"
_symmetry_group_IT_number 20
_symmetry_cell_setting 'orthorhombic'
loop_
_space_group_symop_operation_xyz
x,y,z
-x,-y,1/2+z
x,-y,-z
-x,y,1/2-z
1/2+x,1/2+y,z
1/2-x,1/2-y,1/2+z
1/2+x,1/2-y,-z
1/2-x,1/2+y,1/2-z
loop_
_atom_site_type_symbol
_atom_site_label
_atom_site_fract_x
_atom_site_fract_y
_atom_site_fract_z
Si Si1 0.542132 0.152020 0.835132
Si Si2 0.731986 0.587188 0.134979
Si Si3 0.185223 0.429787 0.773999
Si Si4 0.545761 0.124658 0.190235
Si Si5 0.389899 0.700219 0.210481
Si Si6 0.179034 0.683463 0.907382
Si Si7 0.839444 0.972417 0.172326
Si Si8 0.878479 0.718403 0.130677
O O1 0.500000 0.153934 0.750000
O O2 0.567128 0.262065 0.768969
O O3 0.558614 0.016955 0.799539
O O4 0.542709 0.158664 0.015064
O O5 0.771364 0.619063 0.228679
O O6 0.711703 0.711286 0.082464
O O7 0.697892 0.514507 0.227411
O O8 0.744438 0.500000 0.000000
O O9 0.191661 0.571119 0.804153
O O10 0.150987 0.394767 0.656650
O O11 0.170906 0.370263 0.929514
O O12 0.500000 0.135997 0.250000
O O13 0.579537 0.197386 0.282625
O O14 0.359486 0.761004 0.327519
O O15 0.377065 0.560786 0.204707
O O16 0.385026 0.754571 0.044225
O O17 0.853922 0.835544 0.190926
O O18 0.828056 0.000000 0.000000
#
# Coordination Sequence:
#
# PCOD9317894 Si02
#       8
#     8   8   8   8   8   8   8   8
#     4  10  20  36  60  89 125 157 195 243 302 363
#     4  11  25  39  62  84 116 155 206 249 304 367
#     4  11  25  38  59  84 116 153 195 251 303 354
#     4  10  21  37  60  91 124 157 193 245 303 357
#     4  10  21  39  61  86 119 157 203 243 299 365
#     4  10  24  41  56  83 116 155 194 249 299 361
#     4   9  22  42  61  84 117 164 201 249 304 359
#     4  11  22  38  63  88 121 156 203 252 300 363
#
# _framework density 19.428073999999999
#
# number of rings (size 3 to 8) (size 9 to 14) (size 15 to 20)
#    0.000    1.750    0.000    3.000    7.000    6.500 
#    0.000    0.625    0.000    0.000    0.000    0.000 
#    0.000    0.000    0.000    0.000    0.000    0.000 
#
# Total GULP energy -178673.709042 kJ/mol
# GULP energy per Si atom -5583.553408 kJ/mol
# Density = 1.938385 g / cm^3
# Si number density = 19.428074 Si / 1000 Ang^3
#
#
#
# Elastic Constant Matrix: (Units=GPa)
#
#
# Indices 1 2 3 4 5 6 
#
# 1 57.9249 11.4093 21.0681 0.0000 0.0000 0.0000
# 2 11.4093 52.7338 28.4077 0.0000 0.0000 0.0000
# 3 21.0681 28.4077 63.5409 0.0000 0.0000 0.0000
# 4 0.0000 0.0000 0.0000 -10.5522 0.0000 0.0000
# 5 0.0000 0.0000 0.0000 0.0000 28.8192 0.0000
# 6 0.0000 0.0000 0.0000 0.0000 0.0000 22.5955
#
#
#
# Elastic Compliance Matrix: (Units=1/GPa)
#
#
# Indices 1 2 3 4 5 6 
#
# 1 0.019669 -0.000978 -0.006085 0.000000 0.000000 0.000000
# 2 -0.000978 0.025028 -0.010865 0.000000 0.000000 0.000000
# 3 -0.006085 -0.010865 0.022613 0.000000 0.000000 0.000000
# 4 0.000000 0.000000 0.000000 -0.094767 0.000000 0.000000
# 5 0.000000 0.000000 0.000000 0.000000 0.034699 0.000000
# 6 0.000000 0.000000 0.000000 0.000000 0.000000 0.044257
#
#
# Mechanical properties :
#
#
# Convention : Reuss Voigt Hill
#
# Bulk Modulus (GPa) = 31.79146 32.88553 32.33850
# Shear Modulus (GPa) = 51.10463 15.72682 33.41573
#
# Velocity S-wave (km/s) = 5.13436 2.84824 4.15175
# Velocity P-wave (km/s) = 7.17970 5.27069 6.29795
#
# Compressibility (1/GPa) = 0.03145498
#
# Stress axis : x y z
#
# Youngs Moduli (GPa) = 50.84045 39.95561 44.22250
#
# Poissons Ratio (x) = 0.03907 0.26908
# Poissons Ratio (y) = 0.04971 0.48048
# Poissons Ratio (z) = 0.30934 0.43412
#
# Static dielectric constant tensor:
#      x y z
#    x 1.820840 0.000000 0.000000 
#    y 0.000000 1.682940 0.000000 
#    z 0.000000 0.000000 1.679150 
# 
# From -- ./inp_files/11597.got.cif
#   From: 2010.05.17/outbox.cif.g08.bks.cpg/sg20_6_cif.got.tgz:11597.got - 2010.06.03 22:52:26.
