data_PCOD9317224
_publ_section_title
;
Structure prediction by ZEFSAII (Michael W. Deem and Ramdas Pophale) SiO2 
 PCOD9317224
Probable space group: C 2 2 21
;
_chemical_formula_sum "Si O2"
_cell_formula_units_Z 48
_cell_length_a 10.013612
_cell_length_b 15.079866
_cell_length_c 14.589273
_cell_angle_alpha 90.000000
_cell_angle_beta 90.000000
_cell_angle_gamma 90.000000
_cell_volume 2203.037517
_symmetry_space_group_name_H-M "C 2 2 21"
_symmetry_group_IT_number 20
_symmetry_cell_setting 'orthorhombic'
loop_
_space_group_symop_operation_xyz
x,y,z
-x,-y,1/2+z
x,-y,-z
-x,y,1/2-z
1/2+x,1/2+y,z
1/2-x,1/2-y,1/2+z
1/2+x,1/2-y,-z
1/2-x,1/2+y,1/2-z
loop_
_atom_site_type_symbol
_atom_site_label
_atom_site_fract_x
_atom_site_fract_y
_atom_site_fract_z
Si Si1 0.191247 0.694322 0.684204
Si Si2 0.076999 0.236570 0.125931
Si Si3 0.107861 0.651843 0.173363
Si Si4 0.750398 0.971896 0.197890
Si Si5 0.685134 0.126545 0.987505
Si Si6 0.457821 0.553753 0.082205
O O1 0.141233 0.741995 0.777221
O O2 0.310949 0.757766 0.654947
O O3 0.230975 0.596180 0.718491
O O4 0.061646 0.706628 0.620033
O O5 0.043424 0.134148 0.118494
O O6 0.176338 0.273861 0.049824
O O7 0.190348 0.568878 0.215499
O O8 0.077515 0.618659 0.069492
O O9 0.000000 0.672303 0.250000
O O10 0.899977 0.989862 0.160926
O O11 0.677716 0.930161 0.106739
O O12 0.824669 0.097879 0.034886
O O13 0.524871 0.500000 0.000000
#
# Coordination Sequence:
#
# PCOD9317224 Si02
#       6
#     8   8   8   8   8   8
#     4  10  21  37  57  87 110 153 191 239 284 337
#     4  10  19  35  63  80 112 146 197 233 283 345
#     4  11  22  37  56  87 121 141 194 246 283 338
#     4   9  19  37  58  80 113 155 194 225 293 353
#     4   9  19  34  55  82 107 152 185 227 283 348
#     4   9  17  35  58  80 111 151 191 227 279 360
#
# _framework density 21.7881
#
# number of rings (size 3 to 8) (size 9 to 14) (size 15 to 20)
#    0.000    2.333    3.333    1.500    4.667    4.000 
#    0.000    3.333    0.000    2.000    0.000    0.000 
#    0.000    0.000    0.000    0.000    0.000    0.000 
#
# Total GULP energy -133677.073690 kJ/mol
# GULP energy per Si atom -5569.878070 kJ/mol
# Density = 2.173851 g / cm^3
# Si number density = 21.788100 Si / 1000 Ang^3
#
#
#
# Elastic Constant Matrix: (Units=GPa)
#
#
# Indices 1 2 3 4 5 6 
#
# 1 11.5549 -0.4458 8.5479 0.0000 0.0000 0.0000
# 2 -0.4458 87.1949 11.0652 0.0000 0.0000 0.0000
# 3 8.5479 11.0652 49.6965 0.0000 0.0000 0.0000
# 4 0.0000 0.0000 0.0000 23.6726 0.0000 0.0000
# 5 0.0000 0.0000 0.0000 0.0000 14.4697 0.0000
# 6 0.0000 0.0000 0.0000 0.0000 0.0000 27.0697
#
#
#
# Elastic Compliance Matrix: (Units=1/GPa)
#
#
# Indices 1 2 3 4 5 6 
#
# 1 0.099805 0.002767 -0.017783 0.000000 0.000000 0.000000
# 2 0.002767 0.011879 -0.003121 0.000000 0.000000 0.000000
# 3 -0.017783 -0.003121 0.023876 0.000000 0.000000 0.000000
# 4 0.000000 0.000000 0.000000 0.042243 0.000000 0.000000
# 5 0.000000 0.000000 0.000000 0.000000 0.069110 0.000000
# 6 0.000000 0.000000 0.000000 0.000000 0.000000 0.036942
#
#
# Mechanical properties :
#
#
# Convention : Reuss Voigt Hill
#
# Bulk Modulus (GPa) = 10.07189 20.75345 15.41267
# Shear Modulus (GPa) = 14.15538 21.66100 17.90819
#
# Velocity S-wave (km/s) = 2.55165 3.15646 2.87003
# Velocity P-wave (km/s) = 3.64883 4.77809 4.25112
#
# Compressibility (1/GPa) = 0.09928620
#
# Stress axis : x y z
#
# Youngs Moduli (GPa) = 10.01953 84.18398 41.88358
#
# Poissons Ratio (x) = -0.23294 0.74481
# Poissons Ratio (y) = -0.02772 0.13071
# Poissons Ratio (z) = 0.17818 0.26272
#
# Static dielectric constant tensor:
#      x y z
#    x 1.860950 0.000000 0.000000 
#    y 0.000000 1.823440 0.000000 
#    z 0.000000 0.000000 1.871490 
# 
# From -- ./inp_files/19909.got.cif
#   From: 2010.05.17/outbox.cif.g08.bks.cpg/sg20_10_cif.got.tgz:19909.got - 2010.06.03 22:52:26.
