data_PCOD9317843
_publ_section_title
;
Structure prediction by ZEFSAII (Michael W. Deem and Ramdas Pophale) SiO2 
 PCOD9317843
Probable space group: C 2 2 21
;
_chemical_formula_sum "Si O2"
_cell_formula_units_Z 48
_cell_length_a 17.955933
_cell_length_b 15.913887
_cell_length_c 8.319771
_cell_angle_alpha 90.000000
_cell_angle_beta 90.000000
_cell_angle_gamma 90.000000
_cell_volume 2377.363654
_symmetry_space_group_name_H-M "C 2 2 21"
_symmetry_group_IT_number 20
_symmetry_cell_setting 'orthorhombic'
loop_
_space_group_symop_operation_xyz
x,y,z
-x,-y,1/2+z
x,-y,-z
-x,y,1/2-z
1/2+x,1/2+y,z
1/2-x,1/2-y,1/2+z
1/2+x,1/2-y,-z
1/2-x,1/2+y,1/2-z
loop_
_atom_site_type_symbol
_atom_site_label
_atom_site_fract_x
_atom_site_fract_y
_atom_site_fract_z
Si Si1 0.352008 0.344467 0.788142
Si Si2 0.421373 0.990311 0.690969
Si Si3 0.791059 0.085938 0.898775
Si Si4 0.578627 0.509689 0.809031
Si Si5 0.352008 0.155533 0.788142
Si Si6 0.708941 0.085938 0.398775
O O1 0.413183 0.416194 0.764332
O O2 0.373682 0.250000 0.745892
O O3 0.282238 0.375839 0.680468
O O4 0.325362 0.350971 0.971901
O O5 0.500000 0.954007 0.750000
O O6 0.352241 0.938483 0.764766
O O7 0.418333 0.000000 0.500000
O O8 0.413183 0.083806 0.764332
O O9 0.717762 0.124161 0.819532
O O10 0.852241 0.061517 0.764766
O O11 0.775416 0.000000 0.000000
O O12 0.500000 0.545993 0.750000
O O13 0.581667 0.500000 0.000000
O O14 0.325362 0.149028 0.971901
O O15 0.724584 0.000000 0.500000
#
# Coordination Sequence:
#
# PCOD9317843 Si02
#       6
#     8   8   8   8   8   8
#     4  11  21  35  58  86 116 145 181 231 279 323
#     4  11  22  39  60  81 109 148 190 228 272 331
#     4  10  20  36  57  83 113 148 189 225 267 328
#     4  11  22  39  60  81 109 148 190 228 272 331
#     4  11  21  35  58  86 116 145 181 231 279 323
#     4  10  20  36  57  83 113 148 189 225 267 328
#
# _framework density 20.190432000000001
#
# number of rings (size 3 to 8) (size 9 to 14) (size 15 to 20)
#    0.000    1.333    0.000   11.000    0.000    0.667 
#    0.000    1.667    0.000    7.000    0.000    0.000 
#    0.000    0.000    0.000    0.000    0.000    0.000 
#
# Total GULP energy -134154.567231 kJ/mol
# GULP energy per Si atom -5589.773635 kJ/mol
# Density = 2.014448 g / cm^3
# Si number density = 20.190432 Si / 1000 Ang^3
#
#
#
# Elastic Constant Matrix: (Units=GPa)
#
#
# Indices 1 2 3 4 5 6 
#
# 1 50.8063 -21.6693 -1.4210 0.0000 0.0000 0.0000
# 2 -21.6693 57.1806 -29.1242 0.0000 0.0000 0.0000
# 3 -1.4210 -29.1242 102.6587 0.0000 0.0000 0.0000
# 4 0.0000 0.0000 0.0000 12.9161 0.0000 0.0000
# 5 0.0000 0.0000 0.0000 0.0000 26.6942 0.0000
# 6 0.0000 0.0000 0.0000 0.0000 0.0000 7.5429
#
#
#
# Elastic Compliance Matrix: (Units=1/GPa)
#
#
# Indices 1 2 3 4 5 6 
#
# 1 0.024493 0.011052 0.003474 0.000000 0.000000 0.000000
# 2 0.011052 0.025429 0.007367 0.000000 0.000000 0.000000
# 3 0.003474 0.007367 0.011879 0.000000 0.000000 0.000000
# 4 0.000000 0.000000 0.000000 0.077423 0.000000 0.000000
# 5 0.000000 0.000000 0.000000 0.000000 0.037461 0.000000
# 6 0.000000 0.000000 0.000000 0.000000 0.000000 0.132575
#
#
# Mechanical properties :
#
#
# Convention : Reuss Voigt Hill
#
# Bulk Modulus (GPa) = 9.47075 11.80185 10.63630
# Shear Modulus (GPa) = 16.62953 26.95464 21.79209
#
# Velocity S-wave (km/s) = 2.87302 3.65776 3.28888
# Velocity P-wave (km/s) = 3.96315 4.86794 4.43866
#
# Compressibility (1/GPa) = 0.10558827
#
# Stress axis : x y z
#
# Youngs Moduli (GPa) = 40.82727 39.32514 84.18096
#
# Poissons Ratio (x) = -0.43461 -0.29248
# Poissons Ratio (y) = -0.45121 -0.62018
# Poissons Ratio (z) = -0.14185 -0.28971
#
# Static dielectric constant tensor:
#      x y z
#    x 1.710890 0.000000 0.000000 
#    y 0.000000 1.724390 0.000000 
#    z 0.000000 0.000000 1.732790 
# 
# From -- ./inp_files/8443.got.cif
#   From: 2010.05.17/outbox.cif.g08.bks.cpg/sg20_5_cif.got.tgz:8443.got - 2010.06.03 22:52:26.
