data_PCOD9317648
_publ_section_title
;
Structure prediction by ZEFSAII (Michael W. Deem and Ramdas Pophale) SiO2 
 PCOD9317648
Probable space group: C 2 2 21
;
_chemical_formula_sum "Si O2"
_cell_formula_units_Z 56
_cell_length_a 10.552084
_cell_length_b 21.133395
_cell_length_c 13.542909
_cell_angle_alpha 90.000000
_cell_angle_beta 90.000000
_cell_angle_gamma 90.000000
_cell_volume 3020.087115
_symmetry_space_group_name_H-M "C 2 2 21"
_symmetry_group_IT_number 20
_symmetry_cell_setting 'orthorhombic'
loop_
_space_group_symop_operation_xyz
x,y,z
-x,-y,1/2+z
x,-y,-z
-x,y,1/2-z
1/2+x,1/2+y,z
1/2-x,1/2-y,1/2+z
1/2+x,1/2-y,-z
1/2-x,1/2+y,1/2-z
loop_
_atom_site_type_symbol
_atom_site_label
_atom_site_fract_x
_atom_site_fract_y
_atom_site_fract_z
Si Si1 0.864231 0.054588 0.201998
Si Si2 0.651150 0.955486 0.632203
Si Si3 0.000000 0.359971 0.750000
Si Si4 0.272776 0.500000 0.000000
Si Si5 0.127062 0.593103 0.568706
Si Si6 0.847752 0.320864 0.239661
Si Si7 0.152968 0.636740 0.956512
Si Si8 0.250650 0.688870 0.156816
O O1 0.754063 0.038562 0.281468
O O2 0.840205 0.128677 0.178243
O O3 0.000000 0.044299 0.250000
O O4 0.848216 0.016219 0.100291
O O5 0.541626 0.907910 0.664738
O O6 0.702813 0.924037 0.531018
O O7 0.592445 0.023784 0.610244
O O8 0.121056 0.320871 0.782078
O O9 0.195328 0.564442 0.978191
O O10 0.196550 0.629411 0.656477
O O11 0.000347 0.632782 0.544478
O O12 0.801170 0.338906 0.349266
O O13 0.812528 0.252717 0.196160
O O14 0.000000 0.325878 0.250000
O O15 0.208816 0.681530 0.042477
#
# Coordination Sequence:
#
# PCOD9317648 Si02
#       8
#     8   8   4   4   8   8   8   8
#     4  10  22  37  57  83 117 163 197 240 298 371
#     4  10  20  33  60  90 117 146 195 255 308 362
#     4  10  20  34  58  88 110 154 190 258 298 344
#     4  10  20  36  62  86 118 152 200 256 310 366
#     4  10  20  34  59  92 120 146 198 256 317 347
#     4  10  22  37  58  85 123 161 198 243 302 373
#     4  10  20  36  59  91 116 154 198 257 313 357
#     4  10  21  38  58  80 119 154 205 235 299 361
#
# _framework density 18.542511000000001
#
# number of rings (size 3 to 8) (size 9 to 14) (size 15 to 20)
#    0.000    2.000    1.429    2.143    7.000    3.429 
#    0.000    0.000    9.429    0.000    0.000    0.000 
#    0.000    0.000    0.000    0.000    0.000    0.000 
#
# Total GULP energy -156045.156462 kJ/mol
# GULP energy per Si atom -5573.041302 kJ/mol
# Density = 1.850031 g / cm^3
# Si number density = 18.542511 Si / 1000 Ang^3
#
#
#
# Elastic Constant Matrix: (Units=GPa)
#
#
# Indices 1 2 3 4 5 6 
#
# 1 17.1902 -15.1931 2.1664 0.0000 0.0000 0.0000
# 2 -15.1931 55.4161 36.2080 0.0000 0.0000 0.0000
# 3 2.1664 36.2080 136.8310 0.0000 0.0000 0.0000
# 4 0.0000 0.0000 0.0000 33.6342 0.0000 0.0000
# 5 0.0000 0.0000 0.0000 0.0000 17.2199 0.0000
# 6 0.0000 0.0000 0.0000 0.0000 0.0000 12.7728
#
#
#
# Elastic Compliance Matrix: (Units=1/GPa)
#
#
# Indices 1 2 3 4 5 6 
#
# 1 0.085233 0.029319 -0.009108 0.000000 0.000000 0.000000
# 2 0.029319 0.031903 -0.008906 0.000000 0.000000 0.000000
# 3 -0.009108 -0.008906 0.009809 0.000000 0.000000 0.000000
# 4 0.000000 0.000000 0.000000 0.029732 0.000000 0.000000
# 5 0.000000 0.000000 0.000000 0.000000 0.058072 0.000000
# 6 0.000000 0.000000 0.000000 0.000000 0.000000 0.078291
#
#
# Mechanical properties :
#
#
# Convention : Reuss Voigt Hill
#
# Bulk Modulus (GPa) = 6.68656 28.42221 17.55438
# Shear Modulus (GPa) = 15.61125 25.14245 20.37685
#
# Velocity S-wave (km/s) = 2.90473 3.68630 3.31860
# Velocity P-wave (km/s) = 3.85536 5.78617 4.91648
#
# Compressibility (1/GPa) = 0.14955384
#
# Stress axis : x y z
#
# Youngs Moduli (GPa) = 11.73258 31.34550 101.94490
#
# Poissons Ratio (x) = -0.91900 0.92848
# Poissons Ratio (y) = -0.34398 0.90794
# Poissons Ratio (z) = 0.10686 0.27917
#
# Static dielectric constant tensor:
#      x y z
#    x 1.618410 0.000000 0.000000 
#    y 0.000000 1.631560 0.000000 
#    z 0.000000 0.000000 1.713760 
# 
# From -- ./inp_files/14357.got.cif
#   From: 2010.05.17/outbox.cif.g08.bks.cpg/sg20_8_cif.got.tgz:14357.got - 2010.06.03 22:52:26.
