data_PCOD9317920
_publ_section_title
;
Structure prediction by ZEFSAII (Michael W. Deem and Ramdas Pophale) SiO2 
 PCOD9317920
Probable space group: C 2 2 21
;
_chemical_formula_sum "Si O2"
_cell_formula_units_Z 48
_cell_length_a 14.032451
_cell_length_b 7.098558
_cell_length_c 20.791937
_cell_angle_alpha 90.000000
_cell_angle_beta 90.000000
_cell_angle_gamma 90.000000
_cell_volume 2071.088323
_symmetry_space_group_name_H-M "C 2 2 21"
_symmetry_group_IT_number 20
_symmetry_cell_setting 'orthorhombic'
loop_
_space_group_symop_operation_xyz
x,y,z
-x,-y,1/2+z
x,-y,-z
-x,y,1/2-z
1/2+x,1/2+y,z
1/2-x,1/2-y,1/2+z
1/2+x,1/2-y,-z
1/2-x,1/2+y,1/2-z
loop_
_atom_site_type_symbol
_atom_site_label
_atom_site_fract_x
_atom_site_fract_y
_atom_site_fract_z
Si Si1 0.312476 0.165536 0.911458
Si Si2 0.495072 0.998494 0.866677
Si Si3 0.918406 0.500000 0.500000
Si Si4 0.202740 0.365891 0.171285
Si Si5 0.241284 0.236816 0.544236
Si Si6 0.500000 0.249892 0.250000
Si Si7 0.187772 0.069084 0.801006
O O1 0.415408 0.156727 0.878387
O O2 0.233892 0.200754 0.856356
O O3 0.284236 0.951482 0.935145
O O4 0.311709 0.286531 0.976339
O O5 0.518558 0.931131 0.939567
O O6 0.598310 0.051560 0.839637
O O7 0.455500 0.866627 0.809918
O O8 0.849448 0.671210 0.523957
O O9 0.271505 0.384744 0.109061
O O10 0.247993 0.428643 0.237503
O O11 0.185405 0.142932 0.175218
O O12 0.416437 0.366884 0.282023
#
# Coordination Sequence:
#
# PCOD9317920 Si02
#       7
#     8   8   4   8   8   4   8
#     4  10  20  38  61  84 119 163 198 246 306 364
#     4  11  22  39  63  89 121 161 207 252 307 364
#     4  10  20  36  62  90 118 156 202 254 304 364
#     4  10  22  41  62  90 121 161 204 252 306 365
#     4   9  19  36  59  86 117 152 196 240 298 357
#     4  12  24  38  58  90 122 158 208 256 304 370
#     4  11  23  39  61  87 122 161 204 255 311 365
#
# _framework density 23.176221000000002
#
# number of rings (size 3 to 8) (size 9 to 14) (size 15 to 20)
#    0.000    1.667    0.000    6.000    0.000    3.333 
#    0.000    1.667    0.000   10.000    0.000    0.000 
#    0.000    0.000    0.000    0.000    0.000    0.000 
#
# Total GULP energy -133949.908946 kJ/mol
# GULP energy per Si atom -5581.246206 kJ/mol
# Density = 2.312347 g / cm^3
# Si number density = 23.176221 Si / 1000 Ang^3
#
#
#
# Elastic Constant Matrix: (Units=GPa)
#
#
# Indices 1 2 3 4 5 6 
#
# 1 90.2164 -2.1609 26.3001 0.0000 0.0000 0.0000
# 2 -2.1609 44.0075 8.8344 0.0000 0.0000 0.0000
# 3 26.3001 8.8344 133.2639 0.0000 0.0000 0.0000
# 4 0.0000 0.0000 0.0000 36.6141 0.0000 0.0000
# 5 0.0000 0.0000 0.0000 0.0000 47.5568 0.0000
# 6 0.0000 0.0000 0.0000 0.0000 0.0000 17.1087
#
#
#
# Elastic Compliance Matrix: (Units=1/GPa)
#
#
# Indices 1 2 3 4 5 6 
#
# 1 0.011810 0.001062 -0.002401 0.000000 0.000000 0.000000
# 2 0.001062 0.023125 -0.001743 0.000000 0.000000 0.000000
# 3 -0.002401 -0.001743 0.008093 0.000000 0.000000 0.000000
# 4 0.000000 0.000000 0.000000 0.027312 0.000000 0.000000
# 5 0.000000 0.000000 0.000000 0.000000 0.021027 0.000000
# 6 0.000000 0.000000 0.000000 0.000000 0.000000 0.058450
#
#
# Mechanical properties :
#
#
# Convention : Reuss Voigt Hill
#
# Bulk Modulus (GPa) = 27.12607 37.04834 32.08720
# Shear Modulus (GPa) = 29.71422 35.89020 32.80221
#
# Velocity S-wave (km/s) = 3.58453 3.93947 3.76618
# Velocity P-wave (km/s) = 5.37228 6.05910 5.72600
#
# Compressibility (1/GPa) = 0.03686491
#
# Stress axis : x y z
#
# Youngs Moduli (GPa) = 84.67485 43.24259 123.55898
#
# Poissons Ratio (x) = -0.04592 0.29668
# Poissons Ratio (y) = -0.08992 0.21532
# Poissons Ratio (z) = 0.20331 0.07535
#
# Static dielectric constant tensor:
#      x y z
#    x 1.843770 0.000000 0.000000 
#    y 0.000000 2.013510 0.000000 
#    z 0.000000 0.000000 1.923480 
# 
# From -- ./inp_files/27472.got.cif
#   From: 2010.05.17/outbox.cif.g08.bks.cpg/sg20_14_cif.got.tgz:27472.got - 2010.06.03 22:52:26.
