data_PCOD9317948
_publ_section_title
;
Structure prediction by ZEFSAII (Michael W. Deem and Ramdas Pophale) SiO2 
 PCOD9317948
Probable space group: C 2 2 21
;
_chemical_formula_sum "Si O2"
_cell_formula_units_Z 60
_cell_length_a 11.991776
_cell_length_b 26.343830
_cell_length_c 8.764041
_cell_angle_alpha 90.000000
_cell_angle_beta 90.000000
_cell_angle_gamma 90.000000
_cell_volume 2768.642131
_symmetry_space_group_name_H-M "C 2 2 21"
_symmetry_group_IT_number 20
_symmetry_cell_setting 'orthorhombic'
loop_
_space_group_symop_operation_xyz
x,y,z
-x,-y,1/2+z
x,-y,-z
-x,y,1/2-z
1/2+x,1/2+y,z
1/2-x,1/2-y,1/2+z
1/2+x,1/2-y,-z
1/2-x,1/2+y,1/2-z
loop_
_atom_site_type_symbol
_atom_site_label
_atom_site_fract_x
_atom_site_fract_y
_atom_site_fract_z
Si Si1 0.133562 0.889310 0.440377
Si Si2 0.785979 0.318740 0.645232
Si Si3 0.114767 0.869131 0.092521
Si Si4 0.500000 0.796674 0.250000
Si Si5 0.321895 0.728876 0.422958
Si Si6 0.819079 0.442718 0.039863
Si Si7 0.164243 0.546898 0.891222
Si Si8 0.495517 0.130372 0.477569
O O1 0.195360 0.858498 0.575837
O O2 0.136667 0.861872 0.274053
O O3 0.204974 0.940378 0.415352
O O4 0.001464 0.895349 0.455557
O O5 0.762520 0.301721 0.816349
O O6 0.771842 0.269520 0.538382
O O7 0.913828 0.338005 0.633024
O O8 0.213978 0.905644 0.040662
O O9 0.114078 0.814155 0.016600
O O10 0.403232 0.761350 0.315237
O O11 0.459344 0.832083 0.109716
O O12 0.862056 0.453010 0.212298
O O13 0.910550 0.411712 0.939843
O O14 0.788449 0.500000 0.000000
O O15 0.099243 0.596095 0.945132
O O16 0.132795 0.500000 0.000000
#
# Coordination Sequence:
#
# PCOD9317948 Si02
#       8
#     8   8   8   4   8   8   8   8
#     4   9  20  40  62  86 119 162 208 271 328 385
#     4  10  22  37  61  89 121 162 211 263 330 389
#     4  10  22  40  61  88 124 164 214 266 328 390
#     4  10  20  36  66  86 122 172 216 254 332 392
#     4  11  22  37  62  93 125 168 214 266 324 403
#     4  11  23  39  63  88 127 172 209 268 329 391
#     4  10  20  37  63  89 117 158 216 267 324 390
#     4  10  20  38  61  86 122 164 213 262 318 392
#
# _framework density 21.671271000000001
#
# number of rings (size 3 to 8) (size 9 to 14) (size 15 to 20)
#    0.000    1.867    1.333    2.000    3.733    2.667 
#    0.000    2.000    0.000    0.000    0.000    0.000 
#    0.000    0.000    0.000    0.000    0.000    0.000 
#
# Total GULP energy -167361.913821 kJ/mol
# GULP energy per Si atom -5578.730461 kJ/mol
# Density = 2.162195 g / cm^3
# Si number density = 21.671271 Si / 1000 Ang^3
#
#
#
# Elastic Constant Matrix: (Units=GPa)
#
#
# Indices 1 2 3 4 5 6 
#
# 1 61.5604 -6.2179 12.8798 0.0000 0.0000 0.0000
# 2 -6.2179 64.8565 13.5693 0.0000 0.0000 0.0000
# 3 12.8798 13.5693 40.8170 0.0000 0.0000 0.0000
# 4 0.0000 0.0000 0.0000 22.3066 0.0000 0.0000
# 5 0.0000 0.0000 0.0000 0.0000 21.5641 0.0000
# 6 0.0000 0.0000 0.0000 0.0000 0.0000 16.5248
#
#
#
# Elastic Compliance Matrix: (Units=1/GPa)
#
#
# Indices 1 2 3 4 5 6 
#
# 1 0.017963 0.003125 -0.006707 0.000000 0.000000 0.000000
# 2 0.003125 0.017115 -0.006676 0.000000 0.000000 0.000000
# 3 -0.006707 -0.006676 0.028835 0.000000 0.000000 0.000000
# 4 0.000000 0.000000 0.000000 0.044830 0.000000 0.000000
# 5 0.000000 0.000000 0.000000 0.000000 0.046373 0.000000
# 6 0.000000 0.000000 0.000000 0.000000 0.000000 0.060515
#
#
# Mechanical properties :
#
#
# Convention : Reuss Voigt Hill
#
# Bulk Modulus (GPa) = 23.04253 23.07737 23.05995
# Shear Modulus (GPa) = 19.95103 21.87928 20.91515
#
# Velocity S-wave (km/s) = 3.03747 3.18086 3.10999
# Velocity P-wave (km/s) = 4.79139 4.91553 4.85386
#
# Compressibility (1/GPa) = 0.04339802
#
# Stress axis : x y z
#
# Youngs Moduli (GPa) = 55.66931 58.42815 34.67956
#
# Poissons Ratio (x) = -0.18261 0.23261
# Poissons Ratio (y) = -0.17399 0.23152
# Poissons Ratio (z) = 0.37339 0.39007
#
# Static dielectric constant tensor:
#      x y z
#    x 1.825210 0.000000 0.000000 
#    y 0.000000 1.766140 0.000000 
#    z 0.000000 0.000000 1.898110 
# 
# From -- ./inp_files/7579.got.cif
#   From: 2010.05.17/outbox.cif.g08.bks.cpg/sg20_4_cif.got.tgz:7579.got - 2010.06.03 22:52:26.
