data_PCOD9317239
_publ_section_title
;
Structure prediction by ZEFSAII (Michael W. Deem and Ramdas Pophale) SiO2 
 PCOD9317239
Probable space group: C 2 2 21
;
_chemical_formula_sum "Si O2"
_cell_formula_units_Z 40
_cell_length_a 7.052497
_cell_length_b 19.731333
_cell_length_c 11.297780
_cell_angle_alpha 90.000000
_cell_angle_beta 90.000000
_cell_angle_gamma 90.000000
_cell_volume 1572.144460
_symmetry_space_group_name_H-M "C 2 2 21"
_symmetry_group_IT_number 20
_symmetry_cell_setting 'orthorhombic'
loop_
_space_group_symop_operation_xyz
x,y,z
-x,-y,1/2+z
x,-y,-z
-x,y,1/2-z
1/2+x,1/2+y,z
1/2-x,1/2-y,1/2+z
1/2+x,1/2-y,-z
1/2-x,1/2+y,1/2-z
loop_
_atom_site_type_symbol
_atom_site_label
_atom_site_fract_x
_atom_site_fract_y
_atom_site_fract_z
Si Si1 0.350437 0.103276 0.587675
Si Si2 0.227786 0.454052 0.842963
Si Si3 0.608038 0.771017 0.359835
Si Si4 0.522116 0.320929 0.071855
Si Si5 0.168148 0.939746 0.915607
O O1 0.352510 0.094527 0.445137
O O2 0.505367 0.156679 0.626613
O O3 0.145946 0.133877 0.623842
O O4 0.359089 0.028480 0.640661
O O5 0.451580 0.459176 0.878636
O O6 0.220585 0.431834 0.707140
O O7 0.500000 0.735961 0.250000
O O8 0.575216 0.730248 0.480065
O O9 0.831093 0.781945 0.345190
O O10 0.647761 0.372026 0.991652
O O11 0.241018 0.000000 0.000000
#
# Coordination Sequence:
#
# PCOD9317239 Si02
#       5
#     8   8   8   8   8
#     4  10  21  46  66  98 136 174 227 273 342 398
#     4   9  19  38  67  96 134 177 215 287 333 400
#     4  12  28  43  69 100 133 180 228 280 331 414
#     4  11  24  46  64  98 136 176 226 274 338 401
#     4  10  19  35  67  98 129 175 225 270 340 396
#
# _framework density 25.442955999999999
#
# number of rings (size 3 to 8) (size 9 to 14) (size 15 to 20)
#    0.000    1.600    6.000    0.000    8.400    0.800 
#    3.600    3.000    0.000    0.000    0.000    0.000 
#    0.000    0.000    0.000    0.000    0.000    0.000 
#
# Total GULP energy -112124.001649 kJ/mol
# GULP energy per Si atom -5606.200082 kJ/mol
# Density = 2.538505 g / cm^3
# Si number density = 25.442956 Si / 1000 Ang^3
#
#
#
# Elastic Constant Matrix: (Units=GPa)
#
#
# Indices 1 2 3 4 5 6 
#
# 1 107.0111 5.9450 26.6161 0.0000 0.0000 0.0000
# 2 5.9450 65.7575 -7.0967 0.0000 0.0000 0.0000
# 3 26.6161 -7.0967 97.8443 0.0000 0.0000 0.0000
# 4 0.0000 0.0000 0.0000 24.6893 0.0000 0.0000
# 5 0.0000 0.0000 0.0000 0.0000 34.7718 0.0000
# 6 0.0000 0.0000 0.0000 0.0000 0.0000 28.8759
#
#
#
# Elastic Compliance Matrix: (Units=1/GPa)
#
#
# Indices 1 2 3 4 5 6 
#
# 1 0.010119 -0.001222 -0.002841 0.000000 0.000000 0.000000
# 2 -0.001222 0.015475 0.001455 0.000000 0.000000 0.000000
# 3 -0.002841 0.001455 0.011099 0.000000 0.000000 0.000000
# 4 0.000000 0.000000 0.000000 0.040503 0.000000 0.000000
# 5 0.000000 0.000000 0.000000 0.000000 0.028759 0.000000
# 6 0.000000 0.000000 0.000000 0.000000 0.000000 0.034631
#
#
# Mechanical properties :
#
#
# Convention : Reuss Voigt Hill
#
# Bulk Modulus (GPa) = 31.76961 35.72685 33.74823
# Shear Modulus (GPa) = 31.99083 34.01062 33.00073
#
# Velocity S-wave (km/s) = 3.54977 3.66011 3.60536
# Velocity P-wave (km/s) = 5.41432 5.65105 5.53395
#
# Compressibility (1/GPa) = 0.03147662
#
# Stress axis : x y z
#
# Youngs Moduli (GPa) = 98.82022 64.62113 90.10032
#
# Poissons Ratio (x) = 0.07894 0.25600
# Poissons Ratio (y) = 0.12071 -0.13107
# Poissons Ratio (z) = 0.28078 -0.09400
#
# Static dielectric constant tensor:
#      x y z
#    x 2.086660 0.000000 0.000000 
#    y 0.000000 1.912290 0.000000 
#    z 0.000000 0.000000 2.068470 
# 
# From -- ./inp_files/12727.got.cif
#   From: 2010.05.17/outbox.cif.g08.bks.cpg/sg20_7_cif.got.tgz:12727.got - 2010.06.03 22:52:26.
