data_PCOD9317394
_publ_section_title
;
Structure prediction by ZEFSAII (Michael W. Deem and Ramdas Pophale) SiO2 
 PCOD9317394
Probable space group: C 2 2 21
;
_chemical_formula_sum "Si O2"
_cell_formula_units_Z 52
_cell_length_a 18.372829
_cell_length_b 9.606425
_cell_length_c 15.270114
_cell_angle_alpha 90.000000
_cell_angle_beta 90.000000
_cell_angle_gamma 90.000000
_cell_volume 2695.132423
_symmetry_space_group_name_H-M "C 2 2 21"
_symmetry_group_IT_number 20
_symmetry_cell_setting 'orthorhombic'
loop_
_space_group_symop_operation_xyz
x,y,z
-x,-y,1/2+z
x,-y,-z
-x,y,1/2-z
1/2+x,1/2+y,z
1/2-x,1/2-y,1/2+z
1/2+x,1/2-y,-z
1/2-x,1/2+y,1/2-z
loop_
_atom_site_type_symbol
_atom_site_label
_atom_site_fract_x
_atom_site_fract_y
_atom_site_fract_z
Si Si1 0.313974 0.156622 0.485685
Si Si2 0.975929 0.133179 0.051888
Si Si3 0.119709 0.715615 0.701021
Si Si4 0.363453 0.372485 0.629024
Si Si5 0.528095 0.875847 0.930310
Si Si6 0.500000 0.991596 0.250000
Si Si7 0.265846 0.916501 0.082364
O O1 0.341247 0.235116 0.573391
O O2 0.385093 0.147229 0.424057
O O3 0.256030 0.262073 0.447249
O O4 0.287855 0.000000 0.500000
O O5 0.053358 0.095426 0.099614
O O6 0.924507 0.208198 0.122871
O O7 0.993856 0.242821 0.975746
O O8 0.945817 0.000000 0.000000
O O9 0.144171 0.832663 0.769634
O O10 0.180199 0.613202 0.661360
O O11 0.067105 0.613913 0.755210
O O12 0.307104 0.495501 0.604867
O O13 0.496006 0.918119 0.837445
O O14 0.518383 0.000000 0.000000
O O15 0.300003 0.000000 0.000000
#
# Coordination Sequence:
#
# PCOD9317394 Si02
#       7
#     8   8   8   8   8   4   8
#     4   9  18  37  64  89 123 169 216 252 314 396
#     4  11  22  41  64  91 132 171 213 265 333 387
#     4  12  23  39  66  96 129 167 216 276 325 377
#     4  10  20  42  64  90 126 178 216 258 325 400
#     4  10  19  37  64  89 123 168 215 260 320 391
#     4  12  22  38  62  98 128 168 214 272 326 384
#     4  10  24  41  64  90 130 172 212 265 328 384
#
# _framework density 19.294042000000001
#
# number of rings (size 3 to 8) (size 9 to 14) (size 15 to 20)
#    0.000    1.538    3.077    4.154    2.154    3.077 
#    5.538    1.538    0.000    0.000    0.000    0.000 
#    0.000    0.000    0.000    0.000    0.000    0.000 
#
# Total GULP energy -145112.915516 kJ/mol
# GULP energy per Si atom -5581.265981 kJ/mol
# Density = 1.925013 g / cm^3
# Si number density = 19.294042 Si / 1000 Ang^3
#
#
#
# Elastic Constant Matrix: (Units=GPa)
#
#
# Indices 1 2 3 4 5 6 
#
# 1 37.6993 7.6516 7.6556 0.0000 0.0000 0.0000
# 2 7.6516 80.2062 -7.9658 0.0000 0.0000 0.0000
# 3 7.6556 -7.9658 62.0102 0.0000 0.0000 0.0000
# 4 0.0000 0.0000 0.0000 21.6951 0.0000 0.0000
# 5 0.0000 0.0000 0.0000 0.0000 27.0497 0.0000
# 6 0.0000 0.0000 0.0000 0.0000 0.0000 19.9820
#
#
#
# Elastic Compliance Matrix: (Units=1/GPa)
#
#
# Indices 1 2 3 4 5 6 
#
# 1 0.027923 -0.003045 -0.003838 0.000000 0.000000 0.000000
# 2 -0.003045 0.012961 0.002041 0.000000 0.000000 0.000000
# 3 -0.003838 0.002041 0.016862 0.000000 0.000000 0.000000
# 4 0.000000 0.000000 0.000000 0.046093 0.000000 0.000000
# 5 0.000000 0.000000 0.000000 0.000000 0.036969 0.000000
# 6 0.000000 0.000000 0.000000 0.000000 0.000000 0.050045
#
#
# Mechanical properties :
#
#
# Convention : Reuss Voigt Hill
#
# Bulk Modulus (GPa) = 20.80672 21.62206 21.21439
# Shear Modulus (GPa) = 23.08831 25.25032 24.16932
#
# Velocity S-wave (km/s) = 3.46302 3.62154 3.54317
# Velocity P-wave (km/s) = 5.17663 5.35894 5.26857
#
# Compressibility (1/GPa) = 0.04806140
#
# Stress axis : x y z
#
# Youngs Moduli (GPa) = 35.81248 77.15426 59.30345
#
# Poissons Ratio (x) = 0.23494 0.22763
# Poissons Ratio (y) = 0.10905 -0.12103
# Poissons Ratio (z) = 0.13747 -0.15746
#
# Static dielectric constant tensor:
#      x y z
#    x 1.699600 0.000000 0.000000 
#    y 0.000000 1.685460 0.000000 
#    z 0.000000 0.000000 1.655980 
# 
# From -- ./inp_files/21714.got.cif
#   From: 2010.05.17/outbox.cif.g08.bks.cpg/sg20_11_cif.got.tgz:21714.got - 2010.06.03 22:52:26.
