data_PCOD9317250
_publ_section_title
;
Structure prediction by ZEFSAII (Michael W. Deem and Ramdas Pophale) SiO2 
 PCOD9317250
Probable space group: C 2 2 21
;
_chemical_formula_sum "Si O2"
_cell_formula_units_Z 52
_cell_length_a 9.411643
_cell_length_b 21.807651
_cell_length_c 14.181446
_cell_angle_alpha 90.000000
_cell_angle_beta 90.000000
_cell_angle_gamma 90.000000
_cell_volume 2910.682596
_symmetry_space_group_name_H-M "C 2 2 21"
_symmetry_group_IT_number 20
_symmetry_cell_setting 'orthorhombic'
loop_
_space_group_symop_operation_xyz
x,y,z
-x,-y,1/2+z
x,-y,-z
-x,y,1/2-z
1/2+x,1/2+y,z
1/2-x,1/2-y,1/2+z
1/2+x,1/2-y,-z
1/2-x,1/2+y,1/2-z
loop_
_atom_site_type_symbol
_atom_site_label
_atom_site_fract_x
_atom_site_fract_y
_atom_site_fract_z
Si Si1 0.570150 0.302311 0.655057
Si Si2 0.062735 0.311606 0.485175
Si Si3 0.859310 0.126318 0.466505
Si Si4 0.085453 0.582777 0.655604
Si Si5 0.115521 0.148739 0.824852
Si Si6 0.290576 0.000000 0.000000
Si Si7 0.385401 0.794484 0.672575
O O1 0.500000 0.276090 0.750000
O O2 0.578018 0.250236 0.574785
O O3 0.464277 0.353863 0.615532
O O4 0.729817 0.323873 0.677044
O O5 0.216116 0.331932 0.527498
O O6 0.017856 0.364996 0.412116
O O7 0.953815 0.303425 0.570068
O O8 0.933366 0.137886 0.567746
O O9 0.804517 0.056827 0.465068
O O10 0.237213 0.612549 0.683792
O O11 0.117059 0.525753 0.586890
O O12 0.000000 0.569484 0.750000
O O13 0.138485 0.221492 0.811170
O O14 0.000000 0.127872 0.750000
O O15 0.500000 0.815753 0.750000
#
# Coordination Sequence:
#
# PCOD9317250 Si02
#       7
#     8   8   8   8   8   4   8
#     4  12  21  33  53  85 118 154 186 234 296 360
#     4  10  19  36  54  85 121 150 189 236 297 356
#     4  10  20  39  58  81 113 157 195 244 288 346
#     4  10  20  38  62  89 111 156 200 246 291 343
#     4   9  18  32  54  83 116 149 187 232 286 342
#     4   8  20  42  64  78 114 156 200 250 292 330
#     4  11  21  33  52  85 124 158 184 229 292 355
#
# _framework density 17.865224999999999
#
# number of rings (size 3 to 8) (size 9 to 14) (size 15 to 20)
#    0.000    2.154    4.615    1.385    0.000    1.231 
#    0.000    9.231    0.000    7.385    0.000    0.000 
#    0.000    0.000    0.000    0.000    0.000    0.000 
#
# Total GULP energy -145009.138468 kJ/mol
# GULP energy per Si atom -5577.274556 kJ/mol
# Density = 1.782456 g / cm^3
# Si number density = 17.865225 Si / 1000 Ang^3
#
#
#
# Elastic Constant Matrix: (Units=GPa)
#
#
# Indices 1 2 3 4 5 6 
#
# 1 106.2198 34.8856 73.8957 0.0000 0.0000 0.0000
# 2 34.8856 67.3021 28.4318 0.0000 0.0000 0.0000
# 3 73.8957 28.4318 94.1578 0.0000 0.0000 0.0000
# 4 0.0000 0.0000 0.0000 21.1907 0.0000 0.0000
# 5 0.0000 0.0000 0.0000 0.0000 45.6158 0.0000
# 6 0.0000 0.0000 0.0000 0.0000 0.0000 11.8196
#
#
#
# Elastic Compliance Matrix: (Units=1/GPa)
#
#
# Indices 1 2 3 4 5 6 
#
# 1 0.021962 -0.004702 -0.015816 0.000000 0.000000 0.000000
# 2 -0.004702 0.018038 -0.001756 0.000000 0.000000 0.000000
# 3 -0.015816 -0.001756 0.023563 0.000000 0.000000 0.000000
# 4 0.000000 0.000000 0.000000 0.047191 0.000000 0.000000
# 5 0.000000 0.000000 0.000000 0.000000 0.021922 0.000000
# 6 0.000000 0.000000 0.000000 0.000000 0.000000 0.084605
#
#
# Mechanical properties :
#
#
# Convention : Reuss Voigt Hill
#
# Bulk Modulus (GPa) = 52.59324 60.23397 56.41360
# Shear Modulus (GPa) = 18.64514 24.42300 21.53407
#
# Velocity S-wave (km/s) = 3.23407 3.70140 3.47560
# Velocity P-wave (km/s) = 6.59154 7.21499 6.91030
#
# Compressibility (1/GPa) = 0.01901385
#
# Stress axis : x y z
#
# Youngs Moduli (GPa) = 45.53411 55.43944 42.43933
#
# Poissons Ratio (x) = 0.26069 0.67121
# Poissons Ratio (y) = 0.21411 0.07453
# Poissons Ratio (z) = 0.72015 0.09737
#
# Static dielectric constant tensor:
#      x y z
#    x 1.622890 0.000000 0.000000 
#    y 0.000000 1.609130 0.000000 
#    z 0.000000 0.000000 1.627900 
# 
# From -- ./inp_files/19120.got.cif
#   From: 2010.05.17/outbox.cif.g08.bks.cpg/sg20_10_cif.got.tgz:19120.got - 2010.06.03 22:52:26.
