data_PCOD9317364
_publ_section_title
;
Structure prediction by ZEFSAII (Michael W. Deem and Ramdas Pophale) SiO2 
 PCOD9317364
Probable space group: C 2 2 21
;
_chemical_formula_sum "Si O2"
_cell_formula_units_Z 52
_cell_length_a 14.467709
_cell_length_b 14.041368
_cell_length_c 12.941270
_cell_angle_alpha 90.000000
_cell_angle_beta 90.000000
_cell_angle_gamma 90.000000
_cell_volume 2628.972751
_symmetry_space_group_name_H-M "C 2 2 21"
_symmetry_group_IT_number 20
_symmetry_cell_setting 'orthorhombic'
loop_
_space_group_symop_operation_xyz
x,y,z
-x,-y,1/2+z
x,-y,-z
-x,y,1/2-z
1/2+x,1/2+y,z
1/2-x,1/2-y,1/2+z
1/2+x,1/2-y,-z
1/2-x,1/2+y,1/2-z
loop_
_atom_site_type_symbol
_atom_site_label
_atom_site_fract_x
_atom_site_fract_y
_atom_site_fract_z
Si Si1 0.183950 0.014995 0.748154
Si Si2 0.733800 0.164017 0.912380
Si Si3 0.000000 0.128192 0.750000
Si Si4 0.904328 0.687092 0.768720
Si Si5 0.257515 0.677717 0.147243
Si Si6 0.381263 0.211359 0.175165
Si Si7 0.369646 0.000161 0.122590
O O1 0.189740 0.908266 0.705144
O O2 0.264806 0.015031 0.834116
O O3 0.215471 0.080582 0.651425
O O4 0.085864 0.060189 0.781745
O O5 0.642739 0.177638 0.843780
O O6 0.797694 0.257599 0.899490
O O7 0.726835 0.147006 0.033452
O O8 0.957420 0.205561 0.830624
O O9 0.831200 0.737758 0.843834
O O10 0.923366 0.586166 0.823544
O O11 0.000000 0.740179 0.750000
O O12 0.168199 0.710787 0.212475
O O13 0.408606 0.103232 0.155783
O O14 0.371246 0.000000 0.000000
#
# Coordination Sequence:
#
# PCOD9317364 Si02
#       7
#     8   8   4   8   8   8   8
#     4   9  20  36  61  85 117 154 199 254 300 364
#     4   9  18  38  58  80 118 159 195 238 310 370
#     4  10  20  38  56  86 124 142 194 264 298 342
#     4  10  22  37  57  91 125 150 204 267 292 350
#     4  10  19  37  61  81 117 166 196 235 316 378
#     4   9  20  35  58  82 113 158 193 243 303 367
#     4  10  20  39  61  81 116 165 201 237 308 380
#
# _framework density 19.779588
#
# number of rings (size 3 to 8) (size 9 to 14) (size 15 to 20)
#    0.000    2.462    0.000    2.308    2.154    0.000 
#    8.308    3.077    0.000    0.000    0.000    0.000 
#    0.000    0.000    0.000    0.000    0.000    0.000 
#
# Total GULP energy -144794.848324 kJ/mol
# GULP energy per Si atom -5569.032628 kJ/mol
# Density = 1.973457 g / cm^3
# Si number density = 19.779588 Si / 1000 Ang^3
#
#
#
# Elastic Constant Matrix: (Units=GPa)
#
#
# Indices 1 2 3 4 5 6 
#
# 1 65.8505 12.9130 34.2590 0.0000 0.0000 0.0000
# 2 12.9130 81.4559 6.0396 0.0000 0.0000 0.0000
# 3 34.2590 6.0396 105.8828 0.0000 0.0000 0.0000
# 4 0.0000 0.0000 0.0000 8.4437 0.0000 0.0000
# 5 0.0000 0.0000 0.0000 0.0000 -3.9399 0.0000
# 6 0.0000 0.0000 0.0000 0.0000 0.0000 26.5641
#
#
#
# Elastic Compliance Matrix: (Units=1/GPa)
#
#
# Indices 1 2 3 4 5 6 
#
# 1 0.018767 -0.002536 -0.005928 0.000000 0.000000 0.000000
# 2 -0.002536 0.012671 0.000098 0.000000 0.000000 0.000000
# 3 -0.005928 0.000098 0.011357 0.000000 0.000000 0.000000
# 4 0.000000 0.000000 0.000000 0.118432 0.000000 0.000000
# 5 0.000000 0.000000 0.000000 0.000000 -0.253811 0.000000
# 6 0.000000 0.000000 0.000000 0.000000 0.000000 0.037645
#
#
# Mechanical properties :
#
#
# Convention : Reuss Voigt Hill
#
# Bulk Modulus (GPa) = 38.36708 39.95694 39.16201
# Shear Modulus (GPa) = -169.37385 19.54540 -74.91422
#
# Velocity S-wave (km/s) = -9.26372 3.14691 -6.16090
# Velocity P-wave (km/s) = 9.74590 5.78351 5.54678
#
# Compressibility (1/GPa) = 0.02606401
#
# Stress axis : x y z
#
# Youngs Moduli (GPa) = 53.28512 78.91846 88.05354
#
# Poissons Ratio (x) = 0.20010 0.52194
# Poissons Ratio (y) = 0.13511 -0.00860
# Poissons Ratio (z) = 0.31585 -0.00770
#
# Static dielectric constant tensor:
#      x y z
#    x 1.726360 0.000000 0.000000 
#    y 0.000000 1.747970 0.000000 
#    z 0.000000 0.000000 1.674380 
# 
# From -- ./inp_files/15115.got.cif
#   From: 2010.05.17/outbox.cif.g08.bks.cpg/sg20_8_cif.got.tgz:15115.got - 2010.06.03 22:52:26.
