data_PCOD9317511
_publ_section_title
;
Structure prediction by ZEFSAII (Michael W. Deem and Ramdas Pophale) SiO2 
 PCOD9317511
Probable space group: C 2 2 21
;
_chemical_formula_sum "Si O2"
_cell_formula_units_Z 44
_cell_length_a 14.004887
_cell_length_b 11.921171
_cell_length_c 12.287120
_cell_angle_alpha 90.000000
_cell_angle_beta 90.000000
_cell_angle_gamma 90.000000
_cell_volume 2051.391853
_symmetry_space_group_name_H-M "C 2 2 21"
_symmetry_group_IT_number 20
_symmetry_cell_setting 'orthorhombic'
loop_
_space_group_symop_operation_xyz
x,y,z
-x,-y,1/2+z
x,-y,-z
-x,y,1/2-z
1/2+x,1/2+y,z
1/2-x,1/2-y,1/2+z
1/2+x,1/2-y,-z
1/2-x,1/2+y,1/2-z
loop_
_atom_site_type_symbol
_atom_site_label
_atom_site_fract_x
_atom_site_fract_y
_atom_site_fract_z
Si Si1 0.403706 0.500000 0.500000
Si Si2 0.236244 0.789956 0.983635
Si Si3 0.570942 0.185282 0.579850
Si Si4 0.550535 0.581350 0.352829
Si Si5 0.628550 0.869321 0.173100
Si Si6 0.758001 0.567767 0.386726
O O1 0.338333 0.609144 0.490321
O O2 0.476480 0.492462 0.398307
O O3 0.343109 0.842050 0.996630
O O4 0.226434 0.697081 0.081098
O O5 0.207665 0.715402 0.877959
O O6 0.558745 0.318563 0.561018
O O7 0.463537 0.137834 0.591767
O O8 0.609410 0.164007 0.702561
O O9 0.500000 0.634634 0.250000
O O10 0.657665 0.549017 0.326474
O O11 0.661270 0.998553 0.173656
O O12 0.746412 0.500000 0.500000
#
# Coordination Sequence:
#
# PCOD9317511 Si02
#       6
#     4   8   8   8   8   8
#     4  12  22  38  58  92 122 148 196 256 294 356
#     4  10  22  37  60  90 118 155 201 250 297 351
#     4  10  20  39  62  87 115 167 202 238 310 361
#     4  11  20  36  60  84 118 159 198 242 304 363
#     4  10  19  40  64  83 119 162 204 244 297 367
#     4   9  20  37  59  82 113 157 198 243 294 356
#
# _framework density 21.448851000000001
#
# number of rings (size 3 to 8) (size 9 to 14) (size 15 to 20)
#    0.000    1.818    4.545    0.000    2.545    0.000 
#    4.909    0.000    4.000    0.000    0.000    0.000 
#    0.000    0.000    0.000    0.000    0.000    0.000 
#
# Total GULP energy -122495.852540 kJ/mol
# GULP energy per Si atom -5567.993297 kJ/mol
# Density = 2.140003 g / cm^3
# Si number density = 21.448851 Si / 1000 Ang^3
#
#
#
# Elastic Constant Matrix: (Units=GPa)
#
#
# Indices 1 2 3 4 5 6 
#
# 1 108.5129 14.2531 12.1632 0.0000 0.0000 0.0000
# 2 14.2531 80.3789 -4.3445 0.0000 0.0000 0.0000
# 3 12.1632 -4.3445 28.2461 0.0000 0.0000 0.0000
# 4 0.0000 0.0000 0.0000 6.9859 0.0000 0.0000
# 5 0.0000 0.0000 0.0000 0.0000 33.7714 0.0000
# 6 0.0000 0.0000 0.0000 0.0000 0.0000 6.3545
#
#
#
# Elastic Compliance Matrix: (Units=1/GPa)
#
#
# Indices 1 2 3 4 5 6 
#
# 1 0.009999 -0.002023 -0.004617 0.000000 0.000000 0.000000
# 2 -0.002023 0.012954 0.002863 0.000000 0.000000 0.000000
# 3 -0.004617 0.002863 0.037832 0.000000 0.000000 0.000000
# 4 0.000000 0.000000 0.000000 0.143144 0.000000 0.000000
# 5 0.000000 0.000000 0.000000 0.000000 0.029611 0.000000
# 6 0.000000 0.000000 0.000000 0.000000 0.000000 0.157368
#
#
# Mechanical properties :
#
#
# Convention : Reuss Voigt Hill
#
# Bulk Modulus (GPa) = 18.78525 29.03126 23.90826
# Shear Modulus (GPa) = 12.01334 22.42679 17.22007
#
# Velocity S-wave (km/s) = 2.36919 3.23707 2.83652
# Velocity P-wave (km/s) = 4.03253 5.24748 4.67960
#
# Compressibility (1/GPa) = 0.05323325
#
# Stress axis : x y z
#
# Youngs Moduli (GPa) = 100.01366 77.19333 26.43296
#
# Poissons Ratio (x) = 0.15613 0.12203
# Poissons Ratio (y) = 0.20228 -0.07569
# Poissons Ratio (z) = 0.46173 -0.22104
#
# Static dielectric constant tensor:
#      x y z
#    x 1.898290 0.000000 0.000000 
#    y 0.000000 1.805130 0.000000 
#    z 0.000000 0.000000 1.873590 
# 
# From -- ./inp_files/20581.got.cif
#   From: 2010.05.17/outbox.cif.g08.bks.cpg/sg20_11_cif.got.tgz:20581.got - 2010.06.03 22:52:26.
