data_PCOD9317491
_publ_section_title
;
Structure prediction by ZEFSAII (Michael W. Deem and Ramdas Pophale) SiO2 
 PCOD9317491
Probable space group: C 2 2 21
;
_chemical_formula_sum "Si O2"
_cell_formula_units_Z 52
_cell_length_a 9.202048
_cell_length_b 15.436648
_cell_length_c 16.512784
_cell_angle_alpha 90.000000
_cell_angle_beta 90.000000
_cell_angle_gamma 90.000000
_cell_volume 2345.620753
_symmetry_space_group_name_H-M "C 2 2 21"
_symmetry_group_IT_number 20
_symmetry_cell_setting 'orthorhombic'
loop_
_space_group_symop_operation_xyz
x,y,z
-x,-y,1/2+z
x,-y,-z
-x,y,1/2-z
1/2+x,1/2+y,z
1/2-x,1/2-y,1/2+z
1/2+x,1/2-y,-z
1/2-x,1/2+y,1/2-z
loop_
_atom_site_type_symbol
_atom_site_label
_atom_site_fract_x
_atom_site_fract_y
_atom_site_fract_z
Si Si1 0.166402 0.000000 0.500000
Si Si2 0.233841 0.220363 0.833049
Si Si3 0.115659 0.577609 0.443572
Si Si4 0.345943 0.080012 0.350296
Si Si5 0.019204 0.700844 0.930391
Si Si6 0.343955 0.098688 0.705331
Si Si7 0.098708 0.874523 0.013353
O O1 0.263378 0.051596 0.433637
O O2 0.050658 0.074315 0.527772
O O3 0.179866 0.319539 0.828936
O O4 0.398459 0.227208 0.865344
O O5 0.240028 0.167010 0.749772
O O6 0.159760 0.157571 0.899934
O O7 0.063941 0.500000 0.500000
O O8 0.288565 0.574686 0.453577
O O9 0.020667 0.571086 0.363355
O O10 0.061255 0.661205 0.491955
O O11 0.294649 0.001147 0.293324
O O12 0.124594 0.633161 0.885579
O O13 0.089523 0.786385 0.963079
O O14 0.500000 0.100096 0.750000
#
# Coordination Sequence:
#
# PCOD9317491 Si02
#       7
#     4   8   8   8   8   8   8
#     4  12  24  40  70 102 130 164 222 282 330 386
#     4  10  23  42  63  96 134 170 217 267 335 394
#     4  11  20  36  65  98 124 162 219 275 321 380
#     4  12  22  42  69  95 127 174 225 272 329 398
#     4  10  19  39  65  91 128 171 211 270 325 388
#     4  10  23  43  63  91 133 178 216 264 332 403
#     4  11  23  39  65 102 134 165 218 278 329 385
#
# _framework density 22.168973000000001
#
# number of rings (size 3 to 8) (size 9 to 14) (size 15 to 20)
#    0.000    1.231    6.154    0.000    0.000    0.000 
#    5.538    0.769    0.000    0.000    0.000    0.000 
#    0.000    0.000    0.000    0.000    0.000    0.000 
#
# Total GULP energy -144904.701629 kJ/mol
# GULP energy per Si atom -5573.257755 kJ/mol
# Density = 2.211852 g / cm^3
# Si number density = 22.168973 Si / 1000 Ang^3
#
#
#
# Elastic Constant Matrix: (Units=GPa)
#
#
# Indices 1 2 3 4 5 6 
#
# 1 53.7238 2.3923 -2.7673 0.0000 0.0000 0.0000
# 2 2.3923 81.9327 -1.7795 0.0000 0.0000 0.0000
# 3 -2.7673 -1.7795 39.0733 0.0000 0.0000 0.0000
# 4 0.0000 0.0000 0.0000 37.1926 0.0000 0.0000
# 5 0.0000 0.0000 0.0000 0.0000 16.4427 0.0000
# 6 0.0000 0.0000 0.0000 0.0000 0.0000 38.7432
#
#
#
# Elastic Compliance Matrix: (Units=1/GPa)
#
#
# Indices 1 2 3 4 5 6 
#
# 1 0.018704 -0.000518 0.001301 0.000000 0.000000 0.000000
# 2 -0.000518 0.012232 0.000520 0.000000 0.000000 0.000000
# 3 0.001301 0.000520 0.025709 0.000000 0.000000 0.000000
# 4 0.000000 0.000000 0.000000 0.026887 0.000000 0.000000
# 5 0.000000 0.000000 0.000000 0.000000 0.060817 0.000000
# 6 0.000000 0.000000 0.000000 0.000000 0.000000 0.025811
#
#
# Mechanical properties :
#
#
# Convention : Reuss Voigt Hill
#
# Bulk Modulus (GPa) = 16.87725 18.93565 17.90645
# Shear Modulus (GPa) = 26.69475 30.26798 28.48137
#
# Velocity S-wave (km/s) = 3.47385 3.69905 3.58822
# Velocity P-wave (km/s) = 4.87029 5.17726 5.02612
#
# Compressibility (1/GPa) = 0.05925136
#
# Stress axis : x y z
#
# Youngs Moduli (GPa) = 53.46505 81.75566 38.89719
#
# Poissons Ratio (x) = 0.04234 -0.05061
# Poissons Ratio (y) = 0.02769 -0.02024
# Poissons Ratio (z) = -0.06956 -0.04254
#
# Static dielectric constant tensor:
#      x y z
#    x 1.849730 0.000000 0.000000 
#    y 0.000000 1.603560 0.000000 
#    z 0.000000 0.000000 1.855670 
# 
# From -- ./inp_files/26637.got.cif
#   From: 2010.05.17/outbox.cif.g08.bks.cpg/sg20_14_cif.got.tgz:26637.got - 2010.06.03 22:52:26.
