data_PCOD9317801
_publ_section_title
;
Structure prediction by ZEFSAII (Michael W. Deem and Ramdas Pophale) SiO2 
 PCOD9317801
Probable space group: C 2 2 21
;
_chemical_formula_sum "Si O2"
_cell_formula_units_Z 48
_cell_length_a 5.391971
_cell_length_b 23.732768
_cell_length_c 17.661132
_cell_angle_alpha 90.000000
_cell_angle_beta 90.000000
_cell_angle_gamma 90.000000
_cell_volume 2260.031426
_symmetry_space_group_name_H-M "C 2 2 21"
_symmetry_group_IT_number 20
_symmetry_cell_setting 'orthorhombic'
loop_
_space_group_symop_operation_xyz
x,y,z
-x,-y,1/2+z
x,-y,-z
-x,y,1/2-z
1/2+x,1/2+y,z
1/2-x,1/2-y,1/2+z
1/2+x,1/2-y,-z
1/2-x,1/2+y,1/2-z
loop_
_atom_site_type_symbol
_atom_site_label
_atom_site_fract_x
_atom_site_fract_y
_atom_site_fract_z
Si Si1 0.598901 0.606274 0.836753
Si Si2 0.249079 0.489594 0.699606
Si Si3 0.009701 0.710502 0.081979
Si Si4 0.705083 0.677112 0.551374
Si Si5 0.750426 0.363492 0.801426
Si Si6 0.404575 0.221219 0.832070
O O1 0.500000 0.603049 0.750000
O O2 0.724853 0.545852 0.850629
O O3 0.414320 0.624444 0.904805
O O4 0.771350 0.660704 0.831651
O O5 0.500000 0.488117 0.750000
O O6 0.243122 0.427169 0.664813
O O7 0.000000 0.496253 0.750000
O O8 0.214425 0.731680 0.141340
O O9 0.976110 0.769658 0.034847
O O10 0.792494 0.680334 0.129752
O O11 0.130870 0.667047 0.022493
O O12 0.869328 0.708258 0.613873
O O13 0.500000 0.358484 0.750000
O O14 0.000000 0.359335 0.750000
O O15 0.500000 0.234856 0.750000
#
# Coordination Sequence:
#
# PCOD9317801 Si02
#       6
#     8   8   8   8   8   8
#     4  10  20  35  64  98 126 169 222 285 328 400
#     4   9  19  38  65 100 130 164 220 288 344 383
#     4  11  25  39  61  94 140 182 224 279 346 420
#     4  11  23  39  57  96 133 182 218 270 353 404
#     4  10  24  42  67 102 130 178 233 284 339 405
#     4  11  22  37  60  93 132 173 230 274 333 400
#
# _framework density 21.238644000000001
#
# number of rings (size 3 to 8) (size 9 to 14) (size 15 to 20)
#    0.000    1.667    3.333    0.500    7.000    0.000 
#    0.000    0.000    0.000    1.000   13.000    0.000 
#    0.000    0.000    0.000    0.000    0.000    0.000 
#
# Total GULP energy -133761.687391 kJ/mol
# GULP energy per Si atom -5573.403641 kJ/mol
# Density = 2.119030 g / cm^3
# Si number density = 21.238644 Si / 1000 Ang^3
#
#
#
# Elastic Constant Matrix: (Units=GPa)
#
#
# Indices 1 2 3 4 5 6 
#
# 1 77.3372 26.6392 23.4367 0.0000 0.0000 0.0000
# 2 26.6392 147.0147 36.3088 0.0000 0.0000 0.0000
# 3 23.4367 36.3088 80.0552 0.0000 0.0000 0.0000
# 4 0.0000 0.0000 0.0000 11.6927 0.0000 0.0000
# 5 0.0000 0.0000 0.0000 0.0000 41.9399 0.0000
# 6 0.0000 0.0000 0.0000 0.0000 0.0000 31.7441
#
#
#
# Elastic Compliance Matrix: (Units=1/GPa)
#
#
# Indices 1 2 3 4 5 6 
#
# 1 0.014596 -0.001790 -0.003461 0.000000 0.000000 0.000000
# 2 -0.001790 0.007880 -0.003050 0.000000 0.000000 0.000000
# 3 -0.003461 -0.003050 0.014888 0.000000 0.000000 0.000000
# 4 0.000000 0.000000 0.000000 0.085524 0.000000 0.000000
# 5 0.000000 0.000000 0.000000 0.000000 0.023844 0.000000
# 6 0.000000 0.000000 0.000000 0.000000 0.000000 0.031502
#
#
# Mechanical properties :
#
#
# Convention : Reuss Voigt Hill
#
# Bulk Modulus (GPa) = 48.16606 53.01961 50.59283
# Shear Modulus (GPa) = 24.78256 31.61018 28.19637
#
# Velocity S-wave (km/s) = 3.41964 3.86208 3.64757
# Velocity P-wave (km/s) = 6.19029 6.70115 6.45078
#
# Compressibility (1/GPa) = 0.02076151
#
# Stress axis : x y z
#
# Youngs Moduli (GPa) = 68.51268 126.91017 67.16882
#
# Poissons Ratio (x) = 0.22716 0.23248
# Poissons Ratio (y) = 0.12263 0.20485
# Poissons Ratio (z) = 0.23714 0.38704
#
# Static dielectric constant tensor:
#      x y z
#    x 1.940820 0.000000 0.000000 
#    y 0.000000 1.848730 0.000000 
#    z 0.000000 0.000000 1.860300 
# 
# From -- ./inp_files/22857.got.cif
#   From: 2010.05.17/outbox.cif.g08.bks.cpg/sg20_12_cif.got.tgz:22857.got - 2010.06.03 22:52:26.
