data_PCOD9317128
_publ_section_title
;
Structure prediction by ZEFSAII (Michael W. Deem and Ramdas Pophale) SiO2 
 PCOD9317128
Probable space group: C 2 2 21
;
_chemical_formula_sum "Si O2"
_cell_formula_units_Z 56
_cell_length_a 11.378664
_cell_length_b 10.806643
_cell_length_c 20.968050
_cell_angle_alpha 90.000000
_cell_angle_beta 90.000000
_cell_angle_gamma 90.000000
_cell_volume 2578.339616
_symmetry_space_group_name_H-M "C 2 2 21"
_symmetry_group_IT_number 20
_symmetry_cell_setting 'orthorhombic'
loop_
_space_group_symop_operation_xyz
x,y,z
-x,-y,1/2+z
x,-y,-z
-x,y,1/2-z
1/2+x,1/2+y,z
1/2-x,1/2-y,1/2+z
1/2+x,1/2-y,-z
1/2-x,1/2+y,1/2-z
loop_
_atom_site_type_symbol
_atom_site_label
_atom_site_fract_x
_atom_site_fract_y
_atom_site_fract_z
Si Si1 0.216482 0.777947 0.375724
Si Si2 0.509459 0.559223 0.568159
Si Si3 0.752680 0.482989 0.931169
Si Si4 0.927147 0.108771 0.185970
Si Si5 0.332011 0.997696 0.311164
Si Si6 0.842014 0.373705 0.180298
Si Si7 0.622153 0.750666 0.766788
O O1 0.269084 0.660629 0.412987
O O2 0.306841 0.894374 0.365245
O O3 0.184588 0.734874 0.302753
O O4 0.098301 0.829501 0.411283
O O5 0.546802 0.500000 0.500000
O O6 0.367063 0.566031 0.564323
O O7 0.525025 0.464892 0.626434
O O8 0.839615 0.532060 0.876952
O O9 0.809388 0.500000 0.000000
O O10 0.914881 0.251571 0.167236
O O11 0.000000 0.100474 0.250000
O O12 0.798274 0.053946 0.200086
O O13 0.373760 0.928482 0.248276
O O14 0.404810 0.125694 0.308344
O O15 0.707541 0.331270 0.191403
O O16 0.500000 0.687342 0.750000
#
# Coordination Sequence:
#
# PCOD9317128 Si02
#       7
#     8   8   8   8   8   8   8
#     4  10  21  39  61  86 124 159 200 262 298 375
#     4  10  23  40  62  89 118 163 215 246 312 380
#     4  11  23  40  62  85 120 166 206 253 305 373
#     4  10  21  35  61  87 118 158 198 260 298 371
#     4   9  19  35  54  86 117 149 192 244 310 358
#     4  10  20  35  56  89 117 152 201 242 313 363
#     4  10  19  34  59  87 121 154 191 254 311 367
#
# _framework density 21.719403
#
# number of rings (size 3 to 8) (size 9 to 14) (size 15 to 20)
#    0.000    2.000    1.429    1.714    6.000    4.571 
#    0.000    0.000    0.000    0.000    0.000    0.000 
#    0.000    0.000    0.000    0.000    0.000    0.000 
#
# Total GULP energy -156152.576172 kJ/mol
# GULP energy per Si atom -5576.877720 kJ/mol
# Density = 2.166997 g / cm^3
# Si number density = 21.719403 Si / 1000 Ang^3
#
#
#
# Elastic Constant Matrix: (Units=GPa)
#
#
# Indices 1 2 3 4 5 6 
#
# 1 45.0323 8.6624 4.3811 0.0000 0.0000 0.0000
# 2 8.6624 93.9042 21.9247 0.0000 0.0000 0.0000
# 3 4.3811 21.9247 99.6750 0.0000 0.0000 0.0000
# 4 0.0000 0.0000 0.0000 26.4348 0.0000 0.0000
# 5 0.0000 0.0000 0.0000 0.0000 6.2621 0.0000
# 6 0.0000 0.0000 0.0000 0.0000 0.0000 15.5883
#
#
#
# Elastic Compliance Matrix: (Units=1/GPa)
#
#
# Indices 1 2 3 4 5 6 
#
# 1 0.022638 -0.001956 -0.000565 0.000000 0.000000 0.000000
# 2 -0.001956 0.011395 -0.002420 0.000000 0.000000 0.000000
# 3 -0.000565 -0.002420 0.010590 0.000000 0.000000 0.000000
# 4 0.000000 0.000000 0.000000 0.037829 0.000000 0.000000
# 5 0.000000 0.000000 0.000000 0.000000 0.159691 0.000000
# 6 0.000000 0.000000 0.000000 0.000000 0.000000 0.064151
#
#
# Mechanical properties :
#
#
# Convention : Reuss Voigt Hill
#
# Bulk Modulus (GPa) = 28.78600 34.28309 31.53455
# Shear Modulus (GPa) = 15.25529 23.23327 19.24428
#
# Velocity S-wave (km/s) = 2.65312 3.27418 2.97987
# Velocity P-wave (km/s) = 4.76107 5.48748 5.13713
#
# Compressibility (1/GPa) = 0.03473911
#
# Stress axis : x y z
#
# Youngs Moduli (GPa) = 44.17442 87.75980 94.43031
#
# Poissons Ratio (x) = 0.17169 0.05332
# Poissons Ratio (y) = 0.08642 0.22856
# Poissons Ratio (z) = 0.02494 0.21241
#
# Static dielectric constant tensor:
#      x y z
#    x 1.900600 0.000000 0.000000 
#    y 0.000000 1.856560 0.000000 
#    z 0.000000 0.000000 1.760950 
# 
# From -- ./inp_files/27182.got.cif
#   From: 2010.05.17/outbox.cif.g08.bks.cpg/sg20_14_cif.got.tgz:27182.got - 2010.06.03 22:52:26.
