data_PCOD9317348
_publ_section_title
;
Structure prediction by ZEFSAII (Michael W. Deem and Ramdas Pophale) SiO2 
 PCOD9317348
Probable space group: C 2 2 21
;
_chemical_formula_sum "Si O2"
_cell_formula_units_Z 56
_cell_length_a 19.329370
_cell_length_b 14.972351
_cell_length_c 9.659322
_cell_angle_alpha 90.000000
_cell_angle_beta 90.000000
_cell_angle_gamma 90.000000
_cell_volume 2795.466827
_symmetry_space_group_name_H-M "C 2 2 21"
_symmetry_group_IT_number 20
_symmetry_cell_setting 'orthorhombic'
loop_
_space_group_symop_operation_xyz
x,y,z
-x,-y,1/2+z
x,-y,-z
-x,y,1/2-z
1/2+x,1/2+y,z
1/2-x,1/2-y,1/2+z
1/2+x,1/2-y,-z
1/2-x,1/2+y,1/2-z
loop_
_atom_site_type_symbol
_atom_site_label
_atom_site_fract_x
_atom_site_fract_y
_atom_site_fract_z
Si Si1 0.757133 0.552292 0.865377
Si Si2 0.750373 0.934927 0.873697
Si Si3 0.666015 0.298348 0.785732
Si Si4 0.496819 0.092208 0.083504
Si Si5 0.185806 0.198890 0.702153
Si Si6 0.630334 0.198463 0.541218
Si Si7 0.632372 0.203918 0.053484
O O1 0.790670 0.486834 0.749972
O O2 0.700708 0.603922 0.771900
O O3 0.811186 0.623500 0.928573
O O4 0.730316 0.500000 0.000000
O O5 0.813763 0.891373 0.786721
O O6 0.699424 0.861282 0.941486
O O7 0.769828 0.000000 0.000000
O O8 0.740615 0.248855 0.783184
O O9 0.614436 0.242167 0.688992
O O10 0.641661 0.282562 0.941387
O O11 0.500000 0.079107 0.250000
O O12 0.565774 0.143450 0.034699
O O13 0.431701 0.151890 0.037765
O O14 0.491630 0.000000 0.000000
O O15 0.161522 0.219494 0.548069
O O16 0.131352 0.249379 0.798377
#
# Coordination Sequence:
#
# PCOD9317348 Si02
#       7
#     8   8   8   8   8   8   8
#     4  11  21  33  60  91 118 154 193 253 304 350
#     4  11  21  36  60  92 124 151 198 250 309 348
#     4  10  21  35  59  84 115 160 191 246 298 356
#     4  12  28  41  61  86 121 164 206 241 286 353
#     4  10  19  37  57  82 120 157 198 239 298 360
#     4  11  22  39  58  82 123 162 197 235 293 358
#     4  11  22  39  56  84 126 160 200 235 291 359
#
# _framework density 20.032433000000001
#
# number of rings (size 3 to 8) (size 9 to 14) (size 15 to 20)
#    0.000    1.143    1.429    8.571    4.000    0.000 
#    0.000    0.000    0.000    0.000    0.000   15.000 
#    0.000    0.000    0.000    0.000    0.000    0.000 
#
# Total GULP energy -156162.364962 kJ/mol
# GULP energy per Si atom -5577.227320 kJ/mol
# Density = 1.998684 g / cm^3
# Si number density = 20.032433 Si / 1000 Ang^3
#
#
#
# Elastic Constant Matrix: (Units=GPa)
#
#
# Indices 1 2 3 4 5 6 
#
# 1 58.7991 22.4954 20.8834 0.0000 0.0000 0.0000
# 2 22.4954 62.8153 31.2744 0.0000 0.0000 0.0000
# 3 20.8834 31.2744 127.4661 0.0000 0.0000 0.0000
# 4 0.0000 0.0000 0.0000 51.9489 0.0000 0.0000
# 5 0.0000 0.0000 0.0000 0.0000 21.4461 0.0000
# 6 0.0000 0.0000 0.0000 0.0000 0.0000 21.7344
#
#
#
# Elastic Compliance Matrix: (Units=1/GPa)
#
#
# Indices 1 2 3 4 5 6 
#
# 1 0.020038 -0.006313 -0.001734 0.000000 0.000000 0.000000
# 2 -0.006313 0.020124 -0.003903 0.000000 0.000000 0.000000
# 3 -0.001734 -0.003903 0.009087 0.000000 0.000000 0.000000
# 4 0.000000 0.000000 0.000000 0.019250 0.000000 0.000000
# 5 0.000000 0.000000 0.000000 0.000000 0.046628 0.000000
# 6 0.000000 0.000000 0.000000 0.000000 0.000000 0.046010
#
#
# Mechanical properties :
#
#
# Convention : Reuss Voigt Hill
#
# Bulk Modulus (GPa) = 39.44956 44.26523 41.85740
# Shear Modulus (GPa) = 25.84158 30.65435 28.24796
#
# Velocity S-wave (km/s) = 3.59554 3.91607 3.75922
# Velocity P-wave (km/s) = 6.08052 6.52627 6.30734
#
# Compressibility (1/GPa) = 0.02534882
#
# Stress axis : x y z
#
# Youngs Moduli (GPa) = 49.90503 49.69259 110.04730
#
# Poissons Ratio (x) = 0.31369 0.19083
# Poissons Ratio (y) = 0.31503 0.42954
# Poissons Ratio (z) = 0.08654 0.19396
#
# Static dielectric constant tensor:
#      x y z
#    x 1.671890 0.000000 0.000000 
#    y 0.000000 1.809570 0.000000 
#    z 0.000000 0.000000 1.736530 
# 
# From -- ./inp_files/10189.got.cif
#   From: 2010.05.17/outbox.cif.g08.bks.cpg/sg20_6_cif.got.tgz:10189.got - 2010.06.03 22:52:26.
