data_PCOD9317631
_publ_section_title
;
Structure prediction by ZEFSAII (Michael W. Deem and Ramdas Pophale) SiO2 
 PCOD9317631
Probable space group: C 2 2 21
;
_chemical_formula_sum "Si O2"
_cell_formula_units_Z 44
_cell_length_a 5.087308
_cell_length_b 22.514355
_cell_length_c 20.719167
_cell_angle_alpha 90.000000
_cell_angle_beta 90.000000
_cell_angle_gamma 90.000000
_cell_volume 2373.120726
_symmetry_space_group_name_H-M "C 2 2 21"
_symmetry_group_IT_number 20
_symmetry_cell_setting 'orthorhombic'
loop_
_space_group_symop_operation_xyz
x,y,z
-x,-y,1/2+z
x,-y,-z
-x,y,1/2-z
1/2+x,1/2+y,z
1/2-x,1/2-y,1/2+z
1/2+x,1/2-y,-z
1/2-x,1/2+y,1/2-z
loop_
_atom_site_type_symbol
_atom_site_label
_atom_site_fract_x
_atom_site_fract_y
_atom_site_fract_z
Si Si1 0.346862 0.175387 0.531565
Si Si2 0.300038 0.942650 0.544920
Si Si3 0.500000 0.093250 0.250000
Si Si4 0.380606 0.313500 0.817031
Si Si5 0.811158 0.081669 0.369914
Si Si6 0.649939 0.726340 0.917889
O O1 0.253099 0.114045 0.500952
O O2 0.348088 0.223345 0.473659
O O3 0.636988 0.177076 0.561255
O O4 0.137668 0.198714 0.583514
O O5 0.571401 0.928058 0.581486
O O6 0.066432 0.948057 0.597562
O O7 0.319520 0.000000 0.500000
O O8 0.325918 0.135553 0.295995
O O9 0.701968 0.061500 0.299294
O O10 0.500000 0.291780 0.750000
O O11 0.598966 0.349451 0.858677
O O12 0.244684 0.261334 0.855490
#
# Coordination Sequence:
#
# PCOD9317631 Si02
#       6
#     8   8   4   8   8   8
#     4  10  21  33  54  81 114 156 185 229 290 341
#     4  12  24  39  59  87 122 161 204 250 295 352
#     4  10  20  36  60  90 120 150 186 248 314 354
#     4  10  21  33  59  88 122 148 186 243 307 355
#     4  11  21  37  58  88 123 146 197 244 302 357
#     4  10  20  33  54  83 118 146 184 231 289 363
#
# _framework density 18.540987999999999
#
# number of rings (size 3 to 8) (size 9 to 14) (size 15 to 20)
#    0.000    1.455    3.636    1.636   10.182    0.000 
#    0.000    0.000    0.000    0.000   14.182    0.000 
#    0.000    0.000    0.000    0.000    0.000    0.000 
#
# Total GULP energy -122753.364487 kJ/mol
# GULP energy per Si atom -5579.698386 kJ/mol
# Density = 1.849879 g / cm^3
# Si number density = 18.540988 Si / 1000 Ang^3
#
#
#
# Elastic Constant Matrix: (Units=GPa)
#
#
# Indices 1 2 3 4 5 6 
#
# 1 88.2841 18.7219 27.3980 0.0000 0.0000 0.0000
# 2 18.7219 47.3243 20.5324 0.0000 0.0000 0.0000
# 3 27.3980 20.5324 67.2350 0.0000 0.0000 0.0000
# 4 0.0000 0.0000 0.0000 17.2146 0.0000 0.0000
# 5 0.0000 0.0000 0.0000 0.0000 38.6578 0.0000
# 6 0.0000 0.0000 0.0000 0.0000 0.0000 10.2809
#
#
#
# Elastic Compliance Matrix: (Units=1/GPa)
#
#
# Indices 1 2 3 4 5 6 
#
# 1 0.013421 -0.003385 -0.004435 0.000000 0.000000 0.000000
# 2 -0.003385 0.025212 -0.006320 0.000000 0.000000 0.000000
# 3 -0.004435 -0.006320 0.018611 0.000000 0.000000 0.000000
# 4 0.000000 0.000000 0.000000 0.058090 0.000000 0.000000
# 5 0.000000 0.000000 0.000000 0.000000 0.025868 0.000000
# 6 0.000000 0.000000 0.000000 0.000000 0.000000 0.097268
#
#
# Mechanical properties :
#
#
# Convention : Reuss Voigt Hill
#
# Bulk Modulus (GPa) = 34.52674 37.34977 35.93826
# Shear Modulus (GPa) = 18.08937 22.31006 20.19972
#
# Velocity S-wave (km/s) = 3.12692 3.47260 3.30428
# Velocity P-wave (km/s) = 5.63019 6.02219 5.82949
#
# Compressibility (1/GPa) = 0.02896306
#
# Stress axis : x y z
#
# Youngs Moduli (GPa) = 74.50769 39.66363 53.73286
#
# Poissons Ratio (x) = 0.13427 0.23833
# Poissons Ratio (y) = 0.25223 0.33958
# Poissons Ratio (z) = 0.33047 0.25067
#
# Static dielectric constant tensor:
#      x y z
#    x 1.714660 0.000000 0.000000 
#    y 0.000000 1.599730 0.000000 
#    z 0.000000 0.000000 1.660110 
# 
# From -- ./inp_files/22781.got.cif
#   From: 2010.05.17/outbox.cif.g08.bks.cpg/sg20_12_cif.got.tgz:22781.got - 2010.06.03 22:52:26.
