data_PCOD9317296
_publ_section_title
;
Structure prediction by ZEFSAII (Michael W. Deem and Ramdas Pophale) SiO2 
 PCOD9317296
Probable space group: C 2 2 21
;
_chemical_formula_sum "Si O2"
_cell_formula_units_Z 32
_cell_length_a 10.122588
_cell_length_b 16.658226
_cell_length_c 7.046548
_cell_angle_alpha 90.000000
_cell_angle_beta 90.000000
_cell_angle_gamma 90.000000
_cell_volume 1188.219637
_symmetry_space_group_name_H-M "C 2 2 21"
_symmetry_group_IT_number 20
_symmetry_cell_setting 'orthorhombic'
loop_
_space_group_symop_operation_xyz
x,y,z
-x,-y,1/2+z
x,-y,-z
-x,y,1/2-z
1/2+x,1/2+y,z
1/2-x,1/2-y,1/2+z
1/2+x,1/2-y,-z
1/2-x,1/2+y,1/2-z
loop_
_atom_site_type_symbol
_atom_site_label
_atom_site_fract_x
_atom_site_fract_y
_atom_site_fract_z
Si Si1 0.000000 0.097299 0.750000
Si Si2 0.335404 0.689172 0.069424
Si Si3 0.500000 0.035179 0.250000
Si Si4 0.968046 0.688197 0.468439
Si Si5 0.790678 0.022238 0.222977
O O1 0.072326 0.147096 0.587710
O O2 0.889280 0.037029 0.673232
O O3 0.186472 0.707889 0.999770
O O4 0.317642 0.618882 0.229124
O O5 0.418312 0.771132 0.095102
O O6 0.479017 0.092574 0.437779
O O7 0.642858 0.999002 0.275546
O O8 0.000000 0.712031 0.250000
O O9 0.805856 0.000000 0.000000
#
# Coordination Sequence:
#
# PCOD9317296 Si02
#       5
#     4   8   4   8   8
#     4  10  19  36  60  86 119 158 200 256 292 378
#     4  10  19  38  59  87 122 157 204 250 311 358
#     4   8  17  36  54  80 117 150 198 242 294 364
#     4   9  19  36  62  85 122 156 198 258 301 367
#     4   9  19  34  57  80 116 156 193 247 299 357
#
# _framework density 26.931047
#
# number of rings (size 3 to 8) (size 9 to 14) (size 15 to 20)
#    0.750    2.000    1.250    0.000    0.000    2.000 
#    0.000   11.250    0.000    0.000    0.000    0.000 
#    0.000    0.000    0.000    0.000    0.000    0.000 
#
# Total GULP energy -89308.211983 kJ/mol
# GULP energy per Si atom -5581.763249 kJ/mol
# Density = 2.686975 g / cm^3
# Si number density = 26.931047 Si / 1000 Ang^3
#
#
#
# Elastic Constant Matrix: (Units=GPa)
#
#
# Indices 1 2 3 4 5 6 
#
# 1 273.1240 50.1028 30.7859 0.0000 0.0000 0.0000
# 2 50.1028 65.1836 -0.8970 0.0000 0.0000 0.0000
# 3 30.7859 -0.8970 71.5399 0.0000 0.0000 0.0000
# 4 0.0000 0.0000 0.0000 -8.5847 0.0000 0.0000
# 5 0.0000 0.0000 0.0000 0.0000 42.7611 0.0000
# 6 0.0000 0.0000 0.0000 0.0000 0.0000 31.1538
#
#
#
# Elastic Compliance Matrix: (Units=1/GPa)
#
#
# Indices 1 2 3 4 5 6 
#
# 1 0.004530 -0.003509 -0.001993 0.000000 0.000000 0.000000
# 2 -0.003509 0.018062 0.001737 0.000000 0.000000 0.000000
# 3 -0.001993 0.001737 0.014858 0.000000 0.000000 0.000000
# 4 0.000000 0.000000 0.000000 -0.116486 0.000000 0.000000
# 5 0.000000 0.000000 0.000000 0.000000 0.023386 0.000000
# 6 0.000000 0.000000 0.000000 0.000000 0.000000 0.032099
#
#
# Mechanical properties :
#
#
# Convention : Reuss Voigt Hill
#
# Bulk Modulus (GPa) = 33.42447 63.31456 48.36951
# Shear Modulus (GPa) = -826.87501 35.05642 -395.90930
#
# Velocity S-wave (km/s) = -17.54140 3.61184 -12.13786
# Velocity P-wave (km/s) = 19.94566 6.39959 13.35805
#
# Compressibility (1/GPa) = 0.02991820
#
# Stress axis : x y z
#
# Youngs Moduli (GPa) = 220.76231 55.36337 67.30488
#
# Poissons Ratio (x) = 0.19428 0.13416
# Poissons Ratio (y) = 0.77470 -0.11688
# Poissons Ratio (z) = 0.44005 -0.09614
#
# Static dielectric constant tensor:
#      x y z
#    x 2.078670 0.000000 0.000000 
#    y 0.000000 2.414380 0.000000 
#    z 0.000000 0.000000 2.196420 
# 
# From -- ./inp_files/5866.got.cif
#   From: 2010.05.17/outbox.cif.g08.bks.cpg/sg20_3_cif.got.tgz:5866.got - 2010.06.03 22:52:26.
