data_PCOD9317526
_publ_section_title
;
Structure prediction by ZEFSAII (Michael W. Deem and Ramdas Pophale) SiO2 
 PCOD9317526
Probable space group: C 2 2 21
;
_chemical_formula_sum "Si O2"
_cell_formula_units_Z 36
_cell_length_a 22.156152
_cell_length_b 7.039229
_cell_length_c 10.718216
_cell_angle_alpha 90.000000
_cell_angle_beta 90.000000
_cell_angle_gamma 90.000000
_cell_volume 1671.636844
_symmetry_space_group_name_H-M "C 2 2 21"
_symmetry_group_IT_number 20
_symmetry_cell_setting 'orthorhombic'
loop_
_space_group_symop_operation_xyz
x,y,z
-x,-y,1/2+z
x,-y,-z
-x,y,1/2-z
1/2+x,1/2+y,z
1/2-x,1/2-y,1/2+z
1/2+x,1/2-y,-z
1/2-x,1/2+y,1/2-z
loop_
_atom_site_type_symbol
_atom_site_label
_atom_site_fract_x
_atom_site_fract_y
_atom_site_fract_z
Si Si1 0.319430 0.890097 0.629290
Si Si2 0.559344 0.000000 0.500000
Si Si3 0.577458 0.642412 0.385367
Si Si4 0.702711 0.131816 0.622517
Si Si5 0.569444 0.740284 0.732623
O O1 0.266349 0.737381 0.619890
O O2 0.384516 0.803356 0.661636
O O3 0.321792 0.000000 0.500000
O O4 0.302352 0.021316 0.747182
O O5 0.535510 0.172451 0.589152
O O6 0.587972 0.138635 0.392171
O O7 0.567597 0.500000 0.500000
O O8 0.645422 0.725464 0.381726
O O9 0.571168 0.489529 0.275571
O O10 0.700009 0.000000 0.500000
O O11 0.500000 0.792679 0.750000
#
# Coordination Sequence:
#
# PCOD9317526 Si02
#       5
#     8   4   8   8   8
#     4  12  26  42  67 108 145 185 239 305 365 429
#     4  10  20  44  72  92 130 192 250 278 350 442
#     4  10  19  40  69 102 124 180 243 283 348 430
#     4  12  22  45  72  99 144 186 232 298 369 442
#     4  11  25  43  68 102 144 189 242 301 356 419
#
# _framework density 21.535778000000001
#
# number of rings (size 3 to 8) (size 9 to 14) (size 15 to 20)
#    0.000    0.889    3.333    4.667    1.556    0.889 
#    0.000    5.556    0.000    0.000    0.000    0.000 
#    0.000    0.000    0.000    0.000    0.000    0.000 
#
# Total GULP energy -100236.335731 kJ/mol
# GULP energy per Si atom -5568.685318 kJ/mol
# Density = 2.148676 g / cm^3
# Si number density = 21.535778 Si / 1000 Ang^3
#
#
#
# Elastic Constant Matrix: (Units=GPa)
#
#
# Indices 1 2 3 4 5 6 
#
# 1 146.8792 49.7552 53.3738 0.0000 0.0000 0.0000
# 2 49.7552 173.8382 67.5953 0.0000 0.0000 0.0000
# 3 53.3738 67.5953 139.7119 0.0000 0.0000 0.0000
# 4 0.0000 0.0000 0.0000 30.7113 0.0000 0.0000
# 5 0.0000 0.0000 0.0000 0.0000 30.6186 0.0000
# 6 0.0000 0.0000 0.0000 0.0000 0.0000 21.0880
#
#
#
# Elastic Compliance Matrix: (Units=1/GPa)
#
#
# Indices 1 2 3 4 5 6 
#
# 1 0.008168 -0.001385 -0.002450 0.000000 0.000000 0.000000
# 2 -0.001385 0.007320 -0.003013 0.000000 0.000000 0.000000
# 3 -0.002450 -0.003013 0.009551 0.000000 0.000000 0.000000
# 4 0.000000 0.000000 0.000000 0.032561 0.000000 0.000000
# 5 0.000000 0.000000 0.000000 0.000000 0.032660 0.000000
# 6 0.000000 0.000000 0.000000 0.000000 0.000000 0.047420
#
#
# Mechanical properties :
#
#
# Convention : Reuss Voigt Hill
#
# Bulk Modulus (GPa) = 88.15499 89.09754 88.62626
# Shear Modulus (GPa) = 32.22525 35.79724 34.01125
#
# Velocity S-wave (km/s) = 3.87248 4.08146 3.97834
# Velocity P-wave (km/s) = 7.81139 7.97952 7.89590
#
# Compressibility (1/GPa) = 0.01134366
#
# Stress axis : x y z
#
# Youngs Moduli (GPa) = 122.43089 136.60630 104.69887
#
# Poissons Ratio (x) = 0.18920 0.25654
# Poissons Ratio (y) = 0.16957 0.31542
# Poissons Ratio (z) = 0.29999 0.41154
#
# Static dielectric constant tensor:
#      x y z
#    x 1.862830 0.000000 0.000000 
#    y 0.000000 1.765030 0.000000 
#    z 0.000000 0.000000 1.847120 
# 
# From -- ./inp_files/12055.got.cif
#   From: 2010.05.17/outbox.cif.g08.bks.cpg/sg20_7_cif.got.tgz:12055.got - 2010.06.03 22:52:26.
