data_PCOD9317000
_publ_section_title
;
Structure prediction by ZEFSAII (Michael W. Deem and Ramdas Pophale) SiO2 
 PCOD9317000
Probable space group: C 2 2 21
;
_chemical_formula_sum "Si O2"
_cell_formula_units_Z 40
_cell_length_a 25.167993
_cell_length_b 5.034471
_cell_length_c 12.739260
_cell_angle_alpha 90.000000
_cell_angle_beta 90.000000
_cell_angle_gamma 90.000000
_cell_volume 1614.160180
_symmetry_space_group_name_H-M "C 2 2 21"
_symmetry_group_IT_number 20
_symmetry_cell_setting 'orthorhombic'
loop_
_space_group_symop_operation_xyz
x,y,z
-x,-y,1/2+z
x,-y,-z
-x,y,1/2-z
1/2+x,1/2+y,z
1/2-x,1/2-y,1/2+z
1/2+x,1/2-y,-z
1/2-x,1/2+y,1/2-z
loop_
_atom_site_type_symbol
_atom_site_label
_atom_site_fract_x
_atom_site_fract_y
_atom_site_fract_z
Si Si1 0.692969 0.652143 0.826500
Si Si2 0.516766 0.543308 0.369580
Si Si3 0.308003 0.849227 0.179149
Si Si4 0.079883 0.459240 0.654119
Si Si5 0.083571 0.310839 0.899489
O O1 0.686692 0.439597 0.732210
O O2 0.751125 0.617533 0.877467
O O3 0.639025 0.650818 0.891724
O O4 0.695830 0.944305 0.775937
O O5 0.500000 0.565949 0.250000
O O6 0.537058 0.837132 0.393791
O O7 0.466449 0.381500 0.410941
O O8 0.565945 0.339283 0.378261
O O9 0.362059 0.936138 0.123905
O O10 0.922542 0.453629 0.716247
O O11 0.085958 0.500000 0.000000
#
# Coordination Sequence:
#
# PCOD9317000 Si02
#       5
#     8   8   8   8   8
#     4   9  18  30  49  76 105 133 169 216 272 326
#     4  10  19  33  52  75 105 143 184 224 269 333
#     4   9  16  31  52  75  99 132 179 223 257 314
#     4  10  19  34  54  77 104 142 189 226 264 330
#     4  10  21  36  56  85 118 146 182 241 299 333
#
# _framework density 24.780688999999999
#
# number of rings (size 3 to 8) (size 9 to 14) (size 15 to 20)
#    0.000    2.400    0.000    5.400    0.000    1.600 
#    0.000   25.000    0.000    2.400    0.000    0.000 
#    0.000    0.000    0.000    0.000    0.000    0.000 
#
# Total GULP energy -111716.622397 kJ/mol
# GULP energy per Si atom -5585.831120 kJ/mol
# Density = 2.472429 g / cm^3
# Si number density = 24.780689 Si / 1000 Ang^3
#
#
#
# Elastic Constant Matrix: (Units=GPa)
#
#
# Indices 1 2 3 4 5 6 
#
# 1 216.9291 42.2056 16.9981 0.0000 0.0000 0.0000
# 2 42.2056 92.3994 17.9362 0.0000 0.0000 0.0000
# 3 16.9981 17.9362 100.8888 0.0000 0.0000 0.0000
# 4 0.0000 0.0000 0.0000 29.1295 0.0000 0.0000
# 5 0.0000 0.0000 0.0000 0.0000 -28.5109 0.0000
# 6 0.0000 0.0000 0.0000 0.0000 0.0000 100.9530
#
#
#
# Elastic Compliance Matrix: (Units=1/GPa)
#
#
# Indices 1 2 3 4 5 6 
#
# 1 0.005080 -0.002231 -0.000459 0.000000 0.000000 0.000000
# 2 -0.002231 0.012189 -0.001791 0.000000 0.000000 0.000000
# 3 -0.000459 -0.001791 0.010308 0.000000 0.000000 0.000000
# 4 0.000000 0.000000 0.000000 0.034329 0.000000 0.000000
# 5 0.000000 0.000000 0.000000 0.000000 -0.035074 0.000000
# 6 0.000000 0.000000 0.000000 0.000000 0.000000 0.009906
#
#
# Mechanical properties :
#
#
# Convention : Reuss Voigt Hill
#
# Bulk Modulus (GPa) = 53.72331 62.72190 58.22261
# Shear Modulus (GPa) = 96.32893 42.51949 69.42421
#
# Velocity S-wave (km/s) = 6.24155 4.14675 5.29870
# Velocity P-wave (km/s) = 8.58308 6.94933 7.80904
#
# Compressibility (1/GPa) = 0.01861389
#
# Stress axis : x y z
#
# Youngs Moduli (GPa) = 196.85469 82.03826 97.01482
#
# Poissons Ratio (x) = 0.18305 0.04455
# Poissons Ratio (y) = 0.43923 0.17377
# Poissons Ratio (z) = 0.09040 0.14694
#
# Static dielectric constant tensor:
#      x y z
#    x 2.038890 0.000000 0.000000 
#    y 0.000000 1.903820 0.000000 
#    z 0.000000 0.000000 1.914280 
# 
# From -- ./inp_files/21921.got.cif
#   From: 2010.05.17/outbox.cif.g08.bks.cpg/sg20_11_cif.got.tgz:21921.got - 2010.06.03 22:52:26.
