data_PCOD9317832
_publ_section_title
;
Structure prediction by ZEFSAII (Michael W. Deem and Ramdas Pophale) SiO2 
 PCOD9317832
Probable space group: C 2 2 21
;
_chemical_formula_sum "Si O2"
_cell_formula_units_Z 36
_cell_length_a 11.669483
_cell_length_b 11.279358
_cell_length_c 11.625543
_cell_angle_alpha 90.000000
_cell_angle_beta 90.000000
_cell_angle_gamma 90.000000
_cell_volume 1530.203686
_symmetry_space_group_name_H-M "C 2 2 21"
_symmetry_group_IT_number 20
_symmetry_cell_setting 'orthorhombic'
loop_
_space_group_symop_operation_xyz
x,y,z
-x,-y,1/2+z
x,-y,-z
-x,y,1/2-z
1/2+x,1/2+y,z
1/2-x,1/2-y,1/2+z
1/2+x,1/2-y,-z
1/2-x,1/2+y,1/2-z
loop_
_atom_site_type_symbol
_atom_site_label
_atom_site_fract_x
_atom_site_fract_y
_atom_site_fract_z
Si Si1 0.106245 0.897639 0.091409
Si Si2 0.379331 0.161892 0.525053
Si Si3 0.601793 0.076271 0.393079
Si Si4 0.654743 0.347843 0.350472
Si Si5 0.000000 0.613653 0.750000
O O1 0.151055 0.901782 0.222034
O O2 0.968869 0.878890 0.098260
O O3 0.159356 0.779797 0.037997
O O4 0.122343 0.000000 0.000000
O O5 0.469781 0.103263 0.436005
O O6 0.262641 0.107914 0.575813
O O7 0.455211 0.185282 0.640415
O O8 0.654116 0.201675 0.353187
O O9 0.649525 0.000000 0.500000
O O10 0.595318 0.978510 0.294191
#
# Coordination Sequence:
#
# PCOD9317832 Si02
#       5
#     8   8   8   8   4
#     4  10  23  42  60  88 128 164 202 253 305 364
#     4  10  22  38  62  89 118 158 205 252 305 362
#     4   9  19  38  61  87 120 153 196 254 305 354
#     4  10  22  41  62  89 123 160 205 255 304 366
#     4  10  20  36  56  86 118 150 196 246 294 358
#
# _framework density 23.526278999999999
#
# number of rings (size 3 to 8) (size 9 to 14) (size 15 to 20)
#    0.000    2.222    0.000    2.667    0.000   12.444 
#    0.000    0.000    0.000    0.000    0.000    0.000 
#    0.000    0.000    0.000    0.000    0.000    0.000 
#
# Total GULP energy -100382.436098 kJ/mol
# GULP energy per Si atom -5576.802005 kJ/mol
# Density = 2.347273 g / cm^3
# Si number density = 23.526279 Si / 1000 Ang^3
#
#
#
# Elastic Constant Matrix: (Units=GPa)
#
#
# Indices 1 2 3 4 5 6 
#
# 1 135.2880 -8.1897 25.8312 0.0000 0.0000 0.0000
# 2 -8.1897 59.0652 20.3030 0.0000 0.0000 0.0000
# 3 25.8312 20.3030 117.6358 0.0000 0.0000 0.0000
# 4 0.0000 0.0000 0.0000 39.9800 0.0000 0.0000
# 5 0.0000 0.0000 0.0000 0.0000 16.4936 0.0000
# 6 0.0000 0.0000 0.0000 0.0000 0.0000 9.3321
#
#
#
# Elastic Compliance Matrix: (Units=1/GPa)
#
#
# Indices 1 2 3 4 5 6 
#
# 1 0.007890 0.001796 -0.002043 0.000000 0.000000 0.000000
# 2 0.001796 0.018407 -0.003571 0.000000 0.000000 0.000000
# 3 -0.002043 -0.003571 0.009566 0.000000 0.000000 0.000000
# 4 0.000000 0.000000 0.000000 0.025013 0.000000 0.000000
# 5 0.000000 0.000000 0.000000 0.000000 0.060629 0.000000
# 6 0.000000 0.000000 0.000000 0.000000 0.000000 0.107157
#
#
# Mechanical properties :
#
#
# Convention : Reuss Voigt Hill
#
# Bulk Modulus (GPa) = 35.42628 43.09755 39.26191
# Shear Modulus (GPa) = 20.34945 31.43077 25.89011
#
# Velocity S-wave (km/s) = 2.94422 3.65908 3.32094
# Velocity P-wave (km/s) = 5.16225 6.01751 5.60621
#
# Compressibility (1/GPa) = 0.02822763
#
# Stress axis : x y z
#
# Youngs Moduli (GPa) = 126.73664 54.32690 104.53993
#
# Poissons Ratio (x) = -0.09758 0.21354
# Poissons Ratio (y) = -0.22764 0.37335
# Poissons Ratio (z) = 0.25887 0.19402
#
# Static dielectric constant tensor:
#      x y z
#    x 1.959620 0.000000 0.000000 
#    y 0.000000 1.980670 0.000000 
#    z 0.000000 0.000000 1.697980 
# 
# From -- ./inp_files/13678.got.cif
#   From: 2010.05.17/outbox.cif.g08.bks.cpg/sg20_7_cif.got.tgz:13678.got - 2010.06.03 22:52:26.
