data_PCOD9317838
_publ_section_title
;
Structure prediction by ZEFSAII (Michael W. Deem and Ramdas Pophale) SiO2 
 PCOD9317838
Probable space group: C 2 2 21
;
_chemical_formula_sum "Si O2"
_cell_formula_units_Z 48
_cell_length_a 17.521111
_cell_length_b 6.087028
_cell_length_c 20.882456
_cell_angle_alpha 90.000000
_cell_angle_beta 90.000000
_cell_angle_gamma 90.000000
_cell_volume 2227.145115
_symmetry_space_group_name_H-M "C 2 2 21"
_symmetry_group_IT_number 20
_symmetry_cell_setting 'orthorhombic'
loop_
_space_group_symop_operation_xyz
x,y,z
-x,-y,1/2+z
x,-y,-z
-x,y,1/2-z
1/2+x,1/2+y,z
1/2-x,1/2-y,1/2+z
1/2+x,1/2-y,-z
1/2-x,1/2+y,1/2-z
loop_
_atom_site_type_symbol
_atom_site_label
_atom_site_fract_x
_atom_site_fract_y
_atom_site_fract_z
Si Si1 0.722880 0.699815 0.392336
Si Si2 0.671014 0.449816 0.192619
Si Si3 0.406882 0.533212 0.827757
Si Si4 0.717738 0.500000 0.000000
Si Si5 0.540770 0.860603 0.852552
Si Si6 0.350459 0.169089 0.597213
Si Si7 0.000000 0.322216 0.250000
O O1 0.750773 0.832239 0.328675
O O2 0.643894 0.576398 0.382239
O O3 0.729810 0.871401 0.449655
O O4 0.785524 0.514517 0.405504
O O5 0.648730 0.421637 0.266738
O O6 0.603634 0.328328 0.152945
O O7 0.665963 0.692635 0.162620
O O8 0.458838 0.739975 0.849454
O O9 0.461108 0.341232 0.800025
O O10 0.664397 0.665280 0.039522
O O11 0.569220 0.038086 0.904384
O O12 0.551102 0.007114 0.788752
#
# Coordination Sequence:
#
# PCOD9317838 Si02
#       7
#     8   8   8   4   8   8   4
#     4  10  25  37  66 100 133 182 228 290 348 408
#     4  10  20  36  56  99 143 171 220 267 345 430
#     4  12  22  36  59 105 145 183 216 276 358 435
#     4  10  22  48  64 100 126 186 244 312 330 400
#     4  11  20  37  61  98 140 185 213 268 344 424
#     4  10  21  41  68  96 128 182 241 287 341 400
#     4  12  20  36  58  92 144 192 204 266 340 430
#
# _framework density 21.552254000000001
#
# number of rings (size 3 to 8) (size 9 to 14) (size 15 to 20)
#    0.000    1.333    5.000    0.500    2.333    2.667 
#    0.000    0.000    0.000    0.000  195.000    0.000 
#    0.000    0.000    0.000    0.000    0.000    0.000 
#
# Total GULP energy -133877.862527 kJ/mol
# GULP energy per Si atom -5578.244272 kJ/mol
# Density = 2.150320 g / cm^3
# Si number density = 21.552254 Si / 1000 Ang^3
#
#
#
# Elastic Constant Matrix: (Units=GPa)
#
#
# Indices 1 2 3 4 5 6 
#
# 1 80.6424 54.2521 40.8989 0.0000 0.0000 0.0000
# 2 54.2521 126.0417 48.3853 0.0000 0.0000 0.0000
# 3 40.8989 48.3853 69.1428 0.0000 0.0000 0.0000
# 4 0.0000 0.0000 0.0000 36.5346 0.0000 0.0000
# 5 0.0000 0.0000 0.0000 0.0000 12.0183 0.0000
# 6 0.0000 0.0000 0.0000 0.0000 0.0000 32.8380
#
#
#
# Elastic Compliance Matrix: (Units=1/GPa)
#
#
# Indices 1 2 3 4 5 6 
#
# 1 0.020274 -0.005637 -0.008048 0.000000 0.000000 0.000000
# 2 -0.005637 0.012416 -0.005354 0.000000 0.000000 0.000000
# 3 -0.008048 -0.005354 0.022970 0.000000 0.000000 0.000000
# 4 0.000000 0.000000 0.000000 0.027371 0.000000 0.000000
# 5 0.000000 0.000000 0.000000 0.000000 0.083206 0.000000
# 6 0.000000 0.000000 0.000000 0.000000 0.000000 0.030453
#
#
# Mechanical properties :
#
#
# Convention : Reuss Voigt Hill
#
# Bulk Modulus (GPa) = 56.87582 62.54439 59.71011
# Shear Modulus (GPa) = 20.77898 25.09755 22.93826
#
# Velocity S-wave (km/s) = 3.10840 3.41618 3.26591
# Velocity P-wave (km/s) = 6.27135 6.68156 6.47970
#
# Compressibility (1/GPa) = 0.01758216
#
# Stress axis : x y z
#
# Youngs Moduli (GPa) = 49.32321 80.54410 43.53587
#
# Poissons Ratio (x) = 0.45406 0.35036
# Poissons Ratio (y) = 0.27805 0.23308
# Poissons Ratio (z) = 0.39694 0.43121
#
# Static dielectric constant tensor:
#      x y z
#    x 1.808290 0.000000 0.000000 
#    y 0.000000 1.798470 0.000000 
#    z 0.000000 0.000000 1.826730 
# 
# From -- ./inp_files/29438.got.cif
#   From: 2010.05.17/outbox.cif.g08.bks.cpg/sg20_15_cif.got.tgz:29438.got - 2010.06.03 22:52:26.
