data_PCOD9317701
_publ_section_title
;
Structure prediction by ZEFSAII (Michael W. Deem and Ramdas Pophale) SiO2 
 PCOD9317701
Probable space group: C 2 2 21
;
_chemical_formula_sum "Si O2"
_cell_formula_units_Z 48
_cell_length_a 20.432546
_cell_length_b 13.197488
_cell_length_c 8.921028
_cell_angle_alpha 90.000000
_cell_angle_beta 90.000000
_cell_angle_gamma 90.000000
_cell_volume 2405.629072
_symmetry_space_group_name_H-M "C 2 2 21"
_symmetry_group_IT_number 20
_symmetry_cell_setting 'orthorhombic'
loop_
_space_group_symop_operation_xyz
x,y,z
-x,-y,1/2+z
x,-y,-z
-x,y,1/2-z
1/2+x,1/2+y,z
1/2-x,1/2-y,1/2+z
1/2+x,1/2-y,-z
1/2-x,1/2+y,1/2-z
loop_
_atom_site_type_symbol
_atom_site_label
_atom_site_fract_x
_atom_site_fract_y
_atom_site_fract_z
Si Si1 0.109924 0.543697 0.313394
Si Si2 0.067335 0.682836 0.661458
Si Si3 0.327607 0.000000 0.500000
Si Si4 0.306205 0.207974 0.630319
Si Si5 0.435760 0.267551 0.160626
Si Si6 0.191241 0.831225 0.168732
Si Si7 0.268574 0.000000 0.000000
O O1 0.077466 0.438456 0.372408
O O2 0.127603 0.525747 0.140833
O O3 0.070596 0.646922 0.310727
O O4 0.178983 0.562609 0.400193
O O5 0.129893 0.703875 0.765759
O O6 0.064900 0.759805 0.520507
O O7 0.000000 0.692264 0.750000
O O8 0.289739 0.901122 0.444538
O O9 0.245646 0.230796 0.737971
O O10 0.320383 0.279617 0.491485
O O11 0.500000 0.303279 0.250000
O O12 0.373908 0.326331 0.231577
O O13 0.225188 0.936409 0.116722
#
# Coordination Sequence:
#
# PCOD9317701 Si02
#       7
#     8   8   4   8   8   8   4
#     4  11  20  38  59  94 134 166 204 256 322 407
#     4  11  22  38  60  95 135 171 205 254 332 410
#     4  10  20  34  57  91 130 160 204 240 316 384
#     4  11  22  38  62  90 131 164 212 260 319 394
#     4  12  24  40  63  91 128 170 216 265 330 394
#     4  12  24  39  63  90 125 175 220 272 316 376
#     4  12  22  42  61  93 128 172 220 270 314 380
#
# _framework density 19.953201
#
# number of rings (size 3 to 8) (size 9 to 14) (size 15 to 20)
#    0.000    0.667    6.667    3.500    2.333    0.000 
#    0.000    0.000    0.000    4.000    0.000    0.000 
#    0.000    0.000    0.000    0.000    0.000    0.000 
#
# Total GULP energy -133806.732584 kJ/mol
# GULP energy per Si atom -5575.280524 kJ/mol
# Density = 1.990779 g / cm^3
# Si number density = 19.953201 Si / 1000 Ang^3
#
#
#
# Elastic Constant Matrix: (Units=GPa)
#
#
# Indices 1 2 3 4 5 6 
#
# 1 157.7143 16.1200 57.3931 0.0000 0.0000 0.0000
# 2 16.1200 16.4863 9.6215 0.0000 0.0000 0.0000
# 3 57.3931 9.6215 120.6246 0.0000 0.0000 0.0000
# 4 0.0000 0.0000 0.0000 29.6541 0.0000 0.0000
# 5 0.0000 0.0000 0.0000 0.0000 39.6787 0.0000
# 6 0.0000 0.0000 0.0000 0.0000 0.0000 30.1604
#
#
#
# Elastic Compliance Matrix: (Units=1/GPa)
#
#
# Indices 1 2 3 4 5 6 
#
# 1 0.008201 -0.006022 -0.003422 0.000000 0.000000 0.000000
# 2 -0.006022 0.068040 -0.002562 0.000000 0.000000 0.000000
# 3 -0.003422 -0.002562 0.010123 0.000000 0.000000 0.000000
# 4 0.000000 0.000000 0.000000 0.033722 0.000000 0.000000
# 5 0.000000 0.000000 0.000000 0.000000 0.025202 0.000000
# 6 0.000000 0.000000 0.000000 0.000000 0.000000 0.033156
#
#
# Mechanical properties :
#
#
# Convention : Reuss Voigt Hill
#
# Bulk Modulus (GPa) = 16.03787 51.23269 33.63528
# Shear Modulus (GPa) = 22.39739 34.01135 28.20437
#
# Velocity S-wave (km/s) = 3.35400 4.13311 3.76377
# Velocity P-wave (km/s) = 4.80149 6.96483 5.98177
#
# Compressibility (1/GPa) = 0.06235242
#
# Stress axis : x y z
#
# Youngs Moduli (GPa) = 121.93151 14.69724 98.78852
#
# Poissons Ratio (x) = 0.08851 0.33804
# Poissons Ratio (y) = 0.73429 0.25308
# Poissons Ratio (z) = 0.41723 0.03765
#
# Static dielectric constant tensor:
#      x y z
#    x 1.684100 0.000000 0.000000 
#    y 0.000000 1.735130 0.000000 
#    z 0.000000 0.000000 1.772410 
# 
# From -- ./inp_files/10098.got.cif
#   From: 2010.05.17/outbox.cif.g08.bks.cpg/sg20_6_cif.got.tgz:10098.got - 2010.06.03 22:52:26.
