data_PCOD9317283
_publ_section_title
;
Structure prediction by ZEFSAII (Michael W. Deem and Ramdas Pophale) SiO2 
 PCOD9317283
Probable space group: C 2 2 21
;
_chemical_formula_sum "Si O2"
_cell_formula_units_Z 48
_cell_length_a 21.507454
_cell_length_b 8.454725
_cell_length_c 10.480657
_cell_angle_alpha 90.000000
_cell_angle_beta 90.000000
_cell_angle_gamma 90.000000
_cell_volume 1905.798571
_symmetry_space_group_name_H-M "C 2 2 21"
_symmetry_group_IT_number 20
_symmetry_cell_setting 'orthorhombic'
loop_
_space_group_symop_operation_xyz
x,y,z
-x,-y,1/2+z
x,-y,-z
-x,y,1/2-z
1/2+x,1/2+y,z
1/2-x,1/2-y,1/2+z
1/2+x,1/2-y,-z
1/2-x,1/2+y,1/2-z
loop_
_atom_site_type_symbol
_atom_site_label
_atom_site_fract_x
_atom_site_fract_y
_atom_site_fract_z
Si Si1 0.879514 0.700648 0.725654
Si Si2 0.687531 0.382185 0.382690
Si Si3 0.425502 0.466487 0.243505
Si Si4 0.136410 0.754636 0.058989
Si Si5 0.786444 0.431866 0.771403
Si Si6 0.477477 0.035979 0.374198
O O1 0.900963 0.859200 0.792785
O O2 0.848114 0.748189 0.590012
O O3 0.835008 0.575030 0.794070
O O4 0.942980 0.610788 0.691440
O O5 0.697146 0.500000 0.500000
O O6 0.613594 0.360636 0.356085
O O7 0.723535 0.479735 0.269810
O O8 0.713867 0.202988 0.379766
O O9 0.500000 0.466955 0.250000
O O10 0.392813 0.410730 0.376025
O O11 0.187451 0.668710 0.148559
O O12 0.077165 0.640491 0.068943
O O13 0.500000 0.128532 0.250000
O O14 0.518231 0.000000 0.500000
#
# Coordination Sequence:
#
# PCOD9317283 Si02
#       6
#     8   8   8   8   8   8
#     4  10  19  36  59  87 122 168 227 285 341 409
#     4  11  24  43  69 101 142 184 229 294 359 430
#     4  11  23  38  58  92 137 184 240 290 347 420
#     4   9  19  35  61  85 117 169 225 284 341 411
#     4  10  21  41  67  97 132 172 227 289 357 430
#     4   9  17  31  51  78 113 157 212 274 340 410
#
# _framework density 25.186292000000002
#
# number of rings (size 3 to 8) (size 9 to 14) (size 15 to 20)
#    0.000    2.000    0.000    5.000    0.000    1.333 
#    0.000   14.167    0.000    0.000    0.000    0.000 
#    0.000    0.000    0.000    0.000    0.000    0.000 
#
# Total GULP energy -133799.755907 kJ/mol
# GULP energy per Si atom -5574.989829 kJ/mol
# Density = 2.512897 g / cm^3
# Si number density = 25.186292 Si / 1000 Ang^3
#
#
#
# Elastic Constant Matrix: (Units=GPa)
#
#
# Indices 1 2 3 4 5 6 
#
# 1 151.7004 46.6821 21.4392 0.0000 0.0000 0.0000
# 2 46.6821 149.2406 18.3009 0.0000 0.0000 0.0000
# 3 21.4392 18.3009 51.5548 0.0000 0.0000 0.0000
# 4 0.0000 0.0000 0.0000 34.9192 0.0000 0.0000
# 5 0.0000 0.0000 0.0000 0.0000 20.9350 0.0000
# 6 0.0000 0.0000 0.0000 0.0000 0.0000 -78.5372
#
#
#
# Elastic Compliance Matrix: (Units=1/GPa)
#
#
# Indices 1 2 3 4 5 6 
#
# 1 0.007571 -0.002072 -0.002413 0.000000 0.000000 0.000000
# 2 -0.002072 0.007573 -0.001826 0.000000 0.000000 0.000000
# 3 -0.002413 -0.001826 0.021049 0.000000 0.000000 0.000000
# 4 0.000000 0.000000 0.000000 0.028638 0.000000 0.000000
# 5 0.000000 0.000000 0.000000 0.000000 0.047767 0.000000
# 6 0.000000 0.000000 0.000000 0.000000 0.000000 -0.012733
#
#
# Mechanical properties :
#
#
# Convention : Reuss Voigt Hill
#
# Bulk Modulus (GPa) = 42.42819 58.37112 50.39965
# Shear Modulus (GPa) = 41.54812 13.20164 27.37488
#
# Velocity S-wave (km/s) = 4.06597 2.29194 3.30039
# Velocity P-wave (km/s) = 6.23900 5.49818 5.88027
#
# Compressibility (1/GPa) = 0.02356924
#
# Stress axis : x y z
#
# Youngs Moduli (GPa) = 132.09019 132.05254 47.50931
#
# Poissons Ratio (x) = 0.27364 0.11462
# Poissons Ratio (y) = 0.27372 0.08677
# Poissons Ratio (z) = 0.31869 0.24119
#
# Static dielectric constant tensor:
#      x y z
#    x 2.022800 0.000000 0.000000 
#    y 0.000000 2.062130 0.000000 
#    z 0.000000 0.000000 2.408900 
# 
# From -- ./inp_files/16648.got.cif
#   From: 2010.05.17/outbox.cif.g08.bks.cpg/sg20_9_cif.got.tgz:16648.got - 2010.06.03 22:52:26.
