data_PCOD9317377
_publ_section_title
;
Structure prediction by ZEFSAII (Michael W. Deem and Ramdas Pophale) SiO2 
 PCOD9317377
Probable space group: C 2 2 21
;
_chemical_formula_sum "Si O2"
_cell_formula_units_Z 60
_cell_length_a 12.657004
_cell_length_b 19.754654
_cell_length_c 13.021504
_cell_angle_alpha 90.000000
_cell_angle_beta 90.000000
_cell_angle_gamma 90.000000
_cell_volume 3255.828298
_symmetry_space_group_name_H-M "C 2 2 21"
_symmetry_group_IT_number 20
_symmetry_cell_setting 'orthorhombic'
loop_
_space_group_symop_operation_xyz
x,y,z
-x,-y,1/2+z
x,-y,-z
-x,y,1/2-z
1/2+x,1/2+y,z
1/2-x,1/2-y,1/2+z
1/2+x,1/2-y,-z
1/2-x,1/2+y,1/2-z
loop_
_atom_site_type_symbol
_atom_site_label
_atom_site_fract_x
_atom_site_fract_y
_atom_site_fract_z
Si Si1 0.247812 0.681316 0.314465
Si Si2 0.119600 0.693137 0.907749
Si Si3 0.103422 0.304518 0.504457
Si Si4 0.345341 0.468027 0.669996
Si Si5 0.283363 0.673910 0.079084
Si Si6 0.845882 0.549887 0.912492
Si Si7 0.500000 0.905180 0.250000
Si Si8 0.086944 0.040463 0.397746
O O1 0.328473 0.740541 0.353686
O O2 0.140541 0.693179 0.377837
O O3 0.294122 0.606793 0.340674
O O4 0.233115 0.681291 0.192038
O O5 0.072464 0.643061 0.821576
O O6 0.204322 0.659396 0.984741
O O7 0.018823 0.708032 0.980150
O O8 0.165240 0.244927 0.448748
O O9 0.144016 0.374384 0.454636
O O10 0.269644 0.523300 0.618293
O O11 0.359056 0.483429 0.791370
O O12 0.461644 0.465031 0.621320
O O13 0.373184 0.616969 0.087750
O O14 0.922373 0.548758 0.815706
O O15 0.886587 0.500000 0.000000
O O16 0.116026 0.000000 0.500000
#
# Coordination Sequence:
#
# PCOD9317377 Si02
#       8
#     8   8   8   8   8   8   4   8
#     4  10  19  37  62  87 119 156 199 254 294 360
#     4  10  21  39  63  88 120 161 202 249 306 359
#     4  10  21  38  61  86 119 161 207 246 298 366
#     4  10  21  38  61  87 120 162 199 243 310 360
#     4  10  22  39  61  92 121 160 204 252 304 358
#     4  11  21  40  59  88 118 162 207 246 304 367
#     4  10  24  40  60  88 120 164 206 252 302 368
#     4  10  22  38  60  91 123 156 200 250 304 367
#
# _framework density 18.42849
#
# number of rings (size 3 to 8) (size 9 to 14) (size 15 to 20)
#    0.000    1.867    1.333    2.800    1.867    2.667 
#    9.600    0.000    0.000    0.000    0.000    0.000 
#    0.000    0.000    0.000    0.000    0.000    0.000 
#
# Total GULP energy -167332.481489 kJ/mol
# GULP energy per Si atom -5577.749383 kJ/mol
# Density = 1.838655 g / cm^3
# Si number density = 18.428490 Si / 1000 Ang^3
#
#
#
# Elastic Constant Matrix: (Units=GPa)
#
#
# Indices 1 2 3 4 5 6 
#
# 1 78.5255 18.2748 41.9823 0.0000 0.0000 0.0000
# 2 18.2748 64.4952 38.7990 0.0000 0.0000 0.0000
# 3 41.9823 38.7990 109.6474 0.0000 0.0000 0.0000
# 4 0.0000 0.0000 0.0000 25.4126 0.0000 0.0000
# 5 0.0000 0.0000 0.0000 0.0000 46.2026 0.0000
# 6 0.0000 0.0000 0.0000 0.0000 0.0000 32.4425
#
#
#
# Elastic Compliance Matrix: (Units=1/GPa)
#
#
# Indices 1 2 3 4 5 6 
#
# 1 0.016072 -0.001082 -0.005771 0.000000 0.000000 0.000000
# 2 -0.001082 0.019771 -0.006582 0.000000 0.000000 0.000000
# 3 -0.005771 -0.006582 0.013659 0.000000 0.000000 0.000000
# 4 0.000000 0.000000 0.000000 0.039350 0.000000 0.000000
# 5 0.000000 0.000000 0.000000 0.000000 0.021644 0.000000
# 6 0.000000 0.000000 0.000000 0.000000 0.000000 0.030824
#
#
# Mechanical properties :
#
#
# Convention : Reuss Voigt Hill
#
# Bulk Modulus (GPa) = 44.18508 50.08670 47.13589
# Shear Modulus (GPa) = 28.45228 31.05235 29.75232
#
# Velocity S-wave (km/s) = 3.93355 4.10935 4.02241
# Velocity P-wave (km/s) = 6.68274 7.05363 6.87068
#
# Compressibility (1/GPa) = 0.02263207
#
# Stress axis : x y z
#
# Youngs Moduli (GPa) = 62.22078 50.57891 73.21435
#
# Poissons Ratio (x) = 0.05475 0.42249
# Poissons Ratio (y) = 0.06735 0.48187
# Poissons Ratio (z) = 0.35905 0.33289
#
# Static dielectric constant tensor:
#      x y z
#    x 1.630530 0.000000 0.000000 
#    y 0.000000 1.586390 0.000000 
#    z 0.000000 0.000000 1.666070 
# 
# From -- ./inp_files/14369.got.cif
#   From: 2010.05.17/outbox.cif.g08.bks.cpg/sg20_8_cif.got.tgz:14369.got - 2010.06.03 22:52:26.
