data_PCOD9317603
_publ_section_title
;
Structure prediction by ZEFSAII (Michael W. Deem and Ramdas Pophale) SiO2 
 PCOD9317603
Probable space group: C 2 2 21
;
_chemical_formula_sum "Si O2"
_cell_formula_units_Z 36
_cell_length_a 27.957400
_cell_length_b 12.978348
_cell_length_c 5.217691
_cell_angle_alpha 90.000000
_cell_angle_beta 90.000000
_cell_angle_gamma 90.000000
_cell_volume 1893.191523
_symmetry_space_group_name_H-M "C 2 2 21"
_symmetry_group_IT_number 20
_symmetry_cell_setting 'orthorhombic'
loop_
_space_group_symop_operation_xyz
x,y,z
-x,-y,1/2+z
x,-y,-z
-x,y,1/2-z
1/2+x,1/2+y,z
1/2-x,1/2-y,1/2+z
1/2+x,1/2-y,-z
1/2-x,1/2+y,1/2-z
loop_
_atom_site_type_symbol
_atom_site_label
_atom_site_fract_x
_atom_site_fract_y
_atom_site_fract_z
Si Si1 0.255804 0.917602 0.832606
Si Si2 0.367842 0.720020 0.974111
Si Si3 0.032683 0.878637 0.500384
Si Si4 0.321685 0.500000 0.000000
Si Si5 0.810357 0.275200 0.471733
O O1 0.212706 0.989581 0.739816
O O2 0.230270 0.815524 0.953071
O O3 0.282930 0.874327 0.582276
O O4 0.285546 0.000000 0.000000
O O5 0.424598 0.705048 0.000731
O O6 0.348934 0.753787 0.696280
O O7 0.350962 0.602697 0.996612
O O8 0.338664 0.778098 0.201422
O O9 0.000000 0.865925 0.250000
O O10 0.049155 0.000000 0.500000
O O11 0.000000 0.866145 0.750000
#
# Coordination Sequence:
#
# PCOD9317603 Si02
#       5
#     8   8   8   4   8
#     4  11  22  38  54  80 115 161 209 245 289 323
#     4  11  21  37  52  81 112 150 197 237 291 344
#     4  10  20  34  55  80 109 146 192 240 291 356
#     4  10  20  32  54  74 108 162 188 242 276 332
#     4  11  24  35  55  80 114 153 208 243 280 347
#
# _framework density 19.015509999999999
#
# number of rings (size 3 to 8) (size 9 to 14) (size 15 to 20)
#    0.000    1.333    3.333    4.000    3.111    0.000 
#    0.000    0.000    0.000    0.000    0.000    0.000 
#    0.000    5.333    0.000    0.000    0.000    0.000 
#
# Total GULP energy -100333.098164 kJ/mol
# GULP energy per Si atom -5574.061009 kJ/mol
# Density = 1.897223 g / cm^3
# Si number density = 19.015510 Si / 1000 Ang^3
#
#
#
# Elastic Constant Matrix: (Units=GPa)
#
#
# Indices 1 2 3 4 5 6 
#
# 1 93.6913 21.6971 40.9002 0.0000 0.0000 0.0000
# 2 21.6971 47.3272 26.3230 0.0000 0.0000 0.0000
# 3 40.9002 26.3230 130.4354 0.0000 0.0000 0.0000
# 4 0.0000 0.0000 0.0000 44.7175 0.0000 0.0000
# 5 0.0000 0.0000 0.0000 0.0000 6.7724 0.0000
# 6 0.0000 0.0000 0.0000 0.0000 0.0000 -12.7574
#
#
#
# Elastic Compliance Matrix: (Units=1/GPa)
#
#
# Indices 1 2 3 4 5 6 
#
# 1 0.013061 -0.004179 -0.003252 0.000000 0.000000 0.000000
# 2 -0.004179 0.025138 -0.003763 0.000000 0.000000 0.000000
# 3 -0.003252 -0.003763 0.009446 0.000000 0.000000 0.000000
# 4 0.000000 0.000000 0.000000 0.022363 0.000000 0.000000
# 5 0.000000 0.000000 0.000000 0.000000 0.147659 0.000000
# 6 0.000000 0.000000 0.000000 0.000000 0.000000 -0.078386
#
#
# Mechanical properties :
#
#
# Convention : Reuss Voigt Hill
#
# Bulk Modulus (GPa) = 39.59271 49.92161 44.75716
# Shear Modulus (GPa) = 29.39679 19.91541 24.65610
#
# Velocity S-wave (km/s) = 3.93611 3.23975 3.60478
# Velocity P-wave (km/s) = 6.44389 6.34860 6.39642
#
# Compressibility (1/GPa) = 0.02525717
#
# Stress axis : x y z
#
# Youngs Moduli (GPa) = 76.56514 39.78021 105.86810
#
# Poissons Ratio (x) = 0.16624 0.34429
# Poissons Ratio (y) = 0.31996 0.39835
# Poissons Ratio (z) = 0.24900 0.14968
#
# Static dielectric constant tensor:
#      x y z
#    x 1.707080 0.000000 0.000000 
#    y 0.000000 1.751200 0.000000 
#    z 0.000000 0.000000 1.945400 
# 
# From -- ./inp_files/3539.got.cif
#   From: 2010.05.17/outbox.cif.g08.bks.cpg/sg20_2_cif.got.tgz:3539.got - 2010.06.03 22:52:26.
