data_PCOD9317336
_publ_section_title
;
Structure prediction by ZEFSAII (Michael W. Deem and Ramdas Pophale) SiO2 
 PCOD9317336
Probable space group: C 2 2 21
;
_chemical_formula_sum "Si O2"
_cell_formula_units_Z 64
_cell_length_a 15.065482
_cell_length_b 8.353309
_cell_length_c 22.272247
_cell_angle_alpha 90.000000
_cell_angle_beta 90.000000
_cell_angle_gamma 90.000000
_cell_volume 2802.887147
_symmetry_space_group_name_H-M "C 2 2 21"
_symmetry_group_IT_number 20
_symmetry_cell_setting 'orthorhombic'
loop_
_space_group_symop_operation_xyz
x,y,z
-x,-y,1/2+z
x,-y,-z
-x,y,1/2-z
1/2+x,1/2+y,z
1/2-x,1/2-y,1/2+z
1/2+x,1/2-y,-z
1/2-x,1/2+y,1/2-z
loop_
_atom_site_type_symbol
_atom_site_label
_atom_site_fract_x
_atom_site_fract_y
_atom_site_fract_z
Si Si1 0.719644 0.170374 0.036808
Si Si2 0.014505 0.313991 0.985711
Si Si3 0.050107 0.731074 0.887983
Si Si4 0.440485 0.473432 0.309298
Si Si5 0.756211 0.223324 0.415124
Si Si6 0.248496 0.124339 0.849663
Si Si7 0.066386 0.469899 0.305704
Si Si8 0.584163 0.288122 0.372154
O O1 0.613729 0.202371 0.041029
O O2 0.754052 0.229392 0.102260
O O3 0.235125 0.500000 0.000000
O O4 0.756952 0.290208 0.986173
O O5 0.941488 0.277087 0.937090
O O6 0.006409 0.500000 0.000000
O O7 0.009259 0.214218 0.047984
O O8 0.149486 0.689159 0.907248
O O9 0.987081 0.595407 0.863033
O O10 0.068858 0.845521 0.831443
O O11 0.500000 0.463154 0.250000
O O12 0.345758 0.383039 0.313473
O O13 0.507851 0.411375 0.359460
O O14 0.685684 0.332795 0.380226
O O15 0.753356 0.045468 0.386418
O O16 0.336727 0.114536 0.807831
O O17 0.079837 0.656559 0.319626
O O18 0.000000 0.448447 0.250000
#
# Coordination Sequence:
#
# PCOD9317336 Si02
#       8
#     8   8   8   8   8   8   8   8
#     4  10  20  36  62  99 134 163 210 270 330 392
#     4  10  19  36  64  96 130 163 208 276 329 396
#     4  10  22  41  63  91 130 172 215 269 333 392
#     4  11  24  43  64  91 133 176 222 274 330 390
#     4   9  22  37  61  92 134 170 207 259 334 401
#     4  10  22  42  65  92 127 176 220 264 329 393
#     4  11  24  42  67  92 123 175 231 269 315 394
#     4  11  22  40  64  95 128 170 218 269 332 391
#
# _framework density 22.833599
#
# number of rings (size 3 to 8) (size 9 to 14) (size 15 to 20)
#    0.000    1.750    2.500    1.125    1.750    2.500 
#    0.000    3.750    0.000    0.000    0.000    0.000 
#    0.000    0.000    0.000    0.000    0.000    0.000 
#
# Total GULP energy -178271.034941 kJ/mol
# GULP energy per Si atom -5570.969842 kJ/mol
# Density = 2.278163 g / cm^3
# Si number density = 22.833599 Si / 1000 Ang^3
#
#
#
# Elastic Constant Matrix: (Units=GPa)
#
#
# Indices 1 2 3 4 5 6 
#
# 1 102.2381 22.9249 61.5843 0.0000 0.0000 0.0000
# 2 22.9249 28.0564 14.1022 0.0000 0.0000 0.0000
# 3 61.5843 14.1022 109.4688 0.0000 0.0000 0.0000
# 4 0.0000 0.0000 0.0000 26.6407 0.0000 0.0000
# 5 0.0000 0.0000 0.0000 0.0000 20.1117 0.0000
# 6 0.0000 0.0000 0.0000 0.0000 0.0000 11.9051
#
#
#
# Elastic Compliance Matrix: (Units=1/GPa)
#
#
# Indices 1 2 3 4 5 6 
#
# 1 0.016941 -0.009679 -0.008284 0.000000 0.000000 0.000000
# 2 -0.009679 0.043640 -0.000177 0.000000 0.000000 0.000000
# 3 -0.008284 -0.000177 0.013818 0.000000 0.000000 0.000000
# 4 0.000000 0.000000 0.000000 0.037537 0.000000 0.000000
# 5 0.000000 0.000000 0.000000 0.000000 0.049722 0.000000
# 6 0.000000 0.000000 0.000000 0.000000 0.000000 0.083998
#
#
# Mechanical properties :
#
#
# Convention : Reuss Voigt Hill
#
# Bulk Modulus (GPa) = 26.23277 48.55402 37.39340
# Shear Modulus (GPa) = 16.96976 21.14163 19.05570
#
# Velocity S-wave (km/s) = 2.72911 3.04616 2.89199
# Velocity P-wave (km/s) = 4.63081 5.80367 5.25009
#
# Compressibility (1/GPa) = 0.03812026
#
# Stress axis : x y z
#
# Youngs Moduli (GPa) = 59.02749 22.91477 72.36897
#
# Poissons Ratio (x) = 0.22179 0.59949
# Poissons Ratio (y) = 0.57132 0.01279
# Poissons Ratio (z) = 0.48897 0.00405
#
# Static dielectric constant tensor:
#      x y z
#    x 1.884270 0.000000 0.000000 
#    y 0.000000 1.905050 0.000000 
#    z 0.000000 0.000000 1.898490 
# 
# From -- ./inp_files/29338.got.cif
#   From: 2010.05.17/outbox.cif.g08.bks.cpg/sg20_15_cif.got.tgz:29338.got - 2010.06.03 22:52:26.
