data_PCOD9317802
_publ_section_title
;
Structure prediction by ZEFSAII (Michael W. Deem and Ramdas Pophale) SiO2 
 PCOD9317802
Probable space group: C 2 2 21
;
_chemical_formula_sum "Si O2"
_cell_formula_units_Z 56
_cell_length_a 31.317215
_cell_length_b 5.718829
_cell_length_c 14.660240
_cell_angle_alpha 90.000000
_cell_angle_beta 90.000000
_cell_angle_gamma 90.000000
_cell_volume 2625.616692
_symmetry_space_group_name_H-M "C 2 2 21"
_symmetry_group_IT_number 20
_symmetry_cell_setting 'orthorhombic'
loop_
_space_group_symop_operation_xyz
x,y,z
-x,-y,1/2+z
x,-y,-z
-x,y,1/2-z
1/2+x,1/2+y,z
1/2-x,1/2-y,1/2+z
1/2+x,1/2-y,-z
1/2-x,1/2+y,1/2-z
loop_
_atom_site_type_symbol
_atom_site_label
_atom_site_fract_x
_atom_site_fract_y
_atom_site_fract_z
Si Si1 0.346306 0.982481 0.682414
Si Si2 0.332918 0.692920 0.141737
Si Si3 0.755937 0.296002 0.697588
Si Si4 0.898152 0.186458 0.422041
Si Si5 0.471794 0.000000 0.500000
Si Si6 0.116753 0.500000 0.500000
Si Si7 0.456707 0.306631 0.080293
Si Si8 0.902282 0.901017 0.237740
O O1 0.304768 0.824441 0.665573
O O2 0.387594 0.840309 0.716661
O O3 0.334852 0.148441 0.767333
O O4 0.360051 0.132647 0.595963
O O5 0.282568 0.662310 0.126117
O O6 0.354989 0.824724 0.058753
O O7 0.362648 0.476462 0.171594
O O8 0.747942 0.528334 0.762977
O O9 0.940952 0.318577 0.450747
O O10 0.887841 0.000000 0.500000
O O11 0.905368 0.070075 0.323944
O O12 0.502122 0.855588 0.568534
O O13 0.084467 0.356837 0.563455
O O14 0.445351 0.409646 0.178648
O O15 0.458143 0.500000 0.000000
#
# Coordination Sequence:
#
# PCOD9317802 Si02
#       8
#     8   8   8   8   4   4   8   8
#     4  10  21  39  69 100 134 186 236 282 343 419
#     4  10  20  35  65 105 140 183 229 279 353 411
#     4  10  20  37  66 106 144 187 243 299 344 416
#     4  11  25  47  71  93 132 180 238 295 350 419
#     4  11  26  48  66  94 138 176 214 296 364 419
#     4  11  20  36  66 102 146 178 220 286 352 425
#     4  11  23  41  70 100 138 170 221 283 357 431
#     4  11  21  41  72 100 127 183 230 275 349 429
#
# _framework density 21.328323999999999
#
# number of rings (size 3 to 8) (size 9 to 14) (size 15 to 20)
#    0.000    1.429    4.286    1.286    0.000    0.000 
#    0.000   10.714    4.714    5.143    1.857    0.000 
#    0.000    0.000    0.000    0.000    0.000    0.000 
#
# Total GULP energy -156267.261561 kJ/mol
# GULP energy per Si atom -5580.973627 kJ/mol
# Density = 2.127978 g / cm^3
# Si number density = 21.328324 Si / 1000 Ang^3
#
#
#
# Elastic Constant Matrix: (Units=GPa)
#
#
# Indices 1 2 3 4 5 6 
#
# 1 66.8137 -3.7041 21.2695 0.0000 0.0000 0.0000
# 2 -3.7041 61.2741 16.0874 0.0000 0.0000 0.0000
# 3 21.2695 16.0874 79.8223 0.0000 0.0000 0.0000
# 4 0.0000 0.0000 0.0000 29.7008 0.0000 0.0000
# 5 0.0000 0.0000 0.0000 0.0000 -390.3234 0.0000
# 6 0.0000 0.0000 0.0000 0.0000 0.0000 44.5115
#
#
#
# Elastic Compliance Matrix: (Units=1/GPa)
#
#
# Indices 1 2 3 4 5 6 
#
# 1 0.016654 0.002293 -0.004900 0.000000 0.000000 0.000000
# 2 0.002293 0.017548 -0.004148 0.000000 0.000000 0.000000
# 3 -0.004900 -0.004148 0.014669 0.000000 0.000000 0.000000
# 4 0.000000 0.000000 0.000000 0.033669 0.000000 0.000000
# 5 0.000000 0.000000 0.000000 0.000000 -0.002562 0.000000
# 6 0.000000 0.000000 0.000000 0.000000 0.000000 0.022466
#
#
# Mechanical properties :
#
#
# Convention : Reuss Voigt Hill
#
# Bulk Modulus (GPa) = 28.27852 30.57952 29.42902
# Shear Modulus (GPa) = 39.14196 -51.60508 -6.23156
#
# Velocity S-wave (km/s) = 4.28858 -4.92423 -1.71116
# Velocity P-wave (km/s) = 6.14899 4.23818 3.15023
#
# Compressibility (1/GPa) = 0.03536253
#
# Stress axis : x y z
#
# Youngs Moduli (GPa) = 60.04590 56.98756 68.16939
#
# Poissons Ratio (x) = -0.13068 0.33401
# Poissons Ratio (y) = -0.13770 0.28274
# Poissons Ratio (z) = 0.29421 0.23636
#
# Static dielectric constant tensor:
#      x y z
#    x 1.788910 0.000000 0.000000 
#    y 0.000000 6.357390 0.000000 
#    z 0.000000 0.000000 1.708190 
# 
# From -- ./inp_files/22331.got.cif
#   From: 2010.05.17/outbox.cif.g08.bks.cpg/sg20_12_cif.got.tgz:22331.got - 2010.06.03 22:52:26.
