data_PCOD9317645
_publ_section_title
;
Structure prediction by ZEFSAII (Michael W. Deem and Ramdas Pophale) SiO2 
 PCOD9317645
Probable space group: C 2 2 21
;
_chemical_formula_sum "Si O2"
_cell_formula_units_Z 36
_cell_length_a 18.415474
_cell_length_b 15.520047
_cell_length_c 5.163461
_cell_angle_alpha 90.000000
_cell_angle_beta 90.000000
_cell_angle_gamma 90.000000
_cell_volume 1475.763739
_symmetry_space_group_name_H-M "C 2 2 21"
_symmetry_group_IT_number 20
_symmetry_cell_setting 'orthorhombic'
loop_
_space_group_symop_operation_xyz
x,y,z
-x,-y,1/2+z
x,-y,-z
-x,y,1/2-z
1/2+x,1/2+y,z
1/2-x,1/2-y,1/2+z
1/2+x,1/2-y,-z
1/2-x,1/2+y,1/2-z
loop_
_atom_site_type_symbol
_atom_site_label
_atom_site_fract_x
_atom_site_fract_y
_atom_site_fract_z
Si Si1 0.455306 0.376973 0.995546
Si Si2 0.702812 0.149064 0.490844
Si Si3 0.791512 0.857799 0.006102
Si Si4 0.421980 0.082258 0.360833
Si Si5 0.500000 0.207224 0.750000
O O1 0.500000 0.413458 0.750000
O O2 0.459267 0.273826 0.939323
O O3 0.500000 0.394291 0.250000
O O4 0.371227 0.397616 0.033423
O O5 0.733726 0.121043 0.768663
O O6 0.701329 0.253314 0.484790
O O7 0.627659 0.113856 0.374695
O O8 0.760801 0.120316 0.274569
O O9 0.500000 0.054823 0.250000
O O10 0.443316 0.153726 0.576211
O O11 0.388546 0.000000 0.500000
#
# Coordination Sequence:
#
# PCOD9317645 Si02
#       5
#     8   8   8   8   4
#     4  10  20  33  59  86 117 147 194 247 315 377
#     4  10  23  34  57  78 113 157 211 255 315 358
#     4  10  20  37  55  83 114 150 198 260 318 375
#     4  12  25  40  56  82 119 174 229 265 294 351
#     4  10  22  34  60  80 120 158 224 262 298 360
#
# _framework density 24.394148999999999
#
# number of rings (size 3 to 8) (size 9 to 14) (size 15 to 20)
#    0.667    0.889    1.111    4.667   12.444    0.000 
#    0.000    0.000    0.000    0.000    0.000    0.000 
#    0.000    5.333    0.000    0.444    1.333    0.889 
#
# Total GULP energy -100735.675572 kJ/mol
# GULP energy per Si atom -5596.426421 kJ/mol
# Density = 2.433863 g / cm^3
# Si number density = 24.394149 Si / 1000 Ang^3
#
#
#
# Elastic Constant Matrix: (Units=GPa)
#
#
# Indices 1 2 3 4 5 6 
#
# 1 146.1098 17.3329 28.1791 0.0000 0.0000 0.0000
# 2 17.3329 94.1565 27.8745 0.0000 0.0000 0.0000
# 3 28.1791 27.8745 121.7418 0.0000 0.0000 0.0000
# 4 0.0000 0.0000 0.0000 588.0117 0.0000 0.0000
# 5 0.0000 0.0000 0.0000 0.0000 49.7490 0.0000
# 6 0.0000 0.0000 0.0000 0.0000 0.0000 -3.9535
#
#
#
# Elastic Compliance Matrix: (Units=1/GPa)
#
#
# Indices 1 2 3 4 5 6 
#
# 1 0.007234 -0.000897 -0.001469 0.000000 0.000000 0.000000
# 2 -0.000897 0.011504 -0.002426 0.000000 0.000000 0.000000
# 3 -0.001469 -0.002426 0.009110 0.000000 0.000000 0.000000
# 4 0.000000 0.000000 0.000000 0.001701 0.000000 0.000000
# 5 0.000000 0.000000 0.000000 0.000000 0.020101 0.000000
# 6 0.000000 0.000000 0.000000 0.000000 0.000000 -0.252939
#
#
# Mechanical properties :
#
#
# Convention : Reuss Voigt Hill
#
# Bulk Modulus (GPa) = 54.75523 56.53123 55.64323
# Shear Modulus (GPa) = -26.65001 146.00287 59.67643
#
# Velocity S-wave (km/s) = -3.30885 7.74477 4.95142
# Velocity P-wave (km/s) = 2.81013 10.15873 7.45307
#
# Compressibility (1/GPa) = 0.01826310
#
# Stress axis : x y z
#
# Youngs Moduli (GPa) = 138.23848 86.92602 109.77286
#
# Poissons Ratio (x) = 0.07795 0.16126
# Poissons Ratio (y) = 0.12396 0.26636
# Poissons Ratio (z) = 0.20308 0.21092
#
# Static dielectric constant tensor:
#      x y z
#    x 1.759220 0.000000 0.000000 
#    y 0.000000 1.969120 0.000000 
#    z 0.000000 0.000000 1.935440 
# 
# From -- ./inp_files/2466.got.cif
#   From: 2010.05.17/outbox.cif.g08.bks.cpg/sg20_2_cif.got.tgz:2466.got - 2010.06.03 22:52:26.
