data_PCOD9317201
_publ_section_title
;
Structure prediction by ZEFSAII (Michael W. Deem and Ramdas Pophale) SiO2 
 PCOD9317201
Probable space group: C 2 2 21
;
_chemical_formula_sum "Si O2"
_cell_formula_units_Z 52
_cell_length_a 22.400812
_cell_length_b 8.097923
_cell_length_c 12.311161
_cell_angle_alpha 90.000000
_cell_angle_beta 90.000000
_cell_angle_gamma 90.000000
_cell_volume 2233.245230
_symmetry_space_group_name_H-M "C 2 2 21"
_symmetry_group_IT_number 20
_symmetry_cell_setting 'orthorhombic'
loop_
_space_group_symop_operation_xyz
x,y,z
-x,-y,1/2+z
x,-y,-z
-x,y,1/2-z
1/2+x,1/2+y,z
1/2-x,1/2-y,1/2+z
1/2+x,1/2-y,-z
1/2-x,1/2+y,1/2-z
loop_
_atom_site_type_symbol
_atom_site_label
_atom_site_fract_x
_atom_site_fract_y
_atom_site_fract_z
Si Si1 0.147229 0.859634 0.846098
Si Si2 0.500000 0.124564 0.750000
Si Si3 0.281688 0.907637 0.896026
Si Si4 0.320461 0.524673 0.880964
Si Si5 0.688846 0.013512 0.164441
Si Si6 0.017281 0.840940 0.954135
Si Si7 0.074016 0.607794 0.108989
O O1 0.209772 0.921284 0.895459
O O2 0.159452 0.662661 0.862638
O O3 0.082931 0.887109 0.902487
O O4 0.147944 0.938917 0.723420
O O5 0.487405 0.236344 0.856599
O O6 0.448848 0.000722 0.709102
O O7 0.304888 0.720830 0.874811
O O8 0.301770 0.004691 0.791004
O O9 0.306615 0.000000 0.000000
O O10 0.253305 0.446768 0.883827
O O11 0.347982 0.500000 0.000000
O O12 0.641694 0.155177 0.134425
O O13 0.029637 0.745240 0.067056
O O14 0.984685 0.000000 0.000000
O O15 0.075708 0.500000 0.000000
#
# Coordination Sequence:
#
# PCOD9317201 Si02
#       7
#     8   4   8   8   8   8   8
#     4  10  20  37  58  91 126 166 215 262 308 383
#     4  10  22  44  68  96 124 154 220 274 316 394
#     4  10  21  34  53  87 130 174 214 256 308 373
#     4  10  21  33  55  85 133 172 210 261 313 364
#     4  10  19  35  60  87 123 170 216 256 303 380
#     4  11  24  41  71  98 127 159 209 272 333 383
#     4  10  20  40  68  93 119 164 211 259 320 387
#
# _framework density 23.284500000000001
#
# number of rings (size 3 to 8) (size 9 to 14) (size 15 to 20)
#    0.000    1.846    3.077    1.846    4.308    1.846 
#    0.000    3.077    0.000    0.000    0.000    0.000 
#    0.000    0.000    0.000    0.000    0.000    0.000 
#
# Total GULP energy -144864.682421 kJ/mol
# GULP energy per Si atom -5571.718555 kJ/mol
# Density = 2.323150 g / cm^3
# Si number density = 23.284500 Si / 1000 Ang^3
#
#
#
# Elastic Constant Matrix: (Units=GPa)
#
#
# Indices 1 2 3 4 5 6 
#
# 1 66.8835 15.9712 22.5972 0.0000 0.0000 0.0000
# 2 15.9712 52.7518 25.5033 0.0000 0.0000 0.0000
# 3 22.5972 25.5033 93.6527 0.0000 0.0000 0.0000
# 4 0.0000 0.0000 0.0000 44.3846 0.0000 0.0000
# 5 0.0000 0.0000 0.0000 0.0000 -23.9493 0.0000
# 6 0.0000 0.0000 0.0000 0.0000 0.0000 5.1802
#
#
#
# Elastic Compliance Matrix: (Units=1/GPa)
#
#
# Indices 1 2 3 4 5 6 
#
# 1 0.016856 -0.003613 -0.003083 0.000000 0.000000 0.000000
# 2 -0.003613 0.022605 -0.005284 0.000000 0.000000 0.000000
# 3 -0.003083 -0.005284 0.012861 0.000000 0.000000 0.000000
# 4 0.000000 0.000000 0.000000 0.022530 0.000000 0.000000
# 5 0.000000 0.000000 0.000000 0.000000 -0.041755 0.000000
# 6 0.000000 0.000000 0.000000 0.000000 0.000000 0.193043
#
#
# Mechanical properties :
#
#
# Convention : Reuss Voigt Hill
#
# Bulk Modulus (GPa) = 35.25908 37.93682 36.59795
# Shear Modulus (GPa) = 19.26381 15.07086 17.16734
#
# Velocity S-wave (km/s) = 2.87944 2.54687 2.71825
# Velocity P-wave (km/s) = 5.12157 4.99768 5.06001
#
# Compressibility (1/GPa) = 0.02836149
#
# Stress axis : x y z
#
# Youngs Moduli (GPa) = 59.32691 44.23785 77.75646
#
# Poissons Ratio (x) = 0.15981 0.23975
# Poissons Ratio (y) = 0.21433 0.41087
# Poissons Ratio (z) = 0.18292 0.23376
#
# Static dielectric constant tensor:
#      x y z
#    x 1.932690 0.000000 0.000000 
#    y 0.000000 2.015150 0.000000 
#    z 0.000000 0.000000 1.878690 
# 
# From -- ./inp_files/17027.got.cif
#   From: 2010.05.17/outbox.cif.g08.bks.cpg/sg20_9_cif.got.tgz:17027.got - 2010.06.03 22:52:26.
