data_PCOD9317842
_publ_section_title
;
Structure prediction by ZEFSAII (Michael W. Deem and Ramdas Pophale) SiO2 
 PCOD9317842
Probable space group: C 2 2 21
;
_chemical_formula_sum "Si O2"
_cell_formula_units_Z 64
_cell_length_a 9.057851
_cell_length_b 24.035952
_cell_length_c 15.168096
_cell_angle_alpha 90.000000
_cell_angle_beta 90.000000
_cell_angle_gamma 90.000000
_cell_volume 3302.307943
_symmetry_space_group_name_H-M "C 2 2 21"
_symmetry_group_IT_number 20
_symmetry_cell_setting 'orthorhombic'
loop_
_space_group_symop_operation_xyz
x,y,z
-x,-y,1/2+z
x,-y,-z
-x,y,1/2-z
1/2+x,1/2+y,z
1/2-x,1/2-y,1/2+z
1/2+x,1/2-y,-z
1/2-x,1/2+y,1/2-z
loop_
_atom_site_type_symbol
_atom_site_label
_atom_site_fract_x
_atom_site_fract_y
_atom_site_fract_z
Si Si1 0.927094 0.869295 0.845145
Si Si2 0.080267 0.365837 0.841248
Si Si3 0.079711 0.239970 0.157120
Si Si4 0.070975 0.065535 0.009461
Si Si5 0.440187 0.347047 0.350867
Si Si6 0.376066 0.826935 0.082768
Si Si7 0.408014 0.065233 0.020277
Si Si8 0.895316 0.736802 0.095390
O O1 0.754384 0.861522 0.832112
O O2 0.000000 0.881404 0.750000
O O3 0.007933 0.814840 0.885698
O O4 0.955778 0.915397 0.917763
O O5 0.000000 0.377807 0.750000
O O6 0.024406 0.412690 0.909036
O O7 0.018234 0.307071 0.875365
O O8 0.253907 0.234996 0.158987
O O9 0.000000 0.239510 0.250000
O O10 0.023726 0.296357 0.113994
O O11 0.054245 0.099773 0.917608
O O12 0.236855 0.075517 0.047914
O O13 0.058326 0.000000 0.000000
O O14 0.500000 0.355339 0.250000
O O15 0.267040 0.328204 0.354043
O O16 0.535485 0.297810 0.396477
O O17 0.416958 0.890395 0.059414
O O18 0.336022 0.788820 0.997032
O O19 0.425488 0.000000 0.000000
#
# Coordination Sequence:
#
# PCOD9317842 Si02
#       8
#     8   8   8   8   8   8   8   8
#     4  11  22  37  60  88 120 154 197 249 303 366
#     4  11  21  36  59  87 116 150 193 243 300 363
#     4  11  21  35  54  82 115 146 183 231 286 347
#     4  10  22  41  62  84 116 159 206 255 308 366
#     4  11  22  37  58  89 123 159 203 254 313 374
#     4  10  20  36  57  82 115 156 195 239 296 359
#     4   9  20  39  60  81 112 153 198 244 294 351
#     4  11  21  35  58  85 118 155 194 239 297 364
#
# _framework density 19.380386000000001
#
# number of rings (size 3 to 8) (size 9 to 14) (size 15 to 20)
#    0.000    1.500    0.000    7.875    0.000    4.000 
#    0.000    1.875    0.000    0.000    0.000    0.000 
#    0.000    0.000    0.000    0.000    0.000    0.000 
#
# Total GULP energy -178500.269182 kJ/mol
# GULP energy per Si atom -5578.133412 kJ/mol
# Density = 1.933628 g / cm^3
# Si number density = 19.380386 Si / 1000 Ang^3
#
#
#
# Elastic Constant Matrix: (Units=GPa)
#
#
# Indices 1 2 3 4 5 6 
#
# 1 107.7247 30.7629 25.3756 0.0000 0.0000 0.0000
# 2 30.7629 104.8297 18.2049 0.0000 0.0000 0.0000
# 3 25.3756 18.2049 73.9373 0.0000 0.0000 0.0000
# 4 0.0000 0.0000 0.0000 14.8565 0.0000 0.0000
# 5 0.0000 0.0000 0.0000 0.0000 26.1432 0.0000
# 6 0.0000 0.0000 0.0000 0.0000 0.0000 12.8998
#
#
#
# Elastic Compliance Matrix: (Units=1/GPa)
#
#
# Indices 1 2 3 4 5 6 
#
# 1 0.010750 -0.002626 -0.003043 0.000000 0.000000 0.000000
# 2 -0.002626 0.010607 -0.001710 0.000000 0.000000 0.000000
# 3 -0.003043 -0.001710 0.014990 0.000000 0.000000 0.000000
# 4 0.000000 0.000000 0.000000 0.067311 0.000000 0.000000
# 5 0.000000 0.000000 0.000000 0.000000 0.038251 0.000000
# 6 0.000000 0.000000 0.000000 0.000000 0.000000 0.077520
#
#
# Mechanical properties :
#
#
# Convention : Reuss Voigt Hill
#
# Bulk Modulus (GPa) = 46.32085 48.35316 47.33701
# Shear Modulus (GPa) = 20.71394 24.92314 22.81854
#
# Velocity S-wave (km/s) = 3.27281 3.58997 3.43505
# Velocity P-wave (km/s) = 6.18341 6.49520 6.34122
#
# Compressibility (1/GPa) = 0.02158855
#
# Stress axis : x y z
#
# Youngs Moduli (GPa) = 93.02664 94.27773 66.70954
#
# Poissons Ratio (x) = 0.24759 0.20298
# Poissons Ratio (y) = 0.24430 0.11410
# Poissons Ratio (z) = 0.28305 0.16125
#
# Static dielectric constant tensor:
#      x y z
#    x 1.643760 0.000000 0.000000 
#    y 0.000000 1.807980 0.000000 
#    z 0.000000 0.000000 1.773150 
# 
# From -- ./inp_files/19352.got.cif
#   From: 2010.05.17/outbox.cif.g08.bks.cpg/sg20_10_cif.got.tgz:19352.got - 2010.06.03 22:52:26.
