data_PCOD9317498
_publ_section_title
;
Structure prediction by ZEFSAII (Michael W. Deem and Ramdas Pophale) SiO2 
 PCOD9317498
Probable space group: C 2 2 21
;
_chemical_formula_sum "Si O2"
_cell_formula_units_Z 60
_cell_length_a 9.300936
_cell_length_b 19.558921
_cell_length_c 16.224701
_cell_angle_alpha 90.000000
_cell_angle_beta 90.000000
_cell_angle_gamma 90.000000
_cell_volume 2951.537128
_symmetry_space_group_name_H-M "C 2 2 21"
_symmetry_group_IT_number 20
_symmetry_cell_setting 'orthorhombic'
loop_
_space_group_symop_operation_xyz
x,y,z
-x,-y,1/2+z
x,-y,-z
-x,y,1/2-z
1/2+x,1/2+y,z
1/2-x,1/2-y,1/2+z
1/2+x,1/2-y,-z
1/2-x,1/2+y,1/2-z
loop_
_atom_site_type_symbol
_atom_site_label
_atom_site_fract_x
_atom_site_fract_y
_atom_site_fract_z
Si Si1 0.905395 0.328962 0.827488
Si Si2 0.291560 0.939743 0.299055
Si Si3 0.312212 0.432669 0.610125
Si Si4 0.948291 0.685842 0.983420
Si Si5 0.920787 0.551078 0.875413
Si Si6 0.088574 0.827172 0.331219
Si Si7 0.881041 0.185489 0.512345
Si Si8 0.500000 0.483884 0.750000
O O1 0.773661 0.379335 0.833370
O O2 0.863320 0.250206 0.814929
O O3 0.000000 0.349433 0.750000
O O4 0.974595 0.330013 0.919175
O O5 0.421275 0.976248 0.348094
O O6 0.354208 0.919486 0.209539
O O7 0.226372 0.874268 0.345399
O O8 0.150086 0.982094 0.277888
O O9 0.196681 0.494470 0.595696
O O10 0.361140 0.387667 0.532340
O O11 0.449140 0.452152 0.663523
O O12 0.953749 0.614077 0.935652
O O13 0.782385 0.708416 0.971762
O O14 0.045775 0.751606 0.962809
O O15 0.000000 0.850300 0.250000
O O16 0.978111 0.826407 0.407142
#
# Coordination Sequence:
#
# PCOD9317498 Si02
#       8
#     8   8   8   8   8   8   8   4
#     4   9  21  38  64  89 128 172 215 265 332 391
#     4  10  21  39  67  96 128 175 222 282 319 414
#     4  10  23  44  63  94 134 180 216 279 338 405
#     4  10  22  42  64  98 130 177 218 283 330 402
#     4  10  23  40  68  96 133 174 230 272 340 407
#     4  10  19  39  66  99 125 171 221 274 333 398
#     4  10  23  41  66  95 137 174 218 282 342 395
#     4  10  22  42  62  94 134 172 224 272 342 390
#
# _framework density 20.328391
#
# number of rings (size 3 to 8) (size 9 to 14) (size 15 to 20)
#    0.000    2.133    0.667    0.800   11.200    2.133 
#    9.600    0.000    5.867    0.000    0.000    0.000 
#    0.000    0.000    0.000    0.000    0.000    0.000 
#
# Total GULP energy -167087.511478 kJ/mol
# GULP energy per Si atom -5569.583716 kJ/mol
# Density = 2.028212 g / cm^3
# Si number density = 20.328391 Si / 1000 Ang^3
#
#
#
# Elastic Constant Matrix: (Units=GPa)
#
#
# Indices 1 2 3 4 5 6 
#
# 1 101.5635 44.5642 38.5689 0.0000 0.0000 0.0000
# 2 44.5642 61.5220 22.0578 0.0000 0.0000 0.0000
# 3 38.5689 22.0578 61.1664 0.0000 0.0000 0.0000
# 4 0.0000 0.0000 0.0000 22.0205 0.0000 0.0000
# 5 0.0000 0.0000 0.0000 0.0000 22.5276 0.0000
# 6 0.0000 0.0000 0.0000 0.0000 0.0000 -36.8020
#
#
#
# Elastic Compliance Matrix: (Units=1/GPa)
#
#
# Indices 1 2 3 4 5 6 
#
# 1 0.016750 -0.009586 -0.007105 0.000000 0.000000 0.000000
# 2 -0.009586 0.024154 -0.002666 0.000000 0.000000 0.000000
# 3 -0.007105 -0.002666 0.021790 0.000000 0.000000 0.000000
# 4 0.000000 0.000000 0.000000 0.045412 0.000000 0.000000
# 5 0.000000 0.000000 0.000000 0.000000 0.044390 0.000000
# 6 0.000000 0.000000 0.000000 0.000000 0.000000 -0.027172
#
#
# Mechanical properties :
#
#
# Convention : Reuss Voigt Hill
#
# Bulk Modulus (GPa) = 41.70023 48.29263 44.99643
# Shear Modulus (GPa) = 29.06438 9.48662 19.27550
#
# Velocity S-wave (km/s) = 3.78530 2.16259 3.08264
# Velocity P-wave (km/s) = 6.29781 5.48120 5.90364
#
# Compressibility (1/GPa) = 0.02398068
#
# Stress axis : x y z
#
# Youngs Moduli (GPa) = 59.70026 41.40135 45.89162
#
# Poissons Ratio (x) = 0.39687 0.32607
# Poissons Ratio (y) = 0.57228 0.12234
# Poissons Ratio (z) = 0.42418 0.11037
#
# Static dielectric constant tensor:
#      x y z
#    x 1.807750 0.000000 0.000000 
#    y 0.000000 1.789090 0.000000 
#    z 0.000000 0.000000 1.816510 
# 
# From -- ./inp_files/23754.got.cif
#   From: 2010.05.17/outbox.cif.g08.bks.cpg/sg20_12_cif.got.tgz:23754.got - 2010.06.03 22:52:26.
