data_PCOD9317196
_publ_section_title
;
Structure prediction by ZEFSAII (Michael W. Deem and Ramdas Pophale) SiO2 
 PCOD9317196
Probable space group: C 2 2 21
;
_chemical_formula_sum "Si O2"
_cell_formula_units_Z 48
_cell_length_a 21.448838
_cell_length_b 8.777192
_cell_length_c 13.430884
_cell_angle_alpha 90.000000
_cell_angle_beta 90.000000
_cell_angle_gamma 90.000000
_cell_volume 2528.505868
_symmetry_space_group_name_H-M "C 2 2 21"
_symmetry_group_IT_number 20
_symmetry_cell_setting 'orthorhombic'
loop_
_space_group_symop_operation_xyz
x,y,z
-x,-y,1/2+z
x,-y,-z
-x,y,1/2-z
1/2+x,1/2+y,z
1/2-x,1/2-y,1/2+z
1/2+x,1/2-y,-z
1/2-x,1/2+y,1/2-z
loop_
_atom_site_type_symbol
_atom_site_label
_atom_site_fract_x
_atom_site_fract_y
_atom_site_fract_z
Si Si1 0.778726 0.169754 0.536639
Si Si2 0.763667 0.399379 0.697746
Si Si3 0.570150 0.322585 0.714875
Si Si4 0.629701 0.831092 0.482013
Si Si5 0.138717 0.062058 0.611502
Si Si6 0.818438 0.293296 0.337680
O O1 0.793947 0.255893 0.639723
O O2 0.703471 0.165465 0.543984
O O3 0.804798 0.286300 0.454133
O O4 0.798854 0.000000 0.500000
O O5 0.705205 0.487083 0.642510
O O6 0.809866 0.539870 0.709355
O O7 0.732644 0.324481 0.793626
O O8 0.500000 0.303279 0.750000
O O9 0.592050 0.237985 0.612342
O O10 0.588771 0.496207 0.688018
O O11 0.615443 0.267883 0.802624
O O12 0.631178 0.738941 0.586775
O O13 0.606718 0.000000 0.500000
O O14 0.127529 0.000000 0.500000
#
# Coordination Sequence:
#
# PCOD9317196 Si02
#       6
#     8   8   8   8   8   8
#     4  11  20  34  54  88 124 149 192 248 312 357
#     4  11  19  33  52  89 116 146 189 247 303 350
#     4  10  22  39  56  84 121 163 202 234 286 358
#     4  10  19  35  60  86 114 157 199 243 294 354
#     4   9  15  33  57  79 106 149 194 236 280 345
#     4  11  21  32  59  84 120 152 190 253 296 348
#
# _framework density 18.983543999999998
#
# number of rings (size 3 to 8) (size 9 to 14) (size 15 to 20)
#    0.000    1.667    6.667    1.500    2.333    0.000 
#    0.000    5.000    0.000    0.000    0.000    0.000 
#    0.000    0.000    0.000    0.000    0.000    0.000 
#
# Total GULP energy -133612.264286 kJ/mol
# GULP energy per Si atom -5567.177679 kJ/mol
# Density = 1.894034 g / cm^3
# Si number density = 18.983544 Si / 1000 Ang^3
#
#
#
# Elastic Constant Matrix: (Units=GPa)
#
#
# Indices 1 2 3 4 5 6 
#
# 1 61.1411 3.8855 17.6712 0.0000 0.0000 0.0000
# 2 3.8855 87.3450 -10.7559 0.0000 0.0000 0.0000
# 3 17.6712 -10.7559 38.6178 0.0000 0.0000 0.0000
# 4 0.0000 0.0000 0.0000 29.6881 0.0000 0.0000
# 5 0.0000 0.0000 0.0000 0.0000 20.8189 0.0000
# 6 0.0000 0.0000 0.0000 0.0000 0.0000 8.8661
#
#
#
# Elastic Compliance Matrix: (Units=1/GPa)
#
#
# Indices 1 2 3 4 5 6 
#
# 1 0.019181 -0.002003 -0.009335 0.000000 0.000000 0.000000
# 2 -0.002003 0.012065 0.004277 0.000000 0.000000 0.000000
# 3 -0.009335 0.004277 0.031358 0.000000 0.000000 0.000000
# 4 0.000000 0.000000 0.000000 0.033683 0.000000 0.000000
# 5 0.000000 0.000000 0.000000 0.000000 0.048033 0.000000
# 6 0.000000 0.000000 0.000000 0.000000 0.000000 0.112789
#
#
# Mechanical properties :
#
#
# Convention : Reuss Voigt Hill
#
# Bulk Modulus (GPa) = 20.62656 23.18950 21.90803
# Shear Modulus (GPa) = 17.39790 23.62816 20.51303
#
# Velocity S-wave (km/s) = 3.03061 3.53181 3.29077
# Velocity P-wave (km/s) = 4.80991 5.37342 5.09946
#
# Compressibility (1/GPa) = 0.04848118
#
# Stress axis : x y z
#
# Youngs Moduli (GPa) = 52.13533 82.88717 31.89029
#
# Poissons Ratio (x) = 0.16600 0.29769
# Poissons Ratio (y) = 0.10441 -0.13639
# Poissons Ratio (z) = 0.48667 -0.35448
#
# Static dielectric constant tensor:
#      x y z
#    x 1.623800 0.000000 0.000000 
#    y 0.000000 1.813200 0.000000 
#    z 0.000000 0.000000 1.687080 
# 
# From -- ./inp_files/21952.got.cif
#   From: 2010.05.17/outbox.cif.g08.bks.cpg/sg20_11_cif.got.tgz:21952.got - 2010.06.03 22:52:26.
