data_PCOD9317560
_publ_section_title
;
Structure prediction by ZEFSAII (Michael W. Deem and Ramdas Pophale) SiO2 
 PCOD9317560
Probable space group: C 2 2 21
;
_chemical_formula_sum "Si O2"
_cell_formula_units_Z 56
_cell_length_a 16.459057
_cell_length_b 14.238070
_cell_length_c 11.561941
_cell_angle_alpha 90.000000
_cell_angle_beta 90.000000
_cell_angle_gamma 90.000000
_cell_volume 2709.485442
_symmetry_space_group_name_H-M "C 2 2 21"
_symmetry_group_IT_number 20
_symmetry_cell_setting 'orthorhombic'
loop_
_space_group_symop_operation_xyz
x,y,z
-x,-y,1/2+z
x,-y,-z
-x,y,1/2-z
1/2+x,1/2+y,z
1/2-x,1/2-y,1/2+z
1/2+x,1/2-y,-z
1/2-x,1/2+y,1/2-z
loop_
_atom_site_type_symbol
_atom_site_label
_atom_site_fract_x
_atom_site_fract_y
_atom_site_fract_z
Si Si1 0.177602 0.343360 0.041874
Si Si2 0.189417 0.720688 0.579561
Si Si3 0.000000 0.547511 0.250000
Si Si4 0.177998 0.964640 0.868564
Si Si5 0.213254 0.132234 0.735159
Si Si6 0.841850 0.341991 0.833034
Si Si7 0.054763 0.500000 0.000000
Si Si8 0.908386 0.205509 0.280040
O O1 0.245607 0.398517 0.115625
O O2 0.129784 0.283905 0.137530
O O3 0.228909 0.271616 0.964840
O O4 0.113742 0.410848 0.983948
O O5 0.217870 0.638997 0.665408
O O6 0.143277 0.679629 0.469197
O O7 0.139402 0.791921 0.658487
O O8 0.080587 0.610192 0.274569
O O9 0.989332 0.492462 0.373857
O O10 0.261475 0.908973 0.831771
O O11 0.107453 0.889429 0.849356
O O12 0.157588 0.051879 0.785590
O O13 0.185149 0.000000 0.000000
O O14 0.179523 0.237918 0.717070
O O15 0.000000 0.224880 0.250000
#
# Coordination Sequence:
#
# PCOD9317560 Si02
#       8
#     8   8   4   8   8   8   4   8
#     4  10  22  41  67  95 131 184 226 292 349 427
#     4  10  19  42  69  93 130 185 233 277 355 422
#     4  12  30  42  66 104 152 180 232 302 370 436
#     4  12  22  42  73  96 129 183 246 288 350 443
#     4  10  20  39  69  95 130 175 238 290 343 420
#     4  11  23  44  64 103 136 188 233 293 357 427
#     4  12  28  42  66 106 144 182 240 296 368 428
#     4  11  25  43  68 104 145 181 235 299 366 423
#
# _framework density 20.668130999999999
#
# number of rings (size 3 to 8) (size 9 to 14) (size 15 to 20)
#    0.000    1.143    5.714    1.714    6.000    1.143 
#    1.286    1.429    0.000    0.000    0.000    0.000 
#    0.000    0.000    0.000    0.000    0.000    0.000 
#
# Total GULP energy -156177.838910 kJ/mol
# GULP energy per Si atom -5577.779961 kJ/mol
# Density = 2.062109 g / cm^3
# Si number density = 20.668131 Si / 1000 Ang^3
#
#
#
# Elastic Constant Matrix: (Units=GPa)
#
#
# Indices 1 2 3 4 5 6 
#
# 1 71.3472 -1.7431 29.4748 0.0000 0.0000 0.0000
# 2 -1.7431 48.5140 15.7025 0.0000 0.0000 0.0000
# 3 29.4748 15.7025 106.1287 0.0000 0.0000 0.0000
# 4 0.0000 0.0000 0.0000 32.4448 0.0000 0.0000
# 5 0.0000 0.0000 0.0000 0.0000 24.0503 0.0000
# 6 0.0000 0.0000 0.0000 0.0000 0.0000 11.6897
#
#
#
# Elastic Compliance Matrix: (Units=1/GPa)
#
#
# Indices 1 2 3 4 5 6 
#
# 1 0.016037 0.002119 -0.004768 0.000000 0.000000 0.000000
# 2 0.002119 0.021929 -0.003833 0.000000 0.000000 0.000000
# 3 -0.004768 -0.003833 0.011314 0.000000 0.000000 0.000000
# 4 0.000000 0.000000 0.000000 0.030822 0.000000 0.000000
# 5 0.000000 0.000000 0.000000 0.000000 0.041580 0.000000
# 6 0.000000 0.000000 0.000000 0.000000 0.000000 0.085545
#
#
# Mechanical properties :
#
#
# Convention : Reuss Voigt Hill
#
# Bulk Modulus (GPa) = 27.53484 34.76202 31.14843
# Shear Modulus (GPa) = 21.52431 25.80735 23.66583
#
# Velocity S-wave (km/s) = 3.23061 3.53746 3.38751
# Velocity P-wave (km/s) = 5.22179 5.79142 5.51397
#
# Compressibility (1/GPa) = 0.03631763
#
# Stress axis : x y z
#
# Youngs Moduli (GPa) = 62.35461 45.60080 88.38796
#
# Poissons Ratio (x) = -0.09664 0.42139
# Poissons Ratio (y) = -0.13215 0.33881
# Poissons Ratio (z) = 0.29728 0.17480
#
# Static dielectric constant tensor:
#      x y z
#    x 1.734900 0.000000 0.000000 
#    y 0.000000 1.763490 0.000000 
#    z 0.000000 0.000000 1.792610 
# 
# From -- ./inp_files/15185.got.cif
#   From: 2010.05.17/outbox.cif.g08.bks.cpg/sg20_8_cif.got.tgz:15185.got - 2010.06.03 22:52:26.
