data_PCOD9317475
_publ_section_title
;
Structure prediction by ZEFSAII (Michael W. Deem and Ramdas Pophale) SiO2 
 PCOD9317475
Probable space group: C 2 2 21
;
_chemical_formula_sum "Si O2"
_cell_formula_units_Z 60
_cell_length_a 30.362389
_cell_length_b 8.890212
_cell_length_c 10.995159
_cell_angle_alpha 90.000000
_cell_angle_beta 90.000000
_cell_angle_gamma 90.000000
_cell_volume 2967.902104
_symmetry_space_group_name_H-M "C 2 2 21"
_symmetry_group_IT_number 20
_symmetry_cell_setting 'orthorhombic'
loop_
_space_group_symop_operation_xyz
x,y,z
-x,-y,1/2+z
x,-y,-z
-x,y,1/2-z
1/2+x,1/2+y,z
1/2-x,1/2-y,1/2+z
1/2+x,1/2-y,-z
1/2-x,1/2+y,1/2-z
loop_
_atom_site_type_symbol
_atom_site_label
_atom_site_fract_x
_atom_site_fract_y
_atom_site_fract_z
Si Si1 0.154595 0.721964 0.188046
Si Si2 0.964068 0.726858 0.655728
Si Si3 0.223938 0.426441 0.679048
Si Si4 0.880357 0.838372 0.552826
Si Si5 0.595914 0.980540 0.328633
Si Si6 0.678135 0.805605 0.432528
Si Si7 0.823380 0.059931 0.244274
Si Si8 0.521078 0.000000 0.500000
O O1 0.202981 0.651233 0.202836
O O2 0.124229 0.609239 0.264750
O O3 0.157731 0.890708 0.244094
O O4 0.135904 0.726729 0.051636
O O5 0.931959 0.833946 0.581086
O O6 0.930008 0.623616 0.732359
O O7 0.000000 0.792465 0.750000
O O8 0.991165 0.624223 0.562607
O O9 0.201580 0.340150 0.562391
O O10 0.207254 0.596423 0.661703
O O11 0.276018 0.431818 0.690499
O O12 0.854490 0.828744 0.678523
O O13 0.867827 0.000000 0.500000
O O14 0.629201 0.878598 0.412073
O O15 0.555625 0.058148 0.400178
O O16 0.678553 0.634015 0.388893
#
# Coordination Sequence:
#
# PCOD9317475 Si02
#       8
#     8   8   8   8   8   8   8   4
#     4  10  22  37  59  87 122 156 201 248 296 355
#     4  10  20  37  63  91 115 151 206 247 299 369
#     4  10  22  36  58  86 116 162 208 246 287 339
#     4  10  22  39  59  85 123 161 189 244 310 357
#     4  10  19  39  59  90 116 153 200 244 305 352
#     4  10  21  38  61  80 123 159 200 245 291 359
#     4  11  22  37  60  83 121 162 200 243 302 352
#     4  10  20  34  66  86 116 146 192 260 298 354
#
# _framework density 20.216301000000001
#
# number of rings (size 3 to 8) (size 9 to 14) (size 15 to 20)
#    0.000    1.867    1.333    3.200    7.467    0.533 
#    0.000    2.667    0.000    0.000    0.000    0.000 
#    0.000    0.000    0.000    0.000    0.000    0.000 
#
# Total GULP energy -167207.269645 kJ/mol
# GULP energy per Si atom -5573.575655 kJ/mol
# Density = 2.017029 g / cm^3
# Si number density = 20.216301 Si / 1000 Ang^3
#
#
#
# Elastic Constant Matrix: (Units=GPa)
#
#
# Indices 1 2 3 4 5 6 
#
# 1 114.4506 14.8583 13.5960 0.0000 0.0000 0.0000
# 2 14.8583 35.1237 16.2803 0.0000 0.0000 0.0000
# 3 13.5960 16.2803 40.8416 0.0000 0.0000 0.0000
# 4 0.0000 0.0000 0.0000 22.6505 0.0000 0.0000
# 5 0.0000 0.0000 0.0000 0.0000 34.4309 0.0000
# 6 0.0000 0.0000 0.0000 0.0000 0.0000 27.7556
#
#
#
# Elastic Compliance Matrix: (Units=1/GPa)
#
#
# Indices 1 2 3 4 5 6 
#
# 1 0.009362 -0.003086 -0.001886 0.000000 0.000000 0.000000
# 2 -0.003086 0.035941 -0.013299 0.000000 0.000000 0.000000
# 3 -0.001886 -0.013299 0.030414 0.000000 0.000000 0.000000
# 4 0.000000 0.000000 0.000000 0.044149 0.000000 0.000000
# 5 0.000000 0.000000 0.000000 0.000000 0.029044 0.000000
# 6 0.000000 0.000000 0.000000 0.000000 0.000000 0.036029
#
#
# Mechanical properties :
#
#
# Convention : Reuss Voigt Hill
#
# Bulk Modulus (GPa) = 25.52755 31.09834 28.31294
# Shear Modulus (GPa) = 21.31831 26.67948 23.99889
#
# Velocity S-wave (km/s) = 3.25085 3.63671 3.44918
# Velocity P-wave (km/s) = 5.17158 5.74895 5.46789
#
# Compressibility (1/GPa) = 0.03917337
#
# Stress axis : x y z
#
# Youngs Moduli (GPa) = 106.81328 27.82363 32.87932
#
# Poissons Ratio (x) = 0.08586 0.06203
# Poissons Ratio (y) = 0.32963 0.43727
# Poissons Ratio (z) = 0.20150 0.37004
#
# Static dielectric constant tensor:
#      x y z
#    x 1.709930 0.000000 0.000000 
#    y 0.000000 1.718650 0.000000 
#    z 0.000000 0.000000 1.809430 
# 
# From -- ./inp_files/17204.got.cif
#   From: 2010.05.17/outbox.cif.g08.bks.cpg/sg20_9_cif.got.tgz:17204.got - 2010.06.03 22:52:26.
