data_PCOD9317359
_publ_section_title
;
Structure prediction by ZEFSAII (Michael W. Deem and Ramdas Pophale) SiO2 
 PCOD9317359
Probable space group: C 2 2 21
;
_chemical_formula_sum "Si O2"
_cell_formula_units_Z 40
_cell_length_a 5.252063
_cell_length_b 12.816933
_cell_length_c 28.821011
_cell_angle_alpha 90.000000
_cell_angle_beta 90.000000
_cell_angle_gamma 90.000000
_cell_volume 1940.096143
_symmetry_space_group_name_H-M "C 2 2 21"
_symmetry_group_IT_number 20
_symmetry_cell_setting 'orthorhombic'
loop_
_space_group_symop_operation_xyz
x,y,z
-x,-y,1/2+z
x,-y,-z
-x,y,1/2-z
1/2+x,1/2+y,z
1/2-x,1/2-y,1/2+z
1/2+x,1/2-y,-z
1/2-x,1/2+y,1/2-z
loop_
_atom_site_type_symbol
_atom_site_label
_atom_site_fract_x
_atom_site_fract_y
_atom_site_fract_z
Si Si1 0.005646 0.195192 0.435636
Si Si2 0.124205 0.591418 0.607690
Si Si3 0.471152 0.450041 0.651734
Si Si4 0.001569 0.584792 0.460526
Si Si5 0.475130 0.018405 0.696911
O O1 0.076325 0.314848 0.426921
O O2 0.230229 0.139861 0.464345
O O3 0.208710 0.034632 0.314983
O O4 0.005410 0.142393 0.384544
O O5 0.412159 0.553983 0.619636
O O6 0.004805 0.485808 0.586169
O O7 0.005034 0.610005 0.658505
O O8 0.230944 0.332567 0.543338
O O9 0.213605 0.445199 0.682232
O O10 0.051277 0.500000 0.500000
O O11 0.500000 0.049751 0.750000
#
# Coordination Sequence:
#
# PCOD9317359 Si02
#       5
#     8   8   8   8   8
#     4  11  21  39  63  84 116 158 192 237 300 347
#     4   9  23  36  64  81 122 153 193 240 299 344
#     4   9  19  37  56  85 115 151 193 235 288 347
#     4  11  24  40  59  90 120 151 202 245 288 354
#     4  10  19  37  60  84 118 153 192 245 293 342
#
# _framework density 20.617535
#
# number of rings (size 3 to 8) (size 9 to 14) (size 15 to 20)
#    1.200    0.800    2.000    1.200    2.800    1.600 
#    0.000    2.000    0.000    0.000    0.000    0.000 
#    0.000    0.000    0.000    0.000    0.000    0.000 
#
# Total GULP energy -111414.839845 kJ/mol
# GULP energy per Si atom -5570.741992 kJ/mol
# Density = 2.057061 g / cm^3
# Si number density = 20.617535 Si / 1000 Ang^3
#
#
#
# Elastic Constant Matrix: (Units=GPa)
#
#
# Indices 1 2 3 4 5 6 
#
# 1 123.6435 20.1700 2.3473 0.0000 0.0000 0.0000
# 2 20.1700 76.4269 11.3640 0.0000 0.0000 0.0000
# 3 2.3473 11.3640 82.8836 0.0000 0.0000 0.0000
# 4 0.0000 0.0000 0.0000 23.7187 0.0000 0.0000
# 5 0.0000 0.0000 0.0000 0.0000 20.1236 0.0000
# 6 0.0000 0.0000 0.0000 0.0000 0.0000 1.2551
#
#
#
# Elastic Compliance Matrix: (Units=1/GPa)
#
#
# Indices 1 2 3 4 5 6 
#
# 1 0.008452 -0.002241 0.000068 0.000000 0.000000 0.000000
# 2 -0.002241 0.013951 -0.001849 0.000000 0.000000 0.000000
# 3 0.000068 -0.001849 0.012317 0.000000 0.000000 0.000000
# 4 0.000000 0.000000 0.000000 0.042161 0.000000 0.000000
# 5 0.000000 0.000000 0.000000 0.000000 0.049693 0.000000
# 6 0.000000 0.000000 0.000000 0.000000 0.000000 0.796751
#
#
# Mechanical properties :
#
#
# Convention : Reuss Voigt Hill
#
# Bulk Modulus (GPa) = 37.48797 38.96850 38.22823
# Shear Modulus (GPa) = 5.31768 25.62434 15.47101
#
# Velocity S-wave (km/s) = 1.60773 3.52922 2.74228
# Velocity P-wave (km/s) = 4.65494 5.96229 5.34871
#
# Compressibility (1/GPa) = 0.02667522
#
# Stress axis : x y z
#
# Youngs Moduli (GPa) = 118.31519 71.68092 81.19033
#
# Poissons Ratio (x) = 0.16061 -0.00551
# Poissons Ratio (y) = 0.26511 0.15014
# Poissons Ratio (z) = -0.00803 0.13256
#
# Static dielectric constant tensor:
#      x y z
#    x 1.760610 0.000000 0.000000 
#    y 0.000000 1.730900 0.000000 
#    z 0.000000 0.000000 1.788080 
# 
# From -- ./inp_files/29748.got.cif
#   From: 2010.05.17/outbox.cif.g08.bks.cpg/sg20_15_cif.got.tgz:29748.got - 2010.06.03 22:52:26.
