data_PCOD9317160
_publ_section_title
;
Structure prediction by ZEFSAII (Michael W. Deem and Ramdas Pophale) SiO2 
 PCOD9317160
Probable space group: C 2 2 21
;
_chemical_formula_sum "Si O2"
_cell_formula_units_Z 56
_cell_length_a 34.113523
_cell_length_b 5.275518
_cell_length_c 15.667627
_cell_angle_alpha 90.000000
_cell_angle_beta 90.000000
_cell_angle_gamma 90.000000
_cell_volume 2819.648067
_symmetry_space_group_name_H-M "C 2 2 21"
_symmetry_group_IT_number 20
_symmetry_cell_setting 'orthorhombic'
loop_
_space_group_symop_operation_xyz
x,y,z
-x,-y,1/2+z
x,-y,-z
-x,y,1/2-z
1/2+x,1/2+y,z
1/2-x,1/2-y,1/2+z
1/2+x,1/2-y,-z
1/2-x,1/2+y,1/2-z
loop_
_atom_site_type_symbol
_atom_site_label
_atom_site_fract_x
_atom_site_fract_y
_atom_site_fract_z
Si Si1 0.261155 0.085684 0.296831
Si Si2 0.312697 0.507671 0.101085
Si Si3 0.456951 0.749297 0.012847
Si Si4 0.423686 0.856244 0.737019
Si Si5 0.956198 0.748721 0.448580
Si Si6 0.461872 0.371845 0.797762
Si Si7 0.162899 0.507222 0.294092
O O1 0.257486 0.380724 0.270036
O O2 0.234110 0.043587 0.379353
O O3 0.306407 0.011039 0.285252
O O4 0.325605 0.242645 0.144408
O O5 0.332642 0.744931 0.152288
O O6 0.320181 0.500000 0.000000
O O7 0.472074 0.725545 0.108432
O O8 0.432352 0.500000 0.000000
O O9 0.495606 0.756184 0.952582
O O10 0.433058 0.000000 0.000000
O O11 0.436661 0.760456 0.643596
O O12 0.433451 0.614473 0.797296
O O13 0.379575 0.939146 0.755777
O O14 0.447231 0.117007 0.752279
O O15 0.943969 0.500000 0.500000
O O16 0.945164 0.000000 0.500000
O O17 0.500000 0.468254 0.750000
#
# Coordination Sequence:
#
# PCOD9317160 Si02
#       7
#     8   8   8   8   8   8   8
#     4   8  16  32  57  84 112 151 191 226 271 336
#     4  10  19  36  63  89 120 160 200 238 284 347
#     4  10  19  35  54  76 103 135 181 242 293 333
#     4  12  24  40  61  86 117 155 196 243 310 374
#     4  10  20  37  58  79 104 139 183 235 294 349
#     4  12  23  38  60  84 109 149 203 250 296 367
#     4  10  21  38  58  88 125 159 195 242 298 358
#
# _framework density 19.860634999999998
#
# number of rings (size 3 to 8) (size 9 to 14) (size 15 to 20)
#    0.000    1.714    0.000    6.857    0.000    0.000 
#    0.000    7.857    0.000    5.143    0.000    0.000 
#    0.000    0.000    0.000    0.000    0.000    0.000 
#
# Total GULP energy -156051.021017 kJ/mol
# GULP energy per Si atom -5573.250751 kJ/mol
# Density = 1.981543 g / cm^3
# Si number density = 19.860635 Si / 1000 Ang^3
#
#
#
# Elastic Constant Matrix: (Units=GPa)
#
#
# Indices 1 2 3 4 5 6 
#
# 1 67.1648 29.7491 32.8631 0.0000 0.0000 0.0000
# 2 29.7491 160.4293 33.2060 0.0000 0.0000 0.0000
# 3 32.8631 33.2060 68.9464 0.0000 0.0000 0.0000
# 4 0.0000 0.0000 0.0000 25.5054 0.0000 0.0000
# 5 0.0000 0.0000 0.0000 0.0000 9.3715 0.0000
# 6 0.0000 0.0000 0.0000 0.0000 0.0000 21.4065
#
#
#
# Elastic Compliance Matrix: (Units=1/GPa)
#
#
# Indices 1 2 3 4 5 6 
#
# 1 0.019937 -0.001922 -0.008577 0.000000 0.000000 0.000000
# 2 -0.001922 0.007109 -0.002508 0.000000 0.000000 0.000000
# 3 -0.008577 -0.002508 0.019800 0.000000 0.000000 0.000000
# 4 0.000000 0.000000 0.000000 0.039207 0.000000 0.000000
# 5 0.000000 0.000000 0.000000 0.000000 0.106706 0.000000
# 6 0.000000 0.000000 0.000000 0.000000 0.000000 0.046715
#
#
# Mechanical properties :
#
#
# Convention : Reuss Voigt Hill
#
# Bulk Modulus (GPa) = 48.00257 54.24187 51.12222
# Shear Modulus (GPa) = 18.35324 24.63815 21.49569
#
# Velocity S-wave (km/s) = 3.04320 3.52597 3.29344
# Velocity P-wave (km/s) = 6.04734 6.62926 6.34497
#
# Compressibility (1/GPa) = 0.02083222
#
# Stress axis : x y z
#
# Youngs Moduli (GPa) = 50.15880 140.67330 50.50461
#
# Poissons Ratio (x) = 0.27032 0.43319
# Poissons Ratio (y) = 0.09638 0.12665
# Poissons Ratio (z) = 0.43023 0.35278
#
# Static dielectric constant tensor:
#      x y z
#    x 1.714350 0.000000 0.000000 
#    y 0.000000 1.807110 0.000000 
#    z 0.000000 0.000000 1.716030 
# 
# From -- ./inp_files/22282.got.cif
#   From: 2010.05.17/outbox.cif.g08.bks.cpg/sg20_12_cif.got.tgz:22282.got - 2010.06.03 22:52:26.
