data_PCOD9317258
_publ_section_title
;
Structure prediction by ZEFSAII (Michael W. Deem and Ramdas Pophale) SiO2 
 PCOD9317258
Probable space group: C 2 2 21
;
_chemical_formula_sum "Si O2"
_cell_formula_units_Z 64
_cell_length_a 5.185289
_cell_length_b 29.709179
_cell_length_c 20.707626
_cell_angle_alpha 90.000000
_cell_angle_beta 90.000000
_cell_angle_gamma 90.000000
_cell_volume 3190.023847
_symmetry_space_group_name_H-M "C 2 2 21"
_symmetry_group_IT_number 20
_symmetry_cell_setting 'orthorhombic'
loop_
_space_group_symop_operation_xyz
x,y,z
-x,-y,1/2+z
x,-y,-z
-x,y,1/2-z
1/2+x,1/2+y,z
1/2-x,1/2-y,1/2+z
1/2+x,1/2-y,-z
1/2-x,1/2+y,1/2-z
loop_
_atom_site_type_symbol
_atom_site_label
_atom_site_fract_x
_atom_site_fract_y
_atom_site_fract_z
Si Si1 0.938555 0.591548 0.676309
Si Si2 0.591049 0.153574 0.446452
Si Si3 0.653475 0.255632 0.959504
Si Si4 0.439587 0.538232 0.631190
Si Si5 0.569124 0.565208 0.363643
Si Si6 0.540144 0.589002 0.995568
Si Si7 0.547071 0.887859 0.679833
Si Si8 0.770578 0.663440 0.574176
O O1 0.670453 0.564596 0.667481
O O2 0.913565 0.634737 0.629025
O O3 0.000000 0.604038 0.750000
O O4 0.168734 0.559256 0.652813
O O5 0.801698 0.192943 0.438033
O O6 0.469175 0.146129 0.377134
O O7 0.417359 0.167047 0.506107
O O8 0.698262 0.105623 0.471433
O O9 0.749813 0.216418 0.910324
O O10 0.357021 0.250172 0.980904
O O11 0.470129 0.485558 0.642056
O O12 0.459937 0.548569 0.554537
O O13 0.616589 0.577324 0.439575
O O14 0.340235 0.596385 0.334221
O O15 0.839166 0.571951 0.327260
O O16 0.464099 0.631719 0.949668
O O17 0.500000 0.868264 0.750000
#
# Coordination Sequence:
#
# PCOD9317258 Si02
#       8
#     8   8   8   8   8   8   8   8
#     4  11  24  39  59  84 118 159 193 237 293 350
#     4  10  19  37  60  85 122 144 198 231 297 343
#     4  10  20  32  60  94 116 144 190 246 286 342
#     4  11  23  38  59  84 116 153 200 246 289 341
#     4  11  23  38  59  84 116 153 200 246 289 341
#     4  10  19  36  56  88 114 152 186 244 297 338
#     4  11  24  39  59  84 118 159 193 237 293 350
#     4  10  19  37  60  85 122 144 198 231 297 343
#
# _framework density 20.062546999999999
#
# number of rings (size 3 to 8) (size 9 to 14) (size 15 to 20)
#    0.000    1.500    3.750    1.875    0.000    3.000 
#    0.000    2.500    0.000   12.000    0.000    0.000 
#    0.000    0.000    0.000    0.000    0.000    0.000 
#
# Total GULP energy -178240.909107 kJ/mol
# GULP energy per Si atom -5570.028410 kJ/mol
# Density = 2.001688 g / cm^3
# Si number density = 20.062547 Si / 1000 Ang^3
#
#
#
# Elastic Constant Matrix: (Units=GPa)
#
#
# Indices 1 2 3 4 5 6 
#
# 1 64.8321 -1.3488 10.3899 0.0000 0.0000 0.0000
# 2 -1.3488 51.6896 10.5675 0.0000 0.0000 0.0000
# 3 10.3899 10.5675 127.0332 0.0000 0.0000 0.0000
# 4 0.0000 0.0000 0.0000 7.1742 0.0000 0.0000
# 5 0.0000 0.0000 0.0000 0.0000 20.9086 0.0000
# 6 0.0000 0.0000 0.0000 0.0000 0.0000 23.5766
#
#
#
# Elastic Compliance Matrix: (Units=1/GPa)
#
#
# Indices 1 2 3 4 5 6 
#
# 1 0.015653 0.000682 -0.001337 0.000000 0.000000 0.000000
# 2 0.000682 0.019711 -0.001695 0.000000 0.000000 0.000000
# 3 -0.001337 -0.001695 0.008122 0.000000 0.000000 0.000000
# 4 0.000000 0.000000 0.000000 0.139388 0.000000 0.000000
# 5 0.000000 0.000000 0.000000 0.000000 0.047827 0.000000
# 6 0.000000 0.000000 0.000000 0.000000 0.000000 0.042415
#
#
# Mechanical properties :
#
#
# Convention : Reuss Voigt Hill
#
# Bulk Modulus (GPa) = 25.78337 31.41912 28.60125
# Shear Modulus (GPa) = 17.19716 25.26163 21.22940
#
# Velocity S-wave (km/s) = 2.93094 3.55229 3.25647
# Velocity P-wave (km/s) = 4.93287 5.70260 5.33164
#
# Compressibility (1/GPa) = 0.03878468
#
# Stress axis : x y z
#
# Youngs Moduli (GPa) = 63.88594 50.73401 123.11719
#
# Poissons Ratio (x) = -0.03459 0.16460
# Poissons Ratio (y) = -0.04356 0.20874
# Poissons Ratio (z) = 0.08541 0.08602
#
# Static dielectric constant tensor:
#      x y z
#    x 1.764860 0.000000 0.000000 
#    y 0.000000 1.829290 0.000000 
#    z 0.000000 0.000000 1.751730 
# 
# From -- ./inp_files/23013.got.cif
#   From: 2010.05.17/outbox.cif.g08.bks.cpg/sg20_12_cif.got.tgz:23013.got - 2010.06.03 22:52:26.
