data_PCOD9317088
_publ_section_title
;
Structure prediction by ZEFSAII (Michael W. Deem and Ramdas Pophale) SiO2 
 PCOD9317088
Probable space group: C 2 2 21
;
_chemical_formula_sum "Si O2"
_cell_formula_units_Z 64
_cell_length_a 24.141752
_cell_length_b 15.691392
_cell_length_c 8.469242
_cell_angle_alpha 90.000000
_cell_angle_beta 90.000000
_cell_angle_gamma 90.000000
_cell_volume 3208.298726
_symmetry_space_group_name_H-M "C 2 2 21"
_symmetry_group_IT_number 20
_symmetry_cell_setting 'orthorhombic'
loop_
_space_group_symop_operation_xyz
x,y,z
-x,-y,1/2+z
x,-y,-z
-x,y,1/2-z
1/2+x,1/2+y,z
1/2-x,1/2-y,1/2+z
1/2+x,1/2-y,-z
1/2-x,1/2+y,1/2-z
loop_
_atom_site_type_symbol
_atom_site_label
_atom_site_fract_x
_atom_site_fract_y
_atom_site_fract_z
Si Si1 0.227300 0.859383 0.262684
Si Si2 0.659125 0.200530 0.265242
Si Si3 0.166454 0.022522 0.311856
Si Si4 0.043256 0.240908 0.614595
Si Si5 0.229427 0.591311 0.080727
Si Si6 0.451466 0.420029 0.879398
Si Si7 0.665726 0.907049 0.425863
Si Si8 0.037400 0.589943 0.593410
O O1 0.202588 0.770937 0.210112
O O2 0.240556 0.852432 0.448528
O O3 0.285303 0.887865 0.192527
O O4 0.181196 0.932544 0.232841
O O5 0.599188 0.239935 0.287859
O O6 0.671582 0.124372 0.145430
O O7 0.671067 0.162160 0.436530
O O8 0.222037 0.078525 0.288482
O O9 0.107145 0.064770 0.288096
O O10 0.165331 0.000000 0.500000
O O11 0.051176 0.165179 0.487231
O O12 0.027249 0.328482 0.521691
O O13 0.000000 0.216533 0.750000
O O14 0.220219 0.500000 0.000000
O O15 0.500000 0.415295 0.750000
O O16 0.459586 0.500000 0.000000
O O17 0.602825 0.904194 0.362533
O O18 0.673424 0.000000 0.500000
O O19 0.029537 0.500000 0.500000
O O20 0.000000 0.592902 0.750000
#
# Coordination Sequence:
#
# PCOD9317088 Si02
#       8
#     8   8   8   8   8   8   8   8
#     4  10  19  34  56  85 115 146 192 238 282 349
#     4  11  21  36  58  81 114 156 191 236 298 350
#     4   8  17  35  57  80 114 152 187 237 295 345
#     4  11  24  42  61  87 122 157 202 255 299 347
#     4   9  18  34  55  81 110 147 191 234 286 350
#     4  11  22  40  65  89 121 163 203 243 295 355
#     4  10  21  37  56  83 118 151 184 235 297 348
#     4  10  22  42  65  88 118 158 201 248 305 360
#
# _framework density 19.948267999999999
#
# number of rings (size 3 to 8) (size 9 to 14) (size 15 to 20)
#    0.000    2.250    0.000    5.625    0.000    2.000 
#    0.000    8.750    0.000    0.000    0.000    0.000 
#    0.000    0.000    0.000    0.000    0.000    0.000 
#
# Total GULP energy -178363.410944 kJ/mol
# GULP energy per Si atom -5573.856592 kJ/mol
# Density = 1.990286 g / cm^3
# Si number density = 19.948268 Si / 1000 Ang^3
#
#
#
# Elastic Constant Matrix: (Units=GPa)
#
#
# Indices 1 2 3 4 5 6 
#
# 1 128.5250 52.5099 57.6620 0.0000 0.0000 0.0000
# 2 52.5099 89.5649 25.8023 0.0000 0.0000 0.0000
# 3 57.6620 25.8023 37.0097 0.0000 0.0000 0.0000
# 4 0.0000 0.0000 0.0000 20.6442 0.0000 0.0000
# 5 0.0000 0.0000 0.0000 0.0000 35.3440 0.0000
# 6 0.0000 0.0000 0.0000 0.0000 0.0000 -3.1894
#
#
#
# Elastic Compliance Matrix: (Units=1/GPa)
#
#
# Indices 1 2 3 4 5 6 
#
# 1 0.027345 -0.004703 -0.039326 0.000000 0.000000 0.000000
# 2 -0.004703 0.014780 -0.002977 0.000000 0.000000 0.000000
# 3 -0.039326 -0.002977 0.090366 0.000000 0.000000 0.000000
# 4 0.000000 0.000000 0.000000 0.048440 0.000000 0.000000
# 5 0.000000 0.000000 0.000000 0.000000 0.028293 0.000000
# 6 0.000000 0.000000 0.000000 0.000000 0.000000 -0.313537
#
#
# Mechanical properties :
#
#
# Convention : Reuss Voigt Hill
#
# Bulk Modulus (GPa) = 25.98775 58.56089 42.27432
# Shear Modulus (GPa) = 1979.29733 18.50145 998.89939
#
# Velocity S-wave (km/s) = 31.53362 3.04875 22.40161
# Velocity P-wave (km/s) = 36.59073 6.46632 26.27446
#
# Compressibility (1/GPa) = 0.03847967
#
# Stress axis : x y z
#
# Youngs Moduli (GPa) = 36.56937 67.65946 11.06608
#
# Poissons Ratio (x) = 0.31819 0.43518
# Poissons Ratio (y) = 0.17198 0.03295
# Poissons Ratio (z) = 1.43812 0.20144
#
# Static dielectric constant tensor:
#      x y z
#    x 1.744380 0.000000 0.000000 
#    y 0.000000 1.746970 0.000000 
#    z 0.000000 0.000000 2.087780 
# 
# From -- ./inp_files/10826.got.cif
#   From: 2010.05.17/outbox.cif.g08.bks.cpg/sg20_6_cif.got.tgz:10826.got - 2010.06.03 22:52:26.
