data_PCOD9317640
_publ_section_title
;
Structure prediction by ZEFSAII (Michael W. Deem and Ramdas Pophale) SiO2 
 PCOD9317640
Probable space group: C 2 2 21
;
_chemical_formula_sum "Si O2"
_cell_formula_units_Z 48
_cell_length_a 13.872689
_cell_length_b 12.393715
_cell_length_c 13.790485
_cell_angle_alpha 90.000000
_cell_angle_beta 90.000000
_cell_angle_gamma 90.000000
_cell_volume 2371.055368
_symmetry_space_group_name_H-M "C 2 2 21"
_symmetry_group_IT_number 20
_symmetry_cell_setting 'orthorhombic'
loop_
_space_group_symop_operation_xyz
x,y,z
-x,-y,1/2+z
x,-y,-z
-x,y,1/2-z
1/2+x,1/2+y,z
1/2-x,1/2-y,1/2+z
1/2+x,1/2-y,-z
1/2-x,1/2+y,1/2-z
loop_
_atom_site_type_symbol
_atom_site_label
_atom_site_fract_x
_atom_site_fract_y
_atom_site_fract_z
Si Si1 0.182256 0.474279 0.397174
Si Si2 0.851256 0.238942 0.037978
Si Si3 0.675471 0.177731 0.133835
Si Si4 0.754528 0.316592 0.838047
Si Si5 0.427115 0.755456 0.449507
Si Si6 0.471197 0.019067 0.641987
O O1 0.230383 0.500000 0.500000
O O2 0.168047 0.346736 0.395899
O O3 0.236960 0.553038 0.325247
O O4 0.073484 0.521644 0.397898
O O5 0.777046 0.152308 0.081024
O O6 0.963698 0.213205 0.046686
O O7 0.817347 0.272069 0.929431
O O8 0.701489 0.226959 0.238285
O O9 0.605636 0.075837 0.147656
O O10 0.621756 0.253766 0.055337
O O11 0.645278 0.290525 0.868499
O O12 0.435217 0.882612 0.423034
O O13 0.500000 0.058324 0.750000
#
# Coordination Sequence:
#
# PCOD9317640 Si02
#       6
#     8   8   8   8   8   8
#     4   9  17  34  55  78 106 139 189 234 278 337
#     4   9  21  37  55  83 115 149 190 244 284 341
#     4  11  21  34  56  86 118 146 190 243 288 341
#     4  10  20  33  56  86 112 153 194 236 292 341
#     4  10  23  37  56  85 118 150 192 244 289 338
#     4  11  20  33  58  86 106 144 185 240 288 344
#
# _framework density 20.244147999999999
#
# number of rings (size 3 to 8) (size 9 to 14) (size 15 to 20)
#    0.000    2.000    1.667    3.500    4.667    0.000 
#    0.000    0.000    0.000   22.000    0.000    0.000 
#    0.000    0.000    0.000    0.000    0.000    0.000 
#
# Total GULP energy -133653.342469 kJ/mol
# GULP energy per Si atom -5568.889270 kJ/mol
# Density = 2.019807 g / cm^3
# Si number density = 20.244148 Si / 1000 Ang^3
#
#
#
# Elastic Constant Matrix: (Units=GPa)
#
#
# Indices 1 2 3 4 5 6 
#
# 1 140.2662 28.0717 27.3506 0.0000 0.0000 0.0000
# 2 28.0717 14.9259 20.4260 0.0000 0.0000 0.0000
# 3 27.3506 20.4260 94.3650 0.0000 0.0000 0.0000
# 4 0.0000 0.0000 0.0000 15.8360 0.0000 0.0000
# 5 0.0000 0.0000 0.0000 0.0000 28.1108 0.0000
# 6 0.0000 0.0000 0.0000 0.0000 0.0000 25.8779
#
#
#
# Elastic Compliance Matrix: (Units=1/GPa)
#
#
# Indices 1 2 3 4 5 6 
#
# 1 0.011679 -0.024627 0.001946 0.000000 0.000000 0.000000
# 2 -0.024627 0.147131 -0.024710 0.000000 0.000000 0.000000
# 3 0.001946 -0.024710 0.015382 0.000000 0.000000 0.000000
# 4 0.000000 0.000000 0.000000 0.063147 0.000000 0.000000
# 5 0.000000 0.000000 0.000000 0.000000 0.035573 0.000000
# 6 0.000000 0.000000 0.000000 0.000000 0.000000 0.038643
#
#
# Mechanical properties :
#
#
# Convention : Reuss Voigt Hill
#
# Bulk Modulus (GPa) = 12.59306 44.58373 28.58840
# Shear Modulus (GPa) = 11.55251 25.54554 18.54903
#
# Velocity S-wave (km/s) = 2.39144 3.55614 3.03027
# Velocity P-wave (km/s) = 3.72282 6.23958 5.13769
#
# Compressibility (1/GPa) = 0.07940880
#
# Stress axis : x y z
#
# Youngs Moduli (GPa) = 85.62688 6.79668 65.01212
#
# Poissons Ratio (x) = 0.16738 -0.12651
# Poissons Ratio (y) = 2.10876 1.60642
# Poissons Ratio (z) = -0.16662 0.16794
#
# Static dielectric constant tensor:
#      x y z
#    x 1.737130 0.000000 0.000000 
#    y 0.000000 1.766720 0.000000 
#    z 0.000000 0.000000 1.844450 
# 
# From -- ./inp_files/20805.got.cif
#   From: 2010.05.17/outbox.cif.g08.bks.cpg/sg20_11_cif.got.tgz:20805.got - 2010.06.03 22:52:26.
