data_PCOD9317466
_publ_section_title
;
Structure prediction by ZEFSAII (Michael W. Deem and Ramdas Pophale) SiO2 
 PCOD9317466
Probable space group: C 2 2 21
;
_chemical_formula_sum "Si O2"
_cell_formula_units_Z 48
_cell_length_a 8.453903
_cell_length_b 31.835342
_cell_length_c 9.022357
_cell_angle_alpha 90.000000
_cell_angle_beta 90.000000
_cell_angle_gamma 90.000000
_cell_volume 2428.213043
_symmetry_space_group_name_H-M "C 2 2 21"
_symmetry_group_IT_number 20
_symmetry_cell_setting 'orthorhombic'
loop_
_space_group_symop_operation_xyz
x,y,z
-x,-y,1/2+z
x,-y,-z
-x,y,1/2-z
1/2+x,1/2+y,z
1/2-x,1/2-y,1/2+z
1/2+x,1/2-y,-z
1/2-x,1/2+y,1/2-z
loop_
_atom_site_type_symbol
_atom_site_label
_atom_site_fract_x
_atom_site_fract_y
_atom_site_fract_z
Si Si1 0.205705 0.273343 0.892979
Si Si2 0.161020 0.297865 0.566637
Si Si3 0.500000 0.595406 0.250000
Si Si4 0.306637 0.642131 0.995889
Si Si5 0.537170 0.111973 0.425145
Si Si6 0.296103 0.450053 0.500264
Si Si7 0.000000 0.095080 0.750000
O O1 0.237595 0.284429 0.722352
O O2 0.021018 0.282461 0.922856
O O3 0.253731 0.226689 0.936101
O O4 0.298811 0.307617 0.991163
O O5 0.153629 0.347988 0.555225
O O6 0.604660 0.623760 0.359658
O O7 0.610232 0.566912 0.145058
O O8 0.394145 0.624443 0.853887
O O9 0.128026 0.624370 0.000175
O O10 0.500000 0.107682 0.250000
O O11 0.624478 0.071721 0.489833
O O12 0.287390 0.500000 0.500000
O O13 0.391409 0.433167 0.357554
#
# Coordination Sequence:
#
# PCOD9317466 Si02
#       7
#     8   8   4   8   8   8   4
#     4  10  21  37  58  87 120 158 207 253 301 366
#     4  10  21  38  59  85 123 158 206 257 304 371
#     4  10  19  38  68  86 128 172 200 254 313 384
#     4  10  21  41  64  90 125 166 208 251 312 379
#     4  11  20  44  67  87 124 173 213 251 315 385
#     4  11  23  41  65  96 124 164 212 261 319 379
#     4  10  25  42  60  98 132 156 204 268 323 364
#
# _framework density 19.767623
#
# number of rings (size 3 to 8) (size 9 to 14) (size 15 to 20)
#    0.000    1.667    5.000    0.500    0.000    8.000 
#    3.000    4.167    0.000    0.000    0.000    0.000 
#    0.000    0.000    0.000    0.000    0.000    0.000 
#
# Total GULP energy -134176.491386 kJ/mol
# GULP energy per Si atom -5590.687141 kJ/mol
# Density = 1.972263 g / cm^3
# Si number density = 19.767623 Si / 1000 Ang^3
#
#
#
# Elastic Constant Matrix: (Units=GPa)
#
#
# Indices 1 2 3 4 5 6 
#
# 1 49.6479 32.8535 31.8217 0.0000 0.0000 0.0000
# 2 32.8535 90.6105 45.1934 0.0000 0.0000 0.0000
# 3 31.8217 45.1934 94.9616 0.0000 0.0000 0.0000
# 4 0.0000 0.0000 0.0000 15.1034 0.0000 0.0000
# 5 0.0000 0.0000 0.0000 0.0000 31.0371 0.0000
# 6 0.0000 0.0000 0.0000 0.0000 0.0000 25.3678
#
#
#
# Elastic Compliance Matrix: (Units=1/GPa)
#
#
# Indices 1 2 3 4 5 6 
#
# 1 0.029031 -0.007440 -0.006188 0.000000 0.000000 0.000000
# 2 -0.007440 0.016378 -0.005301 0.000000 0.000000 0.000000
# 3 -0.006188 -0.005301 0.015127 0.000000 0.000000 0.000000
# 4 0.000000 0.000000 0.000000 0.066210 0.000000 0.000000
# 5 0.000000 0.000000 0.000000 0.000000 0.032219 0.000000
# 6 0.000000 0.000000 0.000000 0.000000 0.000000 0.039420
#
#
# Mechanical properties :
#
#
# Convention : Reuss Voigt Hill
#
# Bulk Modulus (GPa) = 44.09503 50.55079 47.32291
# Shear Modulus (GPa) = 20.50840 22.65843 21.58341
#
# Velocity S-wave (km/s) = 3.22448 3.38929 3.30791
# Velocity P-wave (km/s) = 6.01815 6.39878 6.21138
#
# Compressibility (1/GPa) = 0.02267829
#
# Stress axis : x y z
#
# Youngs Moduli (GPa) = 34.44602 61.05781 66.10694
#
# Poissons Ratio (x) = 0.45426 0.40904
# Poissons Ratio (y) = 0.25627 0.35046
# Poissons Ratio (z) = 0.21314 0.32369
#
# Static dielectric constant tensor:
#      x y z
#    x 1.711050 0.000000 0.000000 
#    y 0.000000 1.655960 0.000000 
#    z 0.000000 0.000000 1.687320 
# 
# From -- ./inp_files/6589.got.cif
#   From: 2010.05.17/outbox.cif.g08.bks.cpg/sg20_4_cif.got.tgz:6589.got - 2010.06.03 22:52:26.
