data_PCOD9317452
_publ_section_title
;
Structure prediction by ZEFSAII (Michael W. Deem and Ramdas Pophale) SiO2 
 PCOD9317452
Probable space group: C 2 2 21
;
_chemical_formula_sum "Si O2"
_cell_formula_units_Z 56
_cell_length_a 9.139110
_cell_length_b 19.262418
_cell_length_c 15.673909
_cell_angle_alpha 90.000000
_cell_angle_beta 90.000000
_cell_angle_gamma 90.000000
_cell_volume 2759.256209
_symmetry_space_group_name_H-M "C 2 2 21"
_symmetry_group_IT_number 20
_symmetry_cell_setting 'orthorhombic'
loop_
_space_group_symop_operation_xyz
x,y,z
-x,-y,1/2+z
x,-y,-z
-x,y,1/2-z
1/2+x,1/2+y,z
1/2-x,1/2-y,1/2+z
1/2+x,1/2-y,-z
1/2-x,1/2+y,1/2-z
loop_
_atom_site_type_symbol
_atom_site_label
_atom_site_fract_x
_atom_site_fract_y
_atom_site_fract_z
Si Si1 0.334992 0.850441 0.120079
Si Si2 0.097786 0.070020 0.555977
Si Si3 0.686156 0.511103 0.895595
Si Si4 0.645689 0.627839 0.198039
Si Si5 0.881864 0.189111 0.483296
Si Si6 0.826481 0.247672 0.753698
Si Si7 0.663667 0.174902 0.907357
O O1 0.297200 0.930433 0.133951
O O2 0.240615 0.800462 0.180174
O O3 0.504714 0.836829 0.132382
O O4 0.270278 0.835706 0.025315
O O5 0.254966 0.102704 0.574336
O O6 0.978070 0.040525 0.622950
O O7 0.007013 0.138274 0.521373
O O8 0.119032 0.000000 0.500000
O O9 0.709727 0.440818 0.844852
O O10 0.693265 0.500000 0.000000
O O11 0.500000 0.611858 0.250000
O O12 0.601338 0.673924 0.116467
O O13 0.756895 0.675577 0.250587
O O14 0.872163 0.272872 0.486540
O O15 0.773546 0.212949 0.842119
O O16 0.000000 0.249410 0.750000
#
# Coordination Sequence:
#
# PCOD9317452 Si02
#       7
#     8   8   8   8   8   8   8
#     4  11  22  40  66  93 133 177 230 282 343 423
#     4  10  19  38  64  94 131 171 232 274 340 421
#     4  10  20  42  67  92 138 183 229 279 355 425
#     4  11  22  41  69  98 132 176 227 287 351 414
#     4  10  20  41  65  93 133 181 226 278 343 419
#     4  11  24  43  63  93 131 172 226 287 350 422
#     4  11  23  37  65  97 133 174 226 283 347 408
#
# _framework density 20.295324999999998
#
# number of rings (size 3 to 8) (size 9 to 14) (size 15 to 20)
#    0.000    1.429    4.286    4.714    0.000    3.429 
#    0.000    2.857    0.000    0.000    0.000    0.000 
#    0.000    0.000    0.000    0.000    0.000    0.000 
#
# Total GULP energy -155954.266142 kJ/mol
# GULP energy per Si atom -5569.795219 kJ/mol
# Density = 2.024913 g / cm^3
# Si number density = 20.295325 Si / 1000 Ang^3
#
#
#
# Elastic Constant Matrix: (Units=GPa)
#
#
# Indices 1 2 3 4 5 6 
#
# 1 140.3047 61.2883 21.1493 0.0000 0.0000 0.0000
# 2 61.2883 154.4646 26.7118 0.0000 0.0000 0.0000
# 3 21.1493 26.7118 42.5068 0.0000 0.0000 0.0000
# 4 0.0000 0.0000 0.0000 25.4923 0.0000 0.0000
# 5 0.0000 0.0000 0.0000 0.0000 11.7621 0.0000
# 6 0.0000 0.0000 0.0000 0.0000 0.0000 21.0952
#
#
#
# Elastic Compliance Matrix: (Units=1/GPa)
#
#
# Indices 1 2 3 4 5 6 
#
# 1 0.008846 -0.003084 -0.002463 0.000000 0.000000 0.000000
# 2 -0.003084 0.008338 -0.003706 0.000000 0.000000 0.000000
# 3 -0.002463 -0.003706 0.027080 0.000000 0.000000 0.000000
# 4 0.000000 0.000000 0.000000 0.039228 0.000000 0.000000
# 5 0.000000 0.000000 0.000000 0.000000 0.085019 0.000000
# 6 0.000000 0.000000 0.000000 0.000000 0.000000 0.047404
#
#
# Mechanical properties :
#
#
# Convention : Reuss Voigt Hill
#
# Bulk Modulus (GPa) = 38.82192 61.73053 50.27623
# Shear Modulus (GPa) = 20.57559 26.87835 23.72697
#
# Velocity S-wave (km/s) = 3.18749 3.64313 3.42290
# Velocity P-wave (km/s) = 5.71986 6.94108 6.35985
#
# Compressibility (1/GPa) = 0.02575864
#
# Stress axis : x y z
#
# Youngs Moduli (GPa) = 113.04874 119.92725 36.92771
#
# Poissons Ratio (x) = 0.36983 0.09096
# Poissons Ratio (y) = 0.34862 0.13684
# Poissons Ratio (z) = 0.27847 0.44440
#
# Static dielectric constant tensor:
#      x y z
#    x 1.717620 0.000000 0.000000 
#    y 0.000000 1.818240 0.000000 
#    z 0.000000 0.000000 1.800160 
# 
# From -- ./inp_files/19212.got.cif
#   From: 2010.05.17/outbox.cif.g08.bks.cpg/sg20_10_cif.got.tgz:19212.got - 2010.06.03 22:52:26.
