data_PCOD9317064
_publ_section_title
;
Structure prediction by ZEFSAII (Michael W. Deem and Ramdas Pophale) SiO2 
 PCOD9317064
Probable space group: C 2 2 21
;
_chemical_formula_sum "Si O2"
_cell_formula_units_Z 48
_cell_length_a 31.759377
_cell_length_b 14.254352
_cell_length_c 5.170114
_cell_angle_alpha 90.000000
_cell_angle_beta 90.000000
_cell_angle_gamma 90.000000
_cell_volume 2340.558892
_symmetry_space_group_name_H-M "C 2 2 21"
_symmetry_group_IT_number 20
_symmetry_cell_setting 'orthorhombic'
loop_
_space_group_symop_operation_xyz
x,y,z
-x,-y,1/2+z
x,-y,-z
-x,y,1/2-z
1/2+x,1/2+y,z
1/2-x,1/2-y,1/2+z
1/2+x,1/2-y,-z
1/2-x,1/2+y,1/2-z
loop_
_atom_site_type_symbol
_atom_site_label
_atom_site_fract_x
_atom_site_fract_y
_atom_site_fract_z
Si Si1 0.406793 0.594909 0.897397
Si Si2 0.824959 0.559146 0.745324
Si Si3 0.638976 0.350411 0.893231
Si Si4 0.277045 0.248859 0.627248
Si Si5 0.410163 0.848140 0.375677
Si Si6 0.453870 0.205024 0.126870
O O1 0.370828 0.608370 0.113457
O O2 0.429262 0.500000 0.000000
O O3 0.383473 0.593112 0.622714
O O4 0.436007 0.687839 0.890034
O O5 0.810551 0.500000 0.500000
O O6 0.801470 0.658339 0.739137
O O7 0.874793 0.579201 0.711855
O O8 0.817029 0.500000 0.000000
O O9 0.687933 0.328177 0.929527
O O10 0.614770 0.250682 0.888654
O O11 0.254637 0.223884 0.357237
O O12 0.427603 0.856492 0.665231
O O13 0.446173 0.837322 0.157886
O O14 0.500000 0.208677 0.250000
#
# Coordination Sequence:
#
# PCOD9317064 Si02
#       6
#     8   8   8   8   8   8
#     4  10  19  34  53  78 110 145 189 231 268 318
#     4  11  22  39  63  88 112 144 192 240 278 325
#     4   9  19  35  54  75 103 148 191 219 263 332
#     4  11  22  39  60  84 116 150 184 228 285 344
#     4   9  19  35  57  79 106 145 187 225 270 334
#     4  10  19  34  56  82 110 146 188 229 278 337
#
# _framework density 20.507922000000001
#
# number of rings (size 3 to 8) (size 9 to 14) (size 15 to 20)
#    0.000    2.000    0.000    4.000    0.000    5.333 
#    0.000   13.333    0.000   10.000    0.000    0.000 
#    0.000    0.000    0.000    0.000    0.000    0.000 
#
# Total GULP energy -133884.857675 kJ/mol
# GULP energy per Si atom -5578.535736 kJ/mol
# Density = 2.046125 g / cm^3
# Si number density = 20.507922 Si / 1000 Ang^3
#
#
#
# Elastic Constant Matrix: (Units=GPa)
#
#
# Indices 1 2 3 4 5 6 
#
# 1 57.2373 -5.4202 4.9174 0.0000 0.0000 0.0000
# 2 -5.4202 37.7602 11.2182 0.0000 0.0000 0.0000
# 3 4.9174 11.2182 122.8287 0.0000 0.0000 0.0000
# 4 0.0000 0.0000 0.0000 29.4832 0.0000 0.0000
# 5 0.0000 0.0000 0.0000 0.0000 36.6679 0.0000
# 6 0.0000 0.0000 0.0000 0.0000 0.0000 13.5493
#
#
#
# Elastic Compliance Matrix: (Units=1/GPa)
#
#
# Indices 1 2 3 4 5 6 
#
# 1 0.017824 0.002848 -0.000974 0.000000 0.000000 0.000000
# 2 0.002848 0.027677 -0.002642 0.000000 0.000000 0.000000
# 3 -0.000974 -0.002642 0.008422 0.000000 0.000000 0.000000
# 4 0.000000 0.000000 0.000000 0.033918 0.000000 0.000000
# 5 0.000000 0.000000 0.000000 0.000000 0.027272 0.000000
# 6 0.000000 0.000000 0.000000 0.000000 0.000000 0.073805
#
#
# Mechanical properties :
#
#
# Convention : Reuss Voigt Hill
#
# Bulk Modulus (GPa) = 19.08854 26.58411 22.83633
# Shear Modulus (GPa) = 24.04837 29.74747 26.89792
#
# Velocity S-wave (km/s) = 3.42810 3.81272 3.62551
# Velocity P-wave (km/s) = 4.99972 5.68977 5.35587
#
# Compressibility (1/GPa) = 0.05238745
#
# Stress axis : x y z
#
# Youngs Moduli (GPa) = 56.10270 36.13171 118.74110
#
# Poissons Ratio (x) = -0.10290 0.11562
# Poissons Ratio (y) = -0.15977 0.31369
# Poissons Ratio (z) = 0.05463 0.09545
#
# Static dielectric constant tensor:
#      x y z
#    x 1.725850 0.000000 0.000000 
#    y 0.000000 1.778490 0.000000 
#    z 0.000000 0.000000 1.699750 
# 
# From -- ./inp_files/4627.got.cif
#   From: 2010.05.17/outbox.cif.g08.bks.cpg/sg20_3_cif.got.tgz:4627.got - 2010.06.03 22:52:26.
