data_PCOD9317386
_publ_section_title
;
Structure prediction by ZEFSAII (Michael W. Deem and Ramdas Pophale) SiO2 
 PCOD9317386
Probable space group: C 2 2 21
;
_chemical_formula_sum "Si O2"
_cell_formula_units_Z 64
_cell_length_a 29.973987
_cell_length_b 18.029217
_cell_length_c 6.264578
_cell_angle_alpha 90.000000
_cell_angle_beta 90.000000
_cell_angle_gamma 90.000000
_cell_volume 3385.425036
_symmetry_space_group_name_H-M "C 2 2 21"
_symmetry_group_IT_number 20
_symmetry_cell_setting 'orthorhombic'
loop_
_space_group_symop_operation_xyz
x,y,z
-x,-y,1/2+z
x,-y,-z
-x,y,1/2-z
1/2+x,1/2+y,z
1/2-x,1/2-y,1/2+z
1/2+x,1/2-y,-z
1/2-x,1/2+y,1/2-z
loop_
_atom_site_type_symbol
_atom_site_label
_atom_site_fract_x
_atom_site_fract_y
_atom_site_fract_z
Si Si1 0.684948 0.826358 0.207490
Si Si2 0.816216 0.848649 0.718972
Si Si3 0.765254 0.574717 0.391657
Si Si4 0.648860 0.078234 0.398993
Si Si5 0.393709 0.810379 0.620374
Si Si6 0.898833 0.913152 0.456341
Si Si7 0.615597 0.323200 0.430299
Si Si8 0.949198 0.787337 0.683384
O O1 0.694187 0.738755 0.208136
O O2 0.671729 0.866327 0.428028
O O3 0.724104 0.867683 0.081261
O O4 0.640877 0.832028 0.062598
O O5 0.770923 0.893876 0.728785
O O6 0.851788 0.879563 0.547013
O O7 0.842077 0.853854 0.944180
O O8 0.748759 0.500000 0.500000
O O9 0.811806 0.560805 0.270092
O O10 0.608013 0.120501 0.282178
O O11 0.635430 0.000000 0.500000
O O12 0.374961 0.742270 0.762452
O O13 0.435104 0.775149 0.490962
O O14 0.903575 0.890307 0.209556
O O15 0.936937 0.866366 0.577374
O O16 0.900449 0.000000 0.500000
O O17 0.582658 0.287766 0.607518
O O18 0.000000 0.780516 0.750000
#
# Coordination Sequence:
#
# PCOD9317386 Si02
#       8
#     8   8   8   8   8   8   8   8
#     4  11  21  40  56  83 122 159 210 256 312 373
#     4  11  23  37  58  83 115 165 213 262 308 371
#     4  11  26  37  53  87 122 164 214 269 320 371
#     4  11  22  39  59  83 127 161 202 272 311 376
#     4  10  19  37  63  88 120 152 206 252 307 383
#     4  10  23  40  57  87 120 167 212 251 310 379
#     4  10  19  39  61  83 121 158 203 256 301 369
#     4  10  21  39  62  95 127 154 209 258 308 374
#
# _framework density 18.904568000000001
#
# number of rings (size 3 to 8) (size 9 to 14) (size 15 to 20)
#    0.000    1.500    6.250    0.000    3.500    5.000 
#    2.250    0.000    0.000    0.000    0.000    0.000 
#   52.500    0.000    0.000    0.000    0.000    0.000 
#
# Total GULP energy -178393.009992 kJ/mol
# GULP energy per Si atom -5574.781562 kJ/mol
# Density = 1.886154 g / cm^3
# Si number density = 18.904568 Si / 1000 Ang^3
#
#
#
# Elastic Constant Matrix: (Units=GPa)
#
#
# Indices 1 2 3 4 5 6 
#
# 1 65.2782 34.6219 15.0943 0.0000 0.0000 0.0000
# 2 34.6219 126.4854 31.0730 0.0000 0.0000 0.0000
# 3 15.0943 31.0730 74.3603 0.0000 0.0000 0.0000
# 4 0.0000 0.0000 0.0000 29.6154 0.0000 0.0000
# 5 0.0000 0.0000 0.0000 0.0000 9.5303 0.0000
# 6 0.0000 0.0000 0.0000 0.0000 0.0000 13.6027
#
#
#
# Elastic Compliance Matrix: (Units=1/GPa)
#
#
# Indices 1 2 3 4 5 6 
#
# 1 0.018132 -0.004523 -0.001790 0.000000 0.000000 0.000000
# 2 -0.004523 0.009939 -0.003235 0.000000 0.000000 0.000000
# 3 -0.001790 -0.003235 0.015163 0.000000 0.000000 0.000000
# 4 0.000000 0.000000 0.000000 0.033766 0.000000 0.000000
# 5 0.000000 0.000000 0.000000 0.000000 0.104929 0.000000
# 6 0.000000 0.000000 0.000000 0.000000 0.000000 0.073515
#
#
# Mechanical properties :
#
#
# Convention : Reuss Voigt Hill
#
# Bulk Modulus (GPa) = 41.43057 47.52250 44.47653
# Shear Modulus (GPa) = 17.69367 22.90532 20.29950
#
# Velocity S-wave (km/s) = 3.06264 3.48462 3.28043
# Velocity P-wave (km/s) = 5.87108 6.43295 6.15842
#
# Compressibility (1/GPa) = 0.02413677
#
# Stress axis : x y z
#
# Youngs Moduli (GPa) = 55.15081 100.61457 65.94871
#
# Poissons Ratio (x) = 0.45511 0.11808
# Poissons Ratio (y) = 0.24946 0.21334
# Poissons Ratio (z) = 0.09874 0.32549
#
# Static dielectric constant tensor:
#      x y z
#    x 1.630930 0.000000 0.000000 
#    y 0.000000 1.674730 0.000000 
#    z 0.000000 0.000000 1.700100 
# 
# From -- ./inp_files/2920.got.cif
#   From: 2010.05.17/outbox.cif.g08.bks.cpg/sg20_2_cif.got.tgz:2920.got - 2010.06.03 22:52:26.
