data_PCOD9317096
_publ_section_title
;
Structure prediction by ZEFSAII (Michael W. Deem and Ramdas Pophale) SiO2 
 PCOD9317096
Probable space group: C 2 2 21
;
_chemical_formula_sum "Si O2"
_cell_formula_units_Z 52
_cell_length_a 21.023243
_cell_length_b 28.670583
_cell_length_c 5.236406
_cell_angle_alpha 90.000000
_cell_angle_beta 90.000000
_cell_angle_gamma 90.000000
_cell_volume 3156.236560
_symmetry_space_group_name_H-M "C 2 2 21"
_symmetry_group_IT_number 20
_symmetry_cell_setting 'orthorhombic'
loop_
_space_group_symop_operation_xyz
x,y,z
-x,-y,1/2+z
x,-y,-z
-x,y,1/2-z
1/2+x,1/2+y,z
1/2-x,1/2-y,1/2+z
1/2+x,1/2-y,-z
1/2-x,1/2+y,1/2-z
loop_
_atom_site_type_symbol
_atom_site_label
_atom_site_fract_x
_atom_site_fract_y
_atom_site_fract_z
Si Si1 0.836670 0.250286 0.994371
Si Si2 0.798469 0.697487 0.504501
Si Si3 0.617507 0.593075 0.417579
Si Si4 0.752759 0.596685 0.597453
Si Si5 0.456666 0.500000 0.000000
Si Si6 0.459131 0.314686 0.990588
Si Si7 0.279354 0.552086 0.402460
O O1 0.829109 0.285522 0.758469
O O2 0.773760 0.217621 0.991812
O O3 0.833960 0.278674 0.258282
O O4 0.898978 0.218945 0.969940
O O5 0.793186 0.642028 0.533520
O O6 0.677576 0.609816 0.584463
O O7 0.586632 0.545918 0.523713
O O8 0.567563 0.634413 0.409950
O O9 0.653202 0.577890 0.155045
O O10 0.755237 0.558115 0.371648
O O11 0.761260 0.577290 0.879534
O O12 0.500000 0.494682 0.750000
O O13 0.500000 0.297334 0.750000
O O14 0.500000 0.318005 0.250000
O O15 0.290857 0.500000 0.500000
#
# Coordination Sequence:
#
# PCOD9317096 Si02
#       7
#     8   8   8   8   4   8   8
#     4  10  20  35  53  76 100 126 167 213 279 317
#     4  10  19  34  57  76  96 125 166 229 262 319
#     4  10  24  36  53  67 100 129 187 226 267 300
#     4  10  20  32  54  75  97 124 176 217 273 304
#     4  12  26  36  48  64  92 138 188 226 258 288
#     4  12  25  38  53  75 105 140 175 222 273 318
#     4  10  20  32  52  71 101 134 170 218 262 311
#
# _framework density 16.475318000000001
#
# number of rings (size 3 to 8) (size 9 to 14) (size 15 to 20)
#    0.923    0.615    1.538    4.154    5.385    1.231 
#    0.000    0.000    0.000    0.000    0.000    0.000 
#    0.000    0.000    0.000    0.000    0.000  193.846 
#
# Total GULP energy -144930.734137 kJ/mol
# GULP energy per Si atom -5574.259005 kJ/mol
# Density = 1.643782 g / cm^3
# Si number density = 16.475318 Si / 1000 Ang^3
#
#
#
# Elastic Constant Matrix: (Units=GPa)
#
#
# Indices 1 2 3 4 5 6 
#
# 1 35.6857 34.6984 0.1358 0.0000 0.0000 0.0000
# 2 34.6984 63.0183 7.9339 0.0000 0.0000 0.0000
# 3 0.1358 7.9339 67.8525 0.0000 0.0000 0.0000
# 4 0.0000 0.0000 0.0000 19.1862 0.0000 0.0000
# 5 0.0000 0.0000 0.0000 0.0000 14.4091 0.0000
# 6 0.0000 0.0000 0.0000 0.0000 0.0000 17.7685
#
#
#
# Elastic Compliance Matrix: (Units=1/GPa)
#
#
# Indices 1 2 3 4 5 6 
#
# 1 0.061303 -0.034243 0.003881 0.000000 0.000000 0.000000
# 2 -0.034243 0.035233 -0.004051 0.000000 0.000000 0.000000
# 3 0.003881 -0.004051 0.015204 0.000000 0.000000 0.000000
# 4 0.000000 0.000000 0.000000 0.052121 0.000000 0.000000
# 5 0.000000 0.000000 0.000000 0.000000 0.069401 0.000000
# 6 0.000000 0.000000 0.000000 0.000000 0.000000 0.056280
#
#
# Mechanical properties :
#
#
# Convention : Reuss Voigt Hill
#
# Bulk Modulus (GPa) = 23.30222 28.01032 25.65627
# Shear Modulus (GPa) = 13.41668 18.52529 15.97098
#
# Velocity S-wave (km/s) = 2.85678 3.35689 3.11688
# Velocity P-wave (km/s) = 5.00560 5.66244 5.34412
#
# Compressibility (1/GPa) = 0.04291437
#
# Stress axis : x y z
#
# Youngs Moduli (GPa) = 16.31242 28.38268 65.77310
#
# Poissons Ratio (x) = 0.97190 -0.25528
# Poissons Ratio (y) = 0.55858 0.26646
# Poissons Ratio (z) = -0.06331 0.11498
#
# Static dielectric constant tensor:
#      x y z
#    x 1.535890 0.000000 0.000000 
#    y 0.000000 1.554840 0.000000 
#    z 0.000000 0.000000 1.593880 
# 
# From -- ./inp_files/2889.got.cif
#   From: 2010.05.17/outbox.cif.g08.bks.cpg/sg20_2_cif.got.tgz:2889.got - 2010.06.03 22:52:26.
