data_PCOD9317077
_publ_section_title
;
Structure prediction by ZEFSAII (Michael W. Deem and Ramdas Pophale) SiO2 
 PCOD9317077
Probable space group: C 2 2 21
;
_chemical_formula_sum "Si O2"
_cell_formula_units_Z 64
_cell_length_a 13.657790
_cell_length_b 11.854790
_cell_length_c 20.743869
_cell_angle_alpha 90.000000
_cell_angle_beta 90.000000
_cell_angle_gamma 90.000000
_cell_volume 3358.644649
_symmetry_space_group_name_H-M "C 2 2 21"
_symmetry_group_IT_number 20
_symmetry_cell_setting 'orthorhombic'
loop_
_space_group_symop_operation_xyz
x,y,z
-x,-y,1/2+z
x,-y,-z
-x,y,1/2-z
1/2+x,1/2+y,z
1/2-x,1/2-y,1/2+z
1/2+x,1/2-y,-z
1/2-x,1/2+y,1/2-z
loop_
_atom_site_type_symbol
_atom_site_label
_atom_site_fract_x
_atom_site_fract_y
_atom_site_fract_z
Si Si1 0.050798 0.447710 0.643571
Si Si2 0.252326 0.868975 0.790201
Si Si3 0.104118 0.067284 0.777485
Si Si4 0.845569 0.604075 0.949407
Si Si5 0.363527 0.307813 0.408581
Si Si6 0.286280 0.642977 0.850995
Si Si7 0.169559 0.415259 0.844243
Si Si8 0.564449 0.734738 0.547786
O O1 0.142620 0.417185 0.687797
O O2 0.082172 0.561681 0.606984
O O3 0.048724 0.346202 0.591759
O O4 0.943076 0.444954 0.673738
O O5 0.231178 0.759525 0.833592
O O6 0.169550 0.962260 0.798976
O O7 0.268973 0.856626 0.713504
O O8 0.098015 0.151053 0.838242
O O9 0.154919 0.124580 0.715809
O O10 0.000000 0.030599 0.750000
O O11 0.734905 0.626271 0.926369
O O12 0.842424 0.500000 0.000000
O O13 0.888131 0.715860 0.983270
O O14 0.456620 0.319799 0.455914
O O15 0.334643 0.176515 0.400880
O O16 0.220576 0.533190 0.860920
O O17 0.359228 0.661162 0.910793
#
# Coordination Sequence:
#
# PCOD9317077 Si02
#       8
#     8   8   8   8   8   8   8   8
#     4   9  18  34  57  82 111 147 199 239 278 339
#     4  10  19  34  55  84 116 153 180 231 293 355
#     4  11  20  34  59  86 116 149 191 235 288 361
#     4  10  21  39  59  85 114 154 207 246 286 345
#     4  11  20  38  61  87 115 153 201 245 294 348
#     4  10  20  36  55  85 123 147 188 235 294 352
#     4  10  21  33  56  90 115 148 188 241 294 347
#     4   9  20  35  59  81 110 157 195 237 286 354
#
# _framework density 19.055305000000001
#
# number of rings (size 3 to 8) (size 9 to 14) (size 15 to 20)
#    0.000    2.000    3.750    0.375    0.000    1.000 
#    0.000    8.125    0.000    0.000    0.000    0.000 
#    0.000    0.000    0.000    0.000    0.000    0.000 
#
# Total GULP energy -178335.645942 kJ/mol
# GULP energy per Si atom -5572.988936 kJ/mol
# Density = 1.901193 g / cm^3
# Si number density = 19.055305 Si / 1000 Ang^3
#
#
#
# Elastic Constant Matrix: (Units=GPa)
#
#
# Indices 1 2 3 4 5 6 
#
# 1 73.7750 26.0013 -5.2422 0.0000 0.0000 0.0000
# 2 26.0013 62.7299 0.1064 0.0000 0.0000 0.0000
# 3 -5.2422 0.1064 14.5154 0.0000 0.0000 0.0000
# 4 0.0000 0.0000 0.0000 14.4774 0.0000 0.0000
# 5 0.0000 0.0000 0.0000 0.0000 23.4554 0.0000
# 6 0.0000 0.0000 0.0000 0.0000 0.0000 29.7171
#
#
#
# Elastic Compliance Matrix: (Units=1/GPa)
#
#
# Indices 1 2 3 4 5 6 
#
# 1 0.016374 -0.006797 0.005963 0.000000 0.000000 0.000000
# 2 -0.006797 0.018763 -0.002592 0.000000 0.000000 0.000000
# 3 0.005963 -0.002592 0.071065 0.000000 0.000000 0.000000
# 4 0.000000 0.000000 0.000000 0.069073 0.000000 0.000000
# 5 0.000000 0.000000 0.000000 0.000000 0.042634 0.000000
# 6 0.000000 0.000000 0.000000 0.000000 0.000000 0.033651
#
#
# Mechanical properties :
#
#
# Convention : Reuss Voigt Hill
#
# Bulk Modulus (GPa) = 10.06543 21.41681 15.74112
# Shear Modulus (GPa) = 17.15096 22.20697 19.67897
#
# Velocity S-wave (km/s) = 3.00336 3.41749 3.21710
# Velocity P-wave (km/s) = 4.16180 5.18035 4.69875
#
# Compressibility (1/GPa) = 0.09934996
#
# Stress axis : x y z
#
# Youngs Moduli (GPa) = 61.07244 53.29607 14.07162
#
# Poissons Ratio (x) = 0.36226 -0.08391
# Poissons Ratio (y) = 0.41511 0.03648
# Poissons Ratio (z) = -0.36419 0.13816
#
# Static dielectric constant tensor:
#      x y z
#    x 1.656740 0.000000 0.000000 
#    y 0.000000 1.674040 0.000000 
#    z 0.000000 0.000000 1.679970 
# 
# From -- ./inp_files/29153.got.cif
#   From: 2010.05.17/outbox.cif.g08.bks.cpg/sg20_15_cif.got.tgz:29153.got - 2010.06.03 22:52:26.
