data_PCOD9317918
_publ_section_title
;
Structure prediction by ZEFSAII (Michael W. Deem and Ramdas Pophale) SiO2 
 PCOD9317918
Probable space group: C 2 2 21
;
_chemical_formula_sum "Si O2"
_cell_formula_units_Z 52
_cell_length_a 12.400173
_cell_length_b 23.938506
_cell_length_c 7.737274
_cell_angle_alpha 90.000000
_cell_angle_beta 90.000000
_cell_angle_gamma 90.000000
_cell_volume 2296.744916
_symmetry_space_group_name_H-M "C 2 2 21"
_symmetry_group_IT_number 20
_symmetry_cell_setting 'orthorhombic'
loop_
_space_group_symop_operation_xyz
x,y,z
-x,-y,1/2+z
x,-y,-z
-x,y,1/2-z
1/2+x,1/2+y,z
1/2-x,1/2-y,1/2+z
1/2+x,1/2-y,-z
1/2-x,1/2+y,1/2-z
loop_
_atom_site_type_symbol
_atom_site_label
_atom_site_fract_x
_atom_site_fract_y
_atom_site_fract_z
Si Si1 0.226492 0.817120 0.336643
Si Si2 0.000000 0.841488 0.250000
Si Si3 0.278269 0.077666 0.883602
Si Si4 0.885280 0.636448 0.174349
Si Si5 0.124736 0.523370 0.189831
Si Si6 0.934243 0.892630 0.591532
Si Si7 0.306190 0.293706 0.760282
O O1 0.110533 0.807154 0.243677
O O2 0.256817 0.878854 0.271809
O O3 0.313856 0.772004 0.272171
O O4 0.208324 0.808297 0.539246
O O5 0.005701 0.878815 0.423297
O O6 0.308038 0.017503 0.812156
O O7 0.378111 0.103812 0.992649
O O8 0.172878 0.079304 0.008584
O O9 0.840087 0.587773 0.300709
O O10 0.804611 0.687498 0.167280
O O11 0.000000 0.652488 0.250000
O O12 0.867584 0.500000 0.500000
O O13 0.000000 0.522773 0.250000
O O14 0.893525 0.833825 0.673050
O O15 0.000000 0.920768 0.750000
#
# Coordination Sequence:
#
# PCOD9317918 Si02
#       7
#     8   4   8   8   8   8   8
#     4  11  22  38  58  89 129 166 214 262 314 382
#     4  10  20  36  62  86 122 172 206 258 318 378
#     4  10  22  38  60  96 127 170 220 261 315 395
#     4  10  21  38  61  92 127 166 204 256 323 387
#     4  11  21  38  64  94 133 174 209 261 330 395
#     4  10  20  40  63  91 123 171 215 267 322 380
#     4  11  22  39  60  93 128 166 213 260 319 381
#
# _framework density 22.640737000000001
#
# number of rings (size 3 to 8) (size 9 to 14) (size 15 to 20)
#    0.000    1.538    1.538    6.000    1.077    0.000 
#    0.000    0.769    0.000    0.000   98.000    0.000 
#    0.000    0.000    0.000    0.000    0.000    0.000 
#
# Total GULP energy -145230.852865 kJ/mol
# GULP energy per Si atom -5585.802033 kJ/mol
# Density = 2.258921 g / cm^3
# Si number density = 22.640737 Si / 1000 Ang^3
#
#
#
# Elastic Constant Matrix: (Units=GPa)
#
#
# Indices 1 2 3 4 5 6 
#
# 1 69.7232 14.1502 6.9930 0.0000 0.0000 0.0000
# 2 14.1502 70.6916 2.4385 0.0000 0.0000 0.0000
# 3 6.9930 2.4385 145.3810 0.0000 0.0000 0.0000
# 4 0.0000 0.0000 0.0000 29.9956 0.0000 0.0000
# 5 0.0000 0.0000 0.0000 0.0000 35.4059 0.0000
# 6 0.0000 0.0000 0.0000 0.0000 0.0000 21.9283
#
#
#
# Elastic Compliance Matrix: (Units=1/GPa)
#
#
# Indices 1 2 3 4 5 6 
#
# 1 0.015015 -0.002982 -0.000672 0.000000 0.000000 0.000000
# 2 -0.002982 0.014746 -0.000104 0.000000 0.000000 0.000000
# 3 -0.000672 -0.000104 0.006913 0.000000 0.000000 0.000000
# 4 0.000000 0.000000 0.000000 0.033338 0.000000 0.000000
# 5 0.000000 0.000000 0.000000 0.000000 0.028244 0.000000
# 6 0.000000 0.000000 0.000000 0.000000 0.000000 0.045603
#
#
# Mechanical properties :
#
#
# Convention : Reuss Voigt Hill
#
# Bulk Modulus (GPa) = 34.29681 36.99548 35.64615
# Shear Modulus (GPa) = 31.03749 34.94691 32.99220
#
# Velocity S-wave (km/s) = 3.70654 3.93305 3.82148
# Velocity P-wave (km/s) = 5.78784 6.08284 5.93717
#
# Compressibility (1/GPa) = 0.02915723
#
# Stress axis : x y z
#
# Youngs Moduli (GPa) = 66.59951 67.81270 144.66435
#
# Poissons Ratio (x) = 0.20224 0.09725
# Poissons Ratio (y) = 0.19862 0.01503
# Poissons Ratio (z) = 0.04477 0.00705
#
# Static dielectric constant tensor:
#      x y z
#    x 1.873520 0.000000 0.000000 
#    y 0.000000 1.815890 0.000000 
#    z 0.000000 0.000000 1.867180 
# 
# From -- ./inp_files/7521.got.cif
#   From: 2010.05.17/outbox.cif.g08.bks.cpg/sg20_4_cif.got.tgz:7521.got - 2010.06.03 22:52:26.
