data_PCOD9317937
_publ_section_title
;
Structure prediction by ZEFSAII (Michael W. Deem and Ramdas Pophale) SiO2 
 PCOD9317937
Probable space group: C 2 2 21
;
_chemical_formula_sum "Si O2"
_cell_formula_units_Z 60
_cell_length_a 23.409609
_cell_length_b 14.105677
_cell_length_c 9.431191
_cell_angle_alpha 90.000000
_cell_angle_beta 90.000000
_cell_angle_gamma 90.000000
_cell_volume 3114.258332
_symmetry_space_group_name_H-M "C 2 2 21"
_symmetry_group_IT_number 20
_symmetry_cell_setting 'orthorhombic'
loop_
_space_group_symop_operation_xyz
x,y,z
-x,-y,1/2+z
x,-y,-z
-x,y,1/2-z
1/2+x,1/2+y,z
1/2-x,1/2-y,1/2+z
1/2+x,1/2-y,-z
1/2-x,1/2+y,1/2-z
loop_
_atom_site_type_symbol
_atom_site_label
_atom_site_fract_x
_atom_site_fract_y
_atom_site_fract_z
Si Si1 0.503174 0.201351 0.422723
Si Si2 0.877504 0.716219 0.435378
Si Si3 0.185362 0.855733 0.275897
Si Si4 0.694262 0.753953 0.206550
Si Si5 0.627108 0.245175 0.507480
Si Si6 0.269095 0.463644 0.661550
Si Si7 0.140358 0.434195 0.698307
Si Si8 0.449909 0.000000 0.000000
O O1 0.500000 0.205046 0.250000
O O2 0.442485 0.236059 0.478820
O O3 0.559467 0.254626 0.479572
O O4 0.513487 0.093393 0.473442
O O5 0.854739 0.801208 0.336254
O O6 0.835024 0.706283 0.565649
O O7 0.877534 0.621376 0.339264
O O8 0.248156 0.810311 0.256840
O O9 0.161582 0.827863 0.428784
O O10 0.190658 0.966422 0.249182
O O11 0.649266 0.760258 0.333920
O O12 0.712661 0.645170 0.177377
O O13 0.643535 0.148699 0.422107
O O14 0.271587 0.500000 0.500000
O O15 0.203446 0.474779 0.711300
O O16 0.092416 0.504308 0.636839
#
# Coordination Sequence:
#
# PCOD9317937 Si02
#       8
#     8   8   8   8   8   8   8   4
#     4  11  21  43  68  87 125 183 216 260 329 396
#     4  11  22  43  64  92 128 177 223 265 326 404
#     4  11  22  39  67  92 129 176 216 269 342 400
#     4  12  24  41  62  98 138 165 227 282 335 394
#     4  10  22  41  64  90 130 176 215 271 329 399
#     4  12  22  36  68  97 130 173 218 274 340 398
#     4  10  20  38  64  91 131 175 215 259 333 402
#     4  10  20  36  64  92 126 164 224 256 312 400
#
# _framework density 19.266224000000001
#
# number of rings (size 3 to 8) (size 9 to 14) (size 15 to 20)
#    0.000    1.067    8.667    1.600    1.867    1.067 
#    7.200    0.000    0.000    4.800    0.000    0.000 
#    0.000    0.000    0.000    0.000    0.000    0.000 
#
# Total GULP energy -167611.258042 kJ/mol
# GULP energy per Si atom -5587.041935 kJ/mol
# Density = 1.922237 g / cm^3
# Si number density = 19.266224 Si / 1000 Ang^3
#
#
#
# Elastic Constant Matrix: (Units=GPa)
#
#
# Indices 1 2 3 4 5 6 
#
# 1 116.3213 26.2936 17.9053 0.0000 0.0000 0.0000
# 2 26.2936 47.6027 12.7526 0.0000 0.0000 0.0000
# 3 17.9053 12.7526 63.5687 0.0000 0.0000 0.0000
# 4 0.0000 0.0000 0.0000 28.3234 0.0000 0.0000
# 5 0.0000 0.0000 0.0000 0.0000 3.6815 0.0000
# 6 0.0000 0.0000 0.0000 0.0000 0.0000 28.3176
#
#
#
# Elastic Compliance Matrix: (Units=1/GPa)
#
#
# Indices 1 2 3 4 5 6 
#
# 1 0.010016 -0.005048 -0.001809 0.000000 0.000000 0.000000
# 2 -0.005048 0.024744 -0.003542 0.000000 0.000000 0.000000
# 3 -0.001809 -0.003542 0.016951 0.000000 0.000000 0.000000
# 4 0.000000 0.000000 0.000000 0.035307 0.000000 0.000000
# 5 0.000000 0.000000 0.000000 0.000000 0.271632 0.000000
# 6 0.000000 0.000000 0.000000 0.000000 0.000000 0.035314
#
#
# Mechanical properties :
#
#
# Convention : Reuss Voigt Hill
#
# Bulk Modulus (GPa) = 32.34753 37.93284 35.14019
# Shear Modulus (GPa) = 11.76288 23.43390 17.59839
#
# Velocity S-wave (km/s) = 2.47360 3.49136 3.02558
# Velocity P-wave (km/s) = 4.99845 5.99869 5.52127
#
# Compressibility (1/GPa) = 0.03091426
#
# Stress axis : x y z
#
# Youngs Moduli (GPa) = 99.83675 40.41306 58.99346
#
# Poissons Ratio (x) = 0.20401 0.10669
# Poissons Ratio (y) = 0.50398 0.20896
# Poissons Ratio (z) = 0.18056 0.14315
#
# Static dielectric constant tensor:
#      x y z
#    x 1.694330 0.000000 0.000000 
#    y 0.000000 1.676350 0.000000 
#    z 0.000000 0.000000 1.680030 
# 
# From -- ./inp_files/10761.got.cif
#   From: 2010.05.17/outbox.cif.g08.bks.cpg/sg20_6_cif.got.tgz:10761.got - 2010.06.03 22:52:26.
