data_PCOD9317209
_publ_section_title
;
Structure prediction by ZEFSAII (Michael W. Deem and Ramdas Pophale) SiO2 
 PCOD9317209
Probable space group: C 2 2 21
;
_chemical_formula_sum "Si O2"
_cell_formula_units_Z 28
_cell_length_a 11.129813
_cell_length_b 8.750401
_cell_length_c 13.234294
_cell_angle_alpha 90.000000
_cell_angle_beta 90.000000
_cell_angle_gamma 90.000000
_cell_volume 1288.892218
_symmetry_space_group_name_H-M "C 2 2 21"
_symmetry_group_IT_number 20
_symmetry_cell_setting 'orthorhombic'
loop_
_space_group_symop_operation_xyz
x,y,z
-x,-y,1/2+z
x,-y,-z
-x,y,1/2-z
1/2+x,1/2+y,z
1/2-x,1/2-y,1/2+z
1/2+x,1/2-y,-z
1/2-x,1/2+y,1/2-z
loop_
_atom_site_type_symbol
_atom_site_label
_atom_site_fract_x
_atom_site_fract_y
_atom_site_fract_z
Si Si1 0.334476 0.516296 0.215243
Si Si2 0.435531 0.925789 0.650889
Si Si3 0.057052 0.110682 0.908358
Si Si4 0.500000 0.205892 0.750000
O O1 0.202003 0.533887 0.173403
O O2 0.348352 0.418229 0.317483
O O3 0.428013 0.445923 0.134587
O O4 0.387223 0.682217 0.245154
O O5 0.500000 0.852301 0.750000
O O6 0.444963 0.791806 0.569712
O O7 0.499529 0.090853 0.654243
O O8 0.088248 0.000000 0.000000
#
# Coordination Sequence:
#
# PCOD9317209 Si02
#       4
#     8   8   8   4
#     4  10  19  39  58  81 117 150 193 241 288 346
#     4  10  19  35  61  79 107 155 191 231 299 337
#     4  10  21  40  58  86 119 154 195 241 292 348
#     4   8  18  30  58  80 100 144 190 226 284 336
#
# _framework density 21.724081999999999
#
# number of rings (size 3 to 8) (size 9 to 14) (size 15 to 20)
#    0.857    1.714    2.857    1.714    0.000    0.000 
#    5.143    5.714    0.000    0.000    0.000    0.000 
#    0.000    0.000    0.000    0.000    0.000    0.000 
#
# Total GULP energy -77967.038699 kJ/mol
# GULP energy per Si atom -5569.074193 kJ/mol
# Density = 2.167464 g / cm^3
# Si number density = 21.724082 Si / 1000 Ang^3
#
#
#
# Elastic Constant Matrix: (Units=GPa)
#
#
# Indices 1 2 3 4 5 6 
#
# 1 68.9929 -0.5026 1.5572 0.0000 0.0000 0.0000
# 2 -0.5026 109.6206 -1.3576 0.0000 0.0000 0.0000
# 3 1.5572 -1.3576 53.1402 0.0000 0.0000 0.0000
# 4 0.0000 0.0000 0.0000 28.5062 0.0000 0.0000
# 5 0.0000 0.0000 0.0000 0.0000 2.2625 0.0000
# 6 0.0000 0.0000 0.0000 0.0000 0.0000 23.1757
#
#
#
# Elastic Compliance Matrix: (Units=1/GPa)
#
#
# Indices 1 2 3 4 5 6 
#
# 1 0.014504 0.000061 -0.000423 0.000000 0.000000 0.000000
# 2 0.000061 0.009126 0.000231 0.000000 0.000000 0.000000
# 3 -0.000423 0.000231 0.018836 0.000000 0.000000 0.000000
# 4 0.000000 0.000000 0.000000 0.035080 0.000000 0.000000
# 5 0.000000 0.000000 0.000000 0.000000 0.441987 0.000000
# 6 0.000000 0.000000 0.000000 0.000000 0.000000 0.043149
#
#
# Mechanical properties :
#
#
# Convention : Reuss Voigt Hill
#
# Bulk Modulus (GPa) = 23.69415 25.68307 24.68861
# Shear Modulus (GPa) = 8.66534 26.25933 17.46233
#
# Velocity S-wave (km/s) = 1.99937 3.48050 2.83825
# Velocity P-wave (km/s) = 4.03243 5.29150 4.70428
#
# Compressibility (1/GPa) = 0.04220452
#
# Stress axis : x y z
#
# Youngs Moduli (GPa) = 68.94534 109.58281 53.08849
#
# Poissons Ratio (x) = -0.00671 0.02248
# Poissons Ratio (y) = -0.00422 -0.01228
# Poissons Ratio (z) = 0.02920 -0.02535
#
# Static dielectric constant tensor:
#      x y z
#    x 1.756810 0.000000 0.000000 
#    y 0.000000 1.839160 0.000000 
#    z 0.000000 0.000000 1.861430 
# 
# From -- ./inp_files/18093.got.cif
#   From: 2010.05.17/outbox.cif.g08.bks.cpg/sg20_10_cif.got.tgz:18093.got - 2010.06.03 22:52:26.
