data_PCOD9317678
_publ_section_title
;
Structure prediction by ZEFSAII (Michael W. Deem and Ramdas Pophale) SiO2 
 PCOD9317678
Probable space group: C 2 2 21
;
_chemical_formula_sum "Si O2"
_cell_formula_units_Z 52
_cell_length_a 9.129501
_cell_length_b 29.258462
_cell_length_c 10.855827
_cell_angle_alpha 90.000000
_cell_angle_beta 90.000000
_cell_angle_gamma 90.000000
_cell_volume 2899.755945
_symmetry_space_group_name_H-M "C 2 2 21"
_symmetry_group_IT_number 20
_symmetry_cell_setting 'orthorhombic'
loop_
_space_group_symop_operation_xyz
x,y,z
-x,-y,1/2+z
x,-y,-z
-x,y,1/2-z
1/2+x,1/2+y,z
1/2-x,1/2-y,1/2+z
1/2+x,1/2-y,-z
1/2-x,1/2+y,1/2-z
loop_
_atom_site_type_symbol
_atom_site_label
_atom_site_fract_x
_atom_site_fract_y
_atom_site_fract_z
Si Si1 0.278098 0.605578 0.564130
Si Si2 0.655093 0.439536 0.808817
Si Si3 0.170608 0.846978 0.705321
Si Si4 0.607049 0.016437 0.634009
Si Si5 0.500000 0.650148 0.750000
Si Si6 0.584041 0.706945 0.526247
Si Si7 0.755520 0.301611 0.946917
O O1 0.358410 0.585465 0.441990
O O2 0.169808 0.567019 0.612376
O O3 0.395767 0.619440 0.665976
O O4 0.201213 0.652505 0.520570
O O5 0.500000 0.453110 0.750000
O O6 0.720512 0.399463 0.720969
O O7 0.760207 0.482024 0.832378
O O8 0.168558 0.824740 0.571981
O O9 0.254230 0.815422 0.803267
O O10 0.000000 0.848085 0.750000
O O11 0.500000 0.015179 0.750000
O O12 0.546746 0.000000 0.500000
O O13 0.590419 0.682908 0.658678
O O14 0.413093 0.707767 0.486604
O O15 0.648733 0.757494 0.527317
#
# Coordination Sequence:
#
# PCOD9317678 Si02
#       7
#     8   8   8   8   4   8   8
#     4   9  20  38  57  81 125 147 184 243 295 331
#     4   9  17  36  65  84 106 148 196 238 285 342
#     4   8  16  33  53  76 106 144 185 224 275 335
#     4  10  22  43  60  85 122 157 190 241 300 355
#     4  10  20  34  56  86 116 138 190 248 278 324
#     4  10  20  34  54  80 113 145 185 230 278 330
#     4   9  19  35  55  78 110 150 187 227 276 336
#
# _framework density 17.932544
#
# number of rings (size 3 to 8) (size 9 to 14) (size 15 to 20)
#    0.000    2.769    0.000    2.769    5.385    0.000 
#    8.308    3.077    1.692    0.000    0.000    0.000 
#    0.000    0.000    0.000    0.000    0.000    0.000 
#
# Total GULP energy -144918.917633 kJ/mol
# GULP energy per Si atom -5573.804524 kJ/mol
# Density = 1.789173 g / cm^3
# Si number density = 17.932544 Si / 1000 Ang^3
#
#
#
# Elastic Constant Matrix: (Units=GPa)
#
#
# Indices 1 2 3 4 5 6 
#
# 1 35.4122 46.1618 44.4172 0.0000 0.0000 0.0000
# 2 46.1618 135.4539 75.3205 0.0000 0.0000 0.0000
# 3 44.4172 75.3205 138.8967 0.0000 0.0000 0.0000
# 4 0.0000 0.0000 0.0000 18.1560 0.0000 0.0000
# 5 0.0000 0.0000 0.0000 0.0000 10.8458 0.0000
# 6 0.0000 0.0000 0.0000 0.0000 0.0000 20.5768
#
#
#
# Elastic Compliance Matrix: (Units=1/GPa)
#
#
# Indices 1 2 3 4 5 6 
#
# 1 0.062277 -0.014531 -0.012035 0.000000 0.000000 0.000000
# 2 -0.014531 0.013960 -0.002924 0.000000 0.000000 0.000000
# 3 -0.012035 -0.002924 0.012634 0.000000 0.000000 0.000000
# 4 0.000000 0.000000 0.000000 0.055078 0.000000 0.000000
# 5 0.000000 0.000000 0.000000 0.000000 0.092202 0.000000
# 6 0.000000 0.000000 0.000000 0.000000 0.000000 0.048599
#
#
# Mechanical properties :
#
#
# Convention : Reuss Voigt Hill
#
# Bulk Modulus (GPa) = 33.45511 71.28465 52.36988
# Shear Modulus (GPa) = 14.13656 19.50660 16.82158
#
# Velocity S-wave (km/s) = 2.81075 3.30172 3.06608
# Velocity P-wave (km/s) = 5.40651 7.37381 6.46542
#
# Compressibility (1/GPa) = 0.02989080
#
# Stress axis : x y z
#
# Youngs Moduli (GPa) = 16.05735 71.63128 79.15355
#
# Poissons Ratio (x) = 1.04089 0.95264
# Poissons Ratio (y) = 0.23333 0.23141
# Poissons Ratio (z) = 0.19326 0.20942
#
# Static dielectric constant tensor:
#      x y z
#    x 1.601020 0.000000 0.000000 
#    y 0.000000 1.618630 0.000000 
#    z 0.000000 0.000000 1.632140 
# 
# From -- ./inp_files/13257.got.cif
#   From: 2010.05.17/outbox.cif.g08.bks.cpg/sg20_7_cif.got.tgz:13257.got - 2010.06.03 22:52:26.
