data_PCOD9317066
_publ_section_title
;
Structure prediction by ZEFSAII (Michael W. Deem and Ramdas Pophale) SiO2 
 PCOD9317066
Probable space group: C 2 2 21
;
_chemical_formula_sum "Si O2"
_cell_formula_units_Z 52
_cell_length_a 24.272376
_cell_length_b 15.089172
_cell_length_c 8.324911
_cell_angle_alpha 90.000000
_cell_angle_beta 90.000000
_cell_angle_gamma 90.000000
_cell_volume 3048.999123
_symmetry_space_group_name_H-M "C 2 2 21"
_symmetry_group_IT_number 20
_symmetry_cell_setting 'orthorhombic'
loop_
_space_group_symop_operation_xyz
x,y,z
-x,-y,1/2+z
x,-y,-z
-x,y,1/2-z
1/2+x,1/2+y,z
1/2-x,1/2-y,1/2+z
1/2+x,1/2-y,-z
1/2-x,1/2+y,1/2-z
loop_
_atom_site_type_symbol
_atom_site_label
_atom_site_fract_x
_atom_site_fract_y
_atom_site_fract_z
Si Si1 0.701484 0.806056 0.500590
Si Si2 0.022886 0.097101 0.433805
Si Si3 0.791879 0.500000 0.000000
Si Si4 0.594951 0.391594 0.013039
Si Si5 0.808395 0.811742 0.296024
Si Si6 0.361912 0.351248 0.836134
Si Si7 0.271847 0.504891 0.832027
O O1 0.679265 0.905646 0.474194
O O2 0.765524 0.805571 0.444133
O O3 0.693643 0.773957 0.683417
O O4 0.671747 0.734521 0.388072
O O5 0.081121 0.145697 0.435967
O O6 0.000000 0.091009 0.250000
O O7 0.969549 0.130249 0.530440
O O8 0.034893 0.000000 0.500000
O O9 0.756330 0.482729 0.838119
O O10 0.632613 0.346690 0.146422
O O11 0.600113 0.500000 0.000000
O O12 0.618100 0.353095 0.846998
O O13 0.787208 0.892702 0.187255
O O14 0.323653 0.438679 0.852533
O O15 0.238905 0.500000 0.000000
#
# Coordination Sequence:
#
# PCOD9317066 Si02
#       7
#     8   8   4   8   8   8   8
#     4  11  23  34  52  74 106 146 190 233 275 331
#     4   9  20  31  50  78 114 146 179 217 271 346
#     4  10  24  40  48  76 112 146 188 252 278 306
#     4  10  19  34  53  80 116 149 172 226 283 340
#     4  11  21  33  53  78 107 147 187 228 274 342
#     4  11  19  34  51  79 109 149 186 216 278 340
#     4  11  19  32  55  76 109 146 181 217 279 335
#
# _framework density 17.054776
#
# number of rings (size 3 to 8) (size 9 to 14) (size 15 to 20)
#    0.000    1.538    3.077    4.154    1.077    0.000 
#    0.000    0.000    0.000    0.000    0.000    6.462 
#    0.000    0.000    0.000    0.000    0.000    0.000 
#
# Total GULP energy -144903.575549 kJ/mol
# GULP energy per Si atom -5573.214444 kJ/mol
# Density = 1.701596 g / cm^3
# Si number density = 17.054776 Si / 1000 Ang^3
#
#
#
# Elastic Constant Matrix: (Units=GPa)
#
#
# Indices 1 2 3 4 5 6 
#
# 1 68.9506 35.2534 18.5035 0.0000 0.0000 0.0000
# 2 35.2534 97.5212 12.9558 0.0000 0.0000 0.0000
# 3 18.5035 12.9558 73.2235 0.0000 0.0000 0.0000
# 4 0.0000 0.0000 0.0000 30.3383 0.0000 0.0000
# 5 0.0000 0.0000 0.0000 0.0000 3.1675 0.0000
# 6 0.0000 0.0000 0.0000 0.0000 0.0000 8.5699
#
#
#
# Elastic Compliance Matrix: (Units=1/GPa)
#
#
# Indices 1 2 3 4 5 6 
#
# 1 0.018679 -0.006273 -0.003610 0.000000 0.000000 0.000000
# 2 -0.006273 0.012608 -0.000646 0.000000 0.000000 0.000000
# 3 -0.003610 -0.000646 0.014683 0.000000 0.000000 0.000000
# 4 0.000000 0.000000 0.000000 0.032962 0.000000 0.000000
# 5 0.000000 0.000000 0.000000 0.000000 0.315706 0.000000
# 6 0.000000 0.000000 0.000000 0.000000 0.000000 0.116687
#
#
# Mechanical properties :
#
#
# Convention : Reuss Voigt Hill
#
# Bulk Modulus (GPa) = 40.14022 41.45785 40.79904
# Shear Modulus (GPa) = 9.24751 19.94733 14.59742
#
# Velocity S-wave (km/s) = 2.33110 3.42366 2.92877
# Velocity P-wave (km/s) = 5.55270 6.32376 5.95073
#
# Compressibility (1/GPa) = 0.02491267
#
# Stress axis : x y z
#
# Youngs Moduli (GPa) = 53.53549 79.31777 68.10426
#
# Poissons Ratio (x) = 0.49754 0.24588
# Poissons Ratio (y) = 0.33582 0.04397
# Poissons Ratio (z) = 0.19328 0.05121
#
# Static dielectric constant tensor:
#      x y z
#    x 1.596700 0.000000 0.000000 
#    y 0.000000 1.585220 0.000000 
#    z 0.000000 0.000000 1.669040 
# 
# From -- ./inp_files/8652.got.cif
#   From: 2010.05.17/outbox.cif.g08.bks.cpg/sg20_5_cif.got.tgz:8652.got - 2010.06.03 22:52:26.
