data_PCOD9317795
_publ_section_title
;
Structure prediction by ZEFSAII (Michael W. Deem and Ramdas Pophale) SiO2 
 PCOD9317795
Probable space group: C 2 2 21
;
_chemical_formula_sum "Si O2"
_cell_formula_units_Z 48
_cell_length_a 19.334546
_cell_length_b 13.076983
_cell_length_c 8.569061
_cell_angle_alpha 90.000000
_cell_angle_beta 90.000000
_cell_angle_gamma 90.000000
_cell_volume 2166.580212
_symmetry_space_group_name_H-M "C 2 2 21"
_symmetry_group_IT_number 20
_symmetry_cell_setting 'orthorhombic'
loop_
_space_group_symop_operation_xyz
x,y,z
-x,-y,1/2+z
x,-y,-z
-x,y,1/2-z
1/2+x,1/2+y,z
1/2-x,1/2-y,1/2+z
1/2+x,1/2-y,-z
1/2-x,1/2+y,1/2-z
loop_
_atom_site_type_symbol
_atom_site_label
_atom_site_fract_x
_atom_site_fract_y
_atom_site_fract_z
Si Si1 0.101032 0.279765 0.133763
Si Si2 0.718328 0.404286 0.582761
Si Si3 0.867874 0.390044 0.061349
Si Si4 0.563917 0.417989 0.661692
Si Si5 0.248886 0.710055 0.405647
Si Si6 0.477204 0.261052 0.074724
O O1 0.116645 0.368809 0.257602
O O2 0.074736 0.185703 0.238437
O O3 0.171895 0.239652 0.060089
O O4 0.039949 0.296143 0.014287
O O5 0.756186 0.500000 0.500000
O O6 0.644091 0.449760 0.642706
O O7 0.750391 0.343633 0.733439
O O8 0.711382 0.317878 0.447746
O O9 0.887153 0.500000 0.000000
O O10 0.787640 0.367917 0.023934
O O11 0.910838 0.308434 0.959633
O O12 0.500000 0.471921 0.750000
O O13 0.537434 0.373517 0.497021
O O14 0.500000 0.269181 0.250000
#
# Coordination Sequence:
#
# PCOD9317795 Si02
#       6
#     8   8   8   8   8   8
#     4   9  20  38  61  84 127 174 210 274 342 401
#     4  11  24  40  69  98 134 182 230 286 354 425
#     4  11  23  40  61  89 131 177 216 273 353 416
#     4   8  16  39  62  86 125 171 210 275 350 399
#     4  11  22  42  63  95 133 177 223 290 336 421
#     4  10  20  35  62  93 121 169 223 277 335 410
#
# _framework density 22.154731000000002
#
# number of rings (size 3 to 8) (size 9 to 14) (size 15 to 20)
#    0.000    2.000    5.000    1.500    4.667    1.333 
#    0.000    1.667    0.000    7.000    0.000    0.000 
#    0.000    0.000    0.000    0.000    0.000    0.000 
#
# Total GULP energy -133695.098049 kJ/mol
# GULP energy per Si atom -5570.629085 kJ/mol
# Density = 2.210431 g / cm^3
# Si number density = 22.154731 Si / 1000 Ang^3
#
#
#
# Elastic Constant Matrix: (Units=GPa)
#
#
# Indices 1 2 3 4 5 6 
#
# 1 87.1105 -12.0305 17.1533 0.0000 0.0000 0.0000
# 2 -12.0305 53.1862 10.9850 0.0000 0.0000 0.0000
# 3 17.1533 10.9850 87.9735 0.0000 0.0000 0.0000
# 4 0.0000 0.0000 0.0000 21.7752 0.0000 0.0000
# 5 0.0000 0.0000 0.0000 0.0000 27.6570 0.0000
# 6 0.0000 0.0000 0.0000 0.0000 0.0000 7.2922
#
#
#
# Elastic Compliance Matrix: (Units=1/GPa)
#
#
# Indices 1 2 3 4 5 6 
#
# 1 0.012517 0.003424 -0.002868 0.000000 0.000000 0.000000
# 2 0.003424 0.020236 -0.003194 0.000000 0.000000 0.000000
# 3 -0.002868 -0.003194 0.012325 0.000000 0.000000 0.000000
# 4 0.000000 0.000000 0.000000 0.045924 0.000000 0.000000
# 5 0.000000 0.000000 0.000000 0.000000 0.036157 0.000000
# 6 0.000000 0.000000 0.000000 0.000000 0.000000 0.137132
#
#
# Mechanical properties :
#
#
# Convention : Reuss Voigt Hill
#
# Bulk Modulus (GPa) = 25.12506 28.94289 27.03397
# Shear Modulus (GPa) = 17.67808 25.48905 21.58357
#
# Velocity S-wave (km/s) = 2.82784 3.39558 3.12463
# Velocity P-wave (km/s) = 4.69336 5.33532 5.02460
#
# Compressibility (1/GPa) = 0.03980090
#
# Stress axis : x y z
#
# Youngs Moduli (GPa) = 79.88950 49.41668 81.13476
#
# Poissons Ratio (x) = -0.16919 0.23271
# Poissons Ratio (y) = -0.27352 0.25918
# Poissons Ratio (z) = 0.22914 0.15786
#
# Static dielectric constant tensor:
#      x y z
#    x 1.871990 0.000000 0.000000 
#    y 0.000000 1.825750 0.000000 
#    z 0.000000 0.000000 1.875800 
# 
# From -- ./inp_files/9348.got.cif
#   From: 2010.05.17/outbox.cif.g08.bks.cpg/sg20_5_cif.got.tgz:9348.got - 2010.06.03 22:52:26.
