data_PCOD9317908
_publ_section_title
;
Structure prediction by ZEFSAII (Michael W. Deem and Ramdas Pophale) SiO2 
 PCOD9317908
Probable space group: C 2 2 21
;
_chemical_formula_sum "Si O2"
_cell_formula_units_Z 40
_cell_length_a 9.167046
_cell_length_b 22.598594
_cell_length_c 9.040555
_cell_angle_alpha 90.000000
_cell_angle_beta 90.000000
_cell_angle_gamma 90.000000
_cell_volume 1872.862626
_symmetry_space_group_name_H-M "C 2 2 21"
_symmetry_group_IT_number 20
_symmetry_cell_setting 'orthorhombic'
loop_
_space_group_symop_operation_xyz
x,y,z
-x,-y,1/2+z
x,-y,-z
-x,y,1/2-z
1/2+x,1/2+y,z
1/2-x,1/2-y,1/2+z
1/2+x,1/2-y,-z
1/2-x,1/2+y,1/2-z
loop_
_atom_site_type_symbol
_atom_site_label
_atom_site_fract_x
_atom_site_fract_y
_atom_site_fract_z
Si Si1 0.482876 0.223524 0.576769
Si Si2 0.144980 0.338292 0.660954
Si Si3 0.852345 0.480178 0.830315
Si Si4 0.893345 0.044628 0.120005
Si Si5 0.183515 0.824771 0.563722
O O1 0.500000 0.216218 0.750000
O O2 0.611969 0.184839 0.500594
O O3 0.323997 0.201276 0.523085
O O4 0.535402 0.289555 0.529782
O O5 0.147980 0.408825 0.662002
O O6 0.277316 0.315930 0.761442
O O7 0.000000 0.319138 0.750000
O O8 0.726387 0.492844 0.711310
O O9 0.000000 0.500685 0.750000
O O10 0.837767 0.500000 0.000000
O O11 0.831270 0.104448 0.045978
O O12 0.000000 0.065375 0.250000
O O13 0.960063 0.000000 0.000000
#
# Coordination Sequence:
#
# PCOD9317908 Si02
#       5
#     8   8   8   8   8
#     4  11  21  36  61  92 122 159 207 252 298 363
#     4   8  18  35  52  79 121 159 190 239 306 359
#     4  10  20  36  61  90 124 165 208 256 308 363
#     4  11  24  44  65  89 123 165 209 253 308 370
#     4  10  22  41  62  88 125 162 198 250 314 365
#
# _framework density 21.357679999999998
#
# number of rings (size 3 to 8) (size 9 to 14) (size 15 to 20)
#    0.000    2.000    0.000    4.200    0.000    4.000 
#    0.000    5.000    0.000    0.000    0.000    0.000 
#    0.000    0.000    0.000    0.000    0.000    0.000 
#
# Total GULP energy -111502.763204 kJ/mol
# GULP energy per Si atom -5575.138160 kJ/mol
# Density = 2.130907 g / cm^3
# Si number density = 21.357680 Si / 1000 Ang^3
#
#
#
# Elastic Constant Matrix: (Units=GPa)
#
#
# Indices 1 2 3 4 5 6 
#
# 1 85.3807 30.8057 18.2935 0.0000 0.0000 0.0000
# 2 30.8057 73.2256 47.1549 0.0000 0.0000 0.0000
# 3 18.2935 47.1549 95.3530 0.0000 0.0000 0.0000
# 4 0.0000 0.0000 0.0000 30.2389 0.0000 0.0000
# 5 0.0000 0.0000 0.0000 0.0000 39.3865 0.0000
# 6 0.0000 0.0000 0.0000 0.0000 0.0000 9.6934
#
#
#
# Elastic Compliance Matrix: (Units=1/GPa)
#
#
# Indices 1 2 3 4 5 6 
#
# 1 0.013815 -0.006023 0.000328 0.000000 0.000000 0.000000
# 2 -0.006023 0.022664 -0.010052 0.000000 0.000000 0.000000
# 3 0.000328 -0.010052 0.015396 0.000000 0.000000 0.000000
# 4 0.000000 0.000000 0.000000 0.033070 0.000000 0.000000
# 5 0.000000 0.000000 0.000000 0.000000 0.025389 0.000000
# 6 0.000000 0.000000 0.000000 0.000000 0.000000 0.103163
#
#
# Mechanical properties :
#
#
# Convention : Reuss Voigt Hill
#
# Bulk Modulus (GPa) = 49.06853 49.60750 49.33801
# Shear Modulus (GPa) = 19.85823 26.37744 23.11784
#
# Velocity S-wave (km/s) = 3.05256 3.51812 3.29357
# Velocity P-wave (km/s) = 5.95388 6.30716 6.13307
#
# Compressibility (1/GPa) = 0.02037966
#
# Stress axis : x y z
#
# Youngs Moduli (GPa) = 72.38417 44.12315 64.95384
#
# Poissons Ratio (x) = 0.26577 -0.02133
# Poissons Ratio (y) = 0.43600 0.65294
# Poissons Ratio (z) = -0.02376 0.44354
#
# Static dielectric constant tensor:
#      x y z
#    x 1.869440 0.000000 0.000000 
#    y 0.000000 1.773790 0.000000 
#    z 0.000000 0.000000 1.788250 
# 
# From -- ./inp_files/6096.got.cif
#   From: 2010.05.17/outbox.cif.g08.bks.cpg/sg20_4_cif.got.tgz:6096.got - 2010.06.03 22:52:26.
