data_PCOD9317176
_publ_section_title
;
Structure prediction by ZEFSAII (Michael W. Deem and Ramdas Pophale) SiO2 
 PCOD9317176
Probable space group: C 2 2 21
;
_chemical_formula_sum "Si O2"
_cell_formula_units_Z 60
_cell_length_a 5.563062
_cell_length_b 28.732964
_cell_length_c 21.346583
_cell_angle_alpha 90.000000
_cell_angle_beta 90.000000
_cell_angle_gamma 90.000000
_cell_volume 3412.107420
_symmetry_space_group_name_H-M "C 2 2 21"
_symmetry_group_IT_number 20
_symmetry_cell_setting 'orthorhombic'
loop_
_space_group_symop_operation_xyz
x,y,z
-x,-y,1/2+z
x,-y,-z
-x,y,1/2-z
1/2+x,1/2+y,z
1/2-x,1/2-y,1/2+z
1/2+x,1/2-y,-z
1/2-x,1/2+y,1/2-z
loop_
_atom_site_type_symbol
_atom_site_label
_atom_site_fract_x
_atom_site_fract_y
_atom_site_fract_z
Si Si1 0.749814 0.001686 0.787698
Si Si2 0.033067 0.150369 0.454890
Si Si3 0.735083 0.940706 0.909209
Si Si4 0.539286 0.751107 0.460882
Si Si5 0.646627 0.083970 0.506733
Si Si6 0.252905 0.389818 0.211142
Si Si7 0.935483 0.000000 0.500000
Si Si8 0.656142 0.846538 0.081387
O O1 0.500000 0.998235 0.750000
O O2 0.725327 0.963932 0.842368
O O3 0.000000 0.993484 0.750000
O O4 0.760980 0.055732 0.809275
O O5 0.026042 0.201489 0.425858
O O6 0.784143 0.125843 0.471957
O O7 0.176354 0.112679 0.413946
O O8 0.155496 0.155896 0.523688
O O9 0.496722 0.941067 0.950977
O O10 0.915691 0.972055 0.949167
O O11 0.805197 0.752843 0.492493
O O12 0.492387 0.798426 0.422838
O O13 0.497549 0.108609 0.560649
O O14 0.799820 0.042041 0.534547
O O15 0.500000 0.381774 0.250000
O O16 0.253870 0.357156 0.149939
O O17 0.000000 0.383333 0.250000
#
# Coordination Sequence:
#
# PCOD9317176 Si02
#       8
#     8   8   8   8   8   8   4   8
#     4  10  24  41  58  81 113 161 201 238 278 344
#     4   9  20  35  55  90 117 142 189 239 301 356
#     4  10  22  36  54  86 113 154 190 243 291 344
#     4  10  19  35  57  88 118 146 183 228 291 363
#     4  10  20  33  53  87 116 150 180 239 294 357
#     4  10  24  39  56  81 114 154 203 241 275 342
#     4  10  22  30  52  86 120 148 180 240 294 356
#     4  10  21  35  60  83 116 156 188 238 305 351
#
# _framework density 17.584441000000002
#
# number of rings (size 3 to 8) (size 9 to 14) (size 15 to 20)
#    0.000    2.133    1.333    0.400   13.067    1.067 
#    0.000    0.000    0.000    0.800    0.000    0.000 
#    0.000    0.000    0.000    0.000    0.000    0.000 
#
# Total GULP energy -167019.224293 kJ/mol
# GULP energy per Si atom -5567.307476 kJ/mol
# Density = 1.754442 g / cm^3
# Si number density = 17.584441 Si / 1000 Ang^3
#
#
#
# Elastic Constant Matrix: (Units=GPa)
#
#
# Indices 1 2 3 4 5 6 
#
# 1 72.1919 23.2701 11.5980 0.0000 0.0000 0.0000
# 2 23.2701 95.4363 49.7276 0.0000 0.0000 0.0000
# 3 11.5980 49.7276 52.9387 0.0000 0.0000 0.0000
# 4 0.0000 0.0000 0.0000 20.6931 0.0000 0.0000
# 5 0.0000 0.0000 0.0000 0.0000 371.4860 0.0000
# 6 0.0000 0.0000 0.0000 0.0000 0.0000 -1.3238
#
#
#
# Elastic Compliance Matrix: (Units=1/GPa)
#
#
# Indices 1 2 3 4 5 6 
#
# 1 0.015036 -0.003819 0.000293 0.000000 0.000000 0.000000
# 2 -0.003819 0.021493 -0.019353 0.000000 0.000000 0.000000
# 3 0.000293 -0.019353 0.037005 0.000000 0.000000 0.000000
# 4 0.000000 0.000000 0.000000 0.048325 0.000000 0.000000
# 5 0.000000 0.000000 0.000000 0.000000 0.002692 0.000000
# 6 0.000000 0.000000 0.000000 0.000000 0.000000 -0.755425
#
#
# Mechanical properties :
#
#
# Convention : Reuss Voigt Hill
#
# Bulk Modulus (GPa) = 36.00183 43.30648 39.65416
# Shear Modulus (GPa) = -8.68269 87.23582 39.27657
#
# Velocity S-wave (km/s) = -2.22451 7.05105 4.73122
# Velocity P-wave (km/s) = 3.73098 9.53787 7.24193
#
# Compressibility (1/GPa) = 0.02777636
#
# Stress axis : x y z
#
# Youngs Moduli (GPa) = 66.50772 46.52618 27.02372
#
# Poissons Ratio (x) = 0.17768 -0.00792
# Poissons Ratio (y) = 0.25399 0.52299
# Poissons Ratio (z) = -0.01950 0.90042
#
# Static dielectric constant tensor:
#      x y z
#    x 1.706190 0.000000 0.000000 
#    y 0.000000 1.554330 0.000000 
#    z 0.000000 0.000000 1.584640 
# 
# From -- ./inp_files/22938.got.cif
#   From: 2010.05.17/outbox.cif.g08.bks.cpg/sg20_12_cif.got.tgz:22938.got - 2010.06.03 22:52:26.
