data_PCOD9317687
_publ_section_title
;
Structure prediction by ZEFSAII (Michael W. Deem and Ramdas Pophale) SiO2 
 PCOD9317687
Probable space group: C 2 2 21
;
_chemical_formula_sum "Si O2"
_cell_formula_units_Z 52
_cell_length_a 8.198655
_cell_length_b 12.723727
_cell_length_c 25.377456
_cell_angle_alpha 90.000000
_cell_angle_beta 90.000000
_cell_angle_gamma 90.000000
_cell_volume 2647.311446
_symmetry_space_group_name_H-M "C 2 2 21"
_symmetry_group_IT_number 20
_symmetry_cell_setting 'orthorhombic'
loop_
_space_group_symop_operation_xyz
x,y,z
-x,-y,1/2+z
x,-y,-z
-x,y,1/2-z
1/2+x,1/2+y,z
1/2-x,1/2-y,1/2+z
1/2+x,1/2-y,-z
1/2-x,1/2+y,1/2-z
loop_
_atom_site_type_symbol
_atom_site_label
_atom_site_fract_x
_atom_site_fract_y
_atom_site_fract_z
Si Si1 0.011164 0.000000 0.000000
Si Si2 0.082356 0.641341 0.823832
Si Si3 0.293163 0.633632 0.314599
Si Si4 0.260894 0.410477 0.282555
Si Si5 0.269788 0.128212 0.062384
Si Si6 0.000000 0.264514 0.750000
Si Si7 0.738231 0.629824 0.563893
Si Si8 0.981832 0.500000 0.500000
O O1 0.120226 0.908778 0.974155
O O2 0.905760 0.050557 0.952517
O O3 0.087997 0.766229 0.810595
O O4 0.181654 0.589842 0.775744
O O5 0.181866 0.622992 0.877843
O O6 0.895098 0.604009 0.821304
O O7 0.345321 0.521703 0.292259
O O8 0.267335 0.617553 0.376403
O O9 0.124498 0.667965 0.285433
O O10 0.386834 0.313786 0.284705
O O11 0.311678 0.250172 0.054058
O O12 0.411226 0.049178 0.046026
O O13 0.876811 0.594193 0.523326
#
# Coordination Sequence:
#
# PCOD9317687 Si02
#       8
#     4   8   8   8   8   4   8   4
#     4  10  22  38  60  82 108 146 188 228 280 330
#     4   9  20  37  56  80 113 145 184 228 271 329
#     4  10  21  37  57  81 112 149 185 226 278 326
#     4  10  20  37  56  80 114 148 180 226 272 323
#     4  10  21  37  56  82 111 143 184 232 277 328
#     4  10  22  36  56  84 110 146 190 222 266 336
#     4  10  20  38  57  81 111 144 185 230 275 329
#     4  10  20  34  56  80 108 144 182 230 284 324
#
# _framework density 19.642568000000001
#
# number of rings (size 3 to 8) (size 9 to 14) (size 15 to 20)
#    0.000    2.154    0.000    2.769    0.000    6.154 
#    0.000   15.385    0.000    0.000    0.000    0.000 
#    0.000    0.000    0.000    0.000    0.000    0.000 
#
# Total GULP energy -145027.755183 kJ/mol
# GULP energy per Si atom -5577.990584 kJ/mol
# Density = 1.959786 g / cm^3
# Si number density = 19.642568 Si / 1000 Ang^3
#
#
#
# Elastic Constant Matrix: (Units=GPa)
#
#
# Indices 1 2 3 4 5 6 
#
# 1 31.0541 -13.0895 -8.6437 0.0000 0.0000 0.0000
# 2 -13.0895 64.9928 14.1308 0.0000 0.0000 0.0000
# 3 -8.6437 14.1308 59.5229 0.0000 0.0000 0.0000
# 4 0.0000 0.0000 0.0000 35.1041 0.0000 0.0000
# 5 0.0000 0.0000 0.0000 0.0000 16.6185 0.0000
# 6 0.0000 0.0000 0.0000 0.0000 0.0000 12.8567
#
#
#
# Elastic Compliance Matrix: (Units=1/GPa)
#
#
# Indices 1 2 3 4 5 6 
#
# 1 0.035942 0.006436 0.003691 0.000000 0.000000 0.000000
# 2 0.006436 0.017376 -0.003191 0.000000 0.000000 0.000000
# 3 0.003691 -0.003191 0.018094 0.000000 0.000000 0.000000
# 4 0.000000 0.000000 0.000000 0.028487 0.000000 0.000000
# 5 0.000000 0.000000 0.000000 0.000000 0.060174 0.000000
# 6 0.000000 0.000000 0.000000 0.000000 0.000000 0.077781
#
#
# Mechanical properties :
#
#
# Convention : Reuss Voigt Hill
#
# Bulk Modulus (GPa) = 11.72521 15.59613 13.66067
# Shear Modulus (GPa) = 19.80918 23.79399 21.80159
#
# Velocity S-wave (km/s) = 3.17911 3.48422 3.33515
# Velocity P-wave (km/s) = 4.41111 4.91361 4.66912
#
# Compressibility (1/GPa) = 0.08528632
#
# Stress axis : x y z
#
# Youngs Moduli (GPa) = 27.82240 57.54989 55.26769
#
# Poissons Ratio (x) = -0.37040 -0.20402
# Poissons Ratio (y) = -0.17907 0.17633
# Poissons Ratio (z) = -0.10270 0.18361
#
# Static dielectric constant tensor:
#      x y z
#    x 1.703240 0.000000 0.000000 
#    y 0.000000 1.696790 0.000000 
#    z 0.000000 0.000000 1.652440 
# 
# From -- ./inp_files/30134.got.cif
#   From: 2010.05.17/outbox.cif.g08.bks.cpg/sg20_16_cif.got.tgz:30134.got - 2010.06.03 22:52:26.
