data_PCOD9317659
_publ_section_title
;
Structure prediction by ZEFSAII (Michael W. Deem and Ramdas Pophale) SiO2 
 PCOD9317659
Probable space group: C 2 2 21
;
_chemical_formula_sum "Si O2"
_cell_formula_units_Z 40
_cell_length_a 12.859519
_cell_length_b 21.559294
_cell_length_c 7.450355
_cell_angle_alpha 90.000000
_cell_angle_beta 90.000000
_cell_angle_gamma 90.000000
_cell_volume 2065.552445
_symmetry_space_group_name_H-M "C 2 2 21"
_symmetry_group_IT_number 20
_symmetry_cell_setting 'orthorhombic'
loop_
_space_group_symop_operation_xyz
x,y,z
-x,-y,1/2+z
x,-y,-z
-x,y,1/2-z
1/2+x,1/2+y,z
1/2-x,1/2-y,1/2+z
1/2+x,1/2-y,-z
1/2-x,1/2+y,1/2-z
loop_
_atom_site_type_symbol
_atom_site_label
_atom_site_fract_x
_atom_site_fract_y
_atom_site_fract_z
Si Si1 0.141226 0.339150 0.029883
Si Si2 0.704261 0.165317 0.387942
Si Si3 0.139807 0.802637 0.399718
Si Si4 0.466618 0.071749 0.041007
Si Si5 0.421671 0.298617 0.518407
O O1 0.164514 0.335404 0.816375
O O2 0.090870 0.272824 0.081974
O O3 0.061431 0.394621 0.062358
O O4 0.257260 0.344228 0.105586
O O5 0.675938 0.233831 0.461549
O O6 0.637287 0.112593 0.484627
O O7 0.828777 0.161530 0.396297
O O8 0.103939 0.797765 0.194296
O O9 0.041340 0.820160 0.523116
O O10 0.500000 0.075514 0.250000
O O11 0.452407 0.000000 0.000000
#
# Coordination Sequence:
#
# PCOD9317659 Si02
#       5
#     8   8   8   8   8
#     4   9  17  30  46  67  96 126 155 189 235 281
#     4   9  17  30  46  67  96 126 155 189 235 281
#     4   9  16  28  47  70  97 124 150 189 237 283
#     4  10  20  34  50  68  96 130 161 196 233 274
#     4   9  16  28  47  70  97 124 150 189 237 283
#
# _framework density 19.365279999999998
#
# number of rings (size 3 to 8) (size 9 to 14) (size 15 to 20)
#    0.000    2.800    2.000    0.000    0.000    2.400 
#    0.000    0.000    0.000    1.200    0.000    0.000 
#    0.000    0.000    0.000    0.000    0.000    0.000 
#
# Total GULP energy -111518.476851 kJ/mol
# GULP energy per Si atom -5575.923843 kJ/mol
# Density = 1.932120 g / cm^3
# Si number density = 19.365280 Si / 1000 Ang^3
#
#
#
# Elastic Constant Matrix: (Units=GPa)
#
#
# Indices 1 2 3 4 5 6 
#
# 1 142.6237 53.3876 26.5772 0.0000 0.0000 0.0000
# 2 53.3876 84.0348 7.8345 0.0000 0.0000 0.0000
# 3 26.5772 7.8345 26.2276 0.0000 0.0000 0.0000
# 4 0.0000 0.0000 0.0000 15.4445 0.0000 0.0000
# 5 0.0000 0.0000 0.0000 0.0000 32.9535 0.0000
# 6 0.0000 0.0000 0.0000 0.0000 0.0000 21.0267
#
#
#
# Elastic Compliance Matrix: (Units=1/GPa)
#
#
# Indices 1 2 3 4 5 6 
#
# 1 0.011061 -0.006153 -0.009370 0.000000 0.000000 0.000000
# 2 -0.006153 0.015664 0.001556 0.000000 0.000000 0.000000
# 3 -0.009370 0.001556 0.047158 0.000000 0.000000 0.000000
# 4 0.000000 0.000000 0.000000 0.064748 0.000000 0.000000
# 5 0.000000 0.000000 0.000000 0.000000 0.030346 0.000000
# 6 0.000000 0.000000 0.000000 0.000000 0.000000 0.047559
#
#
# Mechanical properties :
#
#
# Convention : Reuss Voigt Hill
#
# Bulk Modulus (GPa) = 21.76351 47.60941 34.68646
# Shear Modulus (GPa) = 19.24657 24.89070 22.06864
#
# Velocity S-wave (km/s) = 3.15599 3.58903 3.37946
# Velocity P-wave (km/s) = 4.95411 6.46631 5.76005
#
# Compressibility (1/GPa) = 0.04594847
#
# Stress axis : x y z
#
# Youngs Moduli (GPa) = 90.40802 63.84045 21.20528
#
# Poissons Ratio (x) = 0.39284 0.19870
# Poissons Ratio (y) = 0.55632 -0.03301
# Poissons Ratio (z) = 0.84715 -0.09937
#
# Static dielectric constant tensor:
#      x y z
#    x 1.741450 0.000000 0.000000 
#    y 0.000000 1.623050 0.000000 
#    z 0.000000 0.000000 1.781540 
# 
# From -- ./inp_files/7048.got.cif
#   From: 2010.05.17/outbox.cif.g08.bks.cpg/sg20_4_cif.got.tgz:7048.got - 2010.06.03 22:52:26.
