data_PCOD9317502
_publ_section_title
;
Structure prediction by ZEFSAII (Michael W. Deem and Ramdas Pophale) SiO2 
 PCOD9317502
Probable space group: C 2 2 21
;
_chemical_formula_sum "Si O2"
_cell_formula_units_Z 52
_cell_length_a 8.559231
_cell_length_b 13.180499
_cell_length_c 21.335293
_cell_angle_alpha 90.000000
_cell_angle_beta 90.000000
_cell_angle_gamma 90.000000
_cell_volume 2406.939707
_symmetry_space_group_name_H-M "C 2 2 21"
_symmetry_group_IT_number 20
_symmetry_cell_setting 'orthorhombic'
loop_
_space_group_symop_operation_xyz
x,y,z
-x,-y,1/2+z
x,-y,-z
-x,y,1/2-z
1/2+x,1/2+y,z
1/2-x,1/2-y,1/2+z
1/2+x,1/2-y,-z
1/2-x,1/2+y,1/2-z
loop_
_atom_site_type_symbol
_atom_site_label
_atom_site_fract_x
_atom_site_fract_y
_atom_site_fract_z
Si Si1 0.412255 0.438388 0.437731
Si Si2 0.396077 0.839046 0.654615
Si Si3 0.603741 0.229529 0.448773
Si Si4 0.933275 0.324322 0.430579
Si Si5 0.000000 0.507873 0.750000
Si Si6 0.311712 0.845170 0.162419
Si Si7 0.273834 0.515045 0.074491
O O1 0.365769 0.500000 0.500000
O O2 0.505162 0.334461 0.454535
O O3 0.273507 0.411647 0.391278
O O4 0.550344 0.499369 0.402237
O O5 0.556489 0.813818 0.618932
O O6 0.313217 0.740008 0.682729
O O7 0.416021 0.930779 0.702131
O O8 0.289081 0.878178 0.597026
O O9 0.786807 0.253390 0.448502
O O10 0.542026 0.164925 0.507680
O O11 0.850802 0.428488 0.408263
O O12 0.042750 0.292137 0.373240
O O13 0.877525 0.581120 0.784720
O O14 0.284491 0.500000 0.000000
#
# Coordination Sequence:
#
# PCOD9317502 Si02
#       7
#     8   8   8   8   4   8   8
#     4   9  21  38  65 103 140 167 222 278 358 439
#     4  11  24  48  68  97 139 178 238 295 347 412
#     4  10  21  37  67 103 136 185 213 280 362 433
#     4  11  21  38  66  99 144 171 225 275 357 435
#     4  12  28  50  70  94 136 194 252 296 344 390
#     4  11  26  46  68  98 135 187 245 290 348 420
#     4  10  19  39  68 101 138 174 204 282 363 425
#
# _framework density 21.604196000000002
#
# number of rings (size 3 to 8) (size 9 to 14) (size 15 to 20)
#    0.000    1.538    3.077    1.846    4.308    4.308 
#    5.538    0.000    0.000    0.000    0.000    0.000 
#    0.000    0.000    0.000    0.000    0.000    0.000 
#
# Total GULP energy -145209.781044 kJ/mol
# GULP energy per Si atom -5584.991579 kJ/mol
# Density = 2.155502 g / cm^3
# Si number density = 21.604196 Si / 1000 Ang^3
#
#
#
# Elastic Constant Matrix: (Units=GPa)
#
#
# Indices 1 2 3 4 5 6 
#
# 1 73.7933 11.8145 23.6817 0.0000 0.0000 0.0000
# 2 11.8145 60.3785 32.4038 0.0000 0.0000 0.0000
# 3 23.6817 32.4038 72.4346 0.0000 0.0000 0.0000
# 4 0.0000 0.0000 0.0000 35.2924 0.0000 0.0000
# 5 0.0000 0.0000 0.0000 0.0000 13.8150 0.0000
# 6 0.0000 0.0000 0.0000 0.0000 0.0000 26.8737
#
#
#
# Elastic Compliance Matrix: (Units=1/GPa)
#
#
# Indices 1 2 3 4 5 6 
#
# 1 0.015147 -0.000403 -0.004772 0.000000 0.000000 0.000000
# 2 -0.000403 0.021805 -0.009623 0.000000 0.000000 0.000000
# 3 -0.004772 -0.009623 0.019671 0.000000 0.000000 0.000000
# 4 0.000000 0.000000 0.000000 0.028335 0.000000 0.000000
# 5 0.000000 0.000000 0.000000 0.000000 0.072385 0.000000
# 6 0.000000 0.000000 0.000000 0.000000 0.000000 0.037211
#
#
# Mechanical properties :
#
#
# Convention : Reuss Voigt Hill
#
# Bulk Modulus (GPa) = 36.99929 38.04514 37.52221
# Shear Modulus (GPa) = 21.44456 24.44331 22.94394
#
# Velocity S-wave (km/s) = 3.15399 3.36730 3.26239
# Velocity P-wave (km/s) = 5.51604 5.72421 5.62109
#
# Compressibility (1/GPa) = 0.02702755
#
# Stress axis : x y z
#
# Youngs Moduli (GPa) = 66.01836 45.86006 50.83739
#
# Poissons Ratio (x) = 0.01848 0.24260
# Poissons Ratio (y) = 0.02660 0.48921
# Poissons Ratio (z) = 0.31504 0.44131
#
# Static dielectric constant tensor:
#      x y z
#    x 1.835490 0.000000 0.000000 
#    y 0.000000 1.842320 0.000000 
#    z 0.000000 0.000000 1.798060 
# 
# From -- ./inp_files/26665.got.cif
#   From: 2010.05.17/outbox.cif.g08.bks.cpg/sg20_14_cif.got.tgz:26665.got - 2010.06.03 22:52:26.
