data_PCOD9317970
_publ_section_title
;
Structure prediction by ZEFSAII (Michael W. Deem and Ramdas Pophale) SiO2 
 PCOD9317970
Probable space group: C 2 2 21
;
_chemical_formula_sum "Si O2"
_cell_formula_units_Z 56
_cell_length_a 18.188515
_cell_length_b 5.105730
_cell_length_c 30.747055
_cell_angle_alpha 90.000000
_cell_angle_beta 90.000000
_cell_angle_gamma 90.000000
_cell_volume 2855.345146
_symmetry_space_group_name_H-M "C 2 2 21"
_symmetry_group_IT_number 20
_symmetry_cell_setting 'orthorhombic'
loop_
_space_group_symop_operation_xyz
x,y,z
-x,-y,1/2+z
x,-y,-z
-x,y,1/2-z
1/2+x,1/2+y,z
1/2-x,1/2-y,1/2+z
1/2+x,1/2-y,-z
1/2-x,1/2+y,1/2-z
loop_
_atom_site_type_symbol
_atom_site_label
_atom_site_fract_x
_atom_site_fract_y
_atom_site_fract_z
Si Si1 0.253205 0.493939 0.448382
Si Si2 0.698016 0.419547 0.749344
Si Si3 0.617731 0.064733 0.609689
Si Si4 0.188503 0.506549 0.897702
Si Si5 0.031252 0.444307 0.854456
Si Si6 0.454951 0.562321 0.294826
Si Si7 0.170324 0.933476 0.344861
O O1 0.258004 0.500000 0.500000
O O2 0.168156 0.488445 0.432202
O O3 0.293376 0.739797 0.426377
O O4 0.290263 0.239944 0.427228
O O5 0.740284 0.144263 0.744935
O O6 0.632866 0.425071 0.784666
O O7 0.657925 0.487863 0.704236
O O8 0.533609 0.980498 0.610579
O O9 0.626778 0.365993 0.623975
O O10 0.652566 0.868137 0.645770
O O11 0.107755 0.485659 0.878861
O O12 0.244937 0.517412 0.857249
O O13 0.022364 0.667810 0.817853
O O14 0.029740 0.170343 0.828894
O O15 0.500000 0.525033 0.250000
#
# Coordination Sequence:
#
# PCOD9317970 Si02
#       7
#     8   8   8   8   8   8   8
#     4  10  21  40  63  89 114 144 186 233 288 356
#     4  12  23  36  55  80 110 149 197 245 283 319
#     4  10  21  37  61  80 108 148 184 224 275 341
#     4  10  21  37  62  86 115 152 187 237 296 346
#     4  12  23  40  58  86 120 155 199 240 289 353
#     4  12  25  39  57  84 121 161 199 249 294 330
#     4  10  20  37  54  79 109 149 195 230 274 337
#
# _framework density 19.612342000000002
#
# number of rings (size 3 to 8) (size 9 to 14) (size 15 to 20)
#    0.000    1.143    0.000    7.714    0.000    2.286 
#    0.000    1.429    0.000    0.000    0.000    0.000 
#    0.000    0.000    0.000    0.000    0.000    0.000 
#
# Total GULP energy -156542.734190 kJ/mol
# GULP energy per Si atom -5590.811935 kJ/mol
# Density = 1.956770 g / cm^3
# Si number density = 19.612342 Si / 1000 Ang^3
#
#
#
# Elastic Constant Matrix: (Units=GPa)
#
#
# Indices 1 2 3 4 5 6 
#
# 1 132.6790 10.0157 19.7318 0.0000 0.0000 0.0000
# 2 10.0157 105.1509 13.2213 0.0000 0.0000 0.0000
# 3 19.7318 13.2213 68.5039 0.0000 0.0000 0.0000
# 4 0.0000 0.0000 0.0000 20.5924 0.0000 0.0000
# 5 0.0000 0.0000 0.0000 0.0000 21.3076 0.0000
# 6 0.0000 0.0000 0.0000 0.0000 0.0000 24.3162
#
#
#
# Elastic Compliance Matrix: (Units=1/GPa)
#
#
# Indices 1 2 3 4 5 6 
#
# 1 0.007898 -0.000478 -0.002183 0.000000 0.000000 0.000000
# 2 -0.000478 0.009776 -0.001749 0.000000 0.000000 0.000000
# 3 -0.002183 -0.001749 0.015564 0.000000 0.000000 0.000000
# 4 0.000000 0.000000 0.000000 0.048562 0.000000 0.000000
# 5 0.000000 0.000000 0.000000 0.000000 0.046932 0.000000
# 6 0.000000 0.000000 0.000000 0.000000 0.000000 0.041125
#
#
# Mechanical properties :
#
#
# Convention : Reuss Voigt Hill
#
# Bulk Modulus (GPa) = 40.95308 43.58572 42.26940
# Shear Modulus (GPa) = 26.76467 30.80092 28.78279
#
# Velocity S-wave (km/s) = 3.69817 3.96724 3.83506
# Velocity P-wave (km/s) = 6.25795 6.57702 6.41946
#
# Compressibility (1/GPa) = 0.02441819
#
# Stress axis : x y z
#
# Youngs Moduli (GPa) = 126.61991 102.29571 64.25096
#
# Poissons Ratio (x) = 0.04888 0.14024
# Poissons Ratio (y) = 0.06050 0.11238
# Poissons Ratio (z) = 0.27636 0.17892
#
# Static dielectric constant tensor:
#      x y z
#    x 1.726050 0.000000 0.000000 
#    y 0.000000 1.662890 0.000000 
#    z 0.000000 0.000000 1.657210 
# 
# From -- ./inp_files/31287.got.cif
#   From: 2010.05.17/outbox.cif.g08.bks.cpg/sg20_16_cif.got.tgz:31287.got - 2010.06.03 22:52:26.
