data_PCOD9317041
_publ_section_title
;
Structure prediction by ZEFSAII (Michael W. Deem and Ramdas Pophale) SiO2 
 PCOD9317041
Probable space group: C 2 2 21
;
_chemical_formula_sum "Si O2"
_cell_formula_units_Z 36
_cell_length_a 20.768527
_cell_length_b 9.657947
_cell_length_c 7.374880
_cell_angle_alpha 90.000000
_cell_angle_beta 90.000000
_cell_angle_gamma 90.000000
_cell_volume 1479.263261
_symmetry_space_group_name_H-M "C 2 2 21"
_symmetry_group_IT_number 20
_symmetry_cell_setting 'orthorhombic'
loop_
_space_group_symop_operation_xyz
x,y,z
-x,-y,1/2+z
x,-y,-z
-x,y,1/2-z
1/2+x,1/2+y,z
1/2-x,1/2-y,1/2+z
1/2+x,1/2-y,-z
1/2-x,1/2+y,1/2-z
loop_
_atom_site_type_symbol
_atom_site_label
_atom_site_fract_x
_atom_site_fract_y
_atom_site_fract_z
Si Si1 0.862075 0.038407 0.718156
Si Si2 0.604230 0.245204 0.722759
Si Si3 0.285187 0.036239 0.789721
Si Si4 0.000000 0.448367 0.250000
Si Si5 0.107401 0.333630 0.857595
O O1 0.787484 0.047946 0.777435
O O2 0.891921 0.189373 0.750018
O O3 0.862559 0.000000 0.500000
O O4 0.895823 0.907540 0.810812
O O5 0.674464 0.178473 0.699396
O O6 0.546474 0.155979 0.635128
O O7 0.596636 0.214797 0.937260
O O8 0.326715 0.919069 0.684088
O O9 0.280910 0.000000 0.000000
O O10 0.947053 0.555766 0.318789
#
# Coordination Sequence:
#
# PCOD9317041 Si02
#       5
#     8   8   8   4   8
#     4   9  19  36  58  85 110 140 181 224 271 322
#     4  10  21  38  59  79 109 148 182 221 271 324
#     4  10  19  33  57  87 116 141 176 220 265 325
#     4  10  20  32  54  76  98 138 186 220 258 312
#     4  10  21  38  59  79 109 148 182 221 271 324
#
# _framework density 24.336438999999999
#
# number of rings (size 3 to 8) (size 9 to 14) (size 15 to 20)
#    0.000    2.222    0.000    4.000    0.000    8.000 
#    0.000    3.333    0.000    0.000    0.000    0.000 
#    0.000    0.000    0.000    0.000    0.000    0.000 
#
# Total GULP energy -100511.560869 kJ/mol
# GULP energy per Si atom -5583.975604 kJ/mol
# Density = 2.428105 g / cm^3
# Si number density = 24.336439 Si / 1000 Ang^3
#
#
#
# Elastic Constant Matrix: (Units=GPa)
#
#
# Indices 1 2 3 4 5 6 
#
# 1 120.2824 79.6809 18.4564 0.0000 0.0000 0.0000
# 2 79.6809 250.7784 17.3048 0.0000 0.0000 0.0000
# 3 18.4564 17.3048 39.3409 0.0000 0.0000 0.0000
# 4 0.0000 0.0000 0.0000 27.8144 0.0000 0.0000
# 5 0.0000 0.0000 0.0000 0.0000 18.9136 0.0000
# 6 0.0000 0.0000 0.0000 0.0000 0.0000 17.1389
#
#
#
# Elastic Compliance Matrix: (Units=1/GPa)
#
#
# Indices 1 2 3 4 5 6 
#
# 1 0.011042 -0.003250 -0.003751 0.000000 0.000000 0.000000
# 2 -0.003250 0.005069 -0.000705 0.000000 0.000000 0.000000
# 3 -0.003751 -0.000705 0.027489 0.000000 0.000000 0.000000
# 4 0.000000 0.000000 0.000000 0.035953 0.000000 0.000000
# 5 0.000000 0.000000 0.000000 0.000000 0.052872 0.000000
# 6 0.000000 0.000000 0.000000 0.000000 0.000000 0.058347
#
#
# Mechanical properties :
#
#
# Convention : Reuss Voigt Hill
#
# Bulk Modulus (GPa) = 35.47565 71.25400 53.36483
# Shear Modulus (GPa) = 23.19350 32.43738 27.81544
#
# Velocity S-wave (km/s) = 3.09048 3.65481 3.38443
# Velocity P-wave (km/s) = 5.22911 6.86677 6.10312
#
# Compressibility (1/GPa) = 0.02818835
#
# Stress axis : x y z
#
# Youngs Moduli (GPa) = 90.56333 197.28758 36.37868
#
# Poissons Ratio (x) = 0.64110 0.13645
# Poissons Ratio (y) = 0.29429 0.02565
# Poissons Ratio (z) = 0.33969 0.13910
#
# Static dielectric constant tensor:
#      x y z
#    x 1.940310 0.000000 0.000000 
#    y 0.000000 1.923860 0.000000 
#    z 0.000000 0.000000 2.115820 
# 
# From -- ./inp_files/9862.got.cif
#   From: 2010.05.17/outbox.cif.g08.bks.cpg/sg20_5_cif.got.tgz:9862.got - 2010.06.03 22:52:26.
