data_PCOD9317849
_publ_section_title
;
Structure prediction by ZEFSAII (Michael W. Deem and Ramdas Pophale) SiO2 
 PCOD9317849
Probable space group: C 2 2 21
;
_chemical_formula_sum "Si O2"
_cell_formula_units_Z 56
_cell_length_a 6.164067
_cell_length_b 32.139870
_cell_length_c 14.209420
_cell_angle_alpha 90.000000
_cell_angle_beta 90.000000
_cell_angle_gamma 90.000000
_cell_volume 2815.061049
_symmetry_space_group_name_H-M "C 2 2 21"
_symmetry_group_IT_number 20
_symmetry_cell_setting 'orthorhombic'
loop_
_space_group_symop_operation_xyz
x,y,z
-x,-y,1/2+z
x,-y,-z
-x,y,1/2-z
1/2+x,1/2+y,z
1/2-x,1/2-y,1/2+z
1/2+x,1/2-y,-z
1/2-x,1/2+y,1/2-z
loop_
_atom_site_type_symbol
_atom_site_label
_atom_site_fract_x
_atom_site_fract_y
_atom_site_fract_z
Si Si1 0.267287 0.345194 0.921560
Si Si2 0.938557 0.701236 0.942798
Si Si3 0.865947 0.380030 0.154775
Si Si4 0.500000 0.816531 0.750000
Si Si5 0.644829 0.281555 0.879954
Si Si6 0.933752 0.957979 0.351942
Si Si7 0.689535 0.927896 0.015296
Si Si8 0.115185 0.500000 0.500000
O O1 0.100037 0.343180 0.834649
O O2 0.481442 0.320305 0.891768
O O3 0.146896 0.319997 0.005902
O O4 0.303395 0.392805 0.951864
O O5 0.014650 0.738653 0.876962
O O6 0.811976 0.664859 0.888096
O O7 0.789522 0.719415 0.025423
O O8 0.671244 0.412417 0.167077
O O9 0.000000 0.374458 0.250000
O O10 0.025409 0.402301 0.081104
O O11 0.307245 0.789191 0.794110
O O12 0.000000 0.975622 0.250000
O O13 0.139828 0.950987 0.418331
O O14 0.762667 0.984397 0.413235
O O15 0.540229 0.962456 0.966546
#
# Coordination Sequence:
#
# PCOD9317849 Si02
#       8
#     8   8   8   4   8   8   8   4
#     4  10  21  40  62  84 122 167 209 258 315 372
#     4  10  21  35  59  86 125 162 212 256 313 371
#     4  10  20  36  57  93 125 160 202 262 309 373
#     4  10  24  38  60  86 118 170 214 264 318 366
#     4  11  20  40  59  87 121 167 212 263 315 369
#     4  11  21  40  68  95 133 171 204 260 331 389
#     4  10  21  41  64  91 126 165 204 251 319 386
#     4  10  24  40  66 100 130 162 210 262 316 396
#
# _framework density 19.892996
#
# number of rings (size 3 to 8) (size 9 to 14) (size 15 to 20)
#    0.000    1.714    2.857    1.714    0.000    2.286 
#    0.000    2.857    1.571    0.000    0.000    0.000 
#    0.000    0.000    0.000    0.000    0.000    0.000 
#
# Total GULP energy -156363.668937 kJ/mol
# GULP energy per Si atom -5584.416748 kJ/mol
# Density = 1.984772 g / cm^3
# Si number density = 19.892996 Si / 1000 Ang^3
#
#
#
# Elastic Constant Matrix: (Units=GPa)
#
#
# Indices 1 2 3 4 5 6 
#
# 1 76.0146 32.3163 22.6026 0.0000 0.0000 0.0000
# 2 32.3163 104.5065 45.6122 0.0000 0.0000 0.0000
# 3 22.6026 45.6122 80.2137 0.0000 0.0000 0.0000
# 4 0.0000 0.0000 0.0000 13.4579 0.0000 0.0000
# 5 0.0000 0.0000 0.0000 0.0000 27.7998 0.0000
# 6 0.0000 0.0000 0.0000 0.0000 0.0000 -66.9705
#
#
#
# Elastic Compliance Matrix: (Units=1/GPa)
#
#
# Indices 1 2 3 4 5 6 
#
# 1 0.015426 -0.003822 -0.002174 0.000000 0.000000 0.000000
# 2 -0.003822 0.013674 -0.006699 0.000000 0.000000 0.000000
# 3 -0.002174 -0.006699 0.016888 0.000000 0.000000 0.000000
# 4 0.000000 0.000000 0.000000 0.074306 0.000000 0.000000
# 5 0.000000 0.000000 0.000000 0.000000 0.035971 0.000000
# 6 0.000000 0.000000 0.000000 0.000000 0.000000 -0.014932
#
#
# Mechanical properties :
#
#
# Convention : Reuss Voigt Hill
#
# Bulk Modulus (GPa) = 48.54185 51.31077 49.92631
# Shear Modulus (GPa) = 28.80361 5.53770 17.17066
#
# Velocity S-wave (km/s) = 3.80929 1.67027 2.94113
# Velocity P-wave (km/s) = 6.61831 5.43775 6.05686
#
# Compressibility (1/GPa) = 0.02060078
#
# Stress axis : x y z
#
# Youngs Moduli (GPa) = 64.82398 73.13042 59.21225
#
# Poissons Ratio (x) = 0.27947 0.12872
# Poissons Ratio (y) = 0.24772 0.39665
# Poissons Ratio (z) = 0.14092 0.48988
#
# Static dielectric constant tensor:
#      x y z
#    x 1.701510 0.000000 0.000000 
#    y 0.000000 1.701770 0.000000 
#    z 0.000000 0.000000 1.690340 
# 
# From -- ./inp_files/18028.got.cif
#   From: 2010.05.17/outbox.cif.g08.bks.cpg/sg20_10_cif.got.tgz:18028.got - 2010.06.03 22:52:26.
