data_PCOD9317175
_publ_section_title
;
Structure prediction by ZEFSAII (Michael W. Deem and Ramdas Pophale) SiO2 
 PCOD9317175
Probable space group: C 2 2 21
;
_chemical_formula_sum "Si O2"
_cell_formula_units_Z 60
_cell_length_a 15.242567
_cell_length_b 10.630922
_cell_length_c 19.337433
_cell_angle_alpha 90.000000
_cell_angle_beta 90.000000
_cell_angle_gamma 90.000000
_cell_volume 3133.486777
_symmetry_space_group_name_H-M "C 2 2 21"
_symmetry_group_IT_number 20
_symmetry_cell_setting 'orthorhombic'
loop_
_space_group_symop_operation_xyz
x,y,z
-x,-y,1/2+z
x,-y,-z
-x,y,1/2-z
1/2+x,1/2+y,z
1/2-x,1/2-y,1/2+z
1/2+x,1/2-y,-z
1/2-x,1/2+y,1/2-z
loop_
_atom_site_type_symbol
_atom_site_label
_atom_site_fract_x
_atom_site_fract_y
_atom_site_fract_z
Si Si1 0.735429 0.743046 0.965564
Si Si2 0.227866 0.500000 0.500000
Si Si3 0.113927 0.287426 0.093844
Si Si4 0.902067 0.581179 0.391611
Si Si5 0.592559 0.071213 0.398990
Si Si6 0.081574 0.732238 0.603677
Si Si7 0.324088 0.935845 0.754185
Si Si8 0.828673 0.267863 0.247463
O O1 0.672855 0.831263 0.921063
O O2 0.834946 0.778049 0.941669
O O3 0.723822 0.593712 0.948678
O O4 0.691618 0.748870 0.042082
O O5 0.164555 0.592068 0.457137
O O6 0.108819 0.438136 0.083511
O O7 0.135131 0.260834 0.174289
O O8 0.016655 0.230012 0.081124
O O9 0.892229 0.573194 0.308989
O O10 0.998022 0.628396 0.412979
O O11 0.629949 0.104883 0.324902
O O12 0.580686 0.920052 0.399906
O O13 0.103119 0.757094 0.684753
O O14 0.245829 0.838312 0.740396
O O15 0.298529 0.084679 0.760430
#
# Coordination Sequence:
#
# PCOD9317175 Si02
#       8
#     8   4   8   8   8   8   8   8
#     4  11  21  35  57  84 119 147 192 239 297 347
#     4  10  22  36  56  84 114 158 190 238 298 356
#     4  10  21  35  60  85 113 150 202 240 293 356
#     4  10  20  34  58  86 113 145 196 249 291 335
#     4   9  19  33  58  84 110 146 202 240 281 346
#     4   9  19  36  58  86 113 151 194 247 290 346
#     4  10  19  35  57  87 115 150 196 243 299 348
#     4  10  19  36  58  86 114 154 196 248 291 361
#
# _framework density 19.147998000000001
#
# number of rings (size 3 to 8) (size 9 to 14) (size 15 to 20)
#    0.000    2.133    1.333    2.000    5.600    3.200 
#    0.000    0.000    5.867    1.600    0.000    0.000 
#    0.000    0.000    0.000    0.000    0.000    0.000 
#
# Total GULP energy -167008.177279 kJ/mol
# GULP energy per Si atom -5566.939243 kJ/mol
# Density = 1.910442 g / cm^3
# Si number density = 19.147998 Si / 1000 Ang^3
#
#
#
# Elastic Constant Matrix: (Units=GPa)
#
#
# Indices 1 2 3 4 5 6 
#
# 1 130.4023 41.5484 51.7430 0.0000 0.0000 0.0000
# 2 41.5484 43.9867 8.7775 0.0000 0.0000 0.0000
# 3 51.7430 8.7775 104.0922 0.0000 0.0000 0.0000
# 4 0.0000 0.0000 0.0000 23.8729 0.0000 0.0000
# 5 0.0000 0.0000 0.0000 0.0000 17.8655 0.0000
# 6 0.0000 0.0000 0.0000 0.0000 0.0000 26.4349
#
#
#
# Elastic Compliance Matrix: (Units=1/GPa)
#
#
# Indices 1 2 3 4 5 6 
#
# 1 0.013754 -0.011826 -0.005840 0.000000 0.000000 0.000000
# 2 -0.011826 0.033292 0.003071 0.000000 0.000000 0.000000
# 3 -0.005840 0.003071 0.012251 0.000000 0.000000 0.000000
# 4 0.000000 0.000000 0.000000 0.041888 0.000000 0.000000
# 5 0.000000 0.000000 0.000000 0.000000 0.055974 0.000000
# 6 0.000000 0.000000 0.000000 0.000000 0.000000 0.037829
#
#
# Mechanical properties :
#
#
# Convention : Reuss Voigt Hill
#
# Bulk Modulus (GPa) = 33.21433 53.62434 43.41934
# Shear Modulus (GPa) = 21.34824 25.39549 23.37186
#
# Velocity S-wave (km/s) = 3.34264 3.64576 3.49749
# Velocity P-wave (km/s) = 5.68168 6.76669 6.24778
#
# Compressibility (1/GPa) = 0.03010749
#
# Stress axis : x y z
#
# Youngs Moduli (GPa) = 72.70797 30.03749 81.62818
#
# Poissons Ratio (x) = 0.35522 0.47667
# Poissons Ratio (y) = 0.85984 -0.25070
# Poissons Ratio (z) = 0.42458 -0.09225
#
# Static dielectric constant tensor:
#      x y z
#    x 1.723940 0.000000 0.000000 
#    y 0.000000 1.731460 0.000000 
#    z 0.000000 0.000000 1.723080 
# 
# From -- ./inp_files/27658.got.cif
#   From: 2010.05.17/outbox.cif.g08.bks.cpg/sg20_14_cif.got.tgz:27658.got - 2010.06.03 22:52:26.
