data_PCOD9317513
_publ_section_title
;
Structure prediction by ZEFSAII (Michael W. Deem and Ramdas Pophale) SiO2 
 PCOD9317513
Probable space group: C 2 2 21
;
_chemical_formula_sum "Si O2"
_cell_formula_units_Z 48
_cell_length_a 10.293379
_cell_length_b 17.328067
_cell_length_c 12.948424
_cell_angle_alpha 90.000000
_cell_angle_beta 90.000000
_cell_angle_gamma 90.000000
_cell_volume 2309.537372
_symmetry_space_group_name_H-M "C 2 2 21"
_symmetry_group_IT_number 20
_symmetry_cell_setting 'orthorhombic'
loop_
_space_group_symop_operation_xyz
x,y,z
-x,-y,1/2+z
x,-y,-z
-x,y,1/2-z
1/2+x,1/2+y,z
1/2-x,1/2-y,1/2+z
1/2+x,1/2-y,-z
1/2-x,1/2+y,1/2-z
loop_
_atom_site_type_symbol
_atom_site_label
_atom_site_fract_x
_atom_site_fract_y
_atom_site_fract_z
Si Si1 0.133177 0.326443 0.081042
Si Si2 0.581526 0.910137 0.530338
Si Si3 0.297808 0.456342 0.183094
Si Si4 0.420903 0.501980 0.380255
Si Si5 0.184213 0.157729 0.153635
Si Si6 0.325723 0.118113 0.362612
O O1 0.217179 0.382250 0.152888
O O2 0.131722 0.240922 0.124262
O O3 0.199688 0.333205 0.966971
O O4 0.991782 0.363728 0.060801
O O5 0.714354 0.872115 0.566830
O O6 0.480225 0.897570 0.626181
O O7 0.588973 0.000000 0.500000
O O8 0.309620 0.467952 0.306226
O O9 0.445722 0.457479 0.142577
O O10 0.234779 0.532470 0.133053
O O11 0.394478 0.500000 0.500000
O O12 0.426004 0.591751 0.347182
O O13 0.263433 0.156089 0.261509
#
# Coordination Sequence:
#
# PCOD9317513 Si02
#       6
#     8   8   8   8   8   8
#     4  10  21  37  60  89 117 161 203 252 298 371
#     4  10  20  40  65  85 118 167 204 245 307 388
#     4  10  19  40  65  87 111 168 213 233 297 388
#     4  10  22  36  60  90 125 153 196 258 303 356
#     4  11  23  37  59  94 126 148 203 267 316 342
#     4   9  19  39  64  83 120 167 205 245 307 380
#
# _framework density 20.783384999999999
#
# number of rings (size 3 to 8) (size 9 to 14) (size 15 to 20)
#    1.000    1.000    1.667    2.500    0.000    4.000 
#    6.000    0.000    0.000    0.000    0.000    0.000 
#    0.000    0.000    0.000    0.000    0.000    0.000 
#
# Total GULP energy -133872.367233 kJ/mol
# GULP energy per Si atom -5578.015301 kJ/mol
# Density = 2.073608 g / cm^3
# Si number density = 20.783385 Si / 1000 Ang^3
#
#
#
# Elastic Constant Matrix: (Units=GPa)
#
#
# Indices 1 2 3 4 5 6 
#
# 1 39.6400 12.9634 5.5611 0.0000 0.0000 0.0000
# 2 12.9634 118.8008 39.3998 0.0000 0.0000 0.0000
# 3 5.5611 39.3998 110.7399 0.0000 0.0000 0.0000
# 4 0.0000 0.0000 0.0000 29.8154 0.0000 0.0000
# 5 0.0000 0.0000 0.0000 0.0000 27.6134 0.0000
# 6 0.0000 0.0000 0.0000 0.0000 0.0000 5.1508
#
#
#
# Elastic Compliance Matrix: (Units=1/GPa)
#
#
# Indices 1 2 3 4 5 6 
#
# 1 0.026172 -0.002744 -0.000338 0.000000 0.000000 0.000000
# 2 -0.002744 0.009831 -0.003360 0.000000 0.000000 0.000000
# 3 -0.000338 -0.003360 0.010243 0.000000 0.000000 0.000000
# 4 0.000000 0.000000 0.000000 0.033540 0.000000 0.000000
# 5 0.000000 0.000000 0.000000 0.000000 0.036214 0.000000
# 6 0.000000 0.000000 0.000000 0.000000 0.000000 0.194145
#
#
# Mechanical properties :
#
#
# Convention : Reuss Voigt Hill
#
# Bulk Modulus (GPa) = 29.97436 42.78104 36.37770
# Shear Modulus (GPa) = 14.96338 26.59968 20.78153
#
# Velocity S-wave (km/s) = 2.68613 3.58138 3.16557
# Velocity P-wave (km/s) = 4.90653 6.14253 5.55899
#
# Compressibility (1/GPa) = 0.03336185
#
# Stress axis : x y z
#
# Youngs Moduli (GPa) = 38.20917 101.71717 97.63145
#
# Poissons Ratio (x) = 0.27908 0.03301
# Poissons Ratio (y) = 0.10483 0.32804
# Poissons Ratio (z) = 0.01292 0.34177
#
# Static dielectric constant tensor:
#      x y z
#    x 1.776770 0.000000 0.000000 
#    y 0.000000 1.693070 0.000000 
#    z 0.000000 0.000000 1.785280 
# 
# From -- ./inp_files/19959.got.cif
#   From: 2010.05.17/outbox.cif.g08.bks.cpg/sg20_10_cif.got.tgz:19959.got - 2010.06.03 22:52:26.
