data_PCOD9317230
_publ_section_title
;
Structure prediction by ZEFSAII (Michael W. Deem and Ramdas Pophale) SiO2 
 PCOD9317230
Probable space group: C 2 2 21
;
_chemical_formula_sum "Si O2"
_cell_formula_units_Z 64
_cell_length_a 22.945847
_cell_length_b 9.655103
_cell_length_c 12.473833
_cell_angle_alpha 90.000000
_cell_angle_beta 90.000000
_cell_angle_gamma 90.000000
_cell_volume 2763.509297
_symmetry_space_group_name_H-M "C 2 2 21"
_symmetry_group_IT_number 20
_symmetry_cell_setting 'orthorhombic'
loop_
_space_group_symop_operation_xyz
x,y,z
-x,-y,1/2+z
x,-y,-z
-x,y,1/2-z
1/2+x,1/2+y,z
1/2-x,1/2-y,1/2+z
1/2+x,1/2-y,-z
1/2-x,1/2+y,1/2-z
loop_
_atom_site_type_symbol
_atom_site_label
_atom_site_fract_x
_atom_site_fract_y
_atom_site_fract_z
Si Si1 0.786874 0.246551 0.155616
Si Si2 0.270792 0.632955 0.946391
Si Si3 0.037489 0.338826 0.460465
Si Si4 0.871041 0.552372 0.808237
Si Si5 0.678733 0.354502 0.887202
Si Si6 0.328164 0.363274 0.285252
Si Si7 0.908148 0.633296 0.576631
Si Si8 0.438334 0.768332 0.811523
O O1 0.806250 0.408478 0.156149
O O2 0.817986 0.185440 0.260032
O O3 0.716894 0.243728 0.173599
O O4 0.809563 0.174178 0.048271
O O5 0.234767 0.773534 0.930610
O O6 0.299582 0.600884 0.832153
O O7 0.238153 0.500000 0.000000
O O8 0.036439 0.500000 0.500000
O O9 0.088019 0.341403 0.373397
O O10 0.045603 0.240990 0.564047
O O11 0.974651 0.321382 0.407972
O O12 0.879129 0.576512 0.683712
O O13 0.895684 0.400692 0.826166
O O14 0.627281 0.272756 0.947701
O O15 0.674839 0.481731 0.124213
O O16 0.395404 0.329390 0.256869
O O17 0.907145 0.500000 0.500000
O O18 0.500000 0.796135 0.750000
#
# Coordination Sequence:
#
# PCOD9317230 Si02
#       8
#     8   8   8   8   8   8   8   8
#     4  10  23  39  64  97 129 175 223 280 355 402
#     4  11  22  42  70  93 138 180 225 284 353 430
#     4   9  18  35  60  96 127 166 225 278 336 398
#     4  10  20  37  64  97 133 171 225 292 342 406
#     4  10  23  40  61  96 130 181 222 279 342 411
#     4  11  25  43  64  95 141 172 233 286 343 424
#     4  10  19  35  63  95 133 168 222 278 343 410
#     4  11  23  40  66  94 136 189 229 281 347 417
#
# _framework density 23.158957999999998
#
# number of rings (size 3 to 8) (size 9 to 14) (size 15 to 20)
#    0.000    1.750    1.250    3.750    3.500    3.500 
#    0.000    2.500    0.000    0.000    0.000    0.000 
#    0.000    0.000    0.000    0.000    0.000    0.000 
#
# Total GULP energy -178296.561455 kJ/mol
# GULP energy per Si atom -5571.767545 kJ/mol
# Density = 2.310625 g / cm^3
# Si number density = 23.158958 Si / 1000 Ang^3
#
#
#
# Elastic Constant Matrix: (Units=GPa)
#
#
# Indices 1 2 3 4 5 6 
#
# 1 76.4705 11.1113 -10.4822 0.0000 0.0000 0.0000
# 2 11.1113 54.1174 5.2490 0.0000 0.0000 0.0000
# 3 -10.4822 5.2490 86.1752 0.0000 0.0000 0.0000
# 4 0.0000 0.0000 0.0000 39.2144 0.0000 0.0000
# 5 0.0000 0.0000 0.0000 0.0000 11.1299 0.0000
# 6 0.0000 0.0000 0.0000 0.0000 0.0000 19.3902
#
#
#
# Elastic Compliance Matrix: (Units=1/GPa)
#
#
# Indices 1 2 3 4 5 6 
#
# 1 0.013769 -0.003007 0.001858 0.000000 0.000000 0.000000
# 2 -0.003007 0.019245 -0.001538 0.000000 0.000000 0.000000
# 3 0.001858 -0.001538 0.011924 0.000000 0.000000 0.000000
# 4 0.000000 0.000000 0.000000 0.025501 0.000000 0.000000
# 5 0.000000 0.000000 0.000000 0.000000 0.089848 0.000000
# 6 0.000000 0.000000 0.000000 0.000000 0.000000 0.051572
#
#
# Mechanical properties :
#
#
# Convention : Reuss Voigt Hill
#
# Bulk Modulus (GPa) = 25.27611 25.39103 25.33357
# Shear Modulus (GPa) = 21.69939 28.00588 24.85263
#
# Velocity S-wave (km/s) = 3.06433 3.48126 3.27942
# Velocity P-wave (km/s) = 4.84335 5.21023 5.03013
#
# Compressibility (1/GPa) = 0.03956305
#
# Stress axis : x y z
#
# Youngs Moduli (GPa) = 72.62917 51.96167 83.86484
#
# Poissons Ratio (x) = 0.15626 -0.15582
# Poissons Ratio (y) = 0.21841 0.12898
# Poissons Ratio (z) = -0.13494 0.07992
#
# Static dielectric constant tensor:
#      x y z
#    x 1.920160 0.000000 0.000000 
#    y 0.000000 2.070800 0.000000 
#    z 0.000000 0.000000 1.972600 
# 
# From -- ./inp_files/16805.got.cif
#   From: 2010.05.17/outbox.cif.g08.bks.cpg/sg20_9_cif.got.tgz:16805.got - 2010.06.03 22:52:26.
