data_PCOD9317200
_publ_section_title
;
Structure prediction by ZEFSAII (Michael W. Deem and Ramdas Pophale) SiO2 
 PCOD9317200
Probable space group: C 2 2 21
;
_chemical_formula_sum "Si O2"
_cell_formula_units_Z 52
_cell_length_a 8.324244
_cell_length_b 12.820024
_cell_length_c 17.089497
_cell_angle_alpha 90.000000
_cell_angle_beta 90.000000
_cell_angle_gamma 90.000000
_cell_volume 1823.739986
_symmetry_space_group_name_H-M "C 2 2 21"
_symmetry_group_IT_number 20
_symmetry_cell_setting 'orthorhombic'
loop_
_space_group_symop_operation_xyz
x,y,z
-x,-y,1/2+z
x,-y,-z
-x,y,1/2-z
1/2+x,1/2+y,z
1/2-x,1/2-y,1/2+z
1/2+x,1/2-y,-z
1/2-x,1/2+y,1/2-z
loop_
_atom_site_type_symbol
_atom_site_label
_atom_site_fract_x
_atom_site_fract_y
_atom_site_fract_z
Si Si1 0.660480 0.194555 0.454097
Si Si2 0.385773 0.500000 0.500000
Si Si3 0.001694 0.490223 0.585052
Si Si4 0.687686 0.004125 0.278921
Si Si5 0.650682 0.481907 0.374342
Si Si6 0.368085 0.265920 0.865615
Si Si7 0.220701 0.756012 0.800239
O O1 0.506304 0.135009 0.414683
O O2 0.638901 0.235885 0.542211
O O3 0.689450 0.274284 0.381744
O O4 0.805334 0.108512 0.464765
O O5 0.500440 0.457857 0.429053
O O6 0.068424 0.500000 0.500000
O O7 0.137331 0.543304 0.638231
O O8 0.825493 0.532744 0.587084
O O9 0.500000 0.017196 0.250000
O O10 0.803691 0.951187 0.215946
O O11 0.754493 0.118091 0.297045
O O12 0.638976 0.608312 0.365678
O O13 0.539793 0.234422 0.828244
O O14 0.252465 0.231597 0.792193
#
# Coordination Sequence:
#
# PCOD9317200 Si02
#       7
#     8   4   8   8   8   8   8
#     4  11  23  38  66  96 134 171 221 277 340 391
#     4  12  22  38  64 104 136 170 216 282 348 388
#     4  10  19  35  60  87 121 167 212 262 327 398
#     4   8  17  34  60  93 118 164 216 272 320 397
#     4  10  20  36  63  93 127 163 226 269 327 395
#     4  10  21  38  67  93 126 175 226 268 328 402
#     4   9  19  39  64  91 123 174 224 269 321 399
#
# _framework density 28.512837000000001
#
# number of rings (size 3 to 8) (size 9 to 14) (size 15 to 20)
#    0.000    2.154    3.077    0.000    2.154    0.000 
#    0.000    0.000   13.538    3.692    0.000    0.000 
#    0.000    0.000    0.000    0.000    0.000    0.000 
#
# Total GULP energy -144778.886305 kJ/mol
# GULP energy per Si atom -5568.418704 kJ/mol
# Density = 2.844794 g / cm^3
# Si number density = 28.512837 Si / 1000 Ang^3
#
#
#
# Elastic Constant Matrix: (Units=GPa)
#
#
# Indices 1 2 3 4 5 6 
#
# 1 55.0750 5.5855 22.0138 0.0000 0.0000 0.0000
# 2 5.5855 33.3971 11.3578 0.0000 0.0000 0.0000
# 3 22.0138 11.3578 213.0495 0.0000 0.0000 0.0000
# 4 0.0000 0.0000 0.0000 70.1969 0.0000 0.0000
# 5 0.0000 0.0000 0.0000 0.0000 22.6184 0.0000
# 6 0.0000 0.0000 0.0000 0.0000 0.0000 1161.2319
#
#
#
# Elastic Compliance Matrix: (Units=1/GPa)
#
#
# Indices 1 2 3 4 5 6 
#
# 1 0.019155 -0.002577 -0.001842 0.000000 0.000000 0.000000
# 2 -0.002577 0.030842 -0.001378 0.000000 0.000000 0.000000
# 3 -0.001842 -0.001378 0.004958 0.000000 0.000000 0.000000
# 4 0.000000 0.000000 0.000000 0.014246 0.000000 0.000000
# 5 0.000000 0.000000 0.000000 0.000000 0.044212 0.000000
# 6 0.000000 0.000000 0.000000 0.000000 0.000000 0.000861
#
#
# Mechanical properties :
#
#
# Convention : Reuss Voigt Hill
#
# Bulk Modulus (GPa) = 23.06234 42.15952 32.61093
# Shear Modulus (GPa) = 35.63275 268.31375 151.97325
#
# Velocity S-wave (km/s) = 3.53896 9.71118 7.30860
# Velocity P-wave (km/s) = 4.98045 11.85584 9.09302
#
# Compressibility (1/GPa) = 0.04336073
#
# Stress axis : x y z
#
# Youngs Moduli (GPa) = 52.20683 32.42293 201.71411
#
# Poissons Ratio (x) = 0.08356 0.37152
# Poissons Ratio (y) = 0.13454 0.27795
# Poissons Ratio (z) = 0.09615 0.04468
#
# Static dielectric constant tensor:
#      x y z
#    x 2.372470 0.000000 0.000000 
#    y 0.000000 3.681090 0.000000 
#    z 0.000000 0.000000 2.357960 
# 
# From -- ./inp_files/19102.got.cif
#   From: 2010.05.17/outbox.cif.g08.bks.cpg/sg20_10_cif.got.tgz:19102.got - 2010.06.03 22:52:26.
