data_PCOD9317683
_publ_section_title
;
Structure prediction by ZEFSAII (Michael W. Deem and Ramdas Pophale) SiO2 
 PCOD9317683
Probable space group: C 2 2 21
;
_chemical_formula_sum "Si O2"
_cell_formula_units_Z 60
_cell_length_a 18.944071
_cell_length_b 18.188312
_cell_length_c 8.751343
_cell_angle_alpha 90.000000
_cell_angle_beta 90.000000
_cell_angle_gamma 90.000000
_cell_volume 3015.368642
_symmetry_space_group_name_H-M "C 2 2 21"
_symmetry_group_IT_number 20
_symmetry_cell_setting 'orthorhombic'
loop_
_space_group_symop_operation_xyz
x,y,z
-x,-y,1/2+z
x,-y,-z
-x,y,1/2-z
1/2+x,1/2+y,z
1/2-x,1/2-y,1/2+z
1/2+x,1/2-y,-z
1/2-x,1/2+y,1/2-z
loop_
_atom_site_type_symbol
_atom_site_label
_atom_site_fract_x
_atom_site_fract_y
_atom_site_fract_z
Si Si1 0.237312 0.914041 0.509429
Si Si2 0.602919 0.200069 0.500734
Si Si3 0.120575 0.223830 0.937984
Si Si4 0.082421 0.127283 0.424536
Si Si5 0.075366 0.920487 0.931694
Si Si6 0.500000 0.215753 0.250000
Si Si7 0.729787 0.197871 0.261785
Si Si8 0.344398 0.182636 0.685009
O O1 0.153439 0.898968 0.489790
O O2 0.256304 0.878436 0.674871
O O3 0.288072 0.873085 0.388075
O O4 0.250015 0.000000 0.500000
O O5 0.583931 0.283969 0.554444
O O6 0.540976 0.173762 0.386177
O O7 0.675781 0.196679 0.402892
O O8 0.619149 0.158875 0.658917
O O9 0.060855 0.231935 0.812235
O O10 0.192222 0.251107 0.864180
O O11 0.123410 0.141511 0.992802
O O12 0.100211 0.286683 0.061625
O O13 0.084474 0.095393 0.250019
O O14 0.006004 0.098280 0.477009
O O15 0.092060 0.000000 0.000000
O O16 0.801247 0.241018 0.292639
#
# Coordination Sequence:
#
# PCOD9317683 Si02
#       8
#     8   8   8   8   8   4   8   8
#     4  11  23  40  61  92 128 168 212 265 329 380
#     4  11  19  37  62  88 121 155 214 266 304 366
#     4  10  20  34  55  81 116 158 212 251 305 360
#     4  11  21  38  59  84 127 176 218 252 298 373
#     4  11  23  36  52  86 133 175 212 255 300 373
#     4  10  22  32  56  88 118 146 194 266 302 372
#     4  10  20  36  58  90 117 155 213 268 304 371
#     4  11  20  37  63  86 115 167 210 267 311 371
#
# _framework density 19.898066
#
# number of rings (size 3 to 8) (size 9 to 14) (size 15 to 20)
#    0.000    1.333    5.333    1.200    0.000    2.667 
#    0.000    0.667    0.000    0.000    0.000   50.400 
#    0.000    0.000    0.000    0.000    0.000    0.000 
#
# Total GULP energy -167240.905667 kJ/mol
# GULP energy per Si atom -5574.696856 kJ/mol
# Density = 1.985278 g / cm^3
# Si number density = 19.898066 Si / 1000 Ang^3
#
#
#
# Elastic Constant Matrix: (Units=GPa)
#
#
# Indices 1 2 3 4 5 6 
#
# 1 68.0475 33.9868 22.6314 0.0000 0.0000 0.0000
# 2 33.9868 104.6631 24.3077 0.0000 0.0000 0.0000
# 3 22.6314 24.3077 80.9845 0.0000 0.0000 0.0000
# 4 0.0000 0.0000 0.0000 19.9694 0.0000 0.0000
# 5 0.0000 0.0000 0.0000 0.0000 26.3343 0.0000
# 6 0.0000 0.0000 0.0000 0.0000 0.0000 19.8194
#
#
#
# Elastic Compliance Matrix: (Units=1/GPa)
#
#
# Indices 1 2 3 4 5 6 
#
# 1 0.018475 -0.005160 -0.003614 0.000000 0.000000 0.000000
# 2 -0.005160 0.011712 -0.002073 0.000000 0.000000 0.000000
# 3 -0.003614 -0.002073 0.013980 0.000000 0.000000 0.000000
# 4 0.000000 0.000000 0.000000 0.050077 0.000000 0.000000
# 5 0.000000 0.000000 0.000000 0.000000 0.037973 0.000000
# 6 0.000000 0.000000 0.000000 0.000000 0.000000 0.050456
#
#
# Mechanical properties :
#
#
# Convention : Reuss Voigt Hill
#
# Bulk Modulus (GPa) = 44.49966 46.17187 45.33577
# Shear Modulus (GPa) = 23.60079 24.74257 24.17168
#
# Velocity S-wave (km/s) = 3.44769 3.53011 3.48914
# Velocity P-wave (km/s) = 6.18556 6.31428 6.25025
#
# Compressibility (1/GPa) = 0.02247208
#
# Stress axis : x y z
#
# Youngs Moduli (GPa) = 54.12798 85.38599 71.52919
#
# Poissons Ratio (x) = 0.44058 0.25851
# Poissons Ratio (y) = 0.27929 0.14830
# Poissons Ratio (z) = 0.19562 0.17703
#
# Static dielectric constant tensor:
#      x y z
#    x 1.722620 0.000000 0.000000 
#    y 0.000000 1.645550 0.000000 
#    z 0.000000 0.000000 1.905970 
# 
# From -- ./inp_files/9584.got.cif
#   From: 2010.05.17/outbox.cif.g08.bks.cpg/sg20_5_cif.got.tgz:9584.got - 2010.06.03 22:52:26.
