data_PCOD9317796
_publ_section_title
;
Structure prediction by ZEFSAII (Michael W. Deem and Ramdas Pophale) SiO2 
 PCOD9317796
Probable space group: C 2 2 21
;
_chemical_formula_sum "Si O2"
_cell_formula_units_Z 60
_cell_length_a 24.743069
_cell_length_b 6.567843
_cell_length_c 17.666490
_cell_angle_alpha 90.000000
_cell_angle_beta 90.000000
_cell_angle_gamma 90.000000
_cell_volume 2870.956425
_symmetry_space_group_name_H-M "C 2 2 21"
_symmetry_group_IT_number 20
_symmetry_cell_setting 'orthorhombic'
loop_
_space_group_symop_operation_xyz
x,y,z
-x,-y,1/2+z
x,-y,-z
-x,y,1/2-z
1/2+x,1/2+y,z
1/2-x,1/2-y,1/2+z
1/2+x,1/2-y,-z
1/2-x,1/2+y,1/2-z
loop_
_atom_site_type_symbol
_atom_site_label
_atom_site_fract_x
_atom_site_fract_y
_atom_site_fract_z
Si Si1 0.352661 0.136849 0.573916
Si Si2 0.765905 0.124922 0.857910
Si Si3 0.091090 0.000000 0.000000
Si Si4 0.933259 0.524727 0.912332
Si Si5 0.363347 0.637252 0.156169
Si Si6 0.550737 0.143916 0.113455
Si Si7 0.800460 0.512863 0.223708
Si Si8 0.097320 0.749620 0.265782
O O1 0.292823 0.123159 0.606083
O O2 0.371599 0.364401 0.555001
O O3 0.349631 0.000000 0.500000
O O4 0.401772 0.024243 0.615277
O O5 0.783511 0.358381 0.849530
O O6 0.816266 0.991376 0.887060
O O7 0.751122 0.038493 0.774264
O O8 0.060242 0.170134 0.947279
O O9 0.909093 0.744370 0.890407
O O10 0.913325 0.372278 0.844702
O O11 0.997073 0.479509 0.908099
O O12 0.916234 0.500000 0.000000
O O13 0.392651 0.480811 0.211550
O O14 0.331099 0.808797 0.202047
O O15 0.553714 0.227799 0.199297
O O16 0.844811 0.660192 0.262189
#
# Coordination Sequence:
#
# PCOD9317796 Si02
#       8
#     8   8   4   8   8   8   8   8
#     4  10  23  41  61 101 141 174 225 285 351 420
#     4  11  20  37  66  94 134 177 221 277 346 414
#     4  10  24  38  64 100 140 186 224 286 360 412
#     4  11  25  47  69  97 139 184 233 290 349 422
#     4  10  24  43  65  98 134 182 231 285 344 413
#     4  11  23  44  72 103 138 179 233 291 357 425
#     4  10  20  35  62  98 127 173 221 279 341 407
#     4  10  23  42  68 100 130 172 232 284 345 422
#
# _framework density 20.898959999999999
#
# number of rings (size 3 to 8) (size 9 to 14) (size 15 to 20)
#    0.000    1.600    2.667    1.600    1.867    4.800 
#    7.200    4.000    0.000    0.000    0.000    0.000 
#    0.000    0.000    0.000    0.000    0.000    0.000 
#
# Total GULP energy -167105.381066 kJ/mol
# GULP energy per Si atom -5570.179369 kJ/mol
# Density = 2.085139 g / cm^3
# Si number density = 20.898960 Si / 1000 Ang^3
#
#
#
# Elastic Constant Matrix: (Units=GPa)
#
#
# Indices 1 2 3 4 5 6 
#
# 1 104.2401 45.1943 35.0218 0.0000 0.0000 0.0000
# 2 45.1943 126.4817 44.5894 0.0000 0.0000 0.0000
# 3 35.0218 44.5894 67.3587 0.0000 0.0000 0.0000
# 4 0.0000 0.0000 0.0000 -1.6347 0.0000 0.0000
# 5 0.0000 0.0000 0.0000 0.000016265.2886 0.0000
# 6 0.0000 0.0000 0.0000 0.0000 0.0000 1050.5526
#
#
#
# Elastic Compliance Matrix: (Units=1/GPa)
#
#
# Indices 1 2 3 4 5 6 
#
# 1 0.012340 -0.002801 -0.004562 0.000000 0.000000 0.000000
# 2 -0.002801 0.010949 -0.005791 0.000000 0.000000 0.000000
# 3 -0.004562 -0.005791 0.021051 0.000000 0.000000 0.000000
# 4 0.000000 0.000000 0.000000 -0.611749 0.000000 0.000000
# 5 0.000000 0.000000 0.000000 0.000000 0.000061 0.000000
# 6 0.000000 0.000000 0.000000 0.000000 0.000000 0.000952
#
#
# Mechanical properties :
#
#
# Convention : Reuss Voigt Hill
#
# Bulk Modulus (GPa) = 55.45741 60.85461 58.15601
# Shear Modulus (GPa) = -9.36197 3474.39298 1732.51551
#
# Velocity S-wave (km/s) = -2.11881 40.81765 28.82353
# Velocity P-wave (km/s) = 4.53958 47.44073 33.69889
#
# Compressibility (1/GPa) = 0.01803185
#
# Stress axis : x y z
#
# Youngs Moduli (GPa) = 81.03476 91.33335 47.50270
#
# Poissons Ratio (x) = 0.25585 0.21670
# Poissons Ratio (y) = 0.22700 0.27511
# Poissons Ratio (z) = 0.36966 0.52895
#
# Static dielectric constant tensor:
#      x y z
#    x 1.880470 0.000000 0.000000 
#    y 0.000000 -63.384390 0.000000 
#    z 0.000000 0.000000 -0.435870 
# 
# From -- ./inp_files/25715.got.cif
#   From: 2010.05.17/outbox.cif.g08.bks.cpg/sg20_13_cif.got.tgz:25715.got - 2010.06.03 22:52:26.
