data_PCOD9317636
_publ_section_title
;
Structure prediction by ZEFSAII (Michael W. Deem and Ramdas Pophale) SiO2 
 PCOD9317636
Probable space group: C 2 2 21
;
_chemical_formula_sum "Si O2"
_cell_formula_units_Z 48
_cell_length_a 22.394217
_cell_length_b 11.532530
_cell_length_c 9.237969
_cell_angle_alpha 90.000000
_cell_angle_beta 90.000000
_cell_angle_gamma 90.000000
_cell_volume 2385.816159
_symmetry_space_group_name_H-M "C 2 2 21"
_symmetry_group_IT_number 20
_symmetry_cell_setting 'orthorhombic'
loop_
_space_group_symop_operation_xyz
x,y,z
-x,-y,1/2+z
x,-y,-z
-x,y,1/2-z
1/2+x,1/2+y,z
1/2-x,1/2-y,1/2+z
1/2+x,1/2-y,-z
1/2-x,1/2+y,1/2-z
loop_
_atom_site_type_symbol
_atom_site_label
_atom_site_fract_x
_atom_site_fract_y
_atom_site_fract_z
Si Si1 0.562679 0.748807 0.192710
Si Si2 0.664175 0.928481 0.134641
Si Si3 0.245389 0.907287 0.786267
Si Si4 0.403815 0.376275 0.417603
Si Si5 0.776443 0.238963 0.547478
Si Si6 0.882774 0.980465 0.829131
O O1 0.500000 0.792446 0.250000
O O2 0.614328 0.844661 0.198470
O O3 0.584045 0.638764 0.288092
O O4 0.556979 0.700220 0.027491
O O5 0.714142 0.849037 0.057211
O O6 0.698650 0.014802 0.240750
O O7 0.636844 0.000000 0.000000
O O8 0.250026 0.863540 0.950540
O O9 0.244320 0.791535 0.685678
O O10 0.183296 0.970247 0.744296
O O11 0.396851 0.500000 0.500000
O O12 0.342040 0.305898 0.412098
O O13 0.417420 0.415837 0.254451
O O14 0.878179 0.000000 0.000000
#
# Coordination Sequence:
#
# PCOD9317636 Si02
#       6
#     8   8   8   8   8   8
#     4  10  21  41  65  84 119 164 213 258 305 374
#     4   9  19  38  60  87 116 164 205 246 314 370
#     4  11  21  34  57  89 125 162 203 251 311 384
#     4   9  18  36  56  83 117 164 201 246 319 360
#     4  10  20  33  55  83 122 163 197 244 307 373
#     4  11  22  35  58  94 129 157 205 266 316 377
#
# _framework density 20.118901000000001
#
# number of rings (size 3 to 8) (size 9 to 14) (size 15 to 20)
#    0.000    2.000    5.000    1.500    4.667    2.000 
#    0.000    0.000    3.667    0.000    0.000    0.000 
#    0.000    0.000    0.000    0.000    0.000    0.000 
#
# Total GULP energy -133872.093908 kJ/mol
# GULP energy per Si atom -5578.003913 kJ/mol
# Density = 2.007311 g / cm^3
# Si number density = 20.118901 Si / 1000 Ang^3
#
#
#
# Elastic Constant Matrix: (Units=GPa)
#
#
# Indices 1 2 3 4 5 6 
#
# 1 43.9579 1.3719 19.2626 0.0000 0.0000 0.0000
# 2 1.3719 63.8524 33.8459 0.0000 0.0000 0.0000
# 3 19.2626 33.8459 96.0830 0.0000 0.0000 0.0000
# 4 0.0000 0.0000 0.0000 30.2718 0.0000 0.0000
# 5 0.0000 0.0000 0.0000 0.0000 15.8178 0.0000
# 6 0.0000 0.0000 0.0000 0.0000 0.0000 2.2214
#
#
#
# Elastic Compliance Matrix: (Units=1/GPa)
#
#
# Indices 1 2 3 4 5 6 
#
# 1 0.025296 0.002637 -0.006000 0.000000 0.000000 0.000000
# 2 0.002637 0.019532 -0.007409 0.000000 0.000000 0.000000
# 3 -0.006000 -0.007409 0.014220 0.000000 0.000000 0.000000
# 4 0.000000 0.000000 0.000000 0.033034 0.000000 0.000000
# 5 0.000000 0.000000 0.000000 0.000000 0.063220 0.000000
# 6 0.000000 0.000000 0.000000 0.000000 0.000000 0.450175
#
#
# Mechanical properties :
#
#
# Convention : Reuss Voigt Hill
#
# Bulk Modulus (GPa) = 26.66380 34.76157 30.71268
# Shear Modulus (GPa) = 7.81833 19.62306 13.72070
#
# Velocity S-wave (km/s) = 1.97345 3.12645 2.61431
# Velocity P-wave (km/s) = 4.29820 5.50895 4.94080
#
# Compressibility (1/GPa) = 0.03750404
#
# Stress axis : x y z
#
# Youngs Moduli (GPa) = 39.53182 51.19903 70.32145
#
# Poissons Ratio (x) = -0.13501 0.42195
# Poissons Ratio (y) = -0.10425 0.52100
# Poissons Ratio (z) = 0.23720 0.37932
#
# Static dielectric constant tensor:
#      x y z
#    x 1.692260 0.000000 0.000000 
#    y 0.000000 1.747740 0.000000 
#    z 0.000000 0.000000 1.767910 
# 
# From -- ./inp_files/10662.got.cif
#   From: 2010.05.17/outbox.cif.g08.bks.cpg/sg20_6_cif.got.tgz:10662.got - 2010.06.03 22:52:26.
