data_PCOD9317210
_publ_section_title
;
Structure prediction by ZEFSAII (Michael W. Deem and Ramdas Pophale) SiO2 
 PCOD9317210
Probable space group: C 2 2 21
;
_chemical_formula_sum "Si O2"
_cell_formula_units_Z 64
_cell_length_a 29.578452
_cell_length_b 11.332805
_cell_length_c 8.020195
_cell_angle_alpha 90.000000
_cell_angle_beta 90.000000
_cell_angle_gamma 90.000000
_cell_volume 2688.424132
_symmetry_space_group_name_H-M "C 2 2 21"
_symmetry_group_IT_number 20
_symmetry_cell_setting 'orthorhombic'
loop_
_space_group_symop_operation_xyz
x,y,z
-x,-y,1/2+z
x,-y,-z
-x,y,1/2-z
1/2+x,1/2+y,z
1/2-x,1/2-y,1/2+z
1/2+x,1/2-y,-z
1/2-x,1/2+y,1/2-z
loop_
_atom_site_type_symbol
_atom_site_label
_atom_site_fract_x
_atom_site_fract_y
_atom_site_fract_z
Si Si1 0.137841 0.210576 0.165796
Si Si2 0.317078 0.369743 0.991204
Si Si3 0.086318 0.154811 0.618866
Si Si4 0.629421 0.027754 0.700120
Si Si5 0.554219 0.422246 0.748557
Si Si6 0.226737 0.491339 0.701129
Si Si7 0.235913 0.250514 0.132762
Si Si8 0.953680 0.413578 0.840755
O O1 0.157815 0.132729 0.314893
O O2 0.129879 0.335643 0.255475
O O3 0.088994 0.150269 0.129235
O O4 0.184644 0.231377 0.059319
O O5 0.359142 0.353802 0.119479
O O6 0.280872 0.267763 0.021393
O O7 0.296756 0.500000 0.000000
O O8 0.069148 0.116217 0.436489
O O9 0.069222 0.287782 0.628493
O O10 0.065239 0.062292 0.750437
O O11 0.628811 0.000000 0.500000
O O12 0.675492 0.970853 0.761529
O O13 0.583524 0.977878 0.772346
O O14 0.500000 0.402161 0.750000
O O15 0.229254 0.500000 0.500000
O O16 0.237275 0.622004 0.772942
O O17 0.253315 0.370280 0.732975
O O18 0.000000 0.395021 0.750000
O O19 0.961210 0.500000 0.000000
#
# Coordination Sequence:
#
# PCOD9317210 Si02
#       8
#     8   8   8   8   8   8   8   8
#     4  10  20  34  53  86 114 149 203 256 305 375
#     4  11  18  34  60  88 117 153 214 259 307 385
#     4  10  20  36  59  91 115 154 210 266 317 381
#     4   9  17  33  54  77 107 144 193 247 298 363
#     4  10  19  35  61  85 119 154 208 266 319 371
#     4  10  21  37  56  85 118 154 204 257 311 376
#     4  11  21  33  59  85 120 160 196 255 328 377
#     4  11  22  36  59  88 120 158 207 263 325 388
#
# _framework density 23.805769000000002
#
# number of rings (size 3 to 8) (size 9 to 14) (size 15 to 20)
#    0.000    1.750    2.500    7.125    0.000    2.000 
#    0.000    0.000    2.750   21.000    0.000    0.000 
#    0.000    0.000    0.000    0.000    0.000    0.000 
#
# Total GULP energy -178260.305879 kJ/mol
# GULP energy per Si atom -5570.634559 kJ/mol
# Density = 2.375159 g / cm^3
# Si number density = 23.805769 Si / 1000 Ang^3
#
#
#
# Elastic Constant Matrix: (Units=GPa)
#
#
# Indices 1 2 3 4 5 6 
#
# 1 191.1822 57.1020 20.3897 0.0000 0.0000 0.0000
# 2 57.1020 147.5119 18.5989 0.0000 0.0000 0.0000
# 3 20.3897 18.5989 16.8758 0.0000 0.0000 0.0000
# 4 0.0000 0.0000 0.0000 22.7372 0.0000 0.0000
# 5 0.0000 0.0000 0.0000 0.0000 4.5083 0.0000
# 6 0.0000 0.0000 0.0000 0.0000 0.0000 -32.6314
#
#
#
# Elastic Compliance Matrix: (Units=1/GPa)
#
#
# Indices 1 2 3 4 5 6 
#
# 1 0.006365 -0.001735 -0.005778 0.000000 0.000000 0.000000
# 2 -0.001735 0.008346 -0.007102 0.000000 0.000000 0.000000
# 3 -0.005778 -0.007102 0.074064 0.000000 0.000000 0.000000
# 4 0.000000 0.000000 0.000000 0.043981 0.000000 0.000000
# 5 0.000000 0.000000 0.000000 0.000000 0.221814 0.000000
# 6 0.000000 0.000000 0.000000 0.000000 0.000000 -0.030645
#
#
# Mechanical properties :
#
#
# Convention : Reuss Voigt Hill
#
# Bulk Modulus (GPa) = 16.79381 60.86124 38.82752
# Shear Modulus (GPa) = 13.40468 16.22144 14.81306
#
# Velocity S-wave (km/s) = 2.37552 2.61321 2.49719
# Velocity P-wave (km/s) = 3.82020 5.89291 4.96590
#
# Compressibility (1/GPa) = 0.05954577
#
# Stress axis : x y z
#
# Youngs Moduli (GPa) = 157.10492 119.81313 13.50176
#
# Poissons Ratio (x) = 0.20793 0.07801
# Poissons Ratio (y) = 0.27265 0.09589
# Poissons Ratio (z) = 0.90773 0.85088
#
# Static dielectric constant tensor:
#      x y z
#    x 1.970260 0.000000 0.000000 
#    y 0.000000 2.136550 0.000000 
#    z 0.000000 0.000000 2.190210 
# 
# From -- ./inp_files/17119.got.cif
#   From: 2010.05.17/outbox.cif.g08.bks.cpg/sg20_9_cif.got.tgz:17119.got - 2010.06.03 22:52:26.
