data_PCOD9317460
_publ_section_title
;
Structure prediction by ZEFSAII (Michael W. Deem and Ramdas Pophale) SiO2 
 PCOD9317460
Probable space group: C 2 2 21
;
_chemical_formula_sum "Si O2"
_cell_formula_units_Z 48
_cell_length_a 10.763032
_cell_length_b 27.532461
_cell_length_c 7.879538
_cell_angle_alpha 90.000000
_cell_angle_beta 90.000000
_cell_angle_gamma 90.000000
_cell_volume 2334.965233
_symmetry_space_group_name_H-M "C 2 2 21"
_symmetry_group_IT_number 20
_symmetry_cell_setting 'orthorhombic'
loop_
_space_group_symop_operation_xyz
x,y,z
-x,-y,1/2+z
x,-y,-z
-x,y,1/2-z
1/2+x,1/2+y,z
1/2-x,1/2-y,1/2+z
1/2+x,1/2-y,-z
1/2-x,1/2+y,1/2-z
loop_
_atom_site_type_symbol
_atom_site_label
_atom_site_fract_x
_atom_site_fract_y
_atom_site_fract_z
Si Si1 0.323274 0.000000 0.000000
Si Si2 0.593707 0.791794 0.086281
Si Si3 0.725660 0.102875 0.398950
Si Si4 0.500000 0.942362 0.250000
Si Si5 0.000000 0.655466 0.250000
Si Si6 0.500000 0.367036 0.250000
Si Si7 0.585127 0.683867 0.090358
Si Si8 0.276121 0.119727 0.709586
O O1 0.413958 0.024649 0.865751
O O2 0.251013 0.954695 0.915468
O O3 0.500000 0.795732 0.250000
O O4 0.643302 0.737037 0.059613
O O5 0.707107 0.827948 0.126996
O O6 0.526902 0.811174 0.915190
O O7 0.613552 0.119083 0.282606
O O8 0.836596 0.137639 0.348411
O O9 0.694759 0.120825 0.589902
O O10 0.604455 0.911439 0.146407
O O11 0.473135 0.334204 0.414201
O O12 0.369869 0.395367 0.207497
O O13 0.500000 0.693942 0.250000
#
# Coordination Sequence:
#
# PCOD9317460 Si02
#       8
#     4   8   8   4   4   4   8   8
#     4  10  20  38  64  92 124 152 212 284 326 364
#     4  11  21  38  60  90 133 171 213 266 312 386
#     4  10  22  39  62  92 125 165 211 271 326 378
#     4  10  19  38  66  95 120 163 211 268 328 382
#     4  12  22  36  64 102 122 164 221 264 329 384
#     4  10  23  42  60  87 130 179 206 260 321 380
#     4  10  24  41  59  90 129 174 217 257 319 391
#     4  10  20  41  63  88 130 171 208 259 330 377
#
# _framework density 20.557051999999999
#
# number of rings (size 3 to 8) (size 9 to 14) (size 15 to 20)
#    0.000    1.667    2.500    2.000    2.333    4.000 
#    0.000    0.000   16.500    1.000    0.000    0.000 
#    0.000    0.000    0.000    0.000    0.000    0.000 
#
# Total GULP energy -133607.422450 kJ/mol
# GULP energy per Si atom -5566.975935 kJ/mol
# Density = 2.051026 g / cm^3
# Si number density = 20.557052 Si / 1000 Ang^3
#
#
#
# Elastic Constant Matrix: (Units=GPa)
#
#
# Indices 1 2 3 4 5 6 
#
# 1 89.4112 48.0688 9.2749 0.0000 0.0000 0.0000
# 2 48.0688 150.1926 8.9142 0.0000 0.0000 0.0000
# 3 9.2749 8.9142 63.2254 0.0000 0.0000 0.0000
# 4 0.0000 0.0000 0.0000 21.1485 0.0000 0.0000
# 5 0.0000 0.0000 0.0000 0.0000 18.7463 0.0000
# 6 0.0000 0.0000 0.0000 0.0000 0.0000 24.9622
#
#
#
# Elastic Compliance Matrix: (Units=1/GPa)
#
#
# Indices 1 2 3 4 5 6 
#
# 1 0.013630 -0.004279 -0.001396 0.000000 0.000000 0.000000
# 2 -0.004279 0.008058 -0.000508 0.000000 0.000000 0.000000
# 3 -0.001396 -0.000508 0.016093 0.000000 0.000000 0.000000
# 4 0.000000 0.000000 0.000000 0.047285 0.000000 0.000000
# 5 0.000000 0.000000 0.000000 0.000000 0.053344 0.000000
# 6 0.000000 0.000000 0.000000 0.000000 0.000000 0.040061
#
#
# Mechanical properties :
#
#
# Convention : Reuss Voigt Hill
#
# Bulk Modulus (GPa) = 39.34982 48.37166 43.86074
# Shear Modulus (GPa) = 25.08680 28.74283 26.91482
#
# Velocity S-wave (km/s) = 3.49714 3.74331 3.62231
# Velocity P-wave (km/s) = 5.95735 6.50113 6.23517
#
# Compressibility (1/GPa) = 0.02541307
#
# Stress axis : x y z
#
# Youngs Moduli (GPa) = 73.36911 124.10232 62.13920
#
# Poissons Ratio (x) = 0.53107 0.08675
# Poissons Ratio (y) = 0.31397 0.03159
# Poissons Ratio (z) = 0.10243 0.06308
#
# Static dielectric constant tensor:
#      x y z
#    x 1.830620 0.000000 0.000000 
#    y 0.000000 1.786580 0.000000 
#    z 0.000000 0.000000 1.731800 
# 
# From -- ./inp_files/7465.got.cif
#   From: 2010.05.17/outbox.cif.g08.bks.cpg/sg20_4_cif.got.tgz:7465.got - 2010.06.03 22:52:26.
