data_PCOD9317298
_publ_section_title
;
Structure prediction by ZEFSAII (Michael W. Deem and Ramdas Pophale) SiO2 
 PCOD9317298
Probable space group: C 2 2 21
;
_chemical_formula_sum "Si O2"
_cell_formula_units_Z 48
_cell_length_a 13.902832
_cell_length_b 18.337991
_cell_length_c 10.169635
_cell_angle_alpha 90.000000
_cell_angle_beta 90.000000
_cell_angle_gamma 90.000000
_cell_volume 2592.748526
_symmetry_space_group_name_H-M "C 2 2 21"
_symmetry_group_IT_number 20
_symmetry_cell_setting 'orthorhombic'
loop_
_space_group_symop_operation_xyz
x,y,z
-x,-y,1/2+z
x,-y,-z
-x,y,1/2-z
1/2+x,1/2+y,z
1/2-x,1/2-y,1/2+z
1/2+x,1/2-y,-z
1/2-x,1/2+y,1/2-z
loop_
_atom_site_type_symbol
_atom_site_label
_atom_site_fract_x
_atom_site_fract_y
_atom_site_fract_z
Si Si1 0.000000 0.628151 0.250000
Si Si2 0.339401 0.756727 0.502615
Si Si3 0.151671 0.578288 0.066095
Si Si4 0.472584 0.338359 0.026417
Si Si5 0.330318 0.760238 0.810136
Si Si6 0.000000 0.950570 0.250000
Si Si7 0.356696 0.552416 0.130325
O O1 0.948593 0.581706 0.359552
O O2 0.912966 0.677884 0.196277
O O3 0.343217 0.845183 0.486265
O O4 0.444406 0.719408 0.492236
O O5 0.308951 0.744357 0.656147
O O6 0.263964 0.725537 0.397319
O O7 0.248442 0.578376 0.155104
O O8 0.155281 0.500000 0.000000
O O9 0.386952 0.303831 0.113812
O O10 0.514216 0.400187 0.122960
O O11 0.423182 0.378722 0.904547
O O12 0.092304 0.002380 0.263489
O O13 0.355471 0.500000 0.000000
#
# Coordination Sequence:
#
# PCOD9317298 Si02
#       7
#     4   8   8   8   8   4   8
#     4  10  21  40  62  79 116 168 198 244 307 366
#     4  11  22  36  66  91 119 160 208 251 298 367
#     4  10  20  37  57  82 115 159 202 241 298 369
#     4  11  18  38  62  87 122 164 199 248 312 362
#     4  11  20  39  63  91 119 160 203 248 305 357
#     4  10  19  36  60  89 122 158 188 252 317 364
#     4   9  20  32  58  86 117 153 197 242 303 365
#
# _framework density 18.513172000000001
#
# number of rings (size 3 to 8) (size 9 to 14) (size 15 to 20)
#    0.000    1.667    6.667    0.000    0.000    2.667 
#    0.000    3.333    0.000    0.000    0.000    0.000 
#    0.000    0.000    0.000    0.000    0.000    0.000 
#
# Total GULP energy -133671.111213 kJ/mol
# GULP energy per Si atom -5569.629634 kJ/mol
# Density = 1.847104 g / cm^3
# Si number density = 18.513172 Si / 1000 Ang^3
#
#
#
# Elastic Constant Matrix: (Units=GPa)
#
#
# Indices 1 2 3 4 5 6 
#
# 1 79.2576 21.9336 28.9789 0.0000 0.0000 0.0000
# 2 21.9336 88.3297 12.6397 0.0000 0.0000 0.0000
# 3 28.9789 12.6397 39.5019 0.0000 0.0000 0.0000
# 4 0.0000 0.0000 0.0000 16.8562 0.0000 0.0000
# 5 0.0000 0.0000 0.0000 0.0000 27.3818 0.0000
# 6 0.0000 0.0000 0.0000 0.0000 0.0000 11.1978
#
#
#
# Elastic Compliance Matrix: (Units=1/GPa)
#
#
# Indices 1 2 3 4 5 6 
#
# 1 0.017826 -0.002678 -0.012221 0.000000 0.000000 0.000000
# 2 -0.002678 0.012267 -0.001961 0.000000 0.000000 0.000000
# 3 -0.012221 -0.001961 0.034908 0.000000 0.000000 0.000000
# 4 0.000000 0.000000 0.000000 0.059325 0.000000 0.000000
# 5 0.000000 0.000000 0.000000 0.000000 0.036521 0.000000
# 6 0.000000 0.000000 0.000000 0.000000 0.000000 0.089303
#
#
# Mechanical properties :
#
#
# Convention : Reuss Voigt Hill
#
# Bulk Modulus (GPa) = 31.96665 37.13262 34.54963
# Shear Modulus (GPa) = 16.98971 20.65630 18.82301
#
# Velocity S-wave (km/s) = 3.03266 3.34393 3.19209
# Velocity P-wave (km/s) = 5.43757 5.91693 5.68231
#
# Compressibility (1/GPa) = 0.03128261
#
# Stress axis : x y z
#
# Youngs Moduli (GPa) = 56.09660 81.52140 28.64688
#
# Poissons Ratio (x) = 0.21830 0.35009
# Poissons Ratio (y) = 0.15022 0.05617
# Poissons Ratio (z) = 0.68554 0.15983
#
# Static dielectric constant tensor:
#      x y z
#    x 1.661520 0.000000 0.000000 
#    y 0.000000 1.682610 0.000000 
#    z 0.000000 0.000000 1.678350 
# 
# From -- ./inp_files/14176.got.cif
#   From: 2010.05.17/outbox.cif.g08.bks.cpg/sg20_8_cif.got.tgz:14176.got - 2010.06.03 22:52:26.
