data_PCOD9317816
_publ_section_title
;
Structure prediction by ZEFSAII (Michael W. Deem and Ramdas Pophale) SiO2 
 PCOD9317816
Probable space group: C 2 2 21
;
_chemical_formula_sum "Si O2"
_cell_formula_units_Z 28
_cell_length_a 11.380601
_cell_length_b 27.808627
_cell_length_c 4.891246
_cell_angle_alpha 90.000000
_cell_angle_beta 90.000000
_cell_angle_gamma 90.000000
_cell_volume 1547.976096
_symmetry_space_group_name_H-M "C 2 2 21"
_symmetry_group_IT_number 20
_symmetry_cell_setting 'orthorhombic'
loop_
_space_group_symop_operation_xyz
x,y,z
-x,-y,1/2+z
x,-y,-z
-x,y,1/2-z
1/2+x,1/2+y,z
1/2-x,1/2-y,1/2+z
1/2+x,1/2-y,-z
1/2-x,1/2+y,1/2-z
loop_
_atom_site_type_symbol
_atom_site_label
_atom_site_fract_x
_atom_site_fract_y
_atom_site_fract_z
Si Si1 0.079912 0.728577 0.507908
Si Si2 0.227274 0.821492 0.344527
Si Si3 0.128507 0.128118 0.161396
Si Si4 0.500000 0.465464 0.750000
O O1 0.154028 0.688993 0.676551
O O2 0.000000 0.749773 0.750000
O O3 0.833159 0.769689 0.105598
O O4 0.000000 0.712907 0.250000
O O5 0.224188 0.848818 0.634053
O O6 0.151324 0.854392 0.142733
O O7 0.000000 0.146648 0.250000
O O8 0.108091 0.070932 0.185941
O O9 0.526964 0.500000 0.500000
#
# Coordination Sequence:
#
# PCOD9317816 Si02
#       4
#     8   8   8   4
#     4  12  24  35  52  75 111 151 195 246 255 311
#     4  12  21  36  50  76 104 150 196 218 278 310
#     4  10  21  32  56  76 107 145 175 224 262 361
#     4  10  20  36  54  84 114 140 170 230 292 346
#
# _framework density 18.088135999999999
#
# number of rings (size 3 to 8) (size 9 to 14) (size 15 to 20)
#    0.857    0.000    0.000   12.000    0.000    0.000 
#    0.000    0.000    0.000    0.000    0.000    0.000 
#    0.000   64.000    0.000    0.000    0.000    0.000 
#
# Total GULP energy -78068.339723 kJ/mol
# GULP energy per Si atom -5576.309980 kJ/mol
# Density = 1.804697 g / cm^3
# Si number density = 18.088136 Si / 1000 Ang^3
#
#
#
# Elastic Constant Matrix: (Units=GPa)
#
#
# Indices 1 2 3 4 5 6 
#
# 1 44.6428 13.8262 17.4039 0.0000 0.0000 0.0000
# 2 13.8262 76.8860 13.3725 0.0000 0.0000 0.0000
# 3 17.4039 13.3725 110.6176 0.0000 0.0000 0.0000
# 4 0.0000 0.0000 0.0000 74.5488 0.0000 0.0000
# 5 0.0000 0.0000 0.0000 0.0000 47.9323 0.0000
# 6 0.0000 0.0000 0.0000 0.0000 0.0000-1217.4337
#
#
#
# Elastic Compliance Matrix: (Units=1/GPa)
#
#
# Indices 1 2 3 4 5 6 
#
# 1 0.024951 -0.003886 -0.003456 0.000000 0.000000 0.000000
# 2 -0.003886 0.013891 -0.001068 0.000000 0.000000 0.000000
# 3 -0.003456 -0.001068 0.009713 0.000000 0.000000 0.000000
# 4 0.000000 0.000000 0.000000 0.013414 0.000000 0.000000
# 5 0.000000 0.000000 0.000000 0.000000 0.020863 0.000000
# 6 0.000000 0.000000 0.000000 0.000000 0.000000 -0.000821
#
#
# Mechanical properties :
#
#
# Convention : Reuss Voigt Hill
#
# Bulk Modulus (GPa) = 31.51048 35.70575 33.60812
# Shear Modulus (GPa) = 45.70077 -206.48760 -80.39341
#
# Velocity S-wave (km/s) = 5.03194 -10.69599 -6.67397
# Velocity P-wave (km/s) = 7.15674 11.52199 6.38503
#
# Compressibility (1/GPa) = 0.03173547
#
# Stress axis : x y z
#
# Youngs Moduli (GPa) = 40.07899 71.99020 102.95511
#
# Poissons Ratio (x) = 0.27974 0.35580
# Poissons Ratio (y) = 0.15574 0.10994
# Poissons Ratio (z) = 0.13851 0.07688
#
# Static dielectric constant tensor:
#      x y z
#    x 1.685110 0.000000 0.000000 
#    y 0.000000 1.610710 0.000000 
#    z 0.000000 0.000000 2.644800 
# 
# From -- ./inp_files/419.got.cif
#   From: 2010.05.17/outbox.cif.g08.bks.cpg/sg20_1_cif.got.tgz:419.got - 2010.06.03 22:52:26.
