data_PCOD9317479
_publ_section_title
;
Structure prediction by ZEFSAII (Michael W. Deem and Ramdas Pophale) SiO2 
 PCOD9317479
Probable space group: C 2 2 21
;
_chemical_formula_sum "Si O2"
_cell_formula_units_Z 40
_cell_length_a 27.991323
_cell_length_b 8.854352
_cell_length_c 7.932556
_cell_angle_alpha 90.000000
_cell_angle_beta 90.000000
_cell_angle_gamma 90.000000
_cell_volume 1966.044554
_symmetry_space_group_name_H-M "C 2 2 21"
_symmetry_group_IT_number 20
_symmetry_cell_setting 'orthorhombic'
loop_
_space_group_symop_operation_xyz
x,y,z
-x,-y,1/2+z
x,-y,-z
-x,y,1/2-z
1/2+x,1/2+y,z
1/2-x,1/2-y,1/2+z
1/2+x,1/2-y,-z
1/2-x,1/2+y,1/2-z
loop_
_atom_site_type_symbol
_atom_site_label
_atom_site_fract_x
_atom_site_fract_y
_atom_site_fract_z
Si Si1 0.303092 0.396256 0.745670
Si Si2 0.781391 0.227045 0.619770
Si Si3 0.142427 0.604845 0.340003
Si Si4 0.097388 0.852573 0.578937
Si Si5 0.947241 0.563715 0.811022
O O1 0.270664 0.302439 0.875790
O O2 0.283571 0.564887 0.713528
O O3 0.298664 0.307703 0.568763
O O4 0.357126 0.401176 0.810083
O O5 0.815430 0.342214 0.720165
O O6 0.158228 0.500000 0.500000
O O7 0.118765 0.750984 0.427372
O O8 0.100388 0.516529 0.239081
O O9 0.063187 0.741670 0.682317
O O10 0.073775 0.000000 0.500000
O O11 0.000000 0.528670 0.750000
O O12 0.946170 0.500000 0.000000
#
# Coordination Sequence:
#
# PCOD9317479 Si02
#       5
#     8   8   8   8   8
#     4  11  25  37  59  87 127 165 214 255 307 366
#     4  11  24  39  57  90 124 171 212 255 306 367
#     4   9  20  38  62  84 121 159 204 249 308 365
#     4  10  19  39  61  84 119 162 199 255 307 364
#     4   9  21  39  64  91 116 153 198 251 311 376
#
# _framework density 20.345417999999999
#
# number of rings (size 3 to 8) (size 9 to 14) (size 15 to 20)
#    0.000    2.400    2.000    1.200    8.400    1.600 
#    0.000    4.000    4.400    0.000    0.000    0.000 
#    0.000    0.000    0.000    0.000    0.000    0.000 
#
# Total GULP energy -111655.385215 kJ/mol
# GULP energy per Si atom -5582.769261 kJ/mol
# Density = 2.029911 g / cm^3
# Si number density = 20.345418 Si / 1000 Ang^3
#
#
#
# Elastic Constant Matrix: (Units=GPa)
#
#
# Indices 1 2 3 4 5 6 
#
# 1 70.2563 17.1370 18.1329 0.0000 0.0000 0.0000
# 2 17.1370 93.2193 21.6022 0.0000 0.0000 0.0000
# 3 18.1329 21.6022 42.9038 0.0000 0.0000 0.0000
# 4 0.0000 0.0000 0.0000 23.6504 0.0000 0.0000
# 5 0.0000 0.0000 0.0000 0.0000 32.1452 0.0000
# 6 0.0000 0.0000 0.0000 0.0000 0.0000-5957.1249
#
#
#
# Elastic Compliance Matrix: (Units=1/GPa)
#
#
# Indices 1 2 3 4 5 6 
#
# 1 0.016178 -0.001573 -0.006045 0.000000 0.000000 0.000000
# 2 -0.001573 0.012297 -0.005527 0.000000 0.000000 0.000000
# 3 -0.006045 -0.005527 0.028646 0.000000 0.000000 0.000000
# 4 0.000000 0.000000 0.000000 0.042283 0.000000 0.000000
# 5 0.000000 0.000000 0.000000 0.000000 0.031109 0.000000
# 6 0.000000 0.000000 0.000000 0.000000 0.000000 -0.000168
#
#
# Mechanical properties :
#
#
# Convention : Reuss Voigt Hill
#
# Bulk Modulus (GPa) = 32.43577 35.56931 34.00254
# Shear Modulus (GPa) = 29.95597 -1170.29872 -570.17138
#
# Velocity S-wave (km/s) = 3.84131 -24.00966 -16.75870
# Velocity P-wave (km/s) = 5.97088 27.40616 18.91357
#
# Compressibility (1/GPa) = 0.03083016
#
# Stress axis : x y z
#
# Youngs Moduli (GPa) = 61.81397 81.31817 34.90914
#
# Poissons Ratio (x) = 0.12792 0.21103
# Poissons Ratio (y) = 0.09724 0.19294
# Poissons Ratio (z) = 0.37368 0.44944
#
# Static dielectric constant tensor:
#      x y z
#    x 1.752640 0.000000 0.000000 
#    y 0.000000 1.756720 0.000000 
#    z 0.000000 0.000000 1.899100 
# 
# From -- ./inp_files/6340.got.cif
#   From: 2010.05.17/outbox.cif.g08.bks.cpg/sg20_4_cif.got.tgz:6340.got - 2010.06.03 22:52:26.
