data_PCOD9317950
_publ_section_title
;
Structure prediction by ZEFSAII (Michael W. Deem and Ramdas Pophale) SiO2 
 PCOD9317950
Probable space group: C 2 2 21
;
_chemical_formula_sum "Si O2"
_cell_formula_units_Z 48
_cell_length_a 16.251358
_cell_length_b 8.331401
_cell_length_c 18.956940
_cell_angle_alpha 90.000000
_cell_angle_beta 90.000000
_cell_angle_gamma 90.000000
_cell_volume 2566.704849
_symmetry_space_group_name_H-M "C 2 2 21"
_symmetry_group_IT_number 20
_symmetry_cell_setting 'orthorhombic'
loop_
_space_group_symop_operation_xyz
x,y,z
-x,-y,1/2+z
x,-y,-z
-x,y,1/2-z
1/2+x,1/2+y,z
1/2-x,1/2-y,1/2+z
1/2+x,1/2-y,-z
1/2-x,1/2+y,1/2-z
loop_
_atom_site_type_symbol
_atom_site_label
_atom_site_fract_x
_atom_site_fract_y
_atom_site_fract_z
Si Si1 0.846938 0.597225 0.262713
Si Si2 0.500000 0.705812 0.750000
Si Si3 0.596328 0.839672 0.451054
Si Si4 0.531073 0.500000 0.500000
Si Si5 0.757450 0.357612 0.155561
Si Si6 0.959398 0.356273 0.328306
Si Si7 0.587024 0.490485 0.866822
O O1 0.922253 0.689559 0.223663
O O2 0.803799 0.475874 0.209542
O O3 0.779863 0.712396 0.298179
O O4 0.895916 0.502680 0.324069
O O5 0.541715 0.596005 0.808076
O O6 0.578711 0.670898 0.491841
O O7 0.679147 0.814263 0.405754
O O8 0.525287 0.867019 0.391421
O O9 0.600420 0.000000 0.500000
O O10 0.471056 0.494178 0.433530
O O11 0.678192 0.444559 0.122775
O O12 0.000000 0.348191 0.250000
O O13 0.911062 0.191734 0.340715
#
# Coordination Sequence:
#
# PCOD9317950 Si02
#       7
#     8   4   8   4   8   8   8
#     4  11  22  38  65  98 128 162 216 274 336 387
#     4  10  20  36  66  88 122 168 210 260 314 404
#     4  11  26  45  67  93 136 180 225 272 341 408
#     4  10  26  44  64  90 126 180 222 260 330 420
#     4  11  24  39  63 100 132 166 214 285 339 389
#     4  11  20  42  67  94 126 170 221 267 323 404
#     4  10  23  40  63  93 125 164 213 268 328 391
#
# _framework density 18.70102
#
# number of rings (size 3 to 8) (size 9 to 14) (size 15 to 20)
#    0.000    1.333    3.333    1.000    8.167    1.333 
#    3.000    0.000    0.000    0.000    0.000    0.000 
#    0.000    0.000    0.000    0.000    0.000    0.000 
#
# Total GULP energy -133928.109224 kJ/mol
# GULP energy per Si atom -5580.337884 kJ/mol
# Density = 1.865846 g / cm^3
# Si number density = 18.701020 Si / 1000 Ang^3
#
#
#
# Elastic Constant Matrix: (Units=GPa)
#
#
# Indices 1 2 3 4 5 6 
#
# 1 102.1458 34.5990 14.5310 0.0000 0.0000 0.0000
# 2 34.5990 58.1298 2.7939 0.0000 0.0000 0.0000
# 3 14.5310 2.7939 31.7882 0.0000 0.0000 0.0000
# 4 0.0000 0.0000 0.0000 24.1884 0.0000 0.0000
# 5 0.0000 0.0000 0.0000 0.0000 26.0562 0.0000
# 6 0.0000 0.0000 0.0000 0.0000 0.0000 34.3670
#
#
#
# Elastic Compliance Matrix: (Units=1/GPa)
#
#
# Indices 1 2 3 4 5 6 
#
# 1 0.013103 -0.007543 -0.005326 0.000000 0.000000 0.000000
# 2 -0.007543 0.021618 0.001548 0.000000 0.000000 0.000000
# 3 -0.005326 0.001548 0.033757 0.000000 0.000000 0.000000
# 4 0.000000 0.000000 0.000000 0.041342 0.000000 0.000000
# 5 0.000000 0.000000 0.000000 0.000000 0.038379 0.000000
# 6 0.000000 0.000000 0.000000 0.000000 0.000000 0.029098
#
#
# Mechanical properties :
#
#
# Convention : Reuss Voigt Hill
#
# Bulk Modulus (GPa) = 21.81746 32.87908 27.34827
# Shear Modulus (GPa) = 23.23240 26.26497 24.74869
#
# Velocity S-wave (km/s) = 3.52846 3.75169 3.64179
# Velocity P-wave (km/s) = 5.31901 6.03212 5.68675
#
# Compressibility (1/GPa) = 0.04583486
#
# Stress axis : x y z
#
# Youngs Moduli (GPa) = 76.32124 46.25801 29.62349
#
# Poissons Ratio (x) = 0.34891 0.15779
# Poissons Ratio (y) = 0.57566 -0.04585
# Poissons Ratio (z) = 0.40652 -0.07160
#
# Static dielectric constant tensor:
#      x y z
#    x 1.641660 0.000000 0.000000 
#    y 0.000000 1.703950 0.000000 
#    z 0.000000 0.000000 1.606580 
# 
# From -- ./inp_files/24862.got.cif
#   From: 2010.05.17/outbox.cif.g08.bks.cpg/sg20_13_cif.got.tgz:24862.got - 2010.06.03 22:52:26.
