data_PCOD9317248
_publ_section_title
;
Structure prediction by ZEFSAII (Michael W. Deem and Ramdas Pophale) SiO2 
 PCOD9317248
Probable space group: C 2 2 21
;
_chemical_formula_sum "Si O2"
_cell_formula_units_Z 56
_cell_length_a 15.208059
_cell_length_b 21.373373
_cell_length_c 9.116870
_cell_angle_alpha 90.000000
_cell_angle_beta 90.000000
_cell_angle_gamma 90.000000
_cell_volume 2963.415962
_symmetry_space_group_name_H-M "C 2 2 21"
_symmetry_group_IT_number 20
_symmetry_cell_setting 'orthorhombic'
loop_
_space_group_symop_operation_xyz
x,y,z
-x,-y,1/2+z
x,-y,-z
-x,y,1/2-z
1/2+x,1/2+y,z
1/2-x,1/2-y,1/2+z
1/2+x,1/2-y,-z
1/2-x,1/2+y,1/2-z
loop_
_atom_site_type_symbol
_atom_site_label
_atom_site_fract_x
_atom_site_fract_y
_atom_site_fract_z
Si Si1 0.866361 0.760862 0.969570
Si Si2 0.592866 0.807515 0.199444
Si Si3 0.228334 0.594537 0.668758
Si Si4 0.900114 0.149938 0.776060
Si Si5 0.156407 0.641840 0.366632
Si Si6 0.832355 0.729266 0.400940
Si Si7 0.412582 0.990669 0.829694
O O1 0.896228 0.754187 0.801843
O O2 0.760632 0.755069 0.975620
O O3 0.892188 0.821969 0.059606
O O4 0.897753 0.696848 0.050260
O O5 0.500000 0.835365 0.250000
O O6 0.672358 0.852110 0.247872
O O7 0.603749 0.794255 0.028804
O O8 0.326592 0.599466 0.730567
O O9 0.218578 0.612134 0.494999
O O10 0.175195 0.530928 0.700646
O O11 0.874457 0.210335 0.676085
O O12 0.000000 0.130398 0.750000
O O13 0.190708 0.678438 0.224061
O O14 0.103230 0.582711 0.306524
O O15 0.500000 0.012821 0.750000
O O16 0.430177 0.000000 0.000000
#
# Coordination Sequence:
#
# PCOD9317248 Si02
#       7
#     8   8   8   8   8   8   8
#     4  10  19  36  53  84 121 150 189 236 301 355
#     4  11  20  31  53  81 114 154 188 236 295 356
#     4  10  20  38  54  79 118 154 199 241 294 342
#     4  11  21  35  57  83 114 155 200 242 291 359
#     4   9  20  34  58  82 113 156 189 232 294 358
#     4  11  19  35  57  83 121 155 186 241 297 358
#     4  10  22  39  59  87 120 156 199 245 297 364
#
# _framework density 18.897112
#
# number of rings (size 3 to 8) (size 9 to 14) (size 15 to 20)
#    0.000    1.714    4.286    2.143    0.000    6.857 
#    0.000    0.000    0.000    0.000   11.143    0.000 
#    0.000    0.000    0.000    0.000    0.000    0.000 
#
# Total GULP energy -156070.672777 kJ/mol
# GULP energy per Si atom -5573.952599 kJ/mol
# Density = 1.885410 g / cm^3
# Si number density = 18.897112 Si / 1000 Ang^3
#
#
#
# Elastic Constant Matrix: (Units=GPa)
#
#
# Indices 1 2 3 4 5 6 
#
# 1 139.5157 33.6973 19.5296 0.0000 0.0000 0.0000
# 2 33.6973 67.3536 24.0126 0.0000 0.0000 0.0000
# 3 19.5296 24.0126 65.5843 0.0000 0.0000 0.0000
# 4 0.0000 0.0000 0.0000 10.7467 0.0000 0.0000
# 5 0.0000 0.0000 0.0000 0.0000 17.7684 0.0000
# 6 0.0000 0.0000 0.0000 0.0000 0.0000 -27.7478
#
#
#
# Elastic Compliance Matrix: (Units=1/GPa)
#
#
# Indices 1 2 3 4 5 6 
#
# 1 0.008219 -0.003726 -0.001083 0.000000 0.000000 0.000000
# 2 -0.003726 0.018765 -0.005761 0.000000 0.000000 0.000000
# 3 -0.001083 -0.005761 0.017679 0.000000 0.000000 0.000000
# 4 0.000000 0.000000 0.000000 0.093052 0.000000 0.000000
# 5 0.000000 0.000000 0.000000 0.000000 0.056280 0.000000
# 6 0.000000 0.000000 0.000000 0.000000 0.000000 -0.036039
#
#
# Mechanical properties :
#
#
# Convention : Reuss Voigt Hill
#
# Bulk Modulus (GPa) = 42.51120 47.43693 44.97406
# Shear Modulus (GPa) = 26.74685 13.16772 19.95728
#
# Velocity S-wave (km/s) = 3.76625 2.64258 3.25330
# Velocity P-wave (km/s) = 6.43878 5.87096 6.16142
#
# Compressibility (1/GPa) = 0.02352321
#
# Stress axis : x y z
#
# Youngs Moduli (GPa) = 121.66615 53.29077 56.56291
#
# Poissons Ratio (x) = 0.19855 0.06128
# Poissons Ratio (y) = 0.45331 0.32586
# Poissons Ratio (z) = 0.13181 0.30701
#
# Static dielectric constant tensor:
#      x y z
#    x 1.694990 0.000000 0.000000 
#    y 0.000000 1.704820 0.000000 
#    z 0.000000 0.000000 1.767840 
# 
# From -- ./inp_files/8702.got.cif
#   From: 2010.05.17/outbox.cif.g08.bks.cpg/sg20_5_cif.got.tgz:8702.got - 2010.06.03 22:52:26.
