data_PCOD9317516
_publ_section_title
;
Structure prediction by ZEFSAII (Michael W. Deem and Ramdas Pophale) SiO2 
 PCOD9317516
Probable space group: C 2 2 21
;
_chemical_formula_sum "Si O2"
_cell_formula_units_Z 32
_cell_length_a 11.732289
_cell_length_b 8.916278
_cell_length_c 14.001729
_cell_angle_alpha 90.000000
_cell_angle_beta 90.000000
_cell_angle_gamma 90.000000
_cell_volume 1464.697772
_symmetry_space_group_name_H-M "C 2 2 21"
_symmetry_group_IT_number 20
_symmetry_cell_setting 'orthorhombic'
loop_
_space_group_symop_operation_xyz
x,y,z
-x,-y,1/2+z
x,-y,-z
-x,y,1/2-z
1/2+x,1/2+y,z
1/2-x,1/2-y,1/2+z
1/2+x,1/2-y,-z
1/2-x,1/2+y,1/2-z
loop_
_atom_site_type_symbol
_atom_site_label
_atom_site_fract_x
_atom_site_fract_y
_atom_site_fract_z
Si Si1 0.442835 0.853365 0.145485
Si Si2 0.797059 0.375093 0.866829
Si Si3 0.595248 0.326329 0.001859
Si Si4 0.695904 0.674978 0.806368
O O1 0.500000 0.862044 0.250000
O O2 0.322115 0.770595 0.162013
O O3 0.404975 0.980007 0.886533
O O4 0.520230 0.773054 0.067976
O O5 0.713475 0.494958 0.811948
O O6 0.827150 0.240533 0.796945
O O7 0.724063 0.327636 0.958052
O O8 0.607407 0.279744 0.111866
O O9 0.556303 0.500000 0.000000
#
# Coordination Sequence:
#
# PCOD9317516 Si02
#       4
#     8   8   8   8
#     4  10  20  39  68  90 128 180 210 267 337 369
#     4   9  19  39  63  93 130 172 214 270 320 384
#     4  10  19  40  65  91 137 168 221 270 318 391
#     4   9  20  38  65  93 128 175 214 270 322 382
#
# _framework density 21.847511000000001
#
# number of rings (size 3 to 8) (size 9 to 14) (size 15 to 20)
#    1.500    1.000    2.500    0.000    0.000    0.000 
#    9.000    8.750    5.500    0.000    0.000    0.000 
#    0.000    0.000    0.000    0.000    0.000    0.000 
#
# Total GULP energy -89202.930196 kJ/mol
# GULP energy per Si atom -5575.183137 kJ/mol
# Density = 2.179778 g / cm^3
# Si number density = 21.847511 Si / 1000 Ang^3
#
#
#
# Elastic Constant Matrix: (Units=GPa)
#
#
# Indices 1 2 3 4 5 6 
#
# 1 64.4526 11.5792 2.3126 0.0000 0.0000 0.0000
# 2 11.5792 33.2137 21.0166 0.0000 0.0000 0.0000
# 3 2.3126 21.0166 47.0892 0.0000 0.0000 0.0000
# 4 0.0000 0.0000 0.0000 35.9290 0.0000 0.0000
# 5 0.0000 0.0000 0.0000 0.0000 35.9198 0.0000
# 6 0.0000 0.0000 0.0000 0.0000 0.0000 19.4290
#
#
#
# Elastic Compliance Matrix: (Units=1/GPa)
#
#
# Indices 1 2 3 4 5 6 
#
# 1 0.016758 -0.007416 0.002487 0.000000 0.000000 0.000000
# 2 -0.007416 0.045239 -0.019827 0.000000 0.000000 0.000000
# 3 0.002487 -0.019827 0.029963 0.000000 0.000000 0.000000
# 4 0.000000 0.000000 0.000000 0.027833 0.000000 0.000000
# 5 0.000000 0.000000 0.000000 0.000000 0.027840 0.000000
# 6 0.000000 0.000000 0.000000 0.000000 0.000000 0.051470
#
#
# Mechanical properties :
#
#
# Convention : Reuss Voigt Hill
#
# Bulk Modulus (GPa) = 23.55773 23.84138 23.69955
# Shear Modulus (GPa) = 19.02847 25.57870 22.30358
#
# Velocity S-wave (km/s) = 2.95442 3.42538 3.19858
# Velocity P-wave (km/s) = 4.73754 5.15564 4.95101
#
# Compressibility (1/GPa) = 0.04244892
#
# Stress axis : x y z
#
# Youngs Moduli (GPa) = 59.67168 22.10469 33.37439
#
# Poissons Ratio (x) = 0.16393 -0.08300
# Poissons Ratio (y) = 0.44253 0.66170
# Poissons Ratio (z) = -0.14840 0.43826
#
# Static dielectric constant tensor:
#      x y z
#    x 1.828820 0.000000 0.000000 
#    y 0.000000 1.795210 0.000000 
#    z 0.000000 0.000000 1.782280 
# 
# From -- ./inp_files/14647.got.cif
#   From: 2010.05.17/outbox.cif.g08.bks.cpg/sg20_8_cif.got.tgz:14647.got - 2010.06.03 22:52:26.
