data_PCOD9317244
_publ_section_title
;
Structure prediction by ZEFSAII (Michael W. Deem and Ramdas Pophale) SiO2 
 PCOD9317244
Probable space group: C 2 2 21
;
_chemical_formula_sum "Si O2"
_cell_formula_units_Z 56
_cell_length_a 25.099910
_cell_length_b 10.231965
_cell_length_c 8.080994
_cell_angle_alpha 90.000000
_cell_angle_beta 90.000000
_cell_angle_gamma 90.000000
_cell_volume 2075.372198
_symmetry_space_group_name_H-M "C 2 2 21"
_symmetry_group_IT_number 20
_symmetry_cell_setting 'orthorhombic'
loop_
_space_group_symop_operation_xyz
x,y,z
-x,-y,1/2+z
x,-y,-z
-x,y,1/2-z
1/2+x,1/2+y,z
1/2-x,1/2-y,1/2+z
1/2+x,1/2-y,-z
1/2-x,1/2+y,1/2-z
loop_
_atom_site_type_symbol
_atom_site_label
_atom_site_fract_x
_atom_site_fract_y
_atom_site_fract_z
Si Si1 0.565382 0.228158 0.893993
Si Si2 0.955362 0.714600 0.993643
Si Si3 0.584364 0.500000 0.000000
Si Si4 0.266156 0.105455 0.811398
Si Si5 0.344785 0.840196 0.891784
Si Si6 0.082655 0.000000 0.500000
Si Si7 0.816558 0.319740 0.536039
Si Si8 0.835914 0.051665 0.764351
O O1 0.516798 0.172615 0.005109
O O2 0.558635 0.197481 0.700853
O O3 0.554487 0.385796 0.906444
O O4 0.623645 0.192135 0.960310
O O5 0.908060 0.643307 0.090538
O O6 0.949108 0.869184 0.045258
O O7 0.625299 0.579861 0.886895
O O8 0.284186 0.137013 0.626251
O O9 0.220873 0.991727 0.783671
O O10 0.313486 0.115666 0.943712
O O11 0.222131 0.204275 0.894584
O O12 0.325990 0.895273 0.712859
O O13 0.334102 0.684046 0.871826
O O14 0.125006 0.045151 0.360662
#
# Coordination Sequence:
#
# PCOD9317244 Si02
#       8
#     8   8   4   8   8   4   8   8
#     4  11  21  33  49  73 102 147 182 220 256 302
#     4  10  21  34  50  69 106 145 182 222 252 302
#     4  12  19  34  44  70 106 136 193 212 252 304
#     4  11  19  34  52  73  94 126 184 229 272 313
#     4  10  20  35  52  74  95 133 181 228 270 306
#     4  10  19  36  44  68 106 144 189 210 256 304
#     4  11  20  33  52  73  95 130 180 233 270 309
#     4  10  21  31  51  71  96 139 176 226 268 305
#
# _framework density 26.98311
#
# number of rings (size 3 to 8) (size 9 to 14) (size 15 to 20)
#    0.000    1.429    8.571    0.429    0.000    0.571 
#    2.571    0.000    0.000    0.000    0.000    0.000 
#    0.000    0.000    0.000    5.143    0.571    0.286 
#
# Total GULP energy -156024.159818 kJ/mol
# GULP energy per Si atom -5572.291422 kJ/mol
# Density = 2.692170 g / cm^3
# Si number density = 26.983110 Si / 1000 Ang^3
#
#
#
# Elastic Constant Matrix: (Units=GPa)
#
#
# Indices 1 2 3 4 5 6 
#
# 1 189.2219 5.4603 34.6745 0.0000 0.0000 0.0000
# 2 5.4603 22.6431 11.8838 0.0000 0.0000 0.0000
# 3 34.6745 11.8838 137.9692 0.0000 0.0000 0.0000
# 4 0.0000 0.0000 0.0000 9.4430 0.0000 0.0000
# 5 0.0000 0.0000 0.0000 0.0000 47.0546 0.0000
# 6 0.0000 0.0000 0.0000 0.0000 0.0000 23.6991
#
#
#
# Elastic Compliance Matrix: (Units=1/GPa)
#
#
# Indices 1 2 3 4 5 6 
#
# 1 0.005549 -0.000635 -0.001340 0.000000 0.000000 0.000000
# 2 -0.000635 0.046327 -0.003831 0.000000 0.000000 0.000000
# 3 -0.001340 -0.003831 0.007915 0.000000 0.000000 0.000000
# 4 0.000000 0.000000 0.000000 0.105899 0.000000 0.000000
# 5 0.000000 0.000000 0.000000 0.000000 0.021252 0.000000
# 6 0.000000 0.000000 0.000000 0.000000 0.000000 0.042196
#
#
# Mechanical properties :
#
#
# Convention : Reuss Voigt Hill
#
# Bulk Modulus (GPa) = 20.75571 50.43018 35.59294
# Shear Modulus (GPa) = 19.46981 35.89370 27.68176
#
# Velocity S-wave (km/s) = 2.68909 3.65119 3.20643
# Velocity P-wave (km/s) = 4.16539 6.04194 5.18919
#
# Compressibility (1/GPa) = 0.04817952
#
# Stress axis : x y z
#
# Youngs Moduli (GPa) = 180.22439 21.58563 126.34758
#
# Poissons Ratio (x) = 0.01370 0.16928
# Poissons Ratio (y) = 0.11442 0.48401
# Poissons Ratio (z) = 0.24147 0.08269
#
# Static dielectric constant tensor:
#      x y z
#    x 2.244000 0.000000 0.000000 
#    y 0.000000 2.308220 0.000000 
#    z 0.000000 0.000000 2.783820 
# 
# From -- ./inp_files/10329.got.cif
#   From: 2010.05.17/outbox.cif.g08.bks.cpg/sg20_6_cif.got.tgz:10329.got - 2010.06.03 22:52:26.
