data_PCOD9317985
_publ_section_title
;
Structure prediction by ZEFSAII (Michael W. Deem and Ramdas Pophale) SiO2 
 PCOD9317985
Probable space group: C 2 2 21
;
_chemical_formula_sum "Si O2"
_cell_formula_units_Z 48
_cell_length_a 8.967478
_cell_length_b 7.099400
_cell_length_c 28.526020
_cell_angle_alpha 90.000000
_cell_angle_beta 90.000000
_cell_angle_gamma 90.000000
_cell_volume 1816.072359
_symmetry_space_group_name_H-M "C 2 2 21"
_symmetry_group_IT_number 20
_symmetry_cell_setting 'orthorhombic'
loop_
_space_group_symop_operation_xyz
x,y,z
-x,-y,1/2+z
x,-y,-z
-x,y,1/2-z
1/2+x,1/2+y,z
1/2-x,1/2-y,1/2+z
1/2+x,1/2-y,-z
1/2-x,1/2+y,1/2-z
loop_
_atom_site_type_symbol
_atom_site_label
_atom_site_fract_x
_atom_site_fract_y
_atom_site_fract_z
Si Si1 0.866311 0.748916 0.955651
Si Si2 0.822885 0.792805 0.366407
Si Si3 0.078423 0.367099 0.297266
Si Si4 0.727610 0.177776 0.950436
Si Si5 0.559284 0.678722 0.700007
Si Si6 0.674829 0.135391 0.855233
O O1 0.773422 0.656832 0.912256
O O2 0.043773 0.693921 0.955448
O O3 0.817300 0.974218 0.951761
O O4 0.799821 0.707325 0.007210
O O5 0.739396 0.814229 0.315892
O O6 0.854734 0.572637 0.373927
O O7 0.977589 0.879479 0.348585
O O8 0.065702 0.593597 0.298008
O O9 0.000000 0.302447 0.250000
O O10 0.979401 0.282528 0.339005
O O11 0.748629 0.247865 0.897231
O O12 0.500000 0.612386 0.750000
O O13 0.727399 0.616191 0.691166
#
# Coordination Sequence:
#
# PCOD9317985 Si02
#       6
#     8   8   8   8   8   8
#     4  10  22  43  69  97 137 178 228 289 352 421
#     4  10  21  38  60  87 124 166 220 269 340 408
#     4  10  20  37  58  86 123 165 213 277 335 404
#     4  10  22  43  68  98 136 178 229 288 353 421
#     4  10  22  37  57  91 127 168 221 280 339 407
#     4  10  21  38  60  85 127 165 219 271 339 409
#
# _framework density 26.430665000000001
#
# number of rings (size 3 to 8) (size 9 to 14) (size 15 to 20)
#    0.000    2.000    1.667    1.000    2.333    2.000 
#    0.000    3.333    0.000    0.000    0.000    0.000 
#    0.000    0.000    0.000    0.000    0.000    0.000 
#
# Total GULP energy -133712.811896 kJ/mol
# GULP energy per Si atom -5571.367162 kJ/mol
# Density = 2.637051 g / cm^3
# Si number density = 26.430665 Si / 1000 Ang^3
#
#
#
# Elastic Constant Matrix: (Units=GPa)
#
#
# Indices 1 2 3 4 5 6 
#
# 1 119.0001 -15.3359 18.0049 0.0000 0.0000 0.0000
# 2 -15.3359 114.0737 -38.8335 0.0000 0.0000 0.0000
# 3 18.0049 -38.8335 103.8880 0.0000 0.0000 0.0000
# 4 0.0000 0.0000 0.0000 1.3321 0.0000 0.0000
# 5 0.0000 0.0000 0.0000 0.0000 60.1839 0.0000
# 6 0.0000 0.0000 0.0000 0.0000 0.0000 -4.4733
#
#
#
# Elastic Compliance Matrix: (Units=1/GPa)
#
#
# Indices 1 2 3 4 5 6 
#
# 1 0.008685 0.000751 -0.001225 0.000000 0.000000 0.000000
# 2 0.000751 0.010109 0.003649 0.000000 0.000000 0.000000
# 3 -0.001225 0.003649 0.011202 0.000000 0.000000 0.000000
# 4 0.000000 0.000000 0.000000 0.750717 0.000000 0.000000
# 5 0.000000 0.000000 0.000000 0.000000 0.016616 0.000000
# 6 0.000000 0.000000 0.000000 0.000000 0.000000 -0.223551
#
#
# Mechanical properties :
#
#
# Convention : Reuss Voigt Hill
#
# Bulk Modulus (GPa) = 27.51303 29.40363 28.45833
# Shear Modulus (GPa) = 8.62747 36.28362 22.45555
#
# Velocity S-wave (km/s) = 1.80867 3.70913 2.91796
# Velocity P-wave (km/s) = 3.84627 5.43070 4.70565
#
# Compressibility (1/GPa) = 0.03634641
#
# Stress axis : x y z
#
# Youngs Moduli (GPa) = 115.13578 98.91857 89.27051
#
# Poissons Ratio (x) = -0.07426 0.10932
# Poissons Ratio (y) = -0.08644 -0.32573
# Poissons Ratio (z) = 0.14100 -0.36093
#
# Static dielectric constant tensor:
#      x y z
#    x 2.012240 0.000000 0.000000 
#    y 0.000000 2.103990 0.000000 
#    z 0.000000 0.000000 2.114830 
# 
# From -- ./inp_files/30962.got.cif
#   From: 2010.05.17/outbox.cif.g08.bks.cpg/sg20_16_cif.got.tgz:30962.got - 2010.06.03 22:52:26.
