data_PCOD9317635
_publ_section_title
;
Structure prediction by ZEFSAII (Michael W. Deem and Ramdas Pophale) SiO2 
 PCOD9317635
Probable space group: C 2 2 21
;
_chemical_formula_sum "Si O2"
_cell_formula_units_Z 52
_cell_length_a 18.641945
_cell_length_b 14.492811
_cell_length_c 9.986754
_cell_angle_alpha 90.000000
_cell_angle_beta 90.000000
_cell_angle_gamma 90.000000
_cell_volume 2698.163128
_symmetry_space_group_name_H-M "C 2 2 21"
_symmetry_group_IT_number 20
_symmetry_cell_setting 'orthorhombic'
loop_
_space_group_symop_operation_xyz
x,y,z
-x,-y,1/2+z
x,-y,-z
-x,y,1/2-z
1/2+x,1/2+y,z
1/2-x,1/2-y,1/2+z
1/2+x,1/2-y,-z
1/2-x,1/2+y,1/2-z
loop_
_atom_site_type_symbol
_atom_site_label
_atom_site_fract_x
_atom_site_fract_y
_atom_site_fract_z
Si Si1 0.642812 0.613341 0.268241
Si Si2 0.938649 0.256195 0.641103
Si Si3 0.323056 0.500000 0.000000
Si Si4 0.224425 0.643655 0.859761
Si Si5 0.932374 0.699693 0.663695
Si Si6 0.940517 0.038119 0.637764
Si Si7 0.219879 0.715521 0.155837
O O1 0.630490 0.573989 0.418106
O O2 0.595883 0.701680 0.224171
O O3 0.625580 0.528429 0.172382
O O4 0.725116 0.644774 0.275699
O O5 0.956193 0.286038 0.489884
O O6 0.924027 0.146081 0.634438
O O7 0.863484 0.302738 0.680513
O O8 0.000000 0.272770 0.750000
O O9 0.270194 0.445293 0.099786
O O10 0.138926 0.635871 0.836804
O O11 0.258313 0.690063 0.728801
O O12 0.230496 0.708405 0.994673
O O13 0.000000 0.667927 0.750000
O O14 0.000000 0.023215 0.750000
O O15 0.970027 0.000000 0.500000
#
# Coordination Sequence:
#
# PCOD9317635 Si02
#       7
#     8   8   4   8   8   8   8
#     4  10  20  33  55  77 110 138 178 219 262 320
#     4  10  21  34  54  78 107 142 177 218 271 326
#     4  10  20  34  56  82 104 144 178 222 272 324
#     4   9  19  35  56  78 108 141 180 223 266 319
#     4  10  20  35  55  79 108 140 181 222 265 313
#     4  11  22  33  50  77 113 146 171 212 269 325
#     4   9  19  36  52  80 104 140 180 222 263 313
#
# _framework density 19.272369999999999
#
# number of rings (size 3 to 8) (size 9 to 14) (size 15 to 20)
#    0.000    2.154    1.538    1.385    1.077    4.923 
#    0.000    0.000    0.000    8.308    0.000    0.000 
#    0.000    0.000    0.000    0.000    0.000    0.000 
#
# Total GULP energy -144942.533967 kJ/mol
# GULP energy per Si atom -5574.712845 kJ/mol
# Density = 1.922851 g / cm^3
# Si number density = 19.272370 Si / 1000 Ang^3
#
#
#
# Elastic Constant Matrix: (Units=GPa)
#
#
# Indices 1 2 3 4 5 6 
#
# 1 88.8091 1.1258 51.5088 0.0000 0.0000 0.0000
# 2 1.1258 17.4306 4.6771 0.0000 0.0000 0.0000
# 3 51.5088 4.6771 79.8961 0.0000 0.0000 0.0000
# 4 0.0000 0.0000 0.0000 28.8311 0.0000 0.0000
# 5 0.0000 0.0000 0.0000 0.0000 26.5670 0.0000
# 6 0.0000 0.0000 0.0000 0.0000 0.0000 6.1465
#
#
#
# Elastic Compliance Matrix: (Units=1/GPa)
#
#
# Indices 1 2 3 4 5 6 
#
# 1 0.018053 0.001988 -0.011755 0.000000 0.000000 0.000000
# 2 0.001988 0.058505 -0.004707 0.000000 0.000000 0.000000
# 3 -0.011755 -0.004707 0.020370 0.000000 0.000000 0.000000
# 4 0.000000 0.000000 0.000000 0.034685 0.000000 0.000000
# 5 0.000000 0.000000 0.000000 0.000000 0.037641 0.000000
# 6 0.000000 0.000000 0.000000 0.000000 0.000000 0.162693
#
#
# Mechanical properties :
#
#
# Convention : Reuss Voigt Hill
#
# Bulk Modulus (GPa) = 14.71001 33.41770 24.06385
# Shear Modulus (GPa) = 13.03599 20.89720 16.96659
#
# Velocity S-wave (km/s) = 2.60361 3.29646 2.97030
# Velocity P-wave (km/s) = 4.08505 5.64501 4.92716
#
# Compressibility (1/GPa) = 0.06798091
#
# Stress axis : x y z
#
# Youngs Moduli (GPa) = 55.39339 17.09261 49.09149
#
# Poissons Ratio (x) = -0.03398 0.57707
# Poissons Ratio (y) = -0.11013 0.23106
# Poissons Ratio (z) = 0.65114 0.08045
#
# Static dielectric constant tensor:
#      x y z
#    x 1.688580 0.000000 0.000000 
#    y 0.000000 1.698430 0.000000 
#    z 0.000000 0.000000 1.733500 
# 
# From -- ./inp_files/9508.got.cif
#   From: 2010.05.17/outbox.cif.g08.bks.cpg/sg20_5_cif.got.tgz:9508.got - 2010.06.03 22:52:26.
