data_PCOD9317780
_publ_section_title
;
Structure prediction by ZEFSAII (Michael W. Deem and Ramdas Pophale) SiO2 
 PCOD9317780
Probable space group: C 2 2 21
;
_chemical_formula_sum "Si O2"
_cell_formula_units_Z 60
_cell_length_a 9.030824
_cell_length_b 25.637104
_cell_length_c 11.662953
_cell_angle_alpha 90.000000
_cell_angle_beta 90.000000
_cell_angle_gamma 90.000000
_cell_volume 2700.255561
_symmetry_space_group_name_H-M "C 2 2 21"
_symmetry_group_IT_number 20
_symmetry_cell_setting 'orthorhombic'
loop_
_space_group_symop_operation_xyz
x,y,z
-x,-y,1/2+z
x,-y,-z
-x,y,1/2-z
1/2+x,1/2+y,z
1/2-x,1/2-y,1/2+z
1/2+x,1/2-y,-z
1/2-x,1/2+y,1/2-z
loop_
_atom_site_type_symbol
_atom_site_label
_atom_site_fract_x
_atom_site_fract_y
_atom_site_fract_z
Si Si1 0.500000 0.210343 0.250000
Si Si2 0.151268 0.551926 0.326010
Si Si3 0.726400 0.604573 0.969044
Si Si4 0.110796 0.098711 0.534146
Si Si5 0.774908 0.852314 0.799396
Si Si6 0.180604 0.051121 0.747473
Si Si7 0.626688 0.710428 0.085784
Si Si8 0.361386 0.710824 0.928967
O O1 0.384597 0.173824 0.315014
O O2 0.573470 0.247998 0.340980
O O3 0.153209 0.570293 0.460059
O O4 0.255583 0.597890 0.280670
O O5 0.237606 0.498949 0.298885
O O6 0.000000 0.552514 0.250000
O O7 0.558442 0.582147 0.989505
O O8 0.738747 0.596766 0.832324
O O9 0.710124 0.665108 0.009572
O O10 0.173300 0.120800 0.416009
O O11 0.204652 0.059089 0.611010
O O12 0.114155 0.151810 0.610821
O O13 0.854267 0.810685 0.714746
O O14 0.000000 0.047784 0.750000
O O15 0.458023 0.713759 0.044616
O O16 0.697721 0.766546 0.059588
#
# Coordination Sequence:
#
# PCOD9317780 Si02
#       8
#     4   8   8   8   8   8   8   8
#     4  10  20  36  64  90 132 170 208 260 322 396
#     4  11  23  42  65  93 126 170 214 269 338 403
#     4   9  21  41  67  91 128 168 213 275 330 387
#     4  10  22  39  65  95 129 166 221 273 319 392
#     4  10  21  40  61  93 126 163 217 267 320 390
#     4  10  23  43  66  95 126 168 219 271 333 389
#     4   9  20  36  62  90 124 167 207 262 323 373
#     4  10  20  35  59  92 121 165 204 255 313 382
#
# _framework density 22.220117999999999
#
# number of rings (size 3 to 8) (size 9 to 14) (size 15 to 20)
#    0.000    2.133    0.667    1.200    6.533    4.800 
#    4.800    0.000    2.933    0.000    0.000    0.000 
#    0.000    0.000    0.000    0.000    0.000    0.000 
#
# Total GULP energy -167012.462432 kJ/mol
# GULP energy per Si atom -5567.082081 kJ/mol
# Density = 2.216954 g / cm^3
# Si number density = 22.220118 Si / 1000 Ang^3
#
#
#
# Elastic Constant Matrix: (Units=GPa)
#
#
# Indices 1 2 3 4 5 6 
#
# 1 34.5200 -5.4505 20.5563 0.0000 0.0000 0.0000
# 2 -5.4505 41.0646 2.8186 0.0000 0.0000 0.0000
# 3 20.5563 2.8186 110.6614 0.0000 0.0000 0.0000
# 4 0.0000 0.0000 0.0000 19.7373 0.0000 0.0000
# 5 0.0000 0.0000 0.0000 0.0000 24.2403 0.0000
# 6 0.0000 0.0000 0.0000 0.0000 0.0000 2.8836
#
#
#
# Elastic Compliance Matrix: (Units=1/GPa)
#
#
# Indices 1 2 3 4 5 6 
#
# 1 0.033522 0.004885 -0.006351 0.000000 0.000000 0.000000
# 2 0.004885 0.025106 -0.001547 0.000000 0.000000 0.000000
# 3 -0.006351 -0.001547 0.010256 0.000000 0.000000 0.000000
# 4 0.000000 0.000000 0.000000 0.050665 0.000000 0.000000
# 5 0.000000 0.000000 0.000000 0.000000 0.041254 0.000000
# 6 0.000000 0.000000 0.000000 0.000000 0.000000 0.346784
#
#
# Mechanical properties :
#
#
# Convention : Reuss Voigt Hill
#
# Bulk Modulus (GPa) = 15.90877 24.67719 20.29298
# Shear Modulus (GPa) = 9.35338 20.59370 14.97354
#
# Velocity S-wave (km/s) = 2.05391 3.04765 2.59872
# Velocity P-wave (km/s) = 3.57770 4.84914 4.26110
#
# Compressibility (1/GPa) = 0.06285843
#
# Stress axis : x y z
#
# Youngs Moduli (GPa) = 29.83089 39.83036 97.50568
#
# Poissons Ratio (x) = -0.19459 0.61930
# Poissons Ratio (y) = -0.14573 0.15084
# Poissons Ratio (z) = 0.18947 0.06162
#
# Static dielectric constant tensor:
#      x y z
#    x 1.957090 0.000000 0.000000 
#    y 0.000000 1.811430 0.000000 
#    z 0.000000 0.000000 1.983300 
# 
# From -- ./inp_files/13354.got.cif
#   From: 2010.05.17/outbox.cif.g08.bks.cpg/sg20_7_cif.got.tgz:13354.got - 2010.06.03 22:52:26.
