data_PCOD9317504
_publ_section_title
;
Structure prediction by ZEFSAII (Michael W. Deem and Ramdas Pophale) SiO2 
 PCOD9317504
Probable space group: C 2 2 21
;
_chemical_formula_sum "Si O2"
_cell_formula_units_Z 40
_cell_length_a 7.582578
_cell_length_b 18.913383
_cell_length_c 11.778023
_cell_angle_alpha 90.000000
_cell_angle_beta 90.000000
_cell_angle_gamma 90.000000
_cell_volume 1689.112212
_symmetry_space_group_name_H-M "C 2 2 21"
_symmetry_group_IT_number 20
_symmetry_cell_setting 'orthorhombic'
loop_
_space_group_symop_operation_xyz
x,y,z
-x,-y,1/2+z
x,-y,-z
-x,y,1/2-z
1/2+x,1/2+y,z
1/2-x,1/2-y,1/2+z
1/2+x,1/2-y,-z
1/2-x,1/2+y,1/2-z
loop_
_atom_site_type_symbol
_atom_site_label
_atom_site_fract_x
_atom_site_fract_y
_atom_site_fract_z
Si Si1 0.784201 0.543424 0.652987
Si Si2 0.684612 0.608242 0.296701
Si Si3 0.740952 0.673204 0.505820
Si Si4 0.198991 0.561313 0.591176
Si Si5 0.352777 0.824115 0.923076
O O1 0.763077 0.459385 0.637509
O O2 0.693597 0.604029 0.578803
O O3 0.725291 0.554508 0.783392
O O4 0.990277 0.556273 0.622729
O O5 0.500000 0.582828 0.250000
O O6 0.637814 0.669387 0.386881
O O7 0.806072 0.636064 0.194130
O O8 0.707196 0.743400 0.576564
O O9 0.941402 0.672575 0.457152
O O10 0.241026 0.500000 0.500000
O O11 0.238988 0.633606 0.526215
#
# Coordination Sequence:
#
# PCOD9317504 Si02
#       5
#     8   8   8   8   8
#     4  10  22  41  69  98 131 176 229 287 340 413
#     4  12  25  45  68  99 140 182 233 289 348 412
#     4  11  25  45  70 102 140 182 231 287 352 424
#     4  10  19  39  71  98 129 173 228 274 347 418
#     4  11  24  44  69 100 138 185 224 287 351 422
#
# _framework density 23.681076999999998
#
# number of rings (size 3 to 8) (size 9 to 14) (size 15 to 20)
#    0.000    1.200    2.000    4.800    5.600    0.000 
#   10.800    0.000    0.000    0.000    0.000    0.000 
#    0.000    0.000    0.000    0.000    0.000    0.000 
#
# Total GULP energy -111742.299308 kJ/mol
# GULP energy per Si atom -5587.114965 kJ/mol
# Density = 2.362718 g / cm^3
# Si number density = 23.681077 Si / 1000 Ang^3
#
#
#
# Elastic Constant Matrix: (Units=GPa)
#
#
# Indices 1 2 3 4 5 6 
#
# 1 47.6438 8.9992 12.3308 0.0000 0.0000 0.0000
# 2 8.9992 144.5598 76.4126 0.0000 0.0000 0.0000
# 3 12.3308 76.4126 151.1829 0.0000 0.0000 0.0000
# 4 0.0000 0.0000 0.0000 34.2535 0.0000 0.0000
# 5 0.0000 0.0000 0.0000 0.0000 20.1116 0.0000
# 6 0.0000 0.0000 0.0000 0.0000 0.0000 24.0665
#
#
#
# Elastic Compliance Matrix: (Units=1/GPa)
#
#
# Indices 1 2 3 4 5 6 
#
# 1 0.021475 -0.000561 -0.001468 0.000000 0.000000 0.000000
# 2 -0.000561 0.009454 -0.004733 0.000000 0.000000 0.000000
# 3 -0.001468 -0.004733 0.009126 0.000000 0.000000 0.000000
# 4 0.000000 0.000000 0.000000 0.029194 0.000000 0.000000
# 5 0.000000 0.000000 0.000000 0.000000 0.049723 0.000000
# 6 0.000000 0.000000 0.000000 0.000000 0.000000 0.041552
#
#
# Mechanical properties :
#
#
# Convention : Reuss Voigt Hill
#
# Bulk Modulus (GPa) = 37.69006 59.87463 48.78234
# Shear Modulus (GPa) = 27.33872 32.06258 29.70065
#
# Velocity S-wave (km/s) = 3.40141 3.68357 3.54530
# Velocity P-wave (km/s) = 5.60146 6.59016 6.11582
#
# Compressibility (1/GPa) = 0.02653219
#
# Stress axis : x y z
#
# Youngs Moduli (GPa) = 46.56579 105.77437 109.57381
#
# Poissons Ratio (x) = 0.05933 0.16086
# Poissons Ratio (y) = 0.02612 0.51857
# Poissons Ratio (z) = 0.06836 0.50059
#
# Static dielectric constant tensor:
#      x y z
#    x 1.951720 0.000000 0.000000 
#    y 0.000000 1.864200 0.000000 
#    z 0.000000 0.000000 1.902690 
# 
# From -- ./inp_files/12670.got.cif
#   From: 2010.05.17/outbox.cif.g08.bks.cpg/sg20_7_cif.got.tgz:12670.got - 2010.06.03 22:52:26.
