data_PCOD9317503
_publ_section_title
;
Structure prediction by ZEFSAII (Michael W. Deem and Ramdas Pophale) SiO2 
 PCOD9317503
Probable space group: C 2 2 21
;
_chemical_formula_sum "Si O2"
_cell_formula_units_Z 52
_cell_length_a 11.181074
_cell_length_b 13.943002
_cell_length_c 16.300131
_cell_angle_alpha 90.000000
_cell_angle_beta 90.000000
_cell_angle_gamma 90.000000
_cell_volume 2541.153538
_symmetry_space_group_name_H-M "C 2 2 21"
_symmetry_group_IT_number 20
_symmetry_cell_setting 'orthorhombic'
loop_
_space_group_symop_operation_xyz
x,y,z
-x,-y,1/2+z
x,-y,-z
-x,y,1/2-z
1/2+x,1/2+y,z
1/2-x,1/2-y,1/2+z
1/2+x,1/2-y,-z
1/2-x,1/2+y,1/2-z
loop_
_atom_site_type_symbol
_atom_site_label
_atom_site_fract_x
_atom_site_fract_y
_atom_site_fract_z
Si Si1 0.000000 0.296850 0.250000
Si Si2 0.646040 0.236286 0.330230
Si Si3 0.873734 0.321232 0.413803
Si Si4 0.131324 0.000000 0.000000
Si Si5 0.165005 0.527527 0.370751
Si Si6 0.934551 0.197605 0.556388
Si Si7 0.268354 0.811394 0.175835
Si Si8 0.546621 0.000000 0.000000
O O1 0.884806 0.250506 0.204351
O O2 0.064520 0.346425 0.172908
O O3 0.751230 0.269847 0.391479
O O4 0.655218 0.121966 0.314985
O O5 0.525326 0.261992 0.377025
O O6 0.672216 0.294898 0.247655
O O7 0.951087 0.249564 0.469684
O O8 0.870726 0.414862 0.468921
O O9 0.056321 0.915681 0.041135
O O10 0.221758 0.042140 0.068478
O O11 0.187989 0.422614 0.331201
O O12 0.045517 0.525623 0.426538
O O13 0.799540 0.213059 0.591731
#
# Coordination Sequence:
#
# PCOD9317503 Si02
#       8
#     4   8   8   4   8   8   8   4
#     4  10  22  42  64  90 136 166 216 274 330 376
#     4  11  23  41  64  99 132 172 218 275 333 393
#     4  11  23  39  65 100 129 170 220 279 323 389
#     4   9  20  37  64  88 118 179 211 252 324 404
#     4  10  19  39  68  87 122 174 219 260 330 393
#     4  11  22  40  66  94 134 173 222 268 329 402
#     4  10  23  42  63  95 134 169 219 276 326 399
#     4  11  20  39  66  96 124 167 221 276 322 386
#
# _framework density 20.463148
#
# number of rings (size 3 to 8) (size 9 to 14) (size 15 to 20)
#    0.000    1.538    4.615    0.462    2.154    0.615 
#    8.308    3.077    0.000    0.000    0.000    0.000 
#    0.000    0.000    0.000    0.000    0.000    0.000 
#
# Total GULP energy -144838.318870 kJ/mol
# GULP energy per Si atom -5570.704572 kJ/mol
# Density = 2.041657 g / cm^3
# Si number density = 20.463148 Si / 1000 Ang^3
#
#
#
# Elastic Constant Matrix: (Units=GPa)
#
#
# Indices 1 2 3 4 5 6 
#
# 1 62.7711 15.3318 19.4641 0.0000 0.0000 0.0000
# 2 15.3318 70.8105 21.5440 0.0000 0.0000 0.0000
# 3 19.4641 21.5440 89.5437 0.0000 0.0000 0.0000
# 4 0.0000 0.0000 0.0000 23.4872 0.0000 0.0000
# 5 0.0000 0.0000 0.0000 0.0000 30.8703 0.0000
# 6 0.0000 0.0000 0.0000 0.0000 0.0000 11.6595
#
#
#
# Elastic Compliance Matrix: (Units=1/GPa)
#
#
# Indices 1 2 3 4 5 6 
#
# 1 0.017602 -0.002856 -0.003139 0.000000 0.000000 0.000000
# 2 -0.002856 0.015701 -0.003157 0.000000 0.000000 0.000000
# 3 -0.003139 -0.003157 0.012610 0.000000 0.000000 0.000000
# 4 0.000000 0.000000 0.000000 0.042576 0.000000 0.000000
# 5 0.000000 0.000000 0.000000 0.000000 0.032394 0.000000
# 6 0.000000 0.000000 0.000000 0.000000 0.000000 0.085767
#
#
# Mechanical properties :
#
#
# Convention : Reuss Voigt Hill
#
# Bulk Modulus (GPa) = 36.22039 37.31166 36.76603
# Shear Modulus (GPa) = 21.35325 24.32242 22.83783
#
# Velocity S-wave (km/s) = 3.23383 3.45134 3.34435
# Velocity P-wave (km/s) = 5.62870 5.84427 5.73750
#
# Compressibility (1/GPa) = 0.02760876
#
# Stress axis : x y z
#
# Youngs Moduli (GPa) = 56.81234 63.68996 79.30489
#
# Poissons Ratio (x) = 0.18190 0.24893
# Poissons Ratio (y) = 0.16226 0.25035
# Poissons Ratio (z) = 0.17833 0.20106
#
# Static dielectric constant tensor:
#      x y z
#    x 1.755660 0.000000 0.000000 
#    y 0.000000 1.761530 0.000000 
#    z 0.000000 0.000000 1.746610 
# 
# From -- ./inp_files/24396.got.cif
#   From: 2010.05.17/outbox.cif.g08.bks.cpg/sg20_13_cif.got.tgz:24396.got - 2010.06.03 22:52:26.
