data_PCOD9317083
_publ_section_title
;
Structure prediction by ZEFSAII (Michael W. Deem and Ramdas Pophale) SiO2 
 PCOD9317083
Probable space group: C 2 2 21
;
_chemical_formula_sum "Si O2"
_cell_formula_units_Z 28
_cell_length_a 4.718068
_cell_length_b 20.116234
_cell_length_c 13.220053
_cell_angle_alpha 90.000000
_cell_angle_beta 90.000000
_cell_angle_gamma 90.000000
_cell_volume 1254.712056
_symmetry_space_group_name_H-M "C 2 2 21"
_symmetry_group_IT_number 20
_symmetry_cell_setting 'orthorhombic'
loop_
_space_group_symop_operation_xyz
x,y,z
-x,-y,1/2+z
x,-y,-z
-x,y,1/2-z
1/2+x,1/2+y,z
1/2-x,1/2-y,1/2+z
1/2+x,1/2-y,-z
1/2-x,1/2+y,1/2-z
loop_
_atom_site_type_symbol
_atom_site_label
_atom_site_fract_x
_atom_site_fract_y
_atom_site_fract_z
Si Si1 0.770524 0.353651 0.318525
Si Si2 0.021544 0.088941 0.474320
Si Si3 0.046246 0.765433 0.566229
Si Si4 0.019380 0.500000 0.000000
O O1 0.500000 0.340320 0.250000
O O2 0.670919 0.390410 0.419807
O O3 0.928980 0.287058 0.354907
O O4 0.000000 0.392390 0.250000
O O5 0.002710 0.157090 0.411795
O O6 0.239934 0.034992 0.427601
O O7 0.715194 0.059360 0.502051
O O8 0.868426 0.750153 0.463280
#
# Coordination Sequence:
#
# PCOD9317083 Si02
#       4
#     8   8   8   4
#     4  11  21  34  57  88 116 141 178 240 301 331
#     4  10  20  36  56  83 112 147 195 231 262 333
#     4  10  19  34  56  82 111 143 181 230 283 331
#     4  10  20  34  58  78 102 148 192 226 264 316
#
# _framework density 22.315877
#
# number of rings (size 3 to 8) (size 9 to 14) (size 15 to 20)
#    0.000    1.714    0.000    8.571    0.000    0.000 
#    0.000    0.000    0.000   25.714    0.000    4.000 
#    0.000    0.000    0.000    0.000    0.000    0.000 
#
# Total GULP energy -77941.038667 kJ/mol
# GULP energy per Si atom -5567.217048 kJ/mol
# Density = 2.226508 g / cm^3
# Si number density = 22.315877 Si / 1000 Ang^3
#
#
#
# Elastic Constant Matrix: (Units=GPa)
#
#
# Indices 1 2 3 4 5 6 
#
# 1 125.2418 7.5392 5.8377 0.0000 0.0000 0.0000
# 2 7.5392 118.9867 -18.6796 0.0000 0.0000 0.0000
# 3 5.8377 -18.6796 41.1950 0.0000 0.0000 0.0000
# 4 0.0000 0.0000 0.0000 7.1236 0.0000 0.0000
# 5 0.0000 0.0000 0.0000 0.0000 33.3656 0.0000
# 6 0.0000 0.0000 0.0000 0.0000 0.0000 46.9812
#
#
#
# Elastic Compliance Matrix: (Units=1/GPa)
#
#
# Indices 1 2 3 4 5 6 
#
# 1 0.008099 -0.000746 -0.001486 0.000000 0.000000 0.000000
# 2 -0.000746 0.009117 0.004240 0.000000 0.000000 0.000000
# 3 -0.001486 0.004240 0.026408 0.000000 0.000000 0.000000
# 4 0.000000 0.000000 0.000000 0.140379 0.000000 0.000000
# 5 0.000000 0.000000 0.000000 0.000000 0.029971 0.000000
# 6 0.000000 0.000000 0.000000 0.000000 0.000000 0.021285
#
#
# Mechanical properties :
#
#
# Convention : Reuss Voigt Hill
#
# Bulk Modulus (GPa) = 20.99139 30.53536 25.76337
# Shear Modulus (GPa) = 20.23278 36.87583 28.55430
#
# Velocity S-wave (km/s) = 3.01434 4.06944 3.58096
# Velocity P-wave (km/s) = 4.64132 5.98276 5.35422
#
# Compressibility (1/GPa) = 0.04763857
#
# Stress axis : x y z
#
# Youngs Moduli (GPa) = 123.47567 109.68254 37.86737
#
# Poissons Ratio (x) = 0.08187 0.05628
# Poissons Ratio (y) = 0.09217 -0.16056
# Poissons Ratio (z) = 0.18350 -0.46505
#
# Static dielectric constant tensor:
#      x y z
#    x 1.820090 0.000000 0.000000 
#    y 0.000000 2.005150 0.000000 
#    z 0.000000 0.000000 1.974310 
# 
# From -- ./inp_files/11971.got.cif
#   From: 2010.05.17/outbox.cif.g08.bks.cpg/sg20_6_cif.got.tgz:11971.got - 2010.06.03 22:52:26.
