data_PCOD9317414
_publ_section_title
;
Structure prediction by ZEFSAII (Michael W. Deem and Ramdas Pophale) SiO2 
 PCOD9317414
Probable space group: C 2 2 21
;
_chemical_formula_sum "Si O2"
_cell_formula_units_Z 56
_cell_length_a 14.497247
_cell_length_b 11.570661
_cell_length_c 15.591822
_cell_angle_alpha 90.000000
_cell_angle_beta 90.000000
_cell_angle_gamma 90.000000
_cell_volume 2615.414795
_symmetry_space_group_name_H-M "C 2 2 21"
_symmetry_group_IT_number 20
_symmetry_cell_setting 'orthorhombic'
loop_
_space_group_symop_operation_xyz
x,y,z
-x,-y,1/2+z
x,-y,-z
-x,y,1/2-z
1/2+x,1/2+y,z
1/2-x,1/2-y,1/2+z
1/2+x,1/2-y,-z
1/2-x,1/2+y,1/2-z
loop_
_atom_site_type_symbol
_atom_site_label
_atom_site_fract_x
_atom_site_fract_y
_atom_site_fract_z
Si Si1 0.670241 0.948669 0.097796
Si Si2 0.138060 0.116147 0.701081
Si Si3 0.407890 0.631980 0.978740
Si Si4 0.675851 0.851945 0.783064
Si Si5 0.599626 0.712543 0.046231
Si Si6 0.758630 0.276025 0.076566
Si Si7 0.288987 0.520240 0.351961
O O1 0.765209 0.908167 0.147142
O O2 0.608596 0.833530 0.095851
O O3 0.630695 0.050946 0.157233
O O4 0.681205 0.000000 0.000000
O O5 0.069047 0.125526 0.622071
O O6 0.129323 0.235182 0.752540
O O7 0.142070 0.022756 0.776454
O O8 0.382123 0.500000 0.000000
O O9 0.497486 0.670618 0.030198
O O10 0.328755 0.723553 0.006976
O O11 0.763046 0.804945 0.839675
O O12 0.709898 0.911164 0.696872
O O13 0.657093 0.607783 0.087641
O O14 0.655242 0.738843 0.959191
O O15 0.758886 0.409956 0.102782
#
# Coordination Sequence:
#
# PCOD9317414 Si02
#       7
#     8   8   8   8   8   8   8
#     4  11  19  38  68  94 130 183 228 274 333 415
#     4  10  20  38  69  99 128 174 228 279 342 398
#     4  12  24  43  70 101 134 181 237 278 338 420
#     4  10  19  37  68  96 128 177 225 276 343 395
#     4  12  24  42  69 102 138 177 231 286 339 408
#     4  11  22  40  69  95 129 184 227 275 341 407
#     4  10  21  38  66 100 135 168 224 288 342 391
#
# _framework density 21.411517
#
# number of rings (size 3 to 8) (size 9 to 14) (size 15 to 20)
#    0.000    1.143    4.286    3.429    0.000    0.000 
#    0.000   12.857    3.143    0.000    0.000    0.000 
#    0.000    0.000    0.000    0.000    0.000    0.000 
#
# Total GULP energy -156107.493187 kJ/mol
# GULP energy per Si atom -5575.267614 kJ/mol
# Density = 2.136278 g / cm^3
# Si number density = 21.411517 Si / 1000 Ang^3
#
#
#
# Elastic Constant Matrix: (Units=GPa)
#
#
# Indices 1 2 3 4 5 6 
#
# 1 28.3729 23.1329 14.0521 0.0000 0.0000 0.0000
# 2 23.1329 157.1347 46.9552 0.0000 0.0000 0.0000
# 3 14.0521 46.9552 84.7016 0.0000 0.0000 0.0000
# 4 0.0000 0.0000 0.0000 65.1970 0.0000 0.0000
# 5 0.0000 0.0000 0.0000 0.0000 10.3711 0.0000
# 6 0.0000 0.0000 0.0000 0.0000 0.0000 11.3225
#
#
#
# Elastic Compliance Matrix: (Units=1/GPa)
#
#
# Indices 1 2 3 4 5 6 
#
# 1 0.041244 -0.004827 -0.004167 0.000000 0.000000 0.000000
# 2 -0.004827 0.008192 -0.003741 0.000000 0.000000 0.000000
# 3 -0.004167 -0.003741 0.014571 0.000000 0.000000 0.000000
# 4 0.000000 0.000000 0.000000 0.015338 0.000000 0.000000
# 5 0.000000 0.000000 0.000000 0.000000 0.096422 0.000000
# 6 0.000000 0.000000 0.000000 0.000000 0.000000 0.088319
#
#
# Mechanical properties :
#
#
# Convention : Reuss Voigt Hill
#
# Bulk Modulus (GPa) = 25.94771 48.72106 37.33439
# Shear Modulus (GPa) = 16.53434 29.78274 23.15854
#
# Velocity S-wave (km/s) = 2.78189 3.73361 3.29233
# Velocity P-wave (km/s) = 4.73956 6.43355 5.65040
#
# Compressibility (1/GPa) = 0.03853904
#
# Stress axis : x y z
#
# Youngs Moduli (GPa) = 24.24606 122.06498 68.62877
#
# Poissons Ratio (x) = 0.58917 0.28595
# Poissons Ratio (y) = 0.11703 0.25672
# Poissons Ratio (z) = 0.10103 0.45662
#
# Static dielectric constant tensor:
#      x y z
#    x 1.788210 0.000000 0.000000 
#    y 0.000000 1.804070 0.000000 
#    z 0.000000 0.000000 1.860670 
# 
# From -- ./inp_files/20742.got.cif
#   From: 2010.05.17/outbox.cif.g08.bks.cpg/sg20_11_cif.got.tgz:20742.got - 2010.06.03 22:52:26.
