data_PCOD9317074
_publ_section_title
;
Structure prediction by ZEFSAII (Michael W. Deem and Ramdas Pophale) SiO2 
 PCOD9317074
Probable space group: C 2 2 21
;
_chemical_formula_sum "Si O2"
_cell_formula_units_Z 40
_cell_length_a 11.330168
_cell_length_b 19.421813
_cell_length_c 9.881654
_cell_angle_alpha 90.000000
_cell_angle_beta 90.000000
_cell_angle_gamma 90.000000
_cell_volume 2174.481720
_symmetry_space_group_name_H-M "C 2 2 21"
_symmetry_group_IT_number 20
_symmetry_cell_setting 'orthorhombic'
loop_
_space_group_symop_operation_xyz
x,y,z
-x,-y,1/2+z
x,-y,-z
-x,y,1/2-z
1/2+x,1/2+y,z
1/2-x,1/2-y,1/2+z
1/2+x,1/2-y,-z
1/2-x,1/2+y,1/2-z
loop_
_atom_site_type_symbol
_atom_site_label
_atom_site_fract_x
_atom_site_fract_y
_atom_site_fract_z
Si Si1 0.674956 0.861899 0.006723
Si Si2 0.408791 0.329752 0.140535
Si Si3 0.309323 0.821343 0.800044
Si Si4 0.468721 0.947646 0.898343
Si Si5 0.563789 0.278930 0.893770
O O1 0.714568 0.839088 0.856162
O O2 0.586107 0.924126 0.978864
O O3 0.790255 0.870960 0.100158
O O4 0.598691 0.798755 0.065878
O O5 0.500000 0.359889 0.250000
O O6 0.365707 0.254785 0.194465
O O7 0.481382 0.312874 0.005523
O O8 0.395733 0.878498 0.862785
O O9 0.187735 0.818316 0.880990
O O10 0.500000 0.977580 0.750000
O O11 0.405118 0.000000 0.000000
O O12 0.500000 0.278720 0.750000
#
# Coordination Sequence:
#
# PCOD9317074 Si02
#       5
#     8   8   8   8   8
#     4  10  20  34  55  79 115 150 179 223 282 330
#     4  11  19  34  53  84 119 144 177 224 281 336
#     4  10  19  34  55  79 117 149 177 225 282 330
#     4  10  21  40  57  78 109 147 192 233 271 322
#     4  11  20  31  53  86 115 143 179 220 280 343
#
# _framework density 18.395187
#
# number of rings (size 3 to 8) (size 9 to 14) (size 15 to 20)
#    0.000    1.600    6.000    0.600    0.000    0.800 
#    3.600    0.000    0.000    1.200    0.000    0.000 
#    0.000    0.000    0.000    0.000    0.000    0.000 
#
# Total GULP energy -111570.586263 kJ/mol
# GULP energy per Si atom -5578.529313 kJ/mol
# Density = 1.835332 g / cm^3
# Si number density = 18.395187 Si / 1000 Ang^3
#
#
#
# Elastic Constant Matrix: (Units=GPa)
#
#
# Indices 1 2 3 4 5 6 
#
# 1 91.6250 11.6431 31.7818 0.0000 0.0000 0.0000
# 2 11.6431 31.2000 24.6818 0.0000 0.0000 0.0000
# 3 31.7818 24.6818 85.4666 0.0000 0.0000 0.0000
# 4 0.0000 0.0000 0.0000 20.4000 0.0000 0.0000
# 5 0.0000 0.0000 0.0000 0.0000 46.1508 0.0000
# 6 0.0000 0.0000 0.0000 0.0000 0.0000 5.5772
#
#
#
# Elastic Compliance Matrix: (Units=1/GPa)
#
#
# Indices 1 2 3 4 5 6 
#
# 1 0.012570 -0.001287 -0.004303 0.000000 0.000000 0.000000
# 2 -0.001287 0.041673 -0.011556 0.000000 0.000000 0.000000
# 3 -0.004303 -0.011556 0.016638 0.000000 0.000000 0.000000
# 4 0.000000 0.000000 0.000000 0.049020 0.000000 0.000000
# 5 0.000000 0.000000 0.000000 0.000000 0.021668 0.000000
# 6 0.000000 0.000000 0.000000 0.000000 0.000000 0.179302
#
#
# Mechanical properties :
#
#
# Convention : Reuss Voigt Hill
#
# Bulk Modulus (GPa) = 27.33031 38.27833 32.80432
# Shear Modulus (GPa) = 13.61064 23.77125 18.69095
#
# Velocity S-wave (km/s) = 2.72307 3.59869 3.19106
# Velocity P-wave (km/s) = 4.97759 6.17426 5.60794
#
# Compressibility (1/GPa) = 0.03658941
#
# Stress axis : x y z
#
# Youngs Moduli (GPa) = 79.55410 23.99611 60.10427
#
# Poissons Ratio (x) = 0.03089 0.25861
# Poissons Ratio (y) = 0.10239 0.69458
# Poissons Ratio (z) = 0.34229 0.27730
#
# Static dielectric constant tensor:
#      x y z
#    x 1.660900 0.000000 0.000000 
#    y 0.000000 1.628170 0.000000 
#    z 0.000000 0.000000 1.637110 
# 
# From -- ./inp_files/7044.got.cif
#   From: 2010.05.17/outbox.cif.g08.bks.cpg/sg20_4_cif.got.tgz:7044.got - 2010.06.03 22:52:26.
