data_PCOD9317388
_publ_section_title
;
Structure prediction by ZEFSAII (Michael W. Deem and Ramdas Pophale) SiO2 
 PCOD9317388
Probable space group: C 2 2 21
;
_chemical_formula_sum "Si O2"
_cell_formula_units_Z 48
_cell_length_a 9.198456
_cell_length_b 15.563610
_cell_length_c 16.135220
_cell_angle_alpha 90.000000
_cell_angle_beta 90.000000
_cell_angle_gamma 90.000000
_cell_volume 2309.937164
_symmetry_space_group_name_H-M "C 2 2 21"
_symmetry_group_IT_number 20
_symmetry_cell_setting 'orthorhombic'
loop_
_space_group_symop_operation_xyz
x,y,z
-x,-y,1/2+z
x,-y,-z
-x,y,1/2-z
1/2+x,1/2+y,z
1/2-x,1/2-y,1/2+z
1/2+x,1/2-y,-z
1/2-x,1/2+y,1/2-z
loop_
_atom_site_type_symbol
_atom_site_label
_atom_site_fract_x
_atom_site_fract_y
_atom_site_fract_z
Si Si1 0.657823 0.032030 0.086004
Si Si2 0.994109 0.298635 0.849878
Si Si3 0.653446 0.626463 0.904043
Si Si4 0.533419 0.470995 0.655167
Si Si5 0.719839 0.373880 0.903208
Si Si6 0.096297 0.535375 0.667192
O O1 0.575165 0.122109 0.102888
O O2 0.794732 0.033582 0.146349
O O3 0.531618 0.961653 0.100016
O O4 0.723630 0.000000 0.000000
O O5 0.824034 0.296789 0.875661
O O6 0.000000 0.309599 0.750000
O O7 0.073827 0.213333 0.879728
O O8 0.537960 0.548953 0.895880
O O9 0.788346 0.611106 0.841152
O O10 0.715273 0.622648 0.997429
O O11 0.500000 0.488695 0.750000
O O12 0.445603 0.385417 0.627408
O O13 0.804335 0.453570 0.858466
O O14 0.000000 0.525889 0.750000
#
# Coordination Sequence:
#
# PCOD9317388 Si02
#       6
#     8   8   8   8   8   8
#     4  11  21  37  63  92 120 161 217 266 313 383
#     4  11  24  44  64  91 130 170 208 265 332 387
#     4  11  23  40  62  93 129 167 210 266 327 383
#     4  11  21  38  63  92 123 165 214 263 314 383
#     4  10  21  40  62  86 125 173 215 260 315 386
#     4  10  19  37  63  90 121 166 213 260 317 386
#
# _framework density 20.779786000000001
#
# number of rings (size 3 to 8) (size 9 to 14) (size 15 to 20)
#    0.000    1.333    0.000   10.500    0.000    2.667 
#    0.000    5.833    0.000    0.000    0.000    0.000 
#    0.000    0.000    0.000    0.000    0.000    0.000 
#
# Total GULP energy -133779.803275 kJ/mol
# GULP energy per Si atom -5574.158470 kJ/mol
# Density = 2.073249 g / cm^3
# Si number density = 20.779786 Si / 1000 Ang^3
#
#
#
# Elastic Constant Matrix: (Units=GPa)
#
#
# Indices 1 2 3 4 5 6 
#
# 1 110.0611 42.9360 -9.9006 0.0000 0.0000 0.0000
# 2 42.9360 81.1715 20.6510 0.0000 0.0000 0.0000
# 3 -9.9006 20.6510 89.6911 0.0000 0.0000 0.0000
# 4 0.0000 0.0000 0.0000 10.4703 0.0000 0.0000
# 5 0.0000 0.0000 0.0000 0.0000 47.3945 0.0000
# 6 0.0000 0.0000 0.0000 0.0000 0.0000 34.1300
#
#
#
# Elastic Compliance Matrix: (Units=1/GPa)
#
#
# Indices 1 2 3 4 5 6 
#
# 1 0.012163 -0.007197 0.003000 0.000000 0.000000 0.000000
# 2 -0.007197 0.017345 -0.004788 0.000000 0.000000 0.000000
# 3 0.003000 -0.004788 0.012583 0.000000 0.000000 0.000000
# 4 0.000000 0.000000 0.000000 0.095509 0.000000 0.000000
# 5 0.000000 0.000000 0.000000 0.000000 0.021100 0.000000
# 6 0.000000 0.000000 0.000000 0.000000 0.000000 0.029300
#
#
# Mechanical properties :
#
#
# Convention : Reuss Voigt Hill
#
# Bulk Modulus (GPa) = 41.45873 43.14403 42.30138
# Shear Modulus (GPa) = 23.36347 33.54811 28.45579
#
# Velocity S-wave (km/s) = 3.35675 4.02239 3.70455
# Velocity P-wave (km/s) = 5.91764 6.51002 6.22089
#
# Compressibility (1/GPa) = 0.02412037
#
# Stress axis : x y z
#
# Youngs Moduli (GPa) = 82.21433 57.65486 79.47286
#
# Poissons Ratio (x) = 0.41494 -0.23840
# Poissons Ratio (y) = 0.59170 0.38051
# Poissons Ratio (z) = -0.24662 0.27605
#
# Static dielectric constant tensor:
#      x y z
#    x 1.778220 0.000000 0.000000 
#    y 0.000000 1.791060 0.000000 
#    z 0.000000 0.000000 1.849020 
# 
# From -- ./inp_files/18841.got.cif
#   From: 2010.05.17/outbox.cif.g08.bks.cpg/sg20_10_cif.got.tgz:18841.got - 2010.06.03 22:52:26.
