data_PCOD9317885
_publ_section_title
;
Structure prediction by ZEFSAII (Michael W. Deem and Ramdas Pophale) SiO2 
 PCOD9317885
Probable space group: C 2 2 21
;
_chemical_formula_sum "Si O2"
_cell_formula_units_Z 44
_cell_length_a 10.505723
_cell_length_b 25.093844
_cell_length_c 8.752164
_cell_angle_alpha 90.000000
_cell_angle_beta 90.000000
_cell_angle_gamma 90.000000
_cell_volume 2307.324016
_symmetry_space_group_name_H-M "C 2 2 21"
_symmetry_group_IT_number 20
_symmetry_cell_setting 'orthorhombic'
loop_
_space_group_symop_operation_xyz
x,y,z
-x,-y,1/2+z
x,-y,-z
-x,y,1/2-z
1/2+x,1/2+y,z
1/2-x,1/2-y,1/2+z
1/2+x,1/2-y,-z
1/2-x,1/2+y,1/2-z
loop_
_atom_site_type_symbol
_atom_site_label
_atom_site_fract_x
_atom_site_fract_y
_atom_site_fract_z
Si Si1 0.618213 0.858674 0.168119
Si Si2 0.392606 0.788419 0.619605
Si Si3 0.000000 0.084931 0.750000
Si Si4 0.184028 0.831866 0.087401
Si Si5 0.694490 0.440805 0.494203
Si Si6 0.848605 0.148061 0.242340
O O1 0.500000 0.885635 0.250000
O O2 0.695803 0.828424 0.300455
O O3 0.573446 0.818574 0.036384
O O4 0.707908 0.901748 0.089925
O O5 0.500000 0.798061 0.750000
O O6 0.382106 0.725655 0.588685
O O7 0.250920 0.811068 0.661776
O O8 0.904438 0.124124 0.664126
O O9 0.073268 0.053530 0.618383
O O10 0.203403 0.851705 0.915198
O O11 0.749437 0.500000 0.500000
O O12 0.660324 0.408003 0.648898
O O13 0.000000 0.162684 0.250000
#
# Coordination Sequence:
#
# PCOD9317885 Si02
#       6
#     8   8   4   8   8   8
#     4  10  23  42  59  90 128 167 212 266 313 386
#     4  11  23  38  62  91 131 177 216 254 317 387
#     4  10  20  36  60  86 126 150 202 264 304 374
#     4  11  21  37  60  89 129 167 208 256 319 377
#     4  10  23  42  65  91 120 161 213 270 326 382
#     4  11  23  39  61  92 127 162 216 269 319 386
#
# _framework density 19.069710000000001
#
# number of rings (size 3 to 8) (size 9 to 14) (size 15 to 20)
#    0.000    1.455    2.727    2.182    1.273    4.364 
#    0.000    8.182    0.000    0.000    0.000    0.000 
#    0.000    0.000    0.000    0.000    0.000    0.000 
#
# Total GULP energy -122646.889876 kJ/mol
# GULP energy per Si atom -5574.858631 kJ/mol
# Density = 1.902631 g / cm^3
# Si number density = 19.069710 Si / 1000 Ang^3
#
#
#
# Elastic Constant Matrix: (Units=GPa)
#
#
# Indices 1 2 3 4 5 6 
#
# 1 72.9809 11.6924 32.1039 0.0000 0.0000 0.0000
# 2 11.6924 69.9772 35.0887 0.0000 0.0000 0.0000
# 3 32.1039 35.0887 144.2030 0.0000 0.0000 0.0000
# 4 0.0000 0.0000 0.0000 13.2771 0.0000 0.0000
# 5 0.0000 0.0000 0.0000 0.0000 36.6022 0.0000
# 6 0.0000 0.0000 0.0000 0.0000 0.0000 37.1680
#
#
#
# Elastic Compliance Matrix: (Units=1/GPa)
#
#
# Indices 1 2 3 4 5 6 
#
# 1 0.015247 -0.000963 -0.003160 0.000000 0.000000 0.000000
# 2 -0.000963 0.016337 -0.003761 0.000000 0.000000 0.000000
# 3 -0.003160 -0.003761 0.008553 0.000000 0.000000 0.000000
# 4 0.000000 0.000000 0.000000 0.075317 0.000000 0.000000
# 5 0.000000 0.000000 0.000000 0.000000 0.027321 0.000000
# 6 0.000000 0.000000 0.000000 0.000000 0.000000 0.026905
#
#
# Mechanical properties :
#
#
# Convention : Reuss Voigt Hill
#
# Bulk Modulus (GPa) = 41.03544 49.43678 45.23611
# Shear Modulus (GPa) = 25.83032 31.29453 28.56243
#
# Velocity S-wave (km/s) = 3.68437 4.05539 3.87433
# Velocity P-wave (km/s) = 6.29800 6.92162 6.61716
#
# Compressibility (1/GPa) = 0.02436918
#
# Stress axis : x y z
#
# Youngs Moduli (GPa) = 65.58852 61.21035 116.91374
#
# Poissons Ratio (x) = 0.05895 0.36945
# Poissons Ratio (y) = 0.06316 0.43970
# Poissons Ratio (z) = 0.20726 0.23021
#
# Static dielectric constant tensor:
#      x y z
#    x 1.772310 0.000000 0.000000 
#    y 0.000000 1.608840 0.000000 
#    z 0.000000 0.000000 1.645260 
# 
# From -- ./inp_files/7336.got.cif
#   From: 2010.05.17/outbox.cif.g08.bks.cpg/sg20_4_cif.got.tgz:7336.got - 2010.06.03 22:52:26.
