data_PCOD9317408
_publ_section_title
;
Structure prediction by ZEFSAII (Michael W. Deem and Ramdas Pophale) SiO2 
 PCOD9317408
Probable space group: C 2 2 21
;
_chemical_formula_sum "Si O2"
_cell_formula_units_Z 48
_cell_length_a 9.936259
_cell_length_b 16.475061
_cell_length_c 14.268634
_cell_angle_alpha 90.000000
_cell_angle_beta 90.000000
_cell_angle_gamma 90.000000
_cell_volume 2335.782137
_symmetry_space_group_name_H-M "C 2 2 21"
_symmetry_group_IT_number 20
_symmetry_cell_setting 'orthorhombic'
loop_
_space_group_symop_operation_xyz
x,y,z
-x,-y,1/2+z
x,-y,-z
-x,y,1/2-z
1/2+x,1/2+y,z
1/2-x,1/2-y,1/2+z
1/2+x,1/2-y,-z
1/2-x,1/2+y,1/2-z
loop_
_atom_site_type_symbol
_atom_site_label
_atom_site_fract_x
_atom_site_fract_y
_atom_site_fract_z
Si Si1 0.500000 0.619801 0.750000
Si Si2 0.054422 0.173552 0.548937
Si Si3 0.370676 0.106604 0.309085
Si Si4 0.009194 0.544625 0.595929
Si Si5 0.854099 0.694146 0.506502
Si Si6 0.782493 0.996429 0.315130
Si Si7 0.465093 0.500000 0.500000
O O1 0.503735 0.670400 0.655589
O O2 0.629174 0.561091 0.749398
O O3 0.203915 0.208386 0.542516
O O4 0.947608 0.227157 0.493090
O O5 0.052588 0.080966 0.512523
O O6 0.500000 0.136307 0.250000
O O7 0.341431 0.162032 0.398674
O O8 0.413181 0.019233 0.352312
O O9 0.255443 0.080818 0.235709
O O10 0.051324 0.500000 0.500000
O O11 0.145307 0.550000 0.655763
O O12 0.930323 0.625171 0.567055
O O13 0.871221 0.008439 0.408463
#
# Coordination Sequence:
#
# PCOD9317408 Si02
#       7
#     4   8   8   8   8   8   4
#     4  10  24  40  66  92 136 168 220 278 342 384
#     4  11  27  45  67  97 134 178 221 280 338 403
#     4   9  20  36  65  99 130 170 219 272 331 399
#     4   9  18  35  63  95 128 172 216 264 325 406
#     4  11  25  41  69  95 140 175 228 275 343 393
#     4  10  19  37  66  96 127 170 225 271 324 403
#     4  10  24  42  68  92 134 178 224 268 338 402
#
# _framework density 20.549862000000001
#
# number of rings (size 3 to 8) (size 9 to 14) (size 15 to 20)
#    0.000    2.000    0.833    1.000   14.000    0.000 
#    0.000    0.000    0.000    0.000    0.000    0.000 
#    0.000    0.000    0.000    0.000    0.000    0.000 
#
# Total GULP energy -134062.311083 kJ/mol
# GULP energy per Si atom -5585.929628 kJ/mol
# Density = 2.050309 g / cm^3
# Si number density = 20.549862 Si / 1000 Ang^3
#
#
#
# Elastic Constant Matrix: (Units=GPa)
#
#
# Indices 1 2 3 4 5 6 
#
# 1 91.3126 30.5403 -15.2700 0.0000 0.0000 0.0000
# 2 30.5403 72.4076 0.5277 0.0000 0.0000 0.0000
# 3 -15.2700 0.5277 28.4510 0.0000 0.0000 0.0000
# 4 0.0000 0.0000 0.0000 26.3357 0.0000 0.0000
# 5 0.0000 0.0000 0.0000 0.0000 18.8880 0.0000
# 6 0.0000 0.0000 0.0000 0.0000 0.0000 14.3116
#
#
#
# Elastic Compliance Matrix: (Units=1/GPa)
#
#
# Indices 1 2 3 4 5 6 
#
# 1 0.014287 -0.006083 0.007781 0.000000 0.000000 0.000000
# 2 -0.006083 0.016402 -0.003569 0.000000 0.000000 0.000000
# 3 0.007781 -0.003569 0.039390 0.000000 0.000000 0.000000
# 4 0.000000 0.000000 0.000000 0.037971 0.000000 0.000000
# 5 0.000000 0.000000 0.000000 0.000000 0.052944 0.000000
# 6 0.000000 0.000000 0.000000 0.000000 0.000000 0.069873
#
#
# Mechanical properties :
#
#
# Convention : Reuss Voigt Hill
#
# Bulk Modulus (GPa) = 15.07430 24.86301 19.96865
# Shear Modulus (GPa) = 19.47632 23.66529 21.57080
#
# Velocity S-wave (km/s) = 3.08191 3.39721 3.24339
# Velocity P-wave (km/s) = 4.47388 5.24530 4.87487
#
# Compressibility (1/GPa) = 0.06633809
#
# Stress axis : x y z
#
# Youngs Moduli (GPa) = 69.99389 60.96712 25.38693
#
# Poissons Ratio (x) = 0.37084 -0.19753
# Poissons Ratio (y) = 0.42575 0.09060
# Poissons Ratio (z) = -0.54461 0.21758
#
# Static dielectric constant tensor:
#      x y z
#    x 1.722470 0.000000 0.000000 
#    y 0.000000 1.724890 0.000000 
#    z 0.000000 0.000000 1.815280 
# 
# From -- ./inp_files/18931.got.cif
#   From: 2010.05.17/outbox.cif.g08.bks.cpg/sg20_10_cif.got.tgz:18931.got - 2010.06.03 22:52:26.
