data_PCOD9317157
_publ_section_title
;
Structure prediction by ZEFSAII (Michael W. Deem and Ramdas Pophale) SiO2 
 PCOD9317157
Probable space group: C 2 2 21
;
_chemical_formula_sum "Si O2"
_cell_formula_units_Z 44
_cell_length_a 11.998076
_cell_length_b 28.175759
_cell_length_c 5.949022
_cell_angle_alpha 90.000000
_cell_angle_beta 90.000000
_cell_angle_gamma 90.000000
_cell_volume 2011.096024
_symmetry_space_group_name_H-M "C 2 2 21"
_symmetry_group_IT_number 20
_symmetry_cell_setting 'orthorhombic'
loop_
_space_group_symop_operation_xyz
x,y,z
-x,-y,1/2+z
x,-y,-z
-x,y,1/2-z
1/2+x,1/2+y,z
1/2-x,1/2-y,1/2+z
1/2+x,1/2-y,-z
1/2-x,1/2+y,1/2-z
loop_
_atom_site_type_symbol
_atom_site_label
_atom_site_fract_x
_atom_site_fract_y
_atom_site_fract_z
Si Si1 0.174176 0.864225 0.814091
Si Si2 0.332088 0.908000 0.204745
Si Si3 0.684894 0.544611 0.398174
Si Si4 0.837044 0.500000 0.000000
Si Si5 0.606411 0.282436 0.096651
Si Si6 0.311064 0.185795 0.584760
O O1 0.122022 0.909708 0.692970
O O2 0.250111 0.835385 0.636188
O O3 0.250482 0.887614 0.010316
O O4 0.095760 0.825781 0.925427
O O5 0.263166 0.932695 0.407533
O O6 0.376838 0.859077 0.310468
O O7 0.397729 0.952508 0.093045
O O8 0.618984 0.500000 0.500000
O O9 0.760380 0.521363 0.200605
O O10 0.500000 0.281303 0.250000
O O11 0.716445 0.294853 0.243777
O O12 0.619210 0.231685 0.980246
#
# Coordination Sequence:
#
# PCOD9317157 Si02
#       6
#     8   8   8   4   8   8
#     4   9  17  31  47  71 109 142 183 236 274 336
#     4   8  15  25  46  69 106 142 173 227 283 337
#     4   8  13  23  43  72 105 135 175 226 285 346
#     4   8  12  22  40  74 106 134 172 224 282 358
#     4  11  22  35  54  77 108 154 199 236 289 342
#     4  10  19  35  51  74 111 149 186 242 281 338
#
# _framework density 21.878617999999999
#
# number of rings (size 3 to 8) (size 9 to 14) (size 15 to 20)
#    0.000    2.909    1.818    0.000    0.000    0.727 
#    0.000    0.000    0.000    0.000    0.000    0.000 
# 1508.182    0.000  485.273    0.000    1.455    1.000 
#
# Total GULP energy -122502.160944 kJ/mol
# GULP energy per Si atom -5568.280043 kJ/mol
# Density = 2.182882 g / cm^3
# Si number density = 21.878618 Si / 1000 Ang^3
#
#
#
# Elastic Constant Matrix: (Units=GPa)
#
#
# Indices 1 2 3 4 5 6 
#
# 1 39.9881 43.0582 14.0118 0.0000 0.0000 0.0000
# 2 43.0582 275.2587 70.3464 0.0000 0.0000 0.0000
# 3 14.0118 70.3464 88.2905 0.0000 0.0000 0.0000
# 4 0.0000 0.0000 0.0000 68.9001 0.0000 0.0000
# 5 0.0000 0.0000 0.0000 0.0000 19.0740 0.0000
# 6 0.0000 0.0000 0.0000 0.0000 0.0000 -20.1153
#
#
#
# Elastic Compliance Matrix: (Units=1/GPa)
#
#
# Indices 1 2 3 4 5 6 
#
# 1 0.030190 -0.004392 -0.001291 0.000000 0.000000 0.000000
# 2 -0.004392 0.005201 -0.003447 0.000000 0.000000 0.000000
# 3 -0.001291 -0.003447 0.014277 0.000000 0.000000 0.000000
# 4 0.000000 0.000000 0.000000 0.014514 0.000000 0.000000
# 5 0.000000 0.000000 0.000000 0.000000 0.052427 0.000000
# 6 0.000000 0.000000 0.000000 0.000000 0.000000 -0.049713
#
#
# Mechanical properties :
#
#
# Convention : Reuss Voigt Hill
#
# Bulk Modulus (GPa) = 31.84031 73.15223 52.49627
# Shear Modulus (GPa) = 52.28699 31.97982 42.13341
#
# Velocity S-wave (km/s) = 4.89393 3.82736 4.39313
# Velocity P-wave (km/s) = 6.82047 7.28283 7.05544
#
# Compressibility (1/GPa) = 0.03140673
#
# Stress axis : x y z
#
# Youngs Moduli (GPa) = 33.12392 192.27303 70.04038
#
# Poissons Ratio (x) = 0.84456 0.09045
# Poissons Ratio (y) = 0.14550 0.24142
# Poissons Ratio (z) = 0.04278 0.66273
#
# Static dielectric constant tensor:
#      x y z
#    x 1.732780 0.000000 0.000000 
#    y 0.000000 1.826420 0.000000 
#    z 0.000000 0.000000 1.855310 
# 
# From -- ./inp_files/1976.got.cif
#   From: 2010.05.17/outbox.cif.g08.bks.cpg/sg20_1_cif.got.tgz:1976.got - 2010.06.03 22:52:26.
