data_PCOD9317146
_publ_section_title
;
Structure prediction by ZEFSAII (Michael W. Deem and Ramdas Pophale) SiO2 
 PCOD9317146
Probable space group: C 2 2 21
;
_chemical_formula_sum "Si O2"
_cell_formula_units_Z 64
_cell_length_a 14.034470
_cell_length_b 13.751466
_cell_length_c 18.602234
_cell_angle_alpha 90.000000
_cell_angle_beta 90.000000
_cell_angle_gamma 90.000000
_cell_volume 3590.129539
_symmetry_space_group_name_H-M "C 2 2 21"
_symmetry_group_IT_number 20
_symmetry_cell_setting 'orthorhombic'
loop_
_space_group_symop_operation_xyz
x,y,z
-x,-y,1/2+z
x,-y,-z
-x,y,1/2-z
1/2+x,1/2+y,z
1/2-x,1/2-y,1/2+z
1/2+x,1/2-y,-z
1/2-x,1/2+y,1/2-z
loop_
_atom_site_type_symbol
_atom_site_label
_atom_site_fract_x
_atom_site_fract_y
_atom_site_fract_z
Si Si1 0.973742 0.680649 0.825992
Si Si2 0.409349 0.819598 0.915565
Si Si3 0.055942 0.466297 0.840780
Si Si4 0.738544 0.767564 0.360315
Si Si5 0.710948 0.913956 0.952198
Si Si6 0.606984 0.211100 0.256747
Si Si7 0.066420 0.740073 0.975209
Si Si8 0.776587 0.114357 0.502479
O O1 0.861052 0.692503 0.832842
O O2 0.000000 0.728626 0.750000
O O3 0.014350 0.570915 0.823917
O O4 0.018441 0.721468 0.898988
O O5 0.474755 0.907371 0.884849
O O6 0.368528 0.777966 0.840547
O O7 0.483962 0.757446 0.963340
O O8 0.321712 0.851590 0.964891
O O9 0.145159 0.469320 0.894406
O O10 0.091915 0.399832 0.773751
O O11 0.729875 0.666210 0.406342
O O12 0.814773 0.753032 0.296971
O O13 0.776640 0.845675 0.416766
O O14 0.639077 0.846645 0.000099
O O15 0.757066 0.000000 0.000000
O O16 0.500000 0.254239 0.250000
O O17 0.131666 0.834601 0.968634
O O18 0.780996 0.000000 0.500000
#
# Coordination Sequence:
#
# PCOD9317146 Si02
#       8
#     8   8   8   8   8   8   8   8
#     4  12  22  34  54  81 128 150 183 232 301 345
#     4  10  19  34  63  83 114 146 193 241 296 339
#     4   9  18  32  55  91 111 145 188 245 291 341
#     4  10  22  36  56  94 117 149 193 243 289 346
#     4   9  16  34  61  82 115 142 190 241 285 334
#     4   9  18  36  58  87 117 147 188 246 299 337
#     4  10  22  36  55  88 114 149 191 236 294 340
#     4  11  22  37  60  85 113 152 200 242 277 341
#
# _framework density 17.826654999999999
#
# number of rings (size 3 to 8) (size 9 to 14) (size 15 to 20)
#    0.000    2.000    2.500    4.125    1.750    0.000 
#    0.000    0.625    0.000    2.250    0.000    0.000 
#    0.000    0.000    0.000    0.000    0.000    0.000 
#
# Total GULP energy -178210.278842 kJ/mol
# GULP energy per Si atom -5569.071214 kJ/mol
# Density = 1.778608 g / cm^3
# Si number density = 17.826655 Si / 1000 Ang^3
#
#
#
# Elastic Constant Matrix: (Units=GPa)
#
#
# Indices 1 2 3 4 5 6 
#
# 1 56.5306 27.3512 11.6156 0.0000 0.0000 0.0000
# 2 27.3512 60.4038 5.8564 0.0000 0.0000 0.0000
# 3 11.6156 5.8564 73.8607 0.0000 0.0000 0.0000
# 4 0.0000 0.0000 0.0000 5.7635 0.0000 0.0000
# 5 0.0000 0.0000 0.0000 0.0000 35.7505 0.0000
# 6 0.0000 0.0000 0.0000 0.0000 0.0000 19.5170
#
#
#
# Elastic Compliance Matrix: (Units=1/GPa)
#
#
# Indices 1 2 3 4 5 6 
#
# 1 0.023229 -0.010243 -0.002841 0.000000 0.000000 0.000000
# 2 -0.010243 0.021200 -0.000070 0.000000 0.000000 0.000000
# 3 -0.002841 -0.000070 0.013991 0.000000 0.000000 0.000000
# 4 0.000000 0.000000 0.000000 0.173507 0.000000 0.000000
# 5 0.000000 0.000000 0.000000 0.000000 0.027972 0.000000
# 6 0.000000 0.000000 0.000000 0.000000 0.000000 0.051237
#
#
# Mechanical properties :
#
#
# Convention : Reuss Voigt Hill
#
# Bulk Modulus (GPa) = 31.14034 31.16018 31.15026
# Shear Modulus (GPa) = 14.36171 21.93767 18.14969
#
# Velocity S-wave (km/s) = 2.84144 3.51181 3.19426
# Velocity P-wave (km/s) = 5.31709 5.82763 5.57820
#
# Compressibility (1/GPa) = 0.03211269
#
# Stress axis : x y z
#
# Youngs Moduli (GPa) = 43.04960 47.16975 71.47281
#
# Poissons Ratio (x) = 0.48315 0.20305
# Poissons Ratio (y) = 0.44095 0.00501
# Poissons Ratio (z) = 0.12230 0.00331
#
# Static dielectric constant tensor:
#      x y z
#    x 1.635070 0.000000 0.000000 
#    y 0.000000 1.616750 0.000000 
#    z 0.000000 0.000000 1.620870 
# 
# From -- ./inp_files/25024.got.cif
#   From: 2010.05.17/outbox.cif.g08.bks.cpg/sg20_13_cif.got.tgz:25024.got - 2010.06.03 22:52:26.
