data_PCOD9317871
_publ_section_title
;
Structure prediction by ZEFSAII (Michael W. Deem and Ramdas Pophale) SiO2 
 PCOD9317871
Probable space group: C 2 2 21
;
_chemical_formula_sum "Si O2"
_cell_formula_units_Z 32
_cell_length_a 8.296052
_cell_length_b 16.022363
_cell_length_c 10.171694
_cell_angle_alpha 90.000000
_cell_angle_beta 90.000000
_cell_angle_gamma 90.000000
_cell_volume 1352.045537
_symmetry_space_group_name_H-M "C 2 2 21"
_symmetry_group_IT_number 20
_symmetry_cell_setting 'orthorhombic'
loop_
_space_group_symop_operation_xyz
x,y,z
-x,-y,1/2+z
x,-y,-z
-x,y,1/2-z
1/2+x,1/2+y,z
1/2-x,1/2-y,1/2+z
1/2+x,1/2-y,-z
1/2-x,1/2+y,1/2-z
loop_
_atom_site_type_symbol
_atom_site_label
_atom_site_fract_x
_atom_site_fract_y
_atom_site_fract_z
Si Si1 0.312238 0.165315 0.756629
Si Si2 0.163167 0.734343 0.021335
Si Si3 0.975727 0.429948 0.900328
Si Si4 0.128658 0.085425 0.967837
O O1 0.500000 0.141602 0.750000
O O2 0.287863 0.236679 0.866640
O O3 0.267844 0.202288 0.616407
O O4 0.197163 0.093753 0.817817
O O5 0.057965 0.658819 0.075450
O O6 0.066386 0.821996 0.001807
O O7 0.000000 0.453239 0.750000
O O8 0.789175 0.420479 0.941255
O O9 0.043102 0.500000 0.000000
O O10 0.035818 0.000000 0.000000
#
# Coordination Sequence:
#
# PCOD9317871 Si02
#       4
#     8   8   8   8
#     4  10  20  37  57  87 121 163 202 256 304 364
#     4  10  20  36  59  86 125 163 203 246 319 366
#     4  11  23  36  60  96 125 158 209 263 306 368
#     4   9  21  35  61  85 122 153 203 254 308 357
#
# _framework density 23.667843000000001
#
# number of rings (size 3 to 8) (size 9 to 14) (size 15 to 20)
#    1.500    0.500    2.500    1.500    7.000    0.000 
#    0.000    0.000    0.000    7.500    0.000    0.000 
#    0.000    0.000    0.000    0.000    0.000    0.000 
#
# Total GULP energy -89263.493920 kJ/mol
# GULP energy per Si atom -5578.968370 kJ/mol
# Density = 2.361397 g / cm^3
# Si number density = 23.667843 Si / 1000 Ang^3
#
#
#
# Elastic Constant Matrix: (Units=GPa)
#
#
# Indices 1 2 3 4 5 6 
#
# 1 36.2277 29.5686 18.8459 0.0000 0.0000 0.0000
# 2 29.5686 210.5863 55.4301 0.0000 0.0000 0.0000
# 3 18.8459 55.4301 187.6339 0.0000 0.0000 0.0000
# 4 0.0000 0.0000 0.0000 26.7410 0.0000 0.0000
# 5 0.0000 0.0000 0.0000 0.0000 23.2744 0.0000
# 6 0.0000 0.0000 0.0000 0.0000 0.0000 7.6625
#
#
#
# Elastic Compliance Matrix: (Units=1/GPa)
#
#
# Indices 1 2 3 4 5 6 
#
# 1 0.031879 -0.003940 -0.002038 0.000000 0.000000 0.000000
# 2 -0.003940 0.005636 -0.001269 0.000000 0.000000 0.000000
# 3 -0.002038 -0.001269 0.005909 0.000000 0.000000 0.000000
# 4 0.000000 0.000000 0.000000 0.037396 0.000000 0.000000
# 5 0.000000 0.000000 0.000000 0.000000 0.042966 0.000000
# 6 0.000000 0.000000 0.000000 0.000000 0.000000 0.130506
#
#
# Mechanical properties :
#
#
# Convention : Reuss Voigt Hill
#
# Bulk Modulus (GPa) = 34.56613 71.34856 52.95735
# Shear Modulus (GPa) = 17.95788 33.57579 25.76684
#
# Velocity S-wave (km/s) = 2.75752 3.77055 3.30310
# Velocity P-wave (km/s) = 4.97745 7.01194 6.08039
#
# Compressibility (1/GPa) = 0.02893005
#
# Stress axis : x y z
#
# Youngs Moduli (GPa) = 31.36867 177.43363 169.22815
#
# Poissons Ratio (x) = 0.69903 0.34490
# Poissons Ratio (y) = 0.12358 0.21479
# Poissons Ratio (z) = 0.06393 0.22521
#
# Static dielectric constant tensor:
#      x y z
#    x 1.934800 0.000000 0.000000 
#    y 0.000000 1.984160 0.000000 
#    z 0.000000 0.000000 1.880100 
# 
# From -- ./inp_files/7961.got.cif
#   From: 2010.05.17/outbox.cif.g08.bks.cpg/sg20_4_cif.got.tgz:7961.got - 2010.06.03 22:52:26.
