data_PCOD9317004
_publ_section_title
;
Structure prediction by ZEFSAII (Michael W. Deem and Ramdas Pophale) SiO2 
 PCOD9317004
Probable space group: C 2 2 21
;
_chemical_formula_sum "Si O2"
_cell_formula_units_Z 36
_cell_length_a 12.086712
_cell_length_b 7.888705
_cell_length_c 15.921289
_cell_angle_alpha 90.000000
_cell_angle_beta 90.000000
_cell_angle_gamma 90.000000
_cell_volume 1518.071110
_symmetry_space_group_name_H-M "C 2 2 21"
_symmetry_group_IT_number 20
_symmetry_cell_setting 'orthorhombic'
loop_
_space_group_symop_operation_xyz
x,y,z
-x,-y,1/2+z
x,-y,-z
-x,y,1/2-z
1/2+x,1/2+y,z
1/2-x,1/2-y,1/2+z
1/2+x,1/2-y,-z
1/2-x,1/2+y,1/2-z
loop_
_atom_site_type_symbol
_atom_site_label
_atom_site_fract_x
_atom_site_fract_y
_atom_site_fract_z
Si Si1 0.815659 0.815394 0.364804
Si Si2 0.806652 0.311551 0.465036
Si Si3 0.504135 0.449893 0.585872
Si Si4 0.710771 0.055147 0.795718
Si Si5 0.000000 0.770902 0.750000
O O1 0.754796 0.787775 0.454822
O O2 0.769705 0.939965 0.294039
O O3 0.814507 0.634950 0.321196
O O4 0.936188 0.884522 0.386491
O O5 0.839534 0.500000 0.500000
O O6 0.911272 0.191253 0.441116
O O7 0.740217 0.349773 0.378795
O O8 0.567305 0.500000 0.500000
O O9 0.551838 0.378281 0.672665
O O10 0.596945 0.153398 0.782155
#
# Coordination Sequence:
#
# PCOD9317004 Si02
#       5
#     8   8   8   8   4
#     4  10  19  34  56  76 102 141 182 212 252 313
#     4   8  16  31  53  75 101 135 174 211 255 308
#     4   9  18  34  55  75 103 141 175 211 262 316
#     4  10  19  33  53  79 105 137 175 219 263 309
#     4  10  20  34  52  78 110 136 170 220 270 312
#
# _framework density 23.714303999999998
#
# number of rings (size 3 to 8) (size 9 to 14) (size 15 to 20)
#    0.000    2.667    0.000    2.667    0.000    0.889 
#    0.000    5.556    0.000   56.000    0.000    0.000 
#    0.000    0.000    0.000    0.000    0.000    0.000 
#
# Total GULP energy -100375.410631 kJ/mol
# GULP energy per Si atom -5576.411702 kJ/mol
# Density = 2.366033 g / cm^3
# Si number density = 23.714304 Si / 1000 Ang^3
#
#
#
# Elastic Constant Matrix: (Units=GPa)
#
#
# Indices 1 2 3 4 5 6 
#
# 1 29.3113 8.5492 31.8426 0.0000 0.0000 0.0000
# 2 8.5492 95.1729 52.7237 0.0000 0.0000 0.0000
# 3 31.8426 52.7237 156.5037 0.0000 0.0000 0.0000
# 4 0.0000 0.0000 0.0000 50.6634 0.0000 0.0000
# 5 0.0000 0.0000 0.0000 0.0000 38.0015 0.0000
# 6 0.0000 0.0000 0.0000 0.0000 0.0000 -0.5551
#
#
#
# Elastic Compliance Matrix: (Units=1/GPa)
#
#
# Indices 1 2 3 4 5 6 
#
# 1 0.043915 0.001236 -0.009351 0.000000 0.000000 0.000000
# 2 0.001236 0.012953 -0.004615 0.000000 0.000000 0.000000
# 3 -0.009351 -0.004615 0.009847 0.000000 0.000000 0.000000
# 4 0.000000 0.000000 0.000000 0.019738 0.000000 0.000000
# 5 0.000000 0.000000 0.000000 0.000000 0.026315 0.000000
# 6 0.000000 0.000000 0.000000 0.000000 0.000000 -1.801324
#
#
# Mechanical properties :
#
#
# Convention : Reuss Voigt Hill
#
# Bulk Modulus (GPa) = 24.24037 51.91321 38.07679
# Shear Modulus (GPa) = -3.03151 30.14677 13.55763
#
# Velocity S-wave (km/s) = -1.13187 3.56933 2.39363
# Velocity P-wave (km/s) = 2.92162 6.23902 4.87141
#
# Compressibility (1/GPa) = 0.04125350
#
# Stress axis : x y z
#
# Youngs Moduli (GPa) = 22.77119 77.20333 101.55371
#
# Poissons Ratio (x) = -0.09540 0.94967
# Poissons Ratio (y) = -0.02814 0.46867
# Poissons Ratio (z) = 0.21294 0.35629
#
# Static dielectric constant tensor:
#      x y z
#    x 1.936170 0.000000 0.000000 
#    y 0.000000 1.891540 0.000000 
#    z 0.000000 0.000000 2.063690 
# 
# From -- ./inp_files/16124.got.cif
#   From: 2010.05.17/outbox.cif.g08.bks.cpg/sg20_9_cif.got.tgz:16124.got - 2010.06.03 22:52:26.
