data_PCOD9317065
_publ_section_title
;
Structure prediction by ZEFSAII (Michael W. Deem and Ramdas Pophale) SiO2 
 PCOD9317065
Probable space group: C 2 2 21
;
_chemical_formula_sum "Si O2"
_cell_formula_units_Z 52
_cell_length_a 26.282440
_cell_length_b 12.809608
_cell_length_c 8.816432
_cell_angle_alpha 90.000000
_cell_angle_beta 90.000000
_cell_angle_gamma 90.000000
_cell_volume 2968.208357
_symmetry_space_group_name_H-M "C 2 2 21"
_symmetry_group_IT_number 20
_symmetry_cell_setting 'orthorhombic'
loop_
_space_group_symop_operation_xyz
x,y,z
-x,-y,1/2+z
x,-y,-z
-x,y,1/2-z
1/2+x,1/2+y,z
1/2-x,1/2-y,1/2+z
1/2+x,1/2-y,-z
1/2-x,1/2+y,1/2-z
loop_
_atom_site_type_symbol
_atom_site_label
_atom_site_fract_x
_atom_site_fract_y
_atom_site_fract_z
Si Si1 0.333504 0.815282 0.880216
Si Si2 0.052620 0.617215 0.062216
Si Si3 0.640782 0.273111 0.049053
Si Si4 0.758184 0.475340 0.754843
Si Si5 0.438588 0.113660 0.071991
Si Si6 0.170272 0.000000 0.000000
Si Si7 0.741939 0.169037 0.956575
O O1 0.347219 0.757512 0.722906
O O2 0.386662 0.826611 0.967678
O O3 0.289713 0.745688 0.952979
O O4 0.307243 0.927294 0.841638
O O5 0.092949 0.701758 0.003935
O O6 0.059467 0.608798 0.244420
O O7 0.994814 0.652164 0.026280
O O8 0.061016 0.500000 0.000000
O O9 0.637243 0.397002 0.031671
O O10 0.690682 0.235462 0.960655
O O11 0.708859 0.476107 0.861212
O O12 0.753715 0.400008 0.608729
O O13 0.762124 0.591105 0.686025
O O14 0.434300 0.000000 0.000000
#
# Coordination Sequence:
#
# PCOD9317065 Si02
#       7
#     8   8   8   8   8   4   8
#     4  10  19  34  53  80 108 136 178 212 267 322
#     4   9  19  37  55  78 108 134 175 221 272 318
#     4  10  21  32  54  78 107 144 174 219 262 316
#     4  10  22  33  51  75 114 138 175 218 260 320
#     4   9  19  34  55  81 102 138 170 220 273 310
#     4  12  20  36  50  78 108 140 184 214 252 320
#     4  10  20  36  50  77 109 147 173 211 272 315
#
# _framework density 17.518986000000002
#
# number of rings (size 3 to 8) (size 9 to 14) (size 15 to 20)
#    0.000    2.154    3.077    0.000    7.538    0.000 
#    2.769    0.000    0.000    1.846    0.000    0.000 
#    0.000    0.000    0.000    0.000    0.000    0.000 
#
# Total GULP energy -144940.691699 kJ/mol
# GULP energy per Si atom -5574.641988 kJ/mol
# Density = 1.747911 g / cm^3
# Si number density = 17.518986 Si / 1000 Ang^3
#
#
#
# Elastic Constant Matrix: (Units=GPa)
#
#
# Indices 1 2 3 4 5 6 
#
# 1 156.1027 83.9289 11.7683 0.0000 0.0000 0.0000
# 2 83.9289 109.7842 19.2844 0.0000 0.0000 0.0000
# 3 11.7683 19.2844 14.2449 0.0000 0.0000 0.0000
# 4 0.0000 0.0000 0.0000 12.1093 0.0000 0.0000
# 5 0.0000 0.0000 0.0000 0.0000 17.4663 0.0000
# 6 0.0000 0.0000 0.0000 0.0000 0.0000 29.8484
#
#
#
# Elastic Compliance Matrix: (Units=1/GPa)
#
#
# Indices 1 2 3 4 5 6 
#
# 1 0.010974 -0.008918 0.003006 0.000000 0.000000 0.000000
# 2 -0.008918 0.019197 -0.018622 0.000000 0.000000 0.000000
# 3 0.003006 -0.018622 0.092926 0.000000 0.000000 0.000000
# 4 0.000000 0.000000 0.000000 0.082581 0.000000 0.000000
# 5 0.000000 0.000000 0.000000 0.000000 0.057253 0.000000
# 6 0.000000 0.000000 0.000000 0.000000 0.000000 0.033503
#
#
# Mechanical properties :
#
#
# Convention : Reuss Voigt Hill
#
# Bulk Modulus (GPa) = 13.50769 56.67721 35.09245
# Shear Modulus (GPa) = 13.50705 22.89480 18.20092
#
# Velocity S-wave (km/s) = 2.77969 3.61897 3.22673
# Velocity P-wave (km/s) = 4.24609 7.06291 5.82726
#
# Compressibility (1/GPa) = 0.07403191
#
# Stress axis : x y z
#
# Youngs Moduli (GPa) = 91.12495 52.09096 10.76123
#
# Poissons Ratio (x) = 0.46452 -0.03235
# Poissons Ratio (y) = 0.81261 0.20039
# Poissons Ratio (z) = -0.27396 0.97001
#
# Static dielectric constant tensor:
#      x y z
#    x 1.616490 0.000000 0.000000 
#    y 0.000000 1.592490 0.000000 
#    z 0.000000 0.000000 1.627340 
# 
# From -- ./inp_files/11071.got.cif
#   From: 2010.05.17/outbox.cif.g08.bks.cpg/sg20_6_cif.got.tgz:11071.got - 2010.06.03 22:52:26.
