data_PCOD9317274
_publ_section_title
;
Structure prediction by ZEFSAII (Michael W. Deem and Ramdas Pophale) SiO2 
 PCOD9317274
Probable space group: C 2 2 21
;
_chemical_formula_sum "Si O2"
_cell_formula_units_Z 48
_cell_length_a 12.868468
_cell_length_b 14.080499
_cell_length_c 13.944741
_cell_angle_alpha 90.000000
_cell_angle_beta 90.000000
_cell_angle_gamma 90.000000
_cell_volume 2526.709687
_symmetry_space_group_name_H-M "C 2 2 21"
_symmetry_group_IT_number 20
_symmetry_cell_setting 'orthorhombic'
loop_
_space_group_symop_operation_xyz
x,y,z
-x,-y,1/2+z
x,-y,-z
-x,y,1/2-z
1/2+x,1/2+y,z
1/2-x,1/2-y,1/2+z
1/2+x,1/2-y,-z
1/2-x,1/2+y,1/2-z
loop_
_atom_site_type_symbol
_atom_site_label
_atom_site_fract_x
_atom_site_fract_y
_atom_site_fract_z
Si Si1 0.936377 0.827073 0.658193
Si Si2 0.256656 0.505246 0.885966
Si Si3 0.219494 0.223344 0.658569
Si Si4 0.602119 0.847054 0.811406
Si Si5 0.983159 0.221112 0.948629
Si Si6 0.999486 0.984590 0.109946
O O1 0.823601 0.783167 0.650729
O O2 0.000000 0.791201 0.750000
O O3 0.995041 0.802464 0.558849
O O4 0.930659 0.941874 0.667041
O O5 0.250230 0.612467 0.845614
O O6 0.182594 0.431436 0.831909
O O7 0.379780 0.483038 0.879458
O O8 0.231878 0.500000 0.000000
O O9 0.159391 0.263588 0.751659
O O10 0.137916 0.240773 0.571829
O O11 0.500000 0.876245 0.750000
O O12 0.556593 0.803895 0.909758
O O13 0.004744 0.128420 0.880647
O O14 0.030034 0.000000 0.000000
#
# Coordination Sequence:
#
# PCOD9317274 Si02
#       6
#     8   8   8   8   8   8
#     4  11  21  33  57  87 112 140 187 244 283 322
#     4  10  19  36  59  81 110 151 189 227 280 342
#     4  10  22  36  57  86 112 147 190 232 280 335
#     4  10  21  37  57  80 113 151 189 230 277 337
#     4   9  20  39  56  78 112 152 186 223 284 350
#     4   8  17  33  54  78 104 135 179 228 279 332
#
# _framework density 18.997036999999999
#
# number of rings (size 3 to 8) (size 9 to 14) (size 15 to 20)
#    0.000    2.333    0.000    3.000    0.000    6.667 
#    0.000    0.000    0.000   24.000    0.000    0.000 
#    0.000    0.000    0.000    0.000    0.000    0.000 
#
# Total GULP energy -133796.165661 kJ/mol
# GULP energy per Si atom -5574.840236 kJ/mol
# Density = 1.895380 g / cm^3
# Si number density = 18.997037 Si / 1000 Ang^3
#
#
#
# Elastic Constant Matrix: (Units=GPa)
#
#
# Indices 1 2 3 4 5 6 
#
# 1 82.6384 52.7164 32.0267 0.0000 0.0000 0.0000
# 2 52.7164 94.2935 30.7466 0.0000 0.0000 0.0000
# 3 32.0267 30.7466 108.8826 0.0000 0.0000 0.0000
# 4 0.0000 0.0000 0.0000 20.1644 0.0000 0.0000
# 5 0.0000 0.0000 0.0000 0.0000 16.6939 0.0000
# 6 0.0000 0.0000 0.0000 0.0000 0.0000 41.2103
#
#
#
# Elastic Compliance Matrix: (Units=1/GPa)
#
#
# Indices 1 2 3 4 5 6 
#
# 1 0.019631 -0.010014 -0.002946 0.000000 0.000000 0.000000
# 2 -0.010014 0.016789 -0.001795 0.000000 0.000000 0.000000
# 3 -0.002946 -0.001795 0.010558 0.000000 0.000000 0.000000
# 4 0.000000 0.000000 0.000000 0.049592 0.000000 0.000000
# 5 0.000000 0.000000 0.000000 0.000000 0.059902 0.000000
# 6 0.000000 0.000000 0.000000 0.000000 0.000000 0.024266
#
#
# Mechanical properties :
#
#
# Convention : Reuss Voigt Hill
#
# Bulk Modulus (GPa) = 57.25427 57.42156 57.33791
# Shear Modulus (GPa) = 23.14034 26.96870 25.05452
#
# Velocity S-wave (km/s) = 3.49392 3.77188 3.63556
# Velocity P-wave (km/s) = 6.81767 7.01866 6.91890
#
# Compressibility (1/GPa) = 0.01746595
#
# Stress axis : x y z
#
# Youngs Moduli (GPa) = 50.93955 59.56173 94.71626
#
# Poissons Ratio (x) = 0.59647 0.27907
# Poissons Ratio (y) = 0.51013 0.17005
# Poissons Ratio (z) = 0.15009 0.10694
#
# Static dielectric constant tensor:
#      x y z
#    x 1.637870 0.000000 0.000000 
#    y 0.000000 1.694310 0.000000 
#    z 0.000000 0.000000 1.690370 
# 
# From -- ./inp_files/19926.got.cif
#   From: 2010.05.17/outbox.cif.g08.bks.cpg/sg20_10_cif.got.tgz:19926.got - 2010.06.03 22:52:26.
