data_PCOD9317055
_publ_section_title
;
Structure prediction by ZEFSAII (Michael W. Deem and Ramdas Pophale) SiO2 
 PCOD9317055
Probable space group: C 2 2 21
;
_chemical_formula_sum "Si O2"
_cell_formula_units_Z 48
_cell_length_a 7.530691
_cell_length_b 19.301646
_cell_length_c 16.169786
_cell_angle_alpha 90.000000
_cell_angle_beta 90.000000
_cell_angle_gamma 90.000000
_cell_volume 2350.354908
_symmetry_space_group_name_H-M "C 2 2 21"
_symmetry_group_IT_number 20
_symmetry_cell_setting 'orthorhombic'
loop_
_space_group_symop_operation_xyz
x,y,z
-x,-y,1/2+z
x,-y,-z
-x,y,1/2-z
1/2+x,1/2+y,z
1/2-x,1/2-y,1/2+z
1/2+x,1/2-y,-z
1/2-x,1/2+y,1/2-z
loop_
_atom_site_type_symbol
_atom_site_label
_atom_site_fract_x
_atom_site_fract_y
_atom_site_fract_z
Si Si1 0.961158 0.408150 0.658396
Si Si2 0.042055 0.078292 0.656092
Si Si3 0.533744 0.333179 0.501036
Si Si4 0.571807 0.042739 0.913401
Si Si5 0.535823 0.579742 0.343385
Si Si6 0.540208 0.172182 0.002339
O O1 0.032848 0.485226 0.638854
O O2 0.749479 0.417973 0.649316
O O3 0.024332 0.352826 0.591890
O O4 0.000000 0.385778 0.750000
O O5 0.975649 0.130354 0.584637
O O6 0.252658 0.066703 0.636589
O O7 0.000000 0.101115 0.750000
O O8 0.971514 0.999445 0.647954
O O9 0.465411 0.374690 0.581026
O O10 0.494008 0.252309 0.510508
O O11 0.747536 0.337825 0.500567
O O12 0.472871 0.113239 0.939053
O O13 0.616445 0.000000 0.000000
O O14 0.500000 0.604258 0.250000
#
# Coordination Sequence:
#
# PCOD9317055 Si02
#       6
#     8   8   8   8   8   8
#     4   9  17  31  53  75  94 123 166 209 243 288
#     4   9  16  29  52  75  94 123 165 204 241 289
#     4  10  19  34  50  71 102 134 163 202 245 294
#     4   8  15  32  52  69  94 131 165 199 247 298
#     4   9  18  33  52  73  96 128 167 204 249 293
#     4   9  19  33  51  71  98 133 166 196 245 298
#
# _framework density 20.422446000000001
#
# number of rings (size 3 to 8) (size 9 to 14) (size 15 to 20)
#    0.000    3.000    0.000    3.500    0.000    2.000 
#    0.000   10.833    0.000    8.000    0.000    0.000 
#    0.000    0.000    0.000    0.000    0.000    0.000 
#
# Total GULP energy -133693.438477 kJ/mol
# GULP energy per Si atom -5570.559937 kJ/mol
# Density = 2.037596 g / cm^3
# Si number density = 20.422446 Si / 1000 Ang^3
#
#
#
# Elastic Constant Matrix: (Units=GPa)
#
#
# Indices 1 2 3 4 5 6 
#
# 1 39.7299 -1.5253 -1.0482 0.0000 0.0000 0.0000
# 2 -1.5253 140.7127 85.7333 0.0000 0.0000 0.0000
# 3 -1.0482 85.7333 136.0929 0.0000 0.0000 0.0000
# 4 0.0000 0.0000 0.0000 13.3186 0.0000 0.0000
# 5 0.0000 0.0000 0.0000 0.0000 19.5808 0.0000
# 6 0.0000 0.0000 0.0000 0.0000 0.0000 20.1897
#
#
#
# Elastic Compliance Matrix: (Units=1/GPa)
#
#
# Indices 1 2 3 4 5 6 
#
# 1 0.025181 0.000251 0.000036 0.000000 0.000000 0.000000
# 2 0.000251 0.011536 -0.007265 0.000000 0.000000 0.000000
# 3 0.000036 -0.007265 0.011925 0.000000 0.000000 0.000000
# 4 0.000000 0.000000 0.000000 0.075083 0.000000 0.000000
# 5 0.000000 0.000000 0.000000 0.000000 0.051070 0.000000
# 6 0.000000 0.000000 0.000000 0.000000 0.000000 0.049530
#
#
# Mechanical properties :
#
#
# Convention : Reuss Voigt Hill
#
# Bulk Modulus (GPa) = 28.83106 53.65056 41.24081
# Shear Modulus (GPa) = 20.01252 26.17620 23.09436
#
# Velocity S-wave (km/s) = 3.13378 3.58402 3.36643
# Velocity P-wave (km/s) = 5.21939 6.59199 5.94543
#
# Compressibility (1/GPa) = 0.03468482
#
# Stress axis : x y z
#
# Youngs Moduli (GPa) = 39.71315 86.68522 83.85711
#
# Poissons Ratio (x) = -0.02178 -0.00299
# Poissons Ratio (y) = -0.00998 0.60925
# Poissons Ratio (z) = -0.00142 0.62979
#
# Static dielectric constant tensor:
#      x y z
#    x 1.795260 0.000000 0.000000 
#    y 0.000000 1.744230 0.000000 
#    z 0.000000 0.000000 1.743600 
# 
# From -- ./inp_files/15717.got.cif
#   From: 2010.05.17/outbox.cif.g08.bks.cpg/sg20_8_cif.got.tgz:15717.got - 2010.06.03 22:52:26.
