data_PCOD9317188
_publ_section_title
;
Structure prediction by ZEFSAII (Michael W. Deem and Ramdas Pophale) SiO2 
 PCOD9317188
Probable space group: C 2 2 21
;
_chemical_formula_sum "Si O2"
_cell_formula_units_Z 52
_cell_length_a 13.310561
_cell_length_b 9.800360
_cell_length_c 16.756624
_cell_angle_alpha 90.000000
_cell_angle_beta 90.000000
_cell_angle_gamma 90.000000
_cell_volume 2185.872940
_symmetry_space_group_name_H-M "C 2 2 21"
_symmetry_group_IT_number 20
_symmetry_cell_setting 'orthorhombic'
loop_
_space_group_symop_operation_xyz
x,y,z
-x,-y,1/2+z
x,-y,-z
-x,y,1/2-z
1/2+x,1/2+y,z
1/2-x,1/2-y,1/2+z
1/2+x,1/2-y,-z
1/2-x,1/2+y,1/2-z
loop_
_atom_site_type_symbol
_atom_site_label
_atom_site_fract_x
_atom_site_fract_y
_atom_site_fract_z
Si Si1 0.904535 0.321170 0.642939
Si Si2 0.273662 0.337130 0.148663
Si Si3 0.265164 0.736038 0.515191
Si Si4 0.427520 0.500000 0.500000
Si Si5 0.019068 0.034251 0.666590
Si Si6 0.887612 0.587101 0.087848
Si Si7 0.108769 0.575831 0.736999
O O1 0.797537 0.303953 0.598446
O O2 0.950737 0.174948 0.670883
O O3 0.897138 0.434047 0.711687
O O4 0.994061 0.378322 0.584961
O O5 0.230436 0.342509 0.058515
O O6 0.362695 0.441735 0.161867
O O7 0.330909 0.193925 0.145794
O O8 0.194776 0.342019 0.218853
O O9 0.355720 0.629219 0.507036
O O10 0.166746 0.641375 0.493610
O O11 0.489241 0.477332 0.580519
O O12 0.000000 0.960583 0.750000
O O13 0.875071 0.454334 0.143761
O O14 0.000000 0.640037 0.750000
#
# Coordination Sequence:
#
# PCOD9317188 Si02
#       7
#     8   8   8   4   8   8   8
#     4   9  17  35  59  79 111 154 194 236 297 361
#     4   9  20  36  58  83 112 150 194 248 282 357
#     4   9  20  37  55  83 118 144 195 246 290 344
#     4  10  22  38  60  84 124 154 190 256 302 340
#     4  10  20  36  61  84 115 160 201 234 297 367
#     4   8  18  36  56  82 115 147 193 233 292 362
#     4  10  19  35  59  84 112 155 192 239 299 359
#
# _framework density 23.789121999999999
#
# number of rings (size 3 to 8) (size 9 to 14) (size 15 to 20)
#    0.923    1.846    0.000    2.308    2.154    1.846 
#    0.000    5.385    0.000    0.000    0.000    0.000 
#    0.000    0.000    0.000    0.000    0.000    0.000 
#
# Total GULP energy -144764.491429 kJ/mol
# GULP energy per Si atom -5567.865055 kJ/mol
# Density = 2.373498 g / cm^3
# Si number density = 23.789122 Si / 1000 Ang^3
#
#
#
# Elastic Constant Matrix: (Units=GPa)
#
#
# Indices 1 2 3 4 5 6 
#
# 1 89.8782 3.5692 69.9716 0.0000 0.0000 0.0000
# 2 3.5692 26.2104 25.6868 0.0000 0.0000 0.0000
# 3 69.9716 25.6868 173.1409 0.0000 0.0000 0.0000
# 4 0.0000 0.0000 0.0000 -15.1757 0.0000 0.0000
# 5 0.0000 0.0000 0.0000 0.0000 45.7218 0.0000
# 6 0.0000 0.0000 0.0000 0.0000 0.0000 0.6671
#
#
#
# Elastic Compliance Matrix: (Units=1/GPa)
#
#
# Indices 1 2 3 4 5 6 
#
# 1 0.016799 0.005108 -0.007547 0.000000 0.000000 0.000000
# 2 0.005108 0.046197 -0.008918 0.000000 0.000000 0.000000
# 3 -0.007547 -0.008918 0.010149 0.000000 0.000000 0.000000
# 4 0.000000 0.000000 0.000000 -0.065895 0.000000 0.000000
# 5 0.000000 0.000000 0.000000 0.000000 0.021871 0.000000
# 6 0.000000 0.000000 0.000000 0.000000 0.000000 1.498959
#
#
# Mechanical properties :
#
#
# Convention : Reuss Voigt Hill
#
# Bulk Modulus (GPa) = 19.82892 54.18718 37.00805
# Shear Modulus (GPa) = 3.18958 18.90943 11.04951
#
# Velocity S-wave (km/s) = 1.15917 2.82242 2.15751
# Velocity P-wave (km/s) = 3.18512 5.78351 4.66872
#
# Compressibility (1/GPa) = 0.05043140
#
# Stress axis : x y z
#
# Youngs Moduli (GPa) = 59.52911 21.64632 98.53605
#
# Poissons Ratio (x) = -0.11058 0.74362
# Poissons Ratio (y) = -0.30410 0.87876
# Poissons Ratio (z) = 0.44925 0.19305
#
# Static dielectric constant tensor:
#      x y z
#    x 1.939620 0.000000 0.000000 
#    y 0.000000 2.045520 0.000000 
#    z 0.000000 0.000000 2.096220 
# 
# From -- ./inp_files/24368.got.cif
#   From: 2010.05.17/outbox.cif.g08.bks.cpg/sg20_13_cif.got.tgz:24368.got - 2010.06.03 22:52:26.
