data_PCOD9317698
_publ_section_title
;
Structure prediction by ZEFSAII (Michael W. Deem and Ramdas Pophale) SiO2 
 PCOD9317698
Probable space group: C 2 2 21
;
_chemical_formula_sum "Si O2"
_cell_formula_units_Z 44
_cell_length_a 13.532017
_cell_length_b 22.542300
_cell_length_c 7.565130
_cell_angle_alpha 90.000000
_cell_angle_beta 90.000000
_cell_angle_gamma 90.000000
_cell_volume 2307.688338
_symmetry_space_group_name_H-M "C 2 2 21"
_symmetry_group_IT_number 20
_symmetry_cell_setting 'orthorhombic'
loop_
_space_group_symop_operation_xyz
x,y,z
-x,-y,1/2+z
x,-y,-z
-x,y,1/2-z
1/2+x,1/2+y,z
1/2-x,1/2-y,1/2+z
1/2+x,1/2-y,-z
1/2-x,1/2+y,1/2-z
loop_
_atom_site_type_symbol
_atom_site_label
_atom_site_fract_x
_atom_site_fract_y
_atom_site_fract_z
Si Si1 0.139508 0.851553 0.876542
Si Si2 0.616132 0.690452 0.757596
Si Si3 0.000000 0.252672 0.250000
Si Si4 0.057089 0.683998 0.089159
Si Si5 0.500000 0.447875 0.750000
Si Si6 0.754582 0.125965 0.023780
Si Si7 0.158475 0.000000 0.500000
O O1 0.089384 0.791501 0.800437
O O2 0.218917 0.870103 0.731869
O O3 0.055126 0.902367 0.881478
O O4 0.170228 0.839556 0.075822
O O5 0.500000 0.671901 0.750000
O O6 0.608576 0.759757 0.809716
O O7 0.672997 0.670418 0.583234
O O8 0.010531 0.290596 0.429607
O O9 0.000000 0.652941 0.250000
O O10 0.142646 0.645663 0.001423
O O11 0.584220 0.486144 0.660255
O O12 0.779230 0.059140 0.966739
#
# Coordination Sequence:
#
# PCOD9317698 Si02
#       7
#     8   8   4   8   4   8   4
#     4   9  18  34  54  84 118 144 182 224 282 350
#     4  10  20  34  57  86 116 149 183 231 293 343
#     4   9  18  36  58  82 116 146 187 228 294 348
#     4  10  22  37  58  82 114 151 190 243 291 333
#     4   9  18  32  54  78 114 160 169 224 280 346
#     4  11  23  36  57  86 115 150 193 233 280 346
#     4  10  22  36  56  82 118 148 192 224 280 346
#
# _framework density 19.066700000000001
#
# number of rings (size 3 to 8) (size 9 to 14) (size 15 to 20)
#    0.000    2.182    0.000    5.455    8.909    1.455 
#    0.000    0.000    2.000    0.000    0.000    0.000 
#    0.000    0.000    0.000    0.000    0.000    0.000 
#
# Total GULP energy -122658.070382 kJ/mol
# GULP energy per Si atom -5575.366836 kJ/mol
# Density = 1.902330 g / cm^3
# Si number density = 19.066700 Si / 1000 Ang^3
#
#
#
# Elastic Constant Matrix: (Units=GPa)
#
#
# Indices 1 2 3 4 5 6 
#
# 1 51.7021 26.9487 19.8254 0.0000 0.0000 0.0000
# 2 26.9487 59.2755 24.5250 0.0000 0.0000 0.0000
# 3 19.8254 24.5250 90.9008 0.0000 0.0000 0.0000
# 4 0.0000 0.0000 0.0000 16.4542 0.0000 0.0000
# 5 0.0000 0.0000 0.0000 0.0000 18.8984 0.0000
# 6 0.0000 0.0000 0.0000 0.0000 0.0000 21.6821
#
#
#
# Elastic Compliance Matrix: (Units=1/GPa)
#
#
# Indices 1 2 3 4 5 6 
#
# 1 0.025962 -0.010649 -0.002789 0.000000 0.000000 0.000000
# 2 -0.010649 0.023358 -0.003979 0.000000 0.000000 0.000000
# 3 -0.002789 -0.003979 0.012683 0.000000 0.000000 0.000000
# 4 0.000000 0.000000 0.000000 0.060775 0.000000 0.000000
# 5 0.000000 0.000000 0.000000 0.000000 0.052915 0.000000
# 6 0.000000 0.000000 0.000000 0.000000 0.000000 0.046121
#
#
# Mechanical properties :
#
#
# Convention : Reuss Voigt Hill
#
# Bulk Modulus (GPa) = 36.80858 38.27517 37.54188
# Shear Modulus (GPa) = 18.81787 20.11221 19.46504
#
# Velocity S-wave (km/s) = 3.14498 3.25134 3.19861
# Velocity P-wave (km/s) = 5.70394 5.84918 5.77702
#
# Compressibility (1/GPa) = 0.02716758
#
# Stress axis : x y z
#
# Youngs Moduli (GPa) = 38.51820 42.81124 78.84588
#
# Poissons Ratio (x) = 0.45590 0.21991
# Poissons Ratio (y) = 0.41019 0.31377
# Poissons Ratio (z) = 0.10743 0.17037
#
# Static dielectric constant tensor:
#      x y z
#    x 1.695490 0.000000 0.000000 
#    y 0.000000 1.683170 0.000000 
#    z 0.000000 0.000000 1.689480 
# 
# From -- ./inp_files/7351.got.cif
#   From: 2010.05.17/outbox.cif.g08.bks.cpg/sg20_4_cif.got.tgz:7351.got - 2010.06.03 22:52:26.
