data_PCOD9317630
_publ_section_title
;
Structure prediction by ZEFSAII (Michael W. Deem and Ramdas Pophale) SiO2 
 PCOD9317630
Probable space group: C 2 2 21
;
_chemical_formula_sum "Si O2"
_cell_formula_units_Z 48
_cell_length_a 10.812109
_cell_length_b 23.395792
_cell_length_c 9.888375
_cell_angle_alpha 90.000000
_cell_angle_beta 90.000000
_cell_angle_gamma 90.000000
_cell_volume 2501.342112
_symmetry_space_group_name_H-M "C 2 2 21"
_symmetry_group_IT_number 20
_symmetry_cell_setting 'orthorhombic'
loop_
_space_group_symop_operation_xyz
x,y,z
-x,-y,1/2+z
x,-y,-z
-x,y,1/2-z
1/2+x,1/2+y,z
1/2-x,1/2-y,1/2+z
1/2+x,1/2-y,-z
1/2-x,1/2+y,1/2-z
loop_
_atom_site_type_symbol
_atom_site_label
_atom_site_fract_x
_atom_site_fract_y
_atom_site_fract_z
Si Si1 0.738038 0.358717 0.013676
Si Si2 0.296388 0.795573 0.262264
Si Si3 0.351515 0.825062 0.740738
Si Si4 0.025017 0.215598 0.104066
Si Si5 0.178180 0.851734 0.498080
Si Si6 0.527676 0.557728 0.912671
O O1 0.822929 0.327178 0.122758
O O2 0.663403 0.413735 0.065532
O O3 0.806075 0.361217 0.870584
O O4 0.625957 0.314457 0.986852
O O5 0.210514 0.738657 0.247638
O O6 0.412140 0.773846 0.350046
O O7 0.229460 0.842932 0.350119
O O8 0.500000 0.820562 0.750000
O O9 0.286921 0.854119 0.609225
O O10 0.000000 0.184939 0.250000
O O11 0.896106 0.207371 0.030991
O O12 0.075683 0.901173 0.484716
O O13 0.500000 0.552298 0.750000
O O14 0.524093 0.500000 0.000000
#
# Coordination Sequence:
#
# PCOD9317630 Si02
#       6
#     8   8   8   8   8   8
#     4  10  22  39  57  91 127 156 213 266 303 372
#     4  11  22  34  56  84 131 173 209 250 308 372
#     4  11  24  36  60  89 131 186 206 242 306 387
#     4  10  20  33  54  81 123 170 201 244 306 354
#     4  11  23  41  57  92 133 163 214 267 304 375
#     4  11  25  43  73  98 118 159 209 280 335 365
#
# _framework density 19.189698
#
# number of rings (size 3 to 8) (size 9 to 14) (size 15 to 20)
#    0.000    1.333    5.000    2.000    9.333    0.000 
#    0.000    0.000    0.000    1.000    0.000    0.000 
#    0.000    0.000    0.000    0.000    0.000    0.000 
#
# Total GULP energy -133630.650277 kJ/mol
# GULP energy per Si atom -5567.943762 kJ/mol
# Density = 1.914602 g / cm^3
# Si number density = 19.189698 Si / 1000 Ang^3
#
#
#
# Elastic Constant Matrix: (Units=GPa)
#
#
# Indices 1 2 3 4 5 6 
#
# 1 90.0963 30.4839 12.1565 0.0000 0.0000 0.0000
# 2 30.4839 93.3153 36.1588 0.0000 0.0000 0.0000
# 3 12.1565 36.1588 92.8464 0.0000 0.0000 0.0000
# 4 0.0000 0.0000 0.0000 24.4418 0.0000 0.0000
# 5 0.0000 0.0000 0.0000 0.0000 31.0741 0.0000
# 6 0.0000 0.0000 0.0000 0.0000 0.0000 25.0924
#
#
#
# Elastic Compliance Matrix: (Units=1/GPa)
#
#
# Indices 1 2 3 4 5 6 
#
# 1 0.012479 -0.004055 -0.000054 0.000000 0.000000 0.000000
# 2 -0.004055 0.013939 -0.004897 0.000000 0.000000 0.000000
# 3 -0.000054 -0.004897 0.012685 0.000000 0.000000 0.000000
# 4 0.000000 0.000000 0.000000 0.040913 0.000000 0.000000
# 5 0.000000 0.000000 0.000000 0.000000 0.032181 0.000000
# 6 0.000000 0.000000 0.000000 0.000000 0.000000 0.039853
#
#
# Mechanical properties :
#
#
# Convention : Reuss Voigt Hill
#
# Bulk Modulus (GPa) = 47.42079 48.20626 47.81353
# Shear Modulus (GPa) = 28.23362 29.28559 28.75961
#
# Velocity S-wave (km/s) = 3.83990 3.91078 3.87551
# Velocity P-wave (km/s) = 6.66521 6.75039 6.70794
#
# Compressibility (1/GPa) = 0.02108780
#
# Stress axis : x y z
#
# Youngs Moduli (GPa) = 80.13649 71.74182 78.83376
#
# Poissons Ratio (x) = 0.29094 0.00430
# Poissons Ratio (y) = 0.32498 0.38609
# Poissons Ratio (z) = 0.00437 0.35135
#
# Static dielectric constant tensor:
#      x y z
#    x 1.740030 0.000000 0.000000 
#    y 0.000000 1.657850 0.000000 
#    z 0.000000 0.000000 1.750850 
# 
# From -- ./inp_files/7396.got.cif
#   From: 2010.05.17/outbox.cif.g08.bks.cpg/sg20_4_cif.got.tgz:7396.got - 2010.06.03 22:52:26.
