data_PCOD9317142
_publ_section_title
;
Structure prediction by ZEFSAII (Michael W. Deem and Ramdas Pophale) SiO2 
 PCOD9317142
Probable space group: C 2 2 21
;
_chemical_formula_sum "Si O2"
_cell_formula_units_Z 56
_cell_length_a 20.905812
_cell_length_b 8.443579
_cell_length_c 15.497863
_cell_angle_alpha 90.000000
_cell_angle_beta 90.000000
_cell_angle_gamma 90.000000
_cell_volume 2735.680842
_symmetry_space_group_name_H-M "C 2 2 21"
_symmetry_group_IT_number 20
_symmetry_cell_setting 'orthorhombic'
loop_
_space_group_symop_operation_xyz
x,y,z
-x,-y,1/2+z
x,-y,-z
-x,y,1/2-z
1/2+x,1/2+y,z
1/2-x,1/2-y,1/2+z
1/2+x,1/2-y,-z
1/2-x,1/2+y,1/2-z
loop_
_atom_site_type_symbol
_atom_site_label
_atom_site_fract_x
_atom_site_fract_y
_atom_site_fract_z
Si Si1 0.069147 0.345527 0.277463
Si Si2 0.937580 0.981187 0.199754
Si Si3 0.192524 0.203672 0.724504
Si Si4 0.021704 0.000000 0.500000
Si Si5 0.961518 0.664402 0.976208
Si Si6 0.811331 0.495290 0.318826
Si Si7 0.818815 0.324253 0.963550
Si Si8 0.252875 0.000000 0.500000
O O1 0.067554 0.356714 0.380567
O O2 0.125109 0.429131 0.225525
O O3 0.000000 0.408120 0.250000
O O4 0.071867 0.157170 0.261602
O O5 0.874416 0.883954 0.217226
O O6 0.000000 0.915855 0.250000
O O7 0.945923 0.992685 0.095676
O O8 0.191671 0.318652 0.804575
O O9 0.250825 0.083635 0.728174
O O10 0.199942 0.306365 0.636628
O O11 0.995147 0.820139 0.509670
O O12 0.994538 0.500000 0.000000
O O13 0.896107 0.684673 0.030623
O O14 0.797738 0.466195 0.418606
O O15 0.790504 0.161934 0.008209
O O16 0.800740 0.500000 0.000000
#
# Coordination Sequence:
#
# PCOD9317142 Si02
#       8
#     8   8   8   4   8   8   8   4
#     4  10  23  42  62  89 129 166 209 263 320 383
#     4  10  22  41  64  95 129 169 215 267 325 386
#     4  11  23  38  64  98 126 165 212 267 319 380
#     4  10  19  36  62  90 122 165 212 262 312 369
#     4  10  19  34  62  92 113 158 213 259 309 365
#     4  11  24  41  63  93 128 166 209 259 326 383
#     4  10  20  35  62  94 125 160 216 262 310 375
#     4  10  25  40  60  94 130 171 200 260 328 383
#
# _framework density 20.470224999999999
#
# number of rings (size 3 to 8) (size 9 to 14) (size 15 to 20)
#    0.000    1.714    1.429    3.000   10.000    0.571 
#    1.286    2.857    0.000    0.000    0.000    0.000 
#    0.000    0.000    0.000    0.000    0.000    0.000 
#
# Total GULP energy -155995.953528 kJ/mol
# GULP energy per Si atom -5571.284055 kJ/mol
# Density = 2.042363 g / cm^3
# Si number density = 20.470225 Si / 1000 Ang^3
#
#
#
# Elastic Constant Matrix: (Units=GPa)
#
#
# Indices 1 2 3 4 5 6 
#
# 1 97.6332 38.4405 27.4807 0.0000 0.0000 0.0000
# 2 38.4405 130.5435 17.4545 0.0000 0.0000 0.0000
# 3 27.4807 17.4545 32.1522 0.0000 0.0000 0.0000
# 4 0.0000 0.0000 0.0000 25.6681 0.0000 0.0000
# 5 0.0000 0.0000 0.0000 0.0000 -3.6186 0.0000
# 6 0.0000 0.0000 0.0000 0.0000 0.0000 22.8492
#
#
#
# Elastic Compliance Matrix: (Units=1/GPa)
#
#
# Indices 1 2 3 4 5 6 
#
# 1 0.014373 -0.002792 -0.010769 0.000000 0.000000 0.000000
# 2 -0.002792 0.008802 -0.002392 0.000000 0.000000 0.000000
# 3 -0.010769 -0.002392 0.041605 0.000000 0.000000 0.000000
# 4 0.000000 0.000000 0.000000 0.038959 0.000000 0.000000
# 5 0.000000 0.000000 0.000000 0.000000 -0.276351 0.000000
# 6 0.000000 0.000000 0.000000 0.000000 0.000000 0.043765
#
#
# Mechanical properties :
#
#
# Convention : Reuss Voigt Hill
#
# Bulk Modulus (GPa) = 30.41919 47.45335 38.93627
# Shear Modulus (GPa) = -58.15073 20.77663 -18.68705
#
# Velocity S-wave (km/s) = -5.33565 3.18931 -3.02468
# Velocity P-wave (km/s) = 4.80275 6.06583 2.61991
#
# Compressibility (1/GPa) = 0.03287399
#
# Stress axis : x y z
#
# Youngs Moduli (GPa) = 69.57524 113.60585 24.03579
#
# Poissons Ratio (x) = 0.31724 0.25883
# Poissons Ratio (y) = 0.19429 0.05749
# Poissons Ratio (z) = 0.74923 0.27172
#
# Static dielectric constant tensor:
#      x y z
#    x 1.701280 0.000000 0.000000 
#    y 0.000000 1.796900 0.000000 
#    z 0.000000 0.000000 1.722840 
# 
# From -- ./inp_files/21817.got.cif
#   From: 2010.05.17/outbox.cif.g08.bks.cpg/sg20_11_cif.got.tgz:21817.got - 2010.06.03 22:52:26.
