data_PCOD9317996
_publ_section_title
;
Structure prediction by ZEFSAII (Michael W. Deem and Ramdas Pophale) SiO2 
 PCOD9317996
Probable space group: C 2 2 21
;
_chemical_formula_sum "Si O2"
_cell_formula_units_Z 64
_cell_length_a 12.371169
_cell_length_b 25.980218
_cell_length_c 9.745111
_cell_angle_alpha 90.000000
_cell_angle_beta 90.000000
_cell_angle_gamma 90.000000
_cell_volume 3132.133906
_symmetry_space_group_name_H-M "C 2 2 21"
_symmetry_group_IT_number 20
_symmetry_cell_setting 'orthorhombic'
loop_
_space_group_symop_operation_xyz
x,y,z
-x,-y,1/2+z
x,-y,-z
-x,y,1/2-z
1/2+x,1/2+y,z
1/2-x,1/2-y,1/2+z
1/2+x,1/2-y,-z
1/2-x,1/2+y,1/2-z
loop_
_atom_site_type_symbol
_atom_site_label
_atom_site_fract_x
_atom_site_fract_y
_atom_site_fract_z
Si Si1 0.386597 0.949428 0.581859
Si Si2 0.218191 0.242886 0.819603
Si Si3 0.923375 0.190459 0.142233
Si Si4 0.331471 0.124845 0.663907
Si Si5 0.648103 0.047853 0.398156
Si Si6 0.655083 0.853544 0.452702
Si Si7 0.893754 0.838981 0.157479
Si Si8 0.952340 0.288562 0.475304
O O1 0.354935 0.904322 0.476633
O O2 0.335794 0.954061 0.733632
O O3 0.517121 0.948012 0.591447
O O4 0.354953 0.000000 0.500000
O O5 0.311462 0.285500 0.801418
O O6 0.267089 0.193722 0.906006
O O7 0.158492 0.217319 0.689807
O O8 0.123173 0.269655 0.904056
O O9 0.000000 0.162520 0.250000
O O10 0.909317 0.158366 0.004325
O O11 0.992690 0.240005 0.095145
O O12 0.381218 0.115075 0.813997
O O13 0.203648 0.122722 0.691992
O O14 0.376328 0.181976 0.632496
O O15 0.698423 0.101727 0.450574
O O16 0.678630 0.000000 0.500000
O O17 0.549293 0.826694 0.515260
O O18 0.000000 0.844875 0.250000
#
# Coordination Sequence:
#
# PCOD9317996 Si02
#       8
#     8   8   8   8   8   8   8   8
#     4  10  21  37  58  89 123 154 191 236 301 372
#     4  10  22  37  56  81 115 162 213 244 301 350
#     4  11  22  37  55  77 111 155 200 252 294 339
#     4  11  21  38  59  84 116 159 200 244 301 363
#     4  10  20  37  59  91 122 157 191 241 302 364
#     4  10  21  36  58  85 121 161 203 248 296 356
#     4  11  22  39  55  81 112 155 206 251 296 347
#     4  11  19  36  55  78 115 161 203 242 288 346
#
# _framework density 20.433354000000001
#
# number of rings (size 3 to 8) (size 9 to 14) (size 15 to 20)
#    0.000    1.500    3.750    3.375    0.000    1.000 
#    9.000    0.000    0.000    0.000    0.000    7.875 
#    0.000    0.000    0.000    0.000    0.000    0.000 
#
# Total GULP energy -178458.919343 kJ/mol
# GULP energy per Si atom -5576.841229 kJ/mol
# Density = 2.038685 g / cm^3
# Si number density = 20.433354 Si / 1000 Ang^3
#
#
#
# Elastic Constant Matrix: (Units=GPa)
#
#
# Indices 1 2 3 4 5 6 
#
# 1 71.4233 6.4341 13.4003 0.0000 0.0000 0.0000
# 2 6.4341 44.0779 21.7092 0.0000 0.0000 0.0000
# 3 13.4003 21.7092 110.3266 0.0000 0.0000 0.0000
# 4 0.0000 0.0000 0.0000 17.5065 0.0000 0.0000
# 5 0.0000 0.0000 0.0000 0.0000 25.2676 0.0000
# 6 0.0000 0.0000 0.0000 0.0000 0.0000 8.0579
#
#
#
# Elastic Compliance Matrix: (Units=1/GPa)
#
#
# Indices 1 2 3 4 5 6 
#
# 1 0.014402 -0.001374 -0.001479 0.000000 0.000000 0.000000
# 2 -0.001374 0.025253 -0.004802 0.000000 0.000000 0.000000
# 3 -0.001479 -0.004802 0.010189 0.000000 0.000000 0.000000
# 4 0.000000 0.000000 0.000000 0.057122 0.000000 0.000000
# 5 0.000000 0.000000 0.000000 0.000000 0.039576 0.000000
# 6 0.000000 0.000000 0.000000 0.000000 0.000000 0.124101
#
#
# Mechanical properties :
#
#
# Convention : Reuss Voigt Hill
#
# Bulk Modulus (GPa) = 28.95734 34.32392 31.64063
# Shear Modulus (GPa) = 16.80874 22.45201 19.63038
#
# Velocity S-wave (km/s) = 2.87123 3.31840 3.10288
# Velocity P-wave (km/s) = 5.01940 5.61398 5.32500
#
# Compressibility (1/GPa) = 0.03453356
#
# Stress axis : x y z
#
# Youngs Moduli (GPa) = 69.43350 39.59954 98.14924
#
# Poissons Ratio (x) = 0.05441 0.14516
# Poissons Ratio (y) = 0.09540 0.47133
# Poissons Ratio (z) = 0.10269 0.19016
#
# Static dielectric constant tensor:
#      x y z
#    x 1.766820 0.000000 0.000000 
#    y 0.000000 1.791750 0.000000 
#    z 0.000000 0.000000 1.689390 
# 
# From -- ./inp_files/7670.got.cif
#   From: 2010.05.17/outbox.cif.g08.bks.cpg/sg20_4_cif.got.tgz:7670.got - 2010.06.03 22:52:26.
