data_PCOD9317892
_publ_section_title
;
Structure prediction by ZEFSAII (Michael W. Deem and Ramdas Pophale) SiO2 
 PCOD9317892
Probable space group: C 2 2 21
;
_chemical_formula_sum "Si O2"
_cell_formula_units_Z 48
_cell_length_a 29.759698
_cell_length_b 8.754393
_cell_length_c 8.325893
_cell_angle_alpha 90.000000
_cell_angle_beta 90.000000
_cell_angle_gamma 90.000000
_cell_volume 2169.129016
_symmetry_space_group_name_H-M "C 2 2 21"
_symmetry_group_IT_number 20
_symmetry_cell_setting 'orthorhombic'
loop_
_space_group_symop_operation_xyz
x,y,z
-x,-y,1/2+z
x,-y,-z
-x,y,1/2-z
1/2+x,1/2+y,z
1/2-x,1/2-y,1/2+z
1/2+x,1/2-y,-z
1/2-x,1/2+y,1/2-z
loop_
_atom_site_type_symbol
_atom_site_label
_atom_site_fract_x
_atom_site_fract_y
_atom_site_fract_z
Si Si1 0.401321 0.172105 0.940134
Si Si2 0.983706 0.830720 0.067601
Si Si3 0.565809 0.832027 0.071578
Si Si4 0.152342 0.820805 0.015580
Si Si5 0.693313 0.803349 0.316893
Si Si6 0.782000 0.602588 0.339362
O O1 0.421113 0.176609 0.758497
O O2 0.348632 0.212889 0.936097
O O3 0.432282 0.280590 0.046863
O O4 0.405833 0.000000 0.000000
O O5 0.000000 0.821521 0.250000
O O6 0.015245 0.717792 0.964497
O O7 0.989776 0.000000 0.000000
O O8 0.599715 0.717180 0.980604
O O9 0.574244 0.000000 0.000000
O O10 0.171694 0.745447 0.853264
O O11 0.178952 0.729996 0.153444
O O12 0.160474 0.000000 0.000000
O O13 0.735378 0.693192 0.341330
O O14 0.710095 0.978597 0.300339
O O15 0.783211 0.500000 0.500000
#
# Coordination Sequence:
#
# PCOD9317892 Si02
#       6
#     8   8   8   8   8   8
#     4  11  24  42  64  96 132 175 229 284 347 415
#     4  12  26  45  68  97 134 178 230 289 353 418
#     4  11  22  42  67  93 128 172 224 281 344 415
#     4  10  20  36  60  88 120 163 217 274 337 407
#     4  10  22  39  61  91 130 174 221 278 343 421
#     4  10  21  38  59  89 127 170 221 278 347 418
#
# _framework density 22.128698
#
# number of rings (size 3 to 8) (size 9 to 14) (size 15 to 20)
#    0.000    1.333    0.000    7.000    0.000    5.333 
#    0.000    1.667    0.000    0.000    0.000    0.000 
#    0.000    0.000    0.000    0.000    0.000    0.000 
#
# Total GULP energy -134266.327241 kJ/mol
# GULP energy per Si atom -5594.430302 kJ/mol
# Density = 2.207833 g / cm^3
# Si number density = 22.128698 Si / 1000 Ang^3
#
#
#
# Elastic Constant Matrix: (Units=GPa)
#
#
# Indices 1 2 3 4 5 6 
#
# 1 148.7715 56.2351 40.0721 0.0000 0.0000 0.0000
# 2 56.2351 123.9766 24.6066 0.0000 0.0000 0.0000
# 3 40.0721 24.6066 73.3360 0.0000 0.0000 0.0000
# 4 0.0000 0.0000 0.0000 24.0905 0.0000 0.0000
# 5 0.0000 0.0000 0.0000 0.0000 -4.3246 0.0000
# 6 0.0000 0.0000 0.0000 0.0000 0.0000 119.4596
#
#
#
# Elastic Compliance Matrix: (Units=1/GPa)
#
#
# Indices 1 2 3 4 5 6 
#
# 1 0.009005 -0.003330 -0.003803 0.000000 0.000000 0.000000
# 2 -0.003330 0.009873 -0.001493 0.000000 0.000000 0.000000
# 3 -0.003803 -0.001493 0.016215 0.000000 0.000000 0.000000
# 4 0.000000 0.000000 0.000000 0.041510 0.000000 0.000000
# 5 0.000000 0.000000 0.000000 0.000000 -0.231236 0.000000
# 6 0.000000 0.000000 0.000000 0.000000 0.000000 0.008371
#
#
# Mechanical properties :
#
#
# Convention : Reuss Voigt Hill
#
# Bulk Modulus (GPa) = 56.05256 65.32351 60.68803
# Shear Modulus (GPa) = -40.62932 42.85647 1.11358
#
# Velocity S-wave (km/s) = -4.28956 4.40556 0.71015
# Velocity P-wave (km/s) = 0.92276 7.44732 5.30632
#
# Compressibility (1/GPa) = 0.01784040
#
# Stress axis : x y z
#
# Youngs Moduli (GPa) = 111.05322 101.28926 61.67133
#
# Poissons Ratio (x) = 0.33726 0.23454
# Poissons Ratio (y) = 0.36977 0.09209
# Poissons Ratio (z) = 0.42235 0.15125
#
# Static dielectric constant tensor:
#      x y z
#    x 1.823520 0.000000 0.000000 
#    y 0.000000 1.780680 0.000000 
#    z 0.000000 0.000000 1.849300 
# 
# From -- ./inp_files/11423.got.cif
#   From: 2010.05.17/outbox.cif.g08.bks.cpg/sg20_6_cif.got.tgz:11423.got - 2010.06.03 22:52:26.
