data_PCOD9317100
_publ_section_title
;
Structure prediction by ZEFSAII (Michael W. Deem and Ramdas Pophale) SiO2 
 PCOD9317100
Probable space group: C 2 2 21
;
_chemical_formula_sum "Si O2"
_cell_formula_units_Z 56
_cell_length_a 5.217220
_cell_length_b 35.387271
_cell_length_c 15.288319
_cell_angle_alpha 90.000000
_cell_angle_beta 90.000000
_cell_angle_gamma 90.000000
_cell_volume 2822.578040
_symmetry_space_group_name_H-M "C 2 2 21"
_symmetry_group_IT_number 20
_symmetry_cell_setting 'orthorhombic'
loop_
_space_group_symop_operation_xyz
x,y,z
-x,-y,1/2+z
x,-y,-z
-x,y,1/2-z
1/2+x,1/2+y,z
1/2-x,1/2-y,1/2+z
1/2+x,1/2-y,-z
1/2-x,1/2+y,1/2-z
loop_
_atom_site_type_symbol
_atom_site_label
_atom_site_fract_x
_atom_site_fract_y
_atom_site_fract_z
Si Si1 0.500000 0.592335 0.750000
Si Si2 0.500000 0.959904 0.250000
Si Si3 0.605789 0.840486 0.469371
Si Si4 0.910743 0.114696 0.942115
Si Si5 0.054957 0.041239 0.044533
Si Si6 0.746670 0.287221 0.193597
Si Si7 0.559316 0.018670 0.095928
Si Si8 0.933405 0.265546 0.547077
O O1 0.750753 0.566168 0.752722
O O2 0.476222 0.615392 0.839361
O O3 0.497754 0.986525 0.165233
O O4 0.875683 0.860053 0.490481
O O5 0.662460 0.817079 0.380174
O O6 0.512316 0.809034 0.537993
O O7 0.376554 0.870378 0.455785
O O8 0.959228 0.072162 0.975821
O O9 0.330809 0.048495 0.086386
O O10 0.832474 0.037008 0.115744
O O11 0.091355 0.000000 0.000000
O O12 0.500000 0.300005 0.250000
O O13 0.650252 0.250531 0.140341
O O14 0.000000 0.279572 0.250000
O O15 0.594723 0.000000 0.000000
O O16 0.685406 0.257537 0.485423
#
# Coordination Sequence:
#
# PCOD9317100 Si02
#       8
#     4   4   8   8   8   8   8   8
#     4  12  24  36  50  84 130 154 195 228 309 402
#     4  12  22  38  60  86 116 152 197 270 321 372
#     4  11  24  39  58  88 132 165 203 240 309 385
#     4  12  24  38  58  88 123 173 197 247 318 374
#     4  10  20  37  57  79 111 151 212 253 290 350
#     4  11  22  37  64  94 127 162 204 254 307 362
#     4  10  19  34  57  81 108 144 193 258 309 353
#     4  10  20  40  60  89 121 165 210 251 282 364
#
# _framework density 19.840017
#
# number of rings (size 3 to 8) (size 9 to 14) (size 15 to 20)
#    0.000    1.143    0.000   10.286    3.000    0.000 
#    0.000    0.000    0.000    0.000   18.571    0.000 
#    0.000    0.000    0.000    0.000    0.000    0.000 
#
# Total GULP energy -156355.126963 kJ/mol
# GULP energy per Si atom -5584.111677 kJ/mol
# Density = 1.979486 g / cm^3
# Si number density = 19.840017 Si / 1000 Ang^3
#
#
#
# Elastic Constant Matrix: (Units=GPa)
#
#
# Indices 1 2 3 4 5 6 
#
# 1 131.5408 -0.7382 5.0799 0.0000 0.0000 0.0000
# 2 -0.7382 58.5010 17.7541 0.0000 0.0000 0.0000
# 3 5.0799 17.7541 36.9840 0.0000 0.0000 0.0000
# 4 0.0000 0.0000 0.0000 21.8186 0.0000 0.0000
# 5 0.0000 0.0000 0.0000 0.0000 25.7711 0.0000
# 6 0.0000 0.0000 0.0000 0.0000 0.0000 40.8062
#
#
#
# Elastic Compliance Matrix: (Units=1/GPa)
#
#
# Indices 1 2 3 4 5 6 
#
# 1 0.007655 0.000487 -0.001285 0.000000 0.000000 0.000000
# 2 0.000487 0.020040 -0.009687 0.000000 0.000000 0.000000
# 3 -0.001285 -0.009687 0.031865 0.000000 0.000000 0.000000
# 4 0.000000 0.000000 0.000000 0.045832 0.000000 0.000000
# 5 0.000000 0.000000 0.000000 0.000000 0.038803 0.000000
# 6 0.000000 0.000000 0.000000 0.000000 0.000000 0.024506
#
#
# Mechanical properties :
#
#
# Convention : Reuss Voigt Hill
#
# Bulk Modulus (GPa) = 25.91405 30.13527 28.02466
# Shear Modulus (GPa) = 24.68711 31.34117 28.01414
#
# Velocity S-wave (km/s) = 3.53130 3.97885 3.76174
# Velocity P-wave (km/s) = 5.45130 6.02747 5.74661
#
# Compressibility (1/GPa) = 0.03858910
#
# Stress axis : x y z
#
# Youngs Moduli (GPa) = 130.64107 49.90096 31.38200
#
# Poissons Ratio (x) = -0.02428 0.04032
# Poissons Ratio (y) = -0.06356 0.30399
# Poissons Ratio (z) = 0.16787 0.48338
#
# Static dielectric constant tensor:
#      x y z
#    x 1.775610 0.000000 0.000000 
#    y 0.000000 1.661630 0.000000 
#    z 0.000000 0.000000 1.645900 
# 
# From -- ./inp_files/17991.got.cif
#   From: 2010.05.17/outbox.cif.g08.bks.cpg/sg20_9_cif.got.tgz:17991.got - 2010.06.03 22:52:26.
