data_PCOD9317611
_publ_section_title
;
Structure prediction by ZEFSAII (Michael W. Deem and Ramdas Pophale) SiO2 
 PCOD9317611
Probable space group: C 2 2 21
;
_chemical_formula_sum "Si O2"
_cell_formula_units_Z 56
_cell_length_a 19.206295
_cell_length_b 9.142167
_cell_length_c 13.526075
_cell_angle_alpha 90.000000
_cell_angle_beta 90.000000
_cell_angle_gamma 90.000000
_cell_volume 2375.005046
_symmetry_space_group_name_H-M "C 2 2 21"
_symmetry_group_IT_number 20
_symmetry_cell_setting 'orthorhombic'
loop_
_space_group_symop_operation_xyz
x,y,z
-x,-y,1/2+z
x,-y,-z
-x,y,1/2-z
1/2+x,1/2+y,z
1/2-x,1/2-y,1/2+z
1/2+x,1/2-y,-z
1/2-x,1/2+y,1/2-z
loop_
_atom_site_type_symbol
_atom_site_label
_atom_site_fract_x
_atom_site_fract_y
_atom_site_fract_z
Si Si1 0.287138 0.921907 0.894333
Si Si2 0.074803 0.178108 0.374093
Si Si3 0.433250 0.865936 0.948728
Si Si4 0.062432 0.124777 0.684177
Si Si5 0.797776 0.332108 0.478314
Si Si6 0.170628 0.106236 0.845658
Si Si7 0.410023 0.306033 0.644544
O O1 0.369530 0.925604 0.883092
O O2 0.241822 0.019129 0.819487
O O3 0.257548 0.759049 0.911322
O O4 0.272743 0.000000 0.000000
O O5 0.103077 0.274001 0.463104
O O6 0.098440 0.214809 0.262836
O O7 0.991354 0.199851 0.380325
O O8 0.088485 0.006199 0.384015
O O9 0.471618 0.753300 0.879111
O O10 0.471317 0.000000 0.000000
O O11 0.125674 0.167176 0.755014
O O12 0.000000 0.060834 0.750000
O O13 0.779944 0.500000 0.500000
O O14 0.812234 0.234987 0.577385
O O15 0.868577 0.315319 0.415572
O O16 0.123154 0.966254 0.882185
#
# Coordination Sequence:
#
# PCOD9317611 Si02
#       7
#     8   8   8   8   8   8   8
#     4   8  18  41  61  80 119 165 210 248 310 385
#     4  10  20  39  62  86 118 167 216 258 302 388
#     4  11  25  41  61  94 132 168 197 269 348 373
#     4  11  22  41  64  96 121 165 231 262 307 396
#     4  10  20  32  58  90 119 155 205 264 315 375
#     4   9  18  38  63  84 119 167 209 267 304 376
#     4   9  18  36  58  84 115 161 218 248 313 376
#
# _framework density 23.578899
#
# number of rings (size 3 to 8) (size 9 to 14) (size 15 to 20)
#    0.000    2.286    2.857    1.714    2.000    4.000 
#    2.571   14.286    0.000    1.714    0.000    0.000 
#    0.000    0.000    0.000    0.000    0.000    0.000 
#
# Total GULP energy -156227.355518 kJ/mol
# GULP energy per Si atom -5579.548411 kJ/mol
# Density = 2.352523 g / cm^3
# Si number density = 23.578899 Si / 1000 Ang^3
#
#
#
# Elastic Constant Matrix: (Units=GPa)
#
#
# Indices 1 2 3 4 5 6 
#
# 1 34.5108 -3.7095 -1.9124 0.0000 0.0000 0.0000
# 2 -3.7095 109.1860 19.3502 0.0000 0.0000 0.0000
# 3 -1.9124 19.3502 47.7321 0.0000 0.0000 0.0000
# 4 0.0000 0.0000 0.0000 36.8374 0.0000 0.0000
# 5 0.0000 0.0000 0.0000 0.0000 25.9242 0.0000
# 6 0.0000 0.0000 0.0000 0.0000 0.0000 17.3634
#
#
#
# Elastic Compliance Matrix: (Units=1/GPa)
#
#
# Indices 1 2 3 4 5 6 
#
# 1 0.029113 0.000843 0.000825 0.000000 0.000000 0.000000
# 2 0.000843 0.009892 -0.003976 0.000000 0.000000 0.000000
# 3 0.000825 -0.003976 0.022595 0.000000 0.000000 0.000000
# 4 0.000000 0.000000 0.000000 0.027146 0.000000 0.000000
# 5 0.000000 0.000000 0.000000 0.000000 0.038574 0.000000
# 6 0.000000 0.000000 0.000000 0.000000 0.000000 0.057592
#
#
# Mechanical properties :
#
#
# Convention : Reuss Voigt Hill
#
# Bulk Modulus (GPa) = 17.54924 24.32062 20.93493
# Shear Modulus (GPa) = 23.97799 27.87171 25.92485
#
# Velocity S-wave (km/s) = 3.19239 3.44184 3.31946
# Velocity P-wave (km/s) = 4.58774 5.11195 4.85692
#
# Compressibility (1/GPa) = 0.05698251
#
# Stress axis : x y z
#
# Youngs Moduli (GPa) = 34.34924 101.09156 44.25700
#
# Poissons Ratio (x) = -0.08521 -0.03650
# Poissons Ratio (y) = -0.02895 0.17598
# Poissons Ratio (z) = -0.02833 0.40198
#
# Static dielectric constant tensor:
#      x y z
#    x 1.895190 0.000000 0.000000 
#    y 0.000000 1.925400 0.000000 
#    z 0.000000 0.000000 1.901720 
# 
# From -- ./inp_files/21789.got.cif
#   From: 2010.05.17/outbox.cif.g08.bks.cpg/sg20_11_cif.got.tgz:21789.got - 2010.06.03 22:52:26.
