data_PCOD9317762
_publ_section_title
;
Structure prediction by ZEFSAII (Michael W. Deem and Ramdas Pophale) SiO2 
 PCOD9317762
Probable space group: C 2 2 21
;
_chemical_formula_sum "Si O2"
_cell_formula_units_Z 48
_cell_length_a 14.464704
_cell_length_b 26.437152
_cell_length_c 5.340180
_cell_angle_alpha 90.000000
_cell_angle_beta 90.000000
_cell_angle_gamma 90.000000
_cell_volume 2042.114621
_symmetry_space_group_name_H-M "C 2 2 21"
_symmetry_group_IT_number 20
_symmetry_cell_setting 'orthorhombic'
loop_
_space_group_symop_operation_xyz
x,y,z
-x,-y,1/2+z
x,-y,-z
-x,y,1/2-z
1/2+x,1/2+y,z
1/2-x,1/2-y,1/2+z
1/2+x,1/2-y,-z
1/2-x,1/2+y,1/2-z
loop_
_atom_site_type_symbol
_atom_site_label
_atom_site_fract_x
_atom_site_fract_y
_atom_site_fract_z
Si Si1 0.634535 0.946931 0.942938
Si Si2 0.600828 0.739229 0.247373
Si Si3 0.721838 0.808040 0.550852
Si Si4 0.266486 0.917687 0.076375
Si Si5 0.946792 0.938660 0.500460
Si Si6 0.582860 0.161011 0.059272
O O1 0.673365 0.939375 0.659312
O O2 0.573641 0.897705 0.005949
O O3 0.713504 0.945226 0.160091
O O4 0.585823 0.000000 0.000000
O O5 0.500000 0.713974 0.250000
O O6 0.661340 0.758081 0.486101
O O7 0.672979 0.708246 0.081932
O O8 0.580893 0.794082 0.132853
O O9 0.712875 0.857954 0.379905
O O10 0.680696 0.830879 0.804709
O O11 0.159617 0.922292 0.003570
O O12 0.000000 0.921547 0.250000
O O13 0.946855 0.000000 0.500000
O O14 0.000000 0.921803 0.750000
O O15 0.500000 0.171817 0.250000
#
# Coordination Sequence:
#
# PCOD9317762 Si02
#       6
#     8   8   8   8   8   8
#     4  11  23  41  67  98 134 180 232 284 341 411
#     4  12  23  42  70  98 136 180 231 283 354 421
#     4  11  24  41  67  98 133 177 227 284 347 417
#     4  11  23  41  65  95 132 178 228 286 347 411
#     4  10  20  35  57  86 124 170 217 272 338 403
#     4  11  23  42  66  98 134 180 230 288 349 418
#
# _framework density 23.505047999999999
#
# number of rings (size 3 to 8) (size 9 to 14) (size 15 to 20)
#    0.000    1.000    5.000    2.500    0.000    2.000 
#    0.000    6.667    0.000    0.000    0.000    0.000 
#    0.000    0.000    0.000    0.000    0.000    0.000 
#
# Total GULP energy -133980.963964 kJ/mol
# GULP energy per Si atom -5582.540165 kJ/mol
# Density = 2.345155 g / cm^3
# Si number density = 23.505048 Si / 1000 Ang^3
#
#
#
# Elastic Constant Matrix: (Units=GPa)
#
#
# Indices 1 2 3 4 5 6 
#
# 1 91.7100 0.6645 15.9635 0.0000 0.0000 0.0000
# 2 0.6645 87.6912 9.3853 0.0000 0.0000 0.0000
# 3 15.9635 9.3853 93.7994 0.0000 0.0000 0.0000
# 4 0.0000 0.0000 0.0000 -0.8945 0.0000 0.0000
# 5 0.0000 0.0000 0.0000 0.0000 34.2497 0.0000
# 6 0.0000 0.0000 0.0000 0.0000 0.0000 8.4056
#
#
#
# Elastic Compliance Matrix: (Units=1/GPa)
#
#
# Indices 1 2 3 4 5 6 
#
# 1 0.011238 0.000121 -0.001925 0.000000 0.000000 0.000000
# 2 0.000121 0.011528 -0.001174 0.000000 0.000000 0.000000
# 3 -0.001925 -0.001174 0.011106 0.000000 0.000000 0.000000
# 4 0.000000 0.000000 0.000000 -1.117965 0.000000 0.000000
# 5 0.000000 0.000000 0.000000 0.000000 0.029197 0.000000
# 6 0.000000 0.000000 0.000000 0.000000 0.000000 0.118969
#
#
# Mechanical properties :
#
#
# Convention : Reuss Voigt Hill
#
# Bulk Modulus (GPa) = 35.82080 36.13636 35.97858
# Shear Modulus (GPa) = -5.43086 24.83131 9.70023
#
# Velocity S-wave (km/s) = -1.52168 3.25379 2.03367
# Velocity P-wave (km/s) = 3.49075 5.43355 4.56666
#
# Compressibility (1/GPa) = 0.02791674
#
# Stress axis : x y z
#
# Youngs Moduli (GPa) = 88.98314 86.74235 90.04081
#
# Poissons Ratio (x) = -0.01048 0.17330
# Poissons Ratio (y) = -0.01075 0.10571
# Poissons Ratio (z) = 0.17126 0.10184
#
# Static dielectric constant tensor:
#      x y z
#    x 1.980630 0.000000 0.000000 
#    y 0.000000 1.922080 0.000000 
#    z 0.000000 0.000000 2.028800 
# 
# From -- ./inp_files/2020.got.cif
#   From: 2010.05.17/outbox.cif.g08.bks.cpg/sg20_2_cif.got.tgz:2020.got - 2010.06.03 22:52:26.
