data_PCOD9317443
_publ_section_title
;
Structure prediction by ZEFSAII (Michael W. Deem and Ramdas Pophale) SiO2 
 PCOD9317443
Probable space group: C 2 2 21
;
_chemical_formula_sum "Si O2"
_cell_formula_units_Z 48
_cell_length_a 10.490071
_cell_length_b 15.799294
_cell_length_c 11.944545
_cell_angle_alpha 90.000000
_cell_angle_beta 90.000000
_cell_angle_gamma 90.000000
_cell_volume 1979.637716
_symmetry_space_group_name_H-M "C 2 2 21"
_symmetry_group_IT_number 20
_symmetry_cell_setting 'orthorhombic'
loop_
_space_group_symop_operation_xyz
x,y,z
-x,-y,1/2+z
x,-y,-z
-x,y,1/2-z
1/2+x,1/2+y,z
1/2-x,1/2-y,1/2+z
1/2+x,1/2-y,-z
1/2-x,1/2+y,1/2-z
loop_
_atom_site_type_symbol
_atom_site_label
_atom_site_fract_x
_atom_site_fract_y
_atom_site_fract_z
Si Si1 0.858209 0.329957 0.617835
Si Si2 0.052912 0.521646 0.366214
Si Si3 0.127456 0.863700 0.188154
Si Si4 0.207527 0.876724 0.817379
Si Si5 0.499722 0.593029 0.483606
Si Si6 0.225832 0.809163 0.400245
O O1 0.884454 0.236055 0.660822
O O2 0.732901 0.362251 0.685304
O O3 0.835830 0.329211 0.486400
O O4 0.971812 0.392288 0.640373
O O5 0.038155 0.500000 0.500000
O O6 0.200337 0.545266 0.346536
O O7 0.000000 0.475278 0.250000
O O8 0.231799 0.862614 0.285447
O O9 0.000000 0.895487 0.250000
O O10 0.123288 0.905840 0.068007
O O11 0.066354 0.889842 0.865159
O O12 0.263044 0.790203 0.873121
O O13 0.559149 0.500000 0.500000
O O14 0.597091 0.662440 0.533907
#
# Coordination Sequence:
#
# PCOD9317443 Si02
#       6
#     8   8   8   8   8   8
#     4  10  19  38  63  88 116 158 206 249 302 363
#     4  10  21  40  61  88 122 164 202 250 307 367
#     4   9  18  38  61  84 113 162 201 240 296 370
#     4  10  21  39  65  84 118 162 205 249 301 364
#     4  11  22  39  61  90 123 159 200 250 312 364
#     4  10  21  38  63  87 117 157 204 245 295 368
#
# _framework density 24.246859000000001
#
# number of rings (size 3 to 8) (size 9 to 14) (size 15 to 20)
#    0.000    2.000    1.667    4.000    0.000    1.333 
#   18.000    0.000    0.000    0.000    0.000    0.000 
#    0.000    0.000    0.000    0.000    0.000    0.000 
#
# Total GULP energy -133742.400852 kJ/mol
# GULP energy per Si atom -5572.600035 kJ/mol
# Density = 2.419167 g / cm^3
# Si number density = 24.246859 Si / 1000 Ang^3
#
#
#
# Elastic Constant Matrix: (Units=GPa)
#
#
# Indices 1 2 3 4 5 6 
#
# 1 38.7569 9.2727 -7.1051 0.0000 0.0000 0.0000
# 2 9.2727 54.2101 9.8207 0.0000 0.0000 0.0000
# 3 -7.1051 9.8207 155.2656 0.0000 0.0000 0.0000
# 4 0.0000 0.0000 0.0000 26.3012 0.0000 0.0000
# 5 0.0000 0.0000 0.0000 0.0000 49.7949 0.0000
# 6 0.0000 0.0000 0.0000 0.0000 0.0000 6.5423
#
#
#
# Elastic Compliance Matrix: (Units=1/GPa)
#
#
# Indices 1 2 3 4 5 6 
#
# 1 0.027272 -0.004948 0.001561 0.000000 0.000000 0.000000
# 2 -0.004948 0.019558 -0.001463 0.000000 0.000000 0.000000
# 3 0.001561 -0.001463 0.006605 0.000000 0.000000 0.000000
# 4 0.000000 0.000000 0.000000 0.038021 0.000000 0.000000
# 5 0.000000 0.000000 0.000000 0.000000 0.020082 0.000000
# 6 0.000000 0.000000 0.000000 0.000000 0.000000 0.152851
#
#
# Mechanical properties :
#
#
# Convention : Reuss Voigt Hill
#
# Bulk Modulus (GPa) = 22.86545 30.24545 26.55545
# Shear Modulus (GPa) = 17.32096 32.27731 24.79913
#
# Velocity S-wave (km/s) = 2.67565 3.65251 3.20156
# Velocity P-wave (km/s) = 4.35846 5.50353 4.96412
#
# Compressibility (1/GPa) = 0.04373411
#
# Stress axis : x y z
#
# Youngs Moduli (GPa) = 36.66803 51.12952 151.41024
#
# Poissons Ratio (x) = 0.25297 -0.23634
# Poissons Ratio (y) = 0.18142 0.22159
# Poissons Ratio (z) = -0.05724 0.07483
#
# Static dielectric constant tensor:
#      x y z
#    x 1.980750 0.000000 0.000000 
#    y 0.000000 1.940180 0.000000 
#    z 0.000000 0.000000 2.069560 
# 
# From -- ./inp_files/14123.got.cif
#   From: 2010.05.17/outbox.cif.g08.bks.cpg/sg20_8_cif.got.tgz:14123.got - 2010.06.03 22:52:26.
