data_PCOD9317278
_publ_section_title
;
Structure prediction by ZEFSAII (Michael W. Deem and Ramdas Pophale) SiO2 
 PCOD9317278
Probable space group: C 2 2 21
;
_chemical_formula_sum "Si O2"
_cell_formula_units_Z 32
_cell_length_a 5.060225
_cell_length_b 19.291674
_cell_length_c 12.803116
_cell_angle_alpha 90.000000
_cell_angle_beta 90.000000
_cell_angle_gamma 90.000000
_cell_volume 1249.842886
_symmetry_space_group_name_H-M "C 2 2 21"
_symmetry_group_IT_number 20
_symmetry_cell_setting 'orthorhombic'
loop_
_space_group_symop_operation_xyz
x,y,z
-x,-y,1/2+z
x,-y,-z
-x,y,1/2-z
1/2+x,1/2+y,z
1/2-x,1/2-y,1/2+z
1/2+x,1/2-y,-z
1/2-x,1/2+y,1/2-z
loop_
_atom_site_type_symbol
_atom_site_label
_atom_site_fract_x
_atom_site_fract_y
_atom_site_fract_z
Si Si1 0.558669 0.899022 0.903206
Si Si2 0.812193 0.391224 0.350685
Si Si3 0.062082 0.981456 0.880172
Si Si4 0.121178 0.748604 0.427113
O O1 0.852983 0.918981 0.870113
O O2 0.351860 0.953544 0.854863
O O3 0.474048 0.821858 0.874147
O O4 0.556727 0.900896 0.032407
O O5 0.682948 0.315136 0.357417
O O6 0.000000 0.394156 0.250000
O O7 0.596297 0.451411 0.342268
O O8 0.087412 0.000000 0.000000
O O9 0.886805 0.767812 0.507638
#
# Coordination Sequence:
#
# PCOD9317278 Si02
#       4
#     8   8   8   8
#     4  10  20  38  61  82 114 165 204 231 295 383
#     4  10  22  39  63  97 125 152 206 273 308 339
#     4  10  19  36  59  83 115 159 201 237 296 375
#     4  10  20  37  59  84 116 160 200 235 296 375
#
# _framework density 25.603217999999998
#
# number of rings (size 3 to 8) (size 9 to 14) (size 15 to 20)
#    0.000    2.000    0.000    6.750    0.000    2.000 
#    0.000   33.750    0.000    0.000    0.000    0.000 
#    0.000    0.000    0.000    0.000    0.000    0.000 
#
# Total GULP energy -89575.085084 kJ/mol
# GULP energy per Si atom -5598.442818 kJ/mol
# Density = 2.554494 g / cm^3
# Si number density = 25.603218 Si / 1000 Ang^3
#
#
#
# Elastic Constant Matrix: (Units=GPa)
#
#
# Indices 1 2 3 4 5 6 
#
# 1 148.0345 50.2168 42.7992 0.0000 0.0000 0.0000
# 2 50.2168 185.8578 29.3273 0.0000 0.0000 0.0000
# 3 42.7992 29.3273 136.7428 0.0000 0.0000 0.0000
# 4 0.0000 0.0000 0.0000 -131.8048 0.0000 0.0000
# 5 0.0000 0.0000 0.0000 0.0000 42.2144 0.0000
# 6 0.0000 0.0000 0.0000 0.0000 0.0000 539.8964
#
#
#
# Elastic Compliance Matrix: (Units=1/GPa)
#
#
# Indices 1 2 3 4 5 6 
#
# 1 0.007983 -0.001824 -0.002107 0.000000 0.000000 0.000000
# 2 -0.001824 0.005986 -0.000713 0.000000 0.000000 0.000000
# 3 -0.002107 -0.000713 0.008125 0.000000 0.000000 0.000000
# 4 0.000000 0.000000 0.000000 -0.007587 0.000000 0.000000
# 5 0.000000 0.000000 0.000000 0.000000 0.023689 0.000000
# 6 0.000000 0.000000 0.000000 0.000000 0.000000 0.001852
#
#
# Mechanical properties :
#
#
# Convention : Reuss Voigt Hill
#
# Bulk Modulus (GPa) = 78.09197 79.48019 78.78608
# Shear Modulus (GPa) = 93.27257 113.28067 103.27662
#
# Velocity S-wave (km/s) = 6.04228 6.65889 6.35806
# Velocity P-wave (km/s) = 8.90201 9.49902 9.20536
#
# Compressibility (1/GPa) = 0.01280541
#
# Stress axis : x y z
#
# Youngs Moduli (GPa) = 125.26017 167.05975 123.06983
#
# Poissons Ratio (x) = 0.30480 0.25936
# Poissons Ratio (y) = 0.22854 0.08772
# Poissons Ratio (z) = 0.26398 0.11907
#
# Static dielectric constant tensor:
#      x y z
#    x 1.980650 0.000000 0.000000 
#    y 0.000000 1.998710 0.000000 
#    z 0.000000 0.000000 1.937700 
# 
# From -- ./inp_files/17430.got.cif
#   From: 2010.05.17/outbox.cif.g08.bks.cpg/sg20_9_cif.got.tgz:17430.got - 2010.06.03 22:52:26.
