data_PCOD9317134
_publ_section_title
;
Structure prediction by ZEFSAII (Michael W. Deem and Ramdas Pophale) SiO2 
 PCOD9317134
Probable space group: C 2 2 21
;
_chemical_formula_sum "Si O2"
_cell_formula_units_Z 64
_cell_length_a 9.273784
_cell_length_b 19.756469
_cell_length_c 19.283281
_cell_angle_alpha 90.000000
_cell_angle_beta 90.000000
_cell_angle_gamma 90.000000
_cell_volume 3533.029255
_symmetry_space_group_name_H-M "C 2 2 21"
_symmetry_group_IT_number 20
_symmetry_cell_setting 'orthorhombic'
loop_
_space_group_symop_operation_xyz
x,y,z
-x,-y,1/2+z
x,-y,-z
-x,y,1/2-z
1/2+x,1/2+y,z
1/2-x,1/2-y,1/2+z
1/2+x,1/2-y,-z
1/2-x,1/2+y,1/2-z
loop_
_atom_site_type_symbol
_atom_site_label
_atom_site_fract_x
_atom_site_fract_y
_atom_site_fract_z
Si Si1 0.473805 0.860081 0.568426
Si Si2 0.973621 0.291892 0.424162
Si Si3 0.830046 0.797472 0.239046
Si Si4 0.227321 0.779788 0.636203
Si Si5 0.734830 0.986224 0.917558
Si Si6 0.960980 0.905307 0.826726
Si Si7 0.767908 0.184742 0.372438
Si Si8 0.109116 0.600009 0.813540
O O1 0.474071 0.841720 0.488096
O O2 0.377806 0.803196 0.605633
O O3 0.386897 0.928188 0.581472
O O4 0.633863 0.855804 0.597317
O O5 0.840650 0.239457 0.424122
O O6 0.963631 0.337595 0.355250
O O7 0.115681 0.245782 0.421135
O O8 0.756364 0.779730 0.311232
O O9 0.789437 0.733825 0.189162
O O10 0.756593 0.866248 0.213935
O O11 0.000000 0.802130 0.250000
O O12 0.151676 0.842330 0.676167
O O13 0.878665 0.957637 0.878032
O O14 0.662078 0.044742 0.870085
O O15 0.764775 0.000000 0.000000
O O16 0.000000 0.932245 0.750000
O O17 0.106910 0.868548 0.852975
O O18 0.000000 0.579385 0.750000
#
# Coordination Sequence:
#
# PCOD9317134 Si02
#       8
#     8   8   8   8   8   8   8   8
#     4  11  21  38  61  89 123 160 198 256 307 376
#     4  10  20  36  61  88 125 153 199 246 319 378
#     4  11  20  36  61  94 129 150 194 262 314 380
#     4  10  19  34  61  92 121 153 191 250 323 370
#     4  11  25  45  63  84 125 177 222 255 306 369
#     4  10  21  38  64  89 120 160 203 257 308 372
#     4  10  21  34  61  97 120 149 199 253 318 372
#     4  11  23  41  64  86 118 174 214 253 307 376
#
# _framework density 18.114768000000002
#
# number of rings (size 3 to 8) (size 9 to 14) (size 15 to 20)
#    0.000    1.500    5.000    0.750    0.000    1.500 
#    0.000    0.625    2.750    0.000    0.000    0.000 
#    0.000    0.000    0.000    0.000    0.000    0.000 
#
# Total GULP energy -178252.252454 kJ/mol
# GULP energy per Si atom -5570.382889 kJ/mol
# Density = 1.807354 g / cm^3
# Si number density = 18.114768 Si / 1000 Ang^3
#
#
#
# Elastic Constant Matrix: (Units=GPa)
#
#
# Indices 1 2 3 4 5 6 
#
# 1 132.7844 32.8166 52.5636 0.0000 0.0000 0.0000
# 2 32.8166 71.2579 39.2902 0.0000 0.0000 0.0000
# 3 52.5636 39.2902 93.1993 0.0000 0.0000 0.0000
# 4 0.0000 0.0000 0.0000 32.1994 0.0000 0.0000
# 5 0.0000 0.0000 0.0000 0.0000 22.3187 0.0000
# 6 0.0000 0.0000 0.0000 0.0000 0.0000 17.8518
#
#
#
# Elastic Compliance Matrix: (Units=1/GPa)
#
#
# Indices 1 2 3 4 5 6 
#
# 1 0.009895 -0.001928 -0.004768 0.000000 0.000000 0.000000
# 2 -0.001928 0.018659 -0.006779 0.000000 0.000000 0.000000
# 3 -0.004768 -0.006779 0.016276 0.000000 0.000000 0.000000
# 4 0.000000 0.000000 0.000000 0.031056 0.000000 0.000000
# 5 0.000000 0.000000 0.000000 0.000000 0.044805 0.000000
# 6 0.000000 0.000000 0.000000 0.000000 0.000000 0.056017
#
#
# Mechanical properties :
#
#
# Convention : Reuss Voigt Hill
#
# Bulk Modulus (GPa) = 55.92464 60.73138 58.32801
# Shear Modulus (GPa) = 23.85283 25.97874 24.91579
#
# Velocity S-wave (km/s) = 3.63266 3.79109 3.71272
# Velocity P-wave (km/s) = 6.96666 7.26373 7.11675
#
# Compressibility (1/GPa) = 0.01788121
#
# Stress axis : x y z
#
# Youngs Moduli (GPa) = 101.06245 53.59303 61.43854
#
# Poissons Ratio (x) = 0.10333 0.29293
# Poissons Ratio (y) = 0.19485 0.41648
# Poissons Ratio (z) = 0.48185 0.36329
#
# Static dielectric constant tensor:
#      x y z
#    x 1.624770 0.000000 0.000000 
#    y 0.000000 1.603660 0.000000 
#    z 0.000000 0.000000 1.652560 
# 
# From -- ./inp_files/26949.got.cif
#   From: 2010.05.17/outbox.cif.g08.bks.cpg/sg20_14_cif.got.tgz:26949.got - 2010.06.03 22:52:26.
