data_PCOD9317769
_publ_section_title
;
Structure prediction by ZEFSAII (Michael W. Deem and Ramdas Pophale) SiO2 
 PCOD9317769
Probable space group: C 2 2 21
;
_chemical_formula_sum "Si O2"
_cell_formula_units_Z 40
_cell_length_a 26.266719
_cell_length_b 5.035748
_cell_length_c 15.284172
_cell_angle_alpha 90.000000
_cell_angle_beta 90.000000
_cell_angle_gamma 90.000000
_cell_volume 2021.676828
_symmetry_space_group_name_H-M "C 2 2 21"
_symmetry_group_IT_number 20
_symmetry_cell_setting 'orthorhombic'
loop_
_space_group_symop_operation_xyz
x,y,z
-x,-y,1/2+z
x,-y,-z
-x,y,1/2-z
1/2+x,1/2+y,z
1/2-x,1/2-y,1/2+z
1/2+x,1/2-y,-z
1/2-x,1/2+y,1/2-z
loop_
_atom_site_type_symbol
_atom_site_label
_atom_site_fract_x
_atom_site_fract_y
_atom_site_fract_z
Si Si1 0.071876 0.841117 0.087576
Si Si2 0.293321 0.759531 0.059086
Si Si3 0.337071 0.872815 0.246444
Si Si4 0.950398 0.350244 0.307440
Si Si5 0.814138 0.860382 0.355607
O O1 0.049654 0.552998 0.110240
O O2 0.133145 0.809309 0.093208
O O3 0.054466 0.045437 0.162886
O O4 0.058664 0.000000 0.000000
O O5 0.322277 0.767664 0.151426
O O6 0.234517 0.811540 0.084926
O O7 0.297907 0.500000 0.000000
O O8 0.312379 0.000000 0.000000
O O9 0.397720 0.907646 0.256528
O O10 0.318113 0.656007 0.317101
O O11 0.312423 0.152741 0.274561
O O12 0.000000 0.392893 0.250000
#
# Coordination Sequence:
#
# PCOD9317769 Si02
#       5
#     8   8   8   8   8
#     4  10  20  35  58  87 111 135 181 241 283 317
#     4  12  23  35  54  83 115 146 180 222 269 327
#     4  10  21  38  57  78 109 149 187 223 270 333
#     4  10  21  38  59  80 110 149 187 225 277 337
#     4  10  20  36  58  80 109 145 181 223 275 332
#
# _framework density 19.785558000000002
#
# number of rings (size 3 to 8) (size 9 to 14) (size 15 to 20)
#    0.000    1.600    0.000    5.400    0.000    3.200 
#    0.000    3.000    0.000    0.000    0.000    0.000 
#    0.000    0.000    0.000    0.000    0.000    0.000 
#
# Total GULP energy -111734.424408 kJ/mol
# GULP energy per Si atom -5586.721220 kJ/mol
# Density = 1.974052 g / cm^3
# Si number density = 19.785558 Si / 1000 Ang^3
#
#
#
# Elastic Constant Matrix: (Units=GPa)
#
#
# Indices 1 2 3 4 5 6 
#
# 1 58.0530 19.4310 23.4272 0.0000 0.0000 0.0000
# 2 19.4310 94.7370 7.2430 0.0000 0.0000 0.0000
# 3 23.4272 7.2430 62.3871 0.0000 0.0000 0.0000
# 4 0.0000 0.0000 0.0000 41.6485 0.0000 0.0000
# 5 0.0000 0.0000 0.0000 0.0000 20.4340 0.0000
# 6 0.0000 0.0000 0.0000 0.0000 0.0000 16.2234
#
#
#
# Elastic Compliance Matrix: (Units=1/GPa)
#
#
# Indices 1 2 3 4 5 6 
#
# 1 0.021607 -0.003845 -0.007667 0.000000 0.000000 0.000000
# 2 -0.003845 0.011334 0.000128 0.000000 0.000000 0.000000
# 3 -0.007667 0.000128 0.018893 0.000000 0.000000 0.000000
# 4 0.000000 0.000000 0.000000 0.024010 0.000000 0.000000
# 5 0.000000 0.000000 0.000000 0.000000 0.048938 0.000000
# 6 0.000000 0.000000 0.000000 0.000000 0.000000 0.061639
#
#
# Mechanical properties :
#
#
# Convention : Reuss Voigt Hill
#
# Bulk Modulus (GPa) = 34.40514 35.04214 34.72364
# Shear Modulus (GPa) = 22.84357 26.66625 24.75491
#
# Velocity S-wave (km/s) = 3.40156 3.67517 3.54101
# Velocity P-wave (km/s) = 5.73187 5.97985 5.85717
#
# Compressibility (1/GPa) = 0.02906543
#
# Stress axis : x y z
#
# Youngs Moduli (GPa) = 46.28158 88.22646 52.92900
#
# Poissons Ratio (x) = 0.33927 0.40582
# Poissons Ratio (y) = 0.17797 -0.00678
# Poissons Ratio (z) = 0.35485 -0.01130
#
# Static dielectric constant tensor:
#      x y z
#    x 1.669660 0.000000 0.000000 
#    y 0.000000 1.674940 0.000000 
#    z 0.000000 0.000000 1.688740 
# 
# From -- ./inp_files/16850.got.cif
#   From: 2010.05.17/outbox.cif.g08.bks.cpg/sg20_9_cif.got.tgz:16850.got - 2010.06.03 22:52:26.
