data_PCOD9317690
_publ_section_title
;
Structure prediction by ZEFSAII (Michael W. Deem and Ramdas Pophale) SiO2 
 PCOD9317690
Probable space group: C 2 2 21
;
_chemical_formula_sum "Si O2"
_cell_formula_units_Z 40
_cell_length_a 14.112994
_cell_length_b 27.562568
_cell_length_c 5.182683
_cell_angle_alpha 90.000000
_cell_angle_beta 90.000000
_cell_angle_gamma 90.000000
_cell_volume 2016.013709
_symmetry_space_group_name_H-M "C 2 2 21"
_symmetry_group_IT_number 20
_symmetry_cell_setting 'orthorhombic'
loop_
_space_group_symop_operation_xyz
x,y,z
-x,-y,1/2+z
x,-y,-z
-x,y,1/2-z
1/2+x,1/2+y,z
1/2-x,1/2-y,1/2+z
1/2+x,1/2-y,-z
1/2-x,1/2+y,1/2-z
loop_
_atom_site_type_symbol
_atom_site_label
_atom_site_fract_x
_atom_site_fract_y
_atom_site_fract_z
Si Si1 0.267930 0.126246 0.862961
Si Si2 0.941725 0.878022 0.494144
Si Si3 0.093144 0.766499 0.893488
Si Si4 0.113234 0.531648 0.749012
Si Si5 0.779031 0.308132 0.645971
O O1 0.166456 0.105989 0.960122
O O2 0.335086 0.082736 0.778278
O O3 0.258991 0.160732 0.612050
O O4 0.301222 0.158066 0.107971
O O5 0.934271 0.819080 0.493612
O O6 0.000000 0.894916 0.250000
O O7 0.000000 0.891149 0.750000
O O8 0.182846 0.778591 0.709147
O O9 0.000000 0.747619 0.750000
O O10 0.135300 0.728531 0.094015
O O11 0.137350 0.500000 0.500000
O O12 0.000000 0.539535 0.750000
O O13 0.138389 0.500000 0.000000
#
# Coordination Sequence:
#
# PCOD9317690 Si02
#       5
#     8   8   8   8   8
#     4  11  22  39  60  87 118 150 194 253 298 341
#     4  10  20  34  56  83 113 155 200 233 275 341
#     4  10  21  38  56  79 119 166 203 240 286 332
#     4  10  22  42  66  89 115 150 191 236 298 372
#     4  11  23  37  57  86 120 157 206 248 287 344
#
# _framework density 19.841135999999999
#
# number of rings (size 3 to 8) (size 9 to 14) (size 15 to 20)
#    0.000    1.600    0.000    7.200    0.000    4.000 
#    0.000    4.000    0.000    2.400    0.000    0.000 
#    0.000    0.000    0.000    0.000    0.000    0.000 
#
# Total GULP energy -111772.520822 kJ/mol
# GULP energy per Si atom -5588.626041 kJ/mol
# Density = 1.979598 g / cm^3
# Si number density = 19.841136 Si / 1000 Ang^3
#
#
#
# Elastic Constant Matrix: (Units=GPa)
#
#
# Indices 1 2 3 4 5 6 
#
# 1 67.5670 43.4178 44.6062 0.0000 0.0000 0.0000
# 2 43.4178 69.7016 56.5027 0.0000 0.0000 0.0000
# 3 44.6062 56.5027 167.5991 0.0000 0.0000 0.0000
# 4 0.0000 0.0000 0.0000 17.3699 0.0000 0.0000
# 5 0.0000 0.0000 0.0000 0.0000 -0.8884 0.0000
# 6 0.0000 0.0000 0.0000 0.0000 0.0000 35.1214
#
#
#
# Elastic Compliance Matrix: (Units=1/GPa)
#
#
# Indices 1 2 3 4 5 6 
#
# 1 0.025129 -0.014079 -0.001942 0.000000 0.000000 0.000000
# 2 -0.014079 0.027631 -0.005568 0.000000 0.000000 0.000000
# 3 -0.001942 -0.005568 0.008360 0.000000 0.000000 0.000000
# 4 0.000000 0.000000 0.000000 0.057571 0.000000 0.000000
# 5 0.000000 0.000000 0.000000 0.000000 -1.125591 0.000000
# 6 0.000000 0.000000 0.000000 0.000000 0.000000 0.028473
#
#
# Mechanical properties :
#
#
# Convention : Reuss Voigt Hill
#
# Bulk Modulus (GPa) = 55.73309 65.99124 60.86216
# Shear Modulus (GPa) = -5.38057 21.00997 7.81470
#
# Velocity S-wave (km/s) = -1.64855 3.25762 1.98675
# Velocity P-wave (km/s) = 4.95248 6.89068 6.00035
#
# Compressibility (1/GPa) = 0.01794266
#
# Stress axis : x y z
#
# Youngs Moduli (GPa) = 39.79454 36.19179 119.61069
#
# Poissons Ratio (x) = 0.50956 0.23223
# Poissons Ratio (y) = 0.56028 0.66598
# Poissons Ratio (z) = 0.07726 0.20151
#
# Static dielectric constant tensor:
#      x y z
#    x 1.753690 0.000000 0.000000 
#    y 0.000000 1.761440 0.000000 
#    z 0.000000 0.000000 1.717380 
# 
# From -- ./inp_files/1877.got.cif
#   From: 2010.05.17/outbox.cif.g08.bks.cpg/sg20_1_cif.got.tgz:1877.got - 2010.06.03 22:52:26.
