data_PCOD9317601
_publ_section_title
;
Structure prediction by ZEFSAII (Michael W. Deem and Ramdas Pophale) SiO2 
 PCOD9317601
Probable space group: C 2 2 21
;
_chemical_formula_sum "Si O2"
_cell_formula_units_Z 48
_cell_length_a 31.298795
_cell_length_b 14.600775
_cell_length_c 5.046559
_cell_angle_alpha 90.000000
_cell_angle_beta 90.000000
_cell_angle_gamma 90.000000
_cell_volume 2306.210160
_symmetry_space_group_name_H-M "C 2 2 21"
_symmetry_group_IT_number 20
_symmetry_cell_setting 'orthorhombic'
loop_
_space_group_symop_operation_xyz
x,y,z
-x,-y,1/2+z
x,-y,-z
-x,y,1/2-z
1/2+x,1/2+y,z
1/2-x,1/2-y,1/2+z
1/2+x,1/2-y,-z
1/2-x,1/2+y,1/2-z
loop_
_atom_site_type_symbol
_atom_site_label
_atom_site_fract_x
_atom_site_fract_y
_atom_site_fract_z
Si Si1 0.000000 0.056200 0.250000
Si Si2 0.834509 0.609659 0.481128
Si Si3 0.814617 0.894702 0.605425
Si Si4 0.425667 0.646101 0.898883
Si Si5 0.719621 0.889202 0.482782
Si Si6 0.893044 0.764736 0.581596
Si Si7 0.359518 0.500000 0.000000
O O1 0.033943 0.110557 0.431679
O O2 0.978538 0.000000 0.500000
O O3 0.839471 0.500000 0.500000
O O4 0.815147 0.637772 0.199813
O O5 0.878294 0.661409 0.540043
O O6 0.798749 0.635894 0.698589
O O7 0.767505 0.859141 0.549690
O O8 0.850450 0.824142 0.515442
O O9 0.819503 0.000000 0.500000
O O10 0.827475 0.919859 0.905655
O O11 0.403827 0.712040 0.116514
O O12 0.429095 0.700414 0.623565
O O13 0.394880 0.558961 0.838614
O O14 0.722256 0.000000 0.500000
#
# Coordination Sequence:
#
# PCOD9317601 Si02
#       7
#     4   8   8   8   8   8   4
#     4  12  24  40  66  92 132 166 194 232 300 372
#     4  10  21  39  55  80 111 153 204 268 312 352
#     4  10  20  32  52  78 115 157 200 245 295 353
#     4  11  23  38  58  90 118 160 196 232 290 373
#     4   9  20  32  54  77 110 151 204 254 312 353
#     4  11  23  37  58  82 117 156 204 250 294 361
#     4  10  20  34  54  78 124 156 200 228 286 352
#
# _framework density 20.813368000000001
#
# number of rings (size 3 to 8) (size 9 to 14) (size 15 to 20)
#    0.000    1.667    2.500    2.000    5.833    1.333 
#    0.000    0.000    0.000    0.000    0.000    2.333 
#    0.000    0.000    0.000    0.000    0.000    0.000 
#
# Total GULP energy -133691.879028 kJ/mol
# GULP energy per Si atom -5570.494960 kJ/mol
# Density = 2.076600 g / cm^3
# Si number density = 20.813368 Si / 1000 Ang^3
#
#
#
# Elastic Constant Matrix: (Units=GPa)
#
#
# Indices 1 2 3 4 5 6 
#
# 1 53.9897 19.8751 2.2655 0.0000 0.0000 0.0000
# 2 19.8751 53.7624 16.0528 0.0000 0.0000 0.0000
# 3 2.2655 16.0528 65.9156 0.0000 0.0000 0.0000
# 4 0.0000 0.0000 0.0000 15.7047 0.0000 0.0000
# 5 0.0000 0.0000 0.0000 0.0000 30.2183 0.0000
# 6 0.0000 0.0000 0.0000 0.0000 0.0000 18.7531
#
#
#
# Elastic Compliance Matrix: (Units=1/GPa)
#
#
# Indices 1 2 3 4 5 6 
#
# 1 0.021542 -0.008350 0.001293 0.000000 0.000000 0.000000
# 2 -0.008350 0.023295 -0.005386 0.000000 0.000000 0.000000
# 3 0.001293 -0.005386 0.016438 0.000000 0.000000 0.000000
# 4 0.000000 0.000000 0.000000 0.063675 0.000000 0.000000
# 5 0.000000 0.000000 0.000000 0.000000 0.033093 0.000000
# 6 0.000000 0.000000 0.000000 0.000000 0.000000 0.053325
#
#
# Mechanical properties :
#
#
# Convention : Reuss Voigt Hill
#
# Bulk Modulus (GPa) = 27.48055 27.78384 27.63220
# Shear Modulus (GPa) = 20.13020 21.96683 21.04851
#
# Velocity S-wave (km/s) = 3.11332 3.25225 3.18354
# Velocity P-wave (km/s) = 5.11426 5.24222 5.17863
#
# Compressibility (1/GPa) = 0.03638937
#
# Stress axis : x y z
#
# Youngs Moduli (GPa) = 46.42198 42.92692 60.83379
#
# Poissons Ratio (x) = 0.35843 -0.07866
# Poissons Ratio (y) = 0.38761 0.32767
# Poissons Ratio (z) = -0.06003 0.23122
#
# Static dielectric constant tensor:
#      x y z
#    x 1.758950 0.000000 0.000000 
#    y 0.000000 1.813110 0.000000 
#    z 0.000000 0.000000 2.034170 
# 
# From -- ./inp_files/4633.got.cif
#   From: 2010.05.17/outbox.cif.g08.bks.cpg/sg20_3_cif.got.tgz:4633.got - 2010.06.03 22:52:26.
