data_PCOD9317933
_publ_section_title
;
Structure prediction by ZEFSAII (Michael W. Deem and Ramdas Pophale) SiO2 
 PCOD9317933
Probable space group: C 2 2 21
;
_chemical_formula_sum "Si O2"
_cell_formula_units_Z 52
_cell_length_a 5.299947
_cell_length_b 29.043288
_cell_length_c 14.203252
_cell_angle_alpha 90.000000
_cell_angle_beta 90.000000
_cell_angle_gamma 90.000000
_cell_volume 2186.276570
_symmetry_space_group_name_H-M "C 2 2 21"
_symmetry_group_IT_number 20
_symmetry_cell_setting 'orthorhombic'
loop_
_space_group_symop_operation_xyz
x,y,z
-x,-y,1/2+z
x,-y,-z
-x,y,1/2-z
1/2+x,1/2+y,z
1/2-x,1/2-y,1/2+z
1/2+x,1/2-y,-z
1/2-x,1/2+y,1/2-z
loop_
_atom_site_type_symbol
_atom_site_label
_atom_site_fract_x
_atom_site_fract_y
_atom_site_fract_z
Si Si1 0.000000 0.857710 0.750000
Si Si2 0.201963 0.335871 0.379485
Si Si3 0.811031 0.256387 0.563060
Si Si4 0.249429 0.493894 0.190453
Si Si5 0.874893 0.340569 0.899781
Si Si6 0.694162 0.390176 0.377030
Si Si7 0.222714 0.416417 0.908359
O O1 0.807513 0.828966 0.685666
O O2 0.871579 0.891492 0.825309
O O3 0.250555 0.282300 0.358855
O O4 0.221313 0.335398 0.493967
O O5 0.426235 0.369008 0.347830
O O6 0.926142 0.355515 0.356219
O O7 0.067334 0.241864 0.505806
O O8 0.883740 0.306532 0.602274
O O9 0.500000 0.503134 0.250000
O O10 0.252501 0.440211 0.164868
O O11 0.241450 0.529251 0.103700
O O12 0.000000 0.503900 0.250000
O O13 0.946431 0.394374 0.892834
O O14 0.693685 0.398921 0.489605
#
# Coordination Sequence:
#
# PCOD9317933 Si02
#       7
#     4   8   8   8   8   8   8
#     4  12  20  38  60  94 142 176 206 274 344 404
#     4  10  20  40  63  97 127 171 222 271 318 381
#     4  10  20  36  63  96 126 169 218 269 323 394
#     4  12  26  44  67  96 129 177 224 277 338 396
#     4  10  22  35  63  95 139 169 220 261 339 405
#     4  11  23  42  69  97 128 173 227 276 323 396
#     4  11  23  41  62  98 136 174 215 274 343 404
#
# _framework density 23.784732000000002
#
# number of rings (size 3 to 8) (size 9 to 14) (size 15 to 20)
#    0.000    1.231    2.308    5.538    2.154    0.000 
#    0.000    3.077    1.692    1.846    0.000    0.000 
#    0.000    0.000    0.000    0.000    0.000    0.000 
#
# Total GULP energy -145431.186943 kJ/mol
# GULP energy per Si atom -5593.507190 kJ/mol
# Density = 2.373060 g / cm^3
# Si number density = 23.784732 Si / 1000 Ang^3
#
#
#
# Elastic Constant Matrix: (Units=GPa)
#
#
# Indices 1 2 3 4 5 6 
#
# 1 111.9827 15.6117 -5.7572 0.0000 0.0000 0.0000
# 2 15.6117 130.8037 -16.3778 0.0000 0.0000 0.0000
# 3 -5.7572 -16.3778 60.6428 0.0000 0.0000 0.0000
# 4 0.0000 0.0000 0.0000 21.4901 0.0000 0.0000
# 5 0.0000 0.0000 0.0000 0.0000 19.4865 0.0000
# 6 0.0000 0.0000 0.0000 0.0000 0.0000 56.9808
#
#
#
# Elastic Compliance Matrix: (Units=1/GPa)
#
#
# Indices 1 2 3 4 5 6 
#
# 1 0.009101 -0.001012 0.000591 0.000000 0.000000 0.000000
# 2 -0.001012 0.008025 0.002071 0.000000 0.000000 0.000000
# 3 0.000591 0.002071 0.017105 0.000000 0.000000 0.000000
# 4 0.000000 0.000000 0.000000 0.046533 0.000000 0.000000
# 5 0.000000 0.000000 0.000000 0.000000 0.051318 0.000000
# 6 0.000000 0.000000 0.000000 0.000000 0.000000 0.017550
#
#
# Mechanical properties :
#
#
# Convention : Reuss Voigt Hill
#
# Bulk Modulus (GPa) = 26.64441 32.26473 29.45457
# Shear Modulus (GPa) = 31.47745 40.25496 35.86621
#
# Velocity S-wave (km/s) = 3.64185 4.11843 3.88745
# Velocity P-wave (km/s) = 5.37687 6.01748 5.70617
#
# Compressibility (1/GPa) = 0.03753132
#
# Stress axis : x y z
#
# Youngs Moduli (GPa) = 109.87269 124.60737 58.46086
#
# Poissons Ratio (x) = 0.12614 -0.03453
# Poissons Ratio (y) = 0.11123 -0.12109
# Poissons Ratio (z) = -0.06490 -0.25809
#
# Static dielectric constant tensor:
#      x y z
#    x 1.915420 0.000000 0.000000 
#    y 0.000000 1.931290 0.000000 
#    z 0.000000 0.000000 1.915480 
# 
# From -- ./inp_files/22886.got.cif
#   From: 2010.05.17/outbox.cif.g08.bks.cpg/sg20_12_cif.got.tgz:22886.got - 2010.06.03 22:52:26.
