data_PCOD9317587
_publ_section_title
;
Structure prediction by ZEFSAII (Michael W. Deem and Ramdas Pophale) SiO2 
 PCOD9317587
Probable space group: C 2 2 21
;
_chemical_formula_sum "Si O2"
_cell_formula_units_Z 56
_cell_length_a 21.512864
_cell_length_b 15.441918
_cell_length_c 9.059958
_cell_angle_alpha 90.000000
_cell_angle_beta 90.000000
_cell_angle_gamma 90.000000
_cell_volume 3009.716977
_symmetry_space_group_name_H-M "C 2 2 21"
_symmetry_group_IT_number 20
_symmetry_cell_setting 'orthorhombic'
loop_
_space_group_symop_operation_xyz
x,y,z
-x,-y,1/2+z
x,-y,-z
-x,y,1/2-z
1/2+x,1/2+y,z
1/2-x,1/2-y,1/2+z
1/2+x,1/2-y,-z
1/2-x,1/2+y,1/2-z
loop_
_atom_site_type_symbol
_atom_site_label
_atom_site_fract_x
_atom_site_fract_y
_atom_site_fract_z
Si Si1 0.583526 0.374753 0.115149
Si Si2 0.774346 0.162728 0.629864
Si Si3 0.238556 0.997318 0.670802
Si Si4 0.518485 0.697229 0.395815
Si Si5 0.701081 0.833816 0.674303
Si Si6 0.590509 0.471598 0.665363
Si Si7 0.061886 0.291766 0.677316
O O1 0.656574 0.367786 0.074430
O O2 0.569925 0.464004 0.202775
O O3 0.572842 0.297625 0.232407
O O4 0.537034 0.352134 0.982968
O O5 0.729530 0.176080 0.489971
O O6 0.781577 0.250294 0.725448
O O7 0.752420 0.086871 0.740841
O O8 0.270772 0.919561 0.755402
O O9 0.164837 0.977525 0.669849
O O10 0.258850 0.000000 0.500000
O O11 0.500000 0.748537 0.250000
O O12 0.564792 0.624794 0.331280
O O13 0.548350 0.760495 0.513119
O O14 0.626499 0.841409 0.678358
O O15 0.571365 0.500000 0.500000
O O16 0.000000 0.332489 0.750000
#
# Coordination Sequence:
#
# PCOD9317587 Si02
#       7
#     8   8   8   8   8   8   8
#     4   9  20  36  47  75 116 154 193 237 278 349
#     4  10  22  37  59  89 120 158 203 244 301 355
#     4  10  22  40  59  87 123 155 198 252 298 354
#     4  11  23  30  50  78 114 158 197 235 282 347
#     4  11  22  38  65  86 119 162 197 249 305 364
#     4  10  20  31  51  76 114 156 195 230 281 343
#     4   9  20  39  57  77 112 151 196 243 300 345
#
# _framework density 18.606400000000001
#
# number of rings (size 3 to 8) (size 9 to 14) (size 15 to 20)
#    0.000    2.000    1.429    1.286    8.000    0.000 
#    0.000    1.429    0.000    1.714    0.000    0.000 
#    0.000    0.000    0.000    0.000    0.000    0.000 
#
# Total GULP energy -156271.112007 kJ/mol
# GULP energy per Si atom -5581.111143 kJ/mol
# Density = 1.856405 g / cm^3
# Si number density = 18.606400 Si / 1000 Ang^3
#
#
#
# Elastic Constant Matrix: (Units=GPa)
#
#
# Indices 1 2 3 4 5 6 
#
# 1 72.2041 22.3745 37.2671 0.0000 0.0000 0.0000
# 2 22.3745 49.9624 15.7857 0.0000 0.0000 0.0000
# 3 37.2671 15.7857 114.6801 0.0000 0.0000 0.0000
# 4 0.0000 0.0000 0.0000 23.3025 0.0000 0.0000
# 5 0.0000 0.0000 0.0000 0.0000 14.6056 0.0000
# 6 0.0000 0.0000 0.0000 0.0000 0.0000 25.1972
#
#
#
# Elastic Compliance Matrix: (Units=1/GPa)
#
#
# Indices 1 2 3 4 5 6 
#
# 1 0.018563 -0.006698 -0.005110 0.000000 0.000000 0.000000
# 2 -0.006698 0.023342 -0.001036 0.000000 0.000000 0.000000
# 3 -0.005110 -0.001036 0.010523 0.000000 0.000000 0.000000
# 4 0.000000 0.000000 0.000000 0.042914 0.000000 0.000000
# 5 0.000000 0.000000 0.000000 0.000000 0.068467 0.000000
# 6 0.000000 0.000000 0.000000 0.000000 0.000000 0.039687
#
#
# Mechanical properties :
#
#
# Convention : Reuss Voigt Hill
#
# Bulk Modulus (GPa) = 37.39939 43.07791 40.23865
# Shear Modulus (GPa) = 20.99968 23.38233 22.19100
#
# Velocity S-wave (km/s) = 3.36315 3.54882 3.45723
# Velocity P-wave (km/s) = 5.93506 6.32413 6.13268
#
# Compressibility (1/GPa) = 0.02673840
#
# Stress axis : x y z
#
# Youngs Moduli (GPa) = 53.87088 42.84093 95.02790
#
# Poissons Ratio (x) = 0.28696 0.48562
# Poissons Ratio (y) = 0.36085 0.09848
# Poissons Ratio (z) = 0.27530 0.04440
#
# Static dielectric constant tensor:
#      x y z
#    x 1.674750 0.000000 0.000000 
#    y 0.000000 1.609570 0.000000 
#    z 0.000000 0.000000 1.671890 
# 
# From -- ./inp_files/8743.got.cif
#   From: 2010.05.17/outbox.cif.g08.bks.cpg/sg20_5_cif.got.tgz:8743.got - 2010.06.03 22:52:26.
