data_PCOD9317025
_publ_section_title
;
Structure prediction by ZEFSAII (Michael W. Deem and Ramdas Pophale) SiO2 
 PCOD9317025
Probable space group: C 2 2 21
;
_chemical_formula_sum "Si O2"
_cell_formula_units_Z 60
_cell_length_a 10.322408
_cell_length_b 18.970758
_cell_length_c 15.072287
_cell_angle_alpha 90.000000
_cell_angle_beta 90.000000
_cell_angle_gamma 90.000000
_cell_volume 2951.514085
_symmetry_space_group_name_H-M "C 2 2 21"
_symmetry_group_IT_number 20
_symmetry_cell_setting 'orthorhombic'
loop_
_space_group_symop_operation_xyz
x,y,z
-x,-y,1/2+z
x,-y,-z
-x,y,1/2-z
1/2+x,1/2+y,z
1/2-x,1/2-y,1/2+z
1/2+x,1/2-y,-z
1/2-x,1/2+y,1/2-z
loop_
_atom_site_type_symbol
_atom_site_label
_atom_site_fract_x
_atom_site_fract_y
_atom_site_fract_z
Si Si1 0.723717 0.282470 0.684323
Si Si2 0.407987 0.065567 0.664553
Si Si3 0.267531 0.703321 0.852358
Si Si4 0.930924 0.220535 0.020740
Si Si5 0.916233 0.412359 0.662544
Si Si6 0.421838 0.884546 0.009420
Si Si7 0.000000 0.860663 0.250000
Si Si8 0.847558 0.855486 0.411465
O O1 0.705765 0.263005 0.788339
O O2 0.601720 0.299014 0.621683
O O3 0.821546 0.346325 0.668340
O O4 0.782289 0.211607 0.638580
O O5 0.500000 0.073018 0.750000
O O6 0.311207 0.131100 0.658937
O O7 0.502737 0.070887 0.581646
O O8 0.345149 0.988203 0.659828
O O9 0.406366 0.689134 0.807018
O O10 0.304253 0.717059 0.954844
O O11 0.965161 0.302920 0.021020
O O12 0.042113 0.172813 0.977702
O O13 0.000000 0.412687 0.750000
O O14 0.021303 0.405503 0.584685
O O15 0.269642 0.889702 0.032977
O O16 0.085745 0.897173 0.172034
#
# Coordination Sequence:
#
# PCOD9317025 Si02
#       8
#     8   8   8   8   8   8   4   8
#     4  10  19  34  57  83 116 151 196 249 295 357
#     4  11  23  38  57  88 119 155 198 251 310 373
#     4  10  20  35  58  86 115 151 198 247 299 356
#     4  10  19  33  55  83 114 145 196 248 301 352
#     4  11  23  38  59  82 121 162 201 246 311 373
#     4  11  21  36  57  86 122 152 201 251 308 363
#     4   8  16  32  54  86 112 150 196 242 302 360
#     4   9  18  31  56  83 117 150 193 255 303 359
#
# _framework density 20.328548999999999
#
# number of rings (size 3 to 8) (size 9 to 14) (size 15 to 20)
#    0.000    1.867    1.333    4.400    5.600    0.000 
#    0.000    0.000    0.000    9.600    0.000    0.000 
#    0.000    0.000    0.000    0.000    0.000    0.000 
#
# Total GULP energy -167261.786149 kJ/mol
# GULP energy per Si atom -5575.392872 kJ/mol
# Density = 2.028228 g / cm^3
# Si number density = 20.328549 Si / 1000 Ang^3
#
#
#
# Elastic Constant Matrix: (Units=GPa)
#
#
# Indices 1 2 3 4 5 6 
#
# 1 57.3170 18.5235 21.2219 0.0000 0.0000 0.0000
# 2 18.5235 74.1130 17.5837 0.0000 0.0000 0.0000
# 3 21.2219 17.5837 84.8286 0.0000 0.0000 0.0000
# 4 0.0000 0.0000 0.0000 24.4493 0.0000 0.0000
# 5 0.0000 0.0000 0.0000 0.0000 23.3987 0.0000
# 6 0.0000 0.0000 0.0000 0.0000 0.0000 17.2100
#
#
#
# Elastic Compliance Matrix: (Units=1/GPa)
#
#
# Indices 1 2 3 4 5 6 
#
# 1 0.020335 -0.004076 -0.004242 0.000000 0.000000 0.000000
# 2 -0.004076 0.015008 -0.002091 0.000000 0.000000 0.000000
# 3 -0.004242 -0.002091 0.013283 0.000000 0.000000 0.000000
# 4 0.000000 0.000000 0.000000 0.040901 0.000000 0.000000
# 5 0.000000 0.000000 0.000000 0.000000 0.042737 0.000000
# 6 0.000000 0.000000 0.000000 0.000000 0.000000 0.058106
#
#
# Mechanical properties :
#
#
# Convention : Reuss Voigt Hill
#
# Bulk Modulus (GPa) = 35.96224 36.76856 36.36540
# Shear Modulus (GPa) = 22.68008 23.60691 23.14350
#
# Velocity S-wave (km/s) = 3.34380 3.41144 3.37779
# Velocity P-wave (km/s) = 5.71287 5.80031 5.75676
#
# Compressibility (1/GPa) = 0.02780694
#
# Stress axis : x y z
#
# Youngs Moduli (GPa) = 49.17671 66.63217 75.28255
#
# Poissons Ratio (x) = 0.27158 0.31938
# Poissons Ratio (y) = 0.20044 0.15743
# Poissons Ratio (z) = 0.20863 0.13934
#
# Static dielectric constant tensor:
#      x y z
#    x 1.785150 0.000000 0.000000 
#    y 0.000000 1.717800 0.000000 
#    z 0.000000 0.000000 1.760250 
# 
# From -- ./inp_files/20249.got.cif
#   From: 2010.05.17/outbox.cif.g08.bks.cpg/sg20_11_cif.got.tgz:20249.got - 2010.06.03 22:52:26.
