data_PCOD9317312
_publ_section_title
;
Structure prediction by ZEFSAII (Michael W. Deem and Ramdas Pophale) SiO2 
 PCOD9317312
Probable space group: C 2 2 21
;
_chemical_formula_sum "Si O2"
_cell_formula_units_Z 64
_cell_length_a 9.230828
_cell_length_b 15.492007
_cell_length_c 22.685308
_cell_angle_alpha 90.000000
_cell_angle_beta 90.000000
_cell_angle_gamma 90.000000
_cell_volume 3244.090965
_symmetry_space_group_name_H-M "C 2 2 21"
_symmetry_group_IT_number 20
_symmetry_cell_setting 'orthorhombic'
loop_
_space_group_symop_operation_xyz
x,y,z
-x,-y,1/2+z
x,-y,-z
-x,y,1/2-z
1/2+x,1/2+y,z
1/2-x,1/2-y,1/2+z
1/2+x,1/2-y,-z
1/2-x,1/2+y,1/2-z
loop_
_atom_site_type_symbol
_atom_site_label
_atom_site_fract_x
_atom_site_fract_y
_atom_site_fract_z
Si Si1 0.659350 0.010097 0.382291
Si Si2 0.098667 0.306123 0.570506
Si Si3 0.200302 0.709938 0.132355
Si Si4 0.675009 0.015983 0.155062
Si Si5 0.904609 0.332470 0.063346
Si Si6 0.208192 0.667991 0.877436
Si Si7 0.161029 0.034903 0.227666
Si Si8 0.168339 0.240595 0.241621
O O1 0.674845 0.103848 0.411779
O O2 0.499038 0.014004 0.352029
O O3 0.652906 0.929693 0.426574
O O4 0.783967 0.997186 0.333857
O O5 0.047775 0.317910 0.503614
O O6 0.203829 0.225560 0.577275
O O7 0.967843 0.288186 0.615577
O O8 0.235666 0.607656 0.132958
O O9 0.285855 0.763993 0.083917
O O10 0.244821 0.745394 0.196876
O O11 0.737166 0.933753 0.120786
O O12 0.724272 0.008581 0.222408
O O13 0.039979 0.320486 0.106769
O O14 0.233279 0.704234 0.811640
O O15 0.000000 0.011646 0.250000
O O16 0.167171 0.139460 0.223218
O O17 0.000000 0.266378 0.250000
#
# Coordination Sequence:
#
# PCOD9317312 Si02
#       8
#     8   8   8   8   8   8   8   8
#     4  10  21  39  62  88 118 161 206 250 300 366
#     4  11  23  41  60  92 123 156 211 263 309 355
#     4  10  22  40  61  90 125 159 203 260 309 362
#     4   9  22  37  59  88 123 160 201 244 304 371
#     4  11  23  40  65  85 120 169 209 252 305 378
#     4  11  22  39  64  90 119 161 207 250 309 372
#     4  10  20  35  58  92 125 154 190 248 311 363
#     4  10  19  36  61  90 122 160 197 246 312 377
#
# _framework density 19.728176999999999
#
# number of rings (size 3 to 8) (size 9 to 14) (size 15 to 20)
#    0.000    1.750    2.500    1.500    1.750    1.500 
#    0.000    1.875    0.000    0.000    0.000    0.000 
#    0.000    0.000    0.000    0.000    0.000    0.000 
#
# Total GULP energy -178635.079505 kJ/mol
# GULP energy per Si atom -5582.346235 kJ/mol
# Density = 1.968327 g / cm^3
# Si number density = 19.728177 Si / 1000 Ang^3
#
#
#
# Elastic Constant Matrix: (Units=GPa)
#
#
# Indices 1 2 3 4 5 6 
#
# 1 25.0624 25.1668 12.9023 0.0000 0.0000 0.0000
# 2 25.1668 73.8933 13.9922 0.0000 0.0000 0.0000
# 3 12.9023 13.9922 65.2364 0.0000 0.0000 0.0000
# 4 0.0000 0.0000 0.0000 23.2738 0.0000 0.0000
# 5 0.0000 0.0000 0.0000 0.0000 24.0195 0.0000
# 6 0.0000 0.0000 0.0000 0.0000 0.0000 24.8601
#
#
#
# Elastic Compliance Matrix: (Units=1/GPa)
#
#
# Indices 1 2 3 4 5 6 
#
# 1 0.064795 -0.020473 -0.008424 0.000000 0.000000 0.000000
# 2 -0.020473 0.020575 -0.000364 0.000000 0.000000 0.000000
# 3 -0.008424 -0.000364 0.017073 0.000000 0.000000 0.000000
# 4 0.000000 0.000000 0.000000 0.042967 0.000000 0.000000
# 5 0.000000 0.000000 0.000000 0.000000 0.041633 0.000000
# 6 0.000000 0.000000 0.000000 0.000000 0.000000 0.040225
#
#
# Mechanical properties :
#
#
# Convention : Reuss Voigt Hill
#
# Bulk Modulus (GPa) = 22.76796 29.81275 26.29036
# Shear Modulus (GPa) = 16.64283 21.90608 19.27446
#
# Velocity S-wave (km/s) = 2.90764 3.33587 3.12909
# Velocity P-wave (km/s) = 4.77895 5.47558 5.13908
#
# Compressibility (1/GPa) = 0.04392137
#
# Stress axis : x y z
#
# Youngs Moduli (GPa) = 15.43322 48.60336 58.57220
#
# Poissons Ratio (x) = 0.99506 0.49340
# Poissons Ratio (y) = 0.31597 0.02131
# Poissons Ratio (z) = 0.13001 0.01768
#
# Static dielectric constant tensor:
#      x y z
#    x 1.681090 0.000000 0.000000 
#    y 0.000000 1.710300 0.000000 
#    z 0.000000 0.000000 1.689650 
# 
# From -- ./inp_files/26907.got.cif
#   From: 2010.05.17/outbox.cif.g08.bks.cpg/sg20_14_cif.got.tgz:26907.got - 2010.06.03 22:52:26.
