data_PCOD9317942
_publ_section_title
;
Structure prediction by ZEFSAII (Michael W. Deem and Ramdas Pophale) SiO2 
 PCOD9317942
Probable space group: C 2 2 21
;
_chemical_formula_sum "Si O2"
_cell_formula_units_Z 32
_cell_length_a 21.407489
_cell_length_b 14.012658
_cell_length_c 5.296630
_cell_angle_alpha 90.000000
_cell_angle_beta 90.000000
_cell_angle_gamma 90.000000
_cell_volume 1588.860938
_symmetry_space_group_name_H-M "C 2 2 21"
_symmetry_group_IT_number 20
_symmetry_cell_setting 'orthorhombic'
loop_
_space_group_symop_operation_xyz
x,y,z
-x,-y,1/2+z
x,-y,-z
-x,y,1/2-z
1/2+x,1/2+y,z
1/2-x,1/2-y,1/2+z
1/2+x,1/2-y,-z
1/2-x,1/2+y,1/2-z
loop_
_atom_site_type_symbol
_atom_site_label
_atom_site_fract_x
_atom_site_fract_y
_atom_site_fract_z
Si Si1 0.167908 0.610118 0.241626
Si Si2 0.363087 0.770163 0.233754
Si Si3 0.000000 0.333222 0.250000
Si Si4 0.188559 0.056660 0.252737
Si Si5 0.433810 0.000000 0.500000
O O1 0.163172 0.673966 0.491223
O O2 0.236227 0.565095 0.235554
O O3 0.114302 0.529098 0.221781
O O4 0.156243 0.674701 0.991062
O O5 0.438129 0.773314 0.199135
O O6 0.337873 0.663422 0.246991
O O7 0.022961 0.408699 0.040360
O O8 0.167086 0.000000 0.500000
O O9 0.171283 0.000000 0.000000
#
# Coordination Sequence:
#
# PCOD9317942 Si02
#       5
#     8   8   4   8   4
#     4  11  22  39  64  93 129 160 202 261 322 368
#     4  11  24  41  62  91 128 168 205 253 312 371
#     4  10  22  38  62  92 130 162 204 246 308 382
#     4  12  24  41  64  92 123 165 214 259 305 364
#     4  10  20  36  64  98 124 168 192 264 310 384
#
# _framework density 20.140214
#
# number of rings (size 3 to 8) (size 9 to 14) (size 15 to 20)
#    0.000    1.000    1.250    6.000    3.500    3.000 
#    0.000    1.250    0.000    0.000    0.000    0.000 
#    0.000    0.000    0.000    0.000    0.000    0.000 
#
# Total GULP energy -89464.278449 kJ/mol
# GULP energy per Si atom -5591.517403 kJ/mol
# Density = 2.009437 g / cm^3
# Si number density = 20.140214 Si / 1000 Ang^3
#
#
#
# Elastic Constant Matrix: (Units=GPa)
#
#
# Indices 1 2 3 4 5 6 
#
# 1 69.8488 18.2068 13.2516 0.0000 0.0000 0.0000
# 2 18.2068 88.5315 70.9371 0.0000 0.0000 0.0000
# 3 13.2516 70.9371 173.8187 0.0000 0.0000 0.0000
# 4 0.0000 0.0000 0.0000 41.9560 0.0000 0.0000
# 5 0.0000 0.0000 0.0000 0.0000 4.6725 0.0000
# 6 0.0000 0.0000 0.0000 0.0000 0.0000 11.5868
#
#
#
# Elastic Compliance Matrix: (Units=1/GPa)
#
#
# Indices 1 2 3 4 5 6 
#
# 1 0.015131 -0.003250 0.000173 0.000000 0.000000 0.000000
# 2 -0.003250 0.017482 -0.006887 0.000000 0.000000 0.000000
# 3 0.000173 -0.006887 0.008550 0.000000 0.000000 0.000000
# 4 0.000000 0.000000 0.000000 0.023834 0.000000 0.000000
# 5 0.000000 0.000000 0.000000 0.000000 0.214019 0.000000
# 6 0.000000 0.000000 0.000000 0.000000 0.000000 0.086305
#
#
# Mechanical properties :
#
#
# Convention : Reuss Voigt Hill
#
# Bulk Modulus (GPa) = 47.09161 59.66557 53.37859
# Shear Modulus (GPa) = 12.74440 26.96329 19.85385
#
# Velocity S-wave (km/s) = 2.51825 3.66290 3.14312
# Velocity P-wave (km/s) = 5.64695 6.89772 6.30344
#
# Compressibility (1/GPa) = 0.02123520
#
# Stress axis : x y z
#
# Youngs Moduli (GPa) = 66.08924 57.20174 116.95223
#
# Poissons Ratio (x) = 0.18592 -0.02022
# Poissons Ratio (y) = 0.21481 0.80542
# Poissons Ratio (z) = -0.01143 0.39394
#
# Static dielectric constant tensor:
#      x y z
#    x 1.714950 0.000000 0.000000 
#    y 0.000000 1.694090 0.000000 
#    z 0.000000 0.000000 1.752410 
# 
# From -- ./inp_files/1034.got.cif
#   From: 2010.05.17/outbox.cif.g08.bks.cpg/sg20_1_cif.got.tgz:1034.got - 2010.06.03 22:52:26.
