data_PCOD9317551
_publ_section_title
;
Structure prediction by ZEFSAII (Michael W. Deem and Ramdas Pophale) SiO2 
 PCOD9317551
Probable space group: C 2 2 21
;
_chemical_formula_sum "Si O2"
_cell_formula_units_Z 52
_cell_length_a 26.387488
_cell_length_b 8.164211
_cell_length_c 11.165746
_cell_angle_alpha 90.000000
_cell_angle_beta 90.000000
_cell_angle_gamma 90.000000
_cell_volume 2405.470379
_symmetry_space_group_name_H-M "C 2 2 21"
_symmetry_group_IT_number 20
_symmetry_cell_setting 'orthorhombic'
loop_
_space_group_symop_operation_xyz
x,y,z
-x,-y,1/2+z
x,-y,-z
-x,y,1/2-z
1/2+x,1/2+y,z
1/2-x,1/2-y,1/2+z
1/2+x,1/2-y,-z
1/2-x,1/2+y,1/2-z
loop_
_atom_site_type_symbol
_atom_site_label
_atom_site_fract_x
_atom_site_fract_y
_atom_site_fract_z
Si Si1 0.823643 0.118741 0.216230
Si Si2 0.150964 0.500000 0.000000
Si Si3 0.399066 0.665590 0.428254
Si Si4 0.053458 0.619350 0.728044
Si Si5 0.413203 0.665899 0.025390
Si Si6 0.639311 0.905248 0.627321
Si Si7 0.720773 0.965049 0.231679
O O1 0.852012 0.111197 0.343503
O O2 0.865847 0.123605 0.112986
O O3 0.779725 0.986344 0.208990
O O4 0.794319 0.291890 0.211143
O O5 0.118495 0.329486 0.998151
O O6 0.188640 0.486082 0.111759
O O7 0.414110 0.500000 0.500000
O O8 0.437772 0.743680 0.330299
O O9 0.053598 0.705660 0.598401
O O10 0.102792 0.504594 0.718510
O O11 0.000000 0.533836 0.750000
O O12 0.442227 0.500000 0.000000
O O13 0.389381 0.740082 0.905566
O O14 0.695668 0.902519 0.678058
O O15 0.640520 0.000000 0.500000
#
# Coordination Sequence:
#
# PCOD9317551 Si02
#       7
#     8   4   8   8   8   8   8
#     4  10  23  37  54  93 126 168 211 257 315 373
#     4  10  22  40  56  88 130 166 212 256 306 382
#     4  10  22  42  62  88 128 168 203 262 327 378
#     4  10  21  44  65  89 125 156 210 274 327 389
#     4  10  22  39  62  92 126 164 210 266 324 383
#     4  10  19  42  63  84 125 169 207 260 314 379
#     4  11  22  37  57  88 127 166 213 257 306 374
#
# _framework density 21.617394000000001
#
# number of rings (size 3 to 8) (size 9 to 14) (size 15 to 20)
#    0.000    1.846    6.154    0.000    5.385    3.692 
#    4.154    0.769    0.000    0.000    0.000    0.000 
#    0.000    0.000    0.000    0.000    0.000    0.000 
#
# Total GULP energy -144992.360544 kJ/mol
# GULP energy per Si atom -5576.629252 kJ/mol
# Density = 2.156819 g / cm^3
# Si number density = 21.617394 Si / 1000 Ang^3
#
#
#
# Elastic Constant Matrix: (Units=GPa)
#
#
# Indices 1 2 3 4 5 6 
#
# 1 70.7924 -11.3353 8.1878 0.0000 0.0000 0.0000
# 2 -11.3353 80.2003 18.0692 0.0000 0.0000 0.0000
# 3 8.1878 18.0692 50.0383 0.0000 0.0000 0.0000
# 4 0.0000 0.0000 0.0000 17.4470 0.0000 0.0000
# 5 0.0000 0.0000 0.0000 0.0000 5.1861 0.0000
# 6 0.0000 0.0000 0.0000 0.0000 0.0000 11.5772
#
#
#
# Elastic Compliance Matrix: (Units=1/GPa)
#
#
# Indices 1 2 3 4 5 6 
#
# 1 0.014997 0.002909 -0.003505 0.000000 0.000000 0.000000
# 2 0.002909 0.014137 -0.005581 0.000000 0.000000 0.000000
# 3 -0.003505 -0.005581 0.022574 0.000000 0.000000 0.000000
# 4 0.000000 0.000000 0.000000 0.057316 0.000000 0.000000
# 5 0.000000 0.000000 0.000000 0.000000 0.192823 0.000000
# 6 0.000000 0.000000 0.000000 0.000000 0.000000 0.086377
#
#
# Mechanical properties :
#
#
# Convention : Reuss Voigt Hill
#
# Bulk Modulus (GPa) = 25.40976 25.65272 25.53124
# Shear Modulus (GPa) = 12.08619 19.24935 15.66777
#
# Velocity S-wave (km/s) = 2.36709 2.98729 2.69509
# Velocity P-wave (km/s) = 4.38755 4.87760 4.63905
#
# Compressibility (1/GPa) = 0.03935496
#
# Stress axis : x y z
#
# Youngs Moduli (GPa) = 66.68015 70.73436 44.29968
#
# Poissons Ratio (x) = -0.20578 0.15525
# Poissons Ratio (y) = -0.19399 0.24724
# Poissons Ratio (z) = 0.23368 0.39478
#
# Static dielectric constant tensor:
#      x y z
#    x 1.765400 0.000000 0.000000 
#    y 0.000000 1.883290 0.000000 
#    z 0.000000 0.000000 1.792840 
# 
# From -- ./inp_files/17191.got.cif
#   From: 2010.05.17/outbox.cif.g08.bks.cpg/sg20_9_cif.got.tgz:17191.got - 2010.06.03 22:52:26.
