data_PCOD9317550
_publ_section_title
;
Structure prediction by ZEFSAII (Michael W. Deem and Ramdas Pophale) SiO2 
 PCOD9317550
Probable space group: C 2 2 21
;
_chemical_formula_sum "Si O2"
_cell_formula_units_Z 48
_cell_length_a 5.103958
_cell_length_b 13.201807
_cell_length_c 27.540067
_cell_angle_alpha 90.000000
_cell_angle_beta 90.000000
_cell_angle_gamma 90.000000
_cell_volume 1855.690156
_symmetry_space_group_name_H-M "C 2 2 21"
_symmetry_group_IT_number 20
_symmetry_cell_setting 'orthorhombic'
loop_
_space_group_symop_operation_xyz
x,y,z
-x,-y,1/2+z
x,-y,-z
-x,y,1/2-z
1/2+x,1/2+y,z
1/2-x,1/2-y,1/2+z
1/2+x,1/2-y,-z
1/2-x,1/2+y,1/2-z
loop_
_atom_site_type_symbol
_atom_site_label
_atom_site_fract_x
_atom_site_fract_y
_atom_site_fract_z
Si Si1 0.763991 0.339599 0.219017
Si Si2 0.869384 0.022015 0.444607
Si Si3 0.956095 0.764190 0.966173
Si Si4 0.346997 0.338965 0.388112
Si Si5 0.045833 0.890517 0.697439
Si Si6 0.474676 0.112622 0.134095
O O1 0.500000 0.335230 0.250000
O O2 0.715185 0.382037 0.165207
O O3 0.853197 0.223830 0.207992
O O4 0.000000 0.387250 0.250000
O O5 0.044365 0.122391 0.445047
O O6 0.618526 0.050286 0.412352
O O7 0.799930 0.000000 0.500000
O O8 0.992116 0.923311 0.419808
O O9 0.903759 0.689664 0.921281
O O10 0.723070 0.751149 0.004713
O O11 0.483444 0.230268 0.381128
O O12 0.273370 0.930605 0.662313
O O13 0.000000 0.940472 0.750000
O O14 0.771028 0.885343 0.670539
#
# Coordination Sequence:
#
# PCOD9317550 Si02
#       6
#     8   8   8   8   8   8
#     4  10  20  39  70 107 141 190 243 294 369 442
#     4  12  27  50  75 110 148 205 252 304 385 447
#     4  12  27  53  74 110 152 197 257 316 371 450
#     4  11  25  50  79 107 156 197 244 316 371 442
#     4  10  19  41  75 106 146 192 240 305 375 439
#     4  11  24  46  68 113 148 189 252 304 364 455
#
# _framework density 25.866388000000001
#
# number of rings (size 3 to 8) (size 9 to 14) (size 15 to 20)
#    0.000    1.000    1.667    7.500    0.000    1.333 
#    9.000    2.500    0.000    1.000    0.000    4.667 
#    0.000    0.000    0.000    0.000    0.000    0.000 
#
# Total GULP energy -134648.644907 kJ/mol
# GULP energy per Si atom -5610.360204 kJ/mol
# Density = 2.580752 g / cm^3
# Si number density = 25.866388 Si / 1000 Ang^3
#
#
#
# Elastic Constant Matrix: (Units=GPa)
#
#
# Indices 1 2 3 4 5 6 
#
# 1 128.4000 18.2613 57.4069 0.0000 0.0000 0.0000
# 2 18.2613 125.5564 44.6182 0.0000 0.0000 0.0000
# 3 57.4069 44.6182 220.8236 0.0000 0.0000 0.0000
# 4 0.0000 0.0000 0.0000 36.0023 0.0000 0.0000
# 5 0.0000 0.0000 0.0000 0.0000 46.2069 0.0000
# 6 0.0000 0.0000 0.0000 0.0000 0.0000 18.3737
#
#
#
# Elastic Compliance Matrix: (Units=1/GPa)
#
#
# Indices 1 2 3 4 5 6 
#
# 1 0.008842 -0.000505 -0.002197 0.000000 0.000000 0.000000
# 2 -0.000505 0.008610 -0.001608 0.000000 0.000000 0.000000
# 3 -0.002197 -0.001608 0.005424 0.000000 0.000000 0.000000
# 4 0.000000 0.000000 0.000000 0.027776 0.000000 0.000000
# 5 0.000000 0.000000 0.000000 0.000000 0.021642 0.000000
# 6 0.000000 0.000000 0.000000 0.000000 0.000000 0.054426
#
#
# Mechanical properties :
#
#
# Convention : Reuss Voigt Hill
#
# Bulk Modulus (GPa) = 70.14699 79.48364 74.81532
# Shear Modulus (GPa) = 35.69089 43.74948 39.72018
#
# Velocity S-wave (km/s) = 3.71862 4.11708 3.92291
# Velocity P-wave (km/s) = 6.75391 7.30724 7.03602
#
# Compressibility (1/GPa) = 0.01425578
#
# Stress axis : x y z
#
# Youngs Moduli (GPa) = 113.09528 116.15003 184.34993
#
# Poissons Ratio (x) = 0.05871 0.40493
# Poissons Ratio (y) = 0.05716 0.29647
# Poissons Ratio (z) = 0.24842 0.18679
#
# Static dielectric constant tensor:
#      x y z
#    x 1.992330 0.000000 0.000000 
#    y 0.000000 2.043010 0.000000 
#    z 0.000000 0.000000 2.052460 
# 
# From -- ./inp_files/29814.got.cif
#   From: 2010.05.17/outbox.cif.g08.bks.cpg/sg20_15_cif.got.tgz:29814.got - 2010.06.03 22:52:26.
