data_PCOD9317306
_publ_section_title
;
Structure prediction by ZEFSAII (Michael W. Deem and Ramdas Pophale) SiO2 
 PCOD9317306
Probable space group: C 2 2 21
;
_chemical_formula_sum "Si O2"
_cell_formula_units_Z 40
_cell_length_a 7.098857
_cell_length_b 18.014953
_cell_length_c 15.713762
_cell_angle_alpha 90.000000
_cell_angle_beta 90.000000
_cell_angle_gamma 90.000000
_cell_volume 2009.563492
_symmetry_space_group_name_H-M "C 2 2 21"
_symmetry_group_IT_number 20
_symmetry_cell_setting 'orthorhombic'
loop_
_space_group_symop_operation_xyz
x,y,z
-x,-y,1/2+z
x,-y,-z
-x,y,1/2-z
1/2+x,1/2+y,z
1/2-x,1/2-y,1/2+z
1/2+x,1/2-y,-z
1/2-x,1/2+y,1/2-z
loop_
_atom_site_type_symbol
_atom_site_label
_atom_site_fract_x
_atom_site_fract_y
_atom_site_fract_z
Si Si1 0.815401 0.245592 0.117133
Si Si2 0.500000 0.834899 0.250000
Si Si3 0.936249 0.392405 0.586695
Si Si4 0.024158 0.551838 0.898744
Si Si5 0.835809 0.000000 0.500000
Si Si6 0.156924 0.158239 0.038919
O O1 0.841092 0.283915 0.207930
O O2 0.018234 0.216001 0.083880
O O3 0.689092 0.173149 0.120034
O O4 0.727517 0.302609 0.048294
O O5 0.444804 0.888378 0.326934
O O6 0.901841 0.412884 0.486865
O O7 0.898295 0.471920 0.629145
O O8 0.152263 0.363423 0.589117
O O9 0.808889 0.529050 0.926024
O O10 0.937703 0.923458 0.524668
#
# Coordination Sequence:
#
# PCOD9317306 Si02
#       6
#     8   4   8   8   4   8
#     4  12  21  35  60  87 120 142 197 243 296 325
#     4  12  20  36  56  92 120 150 180 268 290 330
#     4   9  19  40  62  83 105 162 203 225 273 377
#     4   8  17  36  62  77 114 156 194 227 296 334
#     4   8  16  36  56  82 100 156 202 216 268 372
#     4  10  19  36  61  84 108 156 195 232 275 364
#
# _framework density 19.904820999999998
#
# number of rings (size 3 to 8) (size 9 to 14) (size 15 to 20)
#    0.000    2.800    6.000    0.000    0.000    1.600 
#    7.200    0.000    0.000    0.000    0.000    0.000 
#    0.000    0.000    0.000    0.000    0.000    0.000 
#
# Total GULP energy -111348.304244 kJ/mol
# GULP energy per Si atom -5567.415212 kJ/mol
# Density = 1.985952 g / cm^3
# Si number density = 19.904821 Si / 1000 Ang^3
#
#
#
# Elastic Constant Matrix: (Units=GPa)
#
#
# Indices 1 2 3 4 5 6 
#
# 1 37.9478 12.2948 -0.1376 0.0000 0.0000 0.0000
# 2 12.2948 146.2341 13.1785 0.0000 0.0000 0.0000
# 3 -0.1376 13.1785 21.4964 0.0000 0.0000 0.0000
# 4 0.0000 0.0000 0.0000 47.2359 0.0000 0.0000
# 5 0.0000 0.0000 0.0000 0.0000 10.6215 0.0000
# 6 0.0000 0.0000 0.0000 0.0000 0.0000 25.4522
#
#
#
# Elastic Compliance Matrix: (Units=1/GPa)
#
#
# Indices 1 2 3 4 5 6 
#
# 1 0.027146 -0.002432 0.001665 0.000000 0.000000 0.000000
# 2 -0.002432 0.007456 -0.004587 0.000000 0.000000 0.000000
# 3 0.001665 -0.004587 0.049342 0.000000 0.000000 0.000000
# 4 0.000000 0.000000 0.000000 0.021170 0.000000 0.000000
# 5 0.000000 0.000000 0.000000 0.000000 0.094149 0.000000
# 6 0.000000 0.000000 0.000000 0.000000 0.000000 0.039289
#
#
# Mechanical properties :
#
#
# Convention : Reuss Voigt Hill
#
# Bulk Modulus (GPa) = 13.65445 28.48329 21.06887
# Shear Modulus (GPa) = 18.26999 28.68476 23.47738
#
# Velocity S-wave (km/s) = 3.03292 3.80030 3.43808
# Velocity P-wave (km/s) = 4.37488 5.79630 5.13501
#
# Compressibility (1/GPa) = 0.07323619
#
# Stress axis : x y z
#
# Youngs Moduli (GPa) = 36.83767 134.11657 20.26675
#
# Poissons Ratio (x) = 0.32622 -0.03374
# Poissons Ratio (y) = 0.08960 0.09296
# Poissons Ratio (z) = -0.06134 0.61514
#
# Static dielectric constant tensor:
#      x y z
#    x 1.747100 0.000000 0.000000 
#    y 0.000000 1.761070 0.000000 
#    z 0.000000 0.000000 1.703060 
# 
# From -- ./inp_files/18725.got.cif
#   From: 2010.05.17/outbox.cif.g08.bks.cpg/sg20_10_cif.got.tgz:18725.got - 2010.06.03 22:52:26.
