data_PCOD9317798
_publ_section_title
;
Structure prediction by ZEFSAII (Michael W. Deem and Ramdas Pophale) SiO2 
 PCOD9317798
Probable space group: C 2 2 21
;
_chemical_formula_sum "Si O2"
_cell_formula_units_Z 64
_cell_length_a 7.546662
_cell_length_b 12.910148
_cell_length_c 29.018817
_cell_angle_alpha 90.000000
_cell_angle_beta 90.000000
_cell_angle_gamma 90.000000
_cell_volume 2827.260489
_symmetry_space_group_name_H-M "C 2 2 21"
_symmetry_group_IT_number 20
_symmetry_cell_setting 'orthorhombic'
loop_
_space_group_symop_operation_xyz
x,y,z
-x,-y,1/2+z
x,-y,-z
-x,y,1/2-z
1/2+x,1/2+y,z
1/2-x,1/2-y,1/2+z
1/2+x,1/2-y,-z
1/2-x,1/2+y,1/2-z
loop_
_atom_site_type_symbol
_atom_site_label
_atom_site_fract_x
_atom_site_fract_y
_atom_site_fract_z
Si Si1 0.635637 0.620802 0.394236
Si Si2 0.191294 0.797812 0.304112
Si Si3 0.756044 0.658424 0.892952
Si Si4 0.350588 0.394353 0.101878
Si Si5 0.952453 0.391639 0.015386
Si Si6 0.674375 0.713559 0.043777
Si Si7 0.428192 0.394872 0.699507
Si Si8 0.297363 0.630438 0.705389
O O1 0.764466 0.718263 0.400066
O O2 0.703527 0.510248 0.411710
O O3 0.462719 0.657101 0.422574
O O4 0.574143 0.609131 0.340968
O O5 0.226261 0.870292 0.347673
O O6 0.272960 0.685553 0.312462
O O7 0.267402 0.842497 0.256286
O O8 0.976626 0.800460 0.300572
O O9 0.564782 0.605313 0.896316
O O10 0.888167 0.613637 0.931304
O O11 0.820092 0.647744 0.839942
O O12 0.290500 0.298140 0.071115
O O13 0.070539 0.289456 0.009013
O O14 0.033240 0.500000 0.000000
O O15 0.782872 0.371495 0.983569
O O16 0.500000 0.366537 0.750000
O O17 0.357845 0.511525 0.703870
#
# Coordination Sequence:
#
# PCOD9317798 Si02
#       8
#     8   8   8   8   8   8   8   8
#     4  11  22  40  65  95 123 170 211 256 321 377
#     4  10  20  35  63  91 120 169 209 249 307 375
#     4  10  22  40  65  92 124 167 210 262 316 379
#     4  11  21  41  65  89 132 165 207 262 317 376
#     4  11  25  43  66  94 128 164 213 267 322 378
#     4  11  25  42  65  96 127 164 218 260 323 383
#     4  12  20  36  67  88 127 174 206 257 313 369
#     4  10  20  40  60  90 129 165 212 258 311 369
#
# _framework density 22.636752999999999
#
# number of rings (size 3 to 8) (size 9 to 14) (size 15 to 20)
#    0.000    1.250    5.000    2.250    0.000    3.000 
#    0.000    4.375    8.250    0.000    0.000    0.000 
#    0.000    0.000    0.000    0.000    0.000    0.000 
#
# Total GULP energy -178863.027240 kJ/mol
# GULP energy per Si atom -5589.469601 kJ/mol
# Density = 2.258523 g / cm^3
# Si number density = 22.636753 Si / 1000 Ang^3
#
#
#
# Elastic Constant Matrix: (Units=GPa)
#
#
# Indices 1 2 3 4 5 6 
#
# 1 28.0252 22.9688 8.4882 0.0000 0.0000 0.0000
# 2 22.9688 93.6560 22.2341 0.0000 0.0000 0.0000
# 3 8.4882 22.2341 115.7785 0.0000 0.0000 0.0000
# 4 0.0000 0.0000 0.0000 29.6145 0.0000 0.0000
# 5 0.0000 0.0000 0.0000 0.0000 30.5269 0.0000
# 6 0.0000 0.0000 0.0000 0.0000 0.0000 29.5474
#
#
#
# Elastic Compliance Matrix: (Units=1/GPa)
#
#
# Indices 1 2 3 4 5 6 
#
# 1 0.044825 -0.010701 -0.001231 0.000000 0.000000 0.000000
# 2 -0.010701 0.013742 -0.001854 0.000000 0.000000 0.000000
# 3 -0.001231 -0.001854 0.009084 0.000000 0.000000 0.000000
# 4 0.000000 0.000000 0.000000 0.033767 0.000000 0.000000
# 5 0.000000 0.000000 0.000000 0.000000 0.032758 0.000000
# 6 0.000000 0.000000 0.000000 0.000000 0.000000 0.033844
#
#
# Mechanical properties :
#
#
# Convention : Reuss Voigt Hill
#
# Bulk Modulus (GPa) = 24.95167 38.31577 31.63372
# Shear Modulus (GPa) = 23.92883 30.18899 27.05891
#
# Velocity S-wave (km/s) = 3.25480 3.65585 3.46114
# Velocity P-wave (km/s) = 5.01713 5.89775 5.47517
#
# Compressibility (1/GPa) = 0.04007748
#
# Stress axis : x y z
#
# Youngs Moduli (GPa) = 22.30874 72.76956 110.08861
#
# Poissons Ratio (x) = 0.77871 0.13556
# Poissons Ratio (y) = 0.23873 0.20416
# Poissons Ratio (z) = 0.02747 0.13495
#
# Static dielectric constant tensor:
#      x y z
#    x 1.864910 0.000000 0.000000 
#    y 0.000000 1.788300 0.000000 
#    z 0.000000 0.000000 1.889400 
# 
# From -- ./inp_files/31063.got.cif
#   From: 2010.05.17/outbox.cif.g08.bks.cpg/sg20_16_cif.got.tgz:31063.got - 2010.06.03 22:52:26.
