data_PCOD9317997
_publ_section_title
;
Structure prediction by ZEFSAII (Michael W. Deem and Ramdas Pophale) SiO2 
 PCOD9317997
Probable space group: C 2 2 21
;
_chemical_formula_sum "Si O2"
_cell_formula_units_Z 52
_cell_length_a 14.825235
_cell_length_b 19.893502
_cell_length_c 8.480752
_cell_angle_alpha 90.000000
_cell_angle_beta 90.000000
_cell_angle_gamma 90.000000
_cell_volume 2501.192925
_symmetry_space_group_name_H-M "C 2 2 21"
_symmetry_group_IT_number 20
_symmetry_cell_setting 'orthorhombic'
loop_
_space_group_symop_operation_xyz
x,y,z
-x,-y,1/2+z
x,-y,-z
-x,y,1/2-z
1/2+x,1/2+y,z
1/2-x,1/2-y,1/2+z
1/2+x,1/2-y,-z
1/2-x,1/2+y,1/2-z
loop_
_atom_site_type_symbol
_atom_site_label
_atom_site_fract_x
_atom_site_fract_y
_atom_site_fract_z
Si Si1 0.033864 0.069205 0.074545
Si Si2 0.784458 0.290884 0.919399
Si Si3 0.770847 0.574522 0.565117
Si Si4 0.738446 0.429280 0.059980
Si Si5 0.637914 0.798404 0.936474
Si Si6 0.000000 0.227084 0.750000
Si Si7 0.391476 0.333736 0.024421
O O1 0.000000 0.059360 0.250000
O O2 0.137435 0.073346 0.017241
O O3 0.985681 0.139116 0.034347
O O4 0.997898 0.000000 0.000000
O O5 0.811906 0.297189 0.735754
O O6 0.850135 0.238637 0.011498
O O7 0.786896 0.363778 0.993922
O O8 0.688024 0.255173 0.950042
O O9 0.786399 0.500000 0.500000
O O10 0.747434 0.571700 0.750910
O O11 0.847663 0.628677 0.516506
O O12 0.681525 0.609455 0.491020
O O13 0.777436 0.500000 0.000000
O O14 0.537491 0.774772 0.888858
O O15 0.916423 0.178797 0.792148
#
# Coordination Sequence:
#
# PCOD9317997 Si02
#       7
#     8   8   8   8   8   4   8
#     4  11  26  38  58  91 133 179 206 257 321 388
#     4  10  20  37  59  92 118 165 212 262 315 368
#     4  11  23  39  64  92 121 165 217 265 318 379
#     4  11  24  39  62  90 127 167 211 267 318 388
#     4  10  21  37  65  88 128 164 214 265 314 385
#     4  10  20  40  60  92 120 170 198 262 324 368
#     4  10  21  35  62  85 130 160 209 261 305 386
#
# _framework density 20.79008
#
# number of rings (size 3 to 8) (size 9 to 14) (size 15 to 20)
#    0.000    1.538    0.000    6.000   14.000    0.000 
#    2.769    0.000    0.000    7.385    0.000    0.000 
#    0.000    0.000    0.000    0.000    0.000    0.000 
#
# Total GULP energy -144742.639134 kJ/mol
# GULP energy per Si atom -5567.024582 kJ/mol
# Density = 2.074276 g / cm^3
# Si number density = 20.790080 Si / 1000 Ang^3
#
#
#
# Elastic Constant Matrix: (Units=GPa)
#
#
# Indices 1 2 3 4 5 6 
#
# 1 43.3431 23.8167 5.5479 0.0000 0.0000 0.0000
# 2 23.8167 172.5189 37.5326 0.0000 0.0000 0.0000
# 3 5.5479 37.5326 110.3043 0.0000 0.0000 0.0000
# 4 0.0000 0.0000 0.0000 24.7062 0.0000 0.0000
# 5 0.0000 0.0000 0.0000 0.0000 32.3074 0.0000
# 6 0.0000 0.0000 0.0000 0.0000 0.0000 -21.2573
#
#
#
# Elastic Compliance Matrix: (Units=1/GPa)
#
#
# Indices 1 2 3 4 5 6 
#
# 1 0.024966 -0.003427 -0.000090 0.000000 0.000000 0.000000
# 2 -0.003427 0.006730 -0.002118 0.000000 0.000000 0.000000
# 3 -0.000090 -0.002118 0.009791 0.000000 0.000000 0.000000
# 4 0.000000 0.000000 0.000000 0.040476 0.000000 0.000000
# 5 0.000000 0.000000 0.000000 0.000000 0.030953 0.000000
# 6 0.000000 0.000000 0.000000 0.000000 0.000000 -0.047043
#
#
# Mechanical properties :
#
#
# Convention : Reuss Voigt Hill
#
# Bulk Modulus (GPa) = 33.09208 51.10675 42.09941
# Shear Modulus (GPa) = 57.32941 24.43585 40.88263
#
# Velocity S-wave (km/s) = 5.25692 3.43207 4.43928
# Velocity P-wave (km/s) = 7.26628 6.35147 6.82422
#
# Compressibility (1/GPa) = 0.03021871
#
# Stress axis : x y z
#
# Youngs Moduli (GPa) = 40.05380 148.58124 102.13551
#
# Poissons Ratio (x) = 0.50922 0.00915
# Poissons Ratio (y) = 0.13727 0.21629
# Poissons Ratio (z) = 0.00359 0.31465
#
# Static dielectric constant tensor:
#      x y z
#    x 1.813640 0.000000 0.000000 
#    y 0.000000 1.513930 0.000000 
#    z 0.000000 0.000000 2.408110 
# 
# From -- ./inp_files/8677.got.cif
#   From: 2010.05.17/outbox.cif.g08.bks.cpg/sg20_5_cif.got.tgz:8677.got - 2010.06.03 22:52:26.
