data_PCOD9317254
_publ_section_title
;
Structure prediction by ZEFSAII (Michael W. Deem and Ramdas Pophale) SiO2 
 PCOD9317254
Probable space group: C 2 2 21
;
_chemical_formula_sum "Si O2"
_cell_formula_units_Z 64
_cell_length_a 13.591481
_cell_length_b 12.246824
_cell_length_c 16.322711
_cell_angle_alpha 90.000000
_cell_angle_beta 90.000000
_cell_angle_gamma 90.000000
_cell_volume 2716.955656
_symmetry_space_group_name_H-M "C 2 2 21"
_symmetry_group_IT_number 20
_symmetry_cell_setting 'orthorhombic'
loop_
_space_group_symop_operation_xyz
x,y,z
-x,-y,1/2+z
x,-y,-z
-x,y,1/2-z
1/2+x,1/2+y,z
1/2-x,1/2-y,1/2+z
1/2+x,1/2-y,-z
1/2-x,1/2+y,1/2-z
loop_
_atom_site_type_symbol
_atom_site_label
_atom_site_fract_x
_atom_site_fract_y
_atom_site_fract_z
Si Si1 0.263301 0.675636 0.952044
Si Si2 0.599075 0.298048 0.790910
Si Si3 0.761960 0.621577 0.736169
Si Si4 0.078002 0.190920 0.822824
Si Si5 0.448086 0.122762 0.564384
Si Si6 0.526352 0.673826 0.508522
Si Si7 0.330002 0.595036 0.437356
Si Si8 0.916534 0.558145 0.318688
O O1 0.278606 0.657450 0.854114
O O2 0.160964 0.618880 0.974242
O O3 0.361222 0.639882 0.997411
O O4 0.235815 0.802006 0.965376
O O5 0.500000 0.342065 0.750000
O O6 0.666776 0.221009 0.734213
O O7 0.565568 0.203652 0.856357
O O8 0.666329 0.385827 0.838787
O O9 0.672292 0.619928 0.798857
O O10 0.826207 0.514455 0.716103
O O11 0.110710 0.316897 0.835002
O O12 0.000000 0.187902 0.750000
O O13 0.020206 0.154392 0.902797
O O14 0.519555 0.195592 0.509633
O O15 0.464607 0.004913 0.603196
O O16 0.447182 0.614055 0.452274
O O17 0.301329 0.500000 0.500000
O O18 0.000000 0.558429 0.250000
#
# Coordination Sequence:
#
# PCOD9317254 Si02
#       8
#     8   8   8   8   8   8   8   8
#     4   8  16  35  58  70 109 154 173 220 297 326
#     4   8  15  33  58  77 104 149 187 227 283 331
#     4   9  17  35  56  75 113 147 180 237 282 335
#     4  11  21  35  55  84 117 148 183 230 293 340
#     4   8  17  33  54  77 109 142 183 235 275 341
#     4  10  19  36  56  80 114 148 186 229 293 344
#     4   9  20  39  56  82 115 146 191 243 278 346
#     4   9  19  37  57  81 109 143 191 236 282 332
#
# _framework density 23.555776999999999
#
# number of rings (size 3 to 8) (size 9 to 14) (size 15 to 20)
#    0.000    3.750    1.250    1.500    0.000    0.500 
#   20.250    3.125    0.000    0.750    0.000    0.000 
#    0.000    0.000    0.000    0.000    0.000    0.000 
#
# Total GULP energy -178330.296404 kJ/mol
# GULP energy per Si atom -5572.821763 kJ/mol
# Density = 2.350216 g / cm^3
# Si number density = 23.555777 Si / 1000 Ang^3
#
#
#
# Elastic Constant Matrix: (Units=GPa)
#
#
# Indices 1 2 3 4 5 6 
#
# 1 66.4687 -3.2142 2.4816 0.0000 0.0000 0.0000
# 2 -3.2142 101.6254 2.6964 0.0000 0.0000 0.0000
# 3 2.4816 2.6964 23.2111 0.0000 0.0000 0.0000
# 4 0.0000 0.0000 0.0000 11.2099 0.0000 0.0000
# 5 0.0000 0.0000 0.0000 0.0000 24.1784 0.0000
# 6 0.0000 0.0000 0.0000 0.0000 0.0000 8.1522
#
#
#
# Elastic Compliance Matrix: (Units=1/GPa)
#
#
# Indices 1 2 3 4 5 6 
#
# 1 0.015133 0.000523 -0.001679 0.000000 0.000000 0.000000
# 2 0.000523 0.009889 -0.001205 0.000000 0.000000 0.000000
# 3 -0.001679 -0.001205 0.043402 0.000000 0.000000 0.000000
# 4 0.000000 0.000000 0.000000 0.089207 0.000000 0.000000
# 5 0.000000 0.000000 0.000000 0.000000 0.041359 0.000000
# 6 0.000000 0.000000 0.000000 0.000000 0.000000 0.122666
#
#
# Mechanical properties :
#
#
# Convention : Reuss Voigt Hill
#
# Bulk Modulus (GPa) = 15.69782 21.69253 18.69517
# Shear Modulus (GPa) = 14.38393 21.33088 17.85740
#
# Velocity S-wave (km/s) = 2.47378 3.01250 2.75633
# Velocity P-wave (km/s) = 3.85201 4.61835 4.25248
#
# Compressibility (1/GPa) = 0.06370311
#
# Stress axis : x y z
#
# Youngs Moduli (GPa) = 66.08231 101.12689 23.04029
#
# Poissons Ratio (x) = -0.05290 0.03868
# Poissons Ratio (y) = -0.03457 0.02776
# Poissons Ratio (z) = 0.11093 0.12182
#
# Static dielectric constant tensor:
#      x y z
#    x 1.872950 0.000000 0.000000 
#    y 0.000000 1.979280 0.000000 
#    z 0.000000 0.000000 2.036860 
# 
# From -- ./inp_files/25030.got.cif
#   From: 2010.05.17/outbox.cif.g08.bks.cpg/sg20_13_cif.got.tgz:25030.got - 2010.06.03 22:52:26.
