data_PCOD9317823
_publ_section_title
;
Structure prediction by ZEFSAII (Michael W. Deem and Ramdas Pophale) SiO2 
 PCOD9317823
Probable space group: C 2 2 21
;
_chemical_formula_sum "Si O2"
_cell_formula_units_Z 56
_cell_length_a 8.486149
_cell_length_b 14.191993
_cell_length_c 20.046234
_cell_angle_alpha 90.000000
_cell_angle_beta 90.000000
_cell_angle_gamma 90.000000
_cell_volume 2414.275553
_symmetry_space_group_name_H-M "C 2 2 21"
_symmetry_group_IT_number 20
_symmetry_cell_setting 'orthorhombic'
loop_
_space_group_symop_operation_xyz
x,y,z
-x,-y,1/2+z
x,-y,-z
-x,y,1/2-z
1/2+x,1/2+y,z
1/2-x,1/2-y,1/2+z
1/2+x,1/2-y,-z
1/2-x,1/2+y,1/2-z
loop_
_atom_site_type_symbol
_atom_site_label
_atom_site_fract_x
_atom_site_fract_y
_atom_site_fract_z
Si Si1 0.390149 0.856548 0.966946
Si Si2 0.283561 0.883916 0.185710
Si Si3 0.185823 0.702610 0.248920
Si Si4 0.521134 0.959445 0.094088
Si Si5 0.797811 0.906380 0.884233
Si Si6 0.339856 0.273392 0.442682
Si Si7 0.606192 0.425052 0.813255
O O1 0.217802 0.828447 0.991957
O O2 0.487993 0.886999 0.034297
O O3 0.409535 0.949935 0.922623
O O4 0.485085 0.767405 0.939308
O O5 0.272789 0.801377 0.238679
O O6 0.200979 0.838980 0.119990
O O7 0.456738 0.915116 0.162171
O O8 0.184025 0.975459 0.203460
O O9 0.221456 0.635858 0.184511
O O10 0.255840 0.651671 0.313740
O O11 0.000000 0.717435 0.250000
O O12 0.694884 0.002598 0.096958
O O13 0.768029 0.820812 0.935056
O O14 0.980639 0.927602 0.872436
O O15 0.500000 0.395638 0.750000
#
# Coordination Sequence:
#
# PCOD9317823 Si02
#       7
#     8   8   8   8   8   8   8
#     4   9  18  33  53  78 108 143 181 223 273 325
#     4  10  20  36  56  80 107 142 185 226 276 331
#     4  10  20  37  57  79 111 147 184 230 278 330
#     4   9  18  35  56  76 106 146 182 221 276 331
#     4   9  19  36  54  79 112 143 182 231 276 326
#     4   9  19  34  52  78 109 141 182 225 272 328
#     4  10  21  37  55  80 110 142 185 232 275 333
#
# _framework density 23.195363
#
# number of rings (size 3 to 8) (size 9 to 14) (size 15 to 20)
#    0.000    2.571    0.000    1.286    0.000    2.286 
#    0.000   27.857    0.000    0.000    0.000    0.000 
#    0.000    0.000    0.000    0.000    0.000    0.000 
#
# Total GULP energy -156414.332238 kJ/mol
# GULP energy per Si atom -5586.226151 kJ/mol
# Density = 2.314257 g / cm^3
# Si number density = 23.195363 Si / 1000 Ang^3
#
#
#
# Elastic Constant Matrix: (Units=GPa)
#
#
# Indices 1 2 3 4 5 6 
#
# 1 53.0801 43.8786 16.2996 0.0000 0.0000 0.0000
# 2 43.8786 81.8516 9.0595 0.0000 0.0000 0.0000
# 3 16.2996 9.0595 21.9881 0.0000 0.0000 0.0000
# 4 0.0000 0.0000 0.0000 31.1653 0.0000 0.0000
# 5 0.0000 0.0000 0.0000 0.0000 28.0206 0.0000
# 6 0.0000 0.0000 0.0000 0.0000 0.0000 30.6563
#
#
#
# Elastic Compliance Matrix: (Units=1/GPa)
#
#
# Indices 1 2 3 4 5 6 
#
# 1 0.042885 -0.020401 -0.023384 0.000000 0.000000 0.000000
# 2 -0.020401 0.022506 0.005850 0.000000 0.000000 0.000000
# 3 -0.023384 0.005850 0.060403 0.000000 0.000000 0.000000
# 4 0.000000 0.000000 0.000000 0.032087 0.000000 0.000000
# 5 0.000000 0.000000 0.000000 0.000000 0.035688 0.000000
# 6 0.000000 0.000000 0.000000 0.000000 0.000000 0.032620
#
#
# Mechanical properties :
#
#
# Convention : Reuss Voigt Hill
#
# Bulk Modulus (GPa) = 20.03060 32.82169 26.42614
# Shear Modulus (GPa) = 15.68866 23.81393 19.75129
#
# Velocity S-wave (km/s) = 2.60353 3.20764 2.92125
# Velocity P-wave (km/s) = 4.20621 5.28199 4.77450
#
# Compressibility (1/GPa) = 0.04992361
#
# Stress axis : x y z
#
# Youngs Moduli (GPa) = 23.31820 44.43186 16.55540
#
# Poissons Ratio (x) = 0.90647 0.38714
# Poissons Ratio (y) = 0.47572 -0.09685
# Poissons Ratio (z) = 0.54528 -0.25994
#
# Static dielectric constant tensor:
#      x y z
#    x 1.884250 0.000000 0.000000 
#    y 0.000000 1.820830 0.000000 
#    z 0.000000 0.000000 1.961410 
# 
# From -- ./inp_files/26699.got.cif
#   From: 2010.05.17/outbox.cif.g08.bks.cpg/sg20_14_cif.got.tgz:26699.got - 2010.06.03 22:52:26.
