data_PCOD9317205
_publ_section_title
;
Structure prediction by ZEFSAII (Michael W. Deem and Ramdas Pophale) SiO2 
 PCOD9317205
Probable space group: C 2 2 21
;
_chemical_formula_sum "Si O2"
_cell_formula_units_Z 64
_cell_length_a 30.489084
_cell_length_b 12.337347
_cell_length_c 7.579969
_cell_angle_alpha 90.000000
_cell_angle_beta 90.000000
_cell_angle_gamma 90.000000
_cell_volume 2851.238760
_symmetry_space_group_name_H-M "C 2 2 21"
_symmetry_group_IT_number 20
_symmetry_cell_setting 'orthorhombic'
loop_
_space_group_symop_operation_xyz
x,y,z
-x,-y,1/2+z
x,-y,-z
-x,y,1/2-z
1/2+x,1/2+y,z
1/2-x,1/2-y,1/2+z
1/2+x,1/2-y,-z
1/2-x,1/2+y,1/2-z
loop_
_atom_site_type_symbol
_atom_site_label
_atom_site_fract_x
_atom_site_fract_y
_atom_site_fract_z
Si Si1 0.332746 0.443273 0.189286
Si Si2 0.375111 0.653653 0.303524
Si Si3 0.207795 0.726301 0.936669
Si Si4 0.439785 0.805298 0.431270
Si Si5 0.854692 0.401068 0.634286
Si Si6 0.378466 0.772674 0.931366
Si Si7 0.963708 0.628614 0.966804
Si Si8 0.758491 0.601621 0.889275
O O1 0.367557 0.528460 0.266927
O O2 0.356638 0.327449 0.172724
O O3 0.288131 0.432323 0.299986
O O4 0.321325 0.500000 0.000000
O O5 0.332424 0.691594 0.409224
O O6 0.421323 0.685473 0.389230
O O7 0.370818 0.730628 0.129960
O O8 0.213152 0.647966 0.770561
O O9 0.191816 0.656871 0.100526
O O10 0.249998 0.796435 0.981779
O O11 0.399867 0.850903 0.549496
O O12 0.487846 0.825840 0.505897
O O13 0.447165 0.859854 0.237272
O O14 0.850802 0.500000 0.500000
O O15 0.860819 0.384320 0.843612
O O16 0.430107 0.796633 0.925558
O O17 0.962786 0.500000 0.000000
O O18 0.774628 0.500000 0.000000
#
# Coordination Sequence:
#
# PCOD9317205 Si02
#       8
#     8   8   8   8   8   8   8   8
#     4  10  21  41  69  92 121 175 224 271 332 403
#     4   9  20  42  65  89 122 171 218 267 334 397
#     4  11  26  40  63  94 126 163 219 271 328 402
#     4   9  20  36  58  89 125 167 213 267 318 400
#     4  11  22  38  58  89 129 167 209 266 330 390
#     4  10  21  36  63  93 124 167 222 273 320 404
#     4  10  19  35  60  91 129 173 215 264 333 392
#     4  12  26  44  68  96 131 175 222 276 346 400
#
# _framework density 22.446384999999999
#
# number of rings (size 3 to 8) (size 9 to 14) (size 15 to 20)
#    0.000    1.750    2.500    1.125    3.500    4.000 
#    0.000    1.250    0.000   15.000    0.000    0.000 
#    0.000    0.000    0.000    0.000    0.000    0.000 
#
# Total GULP energy -178297.744120 kJ/mol
# GULP energy per Si atom -5571.804504 kJ/mol
# Density = 2.239530 g / cm^3
# Si number density = 22.446385 Si / 1000 Ang^3
#
#
#
# Elastic Constant Matrix: (Units=GPa)
#
#
# Indices 1 2 3 4 5 6 
#
# 1 91.1045 43.5736 21.3964 0.0000 0.0000 0.0000
# 2 43.5736 64.0209 25.2170 0.0000 0.0000 0.0000
# 3 21.3964 25.2170 46.6618 0.0000 0.0000 0.0000
# 4 0.0000 0.0000 0.0000 28.4282 0.0000 0.0000
# 5 0.0000 0.0000 0.0000 0.0000 27.8032 0.0000
# 6 0.0000 0.0000 0.0000 0.0000 0.0000 22.4494
#
#
#
# Elastic Compliance Matrix: (Units=1/GPa)
#
#
# Indices 1 2 3 4 5 6 
#
# 1 0.016404 -0.010420 -0.001891 0.000000 0.000000 0.000000
# 2 -0.010420 0.026463 -0.009523 0.000000 0.000000 0.000000
# 3 -0.001891 -0.009523 0.027444 0.000000 0.000000 0.000000
# 4 0.000000 0.000000 0.000000 0.035176 0.000000 0.000000
# 5 0.000000 0.000000 0.000000 0.000000 0.035967 0.000000
# 6 0.000000 0.000000 0.000000 0.000000 0.000000 0.044545
#
#
# Mechanical properties :
#
#
# Convention : Reuss Voigt Hill
#
# Bulk Modulus (GPa) = 37.53260 42.46234 39.99747
# Shear Modulus (GPa) = 20.96007 23.17618 22.06812
#
# Velocity S-wave (km/s) = 3.05910 3.21676 3.13892
# Velocity P-wave (km/s) = 5.40692 5.72320 5.56731
#
# Compressibility (1/GPa) = 0.02664350
#
# Stress axis : x y z
#
# Youngs Moduli (GPa) = 60.95975 37.78850 36.43756
#
# Poissons Ratio (x) = 0.39377 0.06889
# Poissons Ratio (y) = 0.63522 0.34700
# Poissons Ratio (z) = 0.11526 0.35986
#
# Static dielectric constant tensor:
#      x y z
#    x 1.799610 0.000000 0.000000 
#    y 0.000000 1.878260 0.000000 
#    z 0.000000 0.000000 2.222560 
# 
# From -- ./inp_files/11635.got.cif
#   From: 2010.05.17/outbox.cif.g08.bks.cpg/sg20_6_cif.got.tgz:11635.got - 2010.06.03 22:52:26.
