data_PCOD9317290
_publ_section_title
;
Structure prediction by ZEFSAII (Michael W. Deem and Ramdas Pophale) SiO2 
 PCOD9317290
Probable space group: C 2 2 21
;
_chemical_formula_sum "Si O2"
_cell_formula_units_Z 52
_cell_length_a 14.024470
_cell_length_b 9.824369
_cell_length_c 15.664103
_cell_angle_alpha 90.000000
_cell_angle_beta 90.000000
_cell_angle_gamma 90.000000
_cell_volume 2158.224678
_symmetry_space_group_name_H-M "C 2 2 21"
_symmetry_group_IT_number 20
_symmetry_cell_setting 'orthorhombic'
loop_
_space_group_symop_operation_xyz
x,y,z
-x,-y,1/2+z
x,-y,-z
-x,y,1/2-z
1/2+x,1/2+y,z
1/2-x,1/2-y,1/2+z
1/2+x,1/2-y,-z
1/2-x,1/2+y,1/2-z
loop_
_atom_site_type_symbol
_atom_site_label
_atom_site_fract_x
_atom_site_fract_y
_atom_site_fract_z
Si Si1 0.868697 0.811835 0.995803
Si Si2 0.600888 0.000000 0.500000
Si Si3 0.360324 0.156819 0.663471
Si Si4 0.879877 0.466566 0.814924
Si Si5 0.635525 0.666183 0.694744
Si Si6 0.033150 0.000000 0.000000
Si Si7 0.149331 0.971935 0.842705
Si Si8 0.302994 0.000000 0.500000
O O1 0.854609 0.651207 0.987525
O O2 0.889750 0.843534 0.095659
O O3 0.772755 0.887208 0.965423
O O4 0.963077 0.883977 0.960366
O O5 0.561985 0.019439 0.403270
O O6 0.401784 0.077236 0.743864
O O7 0.249123 0.160642 0.688576
O O8 0.383216 0.315124 0.655275
O O9 0.361711 0.074397 0.574101
O O10 0.893091 0.316614 0.776037
O O11 0.765994 0.474750 0.841380
O O12 0.610265 0.547932 0.759319
O O13 0.104417 0.954410 0.075156
#
# Coordination Sequence:
#
# PCOD9317290 Si02
#       8
#     8   4   8   8   8   4   8   4
#     4   9  20  37  56  77 104 150 195 226 266 321
#     4  10  19  36  60  80 105 140 192 238 272 328
#     4   9  18  31  52  83 112 138 172 218 279 332
#     4   9  18  33  57  85 107 133 172 230 288 329
#     4   8  17  34  53  75 104 138 180 224 268 323
#     4  11  23  36  52  76 109 149 188 224 268 321
#     4  10  20  34  53  81 112 140 176 222 279 337
#     4   9  18  34  54  80 114 145 182 228 276 331
#
# _framework density 24.093878
#
# number of rings (size 3 to 8) (size 9 to 14) (size 15 to 20)
#    0.000    2.769    0.000    1.385    0.000    9.231 
#    0.000    2.308    0.000    1.846    0.000    0.000 
#    0.000    0.000    0.000    0.000    0.000    0.000 
#
# Total GULP energy -144957.416884 kJ/mol
# GULP energy per Si atom -5575.285265 kJ/mol
# Density = 2.403904 g / cm^3
# Si number density = 24.093878 Si / 1000 Ang^3
#
#
#
# Elastic Constant Matrix: (Units=GPa)
#
#
# Indices 1 2 3 4 5 6 
#
# 1 114.5916 40.3415 16.4381 0.0000 0.0000 0.0000
# 2 40.3415 160.1960 56.1480 0.0000 0.0000 0.0000
# 3 16.4381 56.1480 104.2593 0.0000 0.0000 0.0000
# 4 0.0000 0.0000 0.0000 37.9655 0.0000 0.0000
# 5 0.0000 0.0000 0.0000 0.0000 -229.1563 0.0000
# 6 0.0000 0.0000 0.0000 0.0000 0.0000 -27.3354
#
#
#
# Elastic Compliance Matrix: (Units=1/GPa)
#
#
# Indices 1 2 3 4 5 6 
#
# 1 0.009581 -0.002322 -0.000260 0.000000 0.000000 0.000000
# 2 -0.002322 0.008257 -0.004081 0.000000 0.000000 0.000000
# 3 -0.000260 -0.004081 0.011830 0.000000 0.000000 0.000000
# 4 0.000000 0.000000 0.000000 0.026340 0.000000 0.000000
# 5 0.000000 0.000000 0.000000 0.000000 -0.004364 0.000000
# 6 0.000000 0.000000 0.000000 0.000000 0.000000 -0.036583
#
#
# Mechanical properties :
#
#
# Convention : Reuss Voigt Hill
#
# Bulk Modulus (GPa) = 61.18746 67.21133 64.19940
# Shear Modulus (GPa) = 147.77390 -25.96395 60.90497
#
# Velocity S-wave (km/s) = 7.84001 -3.28627 5.03320
# Velocity P-wave (km/s) = 10.36363 3.68195 7.77694
#
# Compressibility (1/GPa) = 0.01634322
#
# Stress axis : x y z
#
# Youngs Moduli (GPa) = 104.37013 121.10485 84.52906
#
# Poissons Ratio (x) = 0.28115 0.02201
# Poissons Ratio (y) = 0.24230 0.34495
# Poissons Ratio (z) = 0.02718 0.49421
#
# Static dielectric constant tensor:
#      x y z
#    x 1.974210 0.000000 0.000000 
#    y 0.000000 2.039800 0.000000 
#    z 0.000000 0.000000 2.238910 
# 
# From -- ./inp_files/25260.got.cif
#   From: 2010.05.17/outbox.cif.g08.bks.cpg/sg20_13_cif.got.tgz:25260.got - 2010.06.03 22:52:26.
