data_PCOD9317660
_publ_section_title
;
Structure prediction by ZEFSAII (Michael W. Deem and Ramdas Pophale) SiO2 
 PCOD9317660
Probable space group: C 2 2 21
;
_chemical_formula_sum "Si O2"
_cell_formula_units_Z 40
_cell_length_a 11.644992
_cell_length_b 14.447130
_cell_length_c 9.467126
_cell_angle_alpha 90.000000
_cell_angle_beta 90.000000
_cell_angle_gamma 90.000000
_cell_volume 1592.718162
_symmetry_space_group_name_H-M "C 2 2 21"
_symmetry_group_IT_number 20
_symmetry_cell_setting 'orthorhombic'
loop_
_space_group_symop_operation_xyz
x,y,z
-x,-y,1/2+z
x,-y,-z
-x,y,1/2-z
1/2+x,1/2+y,z
1/2-x,1/2-y,1/2+z
1/2+x,1/2-y,-z
1/2-x,1/2+y,1/2-z
loop_
_atom_site_type_symbol
_atom_site_label
_atom_site_fract_x
_atom_site_fract_y
_atom_site_fract_z
Si Si1 0.152392 0.875343 0.445333
Si Si2 0.562670 0.166265 0.452252
Si Si3 0.000000 0.008240 0.250000
Si Si4 0.313703 0.852424 0.673097
Si Si5 0.279829 0.143904 0.818544
Si Si6 0.865687 0.000000 0.500000
O O1 0.086969 0.776835 0.448392
O O2 0.207215 0.902887 0.596219
O O3 0.265854 0.869203 0.347000
O O4 0.069525 0.940166 0.355538
O O5 0.653920 0.127112 0.335631
O O6 0.436272 0.139824 0.404055
O O7 0.597232 0.136623 0.608686
O O8 0.931286 0.059182 0.375387
O O9 0.274022 0.745661 0.658383
O O10 0.203433 0.071272 0.904399
#
# Coordination Sequence:
#
# PCOD9317660 Si02
#       6
#     8   8   4   8   8   4
#     4   9  17  31  49  72 100 129 164 205 255 296
#     4   9  16  29  49  73 100 126 162 210 251 290
#     4  10  20  34  52  72 100 134 166 208 252 298
#     4   9  17  30  51  75  98 128 165 210 257 296
#     4   9  18  31  48  71  98 131 165 202 249 299
#     4  10  20  34  50  70 100 134 166 200 248 306
#
# _framework density 25.114296
#
# number of rings (size 3 to 8) (size 9 to 14) (size 15 to 20)
#    0.000    2.800    0.000    3.600    0.000    2.400 
#    0.000    4.000    0.000   10.800    0.000    0.000 
#    0.000    0.000    0.000    0.000    0.000    0.000 
#
# Total GULP energy -111623.920801 kJ/mol
# GULP energy per Si atom -5581.196040 kJ/mol
# Density = 2.505714 g / cm^3
# Si number density = 25.114296 Si / 1000 Ang^3
#
#
#
# Elastic Constant Matrix: (Units=GPa)
#
#
# Indices 1 2 3 4 5 6 
#
# 1 59.3423 4.6617 19.3217 0.0000 0.0000 0.0000
# 2 4.6617 35.7577 25.3108 0.0000 0.0000 0.0000
# 3 19.3217 25.3108 83.7059 0.0000 0.0000 0.0000
# 4 0.0000 0.0000 0.0000 26.6407 0.0000 0.0000
# 5 0.0000 0.0000 0.0000 0.0000 61.6089 0.0000
# 6 0.0000 0.0000 0.0000 0.0000 0.0000 9.6337
#
#
#
# Elastic Compliance Matrix: (Units=1/GPa)
#
#
# Indices 1 2 3 4 5 6 
#
# 1 0.018237 0.000766 -0.004441 0.000000 0.000000 0.000000
# 2 0.000766 0.035614 -0.010946 0.000000 0.000000 0.000000
# 3 -0.004441 -0.010946 0.016282 0.000000 0.000000 0.000000
# 4 0.000000 0.000000 0.000000 0.037536 0.000000 0.000000
# 5 0.000000 0.000000 0.000000 0.000000 0.016231 0.000000
# 6 0.000000 0.000000 0.000000 0.000000 0.000000 0.103803
#
#
# Mechanical properties :
#
#
# Convention : Reuss Voigt Hill
#
# Bulk Modulus (GPa) = 24.45525 30.82159 27.63842
# Shear Modulus (GPa) = 18.47913 28.21078 23.34496
#
# Velocity S-wave (km/s) = 2.71551 3.35520 3.05216
# Velocity P-wave (km/s) = 4.42614 5.22580 4.84250
#
# Compressibility (1/GPa) = 0.04089101
#
# Stress axis : x y z
#
# Youngs Moduli (GPa) = 54.83269 28.07886 61.41928
#
# Poissons Ratio (x) = -0.02151 0.27279
# Poissons Ratio (y) = -0.04201 0.67228
# Poissons Ratio (z) = 0.24353 0.30734
#
# Static dielectric constant tensor:
#      x y z
#    x 2.130150 0.000000 0.000000 
#    y 0.000000 1.965650 0.000000 
#    z 0.000000 0.000000 1.998410 
# 
# From -- ./inp_files/7106.got.cif
#   From: 2010.05.17/outbox.cif.g08.bks.cpg/sg20_4_cif.got.tgz:7106.got - 2010.06.03 22:52:26.
