data_PCOD9317193
_publ_section_title
;
Structure prediction by ZEFSAII (Michael W. Deem and Ramdas Pophale) SiO2 
 PCOD9317193
Probable space group: C 2 2 21
;
_chemical_formula_sum "Si O2"
_cell_formula_units_Z 56
_cell_length_a 5.181154
_cell_length_b 37.465224
_cell_length_c 15.778951
_cell_angle_alpha 90.000000
_cell_angle_beta 90.000000
_cell_angle_gamma 90.000000
_cell_volume 3062.901017
_symmetry_space_group_name_H-M "C 2 2 21"
_symmetry_group_IT_number 20
_symmetry_cell_setting 'orthorhombic'
loop_
_space_group_symop_operation_xyz
x,y,z
-x,-y,1/2+z
x,-y,-z
-x,y,1/2-z
1/2+x,1/2+y,z
1/2-x,1/2-y,1/2+z
1/2+x,1/2-y,-z
1/2-x,1/2+y,1/2-z
loop_
_atom_site_type_symbol
_atom_site_label
_atom_site_fract_x
_atom_site_fract_y
_atom_site_fract_z
Si Si1 0.533740 0.581565 0.426592
Si Si2 0.500000 0.622227 0.250000
Si Si3 0.553973 0.909003 0.345085
Si Si4 0.500000 0.827970 0.750000
Si Si5 0.578237 0.295713 0.032427
Si Si6 0.970005 0.457661 0.992456
Si Si7 0.578446 0.214870 0.077835
Si Si8 0.556659 0.628929 0.593068
O O1 0.532599 0.598394 0.333872
O O2 0.277029 0.559116 0.445845
O O3 0.547765 0.613067 0.497226
O O4 0.777298 0.556226 0.443946
O O5 0.249609 0.647071 0.260316
O O6 0.500000 0.921038 0.250000
O O7 0.523745 0.940240 0.413892
O O8 0.337718 0.879652 0.370016
O O9 0.837743 0.892502 0.355847
O O10 0.464532 0.803703 0.667195
O O11 0.856610 0.297974 0.987509
O O12 0.357392 0.294567 0.960305
O O13 0.560933 0.257880 0.080440
O O14 0.517321 0.329782 0.089421
O O15 0.958001 0.500000 0.000000
#
# Coordination Sequence:
#
# PCOD9317193 Si02
#       8
#     8   4   8   4   8   8   8   8
#     4  10  21  37  58  89 115 149 193 230 279 342
#     4  12  24  38  60  90 122 149 194 247 280 348
#     4  10  21  37  55  86 111 142 192 229 273 336
#     4  12  22  36  56  84 120 155 184 247 304 332
#     4  10  20  37  57  79 106 153 195 235 279 348
#     4  10  21  40  63  82 119 153 185 228 284 339
#     4  10  21  35  55  80 112 145 199 232 286 351
#     4  10  19  35  60  77 112 150 184 236 282 326
#
# _framework density 18.28332
#
# number of rings (size 3 to 8) (size 9 to 14) (size 15 to 20)
#    0.000    1.714    0.000    5.143    0.000    2.286 
#    5.143    0.000    0.000    0.000    0.000    0.000 
#    0.000    0.000    0.000    0.000    0.000    0.000 
#
# Total GULP energy -156475.156559 kJ/mol
# GULP energy per Si atom -5588.398449 kJ/mol
# Density = 1.824171 g / cm^3
# Si number density = 18.283320 Si / 1000 Ang^3
#
#
#
# Elastic Constant Matrix: (Units=GPa)
#
#
# Indices 1 2 3 4 5 6 
#
# 1 61.9895 -12.7605 6.1588 0.0000 0.0000 0.0000
# 2 -12.7605 68.1544 24.5422 0.0000 0.0000 0.0000
# 3 6.1588 24.5422 106.2135 0.0000 0.0000 0.0000
# 4 0.0000 0.0000 0.0000 10.8715 0.0000 0.0000
# 5 0.0000 0.0000 0.0000 0.0000 4.1221 0.0000
# 6 0.0000 0.0000 0.0000 0.0000 0.0000 13.8452
#
#
#
# Elastic Compliance Matrix: (Units=1/GPa)
#
#
# Indices 1 2 3 4 5 6 
#
# 1 0.017120 0.003886 -0.001891 0.000000 0.000000 0.000000
# 2 0.003886 0.016886 -0.004127 0.000000 0.000000 0.000000
# 3 -0.001891 -0.004127 0.010478 0.000000 0.000000 0.000000
# 4 0.000000 0.000000 0.000000 0.091984 0.000000 0.000000
# 5 0.000000 0.000000 0.000000 0.000000 0.242597 0.000000
# 6 0.000000 0.000000 0.000000 0.000000 0.000000 0.072227
#
#
# Mechanical properties :
#
#
# Convention : Reuss Voigt Hill
#
# Bulk Modulus (GPa) = 24.86277 30.24870 27.55573
# Shear Modulus (GPa) = 10.66182 20.32887 15.49534
#
# Velocity S-wave (km/s) = 2.41746 3.33810 2.91437
# Velocity P-wave (km/s) = 4.62820 5.60692 5.14091
#
# Compressibility (1/GPa) = 0.04022078
#
# Stress axis : x y z
#
# Youngs Moduli (GPa) = 58.41273 59.21945 95.43560
#
# Poissons Ratio (x) = -0.23013 0.18043
# Poissons Ratio (y) = -0.22700 0.39388
# Poissons Ratio (z) = 0.11044 0.24441
#
# Static dielectric constant tensor:
#      x y z
#    x 1.621920 0.000000 0.000000 
#    y 0.000000 1.600770 0.000000 
#    z 0.000000 0.000000 1.602090 
# 
# From -- ./inp_files/17993.got.cif
#   From: 2010.05.17/outbox.cif.g08.bks.cpg/sg20_9_cif.got.tgz:17993.got - 2010.06.03 22:52:26.
