data_PCOD9317899
_publ_section_title
;
Structure prediction by ZEFSAII (Michael W. Deem and Ramdas Pophale) SiO2 
 PCOD9317899
Probable space group: C 2 2 21
;
_chemical_formula_sum "Si O2"
_cell_formula_units_Z 40
_cell_length_a 7.429450
_cell_length_b 23.891053
_cell_length_c 10.784231
_cell_angle_alpha 90.000000
_cell_angle_beta 90.000000
_cell_angle_gamma 90.000000
_cell_volume 1914.172788
_symmetry_space_group_name_H-M "C 2 2 21"
_symmetry_group_IT_number 20
_symmetry_cell_setting 'orthorhombic'
loop_
_space_group_symop_operation_xyz
x,y,z
-x,-y,1/2+z
x,-y,-z
-x,y,1/2-z
1/2+x,1/2+y,z
1/2-x,1/2-y,1/2+z
1/2+x,1/2-y,-z
1/2-x,1/2+y,1/2-z
loop_
_atom_site_type_symbol
_atom_site_label
_atom_site_fract_x
_atom_site_fract_y
_atom_site_fract_z
Si Si1 0.786620 0.641142 0.406172
Si Si2 0.000000 0.705088 0.250000
Si Si3 0.738382 0.255070 0.431985
Si Si4 0.814285 0.367024 0.017592
Si Si5 0.000000 0.677284 0.750000
Si Si6 0.983969 0.949752 0.599282
O O1 0.710297 0.695887 0.471368
O O2 0.654110 0.590723 0.416222
O O3 0.830457 0.664737 0.270314
O O4 0.984275 0.627994 0.460146
O O5 0.050459 0.744303 0.361977
O O6 0.770415 0.193788 0.487539
O O7 0.884325 0.281575 0.338407
O O8 0.866274 0.360942 0.165016
O O9 0.688532 0.414300 0.954451
O O10 0.000000 0.964011 0.750000
O O11 0.999991 0.000000 0.500000
#
# Coordination Sequence:
#
# PCOD9317899 Si02
#       6
#     8   4   8   8   4   8
#     4  10  23  42  63  98 137 179 228 287 357 422
#     4  10  20  36  60  99 139 180 216 282 356 424
#     4  10  21  34  63 102 140 186 223 287 358 433
#     4  10  24  42  67 103 144 190 235 299 364 433
#     4  10  22  38  64 107 149 192 236 294 366 442
#     4  12  29  49  74 101 138 195 253 307 363 433
#
# _framework density 20.896756
#
# number of rings (size 3 to 8) (size 9 to 14) (size 15 to 20)
#    0.000    1.600    0.000    3.600   15.400    4.000 
#    0.000    0.000    0.000    0.000    0.000    0.000 
#    0.000    0.000    0.000    0.000    0.000    0.000 
#
# Total GULP energy -111347.059956 kJ/mol
# GULP energy per Si atom -5567.352998 kJ/mol
# Density = 2.084919 g / cm^3
# Si number density = 20.896756 Si / 1000 Ang^3
#
#
#
# Elastic Constant Matrix: (Units=GPa)
#
#
# Indices 1 2 3 4 5 6 
#
# 1 111.6363 55.0476 42.3882 0.0000 0.0000 0.0000
# 2 55.0476 124.8310 75.4210 0.0000 0.0000 0.0000
# 3 42.3882 75.4210 136.9467 0.0000 0.0000 0.0000
# 4 0.0000 0.0000 0.0000 29.8551 0.0000 0.0000
# 5 0.0000 0.0000 0.0000 0.0000 30.0877 0.0000
# 6 0.0000 0.0000 0.0000 0.0000 0.0000 26.2918
#
#
#
# Elastic Compliance Matrix: (Units=1/GPa)
#
#
# Indices 1 2 3 4 5 6 
#
# 1 0.011567 -0.004403 -0.001156 0.000000 0.000000 0.000000
# 2 -0.004403 0.013681 -0.006172 0.000000 0.000000 0.000000
# 3 -0.001156 -0.006172 0.011059 0.000000 0.000000 0.000000
# 4 0.000000 0.000000 0.000000 0.033495 0.000000 0.000000
# 5 0.000000 0.000000 0.000000 0.000000 0.033236 0.000000
# 6 0.000000 0.000000 0.000000 0.000000 0.000000 0.038035
#
#
# Mechanical properties :
#
#
# Convention : Reuss Voigt Hill
#
# Bulk Modulus (GPa) = 77.83973 79.90308 78.87141
# Shear Modulus (GPa) = 29.61789 30.61740 30.11765
#
# Velocity S-wave (km/s) = 3.76885 3.83191 3.80051
# Velocity P-wave (km/s) = 7.50130 7.60908 7.55538
#
# Compressibility (1/GPa) = 0.01284691
#
# Stress axis : x y z
#
# Youngs Moduli (GPa) = 86.44951 73.09202 90.42446
#
# Poissons Ratio (x) = 0.32181 0.10450
# Poissons Ratio (y) = 0.38062 0.55810
# Poissons Ratio (z) = 0.09991 0.45113
#
# Static dielectric constant tensor:
#      x y z
#    x 1.794900 0.000000 0.000000 
#    y 0.000000 1.719220 0.000000 
#    z 0.000000 0.000000 2.126150 
# 
# From -- ./inp_files/12947.got.cif
#   From: 2010.05.17/outbox.cif.g08.bks.cpg/sg20_7_cif.got.tgz:12947.got - 2010.06.03 22:52:26.
