data_PCOD9317369
_publ_section_title
;
Structure prediction by ZEFSAII (Michael W. Deem and Ramdas Pophale) SiO2 
 PCOD9317369
Probable space group: C 2 2 21
;
_chemical_formula_sum "Si O2"
_cell_formula_units_Z 52
_cell_length_a 14.121276
_cell_length_b 8.093546
_cell_length_c 20.525905
_cell_angle_alpha 90.000000
_cell_angle_beta 90.000000
_cell_angle_gamma 90.000000
_cell_volume 2345.930250
_symmetry_space_group_name_H-M "C 2 2 21"
_symmetry_group_IT_number 20
_symmetry_cell_setting 'orthorhombic'
loop_
_space_group_symop_operation_xyz
x,y,z
-x,-y,1/2+z
x,-y,-z
-x,y,1/2-z
1/2+x,1/2+y,z
1/2-x,1/2-y,1/2+z
1/2+x,1/2-y,-z
1/2-x,1/2+y,1/2-z
loop_
_atom_site_type_symbol
_atom_site_label
_atom_site_fract_x
_atom_site_fract_y
_atom_site_fract_z
Si Si1 0.757590 0.339399 0.695403
Si Si2 0.128499 0.768359 0.424867
Si Si3 0.211479 0.463720 0.670740
Si Si4 0.998478 0.000000 0.000000
Si Si5 0.172792 0.532862 0.925294
Si Si6 0.583845 0.341643 0.875632
Si Si7 0.064872 0.030637 0.694410
O O1 0.816342 0.365016 0.762565
O O2 0.808178 0.388496 0.627265
O O3 0.670758 0.467722 0.705350
O O4 0.715996 0.156772 0.686692
O O5 0.153535 0.588533 0.394806
O O6 0.229083 0.862736 0.430063
O O7 0.067950 0.838309 0.485683
O O8 0.070605 0.847898 0.365822
O O9 0.318544 0.403839 0.655499
O O10 0.063516 0.051970 0.059951
O O11 0.096116 0.652560 0.893801
O O12 0.146273 0.500000 0.000000
O O13 0.497140 0.373605 0.828029
O O14 0.000000 0.106485 0.750000
#
# Coordination Sequence:
#
# PCOD9317369 Si02
#       7
#     8   8   8   4   8   8   8
#     4  11  23  39  66  93 128 164 220 268 326 379
#     4   9  20  39  63  85 122 166 209 249 321 383
#     4  11  22  41  64  95 120 167 219 271 314 394
#     4  10  20  40  64  92 128 170 206 264 320 390
#     4  10  21  40  63  86 122 171 210 258 310 385
#     4  10  22  37  62  88 123 163 213 255 320 378
#     4  10  19  37  61  86 123 163 192 262 324 372
#
# _framework density 22.166046999999999
#
# number of rings (size 3 to 8) (size 9 to 14) (size 15 to 20)
#    0.000    1.846    2.308    2.769    2.154    0.000 
#    2.769    0.769    0.000    0.000    0.000    0.000 
#    0.000    0.000    0.000    0.000    0.000    0.000 
#
# Total GULP energy -144931.492156 kJ/mol
# GULP energy per Si atom -5574.288160 kJ/mol
# Density = 2.211560 g / cm^3
# Si number density = 22.166047 Si / 1000 Ang^3
#
#
#
# Elastic Constant Matrix: (Units=GPa)
#
#
# Indices 1 2 3 4 5 6 
#
# 1 26.8989 -10.0934 8.0048 0.0000 0.0000 0.0000
# 2 -10.0934 75.1415 0.1307 0.0000 0.0000 0.0000
# 3 8.0048 0.1307 77.0459 0.0000 0.0000 0.0000
# 4 0.0000 0.0000 0.0000 26.4819 0.0000 0.0000
# 5 0.0000 0.0000 0.0000 0.0000 -26.4825 0.0000
# 6 0.0000 0.0000 0.0000 0.0000 0.0000 17.1711
#
#
#
# Elastic Compliance Matrix: (Units=1/GPa)
#
#
# Indices 1 2 3 4 5 6 
#
# 1 0.040473 0.005444 -0.004214 0.000000 0.000000 0.000000
# 2 0.005444 0.014041 -0.000589 0.000000 0.000000 0.000000
# 3 -0.004214 -0.000589 0.013418 0.000000 0.000000 0.000000
# 4 0.000000 0.000000 0.000000 0.037762 0.000000 0.000000
# 5 0.000000 0.000000 0.000000 0.000000 -0.037761 0.000000
# 6 0.000000 0.000000 0.000000 0.000000 0.000000 0.058237
#
#
# Mechanical properties :
#
#
# Convention : Reuss Voigt Hill
#
# Bulk Modulus (GPa) = 14.44834 19.46338 16.95586
# Shear Modulus (GPa) = 33.79290 15.50372 24.64831
#
# Velocity S-wave (km/s) = 3.90876 2.64755 3.33826
# Velocity P-wave (km/s) = 5.18687 4.25979 4.74602
#
# Compressibility (1/GPa) = 0.06921212
#
# Stress axis : x y z
#
# Youngs Moduli (GPa) = 24.70782 71.22249 74.52604
#
# Poissons Ratio (x) = -0.38773 0.31407
# Poissons Ratio (y) = -0.13451 0.04393
# Poissons Ratio (z) = 0.10412 0.04198
#
# Static dielectric constant tensor:
#      x y z
#    x 1.823660 0.000000 0.000000 
#    y 0.000000 1.836170 0.000000 
#    z 0.000000 0.000000 7.817160 
# 
# From -- ./inp_files/27494.got.cif
#   From: 2010.05.17/outbox.cif.g08.bks.cpg/sg20_14_cif.got.tgz:27494.got - 2010.06.03 22:52:26.
