data_PCOD9317082
_publ_section_title
;
Structure prediction by ZEFSAII (Michael W. Deem and Ramdas Pophale) SiO2 
 PCOD9317082
Probable space group: C 2 2 21
;
_chemical_formula_sum "Si O2"
_cell_formula_units_Z 48
_cell_length_a 26.294550
_cell_length_b 16.758062
_cell_length_c 5.192261
_cell_angle_alpha 90.000000
_cell_angle_beta 90.000000
_cell_angle_gamma 90.000000
_cell_volume 2287.947479
_symmetry_space_group_name_H-M "C 2 2 21"
_symmetry_group_IT_number 20
_symmetry_cell_setting 'orthorhombic'
loop_
_space_group_symop_operation_xyz
x,y,z
-x,-y,1/2+z
x,-y,-z
-x,y,1/2-z
1/2+x,1/2+y,z
1/2-x,1/2-y,1/2+z
1/2+x,1/2-y,-z
1/2-x,1/2+y,1/2-z
loop_
_atom_site_type_symbol
_atom_site_label
_atom_site_fract_x
_atom_site_fract_y
_atom_site_fract_z
Si Si1 0.670315 0.000000 0.000000
Si Si2 0.150198 0.000000 0.500000
Si Si3 0.378063 0.656300 0.245673
Si Si4 0.244107 0.926585 0.195951
Si Si5 0.559579 0.805977 0.279971
Si Si6 0.820369 0.209586 0.746457
Si Si7 0.119628 0.362704 0.775426
O O1 0.636910 0.046448 0.205596
O O2 0.707851 0.934691 0.120609
O O3 0.118741 0.063832 0.334324
O O4 0.190403 0.045823 0.681283
O O5 0.426907 0.711625 0.202957
O O6 0.359950 0.672002 0.536697
O O7 0.335786 0.688968 0.041485
O O8 0.231849 0.832968 0.153878
O O9 0.253308 0.000000 0.000000
O O10 0.500000 0.819137 0.250000
O O11 0.584187 0.844429 0.533267
O O12 0.589135 0.840712 0.033963
O O13 0.831420 0.303703 0.733233
#
# Coordination Sequence:
#
# PCOD9317082 Si02
#       7
#     4   4   8   8   8   8   8
#     4  11  26  40  56  92 122 166 194 270 298 345
#     4   9  16  30  52  84 122 164 194 236 284 347
#     4   9  17  30  57  85 118 151 200 241 295 350
#     4  10  19  34  56  81 123 162 207 232 279 351
#     4  10  21  41  67  89 112 157 203 256 310 383
#     4   9  18  36  55  85 115 164 200 239 285 359
#     4  10  23  42  63  88 125 153 201 252 320 358
#
# _framework density 20.979502
#
# number of rings (size 3 to 8) (size 9 to 14) (size 15 to 20)
#    0.000    2.333    1.667    0.500    2.333    0.000 
#    3.000    1.667    0.000   10.000    0.000    0.000 
#    0.000    0.000    0.000    0.000    0.000    0.000 
#
# Total GULP energy -133720.930602 kJ/mol
# GULP energy per Si atom -5571.705442 kJ/mol
# Density = 2.093175 g / cm^3
# Si number density = 20.979502 Si / 1000 Ang^3
#
#
#
# Elastic Constant Matrix: (Units=GPa)
#
#
# Indices 1 2 3 4 5 6 
#
# 1 160.3355 -20.0607 105.7639 0.0000 0.0000 0.0000
# 2 -20.0607 151.6522 -51.3411 0.0000 0.0000 0.0000
# 3 105.7639 -51.3411 179.6477 0.0000 0.0000 0.0000
# 4 0.0000 0.0000 0.0000 16.8430 0.0000 0.0000
# 5 0.0000 0.0000 0.0000 0.0000 21.1486 0.0000
# 6 0.0000 0.0000 0.0000 0.0000 0.0000 14.0340
#
#
#
# Elastic Compliance Matrix: (Units=1/GPa)
#
#
# Indices 1 2 3 4 5 6 
#
# 1 0.010276 -0.000763 -0.006268 0.000000 0.000000 0.000000
# 2 -0.000763 0.007357 0.002551 0.000000 0.000000 0.000000
# 3 -0.006268 0.002551 0.009986 0.000000 0.000000 0.000000
# 4 0.000000 0.000000 0.000000 0.059372 0.000000 0.000000
# 5 0.000000 0.000000 0.000000 0.000000 0.047284 0.000000
# 6 0.000000 0.000000 0.000000 0.000000 0.000000 0.071255
#
#
# Mechanical properties :
#
#
# Convention : Reuss Voigt Hill
#
# Bulk Modulus (GPa) = 53.58793 62.26219 57.92506
# Shear Modulus (GPa) = 22.65437 40.89001 31.77219
#
# Velocity S-wave (km/s) = 3.28965 4.41959 3.89580
# Velocity P-wave (km/s) = 6.32673 7.46899 6.92146
#
# Compressibility (1/GPa) = 0.01866092
#
# Stress axis : x y z
#
# Youngs Moduli (GPa) = 97.31478 135.92584 100.14419
#
# Poissons Ratio (x) = 0.10365 0.62767
# Poissons Ratio (y) = 0.07421 -0.25552
# Poissons Ratio (z) = 0.60994 -0.34681
#
# Static dielectric constant tensor:
#      x y z
#    x 1.688270 0.000000 0.000000 
#    y 0.000000 1.877920 0.000000 
#    z 0.000000 0.000000 1.789030 
# 
# From -- ./inp_files/3758.got.cif
#   From: 2010.05.17/outbox.cif.g08.bks.cpg/sg20_2_cif.got.tgz:3758.got - 2010.06.03 22:52:26.
