data_PCOD9317091
_publ_section_title
;
Structure prediction by ZEFSAII (Michael W. Deem and Ramdas Pophale) SiO2 
 PCOD9317091
Probable space group: C 2 2 21
;
_chemical_formula_sum "Si O2"
_cell_formula_units_Z 40
_cell_length_a 24.797060
_cell_length_b 8.917323
_cell_length_c 8.266728
_cell_angle_alpha 90.000000
_cell_angle_beta 90.000000
_cell_angle_gamma 90.000000
_cell_volume 1827.966948
_symmetry_space_group_name_H-M "C 2 2 21"
_symmetry_group_IT_number 20
_symmetry_cell_setting 'orthorhombic'
loop_
_space_group_symop_operation_xyz
x,y,z
-x,-y,1/2+z
x,-y,-z
-x,y,1/2-z
1/2+x,1/2+y,z
1/2-x,1/2-y,1/2+z
1/2+x,1/2-y,-z
1/2-x,1/2+y,1/2-z
loop_
_atom_site_type_symbol
_atom_site_label
_atom_site_fract_x
_atom_site_fract_y
_atom_site_fract_z
Si Si1 0.318899 0.513387 0.826133
Si Si2 0.130971 0.514226 0.315190
Si Si3 0.714298 0.205027 0.818029
Si Si4 0.371922 0.709196 0.593045
Si Si5 0.039218 0.357644 0.106143
O O1 0.289371 0.358696 0.780835
O O2 0.273678 0.642316 0.847990
O O3 0.357733 0.551471 0.675736
O O4 0.347290 0.500000 0.000000
O O5 0.116271 0.500000 0.500000
O O6 0.186345 0.427044 0.284635
O O7 0.130325 0.680607 0.247533
O O8 0.088464 0.430262 0.203238
O O9 0.677037 0.235832 0.976117
O O10 0.429781 0.736808 0.507107
O O11 0.000000 0.303330 0.250000
O O12 0.016759 0.500000 0.000000
#
# Coordination Sequence:
#
# PCOD9317091 Si02
#       5
#     8   8   8   8   8
#     4  12  23  36  56  83 121 169 214 250 297 354
#     4  10  19  34  56  86 120 153 197 249 299 353
#     4  11  22  36  55  81 120 167 210 248 292 350
#     4  10  22  38  55  86 125 159 201 255 302 356
#     4   9  18  34  59  90 122 152 192 248 310 363
#
# _framework density 21.882234
#
# number of rings (size 3 to 8) (size 9 to 14) (size 15 to 20)
#    0.000    1.600    0.000    7.800    0.000    1.600 
#    0.000    0.000    0.000    0.000    0.000  145.600 
#    0.000    0.000    0.000    0.000    0.000    0.000 
#
# Total GULP energy -111661.080715 kJ/mol
# GULP energy per Si atom -5583.054036 kJ/mol
# Density = 2.183243 g / cm^3
# Si number density = 21.882234 Si / 1000 Ang^3
#
#
#
# Elastic Constant Matrix: (Units=GPa)
#
#
# Indices 1 2 3 4 5 6 
#
# 1 73.8622 12.1495 18.9515 0.0000 0.0000 0.0000
# 2 12.1495 41.4852 16.0648 0.0000 0.0000 0.0000
# 3 18.9515 16.0648 132.2410 0.0000 0.0000 0.0000
# 4 0.0000 0.0000 0.0000 31.6760 0.0000 0.0000
# 5 0.0000 0.0000 0.0000 0.0000 25.5726 0.0000
# 6 0.0000 0.0000 0.0000 0.0000 0.0000 -14.4261
#
#
#
# Elastic Compliance Matrix: (Units=1/GPa)
#
#
# Indices 1 2 3 4 5 6 
#
# 1 0.014557 -0.003626 -0.001646 0.000000 0.000000 0.000000
# 2 -0.003626 0.026198 -0.002663 0.000000 0.000000 0.000000
# 3 -0.001646 -0.002663 0.008121 0.000000 0.000000 0.000000
# 4 0.000000 0.000000 0.000000 0.031570 0.000000 0.000000
# 5 0.000000 0.000000 0.000000 0.000000 0.039104 0.000000
# 6 0.000000 0.000000 0.000000 0.000000 0.000000 -0.069319
#
#
# Mechanical properties :
#
#
# Convention : Reuss Voigt Hill
#
# Bulk Modulus (GPa) = 30.29619 37.99109 34.14364
# Shear Modulus (GPa) = 64.84768 21.92602 43.38685
#
# Velocity S-wave (km/s) = 5.44970 3.16887 4.45763
# Velocity P-wave (km/s) = 7.31260 5.54872 6.49086
#
# Compressibility (1/GPa) = 0.03300746
#
# Stress axis : x y z
#
# Youngs Moduli (GPa) = 68.69345 38.17066 123.13301
#
# Poissons Ratio (x) = 0.13841 0.20264
# Poissons Ratio (y) = 0.24908 0.32790
# Poissons Ratio (z) = 0.11305 0.10165
#
# Static dielectric constant tensor:
#      x y z
#    x 1.797390 0.000000 0.000000 
#    y 0.000000 1.902060 0.000000 
#    z 0.000000 0.000000 1.993060 
# 
# From -- ./inp_files/6059.got.cif
#   From: 2010.05.17/outbox.cif.g08.bks.cpg/sg20_4_cif.got.tgz:6059.got - 2010.06.03 22:52:26.
