data_PCOD9317295
_publ_section_title
;
Structure prediction by ZEFSAII (Michael W. Deem and Ramdas Pophale) SiO2 
 PCOD9317295
Probable space group: C 2 2 21
;
_chemical_formula_sum "Si O2"
_cell_formula_units_Z 48
_cell_length_a 5.033471
_cell_length_b 30.060754
_cell_length_c 15.561273
_cell_angle_alpha 90.000000
_cell_angle_beta 90.000000
_cell_angle_gamma 90.000000
_cell_volume 2354.575183
_symmetry_space_group_name_H-M "C 2 2 21"
_symmetry_group_IT_number 20
_symmetry_cell_setting 'orthorhombic'
loop_
_space_group_symop_operation_xyz
x,y,z
-x,-y,1/2+z
x,-y,-z
-x,y,1/2-z
1/2+x,1/2+y,z
1/2-x,1/2-y,1/2+z
1/2+x,1/2-y,-z
1/2-x,1/2+y,1/2-z
loop_
_atom_site_type_symbol
_atom_site_label
_atom_site_fract_x
_atom_site_fract_y
_atom_site_fract_z
Si Si1 0.868258 0.483973 0.404363
Si Si2 0.251744 0.075681 0.311039
Si Si3 0.822452 0.251820 0.558406
Si Si4 0.115734 0.932290 0.154734
Si Si5 0.207287 0.847600 0.549803
Si Si6 0.207925 0.656661 0.570166
O O1 0.935358 0.500000 0.500000
O O2 0.772201 0.526616 0.351203
O O3 0.625962 0.448812 0.405616
O O4 0.128897 0.463167 0.361118
O O5 0.500000 0.083935 0.250000
O O6 0.242546 0.111349 0.387282
O O7 0.000000 0.079029 0.250000
O O8 0.623794 0.250206 0.475515
O O9 0.765186 0.300293 0.596514
O O10 0.749286 0.206423 0.607011
O O11 0.212831 0.882684 0.133543
O O12 0.000000 0.935739 0.250000
O O13 0.417270 0.849239 0.470847
O O14 0.914615 0.846734 0.509335
#
# Coordination Sequence:
#
# PCOD9317295 Si02
#       6
#     8   8   8   8   8   8
#     4  12  25  42  62  83 110 152 199 237 278 343
#     4  12  24  39  58  84 116 149 183 234 294 341
#     4   8  16  31  56  83 110 144 189 236 273 318
#     4  12  24  39  59  87 120 150 185 239 295 340
#     4  10  20  37  59  85 114 150 194 235 275 335
#     4  10  19  36  60  86 113 151 195 233 276 335
#
# _framework density 20.385843000000001
#
# number of rings (size 3 to 8) (size 9 to 14) (size 15 to 20)
#    0.000    1.333    0.000    7.500    0.000    0.000 
#    0.000    0.833    0.000    2.000    0.000    0.000 
#    0.000    0.000    0.000    0.000    0.000    0.000 
#
# Total GULP energy -134164.994679 kJ/mol
# GULP energy per Si atom -5590.208112 kJ/mol
# Density = 2.033944 g / cm^3
# Si number density = 20.385843 Si / 1000 Ang^3
#
#
#
# Elastic Constant Matrix: (Units=GPa)
#
#
# Indices 1 2 3 4 5 6 
#
# 1 108.9164 22.4478 7.0657 0.0000 0.0000 0.0000
# 2 22.4478 136.7823 19.3865 0.0000 0.0000 0.0000
# 3 7.0657 19.3865 28.8392 0.0000 0.0000 0.0000
# 4 0.0000 0.0000 0.0000 4.1042 0.0000 0.0000
# 5 0.0000 0.0000 0.0000 0.0000 19.9324 0.0000
# 6 0.0000 0.0000 0.0000 0.0000 0.0000 29.9377
#
#
#
# Elastic Compliance Matrix: (Units=1/GPa)
#
#
# Indices 1 2 3 4 5 6 
#
# 1 0.009555 -0.001367 -0.001422 0.000000 0.000000 0.000000
# 2 -0.001367 0.008276 -0.005229 0.000000 0.000000 0.000000
# 3 -0.001422 -0.005229 0.038538 0.000000 0.000000 0.000000
# 4 0.000000 0.000000 0.000000 0.243654 0.000000 0.000000
# 5 0.000000 0.000000 0.000000 0.000000 0.050170 0.000000
# 6 0.000000 0.000000 0.000000 0.000000 0.000000 0.033403
#
#
# Mechanical properties :
#
#
# Convention : Reuss Voigt Hill
#
# Bulk Modulus (GPa) = 24.79269 41.37089 33.08179
# Shear Modulus (GPa) = 12.10431 25.83738 18.97084
#
# Velocity S-wave (km/s) = 2.43936 3.56394 3.05387
# Velocity P-wave (km/s) = 4.48577 6.10521 5.35704
#
# Compressibility (1/GPa) = 0.04033447
#
# Stress axis : x y z
#
# Youngs Moduli (GPa) = 104.65415 120.82794 25.94819
#
# Poissons Ratio (x) = 0.16512 0.03691
# Poissons Ratio (y) = 0.14301 0.13567
# Poissons Ratio (z) = 0.14887 0.63177
#
# Static dielectric constant tensor:
#      x y z
#    x 1.693600 0.000000 0.000000 
#    y 0.000000 1.796340 0.000000 
#    z 0.000000 0.000000 1.683810 
# 
# From -- ./inp_files/17803.got.cif
#   From: 2010.05.17/outbox.cif.g08.bks.cpg/sg20_9_cif.got.tgz:17803.got - 2010.06.03 22:52:26.
