data_PCOD9317183
_publ_section_title
;
Structure prediction by ZEFSAII (Michael W. Deem and Ramdas Pophale) SiO2 
 PCOD9317183
Probable space group: C 2 2 21
;
_chemical_formula_sum "Si O2"
_cell_formula_units_Z 44
_cell_length_a 14.951167
_cell_length_b 5.313092
_cell_length_c 24.152011
_cell_angle_alpha 90.000000
_cell_angle_beta 90.000000
_cell_angle_gamma 90.000000
_cell_volume 1918.561505
_symmetry_space_group_name_H-M "C 2 2 21"
_symmetry_group_IT_number 20
_symmetry_cell_setting 'orthorhombic'
loop_
_space_group_symop_operation_xyz
x,y,z
-x,-y,1/2+z
x,-y,-z
-x,y,1/2-z
1/2+x,1/2+y,z
1/2-x,1/2-y,1/2+z
1/2+x,1/2-y,-z
1/2-x,1/2+y,1/2-z
loop_
_atom_site_type_symbol
_atom_site_label
_atom_site_fract_x
_atom_site_fract_y
_atom_site_fract_z
Si Si1 0.178377 0.776536 0.154485
Si Si2 0.475480 0.275527 0.111206
Si Si3 0.857730 0.719329 0.713715
Si Si4 0.429195 0.500000 0.000000
Si Si5 0.063416 0.274762 0.332053
Si Si6 0.746447 0.747227 0.467852
O O1 0.190836 0.526049 0.190254
O O2 0.229954 0.765837 0.096448
O O3 0.187938 0.029632 0.190134
O O4 0.074289 0.771228 0.136120
O O5 0.482041 0.354219 0.047249
O O6 0.423429 0.504899 0.140063
O O7 0.430145 0.012358 0.127022
O O8 0.872949 0.703631 0.779196
O O9 0.960183 0.721940 0.689768
O O10 0.359557 0.700395 0.025594
O O11 0.785745 0.500000 0.500000
O O12 0.772765 0.000000 0.500000
#
# Coordination Sequence:
#
# PCOD9317183 Si02
#       6
#     8   8   8   4   8   8
#     4  10  19  35  58  90 111 148 191 241 275 342
#     4  10  21  34  58  86 117 146 195 234 283 335
#     4   9  17  32  57  86 119 142 182 232 301 334
#     4  10  26  40  58  82 116 166 186 238 290 344
#     4   9  18  33  54  88 118 146 176 241 291 343
#     4  10  23  39  57  80 112 162 189 231 285 343
#
# _framework density 22.933848999999999
#
# number of rings (size 3 to 8) (size 9 to 14) (size 15 to 20)
#    0.545    1.818    0.000    2.182    3.818    4.364 
#    0.000    0.000    0.000    4.364    0.000    0.000 
#    0.000    0.000    0.000    0.000    0.000    0.000 
#
# Total GULP energy -122984.457703 kJ/mol
# GULP energy per Si atom -5590.202623 kJ/mol
# Density = 2.288165 g / cm^3
# Si number density = 22.933849 Si / 1000 Ang^3
#
#
#
# Elastic Constant Matrix: (Units=GPa)
#
#
# Indices 1 2 3 4 5 6 
#
# 1 45.3054 39.7252 22.9880 0.0000 0.0000 0.0000
# 2 39.7252 181.6234 47.2118 0.0000 0.0000 0.0000
# 3 22.9880 47.2118 94.3836 0.0000 0.0000 0.0000
# 4 0.0000 0.0000 0.0000 39.9421 0.0000 0.0000
# 5 0.0000 0.0000 0.0000 0.0000 -26.8965 0.0000
# 6 0.0000 0.0000 0.0000 0.0000 0.0000 -1.3733
#
#
#
# Elastic Compliance Matrix: (Units=1/GPa)
#
#
# Indices 1 2 3 4 5 6 
#
# 1 0.028848 -0.005153 -0.004448 0.000000 0.000000 0.000000
# 2 -0.005153 0.007249 -0.002371 0.000000 0.000000 0.000000
# 3 -0.004448 -0.002371 0.012865 0.000000 0.000000 0.000000
# 4 0.000000 0.000000 0.000000 0.025036 0.000000 0.000000
# 5 0.000000 0.000000 0.000000 0.000000 -0.037180 0.000000
# 6 0.000000 0.000000 0.000000 0.000000 0.000000 -0.728180
#
#
# Mechanical properties :
#
#
# Convention : Reuss Voigt Hill
#
# Bulk Modulus (GPa) = 39.97390 60.12914 50.05152
# Shear Modulus (GPa) = -7.58637 16.42696 4.42029
#
# Velocity S-wave (km/s) = -1.82075 2.67924 1.38982
# Velocity P-wave (km/s) = 3.61217 5.98720 4.94440
#
# Compressibility (1/GPa) = 0.02501633
#
# Stress axis : x y z
#
# Youngs Moduli (GPa) = 34.66411 137.94214 77.73292
#
# Poissons Ratio (x) = 0.71087 0.34579
# Poissons Ratio (y) = 0.17864 0.18431
# Poissons Ratio (z) = 0.15420 0.32707
#
# Static dielectric constant tensor:
#      x y z
#    x 1.871680 0.000000 0.000000 
#    y 0.000000 1.821470 0.000000 
#    z 0.000000 0.000000 1.844030 
# 
# From -- ./inp_files/29490.got.cif
#   From: 2010.05.17/outbox.cif.g08.bks.cpg/sg20_15_cif.got.tgz:29490.got - 2010.06.03 22:52:26.
