data_PCOD9317028
_publ_section_title
;
Structure prediction by ZEFSAII (Michael W. Deem and Ramdas Pophale) SiO2 
 PCOD9317028
Probable space group: C 2 2 21
;
_chemical_formula_sum "Si O2"
_cell_formula_units_Z 40
_cell_length_a 27.368162
_cell_length_b 7.038282
_cell_length_c 8.382171
_cell_angle_alpha 90.000000
_cell_angle_beta 90.000000
_cell_angle_gamma 90.000000
_cell_volume 1614.614364
_symmetry_space_group_name_H-M "C 2 2 21"
_symmetry_group_IT_number 20
_symmetry_cell_setting 'orthorhombic'
loop_
_space_group_symop_operation_xyz
x,y,z
-x,-y,1/2+z
x,-y,-z
-x,y,1/2-z
1/2+x,1/2+y,z
1/2-x,1/2-y,1/2+z
1/2+x,1/2-y,-z
1/2-x,1/2+y,1/2-z
loop_
_atom_site_type_symbol
_atom_site_label
_atom_site_fract_x
_atom_site_fract_y
_atom_site_fract_z
Si Si1 0.070233 0.500000 0.500000
Si Si2 0.500000 0.206146 0.250000
Si Si3 0.085740 0.728722 0.044603
Si Si4 0.138000 0.271390 0.266127
Si Si5 0.318544 0.819581 0.729336
Si Si6 0.773766 0.800447 0.945245
O O1 0.036652 0.584827 0.360539
O O2 0.103997 0.344978 0.410802
O O3 0.536115 0.303976 0.123230
O O4 0.129160 0.757326 0.172538
O O5 0.078328 0.500000 0.000000
O O6 0.105255 0.805732 0.876743
O O7 0.168948 0.455904 0.206635
O O8 0.181660 0.143380 0.328739
O O9 0.274495 0.717157 0.634632
O O10 0.299239 0.807429 0.910093
O O11 0.753447 0.000000 0.000000
#
# Coordination Sequence:
#
# PCOD9317028 Si02
#       6
#     4   4   8   8   8   8
#     4  12  18  34  56  88 126 144 190 240 298 342
#     4  12  18  30  56  96 122 142 192 244 310 338
#     4  10  19  33  55  84 122 145 185 246 303 342
#     4  11  21  39  57  84 125 157 188 247 297 341
#     4  11  21  39  55  81 118 155 193 250 292 339
#     4  12  23  36  58  84 114 162 206 234 290 357
#
# _framework density 24.773716
#
# number of rings (size 3 to 8) (size 9 to 14) (size 15 to 20)
#    0.000    0.800    7.000    4.200    0.000    0.000 
#    0.000    3.000    0.000    0.000    0.000   28.000 
#    0.000    0.000    0.000    0.000    0.000    0.000 
#
# Total GULP energy -111679.593927 kJ/mol
# GULP energy per Si atom -5583.979696 kJ/mol
# Density = 2.471733 g / cm^3
# Si number density = 24.773716 Si / 1000 Ang^3
#
#
#
# Elastic Constant Matrix: (Units=GPa)
#
#
# Indices 1 2 3 4 5 6 
#
# 1 202.5483 12.6118 93.0968 0.0000 0.0000 0.0000
# 2 12.6118 37.0897 18.1657 0.0000 0.0000 0.0000
# 3 93.0968 18.1657 135.4073 0.0000 0.0000 0.0000
# 4 0.0000 0.0000 0.0000 18.1931 0.0000 0.0000
# 5 0.0000 0.0000 0.0000 0.0000 73.7719 0.0000
# 6 0.0000 0.0000 0.0000 0.0000 0.0000 26.3212
#
#
#
# Elastic Compliance Matrix: (Units=1/GPa)
#
#
# Indices 1 2 3 4 5 6 
#
# 1 0.007218 -0.000025 -0.004959 0.000000 0.000000 0.000000
# 2 -0.000025 0.028858 -0.003854 0.000000 0.000000 0.000000
# 3 -0.004959 -0.003854 0.011312 0.000000 0.000000 0.000000
# 4 0.000000 0.000000 0.000000 0.054966 0.000000 0.000000
# 5 0.000000 0.000000 0.000000 0.000000 0.013555 0.000000
# 6 0.000000 0.000000 0.000000 0.000000 0.000000 0.037992
#
#
# Mechanical properties :
#
#
# Convention : Reuss Voigt Hill
#
# Bulk Modulus (GPa) = 33.65818 69.19933 51.42876
# Shear Modulus (GPa) = 27.55091 40.40196 33.97644
#
# Velocity S-wave (km/s) = 3.33844 4.04275 3.70736
# Velocity P-wave (km/s) = 5.33629 7.05584 6.25543
#
# Compressibility (1/GPa) = 0.02971046
#
# Stress axis : x y z
#
# Youngs Moduli (GPa) = 138.54092 34.65252 88.40335
#
# Poissons Ratio (x) = 0.00088 0.43841
# Poissons Ratio (y) = 0.00353 0.34070
# Poissons Ratio (z) = 0.68706 0.13355
#
# Static dielectric constant tensor:
#      x y z
#    x 1.882940 0.000000 0.000000 
#    y 0.000000 2.008400 0.000000 
#    z 0.000000 0.000000 2.105640 
# 
# From -- ./inp_files/6142.got.cif
#   From: 2010.05.17/outbox.cif.g08.bks.cpg/sg20_4_cif.got.tgz:6142.got - 2010.06.03 22:52:26.
