data_PCOD9317017
_publ_section_title
;
Structure prediction by ZEFSAII (Michael W. Deem and Ramdas Pophale) SiO2 
 PCOD9317017
Probable space group: C 2 2 21
;
_chemical_formula_sum "Si O2"
_cell_formula_units_Z 48
_cell_length_a 14.776622
_cell_length_b 9.143264
_cell_length_c 16.388033
_cell_angle_alpha 90.000000
_cell_angle_beta 90.000000
_cell_angle_gamma 90.000000
_cell_volume 2214.130698
_symmetry_space_group_name_H-M "C 2 2 21"
_symmetry_group_IT_number 20
_symmetry_cell_setting 'orthorhombic'
loop_
_space_group_symop_operation_xyz
x,y,z
-x,-y,1/2+z
x,-y,-z
-x,y,1/2-z
1/2+x,1/2+y,z
1/2-x,1/2-y,1/2+z
1/2+x,1/2-y,-z
1/2-x,1/2+y,1/2-z
loop_
_atom_site_type_symbol
_atom_site_label
_atom_site_fract_x
_atom_site_fract_y
_atom_site_fract_z
Si Si1 0.862152 0.260987 0.776806
Si Si2 0.176964 0.670739 0.526857
Si Si3 0.806332 0.776851 0.613044
Si Si4 0.558866 0.035446 0.824437
Si Si5 0.511464 0.212711 0.429958
Si Si6 0.656667 0.605958 0.880096
O O1 0.763866 0.290730 0.812501
O O2 0.892155 0.401974 0.723900
O O3 0.928748 0.233268 0.852530
O O4 0.864583 0.128180 0.714470
O O5 0.174125 0.500000 0.500000
O O6 0.241905 0.756305 0.463810
O O7 0.075278 0.725237 0.509575
O O8 0.239963 0.664472 0.606596
O O9 0.876531 0.652936 0.635339
O O10 0.847617 0.936552 0.597531
O O11 0.500000 0.102015 0.750000
O O12 0.507146 0.953098 0.898441
O O13 0.417326 0.299704 0.430072
#
# Coordination Sequence:
#
# PCOD9317017 Si02
#       6
#     8   8   8   8   8   8
#     4   9  18  35  56  80 109 145 181 219 273 334
#     4   9  20  36  54  77 107 146 181 217 273 328
#     4  10  19  33  54  80 111 140 179 229 270 315
#     4   9  18  32  53  81 107 140 182 221 268 326
#     4   9  19  36  58  78 107 147 185 219 268 333
#     4  10  19  34  59  84 109 144 182 227 273 318
#
# _framework density 21.678937000000001
#
# number of rings (size 3 to 8) (size 9 to 14) (size 15 to 20)
#    0.000    2.667    0.000    2.500    0.000    4.000 
#    0.000    2.500    0.000   32.000    0.000    0.000 
#    0.000    0.000    0.000    0.000    0.000    0.000 
#
# Total GULP energy -133828.541394 kJ/mol
# GULP energy per Si atom -5576.189225 kJ/mol
# Density = 2.162959 g / cm^3
# Si number density = 21.678937 Si / 1000 Ang^3
#
#
#
# Elastic Constant Matrix: (Units=GPa)
#
#
# Indices 1 2 3 4 5 6 
#
# 1 107.1842 19.6695 22.4526 0.0000 0.0000 0.0000
# 2 19.6695 17.2523 9.1842 0.0000 0.0000 0.0000
# 3 22.4526 9.1842 35.7578 0.0000 0.0000 0.0000
# 4 0.0000 0.0000 0.0000 22.5107 0.0000 0.0000
# 5 0.0000 0.0000 0.0000 0.0000 40.3375 0.0000
# 6 0.0000 0.0000 0.0000 0.0000 0.0000 22.7979
#
#
#
# Elastic Compliance Matrix: (Units=1/GPa)
#
#
# Indices 1 2 3 4 5 6 
#
# 1 0.012483 -0.011653 -0.004845 0.000000 0.000000 0.000000
# 2 -0.011653 0.078021 -0.012722 0.000000 0.000000 0.000000
# 3 -0.004845 -0.012722 0.034276 0.000000 0.000000 0.000000
# 4 0.000000 0.000000 0.000000 0.044423 0.000000 0.000000
# 5 0.000000 0.000000 0.000000 0.000000 0.024791 0.000000
# 6 0.000000 0.000000 0.000000 0.000000 0.000000 0.043864
#
#
# Mechanical properties :
#
#
# Convention : Reuss Voigt Hill
#
# Bulk Modulus (GPa) = 15.07401 29.20076 22.13738
# Shear Modulus (GPa) = 15.70292 24.38843 20.04568
#
# Velocity S-wave (km/s) = 2.69428 3.35771 3.04412
# Velocity P-wave (km/s) = 4.08010 5.34146 4.75281
#
# Compressibility (1/GPa) = 0.06633935
#
# Stress axis : x y z
#
# Youngs Moduli (GPa) = 80.10827 12.81705 29.17485
#
# Poissons Ratio (x) = 0.14935 0.14136
# Poissons Ratio (y) = 0.93347 0.37118
# Poissons Ratio (z) = 0.38815 0.16306
#
# Static dielectric constant tensor:
#      x y z
#    x 1.855870 0.000000 0.000000 
#    y 0.000000 1.746430 0.000000 
#    z 0.000000 0.000000 1.854400 
# 
# From -- ./inp_files/24815.got.cif
#   From: 2010.05.17/outbox.cif.g08.bks.cpg/sg20_13_cif.got.tgz:24815.got - 2010.06.03 22:52:26.
