data_PCOD9317161
_publ_section_title
;
Structure prediction by ZEFSAII (Michael W. Deem and Ramdas Pophale) SiO2 
 PCOD9317161
Probable space group: C 2 2 21
;
_chemical_formula_sum "Si O2"
_cell_formula_units_Z 36
_cell_length_a 22.348440
_cell_length_b 11.347415
_cell_length_c 5.982193
_cell_angle_alpha 90.000000
_cell_angle_beta 90.000000
_cell_angle_gamma 90.000000
_cell_volume 1517.066338
_symmetry_space_group_name_H-M "C 2 2 21"
_symmetry_group_IT_number 20
_symmetry_cell_setting 'orthorhombic'
loop_
_space_group_symop_operation_xyz
x,y,z
-x,-y,1/2+z
x,-y,-z
-x,y,1/2-z
1/2+x,1/2+y,z
1/2-x,1/2-y,1/2+z
1/2+x,1/2-y,-z
1/2-x,1/2+y,1/2-z
loop_
_atom_site_type_symbol
_atom_site_label
_atom_site_fract_x
_atom_site_fract_y
_atom_site_fract_z
Si Si1 0.887766 0.839027 0.485590
Si Si2 0.212692 0.899450 0.683021
Si Si3 0.944247 0.329325 0.138119
Si Si4 0.327127 0.820276 0.898103
Si Si5 0.500000 0.333613 0.250000
O O1 0.840010 0.905969 0.637043
O O2 0.919685 0.752717 0.663555
O O3 0.852800 0.759415 0.304803
O O4 0.942422 0.899921 0.350024
O O5 0.277266 0.905511 0.797934
O O6 0.205474 0.771696 0.565283
O O7 0.205579 0.000000 0.500000
O O8 0.000000 0.400931 0.250000
O O9 0.883784 0.376340 0.024950
O O10 0.972523 0.248582 0.943476
#
# Coordination Sequence:
#
# PCOD9317161 Si02
#       5
#     8   8   8   8   4
#     4   9  17  32  52  83 115 155 201 247 307 363
#     4  11  22  35  55  86 124 167 206 250 312 372
#     4   8  15  28  53  84 110 148 200 247 312 368
#     4  10  19  35  54  82 126 156 203 255 301 375
#     4   8  14  28  54  84 106 146 206 252 304 366
#
# _framework density 23.730011999999999
#
# number of rings (size 3 to 8) (size 9 to 14) (size 15 to 20)
#    0.000    2.667    2.222    0.000    0.000    0.889 
#    0.000    0.000    0.000    0.000  453.556    0.000 
#  103.333    0.000    0.000    0.000    0.000    0.000 
#
# Total GULP energy -100486.664878 kJ/mol
# GULP energy per Si atom -5582.592493 kJ/mol
# Density = 2.367600 g / cm^3
# Si number density = 23.730012 Si / 1000 Ang^3
#
#
#
# Elastic Constant Matrix: (Units=GPa)
#
#
# Indices 1 2 3 4 5 6 
#
# 1 242.3494 33.8032 89.4749 0.0000 0.0000 0.0000
# 2 33.8032 48.0433 24.6463 0.0000 0.0000 0.0000
# 3 89.4749 24.6463 131.4469 0.0000 0.0000 0.0000
# 4 0.0000 0.0000 0.0000 -7.2258 0.0000 0.0000
# 5 0.0000 0.0000 0.0000 0.0000 75.3287 0.0000
# 6 0.0000 0.0000 0.0000 0.0000 0.0000 0.6062
#
#
#
# Elastic Compliance Matrix: (Units=1/GPa)
#
#
# Indices 1 2 3 4 5 6 
#
# 1 0.005722 -0.002244 -0.003474 0.000000 0.000000 0.000000
# 2 -0.002244 0.023910 -0.002956 0.000000 0.000000 0.000000
# 3 -0.003474 -0.002956 0.010527 0.000000 0.000000 0.000000
# 4 0.000000 0.000000 0.000000 -0.138392 0.000000 0.000000
# 5 0.000000 0.000000 0.000000 0.000000 0.013275 0.000000
# 6 0.000000 0.000000 0.000000 0.000000 0.000000 1.649521
#
#
# Mechanical properties :
#
#
# Convention : Reuss Voigt Hill
#
# Bulk Modulus (GPa) = 43.83873 79.74313 61.79093
# Shear Modulus (GPa) = 3.14562 32.00284 17.57423
#
# Velocity S-wave (km/s) = 1.15259 3.67634 2.72433
# Velocity P-wave (km/s) = 4.50393 7.19013 5.99930
#
# Compressibility (1/GPa) = 0.02281088
#
# Stress axis : x y z
#
# Youngs Moduli (GPa) = 174.76802 41.82433 94.99678
#
# Poissons Ratio (x) = 0.09384 0.33003
# Poissons Ratio (y) = 0.39212 0.28079
# Poissons Ratio (z) = 0.60717 0.12362
#
# Static dielectric constant tensor:
#      x y z
#    x 1.927690 0.000000 0.000000 
#    y 0.000000 1.874240 0.000000 
#    z 0.000000 0.000000 1.875980 
# 
# From -- ./inp_files/1228.got.cif
#   From: 2010.05.17/outbox.cif.g08.bks.cpg/sg20_1_cif.got.tgz:1228.got - 2010.06.03 22:52:26.
