data_PCOD9317170
_publ_section_title
;
Structure prediction by ZEFSAII (Michael W. Deem and Ramdas Pophale) SiO2 
 PCOD9317170
Probable space group: C 2 2 21
;
_chemical_formula_sum "Si O2"
_cell_formula_units_Z 60
_cell_length_a 4.997609
_cell_length_b 20.150258
_cell_length_c 25.797949
_cell_angle_alpha 90.000000
_cell_angle_beta 90.000000
_cell_angle_gamma 90.000000
_cell_volume 2597.933715
_symmetry_space_group_name_H-M "C 2 2 21"
_symmetry_group_IT_number 20
_symmetry_cell_setting 'orthorhombic'
loop_
_space_group_symop_operation_xyz
x,y,z
-x,-y,1/2+z
x,-y,-z
-x,y,1/2-z
1/2+x,1/2+y,z
1/2-x,1/2-y,1/2+z
1/2+x,1/2-y,-z
1/2-x,1/2+y,1/2-z
loop_
_atom_site_type_symbol
_atom_site_label
_atom_site_fract_x
_atom_site_fract_y
_atom_site_fract_z
Si Si1 0.884538 0.591338 0.109935
Si Si2 0.500000 0.618503 0.250000
Si Si3 0.945191 0.317734 0.109384
Si Si4 0.314581 0.001876 0.796812
Si Si5 0.054947 0.616857 0.991139
Si Si6 0.878949 0.169038 0.142387
Si Si7 0.446968 0.555721 0.539310
Si Si8 0.443456 0.403210 0.144174
O O1 0.962098 0.598127 0.048989
O O2 0.075931 0.648659 0.131911
O O3 0.929451 0.525979 0.147270
O O4 0.577566 0.614432 0.116944
O O5 0.285560 0.566999 0.272344
O O6 0.408476 0.663327 0.203487
O O7 0.164537 0.363565 0.139956
O O8 0.958089 0.241407 0.123900
O O9 0.663029 0.348713 0.126779
O O10 0.974280 0.322153 0.046509
O O11 0.500000 0.030040 0.750000
O O12 0.074910 0.053530 0.809968
O O13 0.373885 0.615229 0.983857
O O14 0.870892 0.563341 0.959928
O O15 0.524466 0.500000 0.500000
O O16 0.555893 0.545365 0.596234
#
# Coordination Sequence:
#
# PCOD9317170 Si02
#       8
#     8   4   8   8   8   8   8   8
#     4  11  23  38  66  99 122 172 212 268 331 372
#     4  10  24  44  64  94 120 166 212 280 338 374
#     4  10  23  43  61  94 130 175 212 258 319 398
#     4  11  23  42  66  94 136 159 223 280 337 389
#     4  10  21  36  58  91 131 159 214 257 313 390
#     4  11  23  42  66  88 129 166 220 264 319 388
#     4  10  19  35  56  87 125 170 204 247 312 387
#     4  10  23  39  64  89 129 169 207 263 324 385
#
# _framework density 23.095279999999999
#
# number of rings (size 3 to 8) (size 9 to 14) (size 15 to 20)
#    0.000    1.600    1.333    2.800    1.867    4.267 
#    1.200    0.000    0.000    0.000    0.000    0.000 
#    0.000    0.000    0.000    0.000    0.000    0.000 
#
# Total GULP energy -167093.377982 kJ/mol
# GULP energy per Si atom -5569.779266 kJ/mol
# Density = 2.304271 g / cm^3
# Si number density = 23.095280 Si / 1000 Ang^3
#
#
#
# Elastic Constant Matrix: (Units=GPa)
#
#
# Indices 1 2 3 4 5 6 
#
# 1 93.9875 10.2181 16.8849 0.0000 0.0000 0.0000
# 2 10.2181 44.7859 11.4779 0.0000 0.0000 0.0000
# 3 16.8849 11.4779 122.4131 0.0000 0.0000 0.0000
# 4 0.0000 0.0000 0.0000 32.4709 0.0000 0.0000
# 5 0.0000 0.0000 0.0000 0.0000 25.8545 0.0000
# 6 0.0000 0.0000 0.0000 0.0000 0.0000 29.5901
#
#
#
# Elastic Compliance Matrix: (Units=1/GPa)
#
#
# Indices 1 2 3 4 5 6 
#
# 1 0.011117 -0.002196 -0.001327 0.000000 0.000000 0.000000
# 2 -0.002196 0.023312 -0.001883 0.000000 0.000000 0.000000
# 3 -0.001327 -0.001883 0.008529 0.000000 0.000000 0.000000
# 4 0.000000 0.000000 0.000000 0.030797 0.000000 0.000000
# 5 0.000000 0.000000 0.000000 0.000000 0.038678 0.000000
# 6 0.000000 0.000000 0.000000 0.000000 0.000000 0.033795
#
#
# Mechanical properties :
#
#
# Convention : Reuss Voigt Hill
#
# Bulk Modulus (GPa) = 31.10938 37.59426 34.35182
# Shear Modulus (GPa) = 29.80527 32.42348 31.11437
#
# Velocity S-wave (km/s) = 3.59630 3.75093 3.67443
# Velocity P-wave (km/s) = 5.54470 5.92221 5.73656
#
# Compressibility (1/GPa) = 0.03214464
#
# Stress axis : x y z
#
# Youngs Moduli (GPa) = 89.95270 42.89617 117.25103
#
# Poissons Ratio (x) = 0.09421 0.15565
# Poissons Ratio (y) = 0.19755 0.22077
# Poissons Ratio (z) = 0.11941 0.08077
#
# Static dielectric constant tensor:
#      x y z
#    x 1.906120 0.000000 0.000000 
#    y 0.000000 1.868580 0.000000 
#    z 0.000000 0.000000 1.930430 
# 
# From -- ./inp_files/28463.got.cif
#   From: 2010.05.17/outbox.cif.g08.bks.cpg/sg20_15_cif.got.tgz:28463.got - 2010.06.03 22:52:26.
