data_PCOD9317735
_publ_section_title
;
Structure prediction by ZEFSAII (Michael W. Deem and Ramdas Pophale) SiO2 
 PCOD9317735
Probable space group: C 2 2 21
;
_chemical_formula_sum "Si O2"
_cell_formula_units_Z 28
_cell_length_a 12.983991
_cell_length_b 14.036408
_cell_length_c 7.417038
_cell_angle_alpha 90.000000
_cell_angle_beta 90.000000
_cell_angle_gamma 90.000000
_cell_volume 1351.744756
_symmetry_space_group_name_H-M "C 2 2 21"
_symmetry_group_IT_number 20
_symmetry_cell_setting 'orthorhombic'
loop_
_space_group_symop_operation_xyz
x,y,z
-x,-y,1/2+z
x,-y,-z
-x,y,1/2-z
1/2+x,1/2+y,z
1/2-x,1/2-y,1/2+z
1/2+x,1/2-y,-z
1/2-x,1/2+y,1/2-z
loop_
_atom_site_type_symbol
_atom_site_label
_atom_site_fract_x
_atom_site_fract_y
_atom_site_fract_z
Si Si1 0.206536 0.050905 0.726512
Si Si2 0.224716 0.639898 0.139947
Si Si3 0.500000 0.572285 0.250000
Si Si4 0.638502 0.688981 0.028665
O O1 0.220416 0.114438 0.549568
O O2 0.291524 0.966086 0.721397
O O3 0.098644 0.993725 0.720070
O O4 0.200201 0.115299 0.902179
O O5 0.298283 0.693312 0.283220
O O6 0.135460 0.711918 0.078340
O O7 0.531162 0.640284 0.083516
#
# Coordination Sequence:
#
# PCOD9317735 Si02
#       4
#     8   8   4   8
#     4  10  22  36  56  85 125 159 197 247 293 359
#     4  10  20  35  53  81 122 162 197 233 296 357
#     4  10  22  34  60  90 120 152 192 254 308 332
#     4  11  21  36  55  89 125 157 194 246 300 361
#
# _framework density 20.713968999999999
#
# number of rings (size 3 to 8) (size 9 to 14) (size 15 to 20)
#    0.000    1.714    2.857    3.429   16.000    0.000 
#    0.000    0.000    0.000    0.000    0.000   56.000 
#    0.000    0.000    0.000    0.000    0.000    0.000 
#
# Total GULP energy -77979.661230 kJ/mol
# GULP energy per Si atom -5569.975802 kJ/mol
# Density = 2.066682 g / cm^3
# Si number density = 20.713969 Si / 1000 Ang^3
#
#
#
# Elastic Constant Matrix: (Units=GPa)
#
#
# Indices 1 2 3 4 5 6 
#
# 1 17.5845 30.2680 9.1422 0.0000 0.0000 0.0000
# 2 30.2680 122.9537 46.2246 0.0000 0.0000 0.0000
# 3 9.1422 46.2246 100.6228 0.0000 0.0000 0.0000
# 4 0.0000 0.0000 0.0000 43.9995 0.0000 0.0000
# 5 0.0000 0.0000 0.0000 0.0000 27.6932 0.0000
# 6 0.0000 0.0000 0.0000 0.0000 0.0000 27.3844
#
#
#
# Elastic Compliance Matrix: (Units=1/GPa)
#
#
# Indices 1 2 3 4 5 6 
#
# 1 0.099273 -0.025442 0.002668 0.000000 0.000000 0.000000
# 2 -0.025442 0.016351 -0.005200 0.000000 0.000000 0.000000
# 3 0.002668 -0.005200 0.012084 0.000000 0.000000 0.000000
# 4 0.000000 0.000000 0.000000 0.022728 0.000000 0.000000
# 5 0.000000 0.000000 0.000000 0.000000 0.036110 0.000000
# 6 0.000000 0.000000 0.000000 0.000000 0.000000 0.036517
#
#
# Mechanical properties :
#
#
# Convention : Reuss Voigt Hill
#
# Bulk Modulus (GPa) = 13.93501 45.82563 29.88032
# Shear Modulus (GPa) = 16.50540 30.18385 23.34463
#
# Velocity S-wave (km/s) = 2.82587 3.82144 3.36072
# Velocity P-wave (km/s) = 4.17005 6.45308 5.43284
#
# Compressibility (1/GPa) = 0.07176169
#
# Stress axis : x y z
#
# Youngs Moduli (GPa) = 10.07321 61.15793 82.75079
#
# Poissons Ratio (x) = 1.55595 -0.22077
# Poissons Ratio (y) = 0.25628 0.43030
# Poissons Ratio (z) = -0.02687 0.31802
#
# Static dielectric constant tensor:
#      x y z
#    x 1.736680 0.000000 0.000000 
#    y 0.000000 1.829270 0.000000 
#    z 0.000000 0.000000 1.785680 
# 
# From -- ./inp_files/6954.got.cif
#   From: 2010.05.17/outbox.cif.g08.bks.cpg/sg20_4_cif.got.tgz:6954.got - 2010.06.03 22:52:26.
