data_PCOD9317376
_publ_section_title
;
Structure prediction by ZEFSAII (Michael W. Deem and Ramdas Pophale) SiO2 
 PCOD9317376
Probable space group: C 2 2 21
;
_chemical_formula_sum "Si O2"
_cell_formula_units_Z 64
_cell_length_a 20.082693
_cell_length_b 9.523733
_cell_length_c 16.903695
_cell_angle_alpha 90.000000
_cell_angle_beta 90.000000
_cell_angle_gamma 90.000000
_cell_volume 3233.037996
_symmetry_space_group_name_H-M "C 2 2 21"
_symmetry_group_IT_number 20
_symmetry_cell_setting 'orthorhombic'
loop_
_space_group_symop_operation_xyz
x,y,z
-x,-y,1/2+z
x,-y,-z
-x,y,1/2-z
1/2+x,1/2+y,z
1/2-x,1/2-y,1/2+z
1/2+x,1/2-y,-z
1/2-x,1/2+y,1/2-z
loop_
_atom_site_type_symbol
_atom_site_label
_atom_site_fract_x
_atom_site_fract_y
_atom_site_fract_z
Si Si1 0.541987 0.909961 0.418647
Si Si2 0.686960 0.882158 0.358866
Si Si3 0.305798 0.809700 0.654149
Si Si4 0.693369 0.193293 0.338209
Si Si5 0.924191 0.813090 0.585093
Si Si6 0.074534 0.134223 0.904406
Si Si7 0.464520 0.807984 0.833245
Si Si8 0.313950 0.876768 0.334261
O O1 0.616183 0.856468 0.399704
O O2 0.489641 0.784135 0.415814
O O3 0.540482 0.000000 0.500000
O O4 0.525528 0.027910 0.352822
O O5 0.743127 0.770812 0.383036
O O6 0.679913 0.880163 0.262188
O O7 0.706833 0.043333 0.379197
O O8 0.288476 0.826755 0.746237
O O9 0.369638 0.710351 0.647408
O O10 0.323299 0.967793 0.629530
O O11 0.614250 0.219349 0.340026
O O12 0.741871 0.318859 0.361642
O O13 0.903148 0.838963 0.494346
O O14 0.868533 0.729855 0.633036
O O15 0.933593 0.971190 0.616477
O O16 0.004641 0.212582 0.894223
O O17 0.500000 0.777855 0.750000
#
# Coordination Sequence:
#
# PCOD9317376 Si02
#       8
#     8   8   8   8   8   8   8   8
#     4  11  23  41  64  88 125 163 203 252 306 369
#     4   9  21  38  60  91 122 163 197 253 308 359
#     4  10  19  37  62  85 122 155 201 248 302 360
#     4   9  19  36  59  89 123 155 198 250 298 355
#     4  11  25  40  60  87 124 159 206 257 307 363
#     4  11  23  42  59  88 122 165 202 254 308 370
#     4  11  21  39  67  91 120 160 205 246 307 367
#     4  10  21  38  63  92 120 159 210 254 298 365
#
# _framework density 19.795622999999999
#
# number of rings (size 3 to 8) (size 9 to 14) (size 15 to 20)
#    0.000    1.750    2.500    1.500    3.500    2.000 
#    9.000    0.000    0.000    0.000    0.000    0.000 
#    0.000    0.000    0.000    0.000    0.000    0.000 
#
# Total GULP energy -178490.340817 kJ/mol
# GULP energy per Si atom -5577.823151 kJ/mol
# Density = 1.975057 g / cm^3
# Si number density = 19.795623 Si / 1000 Ang^3
#
#
#
# Elastic Constant Matrix: (Units=GPa)
#
#
# Indices 1 2 3 4 5 6 
#
# 1 95.0585 72.4414 3.2748 0.0000 0.0000 0.0000
# 2 72.4414 128.0079 0.2054 0.0000 0.0000 0.0000
# 3 3.2748 0.2054 12.6394 0.0000 0.0000 0.0000
# 4 0.0000 0.0000 0.0000 24.9024 0.0000 0.0000
# 5 0.0000 0.0000 0.0000 0.0000 9.8098 0.0000
# 6 0.0000 0.0000 0.0000 0.0000 0.0000 38.0035
#
#
#
# Elastic Compliance Matrix: (Units=1/GPa)
#
#
# Indices 1 2 3 4 5 6 
#
# 1 0.018771 -0.010615 -0.004691 0.000000 0.000000 0.000000
# 2 -0.010615 0.013815 0.002526 0.000000 0.000000 0.000000
# 3 -0.004691 0.002526 0.080292 0.000000 0.000000 0.000000
# 4 0.000000 0.000000 0.000000 0.040157 0.000000 0.000000
# 5 0.000000 0.000000 0.000000 0.000000 0.101939 0.000000
# 6 0.000000 0.000000 0.000000 0.000000 0.000000 0.026313
#
#
# Mechanical properties :
#
#
# Convention : Reuss Voigt Hill
#
# Bulk Modulus (GPa) = 11.45246 43.06100 27.25673
# Shear Modulus (GPa) = 14.88301 25.19542 20.03922
#
# Velocity S-wave (km/s) = 2.74493 3.57147 3.18513
# Velocity P-wave (km/s) = 3.98047 6.22954 5.22740
#
# Compressibility (1/GPa) = 0.08731751
#
# Stress axis : x y z
#
# Youngs Moduli (GPa) = 53.27358 72.38362 12.45456
#
# Poissons Ratio (x) = 0.76837 0.05842
# Poissons Ratio (y) = 0.56551 -0.03146
# Poissons Ratio (z) = 0.24990 -0.18283
#
# Static dielectric constant tensor:
#      x y z
#    x 1.683990 0.000000 0.000000 
#    y 0.000000 1.706490 0.000000 
#    z 0.000000 0.000000 1.746950 
# 
# From -- ./inp_files/25502.got.cif
#   From: 2010.05.17/outbox.cif.g08.bks.cpg/sg20_13_cif.got.tgz:25502.got - 2010.06.03 22:52:26.
