data_PCOD9317237
_publ_section_title
;
Structure prediction by ZEFSAII (Michael W. Deem and Ramdas Pophale) SiO2 
 PCOD9317237
Probable space group: C 2 2 21
;
_chemical_formula_sum "Si O2"
_cell_formula_units_Z 52
_cell_length_a 7.616497
_cell_length_b 21.022008
_cell_length_c 13.630825
_cell_angle_alpha 90.000000
_cell_angle_beta 90.000000
_cell_angle_gamma 90.000000
_cell_volume 2182.486744
_symmetry_space_group_name_H-M "C 2 2 21"
_symmetry_group_IT_number 20
_symmetry_cell_setting 'orthorhombic'
loop_
_space_group_symop_operation_xyz
x,y,z
-x,-y,1/2+z
x,-y,-z
-x,y,1/2-z
1/2+x,1/2+y,z
1/2-x,1/2-y,1/2+z
1/2+x,1/2-y,-z
1/2-x,1/2+y,1/2-z
loop_
_atom_site_type_symbol
_atom_site_label
_atom_site_fract_x
_atom_site_fract_y
_atom_site_fract_z
Si Si1 0.306212 0.160962 0.305176
Si Si2 0.553553 0.940300 0.068032
Si Si3 0.000000 0.856360 0.250000
Si Si4 0.643881 0.463397 0.102932
Si Si5 0.761158 0.252396 0.348128
Si Si6 0.205069 0.478278 0.780259
Si Si7 0.965656 0.697992 0.486699
O O1 0.500000 0.160010 0.250000
O O2 0.194023 0.196017 0.224576
O O3 0.251985 0.089152 0.328941
O O4 0.324679 0.205639 0.399377
O O5 0.348121 0.943699 0.094032
O O6 0.688193 0.956498 0.156513
O O7 0.558658 0.876471 0.007612
O O8 0.589349 0.000000 0.000000
O O9 0.946954 0.902292 0.343299
O O10 0.846470 0.808492 0.208682
O O11 0.664828 0.515037 0.189166
O O12 0.589880 0.500000 0.000000
O O13 0.929097 0.274829 0.407103
O O14 0.638897 0.223138 0.434590
O O15 0.000000 0.471390 0.750000
#
# Coordination Sequence:
#
# PCOD9317237 Si02
#       7
#     8   8   4   8   8   8   8
#     4   9  18  37  61  86 125 164 205 259 323 383
#     4  10  19  35  67 102 123 155 217 274 329 386
#     4  12  24  48  60  88 142 176 214 272 350 382
#     4  10  24  39  64  91 123 175 216 269 331 403
#     4  11  25  41  67  93 131 181 212 265 328 398
#     4   9  17  35  61  95 120 148 203 271 323 368
#     4  11  22  40  65  97 125 172 221 264 319 409
#
# _framework density 23.826032999999999
#
# number of rings (size 3 to 8) (size 9 to 14) (size 15 to 20)
#    0.000    1.846    3.846    0.923    8.615    0.000 
#    2.769    2.308    0.000    0.000    0.000    0.000 
#    0.000    0.000    0.000    0.000    0.000    0.000 
#
# Total GULP energy -144746.683701 kJ/mol
# GULP energy per Si atom -5567.180142 kJ/mol
# Density = 2.377180 g / cm^3
# Si number density = 23.826033 Si / 1000 Ang^3
#
#
#
# Elastic Constant Matrix: (Units=GPa)
#
#
# Indices 1 2 3 4 5 6 
#
# 1 44.0832 25.3446 37.8245 0.0000 0.0000 0.0000
# 2 25.3446 103.0137 37.4397 0.0000 0.0000 0.0000
# 3 37.8245 37.4397 90.3235 0.0000 0.0000 0.0000
# 4 0.0000 0.0000 0.0000 48.6595 0.0000 0.0000
# 5 0.0000 0.0000 0.0000 0.0000 33.8728 0.0000
# 6 0.0000 0.0000 0.0000 0.0000 0.0000 2.0867
#
#
#
# Elastic Compliance Matrix: (Units=1/GPa)
#
#
# Indices 1 2 3 4 5 6 
#
# 1 0.036798 -0.004065 -0.013725 0.000000 0.000000 0.000000
# 2 -0.004065 0.011878 -0.003221 0.000000 0.000000 0.000000
# 3 -0.013725 -0.003221 0.018154 0.000000 0.000000 0.000000
# 4 0.000000 0.000000 0.000000 0.020551 0.000000 0.000000
# 5 0.000000 0.000000 0.000000 0.000000 0.029522 0.000000
# 6 0.000000 0.000000 0.000000 0.000000 0.000000 0.479232
#
#
# Mechanical properties :
#
#
# Convention : Reuss Voigt Hill
#
# Bulk Modulus (GPa) = 40.30992 48.73755 44.52373
# Shear Modulus (GPa) = 7.73483 26.04457 16.88970
#
# Velocity S-wave (km/s) = 1.80373 3.30981 2.66536
# Velocity P-wave (km/s) = 4.61444 5.92507 5.31035
#
# Compressibility (1/GPa) = 0.02480779
#
# Stress axis : x y z
#
# Youngs Moduli (GPa) = 27.17563 84.18663 55.08439
#
# Poissons Ratio (x) = 0.34224 0.75601
# Poissons Ratio (y) = 0.11048 0.17744
# Poissons Ratio (z) = 0.37297 0.27119
#
# Static dielectric constant tensor:
#      x y z
#    x 1.942390 0.000000 0.000000 
#    y 0.000000 1.953530 0.000000 
#    z 0.000000 0.000000 1.985780 
# 
# From -- ./inp_files/19127.got.cif
#   From: 2010.05.17/outbox.cif.g08.bks.cpg/sg20_10_cif.got.tgz:19127.got - 2010.06.03 22:52:26.
