data_PCOD9317771
_publ_section_title
;
Structure prediction by ZEFSAII (Michael W. Deem and Ramdas Pophale) SiO2 
 PCOD9317771
Probable space group: C 2 2 21
;
_chemical_formula_sum "Si O2"
_cell_formula_units_Z 32
_cell_length_a 17.981511
_cell_length_b 8.346803
_cell_length_c 9.200781
_cell_angle_alpha 90.000000
_cell_angle_beta 90.000000
_cell_angle_gamma 90.000000
_cell_volume 1380.928014
_symmetry_space_group_name_H-M "C 2 2 21"
_symmetry_group_IT_number 20
_symmetry_cell_setting 'orthorhombic'
loop_
_space_group_symop_operation_xyz
x,y,z
-x,-y,1/2+z
x,-y,-z
-x,y,1/2-z
1/2+x,1/2+y,z
1/2-x,1/2-y,1/2+z
1/2+x,1/2-y,-z
1/2-x,1/2+y,1/2-z
loop_
_atom_site_type_symbol
_atom_site_label
_atom_site_fract_x
_atom_site_fract_y
_atom_site_fract_z
Si Si1 0.613376 0.831249 0.916735
Si Si2 0.075186 0.133542 0.197335
Si Si3 0.281157 0.429196 0.340617
Si Si4 0.613147 0.963541 0.330351
O O1 0.690538 0.749683 0.868112
O O2 0.580512 0.890541 0.763659
O O3 0.578187 0.701647 0.029939
O O4 0.618325 0.000000 0.000000
O O5 0.077551 0.293426 0.294853
O O6 0.000000 0.047304 0.250000
O O7 0.149153 0.027625 0.224312
O O8 0.270819 0.500000 0.500000
O O9 0.199111 0.438773 0.276894
O O10 0.607984 0.000000 0.500000
#
# Coordination Sequence:
#
# PCOD9317771 Si02
#       4
#     8   8   8   8
#     4   9  19  37  60  83 119 164 204 254 313 369
#     4  10  21  38  59  86 120 160 206 258 318 372
#     4   9  18  36  60  86 120 161 208 259 313 373
#     4  10  20  35  58  89 121 161 212 257 308 378
#
# _framework density 23.172822
#
# number of rings (size 3 to 8) (size 9 to 14) (size 15 to 20)
#    0.000    2.500    0.000    1.500    0.000    5.000 
#    0.000   13.750    0.000    0.000    0.000    0.000 
#    0.000    0.000    0.000    0.000    0.000    0.000 
#
# Total GULP energy -89177.036560 kJ/mol
# GULP energy per Si atom -5573.564785 kJ/mol
# Density = 2.312008 g / cm^3
# Si number density = 23.172822 Si / 1000 Ang^3
#
#
#
# Elastic Constant Matrix: (Units=GPa)
#
#
# Indices 1 2 3 4 5 6 
#
# 1 155.3507 13.1061 21.8388 0.0000 0.0000 0.0000
# 2 13.1061 58.5914 4.5334 0.0000 0.0000 0.0000
# 3 21.8388 4.5334 108.1037 0.0000 0.0000 0.0000
# 4 0.0000 0.0000 0.0000 11.1262 0.0000 0.0000
# 5 0.0000 0.0000 0.0000 0.0000 17.5548 0.0000
# 6 0.0000 0.0000 0.0000 0.0000 0.0000 0.0838
#
#
#
# Elastic Compliance Matrix: (Units=1/GPa)
#
#
# Indices 1 2 3 4 5 6 
#
# 1 0.006739 -0.001407 -0.001302 0.000000 0.000000 0.000000
# 2 -0.001407 0.017417 -0.000446 0.000000 0.000000 0.000000
# 3 -0.001302 -0.000446 0.009532 0.000000 0.000000 0.000000
# 4 0.000000 0.000000 0.000000 0.089878 0.000000 0.000000
# 5 0.000000 0.000000 0.000000 0.000000 0.056965 0.000000
# 6 0.000000 0.000000 0.000000 0.000000 0.000000 11.930200
#
#
# Mechanical properties :
#
#
# Convention : Reuss Voigt Hill
#
# Bulk Modulus (GPa) = 36.52685 44.55583 40.54134
# Shear Modulus (GPa) = 0.41233 24.59079 12.50156
#
# Velocity S-wave (km/s) = 0.42228 3.26113 2.32522
# Velocity P-wave (km/s) = 4.00435 5.78354 4.97414
#
# Compressibility (1/GPa) = 0.02737712
#
# Stress axis : x y z
#
# Youngs Moduli (GPa) = 148.39442 57.41679 104.90771
#
# Poissons Ratio (x) = 0.08076 0.13663
# Poissons Ratio (y) = 0.20873 0.04681
# Poissons Ratio (z) = 0.19326 0.02562
#
# Static dielectric constant tensor:
#      x y z
#    x 1.985550 0.000000 0.000000 
#    y 0.000000 1.906180 0.000000 
#    z 0.000000 0.000000 1.918620 
# 
# From -- ./inp_files/5769.got.cif
#   From: 2010.05.17/outbox.cif.g08.bks.cpg/sg20_3_cif.got.tgz:5769.got - 2010.06.03 22:52:26.
