data_PCOD9317423
_publ_section_title
;
Structure prediction by ZEFSAII (Michael W. Deem and Ramdas Pophale) SiO2 
 PCOD9317423
Probable space group: C 2 2 21
;
_chemical_formula_sum "Si O2"
_cell_formula_units_Z 48
_cell_length_a 16.225680
_cell_length_b 8.417945
_cell_length_c 18.037758
_cell_angle_alpha 90.000000
_cell_angle_beta 90.000000
_cell_angle_gamma 90.000000
_cell_volume 2463.721120
_symmetry_space_group_name_H-M "C 2 2 21"
_symmetry_group_IT_number 20
_symmetry_cell_setting 'orthorhombic'
loop_
_space_group_symop_operation_xyz
x,y,z
-x,-y,1/2+z
x,-y,-z
-x,y,1/2-z
1/2+x,1/2+y,z
1/2-x,1/2-y,1/2+z
1/2+x,1/2-y,-z
1/2-x,1/2+y,1/2-z
loop_
_atom_site_type_symbol
_atom_site_label
_atom_site_fract_x
_atom_site_fract_y
_atom_site_fract_z
Si Si1 0.514626 0.675710 0.333850
Si Si2 0.818868 0.031175 0.834959
Si Si3 0.864923 0.019646 0.417273
Si Si4 0.696567 0.210361 0.451284
Si Si5 0.724309 0.712300 0.810788
Si Si6 0.630691 0.094777 0.604598
O O1 0.500000 0.726016 0.250000
O O2 0.591758 0.552944 0.333958
O O3 0.432490 0.600497 0.366190
O O4 0.544051 0.824575 0.382114
O O5 0.807884 0.120392 0.913006
O O6 0.810029 0.160263 0.769009
O O7 0.750184 0.895166 0.820450
O O8 0.783812 0.128702 0.430624
O O9 0.899756 0.000000 0.500000
O O10 0.834908 0.861325 0.374298
O O11 0.677165 0.191446 0.538180
O O12 0.630108 0.088832 0.415963
O O13 0.811496 0.621769 0.824332
#
# Coordination Sequence:
#
# PCOD9317423 Si02
#       6
#     8   8   8   8   8   8
#     4  11  24  39  61  93 131 169 209 259 335 381
#     4  11  23  37  67  90 124 166 225 257 321 384
#     4  11  21  41  63  87 129 166 208 270 323 371
#     4  10  20  41  65  92 117 169 219 266 306 387
#     4  10  19  38  59  89 118 168 214 263 304 383
#     4   9  20  39  63  87 126 166 211 258 320 376
#
# _framework density 19.482726
#
# number of rings (size 3 to 8) (size 9 to 14) (size 15 to 20)
#    0.000    1.667    5.000    2.000    4.667    2.000 
#    0.000    2.500    0.000    0.000    0.000    0.000 
#    0.000    0.000    0.000    0.000    0.000    0.000 
#
# Total GULP energy -133856.072031 kJ/mol
# GULP energy per Si atom -5577.336335 kJ/mol
# Density = 1.943838 g / cm^3
# Si number density = 19.482726 Si / 1000 Ang^3
#
#
#
# Elastic Constant Matrix: (Units=GPa)
#
#
# Indices 1 2 3 4 5 6 
#
# 1 70.5630 36.2505 34.2957 0.0000 0.0000 0.0000
# 2 36.2505 73.0055 24.2253 0.0000 0.0000 0.0000
# 3 34.2957 24.2253 82.1672 0.0000 0.0000 0.0000
# 4 0.0000 0.0000 0.0000 32.6400 0.0000 0.0000
# 5 0.0000 0.0000 0.0000 0.0000 27.2737 0.0000
# 6 0.0000 0.0000 0.0000 0.0000 0.0000 15.3595
#
#
#
# Elastic Compliance Matrix: (Units=1/GPa)
#
#
# Indices 1 2 3 4 5 6 
#
# 1 0.021799 -0.008651 -0.006548 0.000000 0.000000 0.000000
# 2 -0.008651 0.018616 -0.001878 0.000000 0.000000 0.000000
# 3 -0.006548 -0.001878 0.015457 0.000000 0.000000 0.000000
# 4 0.000000 0.000000 0.000000 0.030637 0.000000 0.000000
# 5 0.000000 0.000000 0.000000 0.000000 0.036665 0.000000
# 6 0.000000 0.000000 0.000000 0.000000 0.000000 0.065106
#
#
# Mechanical properties :
#
#
# Convention : Reuss Voigt Hill
#
# Bulk Modulus (GPa) = 46.04415 46.14209 46.09312
# Shear Modulus (GPa) = 21.77001 23.78559 22.77780
#
# Velocity S-wave (km/s) = 3.34638 3.49786 3.42296
# Velocity P-wave (km/s) = 6.21415 6.32838 6.27153
#
# Compressibility (1/GPa) = 0.02171828
#
# Stress axis : x y z
#
# Youngs Moduli (GPa) = 45.87450 53.71600 64.69587
#
# Poissons Ratio (x) = 0.46471 0.42362
# Poissons Ratio (y) = 0.39687 0.12148
# Poissons Ratio (z) = 0.30038 0.10087
#
# Static dielectric constant tensor:
#      x y z
#    x 1.672690 0.000000 0.000000 
#    y 0.000000 1.704640 0.000000 
#    z 0.000000 0.000000 1.704770 
# 
# From -- ./inp_files/24800.got.cif
#   From: 2010.05.17/outbox.cif.g08.bks.cpg/sg20_13_cif.got.tgz:24800.got - 2010.06.03 22:52:26.
