data_PCOD9317880
_publ_section_title
;
Structure prediction by ZEFSAII (Michael W. Deem and Ramdas Pophale) SiO2 
 PCOD9317880
Probable space group: C 2 2 21
;
_chemical_formula_sum "Si O2"
_cell_formula_units_Z 64
_cell_length_a 34.026088
_cell_length_b 10.962127
_cell_length_c 9.383491
_cell_angle_alpha 90.000000
_cell_angle_beta 90.000000
_cell_angle_gamma 90.000000
_cell_volume 3500.026172
_symmetry_space_group_name_H-M "C 2 2 21"
_symmetry_group_IT_number 20
_symmetry_cell_setting 'orthorhombic'
loop_
_space_group_symop_operation_xyz
x,y,z
-x,-y,1/2+z
x,-y,-z
-x,y,1/2-z
1/2+x,1/2+y,z
1/2-x,1/2-y,1/2+z
1/2+x,1/2-y,-z
1/2-x,1/2+y,1/2-z
loop_
_atom_site_type_symbol
_atom_site_label
_atom_site_fract_x
_atom_site_fract_y
_atom_site_fract_z
Si Si1 0.812840 0.927670 0.281890
Si Si2 0.959178 0.137241 0.830817
Si Si3 0.460433 0.646442 0.169517
Si Si4 0.267509 0.083199 0.635860
Si Si5 0.383308 0.784874 0.200835
Si Si6 0.180269 0.183650 0.089868
Si Si7 0.335341 0.022714 0.164751
Si Si8 0.626708 0.719111 0.627588
O O1 0.771797 0.881767 0.219620
O O2 0.824560 0.864078 0.430194
O O3 0.848105 0.897327 0.175151
O O4 0.806072 0.069244 0.315739
O O5 0.917892 0.209249 0.813086
O O6 0.000000 0.170312 0.750000
O O7 0.949923 0.994930 0.795831
O O8 0.966706 0.148446 0.999791
O O9 0.500000 0.674696 0.250000
O O10 0.427906 0.743508 0.215570
O O11 0.289116 0.206507 0.589678
O O12 0.257697 0.000000 0.500000
O O13 0.298817 0.011369 0.735083
O O14 0.358640 0.729689 0.330718
O O15 0.370685 0.926391 0.193594
O O16 0.372863 0.730318 0.044239
O O17 0.351170 0.159437 0.182432
O O18 0.323533 0.000000 0.000000
#
# Coordination Sequence:
#
# PCOD9317880 Si02
#       8
#     8   8   8   8   8   8   8   8
#     4  11  25  37  57  82 110 143 186 237 284 331
#     4   9  18  32  52  81 111 144 183 229 282 338
#     4   9  17  31  53  80 111 144 182 229 284 339
#     4  11  25  39  59  80 111 151 189 232 289 344
#     4   9  19  37  58  81 112 147 192 230 282 345
#     4  10  24  40  54  81 112 142 185 239 278 338
#     4   9  20  38  59  81 110 153 189 236 287 339
#     4  10  20  36  60  83 112 150 192 235 284 345
#
# _framework density 18.285578000000001
#
# number of rings (size 3 to 8) (size 9 to 14) (size 15 to 20)
#    0.000    2.250    0.000    1.500    7.000    3.000 
#    0.000    3.125    0.000    0.000    0.000    0.000 
#    0.000    0.000    0.000    0.000    0.000    0.000 
#
# Total GULP energy -178461.179297 kJ/mol
# GULP energy per Si atom -5576.911853 kJ/mol
# Density = 1.824396 g / cm^3
# Si number density = 18.285578 Si / 1000 Ang^3
#
#
#
# Elastic Constant Matrix: (Units=GPa)
#
#
# Indices 1 2 3 4 5 6 
#
# 1 79.6819 15.4264 25.7428 0.0000 0.0000 0.0000
# 2 15.4264 41.6759 26.2849 0.0000 0.0000 0.0000
# 3 25.7428 26.2849 36.5627 0.0000 0.0000 0.0000
# 4 0.0000 0.0000 0.0000 9.3632 0.0000 0.0000
# 5 0.0000 0.0000 0.0000 0.0000 26.7869 0.0000
# 6 0.0000 0.0000 0.0000 0.0000 0.0000 19.5539
#
#
#
# Elastic Compliance Matrix: (Units=1/GPa)
#
#
# Indices 1 2 3 4 5 6 
#
# 1 0.016356 0.002211 -0.013105 0.000000 0.000000 0.000000
# 2 0.002211 0.044198 -0.033331 0.000000 0.000000 0.000000
# 3 -0.013105 -0.033331 0.060539 0.000000 0.000000 0.000000
# 4 0.000000 0.000000 0.000000 0.106801 0.000000 0.000000
# 5 0.000000 0.000000 0.000000 0.000000 0.037332 0.000000
# 6 0.000000 0.000000 0.000000 0.000000 0.000000 0.051141
#
#
# Mechanical properties :
#
#
# Convention : Reuss Voigt Hill
#
# Bulk Modulus (GPa) = 30.63450 32.53651 31.58551
# Shear Modulus (GPa) = 12.02804 17.17189 14.59997
#
# Velocity S-wave (km/s) = 2.56752 3.06779 2.82874
# Velocity P-wave (km/s) = 5.05760 5.51186 5.28961
#
# Compressibility (1/GPa) = 0.03264294
#
# Stress axis : x y z
#
# Youngs Moduli (GPa) = 61.14074 22.62565 16.51837
#
# Poissons Ratio (x) = -0.05003 0.21648
# Poissons Ratio (y) = -0.13521 0.55057
# Poissons Ratio (z) = 0.80127 0.75413
#
# Static dielectric constant tensor:
#      x y z
#    x 1.617540 0.000000 0.000000 
#    y 0.000000 1.637400 0.000000 
#    z 0.000000 0.000000 1.620800 
# 
# From -- ./inp_files/11620.got.cif
#   From: 2010.05.17/outbox.cif.g08.bks.cpg/sg20_6_cif.got.tgz:11620.got - 2010.06.03 22:52:26.
