data_PCOD9317455
_publ_section_title
;
Structure prediction by ZEFSAII (Michael W. Deem and Ramdas Pophale) SiO2 
 PCOD9317455
Probable space group: C 2 2 21
;
_chemical_formula_sum "Si O2"
_cell_formula_units_Z 60
_cell_length_a 17.319152
_cell_length_b 6.138676
_cell_length_c 27.517448
_cell_angle_alpha 90.000000
_cell_angle_beta 90.000000
_cell_angle_gamma 90.000000
_cell_volume 2925.563238
_symmetry_space_group_name_H-M "C 2 2 21"
_symmetry_group_IT_number 20
_symmetry_cell_setting 'orthorhombic'
loop_
_space_group_symop_operation_xyz
x,y,z
-x,-y,1/2+z
x,-y,-z
-x,y,1/2-z
1/2+x,1/2+y,z
1/2-x,1/2-y,1/2+z
1/2+x,1/2-y,-z
1/2-x,1/2+y,1/2-z
loop_
_atom_site_type_symbol
_atom_site_label
_atom_site_fract_x
_atom_site_fract_y
_atom_site_fract_z
Si Si1 0.924231 0.964504 0.114721
Si Si2 0.520148 0.151900 0.869695
Si Si3 0.282465 0.000000 0.000000
Si Si4 0.000843 0.661920 0.039566
Si Si5 0.831663 0.669520 0.448127
Si Si6 0.031126 0.738752 0.195970
Si Si7 0.851550 0.986714 0.359868
Si Si8 0.267698 0.727152 0.910223
O O1 0.960191 0.874461 0.063105
O O2 0.968754 0.837707 0.157827
O O3 0.834309 0.916358 0.113280
O O4 0.940816 0.215511 0.126068
O O5 0.583992 0.337836 0.875355
O O6 0.518546 0.990831 0.914575
O O7 0.537267 0.011487 0.821810
O O8 0.310846 0.126867 0.048413
O O9 0.232642 0.810216 0.025144
O O10 0.088513 0.707334 0.022083
O O11 0.961738 0.500000 0.000000
O O12 0.795774 0.432804 0.435563
O O13 0.847674 0.788046 0.397243
O O14 0.000000 0.756630 0.250000
O O15 0.110833 0.874133 0.187712
O O16 0.773095 0.120170 0.369794
#
# Coordination Sequence:
#
# PCOD9317455 Si02
#       8
#     8   8   4   8   8   8   8   8
#     4  10  24  40  59  92 124 158 203 259 320 364
#     4  10  19  39  58  90 121 161 202 255 312 362
#     4  10  24  34  60  84 126 172 220 250 298 366
#     4  11  21  34  58  85 123 164 212 252 296 360
#     4  11  20  37  58  89 119 165 221 249 297 367
#     4  10  21  41  70  97 117 152 207 258 321 392
#     4  10  19  38  65  86 119 156 201 255 305 370
#     4  11  22  39  61  88 127 168 205 258 311 363
#
# _framework density 20.508872
#
# number of rings (size 3 to 8) (size 9 to 14) (size 15 to 20)
#    0.000    1.600    5.333    1.200    2.800    6.933 
#    2.400    0.000    5.867    0.000    0.000    0.000 
#    0.000    0.000    0.000    0.000    0.000    0.000 
#
# Total GULP energy -167017.610272 kJ/mol
# GULP energy per Si atom -5567.253676 kJ/mol
# Density = 2.046219 g / cm^3
# Si number density = 20.508872 Si / 1000 Ang^3
#
#
#
# Elastic Constant Matrix: (Units=GPa)
#
#
# Indices 1 2 3 4 5 6 
#
# 1 69.6494 16.4833 1.4087 0.0000 0.0000 0.0000
# 2 16.4833 82.0039 2.9877 0.0000 0.0000 0.0000
# 3 1.4087 2.9877 52.1201 0.0000 0.0000 0.0000
# 4 0.0000 0.0000 0.0000 14.9478 0.0000 0.0000
# 5 0.0000 0.0000 0.0000 0.0000 15.0993 0.0000
# 6 0.0000 0.0000 0.0000 0.0000 0.0000 28.7279
#
#
#
# Elastic Compliance Matrix: (Units=1/GPa)
#
#
# Indices 1 2 3 4 5 6 
#
# 1 0.015078 -0.003022 -0.000234 0.000000 0.000000 0.000000
# 2 -0.003022 0.012826 -0.000654 0.000000 0.000000 0.000000
# 3 -0.000234 -0.000654 0.019230 0.000000 0.000000 0.000000
# 4 0.000000 0.000000 0.000000 0.066899 0.000000 0.000000
# 5 0.000000 0.000000 0.000000 0.000000 0.066228 0.000000
# 6 0.000000 0.000000 0.000000 0.000000 0.000000 0.034809
#
#
# Mechanical properties :
#
#
# Convention : Reuss Voigt Hill
#
# Bulk Modulus (GPa) = 25.43641 27.28142 26.35891
# Shear Modulus (GPa) = 21.18687 23.94792 22.56739
#
# Velocity S-wave (km/s) = 3.21761 3.42085 3.32078
# Velocity P-wave (km/s) = 5.12187 5.37904 5.25203
#
# Compressibility (1/GPa) = 0.03931373
#
# Stress axis : x y z
#
# Youngs Moduli (GPa) = 66.32357 77.96767 52.00142
#
# Poissons Ratio (x) = 0.23563 0.01218
# Poissons Ratio (y) = 0.20044 0.03399
# Poissons Ratio (z) = 0.01554 0.05096
#
# Static dielectric constant tensor:
#      x y z
#    x 1.813000 0.000000 0.000000 
#    y 0.000000 1.801080 0.000000 
#    z 0.000000 0.000000 1.732460 
# 
# From -- ./inp_files/30503.got.cif
#   From: 2010.05.17/outbox.cif.g08.bks.cpg/sg20_16_cif.got.tgz:30503.got - 2010.06.03 22:52:26.
