data_PCOD9317977
_publ_section_title
;
Structure prediction by ZEFSAII (Michael W. Deem and Ramdas Pophale) SiO2 
 PCOD9317977
Probable space group: C 2 2 21
;
_chemical_formula_sum "Si O2"
_cell_formula_units_Z 64
_cell_length_a 12.960271
_cell_length_b 28.696615
_cell_length_c 8.558313
_cell_angle_alpha 90.000000
_cell_angle_beta 90.000000
_cell_angle_gamma 90.000000
_cell_volume 3182.972743
_symmetry_space_group_name_H-M "C 2 2 21"
_symmetry_group_IT_number 20
_symmetry_cell_setting 'orthorhombic'
loop_
_space_group_symop_operation_xyz
x,y,z
-x,-y,1/2+z
x,-y,-z
-x,y,1/2-z
1/2+x,1/2+y,z
1/2-x,1/2-y,1/2+z
1/2+x,1/2-y,-z
1/2-x,1/2+y,1/2-z
loop_
_atom_site_type_symbol
_atom_site_label
_atom_site_fract_x
_atom_site_fract_y
_atom_site_fract_z
Si Si1 0.444209 0.863877 0.094588
Si Si2 0.739504 0.856173 0.190732
Si Si3 0.872684 0.690268 0.421297
Si Si4 0.082437 0.864229 0.890602
Si Si5 0.234312 0.554301 0.012590
Si Si6 0.021134 0.048498 0.433151
Si Si7 0.401777 0.294185 0.352510
Si Si8 0.178515 0.386416 0.691590
O O1 0.500000 0.885330 0.250000
O O2 0.343930 0.842237 0.177355
O O3 0.524346 0.827339 0.015506
O O4 0.394086 0.896221 0.958824
O O5 0.843135 0.835606 0.261523
O O6 0.718023 0.828582 0.031796
O O7 0.724861 0.910190 0.135961
O O8 0.853401 0.743914 0.385247
O O9 0.867027 0.661083 0.262733
O O10 0.039773 0.906951 0.995324
O O11 0.200788 0.877010 0.848878
O O12 0.000000 0.861731 0.750000
O O13 0.075958 0.816285 0.980414
O O14 0.357426 0.553941 0.041337
O O15 0.179356 0.577218 0.164194
O O16 0.202564 0.500000 0.000000
O O17 0.000000 0.045854 0.250000
O O18 0.983657 0.000000 0.500000
O O19 0.500000 0.282655 0.250000
#
# Coordination Sequence:
#
# PCOD9317977 Si02
#       8
#     8   8   8   8   8   8   8   8
#     4  10  21  43  66  94 124 167 227 272 335 386
#     4  10  23  42  65  94 130 170 214 285 321 402
#     4  10  25  41  67  90 125 175 221 272 331 394
#     4  11  23  39  57  94 133 170 206 253 320 389
#     4  10  21  40  66  96 132 174 220 266 334 407
#     4  10  20  37  57  89 131 170 201 242 308 388
#     4  12  25  38  61  97 131 168 216 266 331 392
#     4  11  20  42  67  90 131 174 214 268 329 393
#
# _framework density 20.106988999999999
#
# number of rings (size 3 to 8) (size 9 to 14) (size 15 to 20)
#    0.000    1.500    3.750    1.875    3.500    5.000 
#    0.000    0.625    0.000   22.500    0.000    0.875 
#    0.000    0.000    0.000    0.000    0.000    0.000 
#
# Total GULP energy -178171.393810 kJ/mol
# GULP energy per Si atom -5567.856057 kJ/mol
# Density = 2.006122 g / cm^3
# Si number density = 20.106989 Si / 1000 Ang^3
#
#
#
# Elastic Constant Matrix: (Units=GPa)
#
#
# Indices 1 2 3 4 5 6 
#
# 1 26.7822 9.3985 20.1891 0.0000 0.0000 0.0000
# 2 9.3985 134.8922 37.5663 0.0000 0.0000 0.0000
# 3 20.1891 37.5663 76.0277 0.0000 0.0000 0.0000
# 4 0.0000 0.0000 0.0000 41.8274 0.0000 0.0000
# 5 0.0000 0.0000 0.0000 0.0000 39.2123 0.0000
# 6 0.0000 0.0000 0.0000 0.0000 0.0000 -1.0840
#
#
#
# Elastic Compliance Matrix: (Units=1/GPa)
#
#
# Indices 1 2 3 4 5 6 
#
# 1 0.046689 0.000232 -0.012513 0.000000 0.000000 0.000000
# 2 0.000232 0.008597 -0.004310 0.000000 0.000000 0.000000
# 3 -0.012513 -0.004310 0.018605 0.000000 0.000000 0.000000
# 4 0.000000 0.000000 0.000000 0.023908 0.000000 0.000000
# 5 0.000000 0.000000 0.000000 0.000000 0.025502 0.000000
# 6 0.000000 0.000000 0.000000 0.000000 0.000000 -0.922519
#
#
# Mechanical properties :
#
#
# Convention : Reuss Voigt Hill
#
# Bulk Modulus (GPa) = 24.56363 41.33443 32.94903
# Shear Modulus (GPa) = -6.64482 27.36102 10.35810
#
# Velocity S-wave (km/s) = -1.81986 3.69287 2.27215
# Velocity P-wave (km/s) = 2.79770 6.22775 4.82763
#
# Compressibility (1/GPa) = 0.04071059
#
# Stress axis : x y z
#
# Youngs Moduli (GPa) = 21.41816 116.31466 53.74817
#
# Poissons Ratio (x) = -0.02694 0.67254
# Poissons Ratio (y) = -0.00496 0.23163
# Poissons Ratio (z) = 0.26800 0.50127
#
# Static dielectric constant tensor:
#      x y z
#    x 1.758630 0.000000 0.000000 
#    y 0.000000 1.736010 0.000000 
#    z 0.000000 0.000000 1.765820 
# 
# From -- ./inp_files/7710.got.cif
#   From: 2010.05.17/outbox.cif.g08.bks.cpg/sg20_4_cif.got.tgz:7710.got - 2010.06.03 22:52:26.
