data_PCOD9317453
_publ_section_title
;
Structure prediction by ZEFSAII (Michael W. Deem and Ramdas Pophale) SiO2 
 PCOD9317453
Probable space group: C 2 2 21
;
_chemical_formula_sum "Si O2"
_cell_formula_units_Z 52
_cell_length_a 8.761559
_cell_length_b 11.621840
_cell_length_c 22.144972
_cell_angle_alpha 90.000000
_cell_angle_beta 90.000000
_cell_angle_gamma 90.000000
_cell_volume 2254.921448
_symmetry_space_group_name_H-M "C 2 2 21"
_symmetry_group_IT_number 20
_symmetry_cell_setting 'orthorhombic'
loop_
_space_group_symop_operation_xyz
x,y,z
-x,-y,1/2+z
x,-y,-z
-x,y,1/2-z
1/2+x,1/2+y,z
1/2-x,1/2-y,1/2+z
1/2+x,1/2-y,-z
1/2-x,1/2+y,1/2-z
loop_
_atom_site_type_symbol
_atom_site_label
_atom_site_fract_x
_atom_site_fract_y
_atom_site_fract_z
Si Si1 0.500000 0.738354 0.250000
Si Si2 0.739627 0.291832 0.834096
Si Si3 0.651298 0.255149 0.465886
Si Si4 0.500000 0.125063 0.250000
Si Si5 0.280683 0.429492 0.825137
Si Si6 0.818457 0.751044 0.419724
Si Si7 0.925219 0.021853 0.630819
Si Si8 0.453959 0.500000 0.000000
O O1 0.387218 0.787515 0.301110
O O2 0.621222 0.661256 0.286297
O O3 0.759674 0.259255 0.903688
O O4 0.671813 0.423125 0.836630
O O5 0.897214 0.300944 0.796803
O O6 0.716616 0.198593 0.526073
O O7 0.479084 0.220369 0.450511
O O8 0.644050 0.388801 0.484263
O O9 0.376735 0.053986 0.289312
O O10 0.245213 0.360041 0.886316
O O11 0.404784 0.527276 0.840145
O O12 0.848250 0.853652 0.372051
O O13 0.948093 0.983194 0.560931
#
# Coordination Sequence:
#
# PCOD9317453 Si02
#       8
#     4   8   8   4   8   8   8   4
#     4   8  20  34  68  86 128 182 216 266 336 392
#     4  10  19  38  64  95 129 173 220 277 337 398
#     4  11  22  38  67  96 131 174 218 280 345 407
#     4  10  20  38  64  90 132 174 224 278 328 394
#     4  10  19  41  64  94 129 177 223 274 333 393
#     4  11  23  40  66  99 133 173 220 277 343 407
#     4  10  21  39  66  92 131 173 215 269 340 407
#     4  10  20  38  62  96 126 166 216 274 340 410
#
# _framework density 23.060669000000001
#
# number of rings (size 3 to 8) (size 9 to 14) (size 15 to 20)
#    0.000    1.846    3.077    1.846    2.154    0.000 
#    0.000   10.000    0.000    0.000    0.000    0.000 
#    0.000    0.000    0.000    0.000    0.000    0.000 
#
# Total GULP energy -145121.437729 kJ/mol
# GULP energy per Si atom -5581.593759 kJ/mol
# Density = 2.300818 g / cm^3
# Si number density = 23.060669 Si / 1000 Ang^3
#
#
#
# Elastic Constant Matrix: (Units=GPa)
#
#
# Indices 1 2 3 4 5 6 
#
# 1 106.6336 27.6889 41.5029 0.0000 0.0000 0.0000
# 2 27.6889 63.9653 17.0258 0.0000 0.0000 0.0000
# 3 41.5029 17.0258 106.1763 0.0000 0.0000 0.0000
# 4 0.0000 0.0000 0.0000 -37.8878 0.0000 0.0000
# 5 0.0000 0.0000 0.0000 0.0000 59.0691 0.0000
# 6 0.0000 0.0000 0.0000 0.0000 0.0000 15.2931
#
#
#
# Elastic Compliance Matrix: (Units=1/GPa)
#
#
# Indices 1 2 3 4 5 6 
#
# 1 0.012021 -0.004129 -0.004037 0.000000 0.000000 0.000000
# 2 -0.004129 0.017749 -0.001232 0.000000 0.000000 0.000000
# 3 -0.004037 -0.001232 0.011194 0.000000 0.000000 0.000000
# 4 0.000000 0.000000 0.000000 -0.026394 0.000000 0.000000
# 5 0.000000 0.000000 0.000000 0.000000 0.016929 0.000000
# 6 0.000000 0.000000 0.000000 0.000000 0.000000 0.065389
#
#
# Mechanical properties :
#
#
# Convention : Reuss Voigt Hill
#
# Bulk Modulus (GPa) = 45.11054 49.91227 47.51140
# Shear Modulus (GPa) = 40.62596 19.99870 30.31233
#
# Velocity S-wave (km/s) = 4.20181 2.94806 3.62948
# Velocity P-wave (km/s) = 6.56844 5.76879 6.18156
#
# Compressibility (1/GPa) = 0.02216777
#
# Stress axis : x y z
#
# Youngs Moduli (GPa) = 83.18571 56.34167 89.33508
#
# Poissons Ratio (x) = 0.23265 0.36063
# Poissons Ratio (y) = 0.34349 0.11007
# Poissons Ratio (z) = 0.33581 0.06942
#
# Static dielectric constant tensor:
#      x y z
#    x 1.901200 0.000000 0.000000 
#    y 0.000000 1.873490 0.000000 
#    z 0.000000 0.000000 1.986960 
# 
# From -- ./inp_files/28823.got.cif
#   From: 2010.05.17/outbox.cif.g08.bks.cpg/sg20_15_cif.got.tgz:28823.got - 2010.06.03 22:52:26.
