data_PCOD9317872
_publ_section_title
;
Structure prediction by ZEFSAII (Michael W. Deem and Ramdas Pophale) SiO2 
 PCOD9317872
Probable space group: C 2 2 21
;
_chemical_formula_sum "Si O2"
_cell_formula_units_Z 48
_cell_length_a 29.916385
_cell_length_b 9.137378
_cell_length_c 8.334408
_cell_angle_alpha 90.000000
_cell_angle_beta 90.000000
_cell_angle_gamma 90.000000
_cell_volume 2278.271419
_symmetry_space_group_name_H-M "C 2 2 21"
_symmetry_group_IT_number 20
_symmetry_cell_setting 'orthorhombic'
loop_
_space_group_symop_operation_xyz
x,y,z
-x,-y,1/2+z
x,-y,-z
-x,y,1/2-z
1/2+x,1/2+y,z
1/2-x,1/2-y,1/2+z
1/2+x,1/2-y,-z
1/2-x,1/2+y,1/2-z
loop_
_atom_site_type_symbol
_atom_site_label
_atom_site_fract_x
_atom_site_fract_y
_atom_site_fract_z
Si Si1 0.124684 0.910166 0.158262
Si Si2 0.724459 0.425022 0.245307
Si Si3 0.393058 0.307107 0.841437
Si Si4 0.208462 0.772896 0.583019
Si Si5 0.512205 0.664685 0.438086
Si Si6 0.424499 0.827196 0.498603
O O1 0.177860 0.893921 0.156210
O O2 0.111484 0.018376 0.302372
O O3 0.102092 0.753833 0.140799
O O4 0.110085 0.000000 0.000000
O O5 0.765798 0.370672 0.140873
O O6 0.722589 0.330627 0.408932
O O7 0.722681 0.594316 0.297244
O O8 0.345151 0.259204 0.908049
O O9 0.436602 0.284262 0.949769
O O10 0.403373 0.228379 0.670950
O O11 0.507322 0.500000 0.500000
O O12 0.500000 0.660756 0.250000
O O13 0.475292 0.770222 0.512875
O O14 0.421985 0.000000 0.500000
#
# Coordination Sequence:
#
# PCOD9317872 Si02
#       6
#     8   8   8   8   8   8
#     4   9  19  37  62  87 113 158 205 244 286 350
#     4  10  23  38  62  88 122 156 197 246 298 356
#     4   9  20  38  61  82 121 152 201 249 287 344
#     4  10  23  40  60  91 118 156 199 247 302 349
#     4  10  20  37  63  89 113 154 200 247 291 347
#     4  10  20  36  59  87 122 157 193 239 302 358
#
# _framework density 21.068605999999999
#
# number of rings (size 3 to 8) (size 9 to 14) (size 15 to 20)
#    0.000    2.333    0.000    2.500   11.667    1.333 
#    0.000    7.500    3.667    0.000    0.000    0.000 
#    0.000    0.000    0.000    0.000    0.000    0.000 
#
# Total GULP energy -134097.562671 kJ/mol
# GULP energy per Si atom -5587.398445 kJ/mol
# Density = 2.102065 g / cm^3
# Si number density = 21.068606 Si / 1000 Ang^3
#
#
#
# Elastic Constant Matrix: (Units=GPa)
#
#
# Indices 1 2 3 4 5 6 
#
# 1 119.4900 53.3416 20.6462 0.0000 0.0000 0.0000
# 2 53.3416 107.2727 14.2292 0.0000 0.0000 0.0000
# 3 20.6462 14.2292 28.1527 0.0000 0.0000 0.0000
# 4 0.0000 0.0000 0.0000 17.9416 0.0000 0.0000
# 5 0.0000 0.0000 0.0000 0.0000 17.3123 0.0000
# 6 0.0000 0.0000 0.0000 0.0000 0.0000 24.4393
#
#
#
# Elastic Compliance Matrix: (Units=1/GPa)
#
#
# Indices 1 2 3 4 5 6 
#
# 1 0.011634 -0.004988 -0.006011 0.000000 0.000000 0.000000
# 2 -0.004988 0.012130 -0.002473 0.000000 0.000000 0.000000
# 3 -0.006011 -0.002473 0.041179 0.000000 0.000000 0.000000
# 4 0.000000 0.000000 0.000000 0.055736 0.000000 0.000000
# 5 0.000000 0.000000 0.000000 0.000000 0.057763 0.000000
# 6 0.000000 0.000000 0.000000 0.000000 0.000000 0.040918
#
#
# Mechanical properties :
#
#
# Convention : Reuss Voigt Hill
#
# Bulk Modulus (GPa) = 26.31629 47.92771 37.12200
# Shear Modulus (GPa) = 19.30724 23.05186 21.17955
#
# Velocity S-wave (km/s) = 3.03049 3.31136 3.17403
# Velocity P-wave (km/s) = 4.97625 6.11702 5.57588
#
# Compressibility (1/GPa) = 0.03799927
#
# Stress axis : x y z
#
# Youngs Moduli (GPa) = 85.95406 82.43847 24.28429
#
# Poissons Ratio (x) = 0.41118 0.14598
# Poissons Ratio (y) = 0.42872 0.06006
# Poissons Ratio (z) = 0.51668 0.20388
#
# Static dielectric constant tensor:
#      x y z
#    x 1.757850 0.000000 0.000000 
#    y 0.000000 1.732260 0.000000 
#    z 0.000000 0.000000 1.804360 
# 
# From -- ./inp_files/11478.got.cif
#   From: 2010.05.17/outbox.cif.g08.bks.cpg/sg20_6_cif.got.tgz:11478.got - 2010.06.03 22:52:26.
