data_PCOD9317114
_publ_section_title
;
Structure prediction by ZEFSAII (Michael W. Deem and Ramdas Pophale) SiO2 
 PCOD9317114
Probable space group: C 2 2 21
;
_chemical_formula_sum "Si O2"
_cell_formula_units_Z 36
_cell_length_a 14.916968
_cell_length_b 7.974736
_cell_length_c 15.241069
_cell_angle_alpha 90.000000
_cell_angle_beta 90.000000
_cell_angle_gamma 90.000000
_cell_volume 1813.060524
_symmetry_space_group_name_H-M "C 2 2 21"
_symmetry_group_IT_number 20
_symmetry_cell_setting 'orthorhombic'
loop_
_space_group_symop_operation_xyz
x,y,z
-x,-y,1/2+z
x,-y,-z
-x,y,1/2-z
1/2+x,1/2+y,z
1/2-x,1/2-y,1/2+z
1/2+x,1/2-y,-z
1/2-x,1/2+y,1/2-z
loop_
_atom_site_type_symbol
_atom_site_label
_atom_site_fract_x
_atom_site_fract_y
_atom_site_fract_z
Si Si1 0.762999 0.131705 0.636335
Si Si2 0.673100 0.298968 0.791483
Si Si3 0.583312 0.077964 0.411401
Si Si4 0.769336 0.183701 0.962961
Si Si5 0.500000 0.923041 0.250000
O O1 0.739384 0.273074 0.708181
O O2 0.778768 0.207377 0.540016
O O3 0.829619 0.993556 0.678021
O O4 0.671459 0.027336 0.618359
O O5 0.714307 0.201580 0.874180
O O6 0.582225 0.203610 0.767374
O O7 0.630297 0.250743 0.439656
O O8 0.544202 0.000000 0.500000
O O9 0.516588 0.046463 0.332165
O O10 0.774773 0.000000 0.000000
#
# Coordination Sequence:
#
# PCOD9317114 Si02
#       5
#     8   8   8   8   4
#     4   9  18  34  58  82 106 145 195 233 270 334
#     4  10  19  34  58  84 113 148 186 233 288 342
#     4   8  17  34  55  80 112 146 183 230 284 333
#     4  10  19  34  61  86 108 149 200 239 271 327
#     4  10  20  34  58  88 122 148 174 236 302 342
#
# _framework density 19.855927000000001
#
# number of rings (size 3 to 8) (size 9 to 14) (size 15 to 20)
#    0.000    2.667    0.000    3.333    0.000    0.889 
#    0.000    0.000    0.000  116.000    0.000    0.000 
#    0.000    0.000    0.000    0.000    0.000    0.000 
#
# Total GULP energy -100243.697270 kJ/mol
# GULP energy per Si atom -5569.094293 kJ/mol
# Density = 1.981073 g / cm^3
# Si number density = 19.855927 Si / 1000 Ang^3
#
#
#
# Elastic Constant Matrix: (Units=GPa)
#
#
# Indices 1 2 3 4 5 6 
#
# 1 34.4676 16.1608 37.6689 0.0000 0.0000 0.0000
# 2 16.1608 75.4739 22.0438 0.0000 0.0000 0.0000
# 3 37.6689 22.0438 140.8293 0.0000 0.0000 0.0000
# 4 0.0000 0.0000 0.0000 31.9660 0.0000 0.0000
# 5 0.0000 0.0000 0.0000 0.0000 30.1038 0.0000
# 6 0.0000 0.0000 0.0000 0.0000 0.0000 10.9283
#
#
#
# Elastic Compliance Matrix: (Units=1/GPa)
#
#
# Indices 1 2 3 4 5 6 
#
# 1 0.043613 -0.006216 -0.010693 0.000000 0.000000 0.000000
# 2 -0.006216 0.014770 -0.000649 0.000000 0.000000 0.000000
# 3 -0.010693 -0.000649 0.010063 0.000000 0.000000 0.000000
# 4 0.000000 0.000000 0.000000 0.031283 0.000000 0.000000
# 5 0.000000 0.000000 0.000000 0.000000 0.033218 0.000000
# 6 0.000000 0.000000 0.000000 0.000000 0.000000 0.091506
#
#
# Mechanical properties :
#
#
# Convention : Reuss Voigt Hill
#
# Bulk Modulus (GPa) = 30.00272 44.72421 37.36346
# Shear Modulus (GPa) = 18.47213 26.25942 22.36577
#
# Velocity S-wave (km/s) = 3.05340 3.64056 3.35983
# Velocity P-wave (km/s) = 5.25110 6.34388 5.82318
#
# Compressibility (1/GPa) = 0.03333031
#
# Stress axis : x y z
#
# Youngs Moduli (GPa) = 22.92905 67.70392 99.37887
#
# Poissons Ratio (x) = 0.42082 1.06262
# Poissons Ratio (y) = 0.14252 0.06454
# Poissons Ratio (z) = 0.24517 0.04397
#
# Static dielectric constant tensor:
#      x y z
#    x 1.712200 0.000000 0.000000 
#    y 0.000000 1.744100 0.000000 
#    z 0.000000 0.000000 1.727250 
# 
# From -- ./inp_files/18639.got.cif
#   From: 2010.05.17/outbox.cif.g08.bks.cpg/sg20_10_cif.got.tgz:18639.got - 2010.06.03 22:52:26.
