data_PCOD9317213
_publ_section_title
;
Structure prediction by ZEFSAII (Michael W. Deem and Ramdas Pophale) SiO2 
 PCOD9317213
Probable space group: C 2 2 21
;
_chemical_formula_sum "Si O2"
_cell_formula_units_Z 48
_cell_length_a 7.875211
_cell_length_b 14.631493
_cell_length_c 16.440171
_cell_angle_alpha 90.000000
_cell_angle_beta 90.000000
_cell_angle_gamma 90.000000
_cell_volume 1894.336699
_symmetry_space_group_name_H-M "C 2 2 21"
_symmetry_group_IT_number 20
_symmetry_cell_setting 'orthorhombic'
loop_
_space_group_symop_operation_xyz
x,y,z
-x,-y,1/2+z
x,-y,-z
-x,y,1/2-z
1/2+x,1/2+y,z
1/2-x,1/2-y,1/2+z
1/2+x,1/2-y,-z
1/2-x,1/2+y,1/2-z
loop_
_atom_site_type_symbol
_atom_site_label
_atom_site_fract_x
_atom_site_fract_y
_atom_site_fract_z
Si Si1 0.255717 0.018673 0.329979
Si Si2 0.427187 0.196305 0.341013
Si Si3 0.045637 0.877161 0.909139
Si Si4 0.239061 0.527337 0.641548
Si Si5 0.439082 0.799447 0.157450
Si Si6 0.427263 0.365490 0.089226
O O1 0.395448 0.090260 0.362173
O O2 0.078946 0.074373 0.343822
O O3 0.284443 0.001672 0.235018
O O4 0.228352 0.921620 0.373550
O O5 0.500000 0.200727 0.250000
O O6 0.242199 0.245336 0.342826
O O7 0.549783 0.258312 0.395470
O O8 0.062079 0.771130 0.887991
O O9 0.216481 0.936603 0.908803
O O10 0.951057 0.885696 0.994704
O O11 0.096603 0.601255 0.619874
O O12 0.410845 0.588069 0.633822
O O13 0.500000 0.809775 0.250000
#
# Coordination Sequence:
#
# PCOD9317213 Si02
#       6
#     8   8   8   8   8   8
#     4  10  19  35  61  88 121 163 212 260 309 371
#     4  10  21  39  63  94 126 164 217 266 316 380
#     4  10  19  36  62  92 129 170 207 259 328 389
#     4  10  19  35  61  88 121 163 212 260 309 371
#     4  10  21  39  63  94 126 164 217 266 316 380
#     4  10  19  36  62  92 129 170 207 259 328 389
#
# _framework density 25.338684000000001
#
# number of rings (size 3 to 8) (size 9 to 14) (size 15 to 20)
#    0.000    2.000    0.000    8.000    0.000    0.667 
#    0.000   18.333    0.000    0.000    0.000    0.000 
#    0.000    0.000    0.000    0.000    0.000    0.000 
#
# Total GULP energy -134241.018074 kJ/mol
# GULP energy per Si atom -5593.375753 kJ/mol
# Density = 2.528101 g / cm^3
# Si number density = 25.338684 Si / 1000 Ang^3
#
#
#
# Elastic Constant Matrix: (Units=GPa)
#
#
# Indices 1 2 3 4 5 6 
#
# 1 102.3023 16.1376 -12.0598 0.0000 0.0000 0.0000
# 2 16.1376 140.1922 5.1258 0.0000 0.0000 0.0000
# 3 -12.0598 5.1258 49.9865 0.0000 0.0000 0.0000
# 4 0.0000 0.0000 0.0000 -27.1997 0.0000 0.0000
# 5 0.0000 0.0000 0.0000 0.0000 -0.0100 0.0000
# 6 0.0000 0.0000 0.0000 0.0000 0.0000 668.4219
#
#
#
# Elastic Compliance Matrix: (Units=1/GPa)
#
#
# Indices 1 2 3 4 5 6 
#
# 1 0.010285 -0.001279 0.002613 0.000000 0.000000 0.000000
# 2 -0.001279 0.007319 -0.001059 0.000000 0.000000 0.000000
# 3 0.002613 -0.001059 0.020744 0.000000 0.000000 0.000000
# 4 0.000000 0.000000 0.000000 -0.036765 0.000000 0.000000
# 5 0.000000 0.000000 0.000000 0.000000-99.712153 0.000000
# 6 0.000000 0.000000 0.000000 0.000000 0.000000 0.001496
#
#
# Mechanical properties :
#
#
# Convention : Reuss Voigt Hill
#
# Bulk Modulus (GPa) = 25.70962 34.54314 30.12638
# Shear Modulus (GPa) = -0.05015 147.12761 73.53873
#
# Velocity S-wave (km/s) = -0.14084 7.62827 5.39308
# Velocity P-wave (km/s) = 3.18465 9.55246 7.12009
#
# Compressibility (1/GPa) = 0.03889594
#
# Stress axis : x y z
#
# Youngs Moduli (GPa) = 97.23141 136.62951 48.20598
#
# Poissons Ratio (x) = 0.17480 -0.12594
# Poissons Ratio (y) = 0.12440 0.05106
# Poissons Ratio (z) = -0.25402 0.14472
#
# Static dielectric constant tensor:
#      x y z
#    x 2.084650 0.000000 0.000000 
#    y 0.000000 2.071640 0.000000 
#    z 0.000000 0.000000 1.678370 
# 
# From -- ./inp_files/23474.got.cif
#   From: 2010.05.17/outbox.cif.g08.bks.cpg/sg20_12_cif.got.tgz:23474.got - 2010.06.03 22:52:26.
