data_PCOD9317177
_publ_section_title
;
Structure prediction by ZEFSAII (Michael W. Deem and Ramdas Pophale) SiO2 
 PCOD9317177
Probable space group: C 2 2 21
;
_chemical_formula_sum "Si O2"
_cell_formula_units_Z 56
_cell_length_a 6.670943
_cell_length_b 21.375110
_cell_length_c 18.868709
_cell_angle_alpha 90.000000
_cell_angle_beta 90.000000
_cell_angle_gamma 90.000000
_cell_volume 2690.529603
_symmetry_space_group_name_H-M "C 2 2 21"
_symmetry_group_IT_number 20
_symmetry_cell_setting 'orthorhombic'
loop_
_space_group_symop_operation_xyz
x,y,z
-x,-y,1/2+z
x,-y,-z
-x,y,1/2-z
1/2+x,1/2+y,z
1/2-x,1/2-y,1/2+z
1/2+x,1/2-y,-z
1/2-x,1/2+y,1/2-z
loop_
_atom_site_type_symbol
_atom_site_label
_atom_site_fract_x
_atom_site_fract_y
_atom_site_fract_z
Si Si1 0.619699 0.491843 0.177134
Si Si2 0.500000 0.296939 0.250000
Si Si3 0.332813 0.604300 0.148627
Si Si4 0.850020 0.652898 0.495445
Si Si5 0.120508 0.756077 0.683848
Si Si6 0.725065 0.793554 0.460482
Si Si7 0.565275 0.627714 0.612585
Si Si8 0.500000 0.041715 0.250000
O O1 0.500000 0.478564 0.250000
O O2 0.512355 0.554457 0.148494
O O3 0.562361 0.434773 0.126393
O O4 0.851610 0.502158 0.198406
O O5 0.650946 0.253555 0.206982
O O6 0.401110 0.340030 0.189125
O O7 0.236562 0.616731 0.072031
O O8 0.419480 0.671146 0.172621
O O9 0.157947 0.581205 0.202448
O O10 0.776456 0.725629 0.491430
O O11 0.765335 0.620798 0.566421
O O12 0.089252 0.661455 0.492273
O O13 0.094994 0.720213 0.610510
O O14 0.000000 0.730350 0.750000
O O15 0.924260 0.827445 0.434547
#
# Coordination Sequence:
#
# PCOD9317177 Si02
#       8
#     8   4   8   8   8   8   8   4
#     4  10  22  42  64  91 123 167 214 264 322 367
#     4  10  21  36  60  94 118 161 210 264 326 370
#     4  10  23  39  62  90 125 172 209 263 321 377
#     4  11  22  41  61  90 131 166 209 256 321 390
#     4  10  19  35  57  91 120 150 209 258 317 381
#     4  10  22  37  59  89 123 167 199 251 325 374
#     4  11  22  40  63  90 127 165 212 266 320 390
#     4  10  21  42  64  90 124 161 224 268 310 374
#
# _framework density 20.813748
#
# number of rings (size 3 to 8) (size 9 to 14) (size 15 to 20)
#    0.000    1.714    2.143    2.571    0.000    4.000 
#    7.714    0.000    0.000    0.000    0.000    0.000 
#    0.000    0.000    0.000    0.000    0.000    0.000 
#
# Total GULP energy -156256.404347 kJ/mol
# GULP energy per Si atom -5580.585870 kJ/mol
# Density = 2.076637 g / cm^3
# Si number density = 20.813748 Si / 1000 Ang^3
#
#
#
# Elastic Constant Matrix: (Units=GPa)
#
#
# Indices 1 2 3 4 5 6 
#
# 1 57.5665 18.7149 5.8379 0.0000 0.0000 0.0000
# 2 18.7149 81.6165 1.5107 0.0000 0.0000 0.0000
# 3 5.8379 1.5107 58.3301 0.0000 0.0000 0.0000
# 4 0.0000 0.0000 0.0000 19.9641 0.0000 0.0000
# 5 0.0000 0.0000 0.0000 0.0000 38.1823 0.0000
# 6 0.0000 0.0000 0.0000 0.0000 0.0000 18.5958
#
#
#
# Elastic Compliance Matrix: (Units=1/GPa)
#
#
# Indices 1 2 3 4 5 6 
#
# 1 0.018955 -0.004313 -0.001785 0.000000 0.000000 0.000000
# 2 -0.004313 0.013240 0.000089 0.000000 0.000000 0.000000
# 3 -0.001785 0.000089 0.017320 0.000000 0.000000 0.000000
# 4 0.000000 0.000000 0.000000 0.050090 0.000000 0.000000
# 5 0.000000 0.000000 0.000000 0.000000 0.026190 0.000000
# 6 0.000000 0.000000 0.000000 0.000000 0.000000 0.053776
#
#
# Mechanical properties :
#
#
# Convention : Reuss Voigt Hill
#
# Bulk Modulus (GPa) = 26.67028 27.73777 27.20402
# Shear Modulus (GPa) = 24.49922 26.77841 25.63882
#
# Velocity S-wave (km/s) = 3.43457 3.59077 3.51354
# Velocity P-wave (km/s) = 5.34508 5.52695 5.43678
#
# Compressibility (1/GPa) = 0.03749492
#
# Stress axis : x y z
#
# Youngs Moduli (GPa) = 52.75786 75.52968 57.73606
#
# Poissons Ratio (x) = 0.32578 0.10308
# Poissons Ratio (y) = 0.22756 -0.00513
# Poissons Ratio (z) = 0.09419 -0.00671
#
# Static dielectric constant tensor:
#      x y z
#    x 1.786440 0.000000 0.000000 
#    y 0.000000 1.735140 0.000000 
#    z 0.000000 0.000000 1.759740 
# 
# From -- ./inp_files/26200.got.cif
#   From: 2010.05.17/outbox.cif.g08.bks.cpg/sg20_14_cif.got.tgz:26200.got - 2010.06.03 22:52:26.
