data_PCOD9317684
_publ_section_title
;
Structure prediction by ZEFSAII (Michael W. Deem and Ramdas Pophale) SiO2 
 PCOD9317684
Probable space group: C 2 2 21
;
_chemical_formula_sum "Si O2"
_cell_formula_units_Z 52
_cell_length_a 5.294947
_cell_length_b 22.197148
_cell_length_c 23.200779
_cell_angle_alpha 90.000000
_cell_angle_beta 90.000000
_cell_angle_gamma 90.000000
_cell_volume 2726.850713
_symmetry_space_group_name_H-M "C 2 2 21"
_symmetry_group_IT_number 20
_symmetry_cell_setting 'orthorhombic'
loop_
_space_group_symop_operation_xyz
x,y,z
-x,-y,1/2+z
x,-y,-z
-x,y,1/2-z
1/2+x,1/2+y,z
1/2-x,1/2-y,1/2+z
1/2+x,1/2-y,-z
1/2-x,1/2+y,1/2-z
loop_
_atom_site_type_symbol
_atom_site_label
_atom_site_fract_x
_atom_site_fract_y
_atom_site_fract_z
Si Si1 0.953166 0.575230 0.906602
Si Si2 0.391644 0.594679 0.693589
Si Si3 0.777447 0.687844 0.636506
Si Si4 0.637594 0.768740 0.532664
Si Si5 0.683480 0.475212 0.564760
Si Si6 0.000000 0.312164 0.250000
Si Si7 0.816281 0.589778 0.038531
O O1 0.763748 0.559344 0.854825
O O2 0.021678 0.645770 0.897629
O O3 0.200556 0.532731 0.901738
O O4 0.834247 0.569414 0.970600
O O5 0.500000 0.560634 0.750000
O O6 0.590163 0.636943 0.660798
O O7 0.205661 0.643077 0.723105
O O8 0.651417 0.733739 0.593095
O O9 0.889799 0.719881 0.693554
O O10 0.358408 0.760684 0.506513
O O11 0.708833 0.838597 0.538751
O O12 0.670129 0.500000 0.500000
O O13 0.414823 0.442627 0.571470
O O14 0.914760 0.428079 0.565563
#
# Coordination Sequence:
#
# PCOD9317684 Si02
#       7
#     8   8   8   8   8   4   8
#     4  10  20  34  55  82 115 151 195 242 294 348
#     4   9  18  33  57  84 120 140 194 243 312 351
#     4  10  20  34  59  85 116 155 190 251 303 354
#     4  12  24  37  56  85 124 159 193 239 296 357
#     4  10  22  35  54  77 113 155 193 232 271 344
#     4   8  18  36  50  90 110 148 196 252 294 360
#     4  11  22  37  51  82 119 157 197 226 281 352
#
# _framework density 19.069618999999999
#
# number of rings (size 3 to 8) (size 9 to 14) (size 15 to 20)
#    0.000    1.846    1.538    3.231   10.769    0.000 
#    0.000    0.000    0.000    0.000    2.000    0.000 
#    0.000    0.000    0.000    0.000    0.000    0.000 
#
# Total GULP energy -144889.370211 kJ/mol
# GULP energy per Si atom -5572.668085 kJ/mol
# Density = 1.902622 g / cm^3
# Si number density = 19.069619 Si / 1000 Ang^3
#
#
#
# Elastic Constant Matrix: (Units=GPa)
#
#
# Indices 1 2 3 4 5 6 
#
# 1 83.6234 8.8626 21.2113 0.0000 0.0000 0.0000
# 2 8.8626 73.1433 16.3237 0.0000 0.0000 0.0000
# 3 21.2113 16.3237 85.9477 0.0000 0.0000 0.0000
# 4 0.0000 0.0000 0.0000 16.2470 0.0000 0.0000
# 5 0.0000 0.0000 0.0000 0.0000 32.5752 0.0000
# 6 0.0000 0.0000 0.0000 0.0000 0.0000 2.7659
#
#
#
# Elastic Compliance Matrix: (Units=1/GPa)
#
#
# Indices 1 2 3 4 5 6 
#
# 1 0.012811 -0.000884 -0.002994 0.000000 0.000000 0.000000
# 2 -0.000884 0.014338 -0.002505 0.000000 0.000000 0.000000
# 3 -0.002994 -0.002505 0.012850 0.000000 0.000000 0.000000
# 4 0.000000 0.000000 0.000000 0.061550 0.000000 0.000000
# 5 0.000000 0.000000 0.000000 0.000000 0.030698 0.000000
# 6 0.000000 0.000000 0.000000 0.000000 0.000000 0.361549
#
#
# Mechanical properties :
#
#
# Convention : Reuss Voigt Hill
#
# Bulk Modulus (GPa) = 36.72005 37.27885 36.99945
# Shear Modulus (GPa) = 9.69669 23.40542 16.55105
#
# Velocity S-wave (km/s) = 2.25742 3.50718 2.94926
# Velocity P-wave (km/s) = 5.10805 5.99931 5.57153
#
# Compressibility (1/GPa) = 0.02723308
#
# Stress axis : x y z
#
# Youngs Moduli (GPa) = 78.05501 69.74487 77.82346
#
# Poissons Ratio (x) = 0.06167 0.23299
# Poissons Ratio (y) = 0.06902 0.19494
# Poissons Ratio (z) = 0.23369 0.17471
#
# Static dielectric constant tensor:
#      x y z
#    x 1.781600 0.000000 0.000000 
#    y 0.000000 1.662330 0.000000 
#    z 0.000000 0.000000 1.786790 
# 
# From -- ./inp_files/26116.got.cif
#   From: 2010.05.17/outbox.cif.g08.bks.cpg/sg20_14_cif.got.tgz:26116.got - 2010.06.03 22:52:26.
