data_PCOD9317415
_publ_section_title
;
Structure prediction by ZEFSAII (Michael W. Deem and Ramdas Pophale) SiO2 
 PCOD9317415
Probable space group: C 2 2 21
;
_chemical_formula_sum "Si O2"
_cell_formula_units_Z 48
_cell_length_a 5.268568
_cell_length_b 27.400559
_cell_length_c 16.873242
_cell_angle_alpha 90.000000
_cell_angle_beta 90.000000
_cell_angle_gamma 90.000000
_cell_volume 2435.850040
_symmetry_space_group_name_H-M "C 2 2 21"
_symmetry_group_IT_number 20
_symmetry_cell_setting 'orthorhombic'
loop_
_space_group_symop_operation_xyz
x,y,z
-x,-y,1/2+z
x,-y,-z
-x,y,1/2-z
1/2+x,1/2+y,z
1/2-x,1/2-y,1/2+z
1/2+x,1/2-y,-z
1/2-x,1/2+y,1/2-z
loop_
_atom_site_type_symbol
_atom_site_label
_atom_site_fract_x
_atom_site_fract_y
_atom_site_fract_z
Si Si1 0.819503 0.639035 0.029901
Si Si2 0.649901 0.766129 0.453822
Si Si3 0.632668 0.805811 0.831146
Si Si4 0.447076 0.396570 0.853090
Si Si5 0.745231 0.518376 0.202064
Si Si6 0.554724 0.037482 0.062459
O O1 0.543632 0.625639 0.063351
O O2 0.947224 0.670120 0.102240
O O3 0.952410 0.586805 0.021476
O O4 0.831196 0.675248 0.956058
O O5 0.371866 0.750840 0.484750
O O6 0.719533 0.738278 0.373414
O O7 0.500000 0.790825 0.750000
O O8 0.815408 0.851083 0.812977
O O9 0.678943 0.423583 0.808897
O O10 0.255942 0.440478 0.874976
O O11 0.500000 0.497982 0.250000
O O12 0.000000 0.507929 0.250000
O O13 0.830268 0.509285 0.110727
O O14 0.667997 0.000000 0.000000
#
# Coordination Sequence:
#
# PCOD9317415 Si02
#       6
#     8   8   8   8   8   8
#     4   9  20  34  55  80 116 157 187 230 289 346
#     4  10  19  38  54  78 113 152 187 220 276 348
#     4  10  21  31  54  87 117 144 185 235 286 342
#     4  10  20  33  56  83 120 151 186 230 296 348
#     4  11  22  37  56  83 118 154 178 232 300 357
#     4  10  22  37  58  89 117 151 202 246 288 343
#
# _framework density 19.705646000000002
#
# number of rings (size 3 to 8) (size 9 to 14) (size 15 to 20)
#    0.000    2.000    3.333    0.000    7.000    2.667 
#    0.000    0.000    0.000    1.000    0.000    0.000 
#    0.000    0.000    0.000    0.000    0.000    0.000 
#
# Total GULP energy -133649.298184 kJ/mol
# GULP energy per Si atom -5568.720758 kJ/mol
# Density = 1.966079 g / cm^3
# Si number density = 19.705646 Si / 1000 Ang^3
#
#
#
# Elastic Constant Matrix: (Units=GPa)
#
#
# Indices 1 2 3 4 5 6 
#
# 1 80.7465 7.5614 9.6358 0.0000 0.0000 0.0000
# 2 7.5614 57.2611 30.9405 0.0000 0.0000 0.0000
# 3 9.6358 30.9405 56.7231 0.0000 0.0000 0.0000
# 4 0.0000 0.0000 0.0000 18.8080 0.0000 0.0000
# 5 0.0000 0.0000 0.0000 0.0000 26.6911 0.0000
# 6 0.0000 0.0000 0.0000 0.0000 0.0000 8.1907
#
#
#
# Elastic Compliance Matrix: (Units=1/GPa)
#
#
# Indices 1 2 3 4 5 6 
#
# 1 0.012662 -0.000723 -0.001757 0.000000 0.000000 0.000000
# 2 -0.000723 0.024804 -0.013407 0.000000 0.000000 0.000000
# 3 -0.001757 -0.013407 0.025241 0.000000 0.000000 0.000000
# 4 0.000000 0.000000 0.000000 0.053169 0.000000 0.000000
# 5 0.000000 0.000000 0.000000 0.000000 0.037466 0.000000
# 6 0.000000 0.000000 0.000000 0.000000 0.000000 0.122089
#
#
# Mechanical properties :
#
#
# Convention : Reuss Voigt Hill
#
# Bulk Modulus (GPa) = 32.32710 32.33400 32.33055
# Shear Modulus (GPa) = 15.74736 20.51084 18.12910
#
# Velocity S-wave (km/s) = 2.82995 3.22974 3.03643
# Velocity P-wave (km/s) = 5.20757 5.50930 5.36056
#
# Compressibility (1/GPa) = 0.03093380
#
# Stress axis : x y z
#
# Youngs Moduli (GPa) = 78.97799 40.31688 39.61835
#
# Poissons Ratio (x) = 0.02914 0.06960
# Poissons Ratio (y) = 0.05709 0.53115
# Poissons Ratio (z) = 0.13874 0.54052
#
# Static dielectric constant tensor:
#      x y z
#    x 1.832460 0.000000 0.000000 
#    y 0.000000 1.681190 0.000000 
#    z 0.000000 0.000000 1.831180 
# 
# From -- ./inp_files/22824.got.cif
#   From: 2010.05.17/outbox.cif.g08.bks.cpg/sg20_12_cif.got.tgz:22824.got - 2010.06.03 22:52:26.
