data_PCOD9317718
_publ_section_title
;
Structure prediction by ZEFSAII (Michael W. Deem and Ramdas Pophale) SiO2 
 PCOD9317718
Probable space group: C 2 2 21
;
_chemical_formula_sum "Si O2"
_cell_formula_units_Z 36
_cell_length_a 10.175678
_cell_length_b 8.605816
_cell_length_c 18.487752
_cell_angle_alpha 90.000000
_cell_angle_beta 90.000000
_cell_angle_gamma 90.000000
_cell_volume 1618.972675
_symmetry_space_group_name_H-M "C 2 2 21"
_symmetry_group_IT_number 20
_symmetry_cell_setting 'orthorhombic'
loop_
_space_group_symop_operation_xyz
x,y,z
-x,-y,1/2+z
x,-y,-z
-x,y,1/2-z
1/2+x,1/2+y,z
1/2-x,1/2-y,1/2+z
1/2+x,1/2-y,-z
1/2-x,1/2+y,1/2-z
loop_
_atom_site_type_symbol
_atom_site_label
_atom_site_fract_x
_atom_site_fract_y
_atom_site_fract_z
Si Si1 0.378765 0.462981 0.915230
Si Si2 0.296477 0.500000 0.500000
Si Si3 0.365533 0.748320 0.617222
Si Si4 0.350753 0.816394 0.872428
Si Si5 0.103034 0.937232 0.812503
O O1 0.264298 0.347367 0.892060
O O2 0.353141 0.630636 0.879773
O O3 0.516608 0.396747 0.884457
O O4 0.375383 0.500000 0.000000
O O5 0.370033 0.638747 0.544460
O O6 0.206796 0.590462 0.441397
O O7 0.494322 0.852623 0.630233
O O8 0.365789 0.620269 0.680419
O O9 0.244455 0.857530 0.811245
O O10 0.000000 0.904324 0.750000
#
# Coordination Sequence:
#
# PCOD9317718 Si02
#       5
#     8   4   8   8   8
#     4  11  23  39  65  96 132 159 212 273 324 382
#     4  10  20  34  60  92 132 158 194 256 320 376
#     4  10  23  39  64  93 126 165 211 259 318 378
#     4  10  23  36  64  93 124 167 205 258 319 377
#     4  10  25  46  64  89 131 177 216 259 316 382
#
# _framework density 22.236321
#
# number of rings (size 3 to 8) (size 9 to 14) (size 15 to 20)
#    0.000    1.778    2.222    0.000   15.556    7.111 
#    0.000    1.111    0.000    0.000    0.000    0.000 
#    0.000    0.000    0.000    0.000    0.000    0.000 
#
# Total GULP energy -100401.466588 kJ/mol
# GULP energy per Si atom -5577.859255 kJ/mol
# Density = 2.218571 g / cm^3
# Si number density = 22.236321 Si / 1000 Ang^3
#
#
#
# Elastic Constant Matrix: (Units=GPa)
#
#
# Indices 1 2 3 4 5 6 
#
# 1 163.5981 38.8489 0.5217 0.0000 0.0000 0.0000
# 2 38.8489 43.7827 -4.4315 0.0000 0.0000 0.0000
# 3 0.5217 -4.4315 31.6474 0.0000 0.0000 0.0000
# 4 0.0000 0.0000 0.0000 17.7557 0.0000 0.0000
# 5 0.0000 0.0000 0.0000 0.0000 23.4482 0.0000
# 6 0.0000 0.0000 0.0000 0.0000 0.0000 52.0305
#
#
#
# Elastic Compliance Matrix: (Units=1/GPa)
#
#
# Indices 1 2 3 4 5 6 
#
# 1 0.007783 -0.007018 -0.001111 0.000000 0.000000 0.000000
# 2 -0.007018 0.029497 0.004246 0.000000 0.000000 0.000000
# 3 -0.001111 0.004246 0.032211 0.000000 0.000000 0.000000
# 4 0.000000 0.000000 0.000000 0.056320 0.000000 0.000000
# 5 0.000000 0.000000 0.000000 0.000000 0.042647 0.000000
# 6 0.000000 0.000000 0.000000 0.000000 0.000000 0.019219
#
#
# Mechanical properties :
#
#
# Convention : Reuss Voigt Hill
#
# Bulk Modulus (GPa) = 16.20095 34.32293 25.26194
# Shear Modulus (GPa) = 23.14617 32.25282 27.69950
#
# Velocity S-wave (km/s) = 3.22983 3.81262 3.53326
# Velocity P-wave (km/s) = 4.60550 5.90343 5.29439
#
# Compressibility (1/GPa) = 0.06172477
#
# Stress axis : x y z
#
# Youngs Moduli (GPa) = 128.49125 33.90168 31.04522
#
# Poissons Ratio (x) = 0.23792 0.03449
# Poissons Ratio (y) = 0.90176 -0.13182
# Poissons Ratio (z) = 0.14276 -0.14395
#
# Static dielectric constant tensor:
#      x y z
#    x 1.882770 0.000000 0.000000 
#    y 0.000000 1.785110 0.000000 
#    z 0.000000 0.000000 1.962900 
# 
# From -- ./inp_files/26393.got.cif
#   From: 2010.05.17/outbox.cif.g08.bks.cpg/sg20_14_cif.got.tgz:26393.got - 2010.06.03 22:52:26.
