data_PCOD9317449
_publ_section_title
;
Structure prediction by ZEFSAII (Michael W. Deem and Ramdas Pophale) SiO2 
 PCOD9317449
Probable space group: C 2 2 21
;
_chemical_formula_sum "Si O2"
_cell_formula_units_Z 60
_cell_length_a 9.082258
_cell_length_b 21.649451
_cell_length_c 14.037381
_cell_angle_alpha 90.000000
_cell_angle_beta 90.000000
_cell_angle_gamma 90.000000
_cell_volume 2760.112666
_symmetry_space_group_name_H-M "C 2 2 21"
_symmetry_group_IT_number 20
_symmetry_cell_setting 'orthorhombic'
loop_
_space_group_symop_operation_xyz
x,y,z
-x,-y,1/2+z
x,-y,-z
-x,y,1/2-z
1/2+x,1/2+y,z
1/2-x,1/2-y,1/2+z
1/2+x,1/2-y,-z
1/2-x,1/2+y,1/2-z
loop_
_atom_site_type_symbol
_atom_site_label
_atom_site_fract_x
_atom_site_fract_y
_atom_site_fract_z
Si Si1 0.270873 0.620223 0.573641
Si Si2 0.960091 0.031428 0.908551
Si Si3 0.831196 0.134662 0.783599
Si Si4 0.744612 0.228067 0.307072
Si Si5 0.028207 0.656002 0.440178
Si Si6 0.031761 0.786943 0.966521
Si Si7 0.000000 0.066233 0.250000
Si Si8 0.717849 0.651966 0.366025
O O1 0.398539 0.570265 0.557995
O O2 0.240811 0.622283 0.686589
O O3 0.130817 0.613197 0.505632
O O4 0.351980 0.683036 0.538929
O O5 0.847109 0.076203 0.852964
O O6 0.026257 0.980113 0.837547
O O7 0.889138 0.000000 0.000000
O O8 0.785899 0.200121 0.826517
O O9 0.000000 0.143572 0.750000
O O10 0.621203 0.183265 0.351599
O O11 0.892929 0.212116 0.363045
O O12 0.753444 0.213813 0.195845
O O13 0.999391 0.717678 0.502454
O O14 0.873952 0.629152 0.404673
O O15 0.888192 0.829159 0.952941
O O16 0.133552 0.107352 0.291599
#
# Coordination Sequence:
#
# PCOD9317449 Si02
#       8
#     8   8   8   8   8   8   4   8
#     4  10  21  40  63  96 131 178 232 280 349 415
#     4  11  23  41  70 100 129 184 245 306 341 415
#     4  10  19  38  64 100 135 177 228 291 354 418
#     4  11  21  37  61  97 140 183 223 282 359 427
#     4  11  23  35  61  97 138 183 224 281 364 430
#     4  11  21  37  61 100 139 180 221 284 347 434
#     4  12  24  44  68 106 136 186 250 294 340 420
#     4  12  23  40  61 104 145 182 231 293 351 421
#
# _framework density 21.738243000000001
#
# number of rings (size 3 to 8) (size 9 to 14) (size 15 to 20)
#    0.000    1.067    3.333    6.800    1.867    1.067 
#    0.000    0.000    0.000    4.000   10.400    0.000 
#    0.000    0.000    0.000    0.000    0.000    0.000 
#
# Total GULP energy -167685.976513 kJ/mol
# GULP energy per Si atom -5589.532550 kJ/mol
# Density = 2.168877 g / cm^3
# Si number density = 21.738243 Si / 1000 Ang^3
#
#
#
# Elastic Constant Matrix: (Units=GPa)
#
#
# Indices 1 2 3 4 5 6 
#
# 1 96.7427 24.5121 45.4505 0.0000 0.0000 0.0000
# 2 24.5121 77.0125 40.3345 0.0000 0.0000 0.0000
# 3 45.4505 40.3345 122.1715 0.0000 0.0000 0.0000
# 4 0.0000 0.0000 0.0000 41.4924 0.0000 0.0000
# 5 0.0000 0.0000 0.0000 0.0000 34.7681 0.0000
# 6 0.0000 0.0000 0.0000 0.0000 0.0000 6.7704
#
#
#
# Elastic Compliance Matrix: (Units=1/GPa)
#
#
# Indices 1 2 3 4 5 6 
#
# 1 0.012753 -0.001903 -0.004116 0.000000 0.000000 0.000000
# 2 -0.001903 0.015984 -0.004569 0.000000 0.000000 0.000000
# 3 -0.004116 -0.004569 0.011225 0.000000 0.000000 0.000000
# 4 0.000000 0.000000 0.000000 0.024101 0.000000 0.000000
# 5 0.000000 0.000000 0.000000 0.000000 0.028762 0.000000
# 6 0.000000 0.000000 0.000000 0.000000 0.000000 0.147701
#
#
# Mechanical properties :
#
#
# Convention : Reuss Voigt Hill
#
# Bulk Modulus (GPa) = 53.23426 57.39120 55.31273
# Shear Modulus (GPa) = 18.65933 28.98150 23.82041
#
# Velocity S-wave (km/s) = 2.93296 3.65527 3.31385
# Velocity P-wave (km/s) = 6.00097 6.65379 6.33580
#
# Compressibility (1/GPa) = 0.01878490
#
# Stress axis : x y z
#
# Youngs Moduli (GPa) = 78.41521 62.56408 89.08843
#
# Poissons Ratio (x) = 0.11908 0.36668
# Poissons Ratio (y) = 0.14925 0.40703
# Poissons Ratio (z) = 0.32275 0.28585
#
# Static dielectric constant tensor:
#      x y z
#    x 1.796840 0.000000 0.000000 
#    y 0.000000 1.820700 0.000000 
#    z 0.000000 0.000000 1.840790 
# 
# From -- ./inp_files/19332.got.cif
#   From: 2010.05.17/outbox.cif.g08.bks.cpg/sg20_10_cif.got.tgz:19332.got - 2010.06.03 22:52:26.
