data_PCOD9317229
_publ_section_title
;
Structure prediction by ZEFSAII (Michael W. Deem and Ramdas Pophale) SiO2 
 PCOD9317229
Probable space group: C 2 2 21
;
_chemical_formula_sum "Si O2"
_cell_formula_units_Z 24
_cell_length_a 7.860750
_cell_length_b 14.288663
_cell_length_c 8.285869
_cell_angle_alpha 90.000000
_cell_angle_beta 90.000000
_cell_angle_gamma 90.000000
_cell_volume 930.665555
_symmetry_space_group_name_H-M "C 2 2 21"
_symmetry_group_IT_number 20
_symmetry_cell_setting 'orthorhombic'
loop_
_space_group_symop_operation_xyz
x,y,z
-x,-y,1/2+z
x,-y,-z
-x,y,1/2-z
1/2+x,1/2+y,z
1/2-x,1/2-y,1/2+z
1/2+x,1/2-y,-z
1/2-x,1/2+y,1/2-z
loop_
_atom_site_type_symbol
_atom_site_label
_atom_site_fract_x
_atom_site_fract_y
_atom_site_fract_z
Si Si1 0.112598 0.894410 0.449049
Si Si2 0.658276 0.930127 0.356051
Si Si3 0.445123 0.790449 0.564458
O O1 0.193584 0.906250 0.270021
O O2 0.269561 0.845305 0.542916
O O3 0.962177 0.819701 0.476550
O O4 0.078043 0.000000 0.500000
O O5 0.500000 0.971605 0.250000
O O6 0.574600 0.840838 0.442305
O O7 0.702573 0.000000 0.500000
O O8 0.500000 0.797576 0.750000
#
# Coordination Sequence:
#
# PCOD9317229 Si02
#       3
#     8   8   8
#     4  11  24  43  68  98 132 172 218 270 327 388
#     4  10  19  35  63  94 127 171 216 264 323 386
#     4  11  22  42  67  96 133 171 218 270 324 388
#
# _framework density 25.787997000000001
#
# number of rings (size 3 to 8) (size 9 to 14) (size 15 to 20)
#    0.000    1.333    0.000    9.000    0.000    0.000 
#    0.000   20.000    0.000    0.000    0.000    0.000 
#    0.000    0.000    0.000    0.000    0.000    0.000 
#
# Total GULP energy -67235.910696 kJ/mol
# GULP energy per Si atom -5602.992558 kJ/mol
# Density = 2.572930 g / cm^3
# Si number density = 25.787997 Si / 1000 Ang^3
#
#
#
# Elastic Constant Matrix: (Units=GPa)
#
#
# Indices 1 2 3 4 5 6 
#
# 1 118.3614 48.2023 11.7951 0.0000 0.0000 0.0000
# 2 48.2023 229.4620 45.5825 0.0000 0.0000 0.0000
# 3 11.7951 45.5825 114.7897 0.0000 0.0000 0.0000
# 4 0.0000 0.0000 0.0000 53.3691 0.0000 0.0000
# 5 0.0000 0.0000 0.0000 0.0000 34.3955 0.0000
# 6 0.0000 0.0000 0.0000 0.0000 0.0000 -6.0999
#
#
#
# Elastic Compliance Matrix: (Units=1/GPa)
#
#
# Indices 1 2 3 4 5 6 
#
# 1 0.009243 -0.001903 -0.000194 0.000000 0.000000 0.000000
# 2 -0.001903 0.005123 -0.001839 0.000000 0.000000 0.000000
# 3 -0.000194 -0.001839 0.009462 0.000000 0.000000 0.000000
# 4 0.000000 0.000000 0.000000 0.018737 0.000000 0.000000
# 5 0.000000 0.000000 0.000000 0.000000 0.029074 0.000000
# 6 0.000000 0.000000 0.000000 0.000000 0.000000 -0.163937
#
#
# Mechanical properties :
#
#
# Convention : Reuss Voigt Hill
#
# Bulk Modulus (GPa) = 62.67259 74.86366 68.76813
# Shear Modulus (GPa) = -63.20514 40.13517 -11.53499
#
# Velocity S-wave (km/s) = -4.95608 3.94934 -2.11724
# Velocity P-wave (km/s) = 2.89733 7.06327 4.55496
#
# Compressibility (1/GPa) = 0.01595594
#
# Stress axis : x y z
#
# Youngs Moduli (GPa) = 108.18912 195.19517 105.68926
#
# Poissons Ratio (x) = 0.37148 0.02051
# Poissons Ratio (y) = 0.20590 0.19434
# Poissons Ratio (z) = 0.02099 0.35892
#
# Static dielectric constant tensor:
#      x y z
#    x 2.122460 0.000000 0.000000 
#    y 0.000000 2.024740 0.000000 
#    z 0.000000 0.000000 1.993080 
# 
# From -- ./inp_files/5522.got.cif
#   From: 2010.05.17/outbox.cif.g08.bks.cpg/sg20_3_cif.got.tgz:5522.got - 2010.06.03 22:52:26.
