data_PCOD9317593
_publ_section_title
;
Structure prediction by ZEFSAII (Michael W. Deem and Ramdas Pophale) SiO2 
 PCOD9317593
Probable space group: C 2 2 21
;
_chemical_formula_sum "Si O2"
_cell_formula_units_Z 56
_cell_length_a 7.005743
_cell_length_b 27.035838
_cell_length_c 11.435206
_cell_angle_alpha 90.000000
_cell_angle_beta 90.000000
_cell_angle_gamma 90.000000
_cell_volume 2165.898146
_symmetry_space_group_name_H-M "C 2 2 21"
_symmetry_group_IT_number 20
_symmetry_cell_setting 'orthorhombic'
loop_
_space_group_symop_operation_xyz
x,y,z
-x,-y,1/2+z
x,-y,-z
-x,y,1/2-z
1/2+x,1/2+y,z
1/2-x,1/2-y,1/2+z
1/2+x,1/2-y,-z
1/2-x,1/2+y,1/2-z
loop_
_atom_site_type_symbol
_atom_site_label
_atom_site_fract_x
_atom_site_fract_y
_atom_site_fract_z
Si Si1 0.710939 0.945656 0.532819
Si Si2 0.288086 0.742197 0.963656
Si Si3 0.222647 0.146968 0.651854
Si Si4 0.671887 0.844791 0.414075
Si Si5 0.750899 0.556599 0.505771
Si Si6 0.228177 0.284305 0.766110
Si Si7 0.269692 0.103868 0.263517
O O1 0.760139 0.894315 0.469185
O O2 0.482309 0.946395 0.506232
O O3 0.773290 0.936025 0.665311
O O4 0.778454 0.000000 0.500000
O O5 0.384074 0.690287 0.921644
O O6 0.176755 0.752579 0.839657
O O7 0.338118 0.799320 0.994468
O O8 0.242384 0.728117 0.097298
O O9 0.222488 0.159484 0.788967
O O10 0.446514 0.149280 0.613935
O O11 0.180904 0.090286 0.614227
O O12 0.686961 0.500000 0.500000
O O13 0.700775 0.586373 0.388907
O O14 0.291584 0.340184 0.745836
O O15 0.000000 0.278507 0.750000
O O16 0.500000 0.106966 0.250000
#
# Coordination Sequence:
#
# PCOD9317593 Si02
#       7
#     8   8   8   8   8   8   8
#     4   9  17  27  42  64  93 131 165 197 244 303
#     4  12  20  34  52  72  98 144 176 218 262 302
#     4  10  20  32  46  69 100 132 168 207 250 307
#     4  10  20  32  46  69 100 132 168 207 250 307
#     4   9  17  27  42  64  93 131 165 197 244 303
#     4  11  22  36  52  75 107 141 181 221 258 313
#     4   9  16  28  43  61  91 131 166 197 237 291
#
# _framework density 25.855324
#
# number of rings (size 3 to 8) (size 9 to 14) (size 15 to 20)
#    0.000    2.000    4.286    0.857    2.000    0.000 
#    0.000    0.000    0.000    0.000    0.000    0.000 
#    0.000    4.571    2.857    0.000    0.000    0.000 
#
# Total GULP energy -156094.269883 kJ/mol
# GULP energy per Si atom -5574.795353 kJ/mol
# Density = 2.579648 g / cm^3
# Si number density = 25.855324 Si / 1000 Ang^3
#
#
#
# Elastic Constant Matrix: (Units=GPa)
#
#
# Indices 1 2 3 4 5 6 
#
# 1 99.8019 -1.1734 3.8391 0.0000 0.0000 0.0000
# 2 -1.1734 223.0865 72.0375 0.0000 0.0000 0.0000
# 3 3.8391 72.0375 161.2652 0.0000 0.0000 0.0000
# 4 0.0000 0.0000 0.0000 37.4759 0.0000 0.0000
# 5 0.0000 0.0000 0.0000 0.0000 12.5905 0.0000
# 6 0.0000 0.0000 0.0000 0.0000 0.0000 -913.8823
#
#
#
# Elastic Compliance Matrix: (Units=1/GPa)
#
#
# Indices 1 2 3 4 5 6 
#
# 1 0.010033 0.000152 -0.000307 0.000000 0.000000 0.000000
# 2 0.000152 0.005240 -0.002345 0.000000 0.000000 0.000000
# 3 -0.000307 -0.002345 0.007256 0.000000 0.000000 0.000000
# 4 0.000000 0.000000 0.000000 0.026684 0.000000 0.000000
# 5 0.000000 0.000000 0.000000 0.000000 0.079425 0.000000
# 6 0.000000 0.000000 0.000000 0.000000 0.000000 -0.001094
#
#
# Mechanical properties :
#
#
# Convention : Reuss Voigt Hill
#
# Bulk Modulus (GPa) = 57.04294 70.39556 63.71925
# Shear Modulus (GPa) = 36.13080 -145.46647 -54.66783
#
# Velocity S-wave (km/s) = 3.74227 -7.50892 -4.60322
# Velocity P-wave (km/s) = 6.38616 6.92045 1.88542
#
# Compressibility (1/GPa) = 0.01753065
#
# Stress axis : x y z
#
# Youngs Moduli (GPa) = 99.66678 190.82359 137.82515
#
# Poissons Ratio (x) = -0.02897 0.04227
# Poissons Ratio (y) = -0.01513 0.32314
# Poissons Ratio (z) = 0.03056 0.44739
#
# Static dielectric constant tensor:
#      x y z
#    x 2.320360 0.000000 0.000000 
#    y 0.000000 1.987690 0.000000 
#    z 0.000000 0.000000 5.658060 
# 
# From -- ./inp_files/14440.got.cif
#   From: 2010.05.17/outbox.cif.g08.bks.cpg/sg20_8_cif.got.tgz:14440.got - 2010.06.03 22:52:26.
