data_PCOD9317889
_publ_section_title
;
Structure prediction by ZEFSAII (Michael W. Deem and Ramdas Pophale) SiO2 
 PCOD9317889
Probable space group: C 2 2 21
;
_chemical_formula_sum "Si O2"
_cell_formula_units_Z 24
_cell_length_a 4.953936
_cell_length_b 25.435164
_cell_length_c 7.095394
_cell_angle_alpha 90.000000
_cell_angle_beta 90.000000
_cell_angle_gamma 90.000000
_cell_volume 894.049264
_symmetry_space_group_name_H-M "C 2 2 21"
_symmetry_group_IT_number 20
_symmetry_cell_setting 'orthorhombic'
loop_
_space_group_symop_operation_xyz
x,y,z
-x,-y,1/2+z
x,-y,-z
-x,y,1/2-z
1/2+x,1/2+y,z
1/2-x,1/2-y,1/2+z
1/2+x,1/2-y,-z
1/2-x,1/2+y,1/2-z
loop_
_atom_site_type_symbol
_atom_site_label
_atom_site_fract_x
_atom_site_fract_y
_atom_site_fract_z
Si Si1 0.121378 0.217725 0.044856
Si Si2 0.529319 0.440521 0.527180
Si Si3 0.465416 0.882114 0.978696
O O1 0.299875 0.169715 0.966779
O O2 0.000000 0.204002 0.250000
O O3 0.853090 0.237350 0.937911
O O4 0.621266 0.500000 0.500000
O O5 0.737759 0.397028 0.453313
O O6 0.227484 0.430002 0.459656
O O7 0.500000 0.878497 0.750000
O O8 0.000000 0.932646 0.750000
#
# Coordination Sequence:
#
# PCOD9317889 Si02
#       3
#     8   8   8
#     4  12  24  42  67  96 128 168 217 267 317 380
#     4  10  20  36  60  88 118 158 206 254 305 368
#     4  10  20  38  62  86 120 166 208 245 307 390
#
# _framework density 26.844161
#
# number of rings (size 3 to 8) (size 9 to 14) (size 15 to 20)
#    0.000    1.333    0.000    9.000    0.000    0.000 
#    0.000    6.667    0.000    6.000    0.000    0.000 
#    0.000    0.000    0.000    0.000    0.000    0.000 
#
# Total GULP energy -67120.763985 kJ/mol
# GULP energy per Si atom -5593.396999 kJ/mol
# Density = 2.678306 g / cm^3
# Si number density = 26.844161 Si / 1000 Ang^3
#
#
#
# Elastic Constant Matrix: (Units=GPa)
#
#
# Indices 1 2 3 4 5 6 
#
# 1 218.0584 74.7540 10.0384 0.0000 0.0000 0.0000
# 2 74.7540 146.7105 -1.5543 0.0000 0.0000 0.0000
# 3 10.0384 -1.5543 87.4396 0.0000 0.0000 0.0000
# 4 0.0000 0.0000 0.0000 21.8868 0.0000 0.0000
# 5 0.0000 0.0000 0.0000 0.0000 10.3626 0.0000
# 6 0.0000 0.0000 0.0000 0.0000 0.0000 38.1315
#
#
#
# Elastic Compliance Matrix: (Units=1/GPa)
#
#
# Indices 1 2 3 4 5 6 
#
# 1 0.005598 -0.002860 -0.000694 0.000000 0.000000 0.000000
# 2 -0.002860 0.008278 0.000475 0.000000 0.000000 0.000000
# 3 -0.000694 0.000475 0.011525 0.000000 0.000000 0.000000
# 4 0.000000 0.000000 0.000000 0.045690 0.000000 0.000000
# 5 0.000000 0.000000 0.000000 0.000000 0.096501 0.000000
# 6 0.000000 0.000000 0.000000 0.000000 0.000000 0.026225
#
#
# Mechanical properties :
#
#
# Convention : Reuss Voigt Hill
#
# Bulk Modulus (GPa) = 51.96061 68.74272 60.35167
# Shear Modulus (GPa) = 24.22620 38.67419 31.45019
#
# Velocity S-wave (km/s) = 3.00738 3.79976 3.42655
# Velocity P-wave (km/s) = 5.60870 6.70184 6.17949
#
# Compressibility (1/GPa) = 0.01924535
#
# Stress axis : x y z
#
# Youngs Moduli (GPa) = 178.62694 120.79665 86.77140
#
# Poissons Ratio (x) = 0.34546 0.06018
# Poissons Ratio (y) = 0.51085 -0.04126
# Poissons Ratio (z) = 0.12388 -0.05744
#
# Static dielectric constant tensor:
#      x y z
#    x 1.993570 0.000000 0.000000 
#    y 0.000000 2.104890 0.000000 
#    z 0.000000 0.000000 2.165200 
# 
# From -- ./inp_files/11802.got.cif
#   From: 2010.05.17/outbox.cif.g08.bks.cpg/sg20_6_cif.got.tgz:11802.got - 2010.06.03 22:52:26.
