data_PCOD9317909
_publ_section_title
;
Structure prediction by ZEFSAII (Michael W. Deem and Ramdas Pophale) SiO2 
 PCOD9317909
Probable space group: C 2 2 21
;
_chemical_formula_sum "Si O2"
_cell_formula_units_Z 64
_cell_length_a 11.070204
_cell_length_b 21.162253
_cell_length_c 11.665250
_cell_angle_alpha 90.000000
_cell_angle_beta 90.000000
_cell_angle_gamma 90.000000
_cell_volume 2732.823458
_symmetry_space_group_name_H-M "C 2 2 21"
_symmetry_group_IT_number 20
_symmetry_cell_setting 'orthorhombic'
loop_
_space_group_symop_operation_xyz
x,y,z
-x,-y,1/2+z
x,-y,-z
-x,y,1/2-z
1/2+x,1/2+y,z
1/2-x,1/2-y,1/2+z
1/2+x,1/2-y,-z
1/2-x,1/2+y,1/2-z
loop_
_atom_site_type_symbol
_atom_site_label
_atom_site_fract_x
_atom_site_fract_y
_atom_site_fract_z
Si Si1 0.380361 0.974576 0.174662
Si Si2 0.690455 0.640013 0.465580
Si Si3 0.664261 0.101118 0.440984
Si Si4 0.170335 0.098542 0.707028
Si Si5 0.922351 0.262474 0.142954
Si Si6 0.170690 0.180442 0.902689
Si Si7 0.035059 0.976352 0.620330
Si Si8 0.550885 0.185050 0.062386
O O1 0.500000 0.985761 0.250000
O O2 0.294817 0.931898 0.251545
O O3 0.317167 0.041753 0.143084
O O4 0.390100 0.934779 0.054882
O O5 0.691232 0.645319 0.602592
O O6 0.615241 0.699456 0.422398
O O7 0.626362 0.576702 0.424961
O O8 0.828101 0.644972 0.423201
O O9 0.779156 0.143311 0.484098
O O10 0.566216 0.149666 0.386958
O O11 0.112636 0.129939 0.818881
O O12 0.098437 0.040246 0.657768
O O13 0.795032 0.297403 0.158929
O O14 0.000000 0.244181 0.250000
O O15 0.007362 0.307692 0.068531
O O16 0.089069 0.242717 0.910034
O O17 0.000000 0.951600 0.750000
O O18 0.963960 0.000000 0.500000
#
# Coordination Sequence:
#
# PCOD9317909 Si02
#       8
#     8   8   8   8   8   8   8   8
#     4  10  20  36  61  91 125 168 206 271 335 388
#     4  10  21  38  62  92 127 161 220 262 322 398
#     4   9  20  38  57  92 129 157 225 266 317 403
#     4  10  21  39  62  88 121 169 213 259 332 398
#     4  10  20  37  60  89 124 165 213 261 324 391
#     4   9  20  38  60  90 120 167 214 258 327 394
#     4  10  23  43  64  95 127 168 220 275 326 398
#     4  10  20  37  63  90 126 171 204 274 326 381
#
# _framework density 23.419004000000001
#
# number of rings (size 3 to 8) (size 9 to 14) (size 15 to 20)
#    0.000    2.250    0.000    1.875    1.750    5.500 
#    9.000    3.750    0.000    0.000    0.000    0.000 
#    0.000    0.000    0.000    0.000    0.000    0.000 
#
# Total GULP energy -178459.752568 kJ/mol
# GULP energy per Si atom -5576.867268 kJ/mol
# Density = 2.336570 g / cm^3
# Si number density = 23.419004 Si / 1000 Ang^3
#
#
#
# Elastic Constant Matrix: (Units=GPa)
#
#
# Indices 1 2 3 4 5 6 
#
# 1 53.5762 33.6083 26.2169 0.0000 0.0000 0.0000
# 2 33.6083 141.0875 27.7102 0.0000 0.0000 0.0000
# 3 26.2169 27.7102 83.6517 0.0000 0.0000 0.0000
# 4 0.0000 0.0000 0.0000 35.2726 0.0000 0.0000
# 5 0.0000 0.0000 0.0000 0.0000 4.5344 0.0000
# 6 0.0000 0.0000 0.0000 0.0000 0.0000 32.9382
#
#
#
# Elastic Compliance Matrix: (Units=1/GPa)
#
#
# Indices 1 2 3 4 5 6 
#
# 1 0.024600 -0.004648 -0.006170 0.000000 0.000000 0.000000
# 2 -0.004648 0.008459 -0.001345 0.000000 0.000000 0.000000
# 3 -0.006170 -0.001345 0.014334 0.000000 0.000000 0.000000
# 4 0.000000 0.000000 0.000000 0.028351 0.000000 0.000000
# 5 0.000000 0.000000 0.000000 0.000000 0.220537 0.000000
# 6 0.000000 0.000000 0.000000 0.000000 0.000000 0.030360
#
#
# Mechanical properties :
#
#
# Convention : Reuss Voigt Hill
#
# Bulk Modulus (GPa) = 43.35424 50.37623 46.86524
# Shear Modulus (GPa) = 13.94092 27.26771 20.60431
#
# Velocity S-wave (km/s) = 2.44249 3.41595 2.96938
# Velocity P-wave (km/s) = 5.14849 6.09227 5.64016
#
# Compressibility (1/GPa) = 0.02306579
#
# Stress axis : x y z
#
# Youngs Moduli (GPa) = 40.65036 118.21343 69.76537
#
# Poissons Ratio (x) = 0.54947 0.43046
# Poissons Ratio (y) = 0.18895 0.09387
# Poissons Ratio (z) = 0.25082 0.15905
#
# Static dielectric constant tensor:
#      x y z
#    x 2.255400 0.000000 0.000000 
#    y 0.000000 1.955470 0.000000 
#    z 0.000000 0.000000 1.994660 
# 
# From -- ./inp_files/14483.got.cif
#   From: 2010.05.17/outbox.cif.g08.bks.cpg/sg20_8_cif.got.tgz:14483.got - 2010.06.03 22:52:26.
