data_PCOD9317929
_publ_section_title
;
Structure prediction by ZEFSAII (Michael W. Deem and Ramdas Pophale) SiO2 
 PCOD9317929
Probable space group: C 2 2 21
;
_chemical_formula_sum "Si O2"
_cell_formula_units_Z 40
_cell_length_a 7.126662
_cell_length_b 13.444346
_cell_length_c 15.843605
_cell_angle_alpha 90.000000
_cell_angle_beta 90.000000
_cell_angle_gamma 90.000000
_cell_volume 1518.028233
_symmetry_space_group_name_H-M "C 2 2 21"
_symmetry_group_IT_number 20
_symmetry_cell_setting 'orthorhombic'
loop_
_space_group_symop_operation_xyz
x,y,z
-x,-y,1/2+z
x,-y,-z
-x,y,1/2-z
1/2+x,1/2+y,z
1/2-x,1/2-y,1/2+z
1/2+x,1/2-y,-z
1/2-x,1/2+y,1/2-z
loop_
_atom_site_type_symbol
_atom_site_label
_atom_site_fract_x
_atom_site_fract_y
_atom_site_fract_z
Si Si1 0.769294 0.282616 0.398170
Si Si2 0.796318 0.917839 0.264059
Si Si3 0.280563 0.054013 0.088101
Si Si4 0.842075 0.911894 0.949495
Si Si5 0.144367 0.771628 0.671497
O O1 0.753894 0.368939 0.326267
O O2 0.681060 0.170888 0.391298
O O3 0.685237 0.326511 0.482122
O O4 0.992701 0.264617 0.397288
O O5 0.796182 0.813396 0.315864
O O6 0.000000 0.962473 0.250000
O O7 0.682035 0.989620 0.326874
O O8 0.053562 0.056396 0.073547
O O9 0.345620 0.000000 0.000000
O O10 0.763713 0.872412 0.861077
O O11 0.748019 0.000000 0.000000
O O12 0.000000 0.785184 0.750000
#
# Coordination Sequence:
#
# PCOD9317929 Si02
#       5
#     8   8   8   8   8
#     4  10  22  39  62  93 125 165 214 274 332 386
#     4  11  22  39  65  92 124 169 218 260 323 400
#     4  10  21  39  63  90 126 171 220 272 325 394
#     4  10  20  36  63  91 121 164 214 262 320 392
#     4   9  21  41  62  90 130 169 213 274 330 384
#
# _framework density 26.349969999999999
#
# number of rings (size 3 to 8) (size 9 to 14) (size 15 to 20)
#    0.000    2.000    0.000    3.600    0.000   12.800 
#    0.000   10.000    0.000    0.000    0.000    0.000 
#    0.000    0.000    0.000    0.000    0.000    0.000 
#
# Total GULP energy -111388.959641 kJ/mol
# GULP energy per Si atom -5569.447982 kJ/mol
# Density = 2.629000 g / cm^3
# Si number density = 26.349970 Si / 1000 Ang^3
#
#
#
# Elastic Constant Matrix: (Units=GPa)
#
#
# Indices 1 2 3 4 5 6 
#
# 1 69.5491 5.7804 26.3147 0.0000 0.0000 0.0000
# 2 5.7804 135.8182 81.0667 0.0000 0.0000 0.0000
# 3 26.3147 81.0667 168.1895 0.0000 0.0000 0.0000
# 4 0.0000 0.0000 0.0000 68.3223 0.0000 0.0000
# 5 0.0000 0.0000 0.0000 0.0000 11.2510 0.0000
# 6 0.0000 0.0000 0.0000 0.0000 0.0000 39.4854
#
#
#
# Elastic Compliance Matrix: (Units=1/GPa)
#
#
# Indices 1 2 3 4 5 6 
#
# 1 0.015399 0.001099 -0.002939 0.000000 0.000000 0.000000
# 2 0.001099 0.010415 -0.005192 0.000000 0.000000 0.000000
# 3 -0.002939 -0.005192 0.008908 0.000000 0.000000 0.000000
# 4 0.000000 0.000000 0.000000 0.014637 0.000000 0.000000
# 5 0.000000 0.000000 0.000000 0.000000 0.088881 0.000000
# 6 0.000000 0.000000 0.000000 0.000000 0.000000 0.025326
#
#
# Mechanical properties :
#
#
# Convention : Reuss Voigt Hill
#
# Bulk Modulus (GPa) = 48.40770 66.65337 57.53053
# Shear Modulus (GPa) = 27.09809 41.17140 34.13475
#
# Velocity S-wave (km/s) = 3.21033 3.95711 3.60312
# Velocity P-wave (km/s) = 5.67033 6.79917 6.26024
#
# Compressibility (1/GPa) = 0.02065787
#
# Stress axis : x y z
#
# Youngs Moduli (GPa) = 64.93938 96.01608 112.25929
#
# Poissons Ratio (x) = -0.10550 0.32992
# Poissons Ratio (y) = -0.07135 0.58284
# Poissons Ratio (z) = 0.19085 0.49850
#
# Static dielectric constant tensor:
#      x y z
#    x 2.062890 0.000000 0.000000 
#    y 0.000000 2.242680 0.000000 
#    z 0.000000 0.000000 1.980970 
# 
# From -- ./inp_files/23161.got.cif
#   From: 2010.05.17/outbox.cif.g08.bks.cpg/sg20_12_cif.got.tgz:23161.got - 2010.06.03 22:52:26.
