data_PCOD9317342
_publ_section_title
;
Structure prediction by ZEFSAII (Michael W. Deem and Ramdas Pophale) SiO2 
 PCOD9317342
Probable space group: C 2 2 21
;
_chemical_formula_sum "Si O2"
_cell_formula_units_Z 56
_cell_length_a 18.311659
_cell_length_b 9.884888
_cell_length_c 12.440876
_cell_angle_alpha 90.000000
_cell_angle_beta 90.000000
_cell_angle_gamma 90.000000
_cell_volume 2251.906771
_symmetry_space_group_name_H-M "C 2 2 21"
_symmetry_group_IT_number 20
_symmetry_cell_setting 'orthorhombic'
loop_
_space_group_symop_operation_xyz
x,y,z
-x,-y,1/2+z
x,-y,-z
-x,y,1/2-z
1/2+x,1/2+y,z
1/2-x,1/2-y,1/2+z
1/2+x,1/2-y,-z
1/2-x,1/2+y,1/2-z
loop_
_atom_site_type_symbol
_atom_site_label
_atom_site_fract_x
_atom_site_fract_y
_atom_site_fract_z
Si Si1 0.196998 0.498879 0.384484
Si Si2 0.107369 0.132799 0.561988
Si Si3 0.171459 0.187450 0.160826
Si Si4 0.581196 0.445783 0.202841
Si Si5 0.358176 0.993271 0.350232
Si Si6 0.229058 0.797229 0.604954
Si Si7 0.978630 0.689007 0.375576
O O1 0.179450 0.830192 0.502985
O O2 0.251884 0.623957 0.374667
O O3 0.145619 0.498080 0.280669
O O4 0.246712 0.362481 0.386468
O O5 0.049331 0.255840 0.562343
O O6 0.077048 0.000000 0.500000
O O7 0.123453 0.097150 0.687070
O O8 0.110329 0.075684 0.141793
O O9 0.155842 0.337502 0.120070
O O10 0.177739 0.189444 0.290240
O O11 0.500000 0.472901 0.250000
O O12 0.576401 0.316968 0.125383
O O13 0.293485 0.094627 0.385112
O O14 0.433301 0.054166 0.393765
O O15 0.158739 0.500000 0.500000
O O16 0.000000 0.680660 0.250000
#
# Coordination Sequence:
#
# PCOD9317342 Si02
#       7
#     8   8   8   8   8   8   8
#     4  10  23  38  64  99 129 180 232 286 346 432
#     4  10  19  36  69 108 132 181 241 290 353 429
#     4  10  20  40  62  95 136 185 225 289 354 422
#     4   9  19  36  62  96 129 181 236 281 348 425
#     4  10  22  41  63 100 142 183 235 290 372 408
#     4  10  21  38  65 101 136 181 229 296 344 430
#     4   9  21  38  65 102 137 191 227 294 355 434
#
# _framework density 24.867815
#
# number of rings (size 3 to 8) (size 9 to 14) (size 15 to 20)
#    0.000    2.571    1.429    0.857    4.000    2.857 
#    0.000    6.429    0.000    0.000   22.286    0.000 
#    0.000    0.000    0.000    0.000    0.000    0.000 
#
# Total GULP energy -156597.334885 kJ/mol
# GULP energy per Si atom -5592.761960 kJ/mol
# Density = 2.481121 g / cm^3
# Si number density = 24.867815 Si / 1000 Ang^3
#
#
#
# Elastic Constant Matrix: (Units=GPa)
#
#
# Indices 1 2 3 4 5 6 
#
# 1 61.0144 53.2524 25.1018 0.0000 0.0000 0.0000
# 2 53.2524 197.2982 27.7758 0.0000 0.0000 0.0000
# 3 25.1018 27.7758 121.7990 0.0000 0.0000 0.0000
# 4 0.0000 0.0000 0.0000 13.6654 0.0000 0.0000
# 5 0.0000 0.0000 0.0000 0.0000 13.8286 0.0000
# 6 0.0000 0.0000 0.0000 0.0000 0.0000 41.3139
#
#
#
# Elastic Compliance Matrix: (Units=1/GPa)
#
#
# Indices 1 2 3 4 5 6 
#
# 1 0.022721 -0.005655 -0.003393 0.000000 0.000000 0.000000
# 2 -0.005655 0.006644 -0.000350 0.000000 0.000000 0.000000
# 3 -0.003393 -0.000350 0.008989 0.000000 0.000000 0.000000
# 4 0.000000 0.000000 0.000000 0.073178 0.000000 0.000000
# 5 0.000000 0.000000 0.000000 0.000000 0.072314 0.000000
# 6 0.000000 0.000000 0.000000 0.000000 0.000000 0.024205
#
#
# Mechanical properties :
#
#
# Convention : Reuss Voigt Hill
#
# Bulk Modulus (GPa) = 51.12742 65.81906 58.47324
# Shear Modulus (GPa) = 21.42557 32.02702 26.72630
#
# Velocity S-wave (km/s) = 2.93845 3.59261 3.28187
# Velocity P-wave (km/s) = 5.66718 6.61318 6.15837
#
# Compressibility (1/GPa) = 0.01955898
#
# Stress axis : x y z
#
# Youngs Moduli (GPa) = 44.01213 150.51156 111.24367
#
# Poissons Ratio (x) = 0.85113 0.37745
# Poissons Ratio (y) = 0.24888 0.03890
# Poissons Ratio (z) = 0.14933 0.05263
#
# Static dielectric constant tensor:
#      x y z
#    x 1.968170 0.000000 0.000000 
#    y 0.000000 2.026340 0.000000 
#    z 0.000000 0.000000 2.020610 
# 
# From -- ./inp_files/21754.got.cif
#   From: 2010.05.17/outbox.cif.g08.bks.cpg/sg20_11_cif.got.tgz:21754.got - 2010.06.03 22:52:26.
