data_PCOD9317712
_publ_section_title
;
Structure prediction by ZEFSAII (Michael W. Deem and Ramdas Pophale) SiO2 
 PCOD9317712
Probable space group: C 2 2 21
;
_chemical_formula_sum "Si O2"
_cell_formula_units_Z 40
_cell_length_a 7.908517
_cell_length_b 19.459447
_cell_length_c 11.215177
_cell_angle_alpha 90.000000
_cell_angle_beta 90.000000
_cell_angle_gamma 90.000000
_cell_volume 1725.963785
_symmetry_space_group_name_H-M "C 2 2 21"
_symmetry_group_IT_number 20
_symmetry_cell_setting 'orthorhombic'
loop_
_space_group_symop_operation_xyz
x,y,z
-x,-y,1/2+z
x,-y,-z
-x,y,1/2-z
1/2+x,1/2+y,z
1/2-x,1/2-y,1/2+z
1/2+x,1/2-y,-z
1/2-x,1/2+y,1/2-z
loop_
_atom_site_type_symbol
_atom_site_label
_atom_site_fract_x
_atom_site_fract_y
_atom_site_fract_z
Si Si1 0.000000 0.033026 0.750000
Si Si2 0.500000 0.833719 0.750000
Si Si3 0.000000 0.259039 0.250000
Si Si4 0.134936 0.377309 0.505816
Si Si5 0.714138 0.277810 0.570726
Si Si6 0.293683 0.127343 0.642402
Si Si7 0.887071 0.000000 0.500000
O O1 0.834311 0.078501 0.787617
O O2 0.978818 0.991183 0.627025
O O3 0.589178 0.878240 0.646635
O O4 0.366745 0.791784 0.665243
O O5 0.038016 0.213462 0.361213
O O6 0.153298 0.310416 0.228281
O O7 0.197530 0.299423 0.480112
O O8 0.275014 0.432875 0.481006
O O9 0.972395 0.395680 0.419959
O O10 0.711599 0.334113 0.468802
#
# Coordination Sequence:
#
# PCOD9317712 Si02
#       7
#     4   4   4   8   8   8   4
#     4  12  28  49  71 102 137 181 236 296 346 411
#     4  10  22  41  69 100 133 173 234 300 346 413
#     4  10  20  34  58  96 136 170 204 260 344 420
#     4  10  24  44  66  98 136 186 230 281 356 426
#     4  10  21  38  65 100 131 170 221 282 349 407
#     4  10  23  42  69  97 132 171 221 286 349 407
#     4  12  30  48  70  98 140 188 238 286 344 424
#
# _framework density 23.175459
#
# number of rings (size 3 to 8) (size 9 to 14) (size 15 to 20)
#    0.000    1.600    0.000    3.600    0.000   20.800 
#    0.000    1.000    0.000    0.000    0.000    0.000 
#    0.000    0.000    0.000    0.000    0.000    0.000 
#
# Total GULP energy -111517.572254 kJ/mol
# GULP energy per Si atom -5575.878613 kJ/mol
# Density = 2.312271 g / cm^3
# Si number density = 23.175459 Si / 1000 Ang^3
#
#
#
# Elastic Constant Matrix: (Units=GPa)
#
#
# Indices 1 2 3 4 5 6 
#
# 1 60.5810 13.8018 34.9743 0.0000 0.0000 0.0000
# 2 13.8018 25.6769 19.3035 0.0000 0.0000 0.0000
# 3 34.9743 19.3035 180.7232 0.0000 0.0000 0.0000
# 4 0.0000 0.0000 0.0000 19.2681 0.0000 0.0000
# 5 0.0000 0.0000 0.0000 0.0000 5.0238 0.0000
# 6 0.0000 0.0000 0.0000 0.0000 0.0000 30.7910
#
#
#
# Elastic Compliance Matrix: (Units=1/GPa)
#
#
# Indices 1 2 3 4 5 6 
#
# 1 0.020193 -0.008607 -0.002988 0.000000 0.000000 0.000000
# 2 -0.008607 0.046015 -0.003249 0.000000 0.000000 0.000000
# 3 -0.002988 -0.003249 0.006459 0.000000 0.000000 0.000000
# 4 0.000000 0.000000 0.000000 0.051899 0.000000 0.000000
# 5 0.000000 0.000000 0.000000 0.000000 0.199052 0.000000
# 6 0.000000 0.000000 0.000000 0.000000 0.000000 0.032477
#
#
# Mechanical properties :
#
#
# Convention : Reuss Voigt Hill
#
# Bulk Modulus (GPa) = 23.26862 44.79338 34.03100
# Shear Modulus (GPa) = 12.49655 24.27669 18.38662
#
# Velocity S-wave (km/s) = 2.32462 3.24005 2.81973
# Velocity P-wave (km/s) = 4.15537 5.77643 5.03161
#
# Compressibility (1/GPa) = 0.04297634
#
# Stress axis : x y z
#
# Youngs Moduli (GPa) = 49.52184 21.73213 154.82951
#
# Poissons Ratio (x) = 0.18706 0.46270
# Poissons Ratio (y) = 0.42626 0.50307
# Poissons Ratio (z) = 0.14799 0.07061
#
# Static dielectric constant tensor:
#      x y z
#    x 2.040860 0.000000 0.000000 
#    y 0.000000 1.826460 0.000000 
#    z 0.000000 0.000000 1.895640 
# 
# From -- ./inp_files/12786.got.cif
#   From: 2010.05.17/outbox.cif.g08.bks.cpg/sg20_7_cif.got.tgz:12786.got - 2010.06.03 22:52:26.
