data_PCOD9317027
_publ_section_title
;
Structure prediction by ZEFSAII (Michael W. Deem and Ramdas Pophale) SiO2 
 PCOD9317027
Probable space group: C 2 2 21
;
_chemical_formula_sum "Si O2"
_cell_formula_units_Z 44
_cell_length_a 5.698567
_cell_length_b 13.789342
_cell_length_c 19.713470
_cell_angle_alpha 90.000000
_cell_angle_beta 90.000000
_cell_angle_gamma 90.000000
_cell_volume 1549.074404
_symmetry_space_group_name_H-M "C 2 2 21"
_symmetry_group_IT_number 20
_symmetry_cell_setting 'orthorhombic'
loop_
_space_group_symop_operation_xyz
x,y,z
-x,-y,1/2+z
x,-y,-z
-x,y,1/2-z
1/2+x,1/2+y,z
1/2-x,1/2-y,1/2+z
1/2+x,1/2-y,-z
1/2-x,1/2+y,1/2-z
loop_
_atom_site_type_symbol
_atom_site_label
_atom_site_fract_x
_atom_site_fract_y
_atom_site_fract_z
Si Si1 0.305238 0.733676 0.139083
Si Si2 0.255461 0.546283 0.783961
Si Si3 0.788419 0.832320 0.014784
Si Si4 0.538883 0.942023 0.399441
Si Si5 0.652215 0.500000 0.000000
Si Si6 0.696559 0.762586 0.662355
O O1 0.286331 0.712377 0.059098
O O2 0.338005 0.852531 0.140934
O O3 0.546124 0.691169 0.169734
O O4 0.065533 0.699136 0.174017
O O5 0.500000 0.513460 0.750000
O O6 0.284858 0.662263 0.795435
O O7 0.000000 0.524156 0.750000
O O8 0.186981 0.515901 0.861028
O O9 0.556785 0.894043 0.031360
O O10 0.804463 0.766436 0.081883
O O11 0.001006 0.906132 0.015164
O O12 0.720684 0.017823 0.427424
#
# Coordination Sequence:
#
# PCOD9317027 Si02
#       6
#     8   8   8   8   4   8
#     4  10  19  34  57  81 120 158 188 226 289 371
#     4  10  20  35  59  85 121 154 202 260 307 341
#     4  10  21  33  54  81 126 161 188 230 303 363
#     4  10  23  35  56  88 127 153 204 247 310 365
#     4  12  22  36  54  88 134 158 190 264 294 376
#     4  10  19  33  55  84 116 144 201 241 285 354
#
# _framework density 28.404057999999999
#
# number of rings (size 3 to 8) (size 9 to 14) (size 15 to 20)
#    0.000    2.182    1.818    4.909    5.091    0.000 
#    0.000    0.000    0.000    0.000    0.000    5.091 
#   54.545    0.000    0.000    0.000    0.000    0.000 
#
# Total GULP energy -122969.439242 kJ/mol
# GULP energy per Si atom -5589.519966 kJ/mol
# Density = 2.833941 g / cm^3
# Si number density = 28.404058 Si / 1000 Ang^3
#
#
#
# Elastic Constant Matrix: (Units=GPa)
#
#
# Indices 1 2 3 4 5 6 
#
# 1 252.2473 23.4158 68.7042 0.0000 0.0000 0.0000
# 2 23.4158 60.2286 30.5026 0.0000 0.0000 0.0000
# 3 68.7042 30.5026 127.0493 0.0000 0.0000 0.0000
# 4 0.0000 0.0000 0.0000 32.3579 0.0000 0.0000
# 5 0.0000 0.0000 0.0000 0.0000 49.9818 0.0000
# 6 0.0000 0.0000 0.0000 0.0000 0.0000 9.9981
#
#
#
# Elastic Compliance Matrix: (Units=1/GPa)
#
#
# Indices 1 2 3 4 5 6 
#
# 1 0.004669 -0.000611 -0.002378 0.000000 0.000000 0.000000
# 2 -0.000611 0.018982 -0.004227 0.000000 0.000000 0.000000
# 3 -0.002378 -0.004227 0.010172 0.000000 0.000000 0.000000
# 4 0.000000 0.000000 0.000000 0.030904 0.000000 0.000000
# 5 0.000000 0.000000 0.000000 0.000000 0.020007 0.000000
# 6 0.000000 0.000000 0.000000 0.000000 0.000000 0.100019
#
#
# Mechanical properties :
#
#
# Convention : Reuss Voigt Hill
#
# Bulk Modulus (GPa) = 51.57139 76.08560 63.82850
# Shear Modulus (GPa) = 24.31345 39.59440 31.95393
#
# Velocity S-wave (km/s) = 2.92890 3.73764 3.35771
# Velocity P-wave (km/s) = 5.44368 6.74327 6.12802
#
# Compressibility (1/GPa) = 0.01939060
#
# Stress axis : x y z
#
# Youngs Moduli (GPa) = 214.18895 52.68272 98.31133
#
# Poissons Ratio (x) = 0.03218 0.23379
# Poissons Ratio (y) = 0.13082 0.41555
# Poissons Ratio (z) = 0.50936 0.22268
#
# Static dielectric constant tensor:
#      x y z
#    x 2.334860 0.000000 0.000000 
#    y 0.000000 2.215810 0.000000 
#    z 0.000000 0.000000 2.297520 
# 
# From -- ./inp_files/26032.got.cif
#   From: 2010.05.17/outbox.cif.g08.bks.cpg/sg20_14_cif.got.tgz:26032.got - 2010.06.03 22:52:26.
