data_PCOD9317604
_publ_section_title
;
Structure prediction by ZEFSAII (Michael W. Deem and Ramdas Pophale) SiO2 
 PCOD9317604
Probable space group: C 2 2 21
;
_chemical_formula_sum "Si O2"
_cell_formula_units_Z 60
_cell_length_a 5.245055
_cell_length_b 18.080741
_cell_length_c 25.136533
_cell_angle_alpha 90.000000
_cell_angle_beta 90.000000
_cell_angle_gamma 90.000000
_cell_volume 2383.810061
_symmetry_space_group_name_H-M "C 2 2 21"
_symmetry_group_IT_number 20
_symmetry_cell_setting 'orthorhombic'
loop_
_space_group_symop_operation_xyz
x,y,z
-x,-y,1/2+z
x,-y,-z
-x,y,1/2-z
1/2+x,1/2+y,z
1/2-x,1/2-y,1/2+z
1/2+x,1/2-y,-z
1/2-x,1/2+y,1/2-z
loop_
_atom_site_type_symbol
_atom_site_label
_atom_site_fract_x
_atom_site_fract_y
_atom_site_fract_z
Si Si1 0.459478 0.286873 0.322096
Si Si2 0.275144 0.653564 0.140758
Si Si3 0.834469 0.264814 0.415942
Si Si4 0.580000 0.898276 0.372048
Si Si5 0.499034 0.520205 0.399927
Si Si6 0.246222 0.913208 0.280657
Si Si7 0.368633 0.132363 0.045112
Si Si8 0.164319 0.500000 0.000000
O O1 0.360870 0.203512 0.313882
O O2 0.233257 0.346532 0.329261
O O3 0.677290 0.324975 0.286141
O O4 0.589495 0.285295 0.380629
O O5 0.493994 0.708941 0.119440
O O6 0.389753 0.571576 0.148093
O O7 0.066717 0.641462 0.094154
O O8 0.998399 0.339276 0.416870
O O9 0.736113 0.215526 0.465461
O O10 0.186654 0.988138 0.444706
O O11 0.775786 0.962838 0.385968
O O12 0.826609 0.428958 0.342035
O O13 0.369453 0.585091 0.435181
O O14 0.500000 0.933996 0.250000
O O15 0.000000 0.945082 0.250000
O O16 0.503843 0.074335 0.007235
#
# Coordination Sequence:
#
# PCOD9317604 Si02
#       8
#     8   8   8   8   8   8   8   4
#     4   9  17  33  57  88 122 158 206 257 319 384
#     4   8  16  31  53  85 117 154 206 258 304 370
#     4   8  16  30  53  84 115 154 198 258 310 371
#     4  10  20  34  58  95 127 162 217 270 331 409
#     4  10  20  34  56  94 120 163 221 269 329 400
#     4  11  21  36  57  92 135 168 209 266 339 401
#     4   9  17  33  53  83 112 158 211 260 317 379
#     4  10  20  32  54  86 118 166 216 282 322 400
#
# _framework density 25.169789999999999
#
# number of rings (size 3 to 8) (size 9 to 14) (size 15 to 20)
#    0.000    2.667    1.333    0.400    0.000    4.267 
#    0.000    0.000    0.000    0.000  287.733   66.267 
#    0.000    0.000    0.000    0.000    0.000    0.000 
#
# Total GULP energy -167157.279409 kJ/mol
# GULP energy per Si atom -5571.909314 kJ/mol
# Density = 2.511250 g / cm^3
# Si number density = 25.169790 Si / 1000 Ang^3
#
#
#
# Elastic Constant Matrix: (Units=GPa)
#
#
# Indices 1 2 3 4 5 6 
#
# 1 71.4003 10.0524 8.5070 0.0000 0.0000 0.0000
# 2 10.0524 115.3190 30.1275 0.0000 0.0000 0.0000
# 3 8.5070 30.1275 61.7733 0.0000 0.0000 0.0000
# 4 0.0000 0.0000 0.0000 22.6354 0.0000 0.0000
# 5 0.0000 0.0000 0.0000 0.0000 35.0091 0.0000
# 6 0.0000 0.0000 0.0000 0.0000 0.0000 55.9592
#
#
#
# Elastic Compliance Matrix: (Units=1/GPa)
#
#
# Indices 1 2 3 4 5 6 
#
# 1 0.014310 -0.000840 -0.001561 0.000000 0.000000 0.000000
# 2 -0.000840 0.009987 -0.004755 0.000000 0.000000 0.000000
# 3 -0.001561 -0.004755 0.018722 0.000000 0.000000 0.000000
# 4 0.000000 0.000000 0.000000 0.044179 0.000000 0.000000
# 5 0.000000 0.000000 0.000000 0.000000 0.028564 0.000000
# 6 0.000000 0.000000 0.000000 0.000000 0.000000 0.017870
#
#
# Mechanical properties :
#
#
# Convention : Reuss Voigt Hill
#
# Bulk Modulus (GPa) = 34.83422 38.42958 36.63190
# Shear Modulus (GPa) = 31.74343 36.04112 33.89228
#
# Velocity S-wave (km/s) = 3.55515 3.78818 3.67351
# Velocity P-wave (km/s) = 5.54273 5.86813 5.70775
#
# Compressibility (1/GPa) = 0.02870740
#
# Stress axis : x y z
#
# Youngs Moduli (GPa) = 69.88241 100.12924 53.41197
#
# Poissons Ratio (x) = 0.08406 0.08339
# Poissons Ratio (y) = 0.05867 0.25398
# Poissons Ratio (z) = 0.10910 0.47613
#
# Static dielectric constant tensor:
#      x y z
#    x 2.144460 0.000000 0.000000 
#    y 0.000000 2.121240 0.000000 
#    z 0.000000 0.000000 2.382000 
# 
# From -- ./inp_files/29949.got.cif
#   From: 2010.05.17/outbox.cif.g08.bks.cpg/sg20_15_cif.got.tgz:29949.got - 2010.06.03 22:52:26.
