data_PCOD9317391
_publ_section_title
;
Structure prediction by ZEFSAII (Michael W. Deem and Ramdas Pophale) SiO2 
 PCOD9317391
Probable space group: C 2 2 21
;
_chemical_formula_sum "Si O2"
_cell_formula_units_Z 40
_cell_length_a 21.779041
_cell_length_b 12.100902
_cell_length_c 7.314218
_cell_angle_alpha 90.000000
_cell_angle_beta 90.000000
_cell_angle_gamma 90.000000
_cell_volume 1927.633195
_symmetry_space_group_name_H-M "C 2 2 21"
_symmetry_group_IT_number 20
_symmetry_cell_setting 'orthorhombic'
loop_
_space_group_symop_operation_xyz
x,y,z
-x,-y,1/2+z
x,-y,-z
-x,y,1/2-z
1/2+x,1/2+y,z
1/2-x,1/2-y,1/2+z
1/2+x,1/2-y,-z
1/2-x,1/2+y,1/2-z
loop_
_atom_site_type_symbol
_atom_site_label
_atom_site_fract_x
_atom_site_fract_y
_atom_site_fract_z
Si Si1 0.190022 0.617987 0.592802
Si Si2 0.433610 0.607478 0.890997
Si Si3 0.391791 0.626454 0.515014
Si Si4 0.935596 0.719814 0.810241
Si Si5 0.194627 0.185012 0.696207
O O1 0.195885 0.500000 0.500000
O O2 0.121815 0.639459 0.669460
O O3 0.200595 0.710495 0.435377
O O4 0.240501 0.634265 0.750543
O O5 0.443562 0.614153 0.672963
O O6 0.357597 0.607480 0.893904
O O7 0.454340 0.500000 0.000000
O O8 0.447712 0.718938 0.998473
O O9 0.367942 0.500000 0.500000
O O10 0.416446 0.682135 0.332086
O O11 0.339974 0.703478 0.608032
O O12 0.000000 0.668534 0.750000
#
# Coordination Sequence:
#
# PCOD9317391 Si02
#       5
#     8   8   8   8   8
#     4  11  23  43  64  95 130 163 216 263 324 386
#     4   9  19  36  59  99 124 161 204 257 325 386
#     4  10  19  37  63  95 128 164 203 265 332 375
#     4  11  23  40  60  88 133 176 220 262 297 371
#     4   9  21  36  64  92 124 155 198 270 324 384
#
# _framework density 20.750834999999999
#
# number of rings (size 3 to 8) (size 9 to 14) (size 15 to 20)
#    1.200    0.800    2.000    1.800    0.000    4.800 
#    0.000    5.000    0.000    0.000    0.000    0.000 
#    0.000    0.000    0.000    0.000    0.000    0.000 
#
# Total GULP energy -111448.662186 kJ/mol
# GULP energy per Si atom -5572.433109 kJ/mol
# Density = 2.070361 g / cm^3
# Si number density = 20.750835 Si / 1000 Ang^3
#
#
#
# Elastic Constant Matrix: (Units=GPa)
#
#
# Indices 1 2 3 4 5 6 
#
# 1 122.1930 17.8093 17.9850 0.0000 0.0000 0.0000
# 2 17.8093 47.2702 20.6737 0.0000 0.0000 0.0000
# 3 17.9850 20.6737 72.0475 0.0000 0.0000 0.0000
# 4 0.0000 0.0000 0.0000 20.0536 0.0000 0.0000
# 5 0.0000 0.0000 0.0000 0.0000 49.3855 0.0000
# 6 0.0000 0.0000 0.0000 0.0000 0.0000 15.1245
#
#
#
# Elastic Compliance Matrix: (Units=1/GPa)
#
#
# Indices 1 2 3 4 5 6 
#
# 1 0.008785 -0.002688 -0.001422 0.000000 0.000000 0.000000
# 2 -0.002688 0.025013 -0.006506 0.000000 0.000000 0.000000
# 3 -0.001422 -0.006506 0.016102 0.000000 0.000000 0.000000
# 4 0.000000 0.000000 0.000000 0.049866 0.000000 0.000000
# 5 0.000000 0.000000 0.000000 0.000000 0.020249 0.000000
# 6 0.000000 0.000000 0.000000 0.000000 0.000000 0.066118
#
#
# Mechanical properties :
#
#
# Convention : Reuss Voigt Hill
#
# Bulk Modulus (GPa) = 34.88261 39.38298 37.13280
# Shear Modulus (GPa) = 23.04990 29.24891 26.14941
#
# Velocity S-wave (km/s) = 3.33647 3.75844 3.55373
# Velocity P-wave (km/s) = 5.62934 6.15262 5.89679
#
# Compressibility (1/GPa) = 0.02866758
#
# Stress axis : x y z
#
# Youngs Moduli (GPa) = 113.83322 39.97876 62.10565
#
# Poissons Ratio (x) = 0.10746 0.08829
# Poissons Ratio (y) = 0.30598 0.40409
# Poissons Ratio (z) = 0.16183 0.26012
#
# Static dielectric constant tensor:
#      x y z
#    x 1.888560 0.000000 0.000000 
#    y 0.000000 1.666300 0.000000 
#    z 0.000000 0.000000 1.774040 
# 
# From -- ./inp_files/9971.got.cif
#   From: 2010.05.17/outbox.cif.g08.bks.cpg/sg20_5_cif.got.tgz:9971.got - 2010.06.03 22:52:26.
