data_PCOD9317943
_publ_section_title
;
Structure prediction by ZEFSAII (Michael W. Deem and Ramdas Pophale) SiO2 
 PCOD9317943
Probable space group: C 2 2 21
;
_chemical_formula_sum "Si O2"
_cell_formula_units_Z 64
_cell_length_a 27.257320
_cell_length_b 8.779681
_cell_length_c 14.272514
_cell_angle_alpha 90.000000
_cell_angle_beta 90.000000
_cell_angle_gamma 90.000000
_cell_volume 3415.563525
_symmetry_space_group_name_H-M "C 2 2 21"
_symmetry_group_IT_number 20
_symmetry_cell_setting 'orthorhombic'
loop_
_space_group_symop_operation_xyz
x,y,z
-x,-y,1/2+z
x,-y,-z
-x,y,1/2-z
1/2+x,1/2+y,z
1/2-x,1/2-y,1/2+z
1/2+x,1/2-y,-z
1/2-x,1/2+y,1/2-z
loop_
_atom_site_type_symbol
_atom_site_label
_atom_site_fract_x
_atom_site_fract_y
_atom_site_fract_z
Si Si1 0.345270 0.810256 0.690250
Si Si2 0.806277 0.770639 0.830863
Si Si3 0.708729 0.126302 0.869016
Si Si4 0.555059 0.840870 0.716625
Si Si5 0.286152 0.331261 0.459676
Si Si6 0.320926 0.615012 0.867547
Si Si7 0.577858 0.343809 0.458942
Si Si8 0.396416 0.907695 0.087848
O O1 0.403698 0.824290 0.702919
O O2 0.327424 0.678660 0.620429
O O3 0.327106 0.751325 0.792303
O O4 0.319547 0.968119 0.655019
O O5 0.789527 0.720576 0.727560
O O6 0.762500 0.734582 0.905486
O O7 0.852468 0.667853 0.857029
O O8 0.825943 0.943822 0.828035
O O9 0.765151 0.105908 0.899573
O O10 0.691614 0.227043 0.956563
O O11 0.500000 0.858995 0.750000
O O12 0.558368 0.701100 0.642948
O O13 0.573404 0.983047 0.654932
O O14 0.276242 0.500000 0.500000
O O15 0.362912 0.643890 0.943927
O O16 0.559034 0.500000 0.500000
O O17 0.569681 0.215347 0.536341
O O18 0.374563 0.000000 0.000000
#
# Coordination Sequence:
#
# PCOD9317943 Si02
#       8
#     8   8   8   8   8   8   8   8
#     4  11  23  41  61  86 121 164 207 254 315 375
#     4  12  22  37  61  88 130 170 210 250 304 367
#     4  12  23  37  58  91 127 175 210 245 301 379
#     4  10  23  44  67  88 120 158 209 269 325 373
#     4  12  26  38  56  88 134 173 214 244 300 380
#     4  11  21  35  58  89 131 163 196 256 310 356
#     4  10  20  36  65  95 122 151 200 262 317 366
#     4  10  20  37  61  93 120 159 206 256 307 368
#
# _framework density 18.737756999999998
#
# number of rings (size 3 to 8) (size 9 to 14) (size 15 to 20)
#    0.000    1.000    5.000    2.250    1.750    0.000 
#    0.000    5.000    0.000    0.000    0.000    0.000 
#    0.000    0.000    0.000    0.000    0.000    0.000 
#
# Total GULP energy -178457.903953 kJ/mol
# GULP energy per Si atom -5576.809499 kJ/mol
# Density = 1.869511 g / cm^3
# Si number density = 18.737757 Si / 1000 Ang^3
#
#
#
# Elastic Constant Matrix: (Units=GPa)
#
#
# Indices 1 2 3 4 5 6 
#
# 1 98.7920 6.9118 24.7656 0.0000 0.0000 0.0000
# 2 6.9118 73.6175 21.3938 0.0000 0.0000 0.0000
# 3 24.7656 21.3938 77.1018 0.0000 0.0000 0.0000
# 4 0.0000 0.0000 0.0000 34.4775 0.0000 0.0000
# 5 0.0000 0.0000 0.0000 0.0000 11.2962 0.0000
# 6 0.0000 0.0000 0.0000 0.0000 0.0000 10.0758
#
#
#
# Elastic Compliance Matrix: (Units=1/GPa)
#
#
# Indices 1 2 3 4 5 6 
#
# 1 0.011009 -0.000007 -0.003534 0.000000 0.000000 0.000000
# 2 -0.000007 0.014775 -0.004098 0.000000 0.000000 0.000000
# 3 -0.003534 -0.004098 0.015242 0.000000 0.000000 0.000000
# 4 0.000000 0.000000 0.000000 0.029004 0.000000 0.000000
# 5 0.000000 0.000000 0.000000 0.000000 0.088525 0.000000
# 6 0.000000 0.000000 0.000000 0.000000 0.000000 0.099248
#
#
# Mechanical properties :
#
#
# Convention : Reuss Voigt Hill
#
# Bulk Modulus (GPa) = 38.83629 39.51709 39.17669
# Shear Modulus (GPa) = 17.75171 24.26591 21.00881
#
# Velocity S-wave (km/s) = 3.08129 3.60255 3.35207
# Velocity P-wave (km/s) = 5.78190 6.19999 5.99459
#
# Compressibility (1/GPa) = 0.02574911
#
# Stress axis : x y z
#
# Youngs Moduli (GPa) = 90.83709 67.68125 65.60776
#
# Poissons Ratio (x) = 0.00044 0.23188
# Poissons Ratio (y) = 0.00059 0.26884
# Poissons Ratio (z) = 0.32104 0.27733
#
# Static dielectric constant tensor:
#      x y z
#    x 1.630340 0.000000 0.000000 
#    y 0.000000 1.741920 0.000000 
#    z 0.000000 0.000000 1.682770 
# 
# From -- ./inp_files/22351.got.cif
#   From: 2010.05.17/outbox.cif.g08.bks.cpg/sg20_12_cif.got.tgz:22351.got - 2010.06.03 22:52:26.
