data_PCOD9317156
_publ_section_title
;
Structure prediction by ZEFSAII (Michael W. Deem and Ramdas Pophale) SiO2 
 PCOD9317156
Probable space group: C 2 2 21
;
_chemical_formula_sum "Si O2"
_cell_formula_units_Z 60
_cell_length_a 31.173068
_cell_length_b 18.773057
_cell_length_c 6.132761
_cell_angle_alpha 90.000000
_cell_angle_beta 90.000000
_cell_angle_gamma 90.000000
_cell_volume 3588.976262
_symmetry_space_group_name_H-M "C 2 2 21"
_symmetry_group_IT_number 20
_symmetry_cell_setting 'orthorhombic'
loop_
_space_group_symop_operation_xyz
x,y,z
-x,-y,1/2+z
x,-y,-z
-x,y,1/2-z
1/2+x,1/2+y,z
1/2-x,1/2-y,1/2+z
1/2+x,1/2-y,-z
1/2-x,1/2+y,1/2-z
loop_
_atom_site_type_symbol
_atom_site_label
_atom_site_fract_x
_atom_site_fract_y
_atom_site_fract_z
Si Si1 0.740618 0.323501 0.223454
Si Si2 0.953094 0.858793 0.756153
Si Si3 0.372081 0.700279 0.003693
Si Si4 0.894979 0.908467 0.371781
Si Si5 0.308406 0.186199 0.106952
Si Si6 0.736864 0.071752 0.108611
Si Si7 0.684038 0.608997 0.157684
Si Si8 0.565600 0.500000 0.500000
O O1 0.722093 0.247460 0.290274
O O2 0.743793 0.376340 0.424989
O O3 0.788586 0.323271 0.131514
O O4 0.710534 0.349004 0.026405
O O5 0.916475 0.808998 0.863607
O O6 0.934914 0.883860 0.521491
O O7 0.957853 0.930264 0.906183
O O8 0.000000 0.825158 0.750000
O O9 0.336568 0.660963 0.157769
O O10 0.378957 0.654862 0.784848
O O11 0.354453 0.777119 0.928625
O O12 0.856577 0.923739 0.537194
O O13 0.907364 0.970423 0.203942
O O14 0.297918 0.115902 0.248810
O O15 0.780049 0.055767 0.248324
O O16 0.719970 0.000000 0.000000
#
# Coordination Sequence:
#
# PCOD9317156 Si02
#       8
#     8   8   8   8   8   8   8   4
#     4  11  19  34  56  73 103 141 191 230 272 328
#     4  10  23  37  54  73 102 136 182 235 288 341
#     4  10  20  36  53  80  94 129 190 233 279 331
#     4  10  20  37  50  73 101 131 188 232 274 320
#     4  11  19  33  58  75  97 142 191 232 276 341
#     4  11  24  36  47  79 110 144 187 239 291 324
#     4  10  19  35  51  72 102 134 184 240 279 311
#     4  10  22  34  50  72  96 140 184 224 288 344
#
# _framework density 16.717858
#
# number of rings (size 3 to 8) (size 9 to 14) (size 15 to 20)
#    0.000    1.600    4.000    1.200    1.867    3.733 
#   28.800    0.000    0.000    0.000    0.000    0.000 
#    0.000    0.000    0.000    0.000   70.933    0.000 
#
# Total GULP energy -167251.413955 kJ/mol
# GULP energy per Si atom -5575.047132 kJ/mol
# Density = 1.667981 g / cm^3
# Si number density = 16.717858 Si / 1000 Ang^3
#
#
#
# Elastic Constant Matrix: (Units=GPa)
#
#
# Indices 1 2 3 4 5 6 
#
# 1 97.6221 34.5770 31.7069 0.0000 0.0000 0.0000
# 2 34.5770 55.9741 19.3856 0.0000 0.0000 0.0000
# 3 31.7069 19.3856 78.7091 0.0000 0.0000 0.0000
# 4 0.0000 0.0000 0.0000 23.6566 0.0000 0.0000
# 5 0.0000 0.0000 0.0000 0.0000 16.7068 0.0000
# 6 0.0000 0.0000 0.0000 0.0000 0.0000 16.2564
#
#
#
# Elastic Compliance Matrix: (Units=1/GPa)
#
#
# Indices 1 2 3 4 5 6 
#
# 1 0.014113 -0.007379 -0.003868 0.000000 0.000000 0.000000
# 2 -0.007379 0.023389 -0.002788 0.000000 0.000000 0.000000
# 3 -0.003868 -0.002788 0.014950 0.000000 0.000000 0.000000
# 4 0.000000 0.000000 0.000000 0.042271 0.000000 0.000000
# 5 0.000000 0.000000 0.000000 0.000000 0.059856 0.000000
# 6 0.000000 0.000000 0.000000 0.000000 0.000000 0.061514
#
#
# Mechanical properties :
#
#
# Convention : Reuss Voigt Hill
#
# Bulk Modulus (GPa) = 41.01296 44.84936 42.93116
# Shear Modulus (GPa) = 19.81838 21.09970 20.45904
#
# Velocity S-wave (km/s) = 3.44679 3.55647 3.50206
# Velocity P-wave (km/s) = 6.35816 6.61438 6.48753
#
# Compressibility (1/GPa) = 0.02438253
#
# Stress axis : x y z
#
# Youngs Moduli (GPa) = 70.85498 42.75508 66.89003
#
# Poissons Ratio (x) = 0.31547 0.25873
# Poissons Ratio (y) = 0.52281 0.18650
# Poissons Ratio (z) = 0.27407 0.11921
#
# Static dielectric constant tensor:
#      x y z
#    x 1.587240 0.000000 0.000000 
#    y 0.000000 1.592460 0.000000 
#    z 0.000000 0.000000 1.630520 
# 
# From -- ./inp_files/4774.got.cif
#   From: 2010.05.17/outbox.cif.g08.bks.cpg/sg20_3_cif.got.tgz:4774.got - 2010.06.03 22:52:26.
