data_PCOD9317124
_publ_section_title
;
Structure prediction by ZEFSAII (Michael W. Deem and Ramdas Pophale) SiO2 
 PCOD9317124
Probable space group: C 2 2 21
;
_chemical_formula_sum "Si O2"
_cell_formula_units_Z 64
_cell_length_a 10.653368
_cell_length_b 33.662904
_cell_length_c 9.793954
_cell_angle_alpha 90.000000
_cell_angle_beta 90.000000
_cell_angle_gamma 90.000000
_cell_volume 3512.340145
_symmetry_space_group_name_H-M "C 2 2 21"
_symmetry_group_IT_number 20
_symmetry_cell_setting 'orthorhombic'
loop_
_space_group_symop_operation_xyz
x,y,z
-x,-y,1/2+z
x,-y,-z
-x,y,1/2-z
1/2+x,1/2+y,z
1/2-x,1/2-y,1/2+z
1/2+x,1/2-y,-z
1/2-x,1/2+y,1/2-z
loop_
_atom_site_type_symbol
_atom_site_label
_atom_site_fract_x
_atom_site_fract_y
_atom_site_fract_z
Si Si1 0.663728 0.462075 0.407362
Si Si2 0.224761 0.625220 0.871563
Si Si3 0.526121 0.322653 0.401413
Si Si4 0.366614 0.536958 0.587714
Si Si5 0.717453 0.623100 0.938585
Si Si6 0.919449 0.238629 0.385445
Si Si7 0.313578 0.818883 0.839439
Si Si8 0.084975 0.682303 0.041684
O O1 0.704973 0.500000 0.500000
O O2 0.737466 0.419819 0.415927
O O3 0.661253 0.471698 0.246121
O O4 0.515422 0.455668 0.437041
O O5 0.341556 0.654660 0.908185
O O6 0.213110 0.628471 0.707159
O O7 0.105503 0.643679 0.948055
O O8 0.500000 0.305381 0.250000
O O9 0.418448 0.356207 0.417984
O O10 0.502526 0.288941 0.513460
O O11 0.326360 0.500000 0.500000
O O12 0.297935 0.576642 0.544345
O O13 0.773169 0.643137 0.072278
O O14 0.795172 0.213436 0.353572
O O15 0.876033 0.278981 0.457353
O O16 0.000000 0.247001 0.250000
O O17 0.338502 0.825277 0.680282
O O18 0.444348 0.807643 0.910418
#
# Coordination Sequence:
#
# PCOD9317124 Si02
#       8
#     8   8   8   8   8   8   8   8
#     4   9  17  30  51  84 124 154 193 241 294 355
#     4  10  19  34  59  83 117 157 199 237 292 353
#     4   9  18  34  56  83 112 154 191 238 295 345
#     4   9  16  29  51  84 119 153 190 239 301 354
#     4   9  18  35  57  81 114 155 196 241 287 358
#     4  11  25  39  62  84 111 147 198 241 290 362
#     4  10  25  43  56  81 116 149 191 244 297 347
#     4  11  26  40  58  81 114 151 188 247 295 346
#
# _framework density 18.221471000000001
#
# number of rings (size 3 to 8) (size 9 to 14) (size 15 to 20)
#    0.000    2.250    1.250    0.750    7.000    2.000 
#    0.000    0.000    0.000    0.750    0.000    0.000 
#    0.000    0.000    0.000    0.000    0.000    0.000 
#
# Total GULP energy -178435.949833 kJ/mol
# GULP energy per Si atom -5576.123432 kJ/mol
# Density = 1.818000 g / cm^3
# Si number density = 18.221471 Si / 1000 Ang^3
#
#
#
# Elastic Constant Matrix: (Units=GPa)
#
#
# Indices 1 2 3 4 5 6 
#
# 1 41.1727 22.7835 37.8083 0.0000 0.0000 0.0000
# 2 22.7835 114.6699 73.9715 0.0000 0.0000 0.0000
# 3 37.8083 73.9715 100.2675 0.0000 0.0000 0.0000
# 4 0.0000 0.0000 0.0000 30.4642 0.0000 0.0000
# 5 0.0000 0.0000 0.0000 0.0000 22.9343 0.0000
# 6 0.0000 0.0000 0.0000 0.0000 0.0000 10.9927
#
#
#
# Elastic Compliance Matrix: (Units=1/GPa)
#
#
# Indices 1 2 3 4 5 6 
#
# 1 0.037762 0.003210 -0.016607 0.000000 0.000000 0.000000
# 2 0.003210 0.016912 -0.013687 0.000000 0.000000 0.000000
# 3 -0.016607 -0.013687 0.026333 0.000000 0.000000 0.000000
# 4 0.000000 0.000000 0.000000 0.032825 0.000000 0.000000
# 5 0.000000 0.000000 0.000000 0.000000 0.043603 0.000000
# 6 0.000000 0.000000 0.000000 0.000000 0.000000 0.090969
#
#
# Mechanical properties :
#
#
# Convention : Reuss Voigt Hill
#
# Bulk Modulus (GPa) = 37.26000 58.35964 47.80982
# Shear Modulus (GPa) = 16.05032 20.98137 18.51584
#
# Velocity S-wave (km/s) = 2.97113 3.39700 3.19118
# Velocity P-wave (km/s) = 5.68005 6.89084 6.31453
#
# Compressibility (1/GPa) = 0.02683843
#
# Stress axis : x y z
#
# Youngs Moduli (GPa) = 26.48177 59.12830 37.97468
#
# Poissons Ratio (x) = -0.18982 0.63066
# Poissons Ratio (y) = -0.08501 0.51978
# Poissons Ratio (z) = 0.43979 0.80932
#
# Static dielectric constant tensor:
#      x y z
#    x 1.650310 0.000000 0.000000 
#    y 0.000000 1.603430 0.000000 
#    z 0.000000 0.000000 1.632230 
# 
# From -- ./inp_files/7699.got.cif
#   From: 2010.05.17/outbox.cif.g08.bks.cpg/sg20_4_cif.got.tgz:7699.got - 2010.06.03 22:52:26.
