data_PCOD9317319
_publ_section_title
;
Structure prediction by ZEFSAII (Michael W. Deem and Ramdas Pophale) SiO2 
 PCOD9317319
Probable space group: C 2 2 21
;
_chemical_formula_sum "Si O2"
_cell_formula_units_Z 52
_cell_length_a 19.762014
_cell_length_b 25.058168
_cell_length_c 5.310306
_cell_angle_alpha 90.000000
_cell_angle_beta 90.000000
_cell_angle_gamma 90.000000
_cell_volume 2629.662824
_symmetry_space_group_name_H-M "C 2 2 21"
_symmetry_group_IT_number 20
_symmetry_cell_setting 'orthorhombic'
loop_
_space_group_symop_operation_xyz
x,y,z
-x,-y,1/2+z
x,-y,-z
-x,y,1/2-z
1/2+x,1/2+y,z
1/2-x,1/2-y,1/2+z
1/2+x,1/2-y,-z
1/2-x,1/2+y,1/2-z
loop_
_atom_site_type_symbol
_atom_site_label
_atom_site_fract_x
_atom_site_fract_y
_atom_site_fract_z
Si Si1 0.889967 0.601943 0.112485
Si Si2 0.126015 0.687315 0.008120
Si Si3 0.219430 0.225952 0.071351
Si Si4 0.232627 0.618917 0.662208
Si Si5 0.150668 0.963035 0.252184
Si Si6 0.000000 0.355604 0.250000
Si Si7 0.000000 0.036273 0.750000
Si Si8 0.000000 0.533047 0.250000
O O1 0.873416 0.660861 0.217755
O O2 0.930823 0.566289 0.309902
O O3 0.819593 0.583047 0.000820
O O4 0.948447 0.609447 0.909178
O O5 0.146784 0.748300 0.982508
O O6 0.181493 0.651244 0.851858
O O7 0.050122 0.679144 0.916201
O O8 0.262218 0.259093 0.858562
O O9 0.231250 0.164684 0.004766
O O10 0.290614 0.581231 0.769919
O O11 0.074654 0.937284 0.244355
O O12 0.154339 0.000000 0.500000
O O13 0.158367 0.000000 0.000000
O O14 0.000787 0.000000 0.500000
O O15 0.015655 0.500000 0.500000
#
# Coordination Sequence:
#
# PCOD9317319 Si02
#       8
#     8   8   8   8   8   4   4   4
#     4  11  21  40  59  82 118 170 209 256 315 371
#     4  10  20  36  63  83 120 162 208 250 308 373
#     4  10  20  37  60  89 115 154 194 242 307 370
#     4  10  23  37  60  91 125 154 201 261 310 366
#     4  10  22  39  62  90 119 157 200 242 303 372
#     4  10  19  36  62  85 112 166 217 243 296 376
#     4   8  16  36  62  80 106 151 189 224 282 370
#     4  12  27  42  58  83 120 169 224 269 302 356
#
# _framework density 19.774398000000001
#
# number of rings (size 3 to 8) (size 9 to 14) (size 15 to 20)
#    0.000    1.846    3.077    0.462    4.308    0.615 
#    0.000    0.000    3.385    3.692    0.000    0.000 
#    0.000    0.000    0.000    0.000    0.000    0.000 
#
# Total GULP energy -144754.522405 kJ/mol
# GULP energy per Si atom -5567.481631 kJ/mol
# Density = 1.972939 g / cm^3
# Si number density = 19.774398 Si / 1000 Ang^3
#
#
#
# Elastic Constant Matrix: (Units=GPa)
#
#
# Indices 1 2 3 4 5 6 
#
# 1 152.6153 47.9288 15.5617 0.0000 0.0000 0.0000
# 2 47.9288 54.2504 4.6742 0.0000 0.0000 0.0000
# 3 15.5617 4.6742 70.4823 0.0000 0.0000 0.0000
# 4 0.0000 0.0000 0.0000 17.2368 0.0000 0.0000
# 5 0.0000 0.0000 0.0000 0.0000 33.2215 0.0000
# 6 0.0000 0.0000 0.0000 0.0000 0.0000 24.5011
#
#
#
# Elastic Compliance Matrix: (Units=1/GPa)
#
#
# Indices 1 2 3 4 5 6 
#
# 1 0.009225 -0.008020 -0.001505 0.000000 0.000000 0.000000
# 2 -0.008020 0.025512 0.000079 0.000000 0.000000 0.000000
# 3 -0.001505 0.000079 0.014515 0.000000 0.000000 0.000000
# 4 0.000000 0.000000 0.000000 0.058015 0.000000 0.000000
# 5 0.000000 0.000000 0.000000 0.000000 0.030101 0.000000
# 6 0.000000 0.000000 0.000000 0.000000 0.000000 0.040815
#
#
# Mechanical properties :
#
#
# Convention : Reuss Voigt Hill
#
# Bulk Modulus (GPa) = 32.93880 45.96416 39.45148
# Shear Modulus (GPa) = 24.13199 28.93741 26.53470
#
# Velocity S-wave (km/s) = 3.49716 3.82956 3.66713
# Velocity P-wave (km/s) = 5.74459 6.54590 6.15829
#
# Compressibility (1/GPa) = 0.03035933
#
# Stress axis : x y z
#
# Youngs Moduli (GPa) = 108.40649 39.19775 68.89435
#
# Poissons Ratio (x) = 0.31437 0.10367
# Poissons Ratio (y) = 0.86942 -0.00543
# Poissons Ratio (z) = 0.16313 -0.00309
#
# Static dielectric constant tensor:
#      x y z
#    x 1.741490 0.000000 0.000000 
#    y 0.000000 1.740070 0.000000 
#    z 0.000000 0.000000 1.801370 
# 
# From -- ./inp_files/2805.got.cif
#   From: 2010.05.17/outbox.cif.g08.bks.cpg/sg20_2_cif.got.tgz:2805.got - 2010.06.03 22:52:26.
