data_PCOD9317615
_publ_section_title
;
Structure prediction by ZEFSAII (Michael W. Deem and Ramdas Pophale) SiO2 
 PCOD9317615
Probable space group: C 2 2 21
;
_chemical_formula_sum "Si O2"
_cell_formula_units_Z 36
_cell_length_a 15.134436
_cell_length_b 23.597843
_cell_length_c 5.310297
_cell_angle_alpha 90.000000
_cell_angle_beta 90.000000
_cell_angle_gamma 90.000000
_cell_volume 1896.519708
_symmetry_space_group_name_H-M "C 2 2 21"
_symmetry_group_IT_number 20
_symmetry_cell_setting 'orthorhombic'
loop_
_space_group_symop_operation_xyz
x,y,z
-x,-y,1/2+z
x,-y,-z
-x,y,1/2-z
1/2+x,1/2+y,z
1/2-x,1/2-y,1/2+z
1/2+x,1/2-y,-z
1/2-x,1/2+y,1/2-z
loop_
_atom_site_type_symbol
_atom_site_label
_atom_site_fract_x
_atom_site_fract_y
_atom_site_fract_z
Si Si1 0.702393 0.384745 0.788170
Si Si2 0.059472 0.802391 0.001268
Si Si3 0.790559 0.723854 0.416461
Si Si4 0.580114 0.555968 0.612637
Si Si5 0.785244 0.000000 0.500000
O O1 0.767319 0.340521 0.654464
O O2 0.628782 0.407299 0.593683
O O3 0.753058 0.441692 0.882287
O O4 0.640967 0.348598 0.984131
O O5 0.111918 0.742499 0.002004
O O6 0.000000 0.802091 0.250000
O O7 0.000000 0.808384 0.750000
O O8 0.731422 0.742474 0.656580
O O9 0.534288 0.500000 0.500000
O O10 0.500000 0.586282 0.750000
O O11 0.654002 0.528990 0.788962
#
# Coordination Sequence:
#
# PCOD9317615 Si02
#       5
#     8   8   8   8   4
#     4  10  24  35  56  79 120 158 194 239 289 350
#     4  11  24  39  59  88 117 154 201 246 297 346
#     4  10  22  41  59  82 116 157 198 248 294 342
#     4  10  20  33  46  75 115 156 192 228 270 341
#     4  10  22  34  50  80 118 156 202 222 284 350
#
# _framework density 18.982137000000002
#
# number of rings (size 3 to 8) (size 9 to 14) (size 15 to 20)
#    0.000    1.778    1.111    2.667   12.444    0.000 
#    4.000    0.000    0.000    0.000    0.000    0.000 
#   10.000    0.000    0.000    0.000    0.000    0.000 
#
# Total GULP energy -100278.223410 kJ/mol
# GULP energy per Si atom -5571.012412 kJ/mol
# Density = 1.893893 g / cm^3
# Si number density = 18.982137 Si / 1000 Ang^3
#
#
#
# Elastic Constant Matrix: (Units=GPa)
#
#
# Indices 1 2 3 4 5 6 
#
# 1 36.1548 39.6495 7.6809 0.0000 0.0000 0.0000
# 2 39.6495 145.6957 28.3331 0.0000 0.0000 0.0000
# 3 7.6809 28.3331 87.0619 0.0000 0.0000 0.0000
# 4 0.0000 0.0000 0.0000 41.1408 0.0000 0.0000
# 5 0.0000 0.0000 0.0000 0.0000 24.0446 0.0000
# 6 0.0000 0.0000 0.0000 0.0000 0.0000 65.8673
#
#
#
# Elastic Compliance Matrix: (Units=1/GPa)
#
#
# Indices 1 2 3 4 5 6 
#
# 1 0.039425 -0.010732 0.000014 0.000000 0.000000 0.000000
# 2 -0.010732 0.010249 -0.002388 0.000000 0.000000 0.000000
# 3 0.000014 -0.002388 0.012262 0.000000 0.000000 0.000000
# 4 0.000000 0.000000 0.000000 0.024307 0.000000 0.000000
# 5 0.000000 0.000000 0.000000 0.000000 0.041589 0.000000
# 6 0.000000 0.000000 0.000000 0.000000 0.000000 0.015182
#
#
# Mechanical properties :
#
#
# Convention : Reuss Voigt Hill
#
# Bulk Modulus (GPa) = 27.99261 46.69326 37.34294
# Shear Modulus (GPa) = 27.60388 39.09380 33.34884
#
# Velocity S-wave (km/s) = 3.81754 4.54310 4.19603
# Velocity P-wave (km/s) = 5.84896 7.22299 6.57198
#
# Compressibility (1/GPa) = 0.03572371
#
# Stress axis : x y z
#
# Youngs Moduli (GPa) = 25.36463 97.57372 81.55196
#
# Poissons Ratio (x) = 1.04715 -0.00117
# Poissons Ratio (y) = 0.27221 0.19479
# Poissons Ratio (z) = -0.00036 0.23305
#
# Static dielectric constant tensor:
#      x y z
#    x 1.632250 0.000000 0.000000 
#    y 0.000000 1.749150 0.000000 
#    z 0.000000 0.000000 1.795960 
# 
# From -- ./inp_files/1756.got.cif
#   From: 2010.05.17/outbox.cif.g08.bks.cpg/sg20_1_cif.got.tgz:1756.got - 2010.06.03 22:52:26.
