data_PCOD9317182
_publ_section_title
;
Structure prediction by ZEFSAII (Michael W. Deem and Ramdas Pophale) SiO2 
 PCOD9317182
Probable space group: C 2 2 21
;
_chemical_formula_sum "Si O2"
_cell_formula_units_Z 40
_cell_length_a 16.941295
_cell_length_b 13.150148
_cell_length_c 7.799854
_cell_angle_alpha 90.000000
_cell_angle_beta 90.000000
_cell_angle_gamma 90.000000
_cell_volume 1737.655659
_symmetry_space_group_name_H-M "C 2 2 21"
_symmetry_group_IT_number 20
_symmetry_cell_setting 'orthorhombic'
loop_
_space_group_symop_operation_xyz
x,y,z
-x,-y,1/2+z
x,-y,-z
-x,y,1/2-z
1/2+x,1/2+y,z
1/2-x,1/2-y,1/2+z
1/2+x,1/2-y,-z
1/2-x,1/2+y,1/2-z
loop_
_atom_site_type_symbol
_atom_site_label
_atom_site_fract_x
_atom_site_fract_y
_atom_site_fract_z
Si Si1 0.212116 0.449504 0.689095
Si Si2 0.870879 0.160748 0.177196
Si Si3 0.298814 0.841993 0.328958
Si Si4 0.854830 0.250449 0.694352
Si Si5 0.478137 0.620939 0.503538
O O1 0.224333 0.500000 0.500000
O O2 0.294875 0.407647 0.770788
O O3 0.182174 0.540829 0.808340
O O4 0.151219 0.354906 0.696372
O O5 0.841682 0.276073 0.182967
O O6 0.930292 0.152727 0.335475
O O7 0.928151 0.137603 0.018992
O O8 0.207315 0.824987 0.284023
O O9 0.320368 0.791090 0.509936
O O10 0.932673 0.187134 0.646310
O O11 0.466501 0.500000 0.500000
#
# Coordination Sequence:
#
# PCOD9317182 Si02
#       5
#     8   8   8   8   8
#     4  11  21  38  64  92 128 174 227 289 352 421
#     4   9  20  34  56  89 125 171 217 271 349 422
#     4  10  19  35  58  89 128 167 219 280 341 417
#     4  10  21  35  60  95 131 174 225 285 358 431
#     4  10  19  36  58  88 133 175 216 279 354 426
#
# _framework density 23.019521000000001
#
# number of rings (size 3 to 8) (size 9 to 14) (size 15 to 20)
#    0.000    2.000    0.000    6.000    0.000    3.200 
#    0.000    4.000    0.000    9.600    0.000    2.800 
#    0.000    0.000    0.000    0.000    0.000    0.000 
#
# Total GULP energy -111600.184063 kJ/mol
# GULP energy per Si atom -5580.009203 kJ/mol
# Density = 2.296713 g / cm^3
# Si number density = 23.019521 Si / 1000 Ang^3
#
#
#
# Elastic Constant Matrix: (Units=GPa)
#
#
# Indices 1 2 3 4 5 6 
#
# 1 132.9041 70.5245 54.9560 0.0000 0.0000 0.0000
# 2 70.5245 164.3027 40.0510 0.0000 0.0000 0.0000
# 3 54.9560 40.0510 128.5201 0.0000 0.0000 0.0000
# 4 0.0000 0.0000 0.0000 27.2485 0.0000 0.0000
# 5 0.0000 0.0000 0.0000 0.0000 -242.9270 0.0000
# 6 0.0000 0.0000 0.0000 0.0000 0.0000 41.4316
#
#
#
# Elastic Compliance Matrix: (Units=1/GPa)
#
#
# Indices 1 2 3 4 5 6 
#
# 1 0.011035 -0.003881 -0.003509 0.000000 0.000000 0.000000
# 2 -0.003881 0.007952 -0.000818 0.000000 0.000000 0.000000
# 3 -0.003509 -0.000818 0.009536 0.000000 0.000000 0.000000
# 4 0.000000 0.000000 0.000000 0.036699 0.000000 0.000000
# 5 0.000000 0.000000 0.000000 0.000000 -0.004116 0.000000
# 6 0.000000 0.000000 0.000000 0.000000 0.000000 0.024136
#
#
# Mechanical properties :
#
#
# Convention : Reuss Voigt Hill
#
# Bulk Modulus (GPa) = 82.60558 84.08774 83.34666
# Shear Modulus (GPa) = 47.30631 -17.50302 14.90165
#
# Velocity S-wave (km/s) = 4.53819 -2.76045 2.54706
# Velocity P-wave (km/s) = 7.96386 5.14277 6.70340
#
# Compressibility (1/GPa) = 0.01210572
#
# Stress axis : x y z
#
# Youngs Moduli (GPa) = 90.62337 125.75870 104.86120
#
# Poissons Ratio (x) = 0.48808 0.36796
# Poissons Ratio (y) = 0.35172 0.08582
# Poissons Ratio (z) = 0.31800 0.10293
#
# Static dielectric constant tensor:
#      x y z
#    x 1.876550 0.000000 0.000000 
#    y 0.000000 8.898430 0.000000 
#    z 0.000000 0.000000 2.027720 
# 
# From -- ./inp_files/9131.got.cif
#   From: 2010.05.17/outbox.cif.g08.bks.cpg/sg20_5_cif.got.tgz:9131.got - 2010.06.03 22:52:26.
