data_PCOD9317279
_publ_section_title
;
Structure prediction by ZEFSAII (Michael W. Deem and Ramdas Pophale) SiO2 
 PCOD9317279
Probable space group: C 2 2 21
;
_chemical_formula_sum "Si O2"
_cell_formula_units_Z 56
_cell_length_a 16.131571
_cell_length_b 14.421597
_cell_length_c 12.456479
_cell_angle_alpha 90.000000
_cell_angle_beta 90.000000
_cell_angle_gamma 90.000000
_cell_volume 2897.912843
_symmetry_space_group_name_H-M "C 2 2 21"
_symmetry_group_IT_number 20
_symmetry_cell_setting 'orthorhombic'
loop_
_space_group_symop_operation_xyz
x,y,z
-x,-y,1/2+z
x,-y,-z
-x,y,1/2-z
1/2+x,1/2+y,z
1/2-x,1/2-y,1/2+z
1/2+x,1/2-y,-z
1/2-x,1/2+y,1/2-z
loop_
_atom_site_type_symbol
_atom_site_label
_atom_site_fract_x
_atom_site_fract_y
_atom_site_fract_z
Si Si1 0.598149 0.304423 0.545889
Si Si2 0.841854 0.760435 0.179611
Si Si3 0.202404 0.964943 0.285041
Si Si4 0.324331 0.342041 0.719943
Si Si5 0.614166 0.993499 0.127489
Si Si6 0.544841 0.788881 0.138529
Si Si7 0.401034 0.500000 0.000000
Si Si8 0.500000 0.143249 0.250000
O O1 0.658492 0.282722 0.447639
O O2 0.645899 0.314878 0.658891
O O3 0.525604 0.229601 0.551773
O O4 0.554204 0.403481 0.522124
O O5 0.820829 0.858209 0.239233
O O6 0.769724 0.689617 0.208386
O O7 0.929485 0.712086 0.203687
O O8 0.169403 0.047000 0.208456
O O9 0.299610 0.984416 0.306736
O O10 0.156518 0.983857 0.397480
O O11 0.378277 0.281493 0.637097
O O12 0.552568 0.074376 0.170401
O O13 0.571347 0.894207 0.141728
O O14 0.632334 0.000000 0.000000
O O15 0.500000 0.765243 0.250000
#
# Coordination Sequence:
#
# PCOD9317279 Si02
#       8
#     8   8   8   8   8   8   4   4
#     4   9  20  37  59  91 121 157 204 255 307 365
#     4  11  22  40  61  90 128 162 198 265 315 366
#     4  10  19  36  59  85 115 158 208 241 301 365
#     4  10  20  37  65  88 119 162 213 251 301 377
#     4  12  22  36  64  88 116 162 206 251 303 376
#     4  10  20  37  58  88 120 158 203 258 308 365
#     4   8  16  34  58  84 108 150 202 250 278 362
#     4  12  26  40  56  96 130 152 204 264 324 362
#
# _framework density 19.324252999999999
#
# number of rings (size 3 to 8) (size 9 to 14) (size 15 to 20)
#    0.000    1.714    4.286    0.857    0.000    0.000 
#   11.571    0.000    0.000    0.000    0.000    0.000 
#    0.000    0.000    0.000    0.000    0.000    0.000 
#
# Total GULP energy -155926.849794 kJ/mol
# GULP energy per Si atom -5568.816064 kJ/mol
# Density = 1.928027 g / cm^3
# Si number density = 19.324253 Si / 1000 Ang^3
#
#
#
# Elastic Constant Matrix: (Units=GPa)
#
#
# Indices 1 2 3 4 5 6 
#
# 1 77.5936 31.8711 10.8394 0.0000 0.0000 0.0000
# 2 31.8711 109.4792 14.5312 0.0000 0.0000 0.0000
# 3 10.8394 14.5312 31.2575 0.0000 0.0000 0.0000
# 4 0.0000 0.0000 0.0000 16.9687 0.0000 0.0000
# 5 0.0000 0.0000 0.0000 0.0000 13.3078 0.0000
# 6 0.0000 0.0000 0.0000 0.0000 0.0000 40.2450
#
#
#
# Elastic Compliance Matrix: (Units=1/GPa)
#
#
# Indices 1 2 3 4 5 6 
#
# 1 0.014964 -0.003909 -0.003372 0.000000 0.000000 0.000000
# 2 -0.003909 0.010756 -0.003645 0.000000 0.000000 0.000000
# 3 -0.003372 -0.003645 0.034856 0.000000 0.000000 0.000000
# 4 0.000000 0.000000 0.000000 0.058932 0.000000 0.000000
# 5 0.000000 0.000000 0.000000 0.000000 0.075144 0.000000
# 6 0.000000 0.000000 0.000000 0.000000 0.000000 0.024848
#
#
# Mechanical properties :
#
#
# Convention : Reuss Voigt Hill
#
# Bulk Modulus (GPa) = 25.82318 36.97929 31.40123
# Shear Modulus (GPa) = 19.66494 24.84354 22.25424
#
# Velocity S-wave (km/s) = 3.19349 3.58944 3.39724
# Velocity P-wave (km/s) = 5.19519 6.02963 5.62790
#
# Compressibility (1/GPa) = 0.03872490
#
# Stress axis : x y z
#
# Youngs Moduli (GPa) = 66.82613 92.97290 28.68932
#
# Poissons Ratio (x) = 0.36341 0.09674
# Poissons Ratio (y) = 0.26120 0.10457
# Poissons Ratio (z) = 0.22535 0.33887
#
# Static dielectric constant tensor:
#      x y z
#    x 1.680100 0.000000 0.000000 
#    y 0.000000 1.713680 0.000000 
#    z 0.000000 0.000000 1.695090 
# 
# From -- ./inp_files/15186.got.cif
#   From: 2010.05.17/outbox.cif.g08.bks.cpg/sg20_8_cif.got.tgz:15186.got - 2010.06.03 22:52:26.
