data_PCOD9317118
_publ_section_title
;
Structure prediction by ZEFSAII (Michael W. Deem and Ramdas Pophale) SiO2 
 PCOD9317118
Probable space group: C 2 2 21
;
_chemical_formula_sum "Si O2"
_cell_formula_units_Z 64
_cell_length_a 8.613291
_cell_length_b 27.353318
_cell_length_c 12.795888
_cell_angle_alpha 90.000000
_cell_angle_beta 90.000000
_cell_angle_gamma 90.000000
_cell_volume 3014.737927
_symmetry_space_group_name_H-M "C 2 2 21"
_symmetry_group_IT_number 20
_symmetry_cell_setting 'orthorhombic'
loop_
_space_group_symop_operation_xyz
x,y,z
-x,-y,1/2+z
x,-y,-z
-x,y,1/2-z
1/2+x,1/2+y,z
1/2-x,1/2-y,1/2+z
1/2+x,1/2-y,-z
1/2-x,1/2+y,1/2-z
loop_
_atom_site_type_symbol
_atom_site_label
_atom_site_fract_x
_atom_site_fract_y
_atom_site_fract_z
Si Si1 0.173388 0.540149 0.711572
Si Si2 0.359083 0.908787 0.998668
Si Si3 0.146833 0.724084 0.981915
Si Si4 0.311390 0.067560 0.236269
Si Si5 0.882290 0.897853 0.160757
Si Si6 0.146556 0.788302 0.299969
Si Si7 0.780802 0.387505 0.544648
Si Si8 0.309550 0.196246 0.903802
O O1 0.182825 0.551972 0.588475
O O2 0.249561 0.488265 0.740596
O O3 0.227343 0.585946 0.780268
O O4 0.000000 0.532800 0.750000
O O5 0.287532 0.915432 0.883438
O O6 0.547081 0.908080 0.985186
O O7 0.304649 0.857131 0.046140
O O8 0.267139 0.738702 0.891258
O O9 0.975695 0.718099 0.935991
O O10 0.199232 0.671263 0.028227
O O11 0.170940 0.768477 0.059471
O O12 0.500000 0.069446 0.250000
O O13 0.248287 0.098049 0.335266
O O14 0.916277 0.840306 0.158385
O O15 0.000000 0.918919 0.250000
O O16 0.845323 0.908686 0.038812
O O17 0.280504 0.803815 0.219138
O O18 0.000000 0.761337 0.250000
#
# Coordination Sequence:
#
# PCOD9317118 Si02
#       8
#     8   8   8   8   8   8   8   8
#     4  11  19  33  62  90 116 146 202 256 301 356
#     4  10  19  34  58  88 120 153 199 254 306 353
#     4  10  22  35  57  86 116 158 199 248 306 364
#     4   9  20  34  57  89 119 156 196 248 307 368
#     4  10  20  34  58  85 113 153 197 249 302 354
#     4  10  20  36  57  81 110 148 202 253 304 352
#     4   9  19  37  56  83 123 157 201 252 304 361
#     4  11  21  36  58  84 119 154 198 252 298 364
#
# _framework density 21.229042
#
# number of rings (size 3 to 8) (size 9 to 14) (size 15 to 20)
#    0.000    2.000    2.500    1.500    0.000    1.500 
#    0.000    2.500    5.500    0.000    0.000    0.000 
#    0.000    0.000    0.000    0.000    0.000    0.000 
#
# Total GULP energy -178172.819774 kJ/mol
# GULP energy per Si atom -5567.900618 kJ/mol
# Density = 2.118072 g / cm^3
# Si number density = 21.229042 Si / 1000 Ang^3
#
#
#
# Elastic Constant Matrix: (Units=GPa)
#
#
# Indices 1 2 3 4 5 6 
#
# 1 40.6528 17.5700 30.9495 0.0000 0.0000 0.0000
# 2 17.5700 27.4675 20.9478 0.0000 0.0000 0.0000
# 3 30.9495 20.9478 163.4055 0.0000 0.0000 0.0000
# 4 0.0000 0.0000 0.0000 -38.0467 0.0000 0.0000
# 5 0.0000 0.0000 0.0000 0.0000 37.3302 0.0000
# 6 0.0000 0.0000 0.0000 0.0000 0.0000 17.1901
#
#
#
# Elastic Compliance Matrix: (Units=1/GPa)
#
#
# Indices 1 2 3 4 5 6 
#
# 1 0.036597 -0.020087 -0.004356 0.000000 0.000000 0.000000
# 2 -0.020087 0.051377 -0.002782 0.000000 0.000000 0.000000
# 3 -0.004356 -0.002782 0.007301 0.000000 0.000000 0.000000
# 4 0.000000 0.000000 0.000000 -0.026283 0.000000 0.000000
# 5 0.000000 0.000000 0.000000 0.000000 0.026788 0.000000
# 6 0.000000 0.000000 0.000000 0.000000 0.000000 0.058173
#
#
# Mechanical properties :
#
#
# Convention : Reuss Voigt Hill
#
# Bulk Modulus (GPa) = 24.49505 41.16228 32.82866
# Shear Modulus (GPa) = 22.52129 14.09862 18.30995
#
# Velocity S-wave (km/s) = 3.26064 2.57985 2.94001
# Velocity P-wave (km/s) = 5.07338 5.32032 5.19832
#
# Compressibility (1/GPa) = 0.04082458
#
# Stress axis : x y z
#
# Youngs Moduli (GPa) = 27.32474 19.46387 136.95861
#
# Poissons Ratio (x) = 0.39098 0.59666
# Poissons Ratio (y) = 0.54888 0.38098
# Poissons Ratio (z) = 0.11904 0.05414
#
# Static dielectric constant tensor:
#      x y z
#    x 1.953770 0.000000 0.000000 
#    y 0.000000 1.761260 0.000000 
#    z 0.000000 0.000000 1.600990 
# 
# From -- ./inp_files/13370.got.cif
#   From: 2010.05.17/outbox.cif.g08.bks.cpg/sg20_7_cif.got.tgz:13370.got - 2010.06.03 22:52:26.
