data_PCOD9317076
_publ_section_title
;
Structure prediction by ZEFSAII (Michael W. Deem and Ramdas Pophale) SiO2 
 PCOD9317076
Probable space group: C 2 2 21
;
_chemical_formula_sum "Si O2"
_cell_formula_units_Z 24
_cell_length_a 15.025765
_cell_length_b 12.314605
_cell_length_c 5.198164
_cell_angle_alpha 90.000000
_cell_angle_beta 90.000000
_cell_angle_gamma 90.000000
_cell_volume 961.849349
_symmetry_space_group_name_H-M "C 2 2 21"
_symmetry_group_IT_number 20
_symmetry_cell_setting 'orthorhombic'
loop_
_space_group_symop_operation_xyz
x,y,z
-x,-y,1/2+z
x,-y,-z
-x,y,1/2-z
1/2+x,1/2+y,z
1/2-x,1/2-y,1/2+z
1/2+x,1/2-y,-z
1/2-x,1/2+y,1/2-z
loop_
_atom_site_type_symbol
_atom_site_label
_atom_site_fract_x
_atom_site_fract_y
_atom_site_fract_z
Si Si1 0.902988 0.588378 0.315954
Si Si2 0.250603 0.822342 0.010644
Si Si3 0.556675 0.333784 0.005252
O O1 0.857883 0.500000 0.500000
O O2 0.838909 0.615263 0.077027
O O3 0.925612 0.704537 0.446892
O O4 0.000000 0.542612 0.250000
O O5 0.245810 0.726217 0.795938
O O6 0.155773 0.880537 0.984794
O O7 0.500000 0.348268 0.750000
O O8 0.500000 0.372815 0.250000
#
# Coordination Sequence:
#
# PCOD9317076 Si02
#       3
#     8   8   8
#     4  10  20  33  53  85 123 154 183 231 295 352
#     4  10  20  35  55  81 116 158 197 231 278 344
#     4  10  19  34  55  80 111 150 196 238 277 332
#
# _framework density 24.951933
#
# number of rings (size 3 to 8) (size 9 to 14) (size 15 to 20)
#    0.000    2.000    0.000    7.000    0.000    2.667 
#    0.000    0.000    0.000    0.000    0.000   32.667 
#    0.000   10.667    0.000    0.000    0.000    0.000 
#
# Total GULP energy -67151.978041 kJ/mol
# GULP energy per Si atom -5595.998170 kJ/mol
# Density = 2.489514 g / cm^3
# Si number density = 24.951933 Si / 1000 Ang^3
#
#
#
# Elastic Constant Matrix: (Units=GPa)
#
#
# Indices 1 2 3 4 5 6 
#
# 1 199.9640 -8.5387 35.4062 0.0000 0.0000 0.0000
# 2 -8.5387 86.7318 -1.3140 0.0000 0.0000 0.0000
# 3 35.4062 -1.3140 83.0776 0.0000 0.0000 0.0000
# 4 0.0000 0.0000 0.0000 18.4307 0.0000 0.0000
# 5 0.0000 0.0000 0.0000 0.0000 61.1479 0.0000
# 6 0.0000 0.0000 0.0000 0.0000 0.0000 -25.3393
#
#
#
# Elastic Compliance Matrix: (Units=1/GPa)
#
#
# Indices 1 2 3 4 5 6 
#
# 1 0.005431 0.000500 -0.002307 0.000000 0.000000 0.000000
# 2 0.000500 0.011579 -0.000030 0.000000 0.000000 0.000000
# 3 -0.002307 -0.000030 0.013019 0.000000 0.000000 0.000000
# 4 0.000000 0.000000 0.000000 0.054257 0.000000 0.000000
# 5 0.000000 0.000000 0.000000 0.000000 0.016354 0.000000
# 6 0.000000 0.000000 0.000000 0.000000 0.000000 -0.039464
#
#
# Mechanical properties :
#
#
# Convention : Reuss Voigt Hill
#
# Bulk Modulus (GPa) = 37.94301 46.76449 42.35375
# Shear Modulus (GPa) = 67.90366 33.79585 50.84976
#
# Velocity S-wave (km/s) = 5.22234 3.68426 4.51922
# Velocity P-wave (km/s) = 7.18354 6.07296 6.65147
#
# Compressibility (1/GPa) = 0.02635531
#
# Stress axis : x y z
#
# Youngs Moduli (GPa) = 184.14036 86.36667 76.80800
#
# Poissons Ratio (x) = -0.04316 0.17716
# Poissons Ratio (y) = -0.09201 0.00229
# Poissons Ratio (z) = 0.42473 0.00258
#
# Static dielectric constant tensor:
#      x y z
#    x 2.000210 0.000000 0.000000 
#    y 0.000000 1.989100 0.000000 
#    z 0.000000 0.000000 1.987420 
# 
# From -- ./inp_files/1519.got.cif
#   From: 2010.05.17/outbox.cif.g08.bks.cpg/sg20_1_cif.got.tgz:1519.got - 2010.06.03 22:52:26.
