data_PCOD9317442
_publ_section_title
;
Structure prediction by ZEFSAII (Michael W. Deem and Ramdas Pophale) SiO2 
 PCOD9317442
Probable space group: C 2 2 21
;
_chemical_formula_sum "Si O2"
_cell_formula_units_Z 44
_cell_length_a 17.498540
_cell_length_b 8.214375
_cell_length_c 16.000319
_cell_angle_alpha 90.000000
_cell_angle_beta 90.000000
_cell_angle_gamma 90.000000
_cell_volume 2299.878965
_symmetry_space_group_name_H-M "C 2 2 21"
_symmetry_group_IT_number 20
_symmetry_cell_setting 'orthorhombic'
loop_
_space_group_symop_operation_xyz
x,y,z
-x,-y,1/2+z
x,-y,-z
-x,y,1/2-z
1/2+x,1/2+y,z
1/2-x,1/2-y,1/2+z
1/2+x,1/2-y,-z
1/2-x,1/2+y,1/2-z
loop_
_atom_site_type_symbol
_atom_site_label
_atom_site_fract_x
_atom_site_fract_y
_atom_site_fract_z
Si Si1 0.846475 0.898597 0.127737
Si Si2 0.358742 0.407294 0.320560
Si Si3 0.574101 0.000000 0.000000
Si Si4 0.760838 0.864674 0.562575
Si Si5 0.707589 0.871029 0.910357
Si Si6 0.488818 0.342651 0.447216
O O1 0.865389 0.941175 0.223285
O O2 0.800206 0.730555 0.117479
O O3 0.923549 0.874296 0.076081
O O4 0.786726 0.034055 0.095155
O O5 0.321746 0.551288 0.376058
O O6 0.302923 0.252319 0.334342
O O7 0.437418 0.351902 0.363763
O O8 0.633096 0.014705 0.078806
O O9 0.526264 0.168361 0.007531
O O10 0.795003 0.740334 0.493856
O O11 0.726025 0.000000 0.500000
O O12 0.462935 0.500000 0.500000
#
# Coordination Sequence:
#
# PCOD9317442 Si02
#       6
#     8   8   4   8   8   8
#     4  12  22  37  61  94 127 151 205 274 311 352
#     4  10  22  39  61  88 126 165 200 254 325 370
#     4  10  20  40  62  82 114 164 210 248 304 374
#     4  10  20  36  63  88 115 160 210 246 297 382
#     4  10  19  38  63  87 116 163 213 251 296 378
#     4  11  24  40  63  90 124 168 210 254 314 384
#
# _framework density 19.131440999999999
#
# number of rings (size 3 to 8) (size 9 to 14) (size 15 to 20)
#    0.000    1.455    1.818    5.455    1.273    0.000 
#    0.000    0.000    0.000    4.364    0.000    0.000 
#    0.000    0.000    0.000    0.000    0.000    0.000 
#
# Total GULP energy -122590.734216 kJ/mol
# GULP energy per Si atom -5572.306101 kJ/mol
# Density = 1.908790 g / cm^3
# Si number density = 19.131441 Si / 1000 Ang^3
#
#
#
# Elastic Constant Matrix: (Units=GPa)
#
#
# Indices 1 2 3 4 5 6 
#
# 1 111.6387 53.1821 21.1083 0.0000 0.0000 0.0000
# 2 53.1821 124.4279 40.9729 0.0000 0.0000 0.0000
# 3 21.1083 40.9729 86.1036 0.0000 0.0000 0.0000
# 4 0.0000 0.0000 0.0000 22.5486 0.0000 0.0000
# 5 0.0000 0.0000 0.0000 0.0000 25.3484 0.0000
# 6 0.0000 0.0000 0.0000 0.0000 0.0000 22.7882
#
#
#
# Elastic Compliance Matrix: (Units=1/GPa)
#
#
# Indices 1 2 3 4 5 6 
#
# 1 0.011270 -0.004633 -0.000558 0.000000 0.000000 0.000000
# 2 -0.004633 0.011435 -0.004306 0.000000 0.000000 0.000000
# 3 -0.000558 -0.004306 0.013800 0.000000 0.000000 0.000000
# 4 0.000000 0.000000 0.000000 0.044349 0.000000 0.000000
# 5 0.000000 0.000000 0.000000 0.000000 0.039450 0.000000
# 6 0.000000 0.000000 0.000000 0.000000 0.000000 0.043882
#
#
# Mechanical properties :
#
#
# Convention : Reuss Voigt Hill
#
# Bulk Modulus (GPa) = 57.10751 61.41073 59.25912
# Shear Modulus (GPa) = 26.45272 27.93083 27.19178
#
# Velocity S-wave (km/s) = 3.72248 3.82507 3.77412
# Velocity P-wave (km/s) = 6.95634 7.18869 7.07347
#
# Compressibility (1/GPa) = 0.01751083
#
# Stress axis : x y z
#
# Youngs Moduli (GPa) = 88.72989 87.45200 72.46619
#
# Poissons Ratio (x) = 0.40518 0.04045
# Poissons Ratio (y) = 0.41111 0.31200
# Poissons Ratio (z) = 0.04952 0.37652
#
# Static dielectric constant tensor:
#      x y z
#    x 1.693570 0.000000 0.000000 
#    y 0.000000 1.740230 0.000000 
#    z 0.000000 0.000000 1.677740 
# 
# From -- ./inp_files/21213.got.cif
#   From: 2010.05.17/outbox.cif.g08.bks.cpg/sg20_11_cif.got.tgz:21213.got - 2010.06.03 22:52:26.
