data_PCOD9317437
_publ_section_title
;
Structure prediction by ZEFSAII (Michael W. Deem and Ramdas Pophale) SiO2 
 PCOD9317437
Probable space group: C 2 2 21
;
_chemical_formula_sum "Si O2"
_cell_formula_units_Z 44
_cell_length_a 7.748874
_cell_length_b 28.286002
_cell_length_c 8.253211
_cell_angle_alpha 90.000000
_cell_angle_beta 90.000000
_cell_angle_gamma 90.000000
_cell_volume 1808.977292
_symmetry_space_group_name_H-M "C 2 2 21"
_symmetry_group_IT_number 20
_symmetry_cell_setting 'orthorhombic'
loop_
_space_group_symop_operation_xyz
x,y,z
-x,-y,1/2+z
x,-y,-z
-x,y,1/2-z
1/2+x,1/2+y,z
1/2-x,1/2-y,1/2+z
1/2+x,1/2-y,-z
1/2-x,1/2+y,1/2-z
loop_
_atom_site_type_symbol
_atom_site_label
_atom_site_fract_x
_atom_site_fract_y
_atom_site_fract_z
Si Si1 0.000000 0.287584 0.750000
Si Si2 0.029106 0.048847 0.061169
Si Si3 0.680529 0.696388 0.684870
Si Si4 0.097004 0.347450 0.443571
Si Si5 0.556590 0.948628 0.561416
Si Si6 0.504841 0.649220 0.058524
O O1 0.839363 0.250606 0.764247
O O2 0.999630 0.315885 0.919379
O O3 0.235564 0.049181 0.041186
O O4 0.000000 0.049156 0.250000
O O5 0.950663 0.097144 0.993166
O O6 0.953635 0.000000 0.000000
O O7 0.500000 0.673551 0.750000
O O8 0.631156 0.688193 0.499989
O O9 0.842286 0.671191 0.763964
O O10 0.018661 0.400321 0.461716
O O11 0.293521 0.345565 0.517535
O O12 0.500000 0.942279 0.750000
O O13 0.490017 0.000000 0.500000
O O14 0.500000 0.648009 0.250000
#
# Coordination Sequence:
#
# PCOD9317437 Si02
#       6
#     4   8   8   8   8   8
#     4  10  20  36  64  90 118 172 212 272 328 390
#     4   9  19  33  56  89 116 158 206 258 318 386
#     4   8  19  36  57  90 120 163 209 265 323 380
#     4  10  19  38  62  84 124 165 215 261 329 395
#     4  10  21  38  61  87 124 168 209 265 329 395
#     4   9  18  35  58  87 123 162 204 265 327 380
#
# _framework density 24.323136000000002
#
# number of rings (size 3 to 8) (size 9 to 14) (size 15 to 20)
#    0.545    2.182    0.909    0.000    0.000    7.273 
#    0.000    3.636    4.000    0.000    0.000    0.000 
#    0.000    0.000    0.000    0.000    0.000    0.000 
#
# Total GULP energy -122481.500575 kJ/mol
# GULP energy per Si atom -5567.340935 kJ/mol
# Density = 2.426778 g / cm^3
# Si number density = 24.323136 Si / 1000 Ang^3
#
#
#
# Elastic Constant Matrix: (Units=GPa)
#
#
# Indices 1 2 3 4 5 6 
#
# 1 82.5735 11.2359 -16.4711 0.0000 0.0000 0.0000
# 2 11.2359 157.9786 39.4777 0.0000 0.0000 0.0000
# 3 -16.4711 39.4777 45.3421 0.0000 0.0000 0.0000
# 4 0.0000 0.0000 0.0000 43.7380 0.0000 0.0000
# 5 0.0000 0.0000 0.0000 0.0000 11.4270 0.0000
# 6 0.0000 0.0000 0.0000 0.0000 0.0000 7.7857
#
#
#
# Elastic Compliance Matrix: (Units=1/GPa)
#
#
# Indices 1 2 3 4 5 6 
#
# 1 0.014026 -0.002902 0.007622 0.000000 0.000000 0.000000
# 2 -0.002902 0.008691 -0.008621 0.000000 0.000000 0.000000
# 3 0.007622 -0.008621 0.032329 0.000000 0.000000 0.000000
# 4 0.000000 0.000000 0.000000 0.022863 0.000000 0.000000
# 5 0.000000 0.000000 0.000000 0.000000 0.087512 0.000000
# 6 0.000000 0.000000 0.000000 0.000000 0.000000 0.128441
#
#
# Mechanical properties :
#
#
# Convention : Reuss Voigt Hill
#
# Bulk Modulus (GPa) = 21.16714 39.37544 30.27129
# Shear Modulus (GPa) = 15.75238 29.36693 22.55966
#
# Velocity S-wave (km/s) = 2.54762 3.47849 3.04879
# Velocity P-wave (km/s) = 4.16835 5.68830 4.98658
#
# Compressibility (1/GPa) = 0.04724304
#
# Stress axis : x y z
#
# Youngs Moduli (GPa) = 71.29787 115.06572 30.93178
#
# Poissons Ratio (x) = 0.33394 -0.23576
# Poissons Ratio (y) = 0.20692 0.26666
# Poissons Ratio (z) = -0.54342 0.99197
#
# Static dielectric constant tensor:
#      x y z
#    x 1.925070 0.000000 0.000000 
#    y 0.000000 2.012860 0.000000 
#    z 0.000000 0.000000 2.227020 
# 
# From -- ./inp_files/6361.got.cif
#   From: 2010.05.17/outbox.cif.g08.bks.cpg/sg20_4_cif.got.tgz:6361.got - 2010.06.03 22:52:26.
