data_PCOD9317941
_publ_section_title
;
Structure prediction by ZEFSAII (Michael W. Deem and Ramdas Pophale) SiO2 
 PCOD9317941
Probable space group: C 2 2 21
;
_chemical_formula_sum "Si O2"
_cell_formula_units_Z 64
_cell_length_a 11.159969
_cell_length_b 23.235184
_cell_length_c 13.147618
_cell_angle_alpha 90.000000
_cell_angle_beta 90.000000
_cell_angle_gamma 90.000000
_cell_volume 3409.229059
_symmetry_space_group_name_H-M "C 2 2 21"
_symmetry_group_IT_number 20
_symmetry_cell_setting 'orthorhombic'
loop_
_space_group_symop_operation_xyz
x,y,z
-x,-y,1/2+z
x,-y,-z
-x,y,1/2-z
1/2+x,1/2+y,z
1/2-x,1/2-y,1/2+z
1/2+x,1/2-y,-z
1/2-x,1/2+y,1/2-z
loop_
_atom_site_type_symbol
_atom_site_label
_atom_site_fract_x
_atom_site_fract_y
_atom_site_fract_z
Si Si1 0.235377 0.618135 0.111341
Si Si2 0.629841 0.987230 0.778629
Si Si3 0.946391 0.704104 0.940454
Si Si4 0.210438 0.546948 0.573597
Si Si5 0.417829 0.226544 0.348225
Si Si6 0.514999 0.669415 0.369096
Si Si7 0.450086 0.087525 0.567263
Si Si8 0.821462 0.165502 0.546349
O O1 0.215494 0.563337 0.183625
O O2 0.183974 0.677511 0.159062
O O3 0.373206 0.632327 0.088422
O O4 0.150894 0.601560 0.015698
O O5 0.500000 0.960763 0.750000
O O6 0.681704 0.018767 0.680885
O O7 0.600044 0.037648 0.859970
O O8 0.954904 0.762674 0.877961
O O9 0.810025 0.691837 0.970715
O O10 0.008459 0.649055 0.886082
O O11 0.013933 0.711757 0.047236
O O12 0.265949 0.500000 0.500000
O O13 0.294382 0.601713 0.584421
O O14 0.079733 0.565260 0.526440
O O15 0.500000 0.223078 0.250000
O O16 0.375983 0.291705 0.369507
O O17 0.500000 0.654640 0.250000
O O18 0.401062 0.662549 0.444084
#
# Coordination Sequence:
#
# PCOD9317941 Si02
#       8
#     8   8   8   8   8   8   8   8
#     4  11  21  38  62  93 126 157 199 257 315 369
#     4  10  20  36  64  98 121 155 211 259 319 358
#     4   9  20  39  62  90 124 158 201 258 307 356
#     4  10  21  37  63  89 120 162 205 264 309 357
#     4  10  21  37  62  92 116 156 199 251 308 361
#     4  11  25  39  60  90 122 167 205 248 309 385
#     4   9  19  38  64  94 127 155 205 262 310 358
#     4  10  22  42  59  85 121 161 206 246 310 369
#
# _framework density 18.772572
#
# number of rings (size 3 to 8) (size 9 to 14) (size 15 to 20)
#    0.000    2.000    1.250    2.250    3.500    3.500 
#    4.500    1.250    0.000    0.000    0.000    0.000 
#    0.000    0.000    0.000    0.000    0.000    0.000 
#
# Total GULP energy -178384.025912 kJ/mol
# GULP energy per Si atom -5574.500810 kJ/mol
# Density = 1.872985 g / cm^3
# Si number density = 18.772572 Si / 1000 Ang^3
#
#
#
# Elastic Constant Matrix: (Units=GPa)
#
#
# Indices 1 2 3 4 5 6 
#
# 1 60.4824 16.5056 21.7304 0.0000 0.0000 0.0000
# 2 16.5056 76.9836 27.3017 0.0000 0.0000 0.0000
# 3 21.7304 27.3017 51.9863 0.0000 0.0000 0.0000
# 4 0.0000 0.0000 0.0000 6.7359 0.0000 0.0000
# 5 0.0000 0.0000 0.0000 0.0000 4.0444 0.0000
# 6 0.0000 0.0000 0.0000 0.0000 0.0000 24.2293
#
#
#
# Elastic Compliance Matrix: (Units=1/GPa)
#
#
# Indices 1 2 3 4 5 6 
#
# 1 0.019614 -0.001595 -0.007361 0.000000 0.000000 0.000000
# 2 -0.001595 0.016092 -0.007785 0.000000 0.000000 0.000000
# 3 -0.007361 -0.007785 0.026401 0.000000 0.000000 0.000000
# 4 0.000000 0.000000 0.000000 0.148459 0.000000 0.000000
# 5 0.000000 0.000000 0.000000 0.000000 0.247253 0.000000
# 6 0.000000 0.000000 0.000000 0.000000 0.000000 0.041272
#
#
# Mechanical properties :
#
#
# Convention : Reuss Voigt Hill
#
# Bulk Modulus (GPa) = 34.93297 35.61419 35.27358
# Shear Modulus (GPa) = 9.22315 15.26291 12.24303
#
# Velocity S-wave (km/s) = 2.21896 2.85448 2.55654
# Velocity P-wave (km/s) = 5.02135 5.46596 5.24836
#
# Compressibility (1/GPa) = 0.02862625
#
# Stress axis : x y z
#
# Youngs Moduli (GPa) = 50.98491 62.14083 37.87719
#
# Poissons Ratio (x) = 0.09909 0.27882
# Poissons Ratio (y) = 0.08130 0.29486
# Poissons Ratio (z) = 0.37530 0.48375
#
# Static dielectric constant tensor:
#      x y z
#    x 1.658830 0.000000 0.000000 
#    y 0.000000 1.682780 0.000000 
#    z 0.000000 0.000000 1.636170 
# 
# From -- ./inp_files/14502.got.cif
#   From: 2010.05.17/outbox.cif.g08.bks.cpg/sg20_8_cif.got.tgz:14502.got - 2010.06.03 22:52:26.
