data_PCOD9317313
_publ_section_title
;
Structure prediction by ZEFSAII (Michael W. Deem and Ramdas Pophale) SiO2 
 PCOD9317313
Probable space group: C 2 2 21
;
_chemical_formula_sum "Si O2"
_cell_formula_units_Z 40
_cell_length_a 13.316856
_cell_length_b 19.104340
_cell_length_c 7.409257
_cell_angle_alpha 90.000000
_cell_angle_beta 90.000000
_cell_angle_gamma 90.000000
_cell_volume 1884.987182
_symmetry_space_group_name_H-M "C 2 2 21"
_symmetry_group_IT_number 20
_symmetry_cell_setting 'orthorhombic'
loop_
_space_group_symop_operation_xyz
x,y,z
-x,-y,1/2+z
x,-y,-z
-x,y,1/2-z
1/2+x,1/2+y,z
1/2-x,1/2-y,1/2+z
1/2+x,1/2-y,-z
1/2-x,1/2+y,1/2-z
loop_
_atom_site_type_symbol
_atom_site_label
_atom_site_fract_x
_atom_site_fract_y
_atom_site_fract_z
Si Si1 0.500000 0.105902 0.250000
Si Si2 0.609867 0.675028 0.758399
Si Si3 0.817691 0.386539 0.244202
Si Si4 0.604751 0.735813 0.351049
Si Si5 0.079179 0.500000 0.500000
Si Si6 0.681751 0.815902 0.866846
O O1 0.505303 0.057249 0.421115
O O2 0.397953 0.147796 0.239365
O O3 0.500000 0.642445 0.750000
O O4 0.699549 0.622282 0.797891
O O5 0.612254 0.711257 0.559607
O O6 0.629609 0.739812 0.895888
O O7 0.878071 0.319231 0.165857
O O8 0.816826 0.365433 0.457281
O O9 0.858562 0.458428 0.156179
O O10 0.500000 0.717621 0.250000
O O11 0.709212 0.699781 0.283103
#
# Coordination Sequence:
#
# PCOD9317313 Si02
#       6
#     4   8   8   8   4   8
#     4  12  24  38  60  84 126 158 214 250 314 374
#     4  10  19  36  61  92 121 157 201 264 323 370
#     4  10  23  38  57  86 127 163 213 248 314 373
#     4  10  21  35  62  93 127 157 197 263 321 374
#     4  12  26  40  58  84 124 180 206 260 298 384
#     4  10  21  38  59  92 123 159 202 266 314 375
#
# _framework density 21.220303000000001
#
# number of rings (size 3 to 8) (size 9 to 14) (size 15 to 20)
#    0.000    1.600    1.000    3.600    4.200    4.800 
#    0.000    0.000    0.000    6.000    0.000    1.400 
#    0.000    0.000    0.000    0.000    0.000    0.000 
#
# Total GULP energy -111378.892001 kJ/mol
# GULP energy per Si atom -5568.944600 kJ/mol
# Density = 2.117200 g / cm^3
# Si number density = 21.220303 Si / 1000 Ang^3
#
#
#
# Elastic Constant Matrix: (Units=GPa)
#
#
# Indices 1 2 3 4 5 6 
#
# 1 161.9878 52.8850 35.9545 0.0000 0.0000 0.0000
# 2 52.8850 67.5324 25.1172 0.0000 0.0000 0.0000
# 3 35.9545 25.1172 66.3178 0.0000 0.0000 0.0000
# 4 0.0000 0.0000 0.0000 -6.3672 0.0000 0.0000
# 5 0.0000 0.0000 0.0000 0.0000 29.7444 0.0000
# 6 0.0000 0.0000 0.0000 0.0000 0.0000 30.0461
#
#
#
# Elastic Compliance Matrix: (Units=1/GPa)
#
#
# Indices 1 2 3 4 5 6 
#
# 1 0.008627 -0.005839 -0.002466 0.000000 0.000000 0.000000
# 2 -0.005839 0.021187 -0.004859 0.000000 0.000000 0.000000
# 3 -0.002466 -0.004859 0.018256 0.000000 0.000000 0.000000
# 4 0.000000 0.000000 0.000000 -0.157054 0.000000 0.000000
# 5 0.000000 0.000000 0.000000 0.000000 0.033620 0.000000
# 6 0.000000 0.000000 0.000000 0.000000 0.000000 0.033282
#
#
# Mechanical properties :
#
#
# Convention : Reuss Voigt Hill
#
# Bulk Modulus (GPa) = 45.99122 58.19460 52.09291
# Shear Modulus (GPa) = -587.66787 22.81009 -282.42889
#
# Velocity S-wave (km/s) = -16.65947 3.28215 -11.54914
# Velocity P-wave (km/s) = 18.66361 6.46892 12.37908
#
# Compressibility (1/GPa) = 0.02174328
#
# Stress axis : x y z
#
# Youngs Moduli (GPa) = 115.91861 47.19846 54.77645
#
# Poissons Ratio (x) = 0.27557 0.13506
# Poissons Ratio (y) = 0.67680 0.26616
# Poissons Ratio (z) = 0.28582 0.22934
#
# Static dielectric constant tensor:
#      x y z
#    x 1.914620 0.000000 0.000000 
#    y 0.000000 1.736700 0.000000 
#    z 0.000000 0.000000 1.862430 
# 
# From -- ./inp_files/7089.got.cif
#   From: 2010.05.17/outbox.cif.g08.bks.cpg/sg20_4_cif.got.tgz:7089.got - 2010.06.03 22:52:26.
