data_PCOD9317451
_publ_section_title
;
Structure prediction by ZEFSAII (Michael W. Deem and Ramdas Pophale) SiO2 
 PCOD9317451
Probable space group: C 2 2 21
;
_chemical_formula_sum "Si O2"
_cell_formula_units_Z 48
_cell_length_a 27.764222
_cell_length_b 8.902061
_cell_length_c 8.813455
_cell_angle_alpha 90.000000
_cell_angle_beta 90.000000
_cell_angle_gamma 90.000000
_cell_volume 2178.322943
_symmetry_space_group_name_H-M "C 2 2 21"
_symmetry_group_IT_number 20
_symmetry_cell_setting 'orthorhombic'
loop_
_space_group_symop_operation_xyz
x,y,z
-x,-y,1/2+z
x,-y,-z
-x,y,1/2-z
1/2+x,1/2+y,z
1/2-x,1/2-y,1/2+z
1/2+x,1/2-y,-z
1/2-x,1/2+y,1/2-z
loop_
_atom_site_type_symbol
_atom_site_label
_atom_site_fract_x
_atom_site_fract_y
_atom_site_fract_z
Si Si1 0.486667 0.164069 0.430054
Si Si2 0.236883 0.750040 0.821692
Si Si3 0.815057 0.822832 0.976069
Si Si4 0.322223 0.500000 0.500000
Si Si5 0.319494 0.000000 0.500000
Si Si6 0.590290 0.180336 0.488405
Si Si7 0.114313 0.242832 0.856381
O O1 0.500000 0.148459 0.250000
O O2 0.534666 0.224358 0.514248
O O3 0.437524 0.256305 0.440564
O O4 0.477156 0.000000 0.500000
O O5 0.225275 0.777067 0.646904
O O6 0.292552 0.745105 0.869385
O O7 0.213221 0.594886 0.882390
O O8 0.210445 0.885876 0.906473
O O9 0.865608 0.753378 0.920775
O O10 0.820084 0.000000 0.000000
O O11 0.356345 0.406801 0.388673
O O12 0.353876 0.880750 0.582396
O O13 0.602299 0.231860 0.318449
O O14 0.592436 0.000000 0.500000
#
# Coordination Sequence:
#
# PCOD9317451 Si02
#       7
#     8   8   8   4   4   8   8
#     4   9  18  36  62  92 121 161 208 260 314 375
#     4  11  26  41  65  92 125 169 217 266 321 387
#     4  12  27  43  64  93 130 169 217 265 329 380
#     4  10  24  40  62  90 130 166 214 260 330 376
#     4  10  20  38  62  90 120 160 212 258 314 372
#     4  10  22  38  64  90 127 164 211 259 322 371
#     4  10  19  38  64  89 124 163 208 261 313 383
#
# _framework density 22.035301
#
# number of rings (size 3 to 8) (size 9 to 14) (size 15 to 20)
#    0.000    1.667    1.667    2.000    8.167    0.000 
#    1.500    0.000    0.000    0.000    0.000    0.000 
#    0.000    0.000    0.000    0.000    0.000    0.000 
#
# Total GULP energy -134228.702663 kJ/mol
# GULP energy per Si atom -5592.862611 kJ/mol
# Density = 2.198515 g / cm^3
# Si number density = 22.035301 Si / 1000 Ang^3
#
#
#
# Elastic Constant Matrix: (Units=GPa)
#
#
# Indices 1 2 3 4 5 6 
#
# 1 152.1155 46.4164 5.8049 0.0000 0.0000 0.0000
# 2 46.4164 100.7223 12.7598 0.0000 0.0000 0.0000
# 3 5.8049 12.7598 42.6028 0.0000 0.0000 0.0000
# 4 0.0000 0.0000 0.0000 25.2604 0.0000 0.0000
# 5 0.0000 0.0000 0.0000 0.0000 22.6326 0.0000
# 6 0.0000 0.0000 0.0000 0.0000 0.0000 19.5687
#
#
#
# Elastic Compliance Matrix: (Units=1/GPa)
#
#
# Indices 1 2 3 4 5 6 
#
# 1 0.007650 -0.003527 0.000014 0.000000 0.000000 0.000000
# 2 -0.003527 0.011946 -0.003097 0.000000 0.000000 0.000000
# 3 0.000014 -0.003097 0.024398 0.000000 0.000000 0.000000
# 4 0.000000 0.000000 0.000000 0.039588 0.000000 0.000000
# 5 0.000000 0.000000 0.000000 0.000000 0.044184 0.000000
# 6 0.000000 0.000000 0.000000 0.000000 0.000000 0.051102
#
#
# Mechanical properties :
#
#
# Convention : Reuss Voigt Hill
#
# Bulk Modulus (GPa) = 32.49550 47.26696 39.88123
# Shear Modulus (GPa) = 24.71012 28.85631 26.78321
#
# Velocity S-wave (km/s) = 3.35235 3.62270 3.49014
# Velocity P-wave (km/s) = 5.45558 6.24465 5.86340
#
# Compressibility (1/GPa) = 0.03077349
#
# Stress axis : x y z
#
# Youngs Moduli (GPa) = 130.72507 83.70976 40.98634
#
# Poissons Ratio (x) = 0.29524 -0.00058
# Poissons Ratio (y) = 0.46107 0.12695
# Poissons Ratio (z) = -0.00184 0.25928
#
# Static dielectric constant tensor:
#      x y z
#    x 1.856880 0.000000 0.000000 
#    y 0.000000 1.755860 0.000000 
#    z 0.000000 0.000000 1.863960 
# 
# From -- ./inp_files/11492.got.cif
#   From: 2010.05.17/outbox.cif.g08.bks.cpg/sg20_6_cif.got.tgz:11492.got - 2010.06.03 22:52:26.
