data_PCOD9317409
_publ_section_title
;
Structure prediction by ZEFSAII (Michael W. Deem and Ramdas Pophale) SiO2 
 PCOD9317409
Probable space group: C 2 2 21
;
_chemical_formula_sum "Si O2"
_cell_formula_units_Z 64
_cell_length_a 5.981426
_cell_length_b 30.674783
_cell_length_c 18.133093
_cell_angle_alpha 90.000000
_cell_angle_beta 90.000000
_cell_angle_gamma 90.000000
_cell_volume 3327.040766
_symmetry_space_group_name_H-M "C 2 2 21"
_symmetry_group_IT_number 20
_symmetry_cell_setting 'orthorhombic'
loop_
_space_group_symop_operation_xyz
x,y,z
-x,-y,1/2+z
x,-y,-z
-x,y,1/2-z
1/2+x,1/2+y,z
1/2-x,1/2-y,1/2+z
1/2+x,1/2-y,-z
1/2-x,1/2+y,1/2-z
loop_
_atom_site_type_symbol
_atom_site_label
_atom_site_fract_x
_atom_site_fract_y
_atom_site_fract_z
Si Si1 0.112741 0.006803 0.670886
Si Si2 0.572247 0.910478 0.165381
Si Si3 0.070214 0.652133 0.056538
Si Si4 0.226172 0.969262 0.940643
Si Si5 0.223084 0.898876 0.047323
Si Si6 0.426403 0.077265 0.332399
Si Si7 0.345576 0.337330 0.087386
Si Si8 0.909654 0.746222 0.041733
O O1 0.249713 0.961689 0.675091
O O2 0.000000 0.013295 0.750000
O O3 0.942495 0.998232 0.605229
O O4 0.256741 0.049747 0.656120
O O5 0.500000 0.908324 0.250000
O O6 0.368854 0.920998 0.110882
O O7 0.674174 0.864325 0.137886
O O8 0.141072 0.620657 0.122908
O O9 0.961347 0.698746 0.075419
O O10 0.268552 0.660127 0.998368
O O11 0.889267 0.626789 0.006843
O O12 0.379481 0.944904 0.881652
O O13 0.106829 0.933030 0.992240
O O14 0.352900 0.000000 0.000000
O O15 0.069701 0.864868 0.089173
O O16 0.500000 0.088895 0.250000
O O17 0.380289 0.286134 0.098713
O O18 0.656271 0.744201 0.001339
#
# Coordination Sequence:
#
# PCOD9317409 Si02
#       8
#     8   8   8   8   8   8   8   8
#     4  12  25  40  59  88 122 171 218 260 330 394
#     4  11  26  39  62  87 129 170 219 264 328 399
#     4   9  20  36  62  97 123 162 214 266 327 394
#     4  11  23  37  61  88 118 157 214 262 315 376
#     4  10  20  39  61  91 118 160 209 266 322 382
#     4  11  22  41  61  85 129 167 208 264 329 394
#     4  10  20  38  64  92 125 166 213 273 331 389
#     4  10  19  37  67 103 135 170 220 282 338 399
#
# _framework density 19.236315000000001
#
# number of rings (size 3 to 8) (size 9 to 14) (size 15 to 20)
#    0.000    1.500    2.500    2.625    3.500    2.500 
#    0.000    0.000    2.750    0.000    0.000    0.000 
#    0.000    0.000    0.000    0.000    0.000    0.000 
#
# Total GULP energy -178283.806734 kJ/mol
# GULP energy per Si atom -5571.368960 kJ/mol
# Density = 1.919253 g / cm^3
# Si number density = 19.236315 Si / 1000 Ang^3
#
#
#
# Elastic Constant Matrix: (Units=GPa)
#
#
# Indices 1 2 3 4 5 6 
#
# 1 57.1583 23.6085 25.9406 0.0000 0.0000 0.0000
# 2 23.6085 123.2338 54.4965 0.0000 0.0000 0.0000
# 3 25.9406 54.4965 99.9079 0.0000 0.0000 0.0000
# 4 0.0000 0.0000 0.0000 24.2027 0.0000 0.0000
# 5 0.0000 0.0000 0.0000 0.0000 12.0744 0.0000
# 6 0.0000 0.0000 0.0000 0.0000 0.0000 31.0291
#
#
#
# Elastic Compliance Matrix: (Units=1/GPa)
#
#
# Indices 1 2 3 4 5 6 
#
# 1 0.020216 -0.002045 -0.004134 0.000000 0.000000 0.000000
# 2 -0.002045 0.010901 -0.005415 0.000000 0.000000 0.000000
# 3 -0.004134 -0.005415 0.014036 0.000000 0.000000 0.000000
# 4 0.000000 0.000000 0.000000 0.041318 0.000000 0.000000
# 5 0.000000 0.000000 0.000000 0.000000 0.082820 0.000000
# 6 0.000000 0.000000 0.000000 0.000000 0.000000 0.032228
#
#
# Mechanical properties :
#
#
# Convention : Reuss Voigt Hill
#
# Bulk Modulus (GPa) = 45.52508 54.26569 49.89538
# Shear Modulus (GPa) = 21.54912 25.21155 23.38034
#
# Velocity S-wave (km/s) = 3.35062 3.62418 3.49008
# Velocity P-wave (km/s) = 6.21984 6.76640 6.49887
#
# Compressibility (1/GPa) = 0.02196591
#
# Stress axis : x y z
#
# Youngs Moduli (GPa) = 49.46618 91.73341 71.24375
#
# Poissons Ratio (x) = 0.18759 0.29449
# Poissons Ratio (y) = 0.10115 0.38580
# Poissons Ratio (z) = 0.20447 0.49676
#
# Static dielectric constant tensor:
#      x y z
#    x 1.730150 0.000000 0.000000 
#    y 0.000000 1.754910 0.000000 
#    z 0.000000 0.000000 1.577120 
# 
# From -- ./inp_files/23001.got.cif
#   From: 2010.05.17/outbox.cif.g08.bks.cpg/sg20_12_cif.got.tgz:23001.got - 2010.06.03 22:52:26.
