data_PCOD9317106
_publ_section_title
;
Structure prediction by ZEFSAII (Michael W. Deem and Ramdas Pophale) SiO2 
 PCOD9317106
Probable space group: C 2 2 21
;
_chemical_formula_sum "Si O2"
_cell_formula_units_Z 32
_cell_length_a 7.449889
_cell_length_b 36.616826
_cell_length_c 5.347858
_cell_angle_alpha 90.000000
_cell_angle_beta 90.000000
_cell_angle_gamma 90.000000
_cell_volume 1458.849078
_symmetry_space_group_name_H-M "C 2 2 21"
_symmetry_group_IT_number 20
_symmetry_cell_setting 'orthorhombic'
loop_
_space_group_symop_operation_xyz
x,y,z
-x,-y,1/2+z
x,-y,-z
-x,y,1/2-z
1/2+x,1/2+y,z
1/2-x,1/2-y,1/2+z
1/2+x,1/2-y,-z
1/2-x,1/2+y,1/2-z
loop_
_atom_site_type_symbol
_atom_site_label
_atom_site_fract_x
_atom_site_fract_y
_atom_site_fract_z
Si Si1 0.692037 0.456852 0.497823
Si Si2 0.377488 0.152305 0.998705
Si Si3 0.803793 0.731323 0.872552
Si Si4 0.787002 0.925700 0.504452
O O1 0.660244 0.500000 0.500000
O O2 0.498191 0.436515 0.500822
O O3 0.786496 0.443227 0.248605
O O4 0.788273 0.444543 0.748521
O O5 0.500000 0.155393 0.250000
O O6 0.500000 0.147708 0.750000
O O7 0.267865 0.189765 0.957088
O O8 0.251710 0.117026 0.017578
O O9 0.694096 0.745634 0.630839
O O10 0.000000 0.731574 0.750000
#
# Coordination Sequence:
#
# PCOD9317106 Si02
#       4
#     8   8   8   8
#     4  10  19  35  60  85 120 155 191 261 317 349
#     4  11  23  41  63  83 124 165 199 247 312 367
#     4  11  23  44  67  94 126 170 212 263 324 388
#     4  10  19  34  57  85 112 150 204 234 301 363
#
# _framework density 21.935098
#
# number of rings (size 3 to 8) (size 9 to 14) (size 15 to 20)
#    0.000    1.500    0.000    9.000    0.000    0.000 
#   13.500    0.000    0.000   25.500    0.000    0.000 
#    0.000    0.000    0.000    0.000    0.000    0.000 
#
# Total GULP energy -89307.655543 kJ/mol
# GULP energy per Si atom -5581.728471 kJ/mol
# Density = 2.188517 g / cm^3
# Si number density = 21.935098 Si / 1000 Ang^3
#
#
#
# Elastic Constant Matrix: (Units=GPa)
#
#
# Indices 1 2 3 4 5 6 
#
# 1 49.8848 42.4285 21.1088 0.0000 0.0000 0.0000
# 2 42.4285 239.1200 93.5414 0.0000 0.0000 0.0000
# 3 21.1088 93.5414 246.8396 0.0000 0.0000 0.0000
# 4 0.0000 0.0000 0.0000 42.3767 0.0000 0.0000
# 5 0.0000 0.0000 0.0000 0.0000 7.0309 0.0000
# 6 0.0000 0.0000 0.0000 0.0000 0.0000 20.1051
#
#
#
# Elastic Compliance Matrix: (Units=1/GPa)
#
#
# Indices 1 2 3 4 5 6 
#
# 1 0.023663 -0.004000 -0.000508 0.000000 0.000000 0.000000
# 2 -0.004000 0.005586 -0.001775 0.000000 0.000000 0.000000
# 3 -0.000508 -0.001775 0.004767 0.000000 0.000000 0.000000
# 4 0.000000 0.000000 0.000000 0.023598 0.000000 0.000000
# 5 0.000000 0.000000 0.000000 0.000000 0.142230 0.000000
# 6 0.000000 0.000000 0.000000 0.000000 0.000000 0.049739
#
#
# Mechanical properties :
#
#
# Convention : Reuss Voigt Hill
#
# Bulk Modulus (GPa) = 46.61734 94.44466 70.53100
# Shear Modulus (GPa) = 18.56672 39.15357 28.86015
#
# Velocity S-wave (km/s) = 2.91252 4.22948 3.63120
# Velocity P-wave (km/s) = 5.71042 8.18543 7.05727
#
# Compressibility (1/GPa) = 0.02145125
#
# Stress axis : x y z
#
# Youngs Moduli (GPa) = 42.25965 179.01762 209.76667
#
# Poissons Ratio (x) = 0.71609 0.10651
# Poissons Ratio (y) = 0.16904 0.37229
# Poissons Ratio (z) = 0.02146 0.31772
#
# Static dielectric constant tensor:
#      x y z
#    x 1.818820 0.000000 0.000000 
#    y 0.000000 1.773920 0.000000 
#    z 0.000000 0.000000 1.845170 
# 
# From -- ./inp_files/677.got.cif
#   From: 2010.05.17/outbox.cif.g08.bks.cpg/sg20_1_cif.got.tgz:677.got - 2010.06.03 22:52:26.
