data_PCOD9317857
_publ_section_title
;
Structure prediction by ZEFSAII (Michael W. Deem and Ramdas Pophale) SiO2 
 PCOD9317857
Probable space group: C 2 2 21
;
_chemical_formula_sum "Si O2"
_cell_formula_units_Z 44
_cell_length_a 14.972189
_cell_length_b 9.848529
_cell_length_c 13.626269
_cell_angle_alpha 90.000000
_cell_angle_beta 90.000000
_cell_angle_gamma 90.000000
_cell_volume 2009.248381
_symmetry_space_group_name_H-M "C 2 2 21"
_symmetry_group_IT_number 20
_symmetry_cell_setting 'orthorhombic'
loop_
_space_group_symop_operation_xyz
x,y,z
-x,-y,1/2+z
x,-y,-z
-x,y,1/2-z
1/2+x,1/2+y,z
1/2-x,1/2-y,1/2+z
1/2+x,1/2-y,-z
1/2-x,1/2+y,1/2-z
loop_
_atom_site_type_symbol
_atom_site_label
_atom_site_fract_x
_atom_site_fract_y
_atom_site_fract_z
Si Si1 0.120642 0.483062 0.898166
Si Si2 0.000000 0.619969 0.750000
Si Si3 0.895530 0.879593 0.228533
Si Si4 0.234446 0.255375 0.126212
Si Si5 0.872657 0.816833 0.823903
Si Si6 0.204202 0.193221 0.916402
O O1 0.070894 0.525382 0.801006
O O2 0.202328 0.591141 0.902645
O O3 0.147081 0.328505 0.896535
O O4 0.067644 0.500000 0.000000
O O5 0.040013 0.724130 0.671357
O O6 0.836329 0.772623 0.164545
O O7 0.837420 0.898999 0.329988
O O8 0.000000 0.846139 0.250000
O O9 0.893690 0.024520 0.172009
O O10 0.174772 0.210252 0.218440
O O11 0.208709 0.163290 0.032340
O O12 0.803594 0.748321 0.897058
#
# Coordination Sequence:
#
# PCOD9317857 Si02
#       6
#     8   4   8   8   8   8
#     4   9  18  36  61  80 110 155 200 232 286 357
#     4  10  20  36  58  84 116 150 194 250 292 342
#     4  11  22  38  61  94 119 148 199 259 291 343
#     4   9  20  40  60  80 114 166 193 229 300 366
#     4  10  20  38  60  83 121 157 193 238 307 354
#     4  10  21  39  60  81 118 161 196 234 298 362
#
# _framework density 21.898737000000001
#
# number of rings (size 3 to 8) (size 9 to 14) (size 15 to 20)
#    0.000    2.182    2.727    0.000    1.273    0.727 
#    9.818    1.818    0.000    0.000    0.000    0.000 
#    0.000    0.000    0.000    0.000    0.000    0.000 
#
# Total GULP energy -122513.171935 kJ/mol
# GULP energy per Si atom -5568.780543 kJ/mol
# Density = 2.184889 g / cm^3
# Si number density = 21.898737 Si / 1000 Ang^3
#
#
#
# Elastic Constant Matrix: (Units=GPa)
#
#
# Indices 1 2 3 4 5 6 
#
# 1 79.2980 -2.5605 -0.6750 0.0000 0.0000 0.0000
# 2 -2.5605 36.9949 -13.1655 0.0000 0.0000 0.0000
# 3 -0.6750 -13.1655 51.8823 0.0000 0.0000 0.0000
# 4 0.0000 0.0000 0.0000 18.3599 0.0000 0.0000
# 5 0.0000 0.0000 0.0000 0.0000 -10.0088 0.0000
# 6 0.0000 0.0000 0.0000 0.0000 0.0000 -0.2596
#
#
#
# Elastic Compliance Matrix: (Units=1/GPa)
#
#
# Indices 1 2 3 4 5 6 
#
# 1 0.012647 0.001027 0.000425 0.000000 0.000000 0.000000
# 2 0.001027 0.029797 0.007575 0.000000 0.000000 0.000000
# 3 0.000425 0.007575 0.021202 0.000000 0.000000 0.000000
# 4 0.000000 0.000000 0.000000 0.054467 0.000000 0.000000
# 5 0.000000 0.000000 0.000000 0.000000 -0.099912 0.000000
# 6 0.000000 0.000000 0.000000 0.000000 0.000000 -3.851604
#
#
# Mechanical properties :
#
#
# Convention : Reuss Voigt Hill
#
# Bulk Modulus (GPa) = 12.23996 15.04147 13.64072
# Shear Modulus (GPa) = -1.30746 13.92337 6.30796
#
# Velocity S-wave (km/s) = -0.77353 2.52426 1.69905
# Velocity P-wave (km/s) = 2.19173 3.92166 3.17672
#
# Compressibility (1/GPa) = 0.08169958
#
# Stress axis : x y z
#
# Youngs Moduli (GPa) = 79.06745 33.55996 47.16522
#
# Poissons Ratio (x) = -0.03445 -0.02005
# Poissons Ratio (y) = -0.08117 -0.35726
# Poissons Ratio (z) = -0.03361 -0.25421
#
# Static dielectric constant tensor:
#      x y z
#    x 1.900330 0.000000 0.000000 
#    y 0.000000 1.811670 0.000000 
#    z 0.000000 0.000000 1.849560 
# 
# From -- ./inp_files/19844.got.cif
#   From: 2010.05.17/outbox.cif.g08.bks.cpg/sg20_10_cif.got.tgz:19844.got - 2010.06.03 22:52:26.
