data_PCOD9317318
_publ_section_title
;
Structure prediction by ZEFSAII (Michael W. Deem and Ramdas Pophale) SiO2 
 PCOD9317318
Probable space group: C 2 2 21
;
_chemical_formula_sum "Si O2"
_cell_formula_units_Z 32
_cell_length_a 10.934300
_cell_length_b 10.793822
_cell_length_c 10.927082
_cell_angle_alpha 90.000000
_cell_angle_beta 90.000000
_cell_angle_gamma 90.000000
_cell_volume 1289.645774
_symmetry_space_group_name_H-M "C 2 2 21"
_symmetry_group_IT_number 20
_symmetry_cell_setting 'orthorhombic'
loop_
_space_group_symop_operation_xyz
x,y,z
-x,-y,1/2+z
x,-y,-z
-x,y,1/2-z
1/2+x,1/2+y,z
1/2-x,1/2-y,1/2+z
1/2+x,1/2-y,-z
1/2-x,1/2+y,1/2-z
loop_
_atom_site_type_symbol
_atom_site_label
_atom_site_fract_x
_atom_site_fract_y
_atom_site_fract_z
Si Si1 0.717668 0.299717 0.024288
Si Si2 0.607284 0.121461 0.822025
Si Si3 0.924094 0.500000 0.000000
Si Si4 0.711442 0.557116 0.366625
Si Si5 0.979466 0.000000 0.500000
O O1 0.672882 0.220986 0.907737
O O2 0.606332 0.391405 0.048661
O O3 0.837647 0.379823 0.993602
O O4 0.748189 0.199510 0.129564
O O5 0.500000 0.191730 0.750000
O O6 0.717030 0.032022 0.772658
O O7 0.515923 0.022687 0.888236
O O8 0.752248 0.500000 0.500000
O O9 0.567547 0.543002 0.388908
#
# Coordination Sequence:
#
# PCOD9317318 Si02
#       5
#     8   8   4   8   4
#     4  10  19  36  62  83 108 161 190 243 294 344
#     4  11  22  39  59  89 123 156 200 247 293 354
#     4  11  21  40  64  84 119 159 202 238 306 357
#     4   8  17  32  56  78 107 151 183 232 293 332
#     4   9  17  32  62  78 107 143 200 228 292 349
#
# _framework density 24.813015
#
# number of rings (size 3 to 8) (size 9 to 14) (size 15 to 20)
#    0.750    1.500    3.750    1.500    0.000    0.000 
#    9.000    0.000    0.000    0.000    0.000    0.000 
#    0.000    0.000    0.000    0.000    0.000    0.000 
#
# Total GULP energy -89187.590192 kJ/mol
# GULP energy per Si atom -5574.224387 kJ/mol
# Density = 2.475654 g / cm^3
# Si number density = 24.813015 Si / 1000 Ang^3
#
#
#
# Elastic Constant Matrix: (Units=GPa)
#
#
# Indices 1 2 3 4 5 6 
#
# 1 173.7645 77.4109 26.0472 0.0000 0.0000 0.0000
# 2 77.4109 159.0524 11.8648 0.0000 0.0000 0.0000
# 3 26.0472 11.8648 46.6318 0.0000 0.0000 0.0000
# 4 0.0000 0.0000 0.0000 17.5408 0.0000 0.0000
# 5 0.0000 0.0000 0.0000 0.0000 27.1873 0.0000
# 6 0.0000 0.0000 0.0000 0.0000 0.0000 35.5474
#
#
#
# Elastic Compliance Matrix: (Units=1/GPa)
#
#
# Indices 1 2 3 4 5 6 
#
# 1 0.007868 -0.003569 -0.003486 0.000000 0.000000 0.000000
# 2 -0.003569 0.008028 -0.000049 0.000000 0.000000 0.000000
# 3 -0.003486 -0.000049 0.023405 0.000000 0.000000 0.000000
# 4 0.000000 0.000000 0.000000 0.057010 0.000000 0.000000
# 5 0.000000 0.000000 0.000000 0.000000 0.036782 0.000000
# 6 0.000000 0.000000 0.000000 0.000000 0.000000 0.028131
#
#
# Mechanical properties :
#
#
# Convention : Reuss Voigt Hill
#
# Bulk Modulus (GPa) = 39.85511 67.78830 53.82170
# Shear Modulus (GPa) = 27.20404 33.66347 30.43376
#
# Velocity S-wave (km/s) = 3.31473 3.68732 3.50598
# Velocity P-wave (km/s) = 5.54499 6.74592 6.17472
#
# Compressibility (1/GPa) = 0.02509089
#
# Stress axis : x y z
#
# Youngs Moduli (GPa) = 127.10478 124.56478 42.72674
#
# Poissons Ratio (x) = 0.44458 0.14897
# Poissons Ratio (y) = 0.45364 0.00209
# Poissons Ratio (z) = 0.44315 0.00611
#
# Static dielectric constant tensor:
#      x y z
#    x 1.941720 0.000000 0.000000 
#    y 0.000000 1.993010 0.000000 
#    z 0.000000 0.000000 2.270410 
# 
# From -- ./inp_files/19572.got.cif
#   From: 2010.05.17/outbox.cif.g08.bks.cpg/sg20_10_cif.got.tgz:19572.got - 2010.06.03 22:52:26.
