data_PCOD9317045
_publ_section_title
;
Structure prediction by ZEFSAII (Michael W. Deem and Ramdas Pophale) SiO2 
 PCOD9317045
Probable space group: C 2 2 21
;
_chemical_formula_sum "Si O2"
_cell_formula_units_Z 36
_cell_length_a 5.282827
_cell_length_b 22.508462
_cell_length_c 15.348531
_cell_angle_alpha 90.000000
_cell_angle_beta 90.000000
_cell_angle_gamma 90.000000
_cell_volume 1825.067894
_symmetry_space_group_name_H-M "C 2 2 21"
_symmetry_group_IT_number 20
_symmetry_cell_setting 'orthorhombic'
loop_
_space_group_symop_operation_xyz
x,y,z
-x,-y,1/2+z
x,-y,-z
-x,y,1/2-z
1/2+x,1/2+y,z
1/2-x,1/2-y,1/2+z
1/2+x,1/2-y,-z
1/2-x,1/2+y,1/2-z
loop_
_atom_site_type_symbol
_atom_site_label
_atom_site_fract_x
_atom_site_fract_y
_atom_site_fract_z
Si Si1 0.716875 0.892305 0.538216
Si Si2 0.660223 0.165762 0.169641
Si Si3 0.083873 0.958269 0.662804
Si Si4 0.022358 0.782979 0.529408
Si Si5 0.089867 0.500000 0.000000
O O1 0.522040 0.849872 0.588657
O O2 0.572598 0.940648 0.481354
O O3 0.843953 0.933086 0.611548
O O4 0.928547 0.848654 0.498637
O O5 0.500000 0.190370 0.250000
O O6 0.769420 0.101165 0.194608
O O7 0.882586 0.205898 0.128922
O O8 0.246648 0.988501 0.586891
O O9 0.000000 0.992072 0.750000
O O10 0.272036 0.757615 0.481299
#
# Coordination Sequence:
#
# PCOD9317045 Si02
#       5
#     8   8   8   8   4
#     4  10  20  37  58  90 137 160 215 263 324 388
#     4  10  19  34  61  93 130 157 206 271 327 370
#     4  10  19  33  58  92 138 167 210 275 332 381
#     4  11  22  38  59  93 133 167 204 256 322 385
#     4  10  22  34  56  98 136 176 212 270 334 392
#
# _framework density 19.725294000000002
#
# number of rings (size 3 to 8) (size 9 to 14) (size 15 to 20)
#    0.000    1.778    4.444    0.667    0.000    0.000 
#    0.000    0.000    0.000    0.000    0.000   63.778 
#    0.000    0.000    0.000    0.000    0.000    0.000 
#
# Total GULP energy -100260.187990 kJ/mol
# GULP energy per Si atom -5570.010444 kJ/mol
# Density = 1.968040 g / cm^3
# Si number density = 19.725294 Si / 1000 Ang^3
#
#
#
# Elastic Constant Matrix: (Units=GPa)
#
#
# Indices 1 2 3 4 5 6 
#
# 1 121.1510 54.5019 54.9791 0.0000 0.0000 0.0000
# 2 54.5019 79.2607 64.7436 0.0000 0.0000 0.0000
# 3 54.9791 64.7436 87.4169 0.0000 0.0000 0.0000
# 4 0.0000 0.0000 0.0000 19.2603 0.0000 0.0000
# 5 0.0000 0.0000 0.0000 0.0000 28.1234 0.0000
# 6 0.0000 0.0000 0.0000 0.0000 0.0000 74.4597
#
#
#
# Elastic Compliance Matrix: (Units=1/GPa)
#
#
# Indices 1 2 3 4 5 6 
#
# 1 0.012421 -0.005468 -0.003762 0.000000 0.000000 0.000000
# 2 -0.005468 0.034346 -0.021999 0.000000 0.000000 0.000000
# 3 -0.003762 -0.021999 0.030099 0.000000 0.000000 0.000000
# 4 0.000000 0.000000 0.000000 0.051920 0.000000 0.000000
# 5 0.000000 0.000000 0.000000 0.000000 0.035558 0.000000
# 6 0.000000 0.000000 0.000000 0.000000 0.000000 0.013430
#
#
# Mechanical properties :
#
#
# Convention : Reuss Voigt Hill
#
# Bulk Modulus (GPa) = 69.40679 70.69753 70.05216
# Shear Modulus (GPa) = 20.40523 31.94227 26.17375
#
# Velocity S-wave (km/s) = 3.21981 4.02849 3.64663
# Velocity P-wave (km/s) = 7.00614 7.58664 7.30216
#
# Compressibility (1/GPa) = 0.01440781
#
# Stress axis : x y z
#
# Youngs Moduli (GPa) = 80.50571 29.11539 33.22408
#
# Poissons Ratio (x) = 0.15920 0.12500
# Poissons Ratio (y) = 0.44021 0.73089
# Poissons Ratio (z) = 0.30290 0.64050
#
# Static dielectric constant tensor:
#      x y z
#    x 1.826060 0.000000 0.000000 
#    y 0.000000 1.751690 0.000000 
#    z 0.000000 0.000000 1.746130 
# 
# From -- ./inp_files/17608.got.cif
#   From: 2010.05.17/outbox.cif.g08.bks.cpg/sg20_9_cif.got.tgz:17608.got - 2010.06.03 22:52:26.
