data_PCOD9317338
_publ_section_title
;
Structure prediction by ZEFSAII (Michael W. Deem and Ramdas Pophale) SiO2 
 PCOD9317338
Probable space group: C 2 2 21
;
_chemical_formula_sum "Si O2"
_cell_formula_units_Z 28
_cell_length_a 9.200883
_cell_length_b 10.993383
_cell_length_c 10.234588
_cell_angle_alpha 90.000000
_cell_angle_beta 90.000000
_cell_angle_gamma 90.000000
_cell_volume 1035.216609
_symmetry_space_group_name_H-M "C 2 2 21"
_symmetry_group_IT_number 20
_symmetry_cell_setting 'orthorhombic'
loop_
_space_group_symop_operation_xyz
x,y,z
-x,-y,1/2+z
x,-y,-z
-x,y,1/2-z
1/2+x,1/2+y,z
1/2-x,1/2-y,1/2+z
1/2+x,1/2-y,-z
1/2-x,1/2+y,1/2-z
loop_
_atom_site_type_symbol
_atom_site_label
_atom_site_fract_x
_atom_site_fract_y
_atom_site_fract_z
Si Si1 0.943048 0.791678 0.470130
Si Si2 0.500000 0.738793 0.250000
Si Si3 0.819547 0.000000 0.000000
Si Si4 0.798301 0.500000 0.000000
Si Si5 0.185412 0.392315 0.768541
O O1 0.079013 0.883980 0.468595
O O2 0.806596 0.884070 0.473912
O O3 0.903364 0.709949 0.346666
O O4 0.981575 0.712838 0.600996
O O5 0.649727 0.660422 0.249658
O O6 0.718316 0.007357 0.124507
O O7 0.868799 0.544233 0.136100
#
# Coordination Sequence:
#
# PCOD9317338 Si02
#       5
#     8   4   4   4   8
#     4   9  18  36  64  96 139 185 233 304 363 425
#     4   8  18  36  56  96 140 178 240 294 354 436
#     4   9  20  38  66 103 128 171 246 290 358 445
#     4   9  20  36  56  97 142 179 238 290 352 441
#     4  10  19  36  65  98 138 185 233 299 363 429
#
# _framework density 27.047478999999999
#
# number of rings (size 3 to 8) (size 9 to 14) (size 15 to 20)
#    0.000    2.857    0.000    1.714    0.000    4.571 
#    0.000   11.429    0.000   27.429    0.000    8.000 
#    0.000    9.143    0.000    0.000    0.000    0.000 
#
# Total GULP energy -78098.931623 kJ/mol
# GULP energy per Si atom -5578.495116 kJ/mol
# Density = 2.698592 g / cm^3
# Si number density = 27.047479 Si / 1000 Ang^3
#
#
#
# Elastic Constant Matrix: (Units=GPa)
#
#
# Indices 1 2 3 4 5 6 
#
# 1 120.3999 76.2257 72.1881 0.0000 0.0000 0.0000
# 2 76.2257 141.8541 105.5172 0.0000 0.0000 0.0000
# 3 72.1881 105.5172 282.5510 0.0000 0.0000 0.0000
# 4 0.0000 0.0000 0.0000 51.5205 0.0000 0.0000
# 5 0.0000 0.0000 0.0000 0.0000 -168.9777 0.0000
# 6 0.0000 0.0000 0.0000 0.0000 0.000010110.1663
#
#
#
# Elastic Compliance Matrix: (Units=1/GPa)
#
#
# Indices 1 2 3 4 5 6 
#
# 1 0.012777 -0.006145 -0.000970 0.000000 0.000000 0.000000
# 2 -0.006145 0.012716 -0.003179 0.000000 0.000000 0.000000
# 3 -0.000970 -0.003179 0.004974 0.000000 0.000000 0.000000
# 4 0.000000 0.000000 0.000000 0.019410 0.000000 0.000000
# 5 0.000000 0.000000 0.000000 0.000000 -0.005918 0.000000
# 6 0.000000 0.000000 0.000000 0.000000 0.000000 0.000099
#
#
# Mechanical properties :
#
#
# Convention : Reuss Voigt Hill
#
# Bulk Modulus (GPa) = 101.20551 116.96301 109.08426
# Shear Modulus (GPa) = 73.59688 2017.93341 1045.76515
#
# Velocity S-wave (km/s) = 5.22200 27.34393 19.68451
# Velocity P-wave (km/s) = 8.59407 32.25303 23.60208
#
# Compressibility (1/GPa) = 0.00988089
#
# Stress axis : x y z
#
# Youngs Moduli (GPa) = 78.26422 78.64221 201.04312
#
# Poissons Ratio (x) = 0.48322 0.19497
# Poissons Ratio (y) = 0.48090 0.63908
# Poissons Ratio (z) = 0.07590 0.24999
#
# Static dielectric constant tensor:
#      x y z
#    x 2.150440 0.000000 0.000000 
#    y 0.000000 2.143500 0.000000 
#    z 0.000000 0.000000 -21.956590 
# 
# From -- ./inp_files/12423.got.cif
#   From: 2010.05.17/outbox.cif.g08.bks.cpg/sg20_7_cif.got.tgz:12423.got - 2010.06.03 22:52:26.
