data_PCOD9317255
_publ_section_title
;
Structure prediction by ZEFSAII (Michael W. Deem and Ramdas Pophale) SiO2 
 PCOD9317255
Probable space group: C 2 2 21
;
_chemical_formula_sum "Si O2"
_cell_formula_units_Z 48
_cell_length_a 23.039679
_cell_length_b 11.202176
_cell_length_c 7.256310
_cell_angle_alpha 90.000000
_cell_angle_beta 90.000000
_cell_angle_gamma 90.000000
_cell_volume 1872.813985
_symmetry_space_group_name_H-M "C 2 2 21"
_symmetry_group_IT_number 20
_symmetry_cell_setting 'orthorhombic'
loop_
_space_group_symop_operation_xyz
x,y,z
-x,-y,1/2+z
x,-y,-z
-x,y,1/2-z
1/2+x,1/2+y,z
1/2-x,1/2-y,1/2+z
1/2+x,1/2-y,-z
1/2-x,1/2+y,1/2-z
loop_
_atom_site_type_symbol
_atom_site_label
_atom_site_fract_x
_atom_site_fract_y
_atom_site_fract_z
Si Si1 0.592547 0.995216 0.790123
Si Si2 0.568962 0.510296 0.220323
Si Si3 0.385224 0.756098 0.313383
Si Si4 0.749304 0.825058 0.156844
Si Si5 0.432093 0.258249 0.264847
Si Si6 0.226825 0.428679 0.765297
O O1 0.572728 0.876009 0.689718
O O2 0.661776 0.974634 0.799487
O O3 0.584502 0.129340 0.720496
O O4 0.569098 0.000000 0.000000
O O5 0.500000 0.528295 0.250000
O O6 0.600200 0.631065 0.277350
O O7 0.592524 0.385755 0.303633
O O8 0.577217 0.500000 0.000000
O O9 0.316892 0.779585 0.319229
O O10 0.407734 0.752619 0.525832
O O11 0.782292 0.698167 0.160987
O O12 0.758471 0.944196 0.286261
O O13 0.753932 0.879443 0.953845
O O14 0.500000 0.283555 0.250000
#
# Coordination Sequence:
#
# PCOD9317255 Si02
#       6
#     8   8   8   8   8   8
#     4   9  15  32  54  74 108 140 180 227 283 323
#     4   9  18  31  51  74 104 132 177 218 268 326
#     4   9  17  33  53  74 106 144 178 222 279 334
#     4  10  20  36  58  82 116 147 196 236 291 339
#     4   9  16  28  50  79 102 132 182 224 265 328
#     4  10  19  36  56  84 111 152 184 243 288 340
#
# _framework density 25.629881999999998
#
# number of rings (size 3 to 8) (size 9 to 14) (size 15 to 20)
#    0.000    2.667    5.000    0.000    0.000    2.667 
#    3.000    0.000   14.667    0.000    0.000    0.000 
#    0.000    0.000    0.000    0.000    0.000    0.000 
#
# Total GULP energy -133641.337663 kJ/mol
# GULP energy per Si atom -5568.389069 kJ/mol
# Density = 2.557155 g / cm^3
# Si number density = 25.629882 Si / 1000 Ang^3
#
#
#
# Elastic Constant Matrix: (Units=GPa)
#
#
# Indices 1 2 3 4 5 6 
#
# 1 29.9214 28.5852 -2.3342 0.0000 0.0000 0.0000
# 2 28.5852 330.2767 25.6646 0.0000 0.0000 0.0000
# 3 -2.3342 25.6646 84.5546 0.0000 0.0000 0.0000
# 4 0.0000 0.0000 0.0000 3.4053 0.0000 0.0000
# 5 0.0000 0.0000 0.0000 0.0000 11.6498 0.0000
# 6 0.0000 0.0000 0.0000 0.0000 0.0000 60.2586
#
#
#
# Elastic Compliance Matrix: (Units=1/GPa)
#
#
# Indices 1 2 3 4 5 6 
#
# 1 0.036770 -0.003340 0.002029 0.000000 0.000000 0.000000
# 2 -0.003340 0.003404 -0.001126 0.000000 0.000000 0.000000
# 3 0.002029 -0.001126 0.012224 0.000000 0.000000 0.000000
# 4 0.000000 0.000000 0.000000 0.293657 0.000000 0.000000
# 5 0.000000 0.000000 0.000000 0.000000 0.085839 0.000000
# 6 0.000000 0.000000 0.000000 0.000000 0.000000 0.016595
#
#
# Mechanical properties :
#
#
# Convention : Reuss Voigt Hill
#
# Bulk Modulus (GPa) = 21.04147 60.95377 40.99762
# Shear Modulus (GPa) = 10.65633 41.25187 25.95410
#
# Velocity S-wave (km/s) = 2.04127 4.01624 3.18567
# Velocity P-wave (km/s) = 3.71259 6.73356 5.43710
#
# Compressibility (1/GPa) = 0.04752519
#
# Stress axis : x y z
#
# Youngs Moduli (GPa) = 27.19606 293.74584 81.80423
#
# Poissons Ratio (x) = 0.98113 -0.16597
# Poissons Ratio (y) = 0.09084 0.09207
# Poissons Ratio (z) = -0.05518 0.33061
#
# Static dielectric constant tensor:
#      x y z
#    x 1.994900 0.000000 0.000000 
#    y 0.000000 2.250870 0.000000 
#    z 0.000000 0.000000 2.001430 
# 
# From -- ./inp_files/16732.got.cif
#   From: 2010.05.17/outbox.cif.g08.bks.cpg/sg20_9_cif.got.tgz:16732.got - 2010.06.03 22:52:26.
