data_PCOD9317881
_publ_section_title
;
Structure prediction by ZEFSAII (Michael W. Deem and Ramdas Pophale) SiO2 
 PCOD9317881
Probable space group: C 2 2 21
;
_chemical_formula_sum "Si O2"
_cell_formula_units_Z 36
_cell_length_a 7.046756
_cell_length_b 14.164551
_cell_length_c 15.119248
_cell_angle_alpha 90.000000
_cell_angle_beta 90.000000
_cell_angle_gamma 90.000000
_cell_volume 1509.114657
_symmetry_space_group_name_H-M "C 2 2 21"
_symmetry_group_IT_number 20
_symmetry_cell_setting 'orthorhombic'
loop_
_space_group_symop_operation_xyz
x,y,z
-x,-y,1/2+z
x,-y,-z
-x,y,1/2-z
1/2+x,1/2+y,z
1/2-x,1/2-y,1/2+z
1/2+x,1/2-y,-z
1/2-x,1/2+y,1/2-z
loop_
_atom_site_type_symbol
_atom_site_label
_atom_site_fract_x
_atom_site_fract_y
_atom_site_fract_z
Si Si1 0.619613 0.500000 0.500000
Si Si2 0.224309 0.300965 0.271857
Si Si3 0.364200 0.504054 0.327093
Si Si4 0.352097 0.300745 0.944842
Si Si5 0.709654 0.820053 0.609628
O O1 0.488915 0.481357 0.414001
O O2 0.725560 0.598942 0.480737
O O3 0.288360 0.406984 0.287922
O O4 0.255240 0.240172 0.360524
O O5 0.322791 0.252819 0.188391
O O6 0.000000 0.301294 0.250000
O O7 0.500000 0.547692 0.250000
O O8 0.191881 0.573435 0.355030
O O9 0.564676 0.321305 0.912315
O O10 0.373372 0.221261 0.019838
#
# Coordination Sequence:
#
# PCOD9317881 Si02
#       5
#     4   8   8   8   8
#     4  10  20  36  60  84 108 148 192 228 272 338
#     4  10  21  37  56  82 116 146 182 236 284 322
#     4  11  21  38  61  83 110 151 192 226 273 338
#     4  10  20  37  58  83 114 148 185 229 280 330
#     4  10  21  38  59  83 113 147 186 232 277 331
#
# _framework density 23.855046999999999
#
# number of rings (size 3 to 8) (size 9 to 14) (size 15 to 20)
#    0.000    1.778    0.000    7.333    0.000    0.000 
#    0.000   14.444    0.000    1.333    0.000    0.000 
#    0.000    0.000    0.000    0.000    0.000    0.000 
#
# Total GULP energy -100696.422418 kJ/mol
# GULP energy per Si atom -5594.245690 kJ/mol
# Density = 2.380075 g / cm^3
# Si number density = 23.855047 Si / 1000 Ang^3
#
#
#
# Elastic Constant Matrix: (Units=GPa)
#
#
# Indices 1 2 3 4 5 6 
#
# 1 42.4727 13.0189 14.4701 0.0000 0.0000 0.0000
# 2 13.0189 177.2613 52.8824 0.0000 0.0000 0.0000
# 3 14.4701 52.8824 165.4124 0.0000 0.0000 0.0000
# 4 0.0000 0.0000 0.0000 48.4138 0.0000 0.0000
# 5 0.0000 0.0000 0.0000 0.0000 27.8599 0.0000
# 6 0.0000 0.0000 0.0000 0.0000 0.0000 19.2985
#
#
#
# Elastic Compliance Matrix: (Units=1/GPa)
#
#
# Indices 1 2 3 4 5 6 
#
# 1 0.024529 -0.001284 -0.001735 0.000000 0.000000 0.000000
# 2 -0.001284 0.006303 -0.001903 0.000000 0.000000 0.000000
# 3 -0.001735 -0.001903 0.006806 0.000000 0.000000 0.000000
# 4 0.000000 0.000000 0.000000 0.020655 0.000000 0.000000
# 5 0.000000 0.000000 0.000000 0.000000 0.035894 0.000000
# 6 0.000000 0.000000 0.000000 0.000000 0.000000 0.051817
#
#
# Mechanical properties :
#
#
# Convention : Reuss Voigt Hill
#
# Bulk Modulus (GPa) = 35.97880 60.65436 48.31658
# Shear Modulus (GPa) = 30.28216 39.43278 34.85747
#
# Velocity S-wave (km/s) = 3.56676 4.07014 3.82674
# Velocity P-wave (km/s) = 5.66369 6.89706 6.31058
#
# Compressibility (1/GPa) = 0.02779415
#
# Stress axis : x y z
#
# Youngs Moduli (GPa) = 40.76764 158.64538 146.93670
#
# Poissons Ratio (x) = 0.20368 0.25499
# Poissons Ratio (y) = 0.05234 0.27960
# Poissons Ratio (z) = 0.07075 0.30188
#
# Static dielectric constant tensor:
#      x y z
#    x 1.963040 0.000000 0.000000 
#    y 0.000000 1.983360 0.000000 
#    z 0.000000 0.000000 1.920680 
# 
# From -- ./inp_files/18401.got.cif
#   From: 2010.05.17/outbox.cif.g08.bks.cpg/sg20_10_cif.got.tgz:18401.got - 2010.06.03 22:52:26.
