data_PCOD9317265
_publ_section_title
;
Structure prediction by ZEFSAII (Michael W. Deem and Ramdas Pophale) SiO2 
 PCOD9317265
Probable space group: C 2 2 21
;
_chemical_formula_sum "Si O2"
_cell_formula_units_Z 40
_cell_length_a 11.942797
_cell_length_b 19.547264
_cell_length_c 10.342474
_cell_angle_alpha 90.000000
_cell_angle_beta 90.000000
_cell_angle_gamma 90.000000
_cell_volume 2414.440273
_symmetry_space_group_name_H-M "C 2 2 21"
_symmetry_group_IT_number 20
_symmetry_cell_setting 'orthorhombic'
loop_
_space_group_symop_operation_xyz
x,y,z
-x,-y,1/2+z
x,-y,-z
-x,y,1/2-z
1/2+x,1/2+y,z
1/2-x,1/2-y,1/2+z
1/2+x,1/2-y,-z
1/2-x,1/2+y,1/2-z
loop_
_atom_site_type_symbol
_atom_site_label
_atom_site_fract_x
_atom_site_fract_y
_atom_site_fract_z
Si Si1 0.209359 0.851684 0.975836
Si Si2 0.180784 0.172355 0.725801
Si Si3 0.000000 0.943937 0.250000
Si Si4 0.443127 0.806660 0.879056
Si Si5 0.412568 0.775787 0.368430
Si Si6 0.602265 0.500000 0.000000
O O1 0.335775 0.848184 0.926529
O O2 0.133522 0.801751 0.887539
O O3 0.170371 0.929782 0.982399
O O4 0.200453 0.820031 0.120327
O O5 0.107014 0.233177 0.665237
O O6 0.302803 0.178011 0.660565
O O7 0.105599 0.104536 0.714172
O O8 0.029642 0.988687 0.127174
O O9 0.500000 0.835980 0.750000
O O10 0.526986 0.797261 0.998681
O O11 0.500000 0.779689 0.250000
#
# Coordination Sequence:
#
# PCOD9317265 Si02
#       6
#     8   8   4   8   8   4
#     4  10  21  35  58  81 114 152 184 227 279 338
#     4  10  19  36  58  83 113 150 174 233 301 326
#     4  10  20  40  60  78 114 148 188 230 276 334
#     4  11  19  35  55  86 115 140 179 238 288 327
#     4  11  21  33  58  90 111 141 185 232 289 339
#     4  10  22  40  56  78 112 152 190 226 264 336
#
# _framework density 16.566987999999998
#
# number of rings (size 3 to 8) (size 9 to 14) (size 15 to 20)
#    0.000    1.600    5.000    1.200    1.400    0.000 
#    3.600    0.000    8.800    0.000    0.000    0.000 
#    0.000    0.000    0.000    0.000    0.000    0.000 
#
# Total GULP energy -111516.677985 kJ/mol
# GULP energy per Si atom -5575.833899 kJ/mol
# Density = 1.652928 g / cm^3
# Si number density = 16.566988 Si / 1000 Ang^3
#
#
#
# Elastic Constant Matrix: (Units=GPa)
#
#
# Indices 1 2 3 4 5 6 
#
# 1 134.9229 38.6284 81.0295 0.0000 0.0000 0.0000
# 2 38.6284 59.3862 48.2130 0.0000 0.0000 0.0000
# 3 81.0295 48.2130 138.1548 0.0000 0.0000 0.0000
# 4 0.0000 0.0000 0.0000 22.7090 0.0000 0.0000
# 5 0.0000 0.0000 0.0000 0.0000 44.8176 0.0000
# 6 0.0000 0.0000 0.0000 0.0000 0.0000 6.7554
#
#
#
# Elastic Compliance Matrix: (Units=1/GPa)
#
#
# Indices 1 2 3 4 5 6 
#
# 1 0.011781 -0.002865 -0.005910 0.000000 0.000000 0.000000
# 2 -0.002865 0.024193 -0.006762 0.000000 0.000000 0.000000
# 3 -0.005910 -0.006762 0.013064 0.000000 0.000000 0.000000
# 4 0.000000 0.000000 0.000000 0.044035 0.000000 0.000000
# 5 0.000000 0.000000 0.000000 0.000000 0.022313 0.000000
# 6 0.000000 0.000000 0.000000 0.000000 0.000000 0.148029
#
#
# Mechanical properties :
#
#
# Convention : Reuss Voigt Hill
#
# Bulk Modulus (GPa) = 55.66855 74.24508 64.95682
# Shear Modulus (GPa) = 16.64014 25.82925 21.23470
#
# Velocity S-wave (km/s) = 3.17269 3.95280 3.58403
# Velocity P-wave (km/s) = 6.86268 8.10834 7.51138
#
# Compressibility (1/GPa) = 0.01796346
#
# Stress axis : x y z
#
# Youngs Moduli (GPa) = 84.88069 41.33504 76.54399
#
# Poissons Ratio (x) = 0.11843 0.45237
# Poissons Ratio (y) = 0.24320 0.51761
# Poissons Ratio (z) = 0.50164 0.27952
#
# Static dielectric constant tensor:
#      x y z
#    x 1.568810 0.000000 0.000000 
#    y 0.000000 1.527990 0.000000 
#    z 0.000000 0.000000 1.562430 
# 
# From -- ./inp_files/7116.got.cif
#   From: 2010.05.17/outbox.cif.g08.bks.cpg/sg20_4_cif.got.tgz:7116.got - 2010.06.03 22:52:26.
