data_PCOD9317846
_publ_section_title
;
Structure prediction by ZEFSAII (Michael W. Deem and Ramdas Pophale) SiO2 
 PCOD9317846
Probable space group: C 2 2 21
;
_chemical_formula_sum "Si O2"
_cell_formula_units_Z 48
_cell_length_a 29.468733
_cell_length_b 8.711329
_cell_length_c 9.745140
_cell_angle_alpha 90.000000
_cell_angle_beta 90.000000
_cell_angle_gamma 90.000000
_cell_volume 2501.692707
_symmetry_space_group_name_H-M "C 2 2 21"
_symmetry_group_IT_number 20
_symmetry_cell_setting 'orthorhombic'
loop_
_space_group_symop_operation_xyz
x,y,z
-x,-y,1/2+z
x,-y,-z
-x,y,1/2-z
1/2+x,1/2+y,z
1/2-x,1/2-y,1/2+z
1/2+x,1/2-y,-z
1/2-x,1/2+y,1/2-z
loop_
_atom_site_type_symbol
_atom_site_label
_atom_site_fract_x
_atom_site_fract_y
_atom_site_fract_z
Si Si1 0.288852 0.120171 0.114917
Si Si2 0.470267 0.368463 0.108545
Si Si3 0.218380 0.392309 0.131064
Si Si4 0.976755 0.348806 0.401834
Si Si5 0.379484 0.110235 0.630286
Si Si6 0.393592 0.117074 0.117229
O O1 0.258094 0.269072 0.131908
O O2 0.341511 0.163727 0.083422
O O3 0.284502 0.015782 0.248531
O O4 0.273105 0.000000 0.000000
O O5 0.500000 0.404553 0.250000
O O6 0.427669 0.257088 0.143873
O O7 0.454239 0.500000 0.000000
O O8 0.500461 0.271842 0.002170
O O9 0.169084 0.308924 0.138609
O O10 0.223111 0.500000 0.000000
O O11 0.975528 0.500000 0.500000
O O12 0.925150 0.293254 0.376956
O O13 0.000000 0.371041 0.250000
O O14 0.375977 0.000000 0.500000
O O15 0.388491 0.992712 0.753079
O O16 0.411257 0.000000 0.000000
#
# Coordination Sequence:
#
# PCOD9317846 Si02
#       6
#     8   8   8   8   8   8
#     4  10  21  38  60  87 116 150 193 239 291 348
#     4  12  25  40  56  82 119 153 190 244 301 349
#     4  10  20  36  57  83 117 151 190 241 291 345
#     4  11  20  35  60  85 110 148 194 236 284 346
#     4   9  18  33  56  83 109 142 186 231 276 336
#     4  10  21  38  61  84 110 148 194 235 276 342
#
# _framework density 19.187007999999999
#
# number of rings (size 3 to 8) (size 9 to 14) (size 15 to 20)
#    0.000    1.667    0.000    6.500    0.000    0.667 
#    0.000    4.167    0.000    0.000    0.000    0.000 
#    0.000    0.000    0.000    0.000    0.000    0.000 
#
# Total GULP energy -133604.577984 kJ/mol
# GULP energy per Si atom -5566.857416 kJ/mol
# Density = 1.914334 g / cm^3
# Si number density = 19.187008 Si / 1000 Ang^3
#
#
#
# Elastic Constant Matrix: (Units=GPa)
#
#
# Indices 1 2 3 4 5 6 
#
# 1 120.1569 28.8496 -6.6459 0.0000 0.0000 0.0000
# 2 28.8496 36.2091 3.2234 0.0000 0.0000 0.0000
# 3 -6.6459 3.2234 120.9445 0.0000 0.0000 0.0000
# 4 0.0000 0.0000 0.0000 17.4531 0.0000 0.0000
# 5 0.0000 0.0000 0.0000 0.0000 23.7380 0.0000
# 6 0.0000 0.0000 0.0000 0.0000 0.0000 31.5262
#
#
#
# Elastic Compliance Matrix: (Units=1/GPa)
#
#
# Indices 1 2 3 4 5 6 
#
# 1 0.010366 -0.008330 0.000792 0.000000 0.000000 0.000000
# 2 -0.008330 0.034376 -0.001374 0.000000 0.000000 0.000000
# 3 0.000792 -0.001374 0.008348 0.000000 0.000000 0.000000
# 4 0.000000 0.000000 0.000000 0.057296 0.000000 0.000000
# 5 0.000000 0.000000 0.000000 0.000000 0.042126 0.000000
# 6 0.000000 0.000000 0.000000 0.000000 0.000000 0.031720
#
#
# Mechanical properties :
#
#
# Convention : Reuss Voigt Hill
#
# Bulk Modulus (GPa) = 28.35518 36.46274 32.40896
# Shear Modulus (GPa) = 23.38489 31.33570 27.36029
#
# Velocity S-wave (km/s) = 3.49490 4.04564 3.78031
# Velocity P-wave (km/s) = 5.57640 6.39281 5.99851
#
# Compressibility (1/GPa) = 0.03526692
#
# Stress axis : x y z
#
# Youngs Moduli (GPa) = 96.46733 29.08971 119.78385
#
# Poissons Ratio (x) = 0.24231 -0.09482
# Poissons Ratio (y) = 0.80355 0.16457
# Poissons Ratio (z) = -0.07637 0.03997
#
# Static dielectric constant tensor:
#      x y z
#    x 1.762060 0.000000 0.000000 
#    y 0.000000 1.683460 0.000000 
#    z 0.000000 0.000000 1.657330 
# 
# From -- ./inp_files/11476.got.cif
#   From: 2010.05.17/outbox.cif.g08.bks.cpg/sg20_6_cif.got.tgz:11476.got - 2010.06.03 22:52:26.
