data_PCOD9317411
_publ_section_title
;
Structure prediction by ZEFSAII (Michael W. Deem and Ramdas Pophale) SiO2 
 PCOD9317411
Probable space group: C 2 2 21
;
_chemical_formula_sum "Si O2"
_cell_formula_units_Z 60
_cell_length_a 9.361461
_cell_length_b 22.428139
_cell_length_c 12.359774
_cell_angle_alpha 90.000000
_cell_angle_beta 90.000000
_cell_angle_gamma 90.000000
_cell_volume 2595.059985
_symmetry_space_group_name_H-M "C 2 2 21"
_symmetry_group_IT_number 20
_symmetry_cell_setting 'orthorhombic'
loop_
_space_group_symop_operation_xyz
x,y,z
-x,-y,1/2+z
x,-y,-z
-x,y,1/2-z
1/2+x,1/2+y,z
1/2-x,1/2-y,1/2+z
1/2+x,1/2-y,-z
1/2-x,1/2+y,1/2-z
loop_
_atom_site_type_symbol
_atom_site_label
_atom_site_fract_x
_atom_site_fract_y
_atom_site_fract_z
Si Si1 0.864609 0.519311 0.176375
Si Si2 0.292629 0.912617 0.018809
Si Si3 0.520325 0.274215 0.440875
Si Si4 0.176259 0.766595 0.856951
Si Si5 0.152944 0.053624 0.694410
Si Si6 0.544976 0.592917 0.481671
Si Si7 0.742533 0.675441 0.811301
Si Si8 0.500000 0.628015 0.250000
O O1 0.844833 0.576897 0.101937
O O2 0.740515 0.500424 0.257104
O O3 0.000000 0.523975 0.250000
O O4 0.863807 0.463217 0.093411
O O5 0.120446 0.921514 0.012973
O O6 0.312098 0.850409 0.079345
O O7 0.657878 0.238809 0.396588
O O8 0.425705 0.250370 0.541531
O O9 0.574476 0.338384 0.485205
O O10 0.403481 0.292205 0.349488
O O11 0.167143 0.720508 0.758540
O O12 0.119170 0.828835 0.806214
O O13 0.138999 0.055774 0.565569
O O14 0.214746 0.116797 0.738448
O O15 0.000000 0.051290 0.750000
O O16 0.555643 0.590630 0.352747
#
# Coordination Sequence:
#
# PCOD9317411 Si02
#       8
#     8   8   8   8   8   8   8   4
#     4  10  21  39  67 105 137 159 210 283 359 417
#     4   9  20  41  67  90 133 178 209 275 341 412
#     4  10  21  36  61  92 138 169 234 299 334 391
#     4  11  22  38  60  96 127 184 228 293 340 398
#     4  11  17  37  69 102 121 169 231 271 327 416
#     4  10  19  42  66  91 129 181 233 277 328 404
#     4  10  19  37  67  94 131 181 230 277 341 408
#     4  10  26  40  58  94 144 180 230 290 342 390
#
# _framework density 23.120851999999999
#
# number of rings (size 3 to 8) (size 9 to 14) (size 15 to 20)
#    0.000    1.867    5.333    0.400    3.733    0.000 
#    6.000    2.667    0.000   16.000    0.000    0.000 
#    0.000    0.000    0.000    0.000    0.000    0.000 
#
# Total GULP energy -167626.448748 kJ/mol
# GULP energy per Si atom -5587.548292 kJ/mol
# Density = 2.306823 g / cm^3
# Si number density = 23.120852 Si / 1000 Ang^3
#
#
#
# Elastic Constant Matrix: (Units=GPa)
#
#
# Indices 1 2 3 4 5 6 
#
# 1 60.0769 42.7142 61.6574 0.0000 0.0000 0.0000
# 2 42.7142 71.7037 78.9571 0.0000 0.0000 0.0000
# 3 61.6574 78.9571 214.6795 0.0000 0.0000 0.0000
# 4 0.0000 0.0000 0.0000 67.7644 0.0000 0.0000
# 5 0.0000 0.0000 0.0000 0.0000 22.3725 0.0000
# 6 0.0000 0.0000 0.0000 0.0000 0.0000 26.1636
#
#
#
# Elastic Compliance Matrix: (Units=1/GPa)
#
#
# Indices 1 2 3 4 5 6 
#
# 1 0.030342 -0.014250 -0.003473 0.000000 0.000000 0.000000
# 2 -0.014250 0.030131 -0.006989 0.000000 0.000000 0.000000
# 3 -0.003473 -0.006989 0.008226 0.000000 0.000000 0.000000
# 4 0.000000 0.000000 0.000000 0.014757 0.000000 0.000000
# 5 0.000000 0.000000 0.000000 0.000000 0.044698 0.000000
# 6 0.000000 0.000000 0.000000 0.000000 0.000000 0.038221
#
#
# Mechanical properties :
#
#
# Convention : Reuss Voigt Hill
#
# Bulk Modulus (GPa) = 51.88319 79.23525 65.55922
# Shear Modulus (GPa) = 22.49968 34.13552 28.31760
#
# Velocity S-wave (km/s) = 3.12289 3.84656 3.50346
# Velocity P-wave (km/s) = 5.95752 7.35340 6.69195
#
# Compressibility (1/GPa) = 0.01927407
#
# Stress axis : x y z
#
# Youngs Moduli (GPa) = 32.95796 33.18789 121.56144
#
# Poissons Ratio (x) = 0.47293 0.42222
# Poissons Ratio (y) = 0.46965 0.84964
# Poissons Ratio (z) = 0.11447 0.23196
#
# Static dielectric constant tensor:
#      x y z
#    x 1.830960 0.000000 0.000000 
#    y 0.000000 1.978930 0.000000 
#    z 0.000000 0.000000 1.898580 
# 
# From -- ./inp_files/13301.got.cif
#   From: 2010.05.17/outbox.cif.g08.bks.cpg/sg20_7_cif.got.tgz:13301.got - 2010.06.03 22:52:26.
