data_PCOD9317519
_publ_section_title
;
Structure prediction by ZEFSAII (Michael W. Deem and Ramdas Pophale) SiO2 
 PCOD9317519
Probable space group: C 2 2 21
;
_chemical_formula_sum "Si O2"
_cell_formula_units_Z 56
_cell_length_a 13.832985
_cell_length_b 30.558484
_cell_length_c 6.199314
_cell_angle_alpha 90.000000
_cell_angle_beta 90.000000
_cell_angle_gamma 90.000000
_cell_volume 2620.543332
_symmetry_space_group_name_H-M "C 2 2 21"
_symmetry_group_IT_number 20
_symmetry_cell_setting 'orthorhombic'
loop_
_space_group_symop_operation_xyz
x,y,z
-x,-y,1/2+z
x,-y,-z
-x,y,1/2-z
1/2+x,1/2+y,z
1/2-x,1/2-y,1/2+z
1/2+x,1/2-y,-z
1/2-x,1/2+y,1/2-z
loop_
_atom_site_type_symbol
_atom_site_label
_atom_site_fract_x
_atom_site_fract_y
_atom_site_fract_z
Si Si1 0.126250 0.229518 0.406599
Si Si2 0.000000 0.820939 0.250000
Si Si3 0.398569 0.040444 0.342944
Si Si4 0.253273 0.391289 0.935090
Si Si5 0.292247 0.803405 0.316575
Si Si6 0.836662 0.156180 0.448355
Si Si7 0.252293 0.000000 0.000000
Si Si8 0.608953 0.457835 0.336542
O O1 0.225267 0.230257 0.547620
O O2 0.119148 0.274759 0.274634
O O3 0.131118 0.191223 0.230470
O O4 0.051520 0.211827 0.582235
O O5 0.927281 0.850194 0.392070
O O6 0.500000 0.056549 0.250000
O O7 0.336780 0.076685 0.463348
O O8 0.419602 0.000000 0.500000
O O9 0.324584 0.025215 0.158488
O O10 0.289959 0.382539 0.691032
O O11 0.212681 0.345544 0.028413
O O12 0.343989 0.415169 0.050049
O O13 0.241916 0.822572 0.104047
O O14 0.181663 0.029801 0.856733
O O15 0.610710 0.500000 0.500000
O O16 0.500000 0.452476 0.250000
#
# Coordination Sequence:
#
# PCOD9317519 Si02
#       8
#     8   4   8   8   8   8   4   8
#     4  10  19  40  66  92 129 177 244 281 340 416
#     4  10  22  38  66  96 132 186 248 286 336 430
#     4  12  25  46  80 106 130 183 241 299 364 431
#     4  11  25  43  69 109 148 180 235 299 363 417
#     4  10  21  39  70  93 130 188 226 287 353 403
#     4  10  22  42  65  97 135 186 224 294 348 421
#     4  12  22  44  76  96 136 180 232 288 350 430
#     4  12  25  46  70 105 147 193 233 281 357 442
#
# _framework density 21.369615
#
# number of rings (size 3 to 8) (size 9 to 14) (size 15 to 20)
#    0.000    1.143    5.714    0.429    2.000    0.000 
#   14.143    1.429    9.429    0.000    0.000    0.000 
#    0.000    0.000    0.000    0.000    0.000    0.000 
#
# Total GULP energy -156252.108563 kJ/mol
# GULP energy per Si atom -5580.432449 kJ/mol
# Density = 2.132098 g / cm^3
# Si number density = 21.369615 Si / 1000 Ang^3
#
#
#
# Elastic Constant Matrix: (Units=GPa)
#
#
# Indices 1 2 3 4 5 6 
#
# 1 94.2383 5.3835 18.5580 0.0000 0.0000 0.0000
# 2 5.3835 58.2526 6.2030 0.0000 0.0000 0.0000
# 3 18.5580 6.2030 81.9405 0.0000 0.0000 0.0000
# 4 0.0000 0.0000 0.0000 35.4538 0.0000 0.0000
# 5 0.0000 0.0000 0.0000 0.0000 22.3687 0.0000
# 6 0.0000 0.0000 0.0000 0.0000 0.0000 10.0313
#
#
#
# Elastic Compliance Matrix: (Units=1/GPa)
#
#
# Indices 1 2 3 4 5 6 
#
# 1 0.011141 -0.000767 -0.002465 0.000000 0.000000 0.000000
# 2 -0.000767 0.017359 -0.001140 0.000000 0.000000 0.000000
# 3 -0.002465 -0.001140 0.012849 0.000000 0.000000 0.000000
# 4 0.000000 0.000000 0.000000 0.028206 0.000000 0.000000
# 5 0.000000 0.000000 0.000000 0.000000 0.044705 0.000000
# 6 0.000000 0.000000 0.000000 0.000000 0.000000 0.099688
#
#
# Mechanical properties :
#
#
# Convention : Reuss Voigt Hill
#
# Bulk Modulus (GPa) = 30.67188 32.74670 31.70929
# Shear Modulus (GPa) = 21.40775 27.18987 24.29881
#
# Velocity S-wave (km/s) = 3.16853 3.57089 3.37571
# Velocity P-wave (km/s) = 5.26976 5.68849 5.48312
#
# Compressibility (1/GPa) = 0.03260315
#
# Stress axis : x y z
#
# Youngs Moduli (GPa) = 89.76130 57.60717 77.82954
#
# Poissons Ratio (x) = 0.04419 0.19186
# Poissons Ratio (y) = 0.06886 0.08875
# Poissons Ratio (z) = 0.22127 0.06569
#
# Static dielectric constant tensor:
#      x y z
#    x 1.791520 0.000000 0.000000 
#    y 0.000000 1.839090 0.000000 
#    z 0.000000 0.000000 1.793750 
# 
# From -- ./inp_files/2288.got.cif
#   From: 2010.05.17/outbox.cif.g08.bks.cpg/sg20_2_cif.got.tgz:2288.got - 2010.06.03 22:52:26.
