data_PCOD9317292
_publ_section_title
;
Structure prediction by ZEFSAII (Michael W. Deem and Ramdas Pophale) SiO2 
 PCOD9317292
Probable space group: C 2 2 21
;
_chemical_formula_sum "Si O2"
_cell_formula_units_Z 48
_cell_length_a 19.305715
_cell_length_b 8.483372
_cell_length_c 16.094162
_cell_angle_alpha 90.000000
_cell_angle_beta 90.000000
_cell_angle_gamma 90.000000
_cell_volume 2635.862616
_symmetry_space_group_name_H-M "C 2 2 21"
_symmetry_group_IT_number 20
_symmetry_cell_setting 'orthorhombic'
loop_
_space_group_symop_operation_xyz
x,y,z
-x,-y,1/2+z
x,-y,-z
-x,y,1/2-z
1/2+x,1/2+y,z
1/2-x,1/2-y,1/2+z
1/2+x,1/2-y,-z
1/2-x,1/2+y,1/2-z
loop_
_atom_site_type_symbol
_atom_site_label
_atom_site_fract_x
_atom_site_fract_y
_atom_site_fract_z
Si Si1 0.111308 0.751530 0.940223
Si Si2 0.171385 0.000000 0.500000
Si Si3 0.009542 0.500000 0.000000
Si Si4 0.573142 0.735661 0.591585
Si Si5 0.574802 0.590712 0.884332
Si Si6 0.164748 0.266108 0.749625
Si Si7 0.270775 0.943749 0.350285
O O1 0.180910 0.674570 0.904196
O O2 0.088186 0.904438 0.889002
O O3 0.108014 0.821209 0.034437
O O4 0.057612 0.607522 0.941765
O O5 0.121505 0.143489 0.526264
O O6 0.219298 0.977487 0.581526
O O7 0.962575 0.615602 0.051424
O O8 0.507436 0.625733 0.616410
O O9 0.619567 0.794426 0.667456
O O10 0.614869 0.663861 0.807738
O O11 0.228683 0.161127 0.716256
O O12 0.188790 0.420220 0.800203
#
# Coordination Sequence:
#
# PCOD9317292 Si02
#       7
#     8   4   4   8   8   8   8
#     4  10  20  36  61  82 108 148 189 227 272 338
#     4  10  21  38  58  76 109 150 188 226 268 334
#     4  10  19  36  60  84 107 138 188 234 274 332
#     4  10  21  37  58  84 110 144 184 233 285 327
#     4  10  20  38  60  84 111 145 188 233 283 333
#     4  11  23  37  56  81 118 148 183 235 282 337
#     4  11  22  38  56  83 113 152 190 226 282 333
#
# _framework density 18.210356999999998
#
# number of rings (size 3 to 8) (size 9 to 14) (size 15 to 20)
#    0.000    1.667    0.000    7.000    0.000    1.333 
#    0.000   10.000    0.000    0.000    0.000    0.000 
#    0.000    0.000    0.000    0.000    0.000    0.000 
#
# Total GULP energy -133868.689093 kJ/mol
# GULP energy per Si atom -5577.862046 kJ/mol
# Density = 1.816891 g / cm^3
# Si number density = 18.210357 Si / 1000 Ang^3
#
#
#
# Elastic Constant Matrix: (Units=GPa)
#
#
# Indices 1 2 3 4 5 6 
#
# 1 109.5662 64.5992 32.2468 0.0000 0.0000 0.0000
# 2 64.5992 94.1851 21.3627 0.0000 0.0000 0.0000
# 3 32.2468 21.3627 28.5189 0.0000 0.0000 0.0000
# 4 0.0000 0.0000 0.0000 11.6039 0.0000 0.0000
# 5 0.0000 0.0000 0.0000 0.0000 35.5183 0.0000
# 6 0.0000 0.0000 0.0000 0.0000 0.0000 14.8233
#
#
#
# Elastic Compliance Matrix: (Units=1/GPa)
#
#
# Indices 1 2 3 4 5 6 
#
# 1 0.019164 -0.009913 -0.014243 0.000000 0.000000 0.000000
# 2 -0.009913 0.017919 -0.002213 0.000000 0.000000 0.000000
# 3 -0.014243 -0.002213 0.052827 0.000000 0.000000 0.000000
# 4 0.000000 0.000000 0.000000 0.086178 0.000000 0.000000
# 5 0.000000 0.000000 0.000000 0.000000 0.028154 0.000000
# 6 0.000000 0.000000 0.000000 0.000000 0.000000 0.067461
#
#
# Mechanical properties :
#
#
# Convention : Reuss Voigt Hill
#
# Bulk Modulus (GPa) = 26.90306 52.07641 39.48973
# Shear Modulus (GPa) = 14.84420 19.99319 17.41870
#
# Velocity S-wave (km/s) = 2.85818 3.31706 3.09613
# Velocity P-wave (km/s) = 5.06930 6.58253 5.87484
#
# Compressibility (1/GPa) = 0.03717050
#
# Stress axis : x y z
#
# Youngs Moduli (GPa) = 52.18239 55.80767 18.92975
#
# Poissons Ratio (x) = 0.55324 0.26961
# Poissons Ratio (y) = 0.51730 0.04190
# Poissons Ratio (z) = 0.74322 0.12351
#
# Static dielectric constant tensor:
#      x y z
#    x 1.636790 0.000000 0.000000 
#    y 0.000000 1.601670 0.000000 
#    z 0.000000 0.000000 1.803060 
# 
# From -- ./inp_files/21322.got.cif
#   From: 2010.05.17/outbox.cif.g08.bks.cpg/sg20_11_cif.got.tgz:21322.got - 2010.06.03 22:52:26.
