data_PCOD9317633
_publ_section_title
;
Structure prediction by ZEFSAII (Michael W. Deem and Ramdas Pophale) SiO2 
 PCOD9317633
Probable space group: C 2 2 21
;
_chemical_formula_sum "Si O2"
_cell_formula_units_Z 32
_cell_length_a 14.720355
_cell_length_b 18.412178
_cell_length_c 5.153748
_cell_angle_alpha 90.000000
_cell_angle_beta 90.000000
_cell_angle_gamma 90.000000
_cell_volume 1396.839887
_symmetry_space_group_name_H-M "C 2 2 21"
_symmetry_group_IT_number 20
_symmetry_cell_setting 'orthorhombic'
loop_
_space_group_symop_operation_xyz
x,y,z
-x,-y,1/2+z
x,-y,-z
-x,y,1/2-z
1/2+x,1/2+y,z
1/2-x,1/2-y,1/2+z
1/2+x,1/2-y,-z
1/2-x,1/2+y,1/2-z
loop_
_atom_site_type_symbol
_atom_site_label
_atom_site_fract_x
_atom_site_fract_y
_atom_site_fract_z
Si Si1 0.290520 0.176972 0.905564
Si Si2 0.426311 0.578438 0.067838
Si Si3 0.397355 0.284239 0.220110
Si Si4 0.218781 0.578576 0.105430
O O1 0.189011 0.213235 0.915377
O O2 0.295174 0.133936 0.634672
O O3 0.358013 0.242973 0.968485
O O4 0.313877 0.119012 0.134553
O O5 0.500000 0.616053 0.250000
O O6 0.325505 0.566821 0.176197
O O7 0.463994 0.500000 0.000000
O O8 0.409365 0.630231 0.828217
O O9 0.500000 0.255202 0.250000
O O10 0.185265 0.500000 0.000000
#
# Coordination Sequence:
#
# PCOD9317633 Si02
#       4
#     8   8   8   8
#     4  11  23  41  63  97 130 166 221 265 317 396
#     4  10  20  33  54  89 129 168 209 252 312 393
#     4  11  23  40  65  95 133 175 212 265 325 381
#     4  10  22  40  64  89 125 169 213 270 327 376
#
# _framework density 22.908854999999999
#
# number of rings (size 3 to 8) (size 9 to 14) (size 15 to 20)
#    0.000    1.500    0.000    6.000    0.000    6.000 
#    0.000    0.000    0.000    3.000    0.000    0.000 
#    0.000    0.000    0.000    0.000    0.000    0.000 
#
# Total GULP energy -89165.591665 kJ/mol
# GULP energy per Si atom -5572.849479 kJ/mol
# Density = 2.285671 g / cm^3
# Si number density = 22.908855 Si / 1000 Ang^3
#
#
#
# Elastic Constant Matrix: (Units=GPa)
#
#
# Indices 1 2 3 4 5 6 
#
# 1 104.6404 25.2369 18.7667 0.0000 0.0000 0.0000
# 2 25.2369 123.2452 42.0043 0.0000 0.0000 0.0000
# 3 18.7667 42.0043 113.0521 0.0000 0.0000 0.0000
# 4 0.0000 0.0000 0.0000 30.3395 0.0000 0.0000
# 5 0.0000 0.0000 0.0000 0.0000 37.9664 0.0000
# 6 0.0000 0.0000 0.0000 0.0000 0.0000 13.6409
#
#
#
# Elastic Compliance Matrix: (Units=1/GPa)
#
#
# Indices 1 2 3 4 5 6 
#
# 1 0.010160 -0.001724 -0.001046 0.000000 0.000000 0.000000
# 2 -0.001724 0.009583 -0.003274 0.000000 0.000000 0.000000
# 3 -0.001046 -0.003274 0.010236 0.000000 0.000000 0.000000
# 4 0.000000 0.000000 0.000000 0.032960 0.000000 0.000000
# 5 0.000000 0.000000 0.000000 0.000000 0.026339 0.000000
# 6 0.000000 0.000000 0.000000 0.000000 0.000000 0.073309
#
#
# Mechanical properties :
#
#
# Convention : Reuss Voigt Hill
#
# Bulk Modulus (GPa) = 55.89745 56.99482 56.44614
# Shear Modulus (GPa) = 27.67959 33.38469 30.53214
#
# Velocity S-wave (km/s) = 3.47976 3.82158 3.65467
# Velocity P-wave (km/s) = 6.37164 6.66375 6.51933
#
# Compressibility (1/GPa) = 0.01788990
#
# Stress axis : x y z
#
# Youngs Moduli (GPa) = 98.42600 104.35285 97.69744
#
# Poissons Ratio (x) = 0.17990 0.10219
# Poissons Ratio (y) = 0.16968 0.31989
# Poissons Ratio (z) = 0.10296 0.34168
#
# Static dielectric constant tensor:
#      x y z
#    x 1.876900 0.000000 0.000000 
#    y 0.000000 1.896770 0.000000 
#    z 0.000000 0.000000 2.030400 
# 
# From -- ./inp_files/994.got.cif
#   From: 2010.05.17/outbox.cif.g08.bks.cpg/sg20_1_cif.got.tgz:994.got - 2010.06.03 22:52:26.
