data_PCOD9317623
_publ_section_title
;
Structure prediction by ZEFSAII (Michael W. Deem and Ramdas Pophale) SiO2 
 PCOD9317623
Probable space group: C 2 2 21
;
_chemical_formula_sum "Si O2"
_cell_formula_units_Z 64
_cell_length_a 7.639647
_cell_length_b 23.488356
_cell_length_c 16.565905
_cell_angle_alpha 90.000000
_cell_angle_beta 90.000000
_cell_angle_gamma 90.000000
_cell_volume 2972.631524
_symmetry_space_group_name_H-M "C 2 2 21"
_symmetry_group_IT_number 20
_symmetry_cell_setting 'orthorhombic'
loop_
_space_group_symop_operation_xyz
x,y,z
-x,-y,1/2+z
x,-y,-z
-x,y,1/2-z
1/2+x,1/2+y,z
1/2-x,1/2-y,1/2+z
1/2+x,1/2-y,-z
1/2-x,1/2+y,1/2-z
loop_
_atom_site_type_symbol
_atom_site_label
_atom_site_fract_x
_atom_site_fract_y
_atom_site_fract_z
Si Si1 0.713596 0.959807 0.925325
Si Si2 0.784704 0.511494 0.748437
Si Si3 0.204083 0.784631 0.096108
Si Si4 0.787069 0.537201 0.077996
Si Si5 0.688709 0.720807 0.640817
Si Si6 0.218604 0.331885 0.567119
Si Si7 0.201521 0.330323 0.968453
Si Si8 0.194574 0.636310 0.725683
O O1 0.500321 0.963233 0.924504
O O2 0.758960 0.893881 0.944234
O O3 0.769260 0.982209 0.836346
O O4 0.772353 0.000000 0.000000
O O5 0.730574 0.484884 0.834226
O O6 0.715847 0.576435 0.755525
O O7 0.000000 0.508087 0.750000
O O8 0.278666 0.720826 0.087373
O O9 0.304737 0.836836 0.137011
O O10 0.019810 0.780721 0.139404
O O11 0.173313 0.804366 0.005179
O O12 0.733153 0.602931 0.074664
O O13 0.729591 0.500000 0.000000
O O14 0.743201 0.786947 0.638985
O O15 0.754487 0.687446 0.560394
O O16 0.748272 0.687172 0.717735
O O17 0.010671 0.328293 0.543653
O O18 0.000000 0.623160 0.750000
#
# Coordination Sequence:
#
# PCOD9317623 Si02
#       8
#     8   8   8   8   8   8   8   8
#     4   9  16  28  49  76 103 130 167 216 261 300
#     4   9  18  30  49  77 101 127 170 223 266 302
#     4  10  20  33  51  76 105 134 166 207 254 306
#     4   9  16  28  49  76 103 130 167 216 261 300
#     4  10  20  33  51  76 105 134 166 207 254 306
#     4   9  18  33  53  76 101 131 168 208 254 308
#     4   9  18  33  53  76 101 131 168 208 254 308
#     4  11  21  34  53  75 101 133 172 213 256 304
#
# _framework density 21.529744999999998
#
# number of rings (size 3 to 8) (size 9 to 14) (size 15 to 20)
#    0.000    2.500    0.000    2.625    0.000    6.000 
#    0.000    3.750    0.000    8.250    0.000    0.000 
#    0.000    0.000    0.000    0.000    0.000    0.000 
#
# Total GULP energy -178380.661528 kJ/mol
# GULP energy per Si atom -5574.395673 kJ/mol
# Density = 2.148074 g / cm^3
# Si number density = 21.529745 Si / 1000 Ang^3
#
#
#
# Elastic Constant Matrix: (Units=GPa)
#
#
# Indices 1 2 3 4 5 6 
#
# 1 24.2318 1.5784 -0.3628 0.0000 0.0000 0.0000
# 2 1.5784 189.0098 73.2594 0.0000 0.0000 0.0000
# 3 -0.3628 73.2594 113.1870 0.0000 0.0000 0.0000
# 4 0.0000 0.0000 0.0000 -58.9837 0.0000 0.0000
# 5 0.0000 0.0000 0.0000 0.0000 18.8747 0.0000
# 6 0.0000 0.0000 0.0000 0.0000 0.0000 13.2686
#
#
#
# Elastic Compliance Matrix: (Units=1/GPa)
#
#
# Indices 1 2 3 4 5 6 
#
# 1 0.041310 -0.000529 0.000475 0.000000 0.000000 0.000000
# 2 -0.000529 0.007069 -0.004577 0.000000 0.000000 0.000000
# 3 0.000475 -0.004577 0.011799 0.000000 0.000000 0.000000
# 4 0.000000 0.000000 0.000000 -0.016954 0.000000 0.000000
# 5 0.000000 0.000000 0.000000 0.000000 0.052981 0.000000
# 6 0.000000 0.000000 0.000000 0.000000 0.000000 0.075366
#
#
# Mechanical properties :
#
#
# Convention : Reuss Voigt Hill
#
# Bulk Modulus (GPa) = 19.64056 52.81987 36.23022
# Shear Modulus (GPa) = 25.27736 11.42883 18.35309
#
# Velocity S-wave (km/s) = 3.43018 2.30649 2.92285
# Velocity P-wave (km/s) = 4.98302 5.62849 5.31556
#
# Compressibility (1/GPa) = 0.05091505
#
# Stress axis : x y z
#
# Youngs Moduli (GPa) = 24.20743 141.45755 84.75272
#
# Poissons Ratio (x) = 0.07483 -0.04024
# Poissons Ratio (y) = 0.01281 0.38793
# Poissons Ratio (z) = -0.01149 0.64748
#
# Static dielectric constant tensor:
#      x y z
#    x 1.849670 0.000000 0.000000 
#    y 0.000000 1.828880 0.000000 
#    z 0.000000 0.000000 1.755330 
# 
# From -- ./inp_files/19370.got.cif
#   From: 2010.05.17/outbox.cif.g08.bks.cpg/sg20_10_cif.got.tgz:19370.got - 2010.06.03 22:52:26.
