data_PCOD9317243
_publ_section_title
;
Structure prediction by ZEFSAII (Michael W. Deem and Ramdas Pophale) SiO2 
 PCOD9317243
Probable space group: C 2 2 21
;
_chemical_formula_sum "Si O2"
_cell_formula_units_Z 48
_cell_length_a 8.649865
_cell_length_b 9.208816
_cell_length_c 23.363055
_cell_angle_alpha 90.000000
_cell_angle_beta 90.000000
_cell_angle_gamma 90.000000
_cell_volume 1860.984501
_symmetry_space_group_name_H-M "C 2 2 21"
_symmetry_group_IT_number 20
_symmetry_cell_setting 'orthorhombic'
loop_
_space_group_symop_operation_xyz
x,y,z
-x,-y,1/2+z
x,-y,-z
-x,y,1/2-z
1/2+x,1/2+y,z
1/2-x,1/2-y,1/2+z
1/2+x,1/2-y,-z
1/2-x,1/2+y,1/2-z
loop_
_atom_site_type_symbol
_atom_site_label
_atom_site_fract_x
_atom_site_fract_y
_atom_site_fract_z
Si Si1 0.588740 0.300145 0.306828
Si Si2 0.415725 0.400145 0.690553
Si Si3 0.840190 0.848423 0.068428
Si Si4 0.162512 0.539072 0.231883
Si Si5 0.810857 0.835264 0.880041
Si Si6 0.678542 0.342549 0.020116
O O1 0.500000 0.228865 0.250000
O O2 0.460542 0.432253 0.320618
O O3 0.628605 0.261135 0.372728
O O4 0.300475 0.135428 0.324986
O O5 0.500000 0.363754 0.750000
O O6 0.236720 0.387898 0.709916
O O7 0.512577 0.316300 0.642634
O O8 0.801278 0.013226 0.085420
O O9 0.997645 0.848061 0.032775
O O10 0.213875 0.271561 0.029657
O O11 0.271005 0.400398 0.217230
O O12 0.000000 0.471693 0.250000
O O13 0.760055 0.708341 0.921520
O O14 0.733703 0.500000 0.000000
#
# Coordination Sequence:
#
# PCOD9317243 Si02
#       6
#     8   8   8   8   8   8
#     4   9  18  37  65  95 134 175 216 279 354 418
#     4   8  17  35  63  96 136 182 222 275 350 423
#     4  11  26  48  72 101 142 189 242 300 361 430
#     4  10  19  35  69 110 141 180 232 288 354 432
#     4  10  22  45  73 101 145 192 233 294 366 430
#     4  12  26  46  72 101 137 188 247 306 360 421
#
# _framework density 25.792801000000001
#
# number of rings (size 3 to 8) (size 9 to 14) (size 15 to 20)
#    0.000    2.000    0.000    4.500    0.000    5.333 
#    0.000    8.333    0.000  100.000    0.000    0.000 
#    0.000    0.000    0.000    0.000    0.000    0.000 
#
# Total GULP energy -134152.874793 kJ/mol
# GULP energy per Si atom -5589.703116 kJ/mol
# Density = 2.573410 g / cm^3
# Si number density = 25.792801 Si / 1000 Ang^3
#
#
#
# Elastic Constant Matrix: (Units=GPa)
#
#
# Indices 1 2 3 4 5 6 
#
# 1 136.5326 7.8905 87.7577 0.0000 0.0000 0.0000
# 2 7.8905 91.1940 65.4012 0.0000 0.0000 0.0000
# 3 87.7577 65.4012 183.7215 0.0000 0.0000 0.0000
# 4 0.0000 0.0000 0.0000 62.7524 0.0000 0.0000
# 5 0.0000 0.0000 0.0000 0.0000 73.6709 0.0000
# 6 0.0000 0.0000 0.0000 0.0000 0.0000 0.0355
#
#
#
# Elastic Compliance Matrix: (Units=1/GPa)
#
#
# Indices 1 2 3 4 5 6 
#
# 1 0.011549 0.003971 -0.006930 0.000000 0.000000 0.000000
# 2 0.003971 0.016090 -0.007624 0.000000 0.000000 0.000000
# 3 -0.006930 -0.007624 0.011468 0.000000 0.000000 0.000000
# 4 0.000000 0.000000 0.000000 0.015936 0.000000 0.000000
# 5 0.000000 0.000000 0.000000 0.000000 0.013574 0.000000
# 6 0.000000 0.000000 0.000000 0.000000 0.000000 28.176098
#
#
# Mechanical properties :
#
#
# Convention : Reuss Voigt Hill
#
# Bulk Modulus (GPa) = 55.74417 81.50521 68.62469
# Shear Modulus (GPa) = 0.17685 43.98501 22.08093
#
# Velocity S-wave (km/s) = 0.26214 4.13403 2.92907
# Velocity P-wave (km/s) = 4.66378 7.37940 6.17278
#
# Compressibility (1/GPa) = 0.01793910
#
# Stress axis : x y z
#
# Youngs Moduli (GPa) = 86.58568 62.15009 87.20271
#
# Poissons Ratio (x) = -0.24679 0.60434
# Poissons Ratio (y) = -0.34382 0.66488
# Poissons Ratio (z) = 0.60006 0.47386
#
# Static dielectric constant tensor:
#      x y z
#    x 2.236820 0.000000 0.000000 
#    y 0.000000 2.207950 0.000000 
#    z 0.000000 0.000000 2.033830 
# 
# From -- ./inp_files/28786.got.cif
#   From: 2010.05.17/outbox.cif.g08.bks.cpg/sg20_15_cif.got.tgz:28786.got - 2010.06.03 22:52:26.
