data_PCOD9317995
_publ_section_title
;
Structure prediction by ZEFSAII (Michael W. Deem and Ramdas Pophale) SiO2 
 PCOD9317995
Probable space group: C 2 2 21
;
_chemical_formula_sum "Si O2"
_cell_formula_units_Z 48
_cell_length_a 16.986878
_cell_length_b 9.288072
_cell_length_c 13.508240
_cell_angle_alpha 90.000000
_cell_angle_beta 90.000000
_cell_angle_gamma 90.000000
_cell_volume 2131.267239
_symmetry_space_group_name_H-M "C 2 2 21"
_symmetry_group_IT_number 20
_symmetry_cell_setting 'orthorhombic'
loop_
_space_group_symop_operation_xyz
x,y,z
-x,-y,1/2+z
x,-y,-z
-x,y,1/2-z
1/2+x,1/2+y,z
1/2-x,1/2-y,1/2+z
1/2+x,1/2-y,-z
1/2-x,1/2+y,1/2-z
loop_
_atom_site_type_symbol
_atom_site_label
_atom_site_fract_x
_atom_site_fract_y
_atom_site_fract_z
Si Si1 0.397581 0.741102 0.988477
Si Si2 0.146547 0.297936 0.739907
Si Si3 0.847255 0.131492 0.399285
Si Si4 0.067291 0.165063 0.916372
Si Si5 0.707080 0.110014 0.796700
Si Si6 0.698078 0.000000 0.500000
Si Si7 0.782065 0.000000 0.000000
O O1 0.377812 0.767500 0.872420
O O2 0.487275 0.692021 0.977035
O O3 0.342651 0.620974 0.035948
O O4 0.363419 0.882818 0.040863
O O5 0.079056 0.257934 0.818549
O O6 0.217888 0.182806 0.758148
O O7 0.170866 0.463674 0.755194
O O8 0.866743 0.207084 0.503666
O O9 0.848076 0.250588 0.314739
O O10 0.909181 0.000257 0.389152
O O11 0.760136 0.067631 0.421175
O O12 0.735132 0.061759 0.907133
#
# Coordination Sequence:
#
# PCOD9317995 Si02
#       7
#     8   8   8   8   8   4   4
#     4  11  23  39  60  93 127 171 201 262 323 377
#     4  11  23  36  61  89 133 155 213 255 329 368
#     4  10  21  41  65  91 118 168 220 257 310 368
#     4  10  22  39  63  86 129 166 205 259 317 384
#     4  11  22  37  62  96 119 166 212 273 306 375
#     4  10  20  39  61  88 126 154 216 258 302 369
#     4  10  20  37  59  90 124 154 222 248 316 373
#
# _framework density 22.521813000000002
#
# number of rings (size 3 to 8) (size 9 to 14) (size 15 to 20)
#    0.000    1.667    3.333    3.500    4.667    1.333 
#    0.000    0.000    0.000    6.000    0.000    0.000 
#    0.000    0.000    0.000    0.000    0.000    0.000 
#
# Total GULP energy -133784.192802 kJ/mol
# GULP energy per Si atom -5574.341367 kJ/mol
# Density = 2.247055 g / cm^3
# Si number density = 22.521813 Si / 1000 Ang^3
#
#
#
# Elastic Constant Matrix: (Units=GPa)
#
#
# Indices 1 2 3 4 5 6 
#
# 1 100.0723 48.8396 17.8154 0.0000 0.0000 0.0000
# 2 48.8396 138.4607 6.6021 0.0000 0.0000 0.0000
# 3 17.8154 6.6021 41.1098 0.0000 0.0000 0.0000
# 4 0.0000 0.0000 0.0000 34.0026 0.0000 0.0000
# 5 0.0000 0.0000 0.0000 0.0000 -87.3561 0.0000
# 6 0.0000 0.0000 0.0000 0.0000 0.0000 -19.8176
#
#
#
# Elastic Compliance Matrix: (Units=1/GPa)
#
#
# Indices 1 2 3 4 5 6 
#
# 1 0.012993 -0.004348 -0.004932 0.000000 0.000000 0.000000
# 2 -0.004348 0.008733 0.000482 0.000000 0.000000 0.000000
# 3 -0.004932 0.000482 0.026385 0.000000 0.000000 0.000000
# 4 0.000000 0.000000 0.000000 0.029410 0.000000 0.000000
# 5 0.000000 0.000000 0.000000 0.000000 -0.011447 0.000000
# 6 0.000000 0.000000 0.000000 0.000000 0.000000 -0.050460
#
#
# Mechanical properties :
#
#
# Convention : Reuss Voigt Hill
#
# Bulk Modulus (GPa) = 32.77178 47.35077 40.06127
# Shear Modulus (GPa) = 115.25811 -0.87515 57.19148
#
# Velocity S-wave (km/s) = 7.16152 -0.62404 5.04469
# Velocity P-wave (km/s) = 9.10856 4.53330 7.19432
#
# Compressibility (1/GPa) = 0.03051406
#
# Stress axis : x y z
#
# Youngs Moduli (GPa) = 76.96598 114.50948 37.89998
#
# Poissons Ratio (x) = 0.49786 0.18694
# Poissons Ratio (y) = 0.33463 -0.01826
# Poissons Ratio (z) = 0.37962 -0.05516
#
# Static dielectric constant tensor:
#      x y z
#    x 1.872250 0.000000 0.000000 
#    y 0.000000 3.123560 0.000000 
#    z 0.000000 0.000000 1.903810 
# 
# From -- ./inp_files/21332.got.cif
#   From: 2010.05.17/outbox.cif.g08.bks.cpg/sg20_11_cif.got.tgz:21332.got - 2010.06.03 22:52:26.
