data_PCOD9317061
_publ_section_title
;
Structure prediction by ZEFSAII (Michael W. Deem and Ramdas Pophale) SiO2 
 PCOD9317061
Probable space group: C 2 2 21
;
_chemical_formula_sum "Si O2"
_cell_formula_units_Z 60
_cell_length_a 25.192782
_cell_length_b 13.980292
_cell_length_c 8.795658
_cell_angle_alpha 90.000000
_cell_angle_beta 90.000000
_cell_angle_gamma 90.000000
_cell_volume 3097.852285
_symmetry_space_group_name_H-M "C 2 2 21"
_symmetry_group_IT_number 20
_symmetry_cell_setting 'orthorhombic'
loop_
_space_group_symop_operation_xyz
x,y,z
-x,-y,1/2+z
x,-y,-z
-x,y,1/2-z
1/2+x,1/2+y,z
1/2-x,1/2-y,1/2+z
1/2+x,1/2-y,-z
1/2-x,1/2+y,1/2-z
loop_
_atom_site_type_symbol
_atom_site_label
_atom_site_fract_x
_atom_site_fract_y
_atom_site_fract_z
Si Si1 0.313317 0.692646 0.343315
Si Si2 0.616125 0.811886 0.953567
Si Si3 0.240970 0.121239 0.690924
Si Si4 0.986080 0.603005 0.573578
Si Si5 0.849131 0.205405 0.000312
Si Si6 0.813768 0.500000 0.500000
Si Si7 0.721624 0.105153 0.479769
Si Si8 0.051394 0.266158 0.654217
O O1 0.354492 0.718554 0.478358
O O2 0.275845 0.786018 0.351342
O O3 0.341046 0.687366 0.179425
O O4 0.268727 0.610773 0.356360
O O5 0.591009 0.801222 0.787197
O O6 0.567062 0.834579 0.063856
O O7 0.652174 0.907199 0.955271
O O8 0.186167 0.134366 0.602711
O O9 0.275492 0.032841 0.634310
O O10 0.242473 0.124114 0.870922
O O11 0.975198 0.500000 0.500000
O O12 0.000000 0.592706 0.750000
O O13 0.028803 0.653935 0.462270
O O14 0.822766 0.311796 0.971086
O O15 0.910034 0.201353 0.948042
O O16 0.697438 0.000000 0.500000
O O17 0.000000 0.229040 0.750000
#
# Coordination Sequence:
#
# PCOD9317061 Si02
#       8
#     8   8   8   8   8   4   8   8
#     4   9  19  35  53  76 109 152 187 228 278 341
#     4  10  19  34  53  74 112 152 184 228 283 334
#     4   9  20  33  51  77 108 148 186 227 275 338
#     4  11  21  34  51  76 112 143 192 239 276 336
#     4  10  20  37  54  75 113 152 191 232 287 335
#     4  10  20  30  54  78 112 146 188 220 282 330
#     4  10  21  33  52  80 111 147 194 232 280 341
#     4  10  22  35  53  79 106 148 193 234 283 330
#
# _framework density 19.368258999999998
#
# number of rings (size 3 to 8) (size 9 to 14) (size 15 to 20)
#    0.000    2.133    0.667    2.800    3.733    2.667 
#    0.000    0.000    0.000    0.000    0.000    0.000 
#   18.000    0.267    0.000    0.000    0.000    0.000 
#
# Total GULP energy -167103.725652 kJ/mol
# GULP energy per Si atom -5570.124188 kJ/mol
# Density = 1.932418 g / cm^3
# Si number density = 19.368259 Si / 1000 Ang^3
#
#
#
# Elastic Constant Matrix: (Units=GPa)
#
#
# Indices 1 2 3 4 5 6 
#
# 1 75.3161 15.8224 44.9821 0.0000 0.0000 0.0000
# 2 15.8224 15.0049 7.5821 0.0000 0.0000 0.0000
# 3 44.9821 7.5821 78.3633 0.0000 0.0000 0.0000
# 4 0.0000 0.0000 0.0000 20.6476 0.0000 0.0000
# 5 0.0000 0.0000 0.0000 0.0000 23.1682 0.0000
# 6 0.0000 0.0000 0.0000 0.0000 0.0000 21.2640
#
#
#
# Elastic Compliance Matrix: (Units=1/GPa)
#
#
# Indices 1 2 3 4 5 6 
#
# 1 0.024828 -0.019955 -0.012321 0.000000 0.000000 0.000000
# 2 -0.019955 0.086109 0.003123 0.000000 0.000000 0.000000
# 3 -0.012321 0.003123 0.019531 0.000000 0.000000 0.000000
# 4 0.000000 0.000000 0.000000 0.048432 0.000000 0.000000
# 5 0.000000 0.000000 0.000000 0.000000 0.043163 0.000000
# 6 0.000000 0.000000 0.000000 0.000000 0.000000 0.047028
#
#
# Mechanical properties :
#
#
# Convention : Reuss Voigt Hill
#
# Bulk Modulus (GPa) = 13.85758 33.93971 23.89865
# Shear Modulus (GPa) = 14.22670 19.70247 16.96459
#
# Velocity S-wave (km/s) = 2.71317 3.19290 2.96277
# Velocity P-wave (km/s) = 4.12134 5.58160 4.90610
#
# Compressibility (1/GPa) = 0.07216265
#
# Stress axis : x y z
#
# Youngs Moduli (GPa) = 40.27669 11.61315 51.19939
#
# Poissons Ratio (x) = 0.23174 0.63083
# Poissons Ratio (y) = 0.80372 -0.15990
# Poissons Ratio (z) = 0.49625 -0.03627
#
# Static dielectric constant tensor:
#      x y z
#    x 1.711060 0.000000 0.000000 
#    y 0.000000 1.709760 0.000000 
#    z 0.000000 0.000000 1.810910 
# 
# From -- ./inp_files/10756.got.cif
#   From: 2010.05.17/outbox.cif.g08.bks.cpg/sg20_6_cif.got.tgz:10756.got - 2010.06.03 22:52:26.
