data_PCOD9317150
_publ_section_title
;
Structure prediction by ZEFSAII (Michael W. Deem and Ramdas Pophale) SiO2 
 PCOD9317150
Probable space group: C 2 2 21
;
_chemical_formula_sum "Si O2"
_cell_formula_units_Z 60
_cell_length_a 17.923194
_cell_length_b 5.986580
_cell_length_c 25.190927
_cell_angle_alpha 90.000000
_cell_angle_beta 90.000000
_cell_angle_gamma 90.000000
_cell_volume 2702.952075
_symmetry_space_group_name_H-M "C 2 2 21"
_symmetry_group_IT_number 20
_symmetry_cell_setting 'orthorhombic'
loop_
_space_group_symop_operation_xyz
x,y,z
-x,-y,1/2+z
x,-y,-z
-x,y,1/2-z
1/2+x,1/2+y,z
1/2-x,1/2-y,1/2+z
1/2+x,1/2-y,-z
1/2-x,1/2+y,1/2-z
loop_
_atom_site_type_symbol
_atom_site_label
_atom_site_fract_x
_atom_site_fract_y
_atom_site_fract_z
Si Si1 0.543066 0.223465 0.595514
Si Si2 0.742114 0.723647 0.301352
Si Si3 0.429481 0.521878 0.339420
Si Si4 0.419748 0.145944 0.428946
Si Si5 0.332175 0.094147 0.135266
Si Si6 0.493251 0.500000 0.500000
Si Si7 0.628439 0.391534 0.271058
Si Si8 0.301779 0.139553 0.616454
O O1 0.506043 0.349792 0.645922
O O2 0.618380 0.091295 0.606562
O O3 0.542242 0.403421 0.548121
O O4 0.485514 0.030918 0.578524
O O5 0.727332 0.951965 0.331197
O O6 0.661453 0.633666 0.284724
O O7 0.799811 0.767894 0.254885
O O8 0.777008 0.535838 0.338704
O O9 0.420075 0.310293 0.378101
O O10 0.425028 0.432961 0.279213
O O11 0.363655 0.693921 0.357500
O O12 0.440153 0.304828 0.477699
O O13 0.344099 0.003678 0.428221
O O14 0.382999 0.246845 0.175174
O O15 0.276222 0.244618 0.100363
#
# Coordination Sequence:
#
# PCOD9317150 Si02
#       8
#     8   8   8   8   8   4   8   8
#     4  10  24  42  63  99 129 178 231 284 349 416
#     4  11  19  33  57  90 125 178 231 265 323 398
#     4  10  20  37  61  88 132 175 225 276 323 397
#     4  10  20  40  68 100 119 168 228 287 343 409
#     4  11  23  36  59  98 138 183 226 279 339 414
#     4  10  22  42  72  98 122 174 236 292 360 424
#     4  11  19  32  57  87 129 182 231 269 327 396
#     4  10  19  34  63  96 128 173 218 280 327 404
#
# _framework density 22.197951
#
# number of rings (size 3 to 8) (size 9 to 14) (size 15 to 20)
#    0.000    1.600    4.000    1.200    0.000    4.267 
#    0.000    4.000    0.000    0.000  156.000    0.000 
#    0.000    0.000    0.000    0.000    0.000    0.000 
#
# Total GULP energy -167494.318019 kJ/mol
# GULP energy per Si atom -5583.143934 kJ/mol
# Density = 2.214743 g / cm^3
# Si number density = 22.197951 Si / 1000 Ang^3
#
#
#
# Elastic Constant Matrix: (Units=GPa)
#
#
# Indices 1 2 3 4 5 6 
#
# 1 99.4403 43.8395 45.5121 0.0000 0.0000 0.0000
# 2 43.8395 92.7433 22.9231 0.0000 0.0000 0.0000
# 3 45.5121 22.9231 58.3671 0.0000 0.0000 0.0000
# 4 0.0000 0.0000 0.0000 39.3625 0.0000 0.0000
# 5 0.0000 0.0000 0.0000 0.0000 13.9585 0.0000
# 6 0.0000 0.0000 0.0000 0.0000 0.0000 45.0146
#
#
#
# Elastic Compliance Matrix: (Units=1/GPa)
#
#
# Indices 1 2 3 4 5 6 
#
# 1 0.017889 -0.005547 -0.011770 0.000000 0.000000 0.000000
# 2 -0.005547 0.013661 -0.001040 0.000000 0.000000 0.000000
# 3 -0.011770 -0.001040 0.026720 0.000000 0.000000 0.000000
# 4 0.000000 0.000000 0.000000 0.025405 0.000000 0.000000
# 5 0.000000 0.000000 0.000000 0.000000 0.071641 0.000000
# 6 0.000000 0.000000 0.000000 0.000000 0.000000 0.022215
#
#
# Mechanical properties :
#
#
# Convention : Reuss Voigt Hill
#
# Bulk Modulus (GPa) = 46.39325 52.78891 49.59108
# Shear Modulus (GPa) = 22.58043 28.88551 25.73297
#
# Velocity S-wave (km/s) = 3.19286 3.61122 3.40847
# Velocity P-wave (km/s) = 5.87688 6.42032 6.15460
#
# Compressibility (1/GPa) = 0.02155486
#
# Stress axis : x y z
#
# Youngs Moduli (GPa) = 55.90108 73.19845 37.42573
#
# Poissons Ratio (x) = 0.40601 0.44052
# Poissons Ratio (y) = 0.31007 0.03894
# Poissons Ratio (z) = 0.65798 0.07615
#
# Static dielectric constant tensor:
#      x y z
#    x 1.871400 0.000000 0.000000 
#    y 0.000000 1.842410 0.000000 
#    z 0.000000 0.000000 1.839430 
# 
# From -- ./inp_files/30510.got.cif
#   From: 2010.05.17/outbox.cif.g08.bks.cpg/sg20_16_cif.got.tgz:30510.got - 2010.06.03 22:52:26.
