data_PCOD9317629
_publ_section_title
;
Structure prediction by ZEFSAII (Michael W. Deem and Ramdas Pophale) SiO2 
 PCOD9317629
Probable space group: C 2 2 21
;
_chemical_formula_sum "Si O2"
_cell_formula_units_Z 56
_cell_length_a 25.773039
_cell_length_b 26.115516
_cell_length_c 5.182598
_cell_angle_alpha 90.000000
_cell_angle_beta 90.000000
_cell_angle_gamma 90.000000
_cell_volume 3488.283432
_symmetry_space_group_name_H-M "C 2 2 21"
_symmetry_group_IT_number 20
_symmetry_cell_setting 'orthorhombic'
loop_
_space_group_symop_operation_xyz
x,y,z
-x,-y,1/2+z
x,-y,-z
-x,y,1/2-z
1/2+x,1/2+y,z
1/2-x,1/2-y,1/2+z
1/2+x,1/2-y,-z
1/2-x,1/2+y,1/2-z
loop_
_atom_site_type_symbol
_atom_site_label
_atom_site_fract_x
_atom_site_fract_y
_atom_site_fract_z
Si Si1 0.944685 0.945949 0.885154
Si Si2 0.860766 0.193618 0.796377
Si Si3 0.966291 0.835891 0.012009
Si Si4 0.720237 0.771418 0.806632
Si Si5 0.731463 0.371686 0.556316
Si Si6 0.717910 0.534654 0.751160
Si Si7 0.854753 0.099334 0.460138
O O1 0.900754 0.926372 0.692919
O O2 0.000000 0.954597 0.750000
O O3 0.953076 0.896027 0.063234
O O4 0.929438 0.000000 0.000000
O O5 0.910964 0.192476 0.977385
O O6 0.837257 0.248311 0.723566
O O7 0.871387 0.155389 0.557057
O O8 0.812067 0.164533 0.925903
O O9 0.000000 0.816427 0.250000
O O10 0.000000 0.832930 0.750000
O O11 0.753537 0.757566 0.550927
O O12 0.724985 0.832078 0.852363
O O13 0.749055 0.415215 0.353921
O O14 0.698038 0.395465 0.791225
O O15 0.714184 0.500000 0.500000
O O16 0.733532 0.500000 0.000000
O O17 0.662569 0.560771 0.815180
#
# Coordination Sequence:
#
# PCOD9317629 Si02
#       7
#     8   8   8   8   8   8   8
#     4  11  24  38  47  66  89 127 172 229 275 314
#     4  10  20  35  53  75  98 128 161 212 275 321
#     4  11  23  37  54  69  93 128 170 218 262 317
#     4  10  20  33  54  77 103 123 154 211 273 326
#     4  10  20  35  52  78  97 123 167 210 267 325
#     4  11  23  35  51  71  95 129 164 205 250 310
#     4  11  21  36  54  70  92 124 168 215 270 316
#
# _framework density 16.053740999999999
#
# number of rings (size 3 to 8) (size 9 to 14) (size 15 to 20)
#    0.000    1.429    4.286    2.143    2.000    0.571 
#    0.000    0.000    0.000    0.000    0.000    0.000 
#    0.000    0.000    0.000    0.000    0.000    0.000 
#
# Total GULP energy -156196.913543 kJ/mol
# GULP energy per Si atom -5578.461198 kJ/mol
# Density = 1.601720 g / cm^3
# Si number density = 16.053741 Si / 1000 Ang^3
#
#
#
# Elastic Constant Matrix: (Units=GPa)
#
#
# Indices 1 2 3 4 5 6 
#
# 1 64.4970 56.9658 28.6987 0.0000 0.0000 0.0000
# 2 56.9658 91.9299 35.7224 0.0000 0.0000 0.0000
# 3 28.6987 35.7224 81.7409 0.0000 0.0000 0.0000
# 4 0.0000 0.0000 0.0000 22.3969 0.0000 0.0000
# 5 0.0000 0.0000 0.0000 0.0000 18.6701 0.0000
# 6 0.0000 0.0000 0.0000 0.0000 0.0000 -13.8696
#
#
#
# Elastic Compliance Matrix: (Units=1/GPa)
#
#
# Indices 1 2 3 4 5 6 
#
# 1 0.035011 -0.020379 -0.003386 0.000000 0.000000 0.000000
# 2 -0.020379 0.024965 -0.003755 0.000000 0.000000 0.000000
# 3 -0.003386 -0.003755 0.015064 0.000000 0.000000 0.000000
# 4 0.000000 0.000000 0.000000 0.044649 0.000000 0.000000
# 5 0.000000 0.000000 0.000000 0.000000 0.053562 0.000000
# 6 0.000000 0.000000 0.000000 0.000000 0.000000 -0.072100
#
#
# Mechanical properties :
#
#
# Convention : Reuss Voigt Hill
#
# Bulk Modulus (GPa) = 50.00281 53.43793 51.72037
# Shear Modulus (GPa) = 30.70156 13.22487 21.96322
#
# Velocity S-wave (km/s) = 4.37787 2.87328 3.70280
# Velocity P-wave (km/s) = 7.53453 6.66084 7.11112
#
# Compressibility (1/GPa) = 0.01999888
#
# Stress axis : x y z
#
# Youngs Moduli (GPa) = 28.56256 40.05530 66.38463
#
# Poissons Ratio (x) = 0.81630 0.22477
# Poissons Ratio (y) = 0.58209 0.24930
# Poissons Ratio (z) = 0.09671 0.15042
#
# Static dielectric constant tensor:
#      x y z
#    x 1.554100 0.000000 0.000000 
#    y 0.000000 1.587590 0.000000 
#    z 0.000000 0.000000 1.676420 
# 
# From -- ./inp_files/3365.got.cif
#   From: 2010.05.17/outbox.cif.g08.bks.cpg/sg20_2_cif.got.tgz:3365.got - 2010.06.03 22:52:26.
