data_PCOD9317101
_publ_section_title
;
Structure prediction by ZEFSAII (Michael W. Deem and Ramdas Pophale) SiO2 
 PCOD9317101
Probable space group: C 2 2 21
;
_chemical_formula_sum "Si O2"
_cell_formula_units_Z 52
_cell_length_a 7.262600
_cell_length_b 20.115851
_cell_length_c 15.110440
_cell_angle_alpha 90.000000
_cell_angle_beta 90.000000
_cell_angle_gamma 90.000000
_cell_volume 2207.535245
_symmetry_space_group_name_H-M "C 2 2 21"
_symmetry_group_IT_number 20
_symmetry_cell_setting 'orthorhombic'
loop_
_space_group_symop_operation_xyz
x,y,z
-x,-y,1/2+z
x,-y,-z
-x,y,1/2-z
1/2+x,1/2+y,z
1/2-x,1/2-y,1/2+z
1/2+x,1/2-y,-z
1/2-x,1/2+y,1/2-z
loop_
_atom_site_type_symbol
_atom_site_label
_atom_site_fract_x
_atom_site_fract_y
_atom_site_fract_z
Si Si1 0.619925 0.299455 0.951713
Si Si2 0.344547 0.075253 0.497749
Si Si3 0.834106 0.589422 0.686529
Si Si4 0.000000 0.944227 0.250000
Si Si5 0.780591 0.732934 0.723455
Si Si6 0.306452 0.196021 0.396737
Si Si7 0.092555 0.068753 0.955367
O O1 0.733937 0.272422 0.868245
O O2 0.413163 0.308074 0.915223
O O3 0.617031 0.244258 0.027750
O O4 0.683431 0.367732 0.997138
O O5 0.413164 0.105003 0.590362
O O6 0.382104 0.122295 0.415268
O O7 0.123859 0.073679 0.516407
O O8 0.409528 0.000000 0.500000
O O9 0.687372 0.530522 0.701212
O O10 0.719235 0.656362 0.710979
O O11 0.000000 0.578229 0.750000
O O12 0.097694 0.926742 0.151706
O O13 0.678026 0.770287 0.801925
O O14 0.000000 0.728102 0.750000
O O15 0.158518 0.000000 0.000000
#
# Coordination Sequence:
#
# PCOD9317101 Si02
#       7
#     8   8   8   4   8   8   8
#     4  10  19  35  55  79 112 141 187 242 287 348
#     4   9  18  35  57  81 113 152 193 236 292 355
#     4  10  19  35  59  85 115 151 199 241 290 357
#     4  10  20  36  60  86 112 156 198 236 290 352
#     4   9  18  32  53  83 108 142 187 236 299 344
#     4  10  19  34  57  81 110 145 190 237 292 350
#     4   9  19  36  54  85 113 146 190 238 295 349
#
# _framework density 23.555682000000001
#
# number of rings (size 3 to 8) (size 9 to 14) (size 15 to 20)
#    0.000    2.462    1.538    0.923    0.000    0.000 
#   12.462    0.769    0.000    0.000    0.000    0.000 
#    0.000    0.000    0.000    0.000    0.000    0.000 
#
# Total GULP energy -144849.237801 kJ/mol
# GULP energy per Si atom -5571.124531 kJ/mol
# Density = 2.350207 g / cm^3
# Si number density = 23.555682 Si / 1000 Ang^3
#
#
#
# Elastic Constant Matrix: (Units=GPa)
#
#
# Indices 1 2 3 4 5 6 
#
# 1 53.6718 -14.4114 9.3501 0.0000 0.0000 0.0000
# 2 -14.4114 117.2373 55.3678 0.0000 0.0000 0.0000
# 3 9.3501 55.3678 153.4606 0.0000 0.0000 0.0000
# 4 0.0000 0.0000 0.0000 18.5241 0.0000 0.0000
# 5 0.0000 0.0000 0.0000 0.0000 43.3857 0.0000
# 6 0.0000 0.0000 0.0000 0.0000 0.0000 6.1101
#
#
#
# Elastic Compliance Matrix: (Units=1/GPa)
#
#
# Indices 1 2 3 4 5 6 
#
# 1 0.020060 0.003668 -0.002546 0.000000 0.000000 0.000000
# 2 0.003668 0.010952 -0.004175 0.000000 0.000000 0.000000
# 3 -0.002546 -0.004175 0.008178 0.000000 0.000000 0.000000
# 4 0.000000 0.000000 0.000000 0.053984 0.000000 0.000000
# 5 0.000000 0.000000 0.000000 0.000000 0.023049 0.000000
# 6 0.000000 0.000000 0.000000 0.000000 0.000000 0.163663
#
#
# Mechanical properties :
#
#
# Convention : Reuss Voigt Hill
#
# Bulk Modulus (GPa) = 30.22503 47.22029 38.72266
# Shear Modulus (GPa) = 16.83391 31.87487 24.35439
#
# Velocity S-wave (km/s) = 2.67618 3.68254 3.21893
# Velocity P-wave (km/s) = 4.73375 6.17829 5.50362
#
# Compressibility (1/GPa) = 0.03308517
#
# Stress axis : x y z
#
# Youngs Moduli (GPa) = 49.85000 91.30434 122.28263
#
# Poissons Ratio (x) = -0.33492 0.31129
# Poissons Ratio (y) = -0.18286 0.51054
# Poissons Ratio (z) = 0.12690 0.38120
#
# Static dielectric constant tensor:
#      x y z
#    x 1.945780 0.000000 0.000000 
#    y 0.000000 1.989990 0.000000 
#    z 0.000000 0.000000 1.921290 
# 
# From -- ./inp_files/19107.got.cif
#   From: 2010.05.17/outbox.cif.g08.bks.cpg/sg20_10_cif.got.tgz:19107.got - 2010.06.03 22:52:26.
