data_PCOD9317621
_publ_section_title
;
Structure prediction by ZEFSAII (Michael W. Deem and Ramdas Pophale) SiO2 
 PCOD9317621
Probable space group: C 2 2 21
;
_chemical_formula_sum "Si O2"
_cell_formula_units_Z 48
_cell_length_a 21.320616
_cell_length_b 6.646322
_cell_length_c 13.605436
_cell_angle_alpha 90.000000
_cell_angle_beta 90.000000
_cell_angle_gamma 90.000000
_cell_volume 1927.940338
_symmetry_space_group_name_H-M "C 2 2 21"
_symmetry_group_IT_number 20
_symmetry_cell_setting 'orthorhombic'
loop_
_space_group_symop_operation_xyz
x,y,z
-x,-y,1/2+z
x,-y,-z
-x,y,1/2-z
1/2+x,1/2+y,z
1/2-x,1/2-y,1/2+z
1/2+x,1/2-y,-z
1/2-x,1/2+y,1/2-z
loop_
_atom_site_type_symbol
_atom_site_label
_atom_site_fract_x
_atom_site_fract_y
_atom_site_fract_z
Si Si1 0.626322 0.597251 0.598179
Si Si2 0.836436 0.338786 0.309521
Si Si3 0.203916 0.119199 0.778692
Si Si4 0.053673 0.284778 0.319880
Si Si5 0.359401 0.738499 0.529680
Si Si6 0.497711 0.743715 0.979463
O O1 0.656866 0.500000 0.500000
O O2 0.673582 0.687917 0.675789
O O3 0.594539 0.398143 0.641241
O O4 0.568339 0.747225 0.578488
O O5 0.776300 0.411577 0.247750
O O6 0.899185 0.405185 0.250993
O O7 0.842297 0.354697 0.428043
O O8 0.826837 0.097084 0.299390
O O9 0.185510 0.250081 0.874119
O O10 0.000000 0.201323 0.250000
O O11 0.016969 0.357559 0.417389
O O12 0.357177 0.500000 0.500000
O O13 0.432094 0.785287 0.557316
O O14 0.501524 0.500000 0.000000
#
# Coordination Sequence:
#
# PCOD9317621 Si02
#       6
#     8   8   8   8   8   8
#     4   8  17  26  44  73 101 123 155 208 258 288
#     4  10  20  33  50  75 103 135 168 204 248 304
#     4  10  21  33  49  74 105 137 166 199 253 303
#     4   9  14  25  46  70  93 119 161 209 244 277
#     4   9  17  29  47  73 102 129 167 208 250 299
#     4   8  14  24  43  73  98 121 157 213 260 281
#
# _framework density 24.897034999999999
#
# number of rings (size 3 to 8) (size 9 to 14) (size 15 to 20)
#    0.000    3.333    1.667    0.000    7.000    4.000 
#    0.000    0.000    0.000    0.000    4.333    0.000 
#    0.000    0.000    0.000    0.000    0.000    0.000 
#
# Total GULP energy -133799.392601 kJ/mol
# GULP energy per Si atom -5574.974692 kJ/mol
# Density = 2.484037 g / cm^3
# Si number density = 24.897035 Si / 1000 Ang^3
#
#
#
# Elastic Constant Matrix: (Units=GPa)
#
#
# Indices 1 2 3 4 5 6 
#
# 1 98.7080 -0.9691 80.8024 0.0000 0.0000 0.0000
# 2 -0.9691 60.2165 22.2332 0.0000 0.0000 0.0000
# 3 80.8024 22.2332 196.2466 0.0000 0.0000 0.0000
# 4 0.0000 0.0000 0.0000 26.2107 0.0000 0.0000
# 5 0.0000 0.0000 0.0000 0.0000 40.1822 0.0000
# 6 0.0000 0.0000 0.0000 0.0000 0.0000 883.3887
#
#
#
# Elastic Compliance Matrix: (Units=1/GPa)
#
#
# Indices 1 2 3 4 5 6 
#
# 1 0.015708 0.002756 -0.006780 0.000000 0.000000 0.000000
# 2 0.002756 0.017815 -0.003153 0.000000 0.000000 0.000000
# 3 -0.006780 -0.003153 0.008244 0.000000 0.000000 0.000000
# 4 0.000000 0.000000 0.000000 0.038152 0.000000 0.000000
# 5 0.000000 0.000000 0.000000 0.000000 0.024887 0.000000
# 6 0.000000 0.000000 0.000000 0.000000 0.000000 0.001132
#
#
# Mechanical properties :
#
#
# Convention : Reuss Voigt Hill
#
# Bulk Modulus (GPa) = 36.47794 62.14490 49.31142
# Shear Modulus (GPa) = 38.63087 206.82996 122.73041
#
# Velocity S-wave (km/s) = 3.94334 9.12439 7.02867
# Velocity P-wave (km/s) = 5.95118 11.66280 9.25844
#
# Compressibility (1/GPa) = 0.02741383
#
# Stress axis : x y z
#
# Youngs Moduli (GPa) = 63.66228 56.13157 121.29513
#
# Poissons Ratio (x) = -0.15470 0.82236
# Poissons Ratio (y) = -0.17546 0.38246
# Poissons Ratio (z) = 0.43162 0.17699
#
# Static dielectric constant tensor:
#      x y z
#    x 1.936650 0.000000 0.000000 
#    y 0.000000 2.168520 0.000000 
#    z 0.000000 0.000000 -0.064810 
# 
# From -- ./inp_files/21830.got.cif
#   From: 2010.05.17/outbox.cif.g08.bks.cpg/sg20_11_cif.got.tgz:21830.got - 2010.06.03 22:52:26.
