data_PCOD9317108
_publ_section_title
;
Structure prediction by ZEFSAII (Michael W. Deem and Ramdas Pophale) SiO2 
 PCOD9317108
Probable space group: C 2 2 21
;
_chemical_formula_sum "Si O2"
_cell_formula_units_Z 60
_cell_length_a 26.343635
_cell_length_b 12.150403
_cell_length_c 9.657136
_cell_angle_alpha 90.000000
_cell_angle_beta 90.000000
_cell_angle_gamma 90.000000
_cell_volume 3091.111926
_symmetry_space_group_name_H-M "C 2 2 21"
_symmetry_group_IT_number 20
_symmetry_cell_setting 'orthorhombic'
loop_
_space_group_symop_operation_xyz
x,y,z
-x,-y,1/2+z
x,-y,-z
-x,y,1/2-z
1/2+x,1/2+y,z
1/2-x,1/2-y,1/2+z
1/2+x,1/2-y,-z
1/2-x,1/2+y,1/2-z
loop_
_atom_site_type_symbol
_atom_site_label
_atom_site_fract_x
_atom_site_fract_y
_atom_site_fract_z
Si Si1 0.919935 0.822207 0.976965
Si Si2 0.650514 0.120140 0.510823
Si Si3 0.114114 0.110650 0.760175
Si Si4 0.311628 0.814806 0.718979
Si Si5 0.289508 0.809626 0.280980
Si Si6 0.876119 0.132766 0.324987
Si Si7 0.205091 0.500000 0.000000
Si Si8 0.532376 0.372934 0.031171
O O1 0.902794 0.856149 0.824537
O O2 0.894866 0.704699 0.997364
O O3 0.893279 0.895874 0.095474
O O4 0.979930 0.814913 0.998905
O O5 0.684785 0.141433 0.376164
O O6 0.680880 0.135046 0.653187
O O7 0.629064 0.000000 0.500000
O O8 0.148218 0.215840 0.796189
O O9 0.057406 0.130691 0.818146
O O10 0.135868 0.998435 0.827771
O O11 0.256749 0.757463 0.713120
O O12 0.319767 0.914500 0.610502
O O13 0.329089 0.716997 0.339641
O O14 0.272554 0.904568 0.392533
O O15 0.920239 0.159156 0.434124
O O16 0.520643 0.500000 0.000000
#
# Coordination Sequence:
#
# PCOD9317108 Si02
#       8
#     8   8   8   8   8   8   4   8
#     4  10  20  34  60  87 119 161 203 245 312 372
#     4  10  21  42  61  83 127 163 212 258 298 367
#     4  10  21  36  59  92 124 156 201 252 307 372
#     4  11  24  41  64  94 122 167 207 257 310 370
#     4  11  24  41  64  94 122 167 207 257 310 370
#     4  10  21  36  59  92 124 156 201 252 307 372
#     4  12  24  42  66  88 124 168 208 254 310 364
#     4  10  19  34  57  86 125 156 190 254 319 365
#
# _framework density 19.410491
#
# number of rings (size 3 to 8) (size 9 to 14) (size 15 to 20)
#    0.000    1.600    1.333    3.600    1.867    2.133 
#    0.000    1.333    5.867    3.200    0.000    0.000 
#    0.000    0.000    0.000    0.000    0.000    0.000 
#
# Total GULP energy -167152.956880 kJ/mol
# GULP energy per Si atom -5571.765229 kJ/mol
# Density = 1.936631 g / cm^3
# Si number density = 19.410491 Si / 1000 Ang^3
#
#
#
# Elastic Constant Matrix: (Units=GPa)
#
#
# Indices 1 2 3 4 5 6 
#
# 1 59.4541 30.7801 13.2391 0.0000 0.0000 0.0000
# 2 30.7801 106.1508 26.1821 0.0000 0.0000 0.0000
# 3 13.2391 26.1821 82.1627 0.0000 0.0000 0.0000
# 4 0.0000 0.0000 0.0000 36.7470 0.0000 0.0000
# 5 0.0000 0.0000 0.0000 0.0000 9.2458 0.0000
# 6 0.0000 0.0000 0.0000 0.0000 0.0000 -10.9289
#
#
#
# Elastic Compliance Matrix: (Units=1/GPa)
#
#
# Indices 1 2 3 4 5 6 
#
# 1 0.019957 -0.005420 -0.001489 0.000000 0.000000 0.000000
# 2 -0.005420 0.011696 -0.002854 0.000000 0.000000 0.000000
# 3 -0.001489 -0.002854 0.013320 0.000000 0.000000 0.000000
# 4 0.000000 0.000000 0.000000 0.027213 0.000000 0.000000
# 5 0.000000 0.000000 0.000000 0.000000 0.108157 0.000000
# 6 0.000000 0.000000 0.000000 0.000000 0.000000 -0.091500
#
#
# Mechanical properties :
#
#
# Convention : Reuss Voigt Hill
#
# Bulk Modulus (GPa) = 39.29435 43.13004 41.21219
# Shear Modulus (GPa) = 42.78966 18.85053 30.82009
#
# Velocity S-wave (km/s) = 4.70026 3.11971 3.98905
# Velocity P-wave (km/s) = 7.05297 5.93675 6.51880
#
# Compressibility (1/GPa) = 0.02544895
#
# Stress axis : x y z
#
# Youngs Moduli (GPa) = 50.10771 85.49964 75.07373
#
# Poissons Ratio (x) = 0.46338 0.11176
# Poissons Ratio (y) = 0.27157 0.21424
# Poissons Ratio (z) = 0.07460 0.24400
#
# Static dielectric constant tensor:
#      x y z
#    x 1.669840 0.000000 0.000000 
#    y 0.000000 1.732970 0.000000 
#    z 0.000000 0.000000 1.765460 
# 
# From -- ./inp_files/11126.got.cif
#   From: 2010.05.17/outbox.cif.g08.bks.cpg/sg20_6_cif.got.tgz:11126.got - 2010.06.03 22:52:26.
