data_PCOD9317536
_publ_section_title
;
Structure prediction by ZEFSAII (Michael W. Deem and Ramdas Pophale) SiO2 
 PCOD9317536
Probable space group: C 2 2 21
;
_chemical_formula_sum "Si O2"
_cell_formula_units_Z 48
_cell_length_a 20.072946
_cell_length_b 8.505202
_cell_length_c 13.146793
_cell_angle_alpha 90.000000
_cell_angle_beta 90.000000
_cell_angle_gamma 90.000000
_cell_volume 2244.479142
_symmetry_space_group_name_H-M "C 2 2 21"
_symmetry_group_IT_number 20
_symmetry_cell_setting 'orthorhombic'
loop_
_space_group_symop_operation_xyz
x,y,z
-x,-y,1/2+z
x,-y,-z
-x,y,1/2-z
1/2+x,1/2+y,z
1/2-x,1/2-y,1/2+z
1/2+x,1/2-y,-z
1/2-x,1/2+y,1/2-z
loop_
_atom_site_type_symbol
_atom_site_label
_atom_site_fract_x
_atom_site_fract_y
_atom_site_fract_z
Si Si1 0.171059 0.129639 0.913935
Si Si2 0.790851 0.813151 0.015821
Si Si3 0.748364 0.614161 0.215776
Si Si4 0.146291 0.367399 0.231408
Si Si5 0.428763 0.816318 0.477774
Si Si6 0.924519 0.661412 0.936196
O O1 0.199970 0.028168 0.821632
O O2 0.231338 0.236720 0.951769
O O3 0.104422 0.232105 0.924776
O O4 0.159227 0.000000 0.000000
O O5 0.778738 0.723660 0.124705
O O6 0.863858 0.763996 0.978750
O O7 0.783996 0.000000 0.000000
O O8 0.809700 0.527306 0.271262
O O9 0.696937 0.731586 0.267746
O O10 0.117652 0.311867 0.123032
O O11 0.090406 0.378576 0.318224
O O12 0.503243 0.761334 0.451741
O O13 0.433504 0.000000 0.500000
O O14 0.921875 0.500000 0.000000
#
# Coordination Sequence:
#
# PCOD9317536 Si02
#       6
#     8   8   8   8   8   8
#     4  10  19  41  62  91 130 164 219 280 324 386
#     4  11  21  40  67  96 128 170 225 277 334 394
#     4  11  25  38  72  97 131 173 216 293 336 395
#     4  12  24  41  65 100 134 173 225 279 339 393
#     4  11  25  40  68  97 131 185 228 267 337 406
#     4  11  23  45  65  93 137 183 220 278 335 399
#
# _framework density 21.385808999999998
#
# number of rings (size 3 to 8) (size 9 to 14) (size 15 to 20)
#    0.000    1.000    6.667    1.500    4.667    0.667 
#    0.000    0.000    0.000    0.000    0.000    0.000 
#    0.000    0.000    0.000    0.000    0.000    0.000 
#
# Total GULP energy -133902.774066 kJ/mol
# GULP energy per Si atom -5579.282253 kJ/mol
# Density = 2.133713 g / cm^3
# Si number density = 21.385809 Si / 1000 Ang^3
#
#
#
# Elastic Constant Matrix: (Units=GPa)
#
#
# Indices 1 2 3 4 5 6 
#
# 1 129.4381 36.7009 24.6532 0.0000 0.0000 0.0000
# 2 36.7009 110.7993 7.9901 0.0000 0.0000 0.0000
# 3 24.6532 7.9901 63.1092 0.0000 0.0000 0.0000
# 4 0.0000 0.0000 0.0000 35.1547 0.0000 0.0000
# 5 0.0000 0.0000 0.0000 0.0000 23.2320 0.0000
# 6 0.0000 0.0000 0.0000 0.0000 0.0000 30.0581
#
#
#
# Elastic Compliance Matrix: (Units=1/GPa)
#
#
# Indices 1 2 3 4 5 6 
#
# 1 0.009129 -0.002792 -0.003213 0.000000 0.000000 0.000000
# 2 -0.002792 0.009963 -0.000171 0.000000 0.000000 0.000000
# 3 -0.003213 -0.000171 0.017122 0.000000 0.000000 0.000000
# 4 0.000000 0.000000 0.000000 0.028446 0.000000 0.000000
# 5 0.000000 0.000000 0.000000 0.000000 0.043044 0.000000
# 6 0.000000 0.000000 0.000000 0.000000 0.000000 0.033269
#
#
# Mechanical properties :
#
#
# Convention : Reuss Voigt Hill
#
# Bulk Modulus (GPa) = 41.90618 49.11500 45.51059
# Shear Modulus (GPa) = 31.00233 33.28913 32.14573
#
# Velocity S-wave (km/s) = 3.81158 3.94966 3.88123
# Velocity P-wave (km/s) = 6.24570 6.61935 6.43523
#
# Compressibility (1/GPa) = 0.02386283
#
# Stress axis : x y z
#
# Youngs Moduli (GPa) = 109.53674 100.37595 58.40372
#
# Poissons Ratio (x) = 0.28028 0.18764
# Poissons Ratio (y) = 0.30586 0.00996
# Poissons Ratio (z) = 0.35192 0.01712
#
# Static dielectric constant tensor:
#      x y z
#    x 1.795760 0.000000 0.000000 
#    y 0.000000 1.847600 0.000000 
#    z 0.000000 0.000000 1.879590 
# 
# From -- ./inp_files/21634.got.cif
#   From: 2010.05.17/outbox.cif.g08.bks.cpg/sg20_11_cif.got.tgz:21634.got - 2010.06.03 22:52:26.
