data_PCOD9317495
_publ_section_title
;
Structure prediction by ZEFSAII (Michael W. Deem and Ramdas Pophale) SiO2 
 PCOD9317495
Probable space group: C 2 2 21
;
_chemical_formula_sum "Si O2"
_cell_formula_units_Z 48
_cell_length_a 17.971857
_cell_length_b 9.722196
_cell_length_c 13.020323
_cell_angle_alpha 90.000000
_cell_angle_beta 90.000000
_cell_angle_gamma 90.000000
_cell_volume 2274.987866
_symmetry_space_group_name_H-M "C 2 2 21"
_symmetry_group_IT_number 20
_symmetry_cell_setting 'orthorhombic'
loop_
_space_group_symop_operation_xyz
x,y,z
-x,-y,1/2+z
x,-y,-z
-x,y,1/2-z
1/2+x,1/2+y,z
1/2-x,1/2-y,1/2+z
1/2+x,1/2-y,-z
1/2-x,1/2+y,1/2-z
loop_
_atom_site_type_symbol
_atom_site_label
_atom_site_fract_x
_atom_site_fract_y
_atom_site_fract_z
Si Si1 0.184889 0.276480 0.883631
Si Si2 0.655102 0.018030 0.280219
Si Si3 0.375038 0.184300 0.596393
Si Si4 0.675783 0.477059 0.827593
Si Si5 0.463933 0.828290 0.136806
Si Si6 0.345197 0.403985 0.898573
O O1 0.143687 0.346099 0.787388
O O2 0.161889 0.118445 0.885430
O O3 0.273223 0.305950 0.877428
O O4 0.165719 0.343205 0.991264
O O5 0.659212 0.901662 0.190704
O O6 0.734445 0.038775 0.333337
O O7 0.589654 0.960705 0.351652
O O8 0.364118 0.343337 0.628125
O O9 0.460878 0.149417 0.575439
O O10 0.653609 0.490715 0.707363
O O11 0.500000 0.800298 0.250000
O O12 0.415282 0.699485 0.099448
O O13 0.339893 0.500000 0.000000
#
# Coordination Sequence:
#
# PCOD9317495 Si02
#       6
#     8   8   8   8   8   8
#     4  11  22  37  67 101 124 171 229 276 322 397
#     4  10  19  39  66  86 132 174 218 262 337 391
#     4  11  22  39  68  92 133 176 224 270 333 398
#     4  11  20  38  64  99 128 167 222 280 317 390
#     4  10  20  42  67  86 132 183 211 267 344 385
#     4  11  22  38  66  95 128 172 223 271 330 397
#
# _framework density 21.099015000000001
#
# number of rings (size 3 to 8) (size 9 to 14) (size 15 to 20)
#    0.000    1.333    5.000    4.000    0.000    1.333 
#    0.000    0.000   47.667    0.000    0.000    0.000 
#    0.000    0.000    0.000    0.000    0.000    0.000 
#
# Total GULP energy -133944.209563 kJ/mol
# GULP energy per Si atom -5581.008732 kJ/mol
# Density = 2.105099 g / cm^3
# Si number density = 21.099015 Si / 1000 Ang^3
#
#
#
# Elastic Constant Matrix: (Units=GPa)
#
#
# Indices 1 2 3 4 5 6 
#
# 1 87.3049 7.4686 12.4625 0.0000 0.0000 0.0000
# 2 7.4686 71.6759 -8.1532 0.0000 0.0000 0.0000
# 3 12.4625 -8.1532 36.4369 0.0000 0.0000 0.0000
# 4 0.0000 0.0000 0.0000 18.1221 0.0000 0.0000
# 5 0.0000 0.0000 0.0000 0.0000 16.3225 0.0000
# 6 0.0000 0.0000 0.0000 0.0000 0.0000 23.4911
#
#
#
# Elastic Compliance Matrix: (Units=1/GPa)
#
#
# Indices 1 2 3 4 5 6 
#
# 1 0.012264 -0.001801 -0.004598 0.000000 0.000000 0.000000
# 2 -0.001801 0.014581 0.003879 0.000000 0.000000 0.000000
# 3 -0.004598 0.003879 0.029885 0.000000 0.000000 0.000000
# 4 0.000000 0.000000 0.000000 0.055181 0.000000 0.000000
# 5 0.000000 0.000000 0.000000 0.000000 0.061265 0.000000
# 6 0.000000 0.000000 0.000000 0.000000 0.000000 0.042569
#
#
# Mechanical properties :
#
#
# Convention : Reuss Voigt Hill
#
# Bulk Modulus (GPa) = 19.34621 24.33040 21.83830
# Shear Modulus (GPa) = 21.00696 23.82979 22.41838
#
# Velocity S-wave (km/s) = 3.15879 3.36434 3.26319
# Velocity P-wave (km/s) = 4.74269 5.16220 4.95688
#
# Compressibility (1/GPa) = 0.05168972
#
# Stress axis : x y z
#
# Youngs Moduli (GPa) = 81.53614 68.58464 33.46142
#
# Poissons Ratio (x) = 0.12352 0.15385
# Poissons Ratio (y) = 0.14684 -0.12978
# Poissons Ratio (z) = 0.37489 -0.26601
#
# Static dielectric constant tensor:
#      x y z
#    x 1.775070 0.000000 0.000000 
#    y 0.000000 1.760390 0.000000 
#    z 0.000000 0.000000 1.798070 
# 
# From -- ./inp_files/18884.got.cif
#   From: 2010.05.17/outbox.cif.g08.bks.cpg/sg20_10_cif.got.tgz:18884.got - 2010.06.03 22:52:26.
