data_PCOD9317131
_publ_section_title
;
Structure prediction by ZEFSAII (Michael W. Deem and Ramdas Pophale) SiO2 
 PCOD9317131
Probable space group: C 2 2 21
;
_chemical_formula_sum "Si O2"
_cell_formula_units_Z 60
_cell_length_a 5.759329
_cell_length_b 17.204898
_cell_length_c 26.361580
_cell_angle_alpha 90.000000
_cell_angle_beta 90.000000
_cell_angle_gamma 90.000000
_cell_volume 2612.133848
_symmetry_space_group_name_H-M "C 2 2 21"
_symmetry_group_IT_number 20
_symmetry_cell_setting 'orthorhombic'
loop_
_space_group_symop_operation_xyz
x,y,z
-x,-y,1/2+z
x,-y,-z
-x,y,1/2-z
1/2+x,1/2+y,z
1/2-x,1/2-y,1/2+z
1/2+x,1/2-y,-z
1/2-x,1/2+y,1/2-z
loop_
_atom_site_type_symbol
_atom_site_label
_atom_site_fract_x
_atom_site_fract_y
_atom_site_fract_z
Si Si1 0.670046 0.462917 0.310839
Si Si2 0.989196 0.404500 0.500763
Si Si3 0.582431 0.880151 0.805606
Si Si4 0.455852 0.884577 0.385026
Si Si5 0.500000 0.337127 0.250000
Si Si6 0.874464 0.256904 0.194276
Si Si7 0.491943 0.423185 0.536068
Si Si8 0.224099 0.966009 0.860390
O O1 0.693675 0.394423 0.271222
O O2 0.421606 0.503836 0.312458
O O3 0.846498 0.530559 0.300564
O O4 0.715792 0.420446 0.364316
O O5 0.997202 0.500000 0.500000
O O6 0.748177 0.385454 0.530114
O O7 0.957354 0.370478 0.444489
O O8 0.246682 0.381693 0.520774
O O9 0.500000 0.853744 0.750000
O O10 0.805828 0.830222 0.821626
O O11 0.375059 0.890196 0.845731
O O12 0.515827 0.811603 0.348691
O O13 0.628761 0.958294 0.377202
O O14 0.617268 0.291271 0.205086
O O15 0.000000 0.254436 0.250000
O O16 0.501399 0.500000 0.500000
O O17 0.448213 0.446041 0.594049
#
# Coordination Sequence:
#
# PCOD9317131 Si02
#       8
#     8   8   8   8   4   8   8   8
#     4  11  23  37  64  94 128 171 226 298 334 408
#     4  10  19  34  61 100 141 169 213 293 366 424
#     4  11  27  42  62  94 140 190 239 279 355 430
#     4  11  22  38  64 102 135 173 235 290 354 423
#     4  12  22  38  64  90 128 174 228 290 346 398
#     4  12  26  44  61  94 142 191 233 289 354 431
#     4  10  19  34  61  99 141 168 215 293 368 419
#     4  11  22  39  64 100 135 178 230 292 353 427
#
# _framework density 22.969729000000001
#
# number of rings (size 3 to 8) (size 9 to 14) (size 15 to 20)
#    0.000    1.067    6.000    2.400    6.533    0.000 
#    0.000    0.000    0.000    0.000    3.467    0.000 
#    0.000    0.000    0.000    0.000    0.000    0.000 
#
# Total GULP energy -167307.725777 kJ/mol
# GULP energy per Si atom -5576.924193 kJ/mol
# Density = 2.291745 g / cm^3
# Si number density = 22.969729 Si / 1000 Ang^3
#
#
#
# Elastic Constant Matrix: (Units=GPa)
#
#
# Indices 1 2 3 4 5 6 
#
# 1 102.1377 14.2739 4.8466 0.0000 0.0000 0.0000
# 2 14.2739 54.8708 15.6716 0.0000 0.0000 0.0000
# 3 4.8466 15.6716 59.7932 0.0000 0.0000 0.0000
# 4 0.0000 0.0000 0.0000 10.4509 0.0000 0.0000
# 5 0.0000 0.0000 0.0000 0.0000 66.1017 0.0000
# 6 0.0000 0.0000 0.0000 0.0000 0.0000 31.3352
#
#
#
# Elastic Compliance Matrix: (Units=1/GPa)
#
#
# Indices 1 2 3 4 5 6 
#
# 1 0.010161 -0.002603 -0.000141 0.000000 0.000000 0.000000
# 2 -0.002603 0.020366 -0.005127 0.000000 0.000000 0.000000
# 3 -0.000141 -0.005127 0.018080 0.000000 0.000000 0.000000
# 4 0.000000 0.000000 0.000000 0.095686 0.000000 0.000000
# 5 0.000000 0.000000 0.000000 0.000000 0.015128 0.000000
# 6 0.000000 0.000000 0.000000 0.000000 0.000000 0.031913
#
#
# Mechanical properties :
#
#
# Convention : Reuss Voigt Hill
#
# Bulk Modulus (GPa) = 30.42817 31.82068 31.12442
# Shear Modulus (GPa) = 22.93252 33.71153 28.32203
#
# Velocity S-wave (km/s) = 3.16314 3.83515 3.51524
# Velocity P-wave (km/s) = 5.15911 5.78745 5.48229
#
# Compressibility (1/GPa) = 0.03286428
#
# Stress axis : x y z
#
# Youngs Moduli (GPa) = 98.41378 49.10130 55.31124
#
# Poissons Ratio (x) = 0.12781 0.00782
# Poissons Ratio (y) = 0.25616 0.28358
# Poissons Ratio (z) = 0.01392 0.25174
#
# Static dielectric constant tensor:
#      x y z
#    x 1.933630 0.000000 0.000000 
#    y 0.000000 1.834470 0.000000 
#    z 0.000000 0.000000 1.845160 
# 
# From -- ./inp_files/29928.got.cif
#   From: 2010.05.17/outbox.cif.g08.bks.cpg/sg20_15_cif.got.tgz:29928.got - 2010.06.03 22:52:26.
