data_PCOD9317417
_publ_section_title
;
Structure prediction by ZEFSAII (Michael W. Deem and Ramdas Pophale) SiO2 
 PCOD9317417
Probable space group: C 2 2 21
;
_chemical_formula_sum "Si O2"
_cell_formula_units_Z 64
_cell_length_a 19.181888
_cell_length_b 15.128856
_cell_length_c 11.861816
_cell_angle_alpha 90.000000
_cell_angle_beta 90.000000
_cell_angle_gamma 90.000000
_cell_volume 3442.299257
_symmetry_space_group_name_H-M "C 2 2 21"
_symmetry_group_IT_number 20
_symmetry_cell_setting 'orthorhombic'
loop_
_space_group_symop_operation_xyz
x,y,z
-x,-y,1/2+z
x,-y,-z
-x,y,1/2-z
1/2+x,1/2+y,z
1/2-x,1/2-y,1/2+z
1/2+x,1/2-y,-z
1/2-x,1/2+y,1/2-z
loop_
_atom_site_type_symbol
_atom_site_label
_atom_site_fract_x
_atom_site_fract_y
_atom_site_fract_z
Si Si1 0.767905 0.405518 0.557646
Si Si2 0.277335 0.868615 0.797769
Si Si3 0.285463 0.439802 0.310173
Si Si4 0.899284 0.883311 0.928702
Si Si5 0.429908 0.568988 0.818700
Si Si6 0.830900 0.601341 0.975063
Si Si7 0.925113 0.702423 0.798134
Si Si8 0.796781 0.310391 0.344827
O O1 0.782949 0.500000 0.500000
O O2 0.806763 0.392297 0.675694
O O3 0.684403 0.399280 0.578318
O O4 0.785847 0.324821 0.475942
O O5 0.236890 0.776961 0.792331
O O6 0.229589 0.955382 0.822941
O O7 0.328579 0.855040 0.902599
O O8 0.364201 0.424045 0.268012
O O9 0.247084 0.396037 0.418730
O O10 0.239533 0.396012 0.210933
O O11 0.922150 0.797699 0.859040
O O12 0.932271 0.968734 0.867548
O O13 0.917291 0.878613 0.062793
O O14 0.500000 0.590544 0.750000
O O15 0.886628 0.640161 0.889192
O O16 0.846885 0.500000 0.000000
O O17 0.876006 0.697198 0.689416
O O18 0.000000 0.679119 0.750000
#
# Coordination Sequence:
#
# PCOD9317417 Si02
#       8
#     8   8   8   8   8   8   8   8
#     4  12  19  37  65  92 125 157 207 257 307 367
#     4  11  20  36  60  92 122 155 198 257 307 363
#     4  10  19  38  57  89 121 154 205 254 293 368
#     4  11  19  38  58  86 125 164 200 244 296 365
#     4  11  21  36  57  86 128 174 196 232 300 365
#     4   9  22  39  63  87 116 154 200 262 318 349
#     4  11  23  41  62  84 119 159 204 253 308 366
#     4  11  21  34  63  92 113 158 207 251 308 361
#
# _framework density 18.592224000000002
#
# number of rings (size 3 to 8) (size 9 to 14) (size 15 to 20)
#    0.000    1.250    6.250    1.125    1.750    0.000 
#    9.000    0.625    0.000    0.000    0.000    0.000 
#    0.000    0.000    0.000    0.000    0.000    0.000 
#
# Total GULP energy -178284.064413 kJ/mol
# GULP energy per Si atom -5571.377013 kJ/mol
# Density = 1.854991 g / cm^3
# Si number density = 18.592224 Si / 1000 Ang^3
#
#
#
# Elastic Constant Matrix: (Units=GPa)
#
#
# Indices 1 2 3 4 5 6 
#
# 1 70.2900 20.6431 31.6614 0.0000 0.0000 0.0000
# 2 20.6431 48.6236 15.8344 0.0000 0.0000 0.0000
# 3 31.6614 15.8344 119.4426 0.0000 0.0000 0.0000
# 4 0.0000 0.0000 0.0000 25.2283 0.0000 0.0000
# 5 0.0000 0.0000 0.0000 0.0000 20.4839 0.0000
# 6 0.0000 0.0000 0.0000 0.0000 0.0000 8.1883
#
#
#
# Elastic Compliance Matrix: (Units=1/GPa)
#
#
# Indices 1 2 3 4 5 6 
#
# 1 0.017830 -0.006303 -0.003891 0.000000 0.000000 0.000000
# 2 -0.006303 0.023722 -0.001474 0.000000 0.000000 0.000000
# 3 -0.003891 -0.001474 0.009599 0.000000 0.000000 0.000000
# 4 0.000000 0.000000 0.000000 0.039638 0.000000 0.000000
# 5 0.000000 0.000000 0.000000 0.000000 0.048819 0.000000
# 6 0.000000 0.000000 0.000000 0.000000 0.000000 0.122125
#
#
# Mechanical properties :
#
#
# Convention : Reuss Voigt Hill
#
# Bulk Modulus (GPa) = 35.95060 41.62601 38.78830
# Shear Modulus (GPa) = 16.98711 22.12794 19.55752
#
# Velocity S-wave (km/s) = 3.02597 3.45363 3.24685
# Velocity P-wave (km/s) = 5.62023 6.19201 5.91304
#
# Compressibility (1/GPa) = 0.02781595
#
# Stress axis : x y z
#
# Youngs Moduli (GPa) = 56.08398 42.15491 104.17731
#
# Poissons Ratio (x) = 0.26569 0.40534
# Poissons Ratio (y) = 0.35349 0.15357
# Poissons Ratio (z) = 0.21822 0.06214
#
# Static dielectric constant tensor:
#      x y z
#    x 1.623360 0.000000 0.000000 
#    y 0.000000 1.662940 0.000000 
#    z 0.000000 0.000000 1.732390 
# 
# From -- ./inp_files/15908.got.cif
#   From: 2010.05.17/outbox.cif.g08.bks.cpg/sg20_8_cif.got.tgz:15908.got - 2010.06.03 22:52:26.
