data_PCOD9317539
_publ_section_title
;
Structure prediction by ZEFSAII (Michael W. Deem and Ramdas Pophale) SiO2 
 PCOD9317539
Probable space group: C 2 2 21
;
_chemical_formula_sum "Si O2"
_cell_formula_units_Z 56
_cell_length_a 21.178122
_cell_length_b 11.493096
_cell_length_c 11.237054
_cell_angle_alpha 90.000000
_cell_angle_beta 90.000000
_cell_angle_gamma 90.000000
_cell_volume 2735.123544
_symmetry_space_group_name_H-M "C 2 2 21"
_symmetry_group_IT_number 20
_symmetry_cell_setting 'orthorhombic'
loop_
_space_group_symop_operation_xyz
x,y,z
-x,-y,1/2+z
x,-y,-z
-x,y,1/2-z
1/2+x,1/2+y,z
1/2-x,1/2-y,1/2+z
1/2+x,1/2-y,-z
1/2-x,1/2+y,1/2-z
loop_
_atom_site_type_symbol
_atom_site_label
_atom_site_fract_x
_atom_site_fract_y
_atom_site_fract_z
Si Si1 0.130872 0.160343 0.244631
Si Si2 0.482397 0.859827 0.487910
Si Si3 0.296107 0.434217 0.290205
Si Si4 0.877266 0.720080 0.979114
Si Si5 0.703139 0.000000 0.500000
Si Si6 0.500000 0.276021 0.750000
Si Si7 0.233636 0.870931 0.455443
Si Si8 0.355496 0.267048 0.469508
O O1 0.136932 0.269373 0.336036
O O2 0.057772 0.138586 0.275143
O O3 0.173834 0.049139 0.269440
O O4 0.137619 0.180816 0.103183
O O5 0.550163 0.798918 0.517791
O O6 0.477722 0.811947 0.352936
O O7 0.417743 0.813290 0.548593
O O8 0.487116 0.000000 0.500000
O O9 0.246995 0.475004 0.388506
O O10 0.260766 0.363299 0.187136
O O11 0.347751 0.360184 0.363897
O O12 0.840263 0.609350 0.026583
O O13 0.838358 0.830687 0.023848
O O14 0.287178 0.795761 0.521532
O O15 0.244610 0.000000 0.500000
#
# Coordination Sequence:
#
# PCOD9317539 Si02
#       8
#     8   8   8   8   4   4   8   8
#     4  10  19  41  64  92 129 168 221 266 326 393
#     4  10  21  43  65  93 131 170 215 274 331 393
#     4  12  23  41  66  96 132 175 220 274 328 390
#     4  11  22  42  67  98 129 173 223 268 333 394
#     4  12  22  38  70  96 126 176 222 270 318 392
#     4   8  20  36  66  88 122 174 210 260 328 394
#     4  12  25  41  64  98 136 172 215 275 329 392
#     4  11  23  41  64  98 129 169 223 269 328 393
#
# _framework density 20.474395000000001
#
# number of rings (size 3 to 8) (size 9 to 14) (size 15 to 20)
#    0.000    1.143    5.000    1.286    0.000    1.143 
#    5.143    0.000    0.000    0.000    0.000    0.000 
#    0.000    0.000    0.000    0.000    0.000    0.000 
#
# Total GULP energy -155897.130478 kJ/mol
# GULP energy per Si atom -5567.754660 kJ/mol
# Density = 2.042779 g / cm^3
# Si number density = 20.474395 Si / 1000 Ang^3
#
#
#
# Elastic Constant Matrix: (Units=GPa)
#
#
# Indices 1 2 3 4 5 6 
#
# 1 118.8943 29.3666 12.2679 0.0000 0.0000 0.0000
# 2 29.3666 47.4470 -6.6898 0.0000 0.0000 0.0000
# 3 12.2679 -6.6898 55.3565 0.0000 0.0000 0.0000
# 4 0.0000 0.0000 0.0000 22.6885 0.0000 0.0000
# 5 0.0000 0.0000 0.0000 0.0000 -248.2342 0.0000
# 6 0.0000 0.0000 0.0000 0.0000 0.0000 40.1830
#
#
#
# Elastic Compliance Matrix: (Units=1/GPa)
#
#
# Indices 1 2 3 4 5 6 
#
# 1 0.010442 -0.006907 -0.003149 0.000000 0.000000 0.000000
# 2 -0.006907 0.026010 0.004674 0.000000 0.000000 0.000000
# 3 -0.003149 0.004674 0.019327 0.000000 0.000000 0.000000
# 4 0.000000 0.000000 0.000000 0.044075 0.000000 0.000000
# 5 0.000000 0.000000 0.000000 0.000000 -0.004028 0.000000
# 6 0.000000 0.000000 0.000000 0.000000 0.000000 0.024886
#
#
# Mechanical properties :
#
#
# Convention : Reuss Voigt Hill
#
# Bulk Modulus (GPa) = 22.21429 32.39858 27.30644
# Shear Modulus (GPa) = 34.13433 -24.62233 4.75600
#
# Velocity S-wave (km/s) = 4.08753 -3.47160 1.52576
# Velocity P-wave (km/s) = 5.75765 0.45941 4.05829
#
# Compressibility (1/GPa) = 0.04501606
#
# Stress axis : x y z
#
# Youngs Moduli (GPa) = 95.77023 38.44685 51.74012
#
# Poissons Ratio (x) = 0.26554 0.16291
# Poissons Ratio (y) = 0.66145 -0.24183
# Poissons Ratio (z) = 0.30155 -0.17970
#
# Static dielectric constant tensor:
#      x y z
#    x 1.779270 0.000000 0.000000 
#    y 0.000000 1.805580 0.000000 
#    z 0.000000 0.000000 1.789130 
# 
# From -- ./inp_files/16344.got.cif
#   From: 2010.05.17/outbox.cif.g08.bks.cpg/sg20_9_cif.got.tgz:16344.got - 2010.06.03 22:52:26.
