data_PCOD9317533
_publ_section_title
;
Structure prediction by ZEFSAII (Michael W. Deem and Ramdas Pophale) SiO2 
 PCOD9317533
Probable space group: C 2 2 21
;
_chemical_formula_sum "Si O2"
_cell_formula_units_Z 40
_cell_length_a 6.274693
_cell_length_b 17.414478
_cell_length_c 15.411460
_cell_angle_alpha 90.000000
_cell_angle_beta 90.000000
_cell_angle_gamma 90.000000
_cell_volume 1684.017989
_symmetry_space_group_name_H-M "C 2 2 21"
_symmetry_group_IT_number 20
_symmetry_cell_setting 'orthorhombic'
loop_
_space_group_symop_operation_xyz
x,y,z
-x,-y,1/2+z
x,-y,-z
-x,y,1/2-z
1/2+x,1/2+y,z
1/2-x,1/2-y,1/2+z
1/2+x,1/2-y,-z
1/2-x,1/2+y,1/2-z
loop_
_atom_site_type_symbol
_atom_site_label
_atom_site_fract_x
_atom_site_fract_y
_atom_site_fract_z
Si Si1 0.000000 0.873119 0.750000
Si Si2 0.024715 0.081012 0.984163
Si Si3 0.500000 0.045992 0.750000
Si Si4 0.862480 0.848070 0.175455
Si Si5 0.647985 0.075160 0.123081
Si Si6 0.222741 0.694013 0.400241
O O1 0.177785 0.920174 0.699572
O O2 0.122933 0.823340 0.819917
O O3 0.800396 0.073518 0.037977
O O4 0.162858 0.151935 0.019710
O O5 0.986538 0.090803 0.882913
O O6 0.139907 0.000000 0.000000
O O7 0.310811 0.104490 0.727796
O O8 0.502222 0.992576 0.662441
O O9 0.795311 0.785364 0.103600
O O10 0.000000 0.807134 0.250000
O O11 0.500326 0.150285 0.114500
#
# Coordination Sequence:
#
# PCOD9317533 Si02
#       6
#     4   8   4   8   8   8
#     4  10  19  40  72 103 134 188 248 306 363 462
#     4  11  27  48  73 108 154 200 258 318 379 466
#     4  12  25  44  76 105 146 196 252 316 375 460
#     4  12  29  48  72 113 152 197 258 321 383 459
#     4  11  23  42  76 105 145 197 254 303 392 448
#     4  11  25  45  73 104 154 197 249 310 392 450
#
# _framework density 23.752715999999999
#
# number of rings (size 3 to 8) (size 9 to 14) (size 15 to 20)
#    0.000    0.800    4.000    1.800    7.000    4.000 
#    0.000    0.000    0.000    0.000    0.000    0.000 
#    0.000    0.000    0.000    0.000    0.000    0.000 
#
# Total GULP energy -111691.400032 kJ/mol
# GULP energy per Si atom -5584.570002 kJ/mol
# Density = 2.369865 g / cm^3
# Si number density = 23.752716 Si / 1000 Ang^3
#
#
#
# Elastic Constant Matrix: (Units=GPa)
#
#
# Indices 1 2 3 4 5 6 
#
# 1 82.5195 30.8579 48.9730 0.0000 0.0000 0.0000
# 2 30.8579 108.6042 8.6835 0.0000 0.0000 0.0000
# 3 48.9730 8.6835 81.9971 0.0000 0.0000 0.0000
# 4 0.0000 0.0000 0.0000 22.4251 0.0000 0.0000
# 5 0.0000 0.0000 0.0000 0.0000 25.1949 0.0000
# 6 0.0000 0.0000 0.0000 0.0000 0.0000 21.0795
#
#
#
# Elastic Compliance Matrix: (Units=1/GPa)
#
#
# Indices 1 2 3 4 5 6 
#
# 1 0.021209 -0.005056 -0.012132 0.000000 0.000000 0.000000
# 2 -0.005056 0.010492 0.001909 0.000000 0.000000 0.000000
# 3 -0.012132 0.001909 0.019239 0.000000 0.000000 0.000000
# 4 0.000000 0.000000 0.000000 0.044593 0.000000 0.000000
# 5 0.000000 0.000000 0.000000 0.000000 0.039691 0.000000
# 6 0.000000 0.000000 0.000000 0.000000 0.000000 0.047440
#
#
# Mechanical properties :
#
#
# Convention : Reuss Voigt Hill
#
# Bulk Modulus (GPa) = 49.06382 50.01661 49.54022
# Shear Modulus (GPa) = 22.72578 26.04698 24.38638
#
# Velocity S-wave (km/s) = 3.09652 3.31507 3.20766
# Velocity P-wave (km/s) = 5.78667 5.97962 5.88393
#
# Compressibility (1/GPa) = 0.02038162
#
# Stress axis : x y z
#
# Youngs Moduli (GPa) = 47.15022 95.31302 51.97770
#
# Poissons Ratio (x) = 0.48191 0.63057
# Poissons Ratio (y) = 0.23840 -0.09921
# Poissons Ratio (z) = 0.57201 -0.18192
#
# Static dielectric constant tensor:
#      x y z
#    x 2.027060 0.000000 0.000000 
#    y 0.000000 2.009650 0.000000 
#    z 0.000000 0.000000 1.857500 
# 
# From -- ./inp_files/22635.got.cif
#   From: 2010.05.17/outbox.cif.g08.bks.cpg/sg20_12_cif.got.tgz:22635.got - 2010.06.03 22:52:26.
