data_PCOD9317220
_publ_section_title
;
Structure prediction by ZEFSAII (Michael W. Deem and Ramdas Pophale) SiO2 
 PCOD9317220
Probable space group: C 2 2 21
;
_chemical_formula_sum "Si O2"
_cell_formula_units_Z 56
_cell_length_a 9.206484
_cell_length_b 19.852992
_cell_length_c 15.943271
_cell_angle_alpha 90.000000
_cell_angle_beta 90.000000
_cell_angle_gamma 90.000000
_cell_volume 2914.051337
_symmetry_space_group_name_H-M "C 2 2 21"
_symmetry_group_IT_number 20
_symmetry_cell_setting 'orthorhombic'
loop_
_space_group_symop_operation_xyz
x,y,z
-x,-y,1/2+z
x,-y,-z
-x,y,1/2-z
1/2+x,1/2+y,z
1/2-x,1/2-y,1/2+z
1/2+x,1/2-y,-z
1/2-x,1/2+y,1/2-z
loop_
_atom_site_type_symbol
_atom_site_label
_atom_site_fract_x
_atom_site_fract_y
_atom_site_fract_z
Si Si1 0.149686 0.148411 0.801887
Si Si2 0.039041 0.421441 0.018348
Si Si3 0.585792 0.330622 0.007553
Si Si4 0.233232 0.198547 0.537831
Si Si5 0.661834 0.229394 0.285605
Si Si6 0.626702 0.040139 0.685198
Si Si7 0.288507 0.900233 0.883743
O O1 0.109737 0.142640 0.898803
O O2 0.225051 0.221013 0.784808
O O3 0.260305 0.091361 0.774630
O O4 0.000000 0.144784 0.750000
O O5 0.167923 0.368390 0.034147
O O6 0.942988 0.425583 0.102732
O O7 0.082108 0.500000 0.000000
O O8 0.935131 0.396255 0.941748
O O9 0.417467 0.315930 0.991104
O O10 0.674184 0.260734 0.998234
O O11 0.655631 0.383944 0.944508
O O12 0.181859 0.225736 0.629740
O O13 0.500000 0.217938 0.250000
O O14 0.716585 0.156622 0.312154
O O15 0.500000 0.022476 0.750000
O O16 0.708334 0.973611 0.655074
#
# Coordination Sequence:
#
# PCOD9317220 Si02
#       7
#     8   8   8   8   8   8   8
#     4  11  22  39  63  95 125 170 212 260 332 379
#     4  10  22  40  63  96 125 170 220 262 321 394
#     4  11  22  38  66  91 128 170 213 274 319 395
#     4  11  21  39  62  93 127 167 220 262 327 385
#     4  10  19  35  62  90 121 163 206 258 323 380
#     4  11  23  41  66  95 131 171 217 270 326 397
#     4  10  22  42  65  94 125 170 215 267 333 386
#
# _framework density 19.217230000000001
#
# number of rings (size 3 to 8) (size 9 to 14) (size 15 to 20)
#    0.000    1.429    4.286    3.000    0.000    0.000 
#    2.571    0.000    0.000    0.000    0.000    0.000 
#    0.000    0.000    0.000    0.000    0.000    0.000 
#
# Total GULP energy -156147.333628 kJ/mol
# GULP energy per Si atom -5576.690487 kJ/mol
# Density = 1.917349 g / cm^3
# Si number density = 19.217230 Si / 1000 Ang^3
#
#
#
# Elastic Constant Matrix: (Units=GPa)
#
#
# Indices 1 2 3 4 5 6 
#
# 1 75.8436 44.8089 5.1016 0.0000 0.0000 0.0000
# 2 44.8089 89.8204 18.5967 0.0000 0.0000 0.0000
# 3 5.1016 18.5967 37.4310 0.0000 0.0000 0.0000
# 4 0.0000 0.0000 0.0000 29.0838 0.0000 0.0000
# 5 0.0000 0.0000 0.0000 0.0000 31.0840 0.0000
# 6 0.0000 0.0000 0.0000 0.0000 0.0000 32.9814
#
#
#
# Elastic Compliance Matrix: (Units=1/GPa)
#
#
# Indices 1 2 3 4 5 6 
#
# 1 0.018878 -0.009904 0.002348 0.000000 0.000000 0.000000
# 2 -0.009904 0.017606 -0.007397 0.000000 0.000000 0.000000
# 3 0.002348 -0.007397 0.030071 0.000000 0.000000 0.000000
# 4 0.000000 0.000000 0.000000 0.034383 0.000000 0.000000
# 5 0.000000 0.000000 0.000000 0.000000 0.032171 0.000000
# 6 0.000000 0.000000 0.000000 0.000000 0.000000 0.030320
#
#
# Mechanical properties :
#
#
# Convention : Reuss Voigt Hill
#
# Bulk Modulus (GPa) = 27.28664 37.78995 32.53829
# Shear Modulus (GPa) = 24.32468 27.60237 25.96353
#
# Velocity S-wave (km/s) = 3.56163 3.79401 3.67966
# Velocity P-wave (km/s) = 5.58064 6.23699 5.91792
#
# Compressibility (1/GPa) = 0.03664797
#
# Stress axis : x y z
#
# Youngs Moduli (GPa) = 52.97039 56.79989 33.25468
#
# Poissons Ratio (x) = 0.56255 -0.07807
# Poissons Ratio (y) = 0.52462 0.24599
# Poissons Ratio (z) = -0.12435 0.42016
#
# Static dielectric constant tensor:
#      x y z
#    x 1.668160 0.000000 0.000000 
#    y 0.000000 1.678550 0.000000 
#    z 0.000000 0.000000 1.704580 
# 
# From -- ./inp_files/19204.got.cif
#   From: 2010.05.17/outbox.cif.g08.bks.cpg/sg20_10_cif.got.tgz:19204.got - 2010.06.03 22:52:26.
