data_PCOD9317674
_publ_section_title
;
Structure prediction by ZEFSAII (Michael W. Deem and Ramdas Pophale) SiO2 
 PCOD9317674
Probable space group: C 2 2 21
;
_chemical_formula_sum "Si O2"
_cell_formula_units_Z 64
_cell_length_a 19.133390
_cell_length_b 23.209565
_cell_length_c 8.331256
_cell_angle_alpha 90.000000
_cell_angle_beta 90.000000
_cell_angle_gamma 90.000000
_cell_volume 3699.724660
_symmetry_space_group_name_H-M "C 2 2 21"
_symmetry_group_IT_number 20
_symmetry_cell_setting 'orthorhombic'
loop_
_space_group_symop_operation_xyz
x,y,z
-x,-y,1/2+z
x,-y,-z
-x,y,1/2-z
1/2+x,1/2+y,z
1/2-x,1/2-y,1/2+z
1/2+x,1/2-y,-z
1/2-x,1/2+y,1/2-z
loop_
_atom_site_type_symbol
_atom_site_label
_atom_site_fract_x
_atom_site_fract_y
_atom_site_fract_z
Si Si1 0.891848 0.062975 0.572951
Si Si2 0.707975 0.654198 0.073870
Si Si3 0.627104 0.227988 0.925673
Si Si4 0.338156 0.215890 0.948905
Si Si5 0.756756 0.166489 0.051945
Si Si6 0.479189 0.751419 0.934291
Si Si7 0.024674 0.124042 0.433651
Si Si8 0.658249 0.562881 0.561507
O O1 0.830555 0.096818 0.480340
O O2 0.871141 0.059954 0.758566
O O3 0.963242 0.097778 0.542438
O O4 0.901343 0.000000 0.500000
O O5 0.654610 0.707118 0.038543
O O6 0.725991 0.655333 0.262002
O O7 0.779626 0.668169 0.981557
O O8 0.641355 0.218446 0.737638
O O9 0.676932 0.184542 0.022570
O O10 0.546427 0.224417 0.972182
O O11 0.300934 0.276478 0.996757
O O12 0.409549 0.210845 0.047444
O O13 0.781888 0.111130 0.953476
O O14 0.500000 0.743850 0.750000
O O15 0.461686 0.689277 0.011418
O O16 0.094226 0.086602 0.453621
O O17 0.000000 0.123796 0.250000
O O18 0.679730 0.500000 0.500000
#
# Coordination Sequence:
#
# PCOD9317674 Si02
#       8
#     8   8   8   8   8   8   8   8
#     4  12  24  38  55  76 105 143 184 223 265 313
#     4  10  20  35  54  77 106 138 177 221 266 314
#     4  10  20  34  54  77 107 140 175 218 267 318
#     4  10  20  34  54  77 107 140 175 218 267 318
#     4  10  20  35  54  77 106 138 177 221 266 314
#     4  12  22  33  53  80 109 143 179 217 266 319
#     4  12  23  37  52  74 107 143 183 223 262 311
#     4  12  24  38  55  76 105 143 184 223 265 313
#
# _framework density 17.298584000000002
#
# number of rings (size 3 to 8) (size 9 to 14) (size 15 to 20)
#    0.000    1.000    2.500    6.375    0.000    2.000 
#    0.000    0.000    0.000    0.000    0.000    0.875 
#    0.000    0.000    0.000    0.000    0.000    0.000 
#
# Total GULP energy -178958.709138 kJ/mol
# GULP energy per Si atom -5592.459661 kJ/mol
# Density = 1.725921 g / cm^3
# Si number density = 17.298584 Si / 1000 Ang^3
#
#
#
# Elastic Constant Matrix: (Units=GPa)
#
#
# Indices 1 2 3 4 5 6 
#
# 1 77.9567 13.3781 -16.8153 0.0000 0.0000 0.0000
# 2 13.3781 42.7055 -10.9370 0.0000 0.0000 0.0000
# 3 -16.8153 -10.9370 33.1582 0.0000 0.0000 0.0000
# 4 0.0000 0.0000 0.0000 20.5835 0.0000 0.0000
# 5 0.0000 0.0000 0.0000 0.0000 28.5998 0.0000
# 6 0.0000 0.0000 0.0000 0.0000 0.0000 12.6522
#
#
#
# Elastic Compliance Matrix: (Units=1/GPa)
#
#
# Indices 1 2 3 4 5 6 
#
# 1 0.014736 -0.002952 0.006499 0.000000 0.000000 0.000000
# 2 -0.002952 0.026168 0.007134 0.000000 0.000000 0.000000
# 3 0.006499 0.007134 0.035808 0.000000 0.000000 0.000000
# 4 0.000000 0.000000 0.000000 0.048582 0.000000 0.000000
# 5 0.000000 0.000000 0.000000 0.000000 0.034965 0.000000
# 6 0.000000 0.000000 0.000000 0.000000 0.000000 0.079038
#
#
# Mechanical properties :
#
#
# Convention : Reuss Voigt Hill
#
# Bulk Modulus (GPa) = 10.19619 13.89689 12.04654
# Shear Modulus (GPa) = 19.95008 23.58006 21.76507
#
# Velocity S-wave (km/s) = 3.39968 3.69605 3.55096
# Velocity P-wave (km/s) = 4.61708 5.12498 4.87764
#
# Compressibility (1/GPa) = 0.09807589
#
# Stress axis : x y z
#
# Youngs Moduli (GPa) = 67.86042 38.21458 27.92693
#
# Poissons Ratio (x) = 0.11280 -0.18151
# Poissons Ratio (y) = 0.20031 -0.19924
# Poissons Ratio (z) = -0.44105 -0.27264
#
# Static dielectric constant tensor:
#      x y z
#    x 1.584670 0.000000 0.000000 
#    y 0.000000 1.560730 0.000000 
#    z 0.000000 0.000000 1.605840 
# 
# From -- ./inp_files/9660.got.cif
#   From: 2010.05.17/outbox.cif.g08.bks.cpg/sg20_5_cif.got.tgz:9660.got - 2010.06.03 22:52:26.
