data_PCOD9317845
_publ_section_title
;
Structure prediction by ZEFSAII (Michael W. Deem and Ramdas Pophale) SiO2 
 PCOD9317845
Probable space group: C 2 2 21
;
_chemical_formula_sum "Si O2"
_cell_formula_units_Z 48
_cell_length_a 7.284091
_cell_length_b 12.163541
_cell_length_c 20.867386
_cell_angle_alpha 90.000000
_cell_angle_beta 90.000000
_cell_angle_gamma 90.000000
_cell_volume 1848.857485
_symmetry_space_group_name_H-M "C 2 2 21"
_symmetry_group_IT_number 20
_symmetry_cell_setting 'orthorhombic'
loop_
_space_group_symop_operation_xyz
x,y,z
-x,-y,1/2+z
x,-y,-z
-x,y,1/2-z
1/2+x,1/2+y,z
1/2-x,1/2-y,1/2+z
1/2+x,1/2-y,-z
1/2-x,1/2+y,1/2-z
loop_
_atom_site_type_symbol
_atom_site_label
_atom_site_fract_x
_atom_site_fract_y
_atom_site_fract_z
Si Si1 0.573885 0.473384 0.821243
Si Si2 0.286232 0.332642 0.275268
Si Si3 0.661799 0.242850 0.859134
Si Si4 0.488972 0.407316 0.452123
Si Si5 0.411992 0.799649 0.608154
Si Si6 0.393679 0.956784 0.439021
O O1 0.500000 0.447223 0.750000
O O2 0.754315 0.545234 0.802233
O O3 0.572050 0.360763 0.858809
O O4 0.498334 0.553793 0.877213
O O5 0.500000 0.340858 0.250000
O O6 0.175325 0.300382 0.213334
O O7 0.297463 0.243641 0.330998
O O8 0.870976 0.276376 0.878816
O O9 0.554655 0.148593 0.897587
O O10 0.411608 0.500000 0.500000
O O11 0.386472 0.290049 0.449645
O O12 0.704469 0.405988 0.468734
O O13 0.374483 0.928798 0.599494
O O14 0.506834 0.000000 0.500000
#
# Coordination Sequence:
#
# PCOD9317845 Si02
#       6
#     8   8   8   8   8   8
#     4  10  20  36  57  83 117 148 194 245 289 357
#     4   8  17  34  56  77 105 148 183 229 295 343
#     4  10  21  36  56  86 117 147 190 246 294 347
#     4   9  20  38  61  82 110 156 197 235 293 353
#     4   9  19  37  59  80 113 153 189 238 294 352
#     4  10  21  37  59  83 112 155 197 235 291 353
#
# _framework density 25.961980000000001
#
# number of rings (size 3 to 8) (size 9 to 14) (size 15 to 20)
#    0.000    2.667    0.000    3.000    7.000    0.000 
#    3.000    0.833    0.000    0.000    0.000    0.000 
#    0.000    0.000    0.000    0.000    0.000    0.000 
#
# Total GULP energy -133652.898790 kJ/mol
# GULP energy per Si atom -5568.870783 kJ/mol
# Density = 2.590289 g / cm^3
# Si number density = 25.961980 Si / 1000 Ang^3
#
#
#
# Elastic Constant Matrix: (Units=GPa)
#
#
# Indices 1 2 3 4 5 6 
#
# 1 59.3206 10.7016 7.3068 0.0000 0.0000 0.0000
# 2 10.7016 224.7506 50.1818 0.0000 0.0000 0.0000
# 3 7.3068 50.1818 96.4452 0.0000 0.0000 0.0000
# 4 0.0000 0.0000 0.0000 47.2659 0.0000 0.0000
# 5 0.0000 0.0000 0.0000 0.0000 4.8703 0.0000
# 6 0.0000 0.0000 0.0000 0.0000 0.0000 43.2551
#
#
#
# Elastic Compliance Matrix: (Units=1/GPa)
#
#
# Indices 1 2 3 4 5 6 
#
# 1 0.017086 -0.000593 -0.000986 0.000000 0.000000 0.000000
# 2 -0.000593 0.005055 -0.002585 0.000000 0.000000 0.000000
# 3 -0.000986 -0.002585 0.011788 0.000000 0.000000 0.000000
# 4 0.000000 0.000000 0.000000 0.021157 0.000000 0.000000
# 5 0.000000 0.000000 0.000000 0.000000 0.205326 0.000000
# 6 0.000000 0.000000 0.000000 0.000000 0.000000 0.023119
#
#
# Mechanical properties :
#
#
# Convention : Reuss Voigt Hill
#
# Bulk Modulus (GPa) = 39.06151 57.43297 48.24724
# Shear Modulus (GPa) = 16.64486 39.90001 28.27243
#
# Velocity S-wave (km/s) = 2.53479 3.92454 3.30357
# Velocity P-wave (km/s) = 4.86263 6.53498 5.75983
#
# Compressibility (1/GPa) = 0.02560065
#
# Stress axis : x y z
#
# Youngs Moduli (GPa) = 58.52739 197.83023 84.82952
#
# Poissons Ratio (x) = 0.11741 0.08361
# Poissons Ratio (y) = 0.03473 0.21930
# Poissons Ratio (z) = 0.05769 0.51142
#
# Static dielectric constant tensor:
#      x y z
#    x 2.167040 0.000000 0.000000 
#    y 0.000000 2.121290 0.000000 
#    z 0.000000 0.000000 2.118080 
# 
# From -- ./inp_files/27138.got.cif
#   From: 2010.05.17/outbox.cif.g08.bks.cpg/sg20_14_cif.got.tgz:27138.got - 2010.06.03 22:52:26.
