data_PCOD9317222
_publ_section_title
;
Structure prediction by ZEFSAII (Michael W. Deem and Ramdas Pophale) SiO2 
 PCOD9317222
Probable space group: C 2 2 21
;
_chemical_formula_sum "Si O2"
_cell_formula_units_Z 60
_cell_length_a 16.528694
_cell_length_b 17.365641
_cell_length_c 10.575565
_cell_angle_alpha 90.000000
_cell_angle_beta 90.000000
_cell_angle_gamma 90.000000
_cell_volume 3035.518870
_symmetry_space_group_name_H-M "C 2 2 21"
_symmetry_group_IT_number 20
_symmetry_cell_setting 'orthorhombic'
loop_
_space_group_symop_operation_xyz
x,y,z
-x,-y,1/2+z
x,-y,-z
-x,y,1/2-z
1/2+x,1/2+y,z
1/2-x,1/2-y,1/2+z
1/2+x,1/2-y,-z
1/2-x,1/2+y,1/2-z
loop_
_atom_site_type_symbol
_atom_site_label
_atom_site_fract_x
_atom_site_fract_y
_atom_site_fract_z
Si Si1 0.673685 0.409242 0.649271
Si Si2 0.061729 0.302830 0.552257
Si Si3 0.830592 0.405447 0.278636
Si Si4 0.559220 0.080647 0.009628
Si Si5 0.500000 0.313277 0.250000
Si Si6 0.646314 0.075813 0.266485
Si Si7 0.091845 0.756593 0.700616
Si Si8 0.851105 0.084046 0.844099
O O1 0.766232 0.411915 0.700339
O O2 0.633549 0.338748 0.725123
O O3 0.663432 0.403529 0.495702
O O4 0.635181 0.492938 0.677128
O O5 0.120069 0.361492 0.628371
O O6 0.105306 0.251125 0.450373
O O7 0.001108 0.354010 0.469203
O O8 0.005089 0.246930 0.634440
O O9 0.863420 0.424189 0.419736
O O10 0.855406 0.483654 0.202306
O O11 0.868678 0.322868 0.248387
O O12 0.734568 0.397361 0.279110
O O13 0.582664 0.090975 0.154269
O O14 0.514669 0.000000 0.000000
O O15 0.577818 0.366283 0.279908
O O16 0.000000 0.761761 0.750000
#
# Coordination Sequence:
#
# PCOD9317222 Si02
#       8
#     8   8   8   8   4   8   8   8
#     4  10  22  42  68  90 126 172 214 265 320 387
#     4  12  24  38  59  97 133 167 215 268 322 380
#     4  10  22  40  65  93 128 170 209 263 326 393
#     4  10  19  35  62  91 127 167 205 256 327 393
#     4  12  24  40  64  96 124 164 222 274 318 370
#     4  10  21  39  65  94 124 168 211 261 325 394
#     4  12  26  39  60  94 133 171 217 266 324 382
#     4  10  22  44  68  92 125 169 218 264 324 386
#
# _framework density 19.765978
#
# number of rings (size 3 to 8) (size 9 to 14) (size 15 to 20)
#    0.000    1.333    5.333    0.000    4.667    0.000 
#    0.000    1.333    0.000    1.600    0.000    0.000 
#    0.000    0.000    0.000    0.000    0.000    0.000 
#
# Total GULP energy -167013.218839 kJ/mol
# GULP energy per Si atom -5567.107295 kJ/mol
# Density = 1.972099 g / cm^3
# Si number density = 19.765978 Si / 1000 Ang^3
#
#
#
# Elastic Constant Matrix: (Units=GPa)
#
#
# Indices 1 2 3 4 5 6 
#
# 1 99.2287 69.5930 19.4224 0.0000 0.0000 0.0000
# 2 69.5930 157.9069 28.4741 0.0000 0.0000 0.0000
# 3 19.4224 28.4741 52.6247 0.0000 0.0000 0.0000
# 4 0.0000 0.0000 0.0000 23.6676 0.0000 0.0000
# 5 0.0000 0.0000 0.0000 0.0000 19.8031 0.0000
# 6 0.0000 0.0000 0.0000 0.0000 0.0000 36.6453
#
#
#
# Elastic Compliance Matrix: (Units=1/GPa)
#
#
# Indices 1 2 3 4 5 6 
#
# 1 0.014801 -0.006137 -0.002142 0.000000 0.000000 0.000000
# 2 -0.006137 0.009562 -0.002909 0.000000 0.000000 0.000000
# 3 -0.002142 -0.002909 0.021367 0.000000 0.000000 0.000000
# 4 0.000000 0.000000 0.000000 0.042252 0.000000 0.000000
# 5 0.000000 0.000000 0.000000 0.000000 0.050497 0.000000
# 6 0.000000 0.000000 0.000000 0.000000 0.000000 0.027289
#
#
# Mechanical properties :
#
#
# Convention : Reuss Voigt Hill
#
# Bulk Modulus (GPa) = 42.81861 60.52659 51.67260
# Shear Modulus (GPa) = 25.51956 28.84126 27.18041
#
# Velocity S-wave (km/s) = 3.59707 3.82401 3.71227
# Velocity P-wave (km/s) = 6.24193 7.08417 6.67634
#
# Compressibility (1/GPa) = 0.02335433
#
# Stress axis : x y z
#
# Youngs Moduli (GPa) = 67.56286 104.58049 46.80117
#
# Poissons Ratio (x) = 0.64180 0.10026
# Poissons Ratio (y) = 0.41462 0.13614
# Poissons Ratio (z) = 0.14473 0.30421
#
# Static dielectric constant tensor:
#      x y z
#    x 1.673900 0.000000 0.000000 
#    y 0.000000 1.739970 0.000000 
#    z 0.000000 0.000000 1.732920 
# 
# From -- ./inp_files/15870.got.cif
#   From: 2010.05.17/outbox.cif.g08.bks.cpg/sg20_8_cif.got.tgz:15870.got - 2010.06.03 22:52:26.
