data_PCOD9317439
_publ_section_title
;
Structure prediction by ZEFSAII (Michael W. Deem and Ramdas Pophale) SiO2 
 PCOD9317439
Probable space group: C 2 2 21
;
_chemical_formula_sum "Si O2"
_cell_formula_units_Z 48
_cell_length_a 16.852438
_cell_length_b 20.717162
_cell_length_c 5.302291
_cell_angle_alpha 90.000000
_cell_angle_beta 90.000000
_cell_angle_gamma 90.000000
_cell_volume 1851.213715
_symmetry_space_group_name_H-M "C 2 2 21"
_symmetry_group_IT_number 20
_symmetry_cell_setting 'orthorhombic'
loop_
_space_group_symop_operation_xyz
x,y,z
-x,-y,1/2+z
x,-y,-z
-x,y,1/2-z
1/2+x,1/2+y,z
1/2-x,1/2-y,1/2+z
1/2+x,1/2-y,-z
1/2-x,1/2+y,1/2-z
loop_
_atom_site_type_symbol
_atom_site_label
_atom_site_fract_x
_atom_site_fract_y
_atom_site_fract_z
Si Si1 0.549991 0.240933 0.012898
Si Si2 0.083653 0.590531 0.146412
Si Si3 0.318883 0.919128 0.155888
Si Si4 0.845402 0.939723 0.245760
Si Si5 0.090296 0.919104 0.746847
Si Si6 0.225404 0.215638 0.913234
O O1 0.500000 0.241549 0.750000
O O2 0.500000 0.268603 0.250000
O O3 0.569622 0.166934 0.092036
O O4 0.634288 0.275922 0.992124
O O5 0.144106 0.577751 0.377733
O O6 0.000000 0.564360 0.250000
O O7 0.116709 0.569362 0.874022
O O8 0.243954 0.963496 0.231390
O O9 0.273992 0.849414 0.165251
O O10 0.866974 0.903270 0.497317
O O11 0.901916 0.002458 0.240929
O O12 0.863288 0.898204 0.000405
O O13 0.000000 0.898888 0.750000
O O14 0.227661 0.257059 0.655617
#
# Coordination Sequence:
#
# PCOD9317439 Si02
#       6
#     8   8   8   8   8   8
#     4  11  21  36  56  77 105 149 200 238 284 353
#     4  11  22  37  59  82 107 147 195 251 287 337
#     4  12  22  38  57  90 115 145 195 250 299 346
#     4  10  20  33  58  89 118 148 191 240 283 339
#     4  10  19  38  62  90 117 162 198 227 278 356
#     4  12  22  38  56  80 114 157 191 242 307 349
#
# _framework density 25.928937999999999
#
# number of rings (size 3 to 8) (size 9 to 14) (size 15 to 20)
#    0.000    1.000    3.333    7.000    0.000    0.000 
#    0.000    3.333    0.000    0.000    0.000   46.667 
#    0.000    0.000    0.000    0.000    0.000    0.000 
#
# Total GULP energy -134221.839747 kJ/mol
# GULP energy per Si atom -5592.576656 kJ/mol
# Density = 2.586992 g / cm^3
# Si number density = 25.928938 Si / 1000 Ang^3
#
#
#
# Elastic Constant Matrix: (Units=GPa)
#
#
# Indices 1 2 3 4 5 6 
#
# 1 148.0074 24.9183 69.0766 0.0000 0.0000 0.0000
# 2 24.9183 51.2301 29.0654 0.0000 0.0000 0.0000
# 3 69.0766 29.0654 260.8925 0.0000 0.0000 0.0000
# 4 0.0000 0.0000 0.0000 1.0431 0.0000 0.0000
# 5 0.0000 0.0000 0.0000 0.0000 65.3408 0.0000
# 6 0.0000 0.0000 0.0000 0.0000 0.0000 214.1282
#
#
#
# Elastic Compliance Matrix: (Units=1/GPa)
#
#
# Indices 1 2 3 4 5 6 
#
# 1 0.008095 -0.002905 -0.001820 0.000000 0.000000 0.000000
# 2 -0.002905 0.021879 -0.001668 0.000000 0.000000 0.000000
# 3 -0.001820 -0.001668 0.004501 0.000000 0.000000 0.000000
# 4 0.000000 0.000000 0.000000 0.958708 0.000000 0.000000
# 5 0.000000 0.000000 0.000000 0.000000 0.015304 0.000000
# 6 0.000000 0.000000 0.000000 0.000000 0.000000 0.004670
#
#
# Mechanical properties :
#
#
# Convention : Reuss Voigt Hill
#
# Bulk Modulus (GPa) = 46.10672 78.47231 62.28951
# Shear Modulus (GPa) = 4.83946 78.57373 41.70660
#
# Velocity S-wave (km/s) = 1.36766 5.51083 4.01496
# Velocity P-wave (km/s) = 4.50717 8.41561 6.75044
#
# Compressibility (1/GPa) = 0.02168881
#
# Stress axis : x y z
#
# Youngs Moduli (GPa) = 123.53740 45.70537 222.19036
#
# Poissons Ratio (x) = 0.13277 0.40430
# Poissons Ratio (y) = 0.35887 0.37070
# Poissons Ratio (z) = 0.22479 0.07625
#
# Static dielectric constant tensor:
#      x y z
#    x 2.085680 0.000000 0.000000 
#    y 0.000000 2.173750 0.000000 
#    z 0.000000 0.000000 0.387420 
# 
# From -- ./inp_files/2017.got.cif
#   From: 2010.05.17/outbox.cif.g08.bks.cpg/sg20_2_cif.got.tgz:2017.got - 2010.06.03 22:52:26.
