data_PCOD9317866
_publ_section_title
;
Structure prediction by ZEFSAII (Michael W. Deem and Ramdas Pophale) SiO2 
 PCOD9317866
Probable space group: C 2 2 21
;
_chemical_formula_sum "Si O2"
_cell_formula_units_Z 64
_cell_length_a 11.800990
_cell_length_b 8.119105
_cell_length_c 25.915126
_cell_angle_alpha 90.000000
_cell_angle_beta 90.000000
_cell_angle_gamma 90.000000
_cell_volume 2483.018327
_symmetry_space_group_name_H-M "C 2 2 21"
_symmetry_group_IT_number 20
_symmetry_cell_setting 'orthorhombic'
loop_
_space_group_symop_operation_xyz
x,y,z
-x,-y,1/2+z
x,-y,-z
-x,y,1/2-z
1/2+x,1/2+y,z
1/2-x,1/2-y,1/2+z
1/2+x,1/2-y,-z
1/2-x,1/2+y,1/2-z
loop_
_atom_site_type_symbol
_atom_site_label
_atom_site_fract_x
_atom_site_fract_y
_atom_site_fract_z
Si Si1 0.478145 0.366502 0.344602
Si Si2 0.139999 0.344365 0.925429
Si Si3 0.286438 0.427745 0.625372
Si Si4 0.867057 0.280165 0.252308
Si Si5 0.536600 0.172136 0.914712
Si Si6 0.937239 0.452831 0.824323
Si Si7 0.685251 0.846927 0.462548
Si Si8 0.725214 0.488057 0.675207
O O1 0.449124 0.287922 0.401179
O O2 0.372950 0.488710 0.333785
O O3 0.481560 0.198893 0.311323
O O4 0.596180 0.460595 0.339521
O O5 0.215928 0.281973 0.972817
O O6 0.216059 0.410680 0.876182
O O7 0.072853 0.504735 0.941583
O O8 0.363742 0.299421 0.595011
O O9 0.166365 0.368193 0.645600
O O10 0.241505 0.572815 0.588491
O O11 0.883347 0.449729 0.221491
O O12 0.799677 0.356904 0.302003
O O13 0.793503 0.152005 0.219069
O O14 0.000000 0.218391 0.250000
O O15 0.430659 0.240000 0.946634
O O16 0.490612 0.095235 0.860439
O O17 0.670677 0.000000 0.500000
#
# Coordination Sequence:
#
# PCOD9317866 Si02
#       8
#     8   8   8   8   8   8   8   8
#     4  10  20  36  59  83 112 152 195 243 295 353
#     4  10  22  41  63  86 118 160 203 249 306 366
#     4  10  20  37  63  88 117 158 198 241 298 360
#     4  12  26  40  57  85 120 158 203 259 313 365
#     4  10  20  37  64  89 116 157 200 244 299 360
#     4  10  21  38  58  86 118 154 203 250 299 362
#     4  10  22  39  60  92 127 156 197 249 303 370
#     4  12  25  40  60  87 119 159 207 255 308 372
#
# _framework density 25.775082999999999
#
# number of rings (size 3 to 8) (size 9 to 14) (size 15 to 20)
#    0.000    1.500    0.000    6.750    0.000    5.000 
#    0.000    0.625    0.000    0.000    0.000    0.000 
#    0.000    0.000    0.000    0.000    0.000    0.000 
#
# Total GULP energy -178714.520454 kJ/mol
# GULP energy per Si atom -5584.828764 kJ/mol
# Density = 2.571642 g / cm^3
# Si number density = 25.775083 Si / 1000 Ang^3
#
#
#
# Elastic Constant Matrix: (Units=GPa)
#
#
# Indices 1 2 3 4 5 6 
#
# 1 150.4454 26.0801 21.8664 0.0000 0.0000 0.0000
# 2 26.0801 63.3143 -5.3174 0.0000 0.0000 0.0000
# 3 21.8664 -5.3174 42.9292 0.0000 0.0000 0.0000
# 4 0.0000 0.0000 0.0000 29.8725 0.0000 0.0000
# 5 0.0000 0.0000 0.0000 0.0000 17.2979 0.0000
# 6 0.0000 0.0000 0.0000 0.0000 0.0000 48.5818
#
#
#
# Elastic Compliance Matrix: (Units=1/GPa)
#
#
# Indices 1 2 3 4 5 6 
#
# 1 0.007931 -0.003644 -0.004491 0.000000 0.000000 0.000000
# 2 -0.003644 0.017635 0.004041 0.000000 0.000000 0.000000
# 3 -0.004491 0.004041 0.026082 0.000000 0.000000 0.000000
# 4 0.000000 0.000000 0.000000 0.033476 0.000000 0.000000
# 5 0.000000 0.000000 0.000000 0.000000 0.057810 0.000000
# 6 0.000000 0.000000 0.000000 0.000000 0.000000 0.020584
#
#
# Mechanical properties :
#
#
# Convention : Reuss Voigt Hill
#
# Bulk Modulus (GPa) = 23.01055 37.99413 30.50234
# Shear Modulus (GPa) = 26.85362 33.42112 30.13737
#
# Velocity S-wave (km/s) = 3.23126 3.60480 3.42313
# Velocity P-wave (km/s) = 4.78207 5.66558 5.24247
#
# Compressibility (1/GPa) = 0.04345833
#
# Stress axis : x y z
#
# Youngs Moduli (GPa) = 126.08007 56.70642 38.34006
#
# Poissons Ratio (x) = 0.20665 0.17220
# Poissons Ratio (y) = 0.45947 -0.15491
# Poissons Ratio (z) = 0.56627 -0.22912
#
# Static dielectric constant tensor:
#      x y z
#    x 2.117090 0.000000 0.000000 
#    y 0.000000 2.175840 0.000000 
#    z 0.000000 0.000000 2.091400 
# 
# From -- ./inp_files/31080.got.cif
#   From: 2010.05.17/outbox.cif.g08.bks.cpg/sg20_16_cif.got.tgz:31080.got - 2010.06.03 22:52:26.
