data_PCOD9317810
_publ_section_title
;
Structure prediction by ZEFSAII (Michael W. Deem and Ramdas Pophale) SiO2 
 PCOD9317810
Probable space group: C 2 2 21
;
_chemical_formula_sum "Si O2"
_cell_formula_units_Z 56
_cell_length_a 33.031269
_cell_length_b 17.790939
_cell_length_c 5.120094
_cell_angle_alpha 90.000000
_cell_angle_beta 90.000000
_cell_angle_gamma 90.000000
_cell_volume 3008.860574
_symmetry_space_group_name_H-M "C 2 2 21"
_symmetry_group_IT_number 20
_symmetry_cell_setting 'orthorhombic'
loop_
_space_group_symop_operation_xyz
x,y,z
-x,-y,1/2+z
x,-y,-z
-x,y,1/2-z
1/2+x,1/2+y,z
1/2-x,1/2-y,1/2+z
1/2+x,1/2-y,-z
1/2-x,1/2+y,1/2-z
loop_
_atom_site_type_symbol
_atom_site_label
_atom_site_fract_x
_atom_site_fract_y
_atom_site_fract_z
Si Si1 0.327123 0.449997 0.237227
Si Si2 0.132475 0.276060 0.314231
Si Si3 0.352306 0.949810 0.265231
Si Si4 0.262881 0.929951 0.188727
Si Si5 0.727453 0.227765 0.611923
Si Si6 0.610446 0.684050 0.804442
Si Si7 0.048268 0.050995 0.751302
O O1 0.328798 0.500000 0.500000
O O2 0.280369 0.430777 0.172535
O O3 0.351813 0.373709 0.277020
O O4 0.343715 0.500000 0.000000
O O5 0.129474 0.366321 0.276013
O O6 0.180459 0.256407 0.342662
O O7 0.112351 0.245694 0.577166
O O8 0.114498 0.228485 0.075090
O O9 0.305145 0.932671 0.341427
O O10 0.369897 0.000000 0.500000
O O11 0.353342 0.000000 0.000000
O O12 0.267368 0.856850 0.008633
O O13 0.262316 0.000000 0.000000
O O14 0.750185 0.274221 0.391021
O O15 0.572277 0.628819 0.771195
O O16 0.000000 0.064446 0.750000
O O17 0.058076 0.000000 0.500000
O O18 0.058954 0.000000 0.000000
#
# Coordination Sequence:
#
# PCOD9317810 Si02
#       7
#     8   8   8   8   8   8   8
#     4  11  21  32  47  69  99 138 179 219 267 313
#     4  11  23  35  54  80 106 141 181 232 287 331
#     4  10  20  36  53  71  99 135 179 227 273 321
#     4   9  20  33  49  68  91 129 180 226 263 310
#     4  11  22  36  51  69 100 140 182 227 281 332
#     4  12  22  37  54  80 115 141 178 229 279 330
#     4  10  21  39  63  89 118 156 193 222 266 331
#
# _framework density 18.611696999999999
#
# number of rings (size 3 to 8) (size 9 to 14) (size 15 to 20)
#    0.000    1.429    0.000    6.429    0.000    9.143 
#    0.000    0.000    0.000    0.000    0.000    0.000 
#    0.000   11.429    0.000    0.000    0.000    0.000 
#
# Total GULP energy -156315.212679 kJ/mol
# GULP energy per Si atom -5582.686167 kJ/mol
# Density = 1.856934 g / cm^3
# Si number density = 18.611697 Si / 1000 Ang^3
#
#
#
# Elastic Constant Matrix: (Units=GPa)
#
#
# Indices 1 2 3 4 5 6 
#
# 1 62.0116 32.0248 19.8186 0.0000 0.0000 0.0000
# 2 32.0248 104.8422 26.6636 0.0000 0.0000 0.0000
# 3 19.8186 26.6636 110.4469 0.0000 0.0000 0.0000
# 4 0.0000 0.0000 0.0000 36.5159 0.0000 0.0000
# 5 0.0000 0.0000 0.0000 0.0000 8.7898 0.0000
# 6 0.0000 0.0000 0.0000 0.0000 0.0000 28.2907
#
#
#
# Elastic Compliance Matrix: (Units=1/GPa)
#
#
# Indices 1 2 3 4 5 6 
#
# 1 0.019641 -0.005437 -0.002212 0.000000 0.000000 0.000000
# 2 -0.005437 0.011667 -0.001841 0.000000 0.000000 0.000000
# 3 -0.002212 -0.001841 0.009895 0.000000 0.000000 0.000000
# 4 0.000000 0.000000 0.000000 0.027385 0.000000 0.000000
# 5 0.000000 0.000000 0.000000 0.000000 0.113768 0.000000
# 6 0.000000 0.000000 0.000000 0.000000 0.000000 0.035347
#
#
# Mechanical properties :
#
#
# Convention : Reuss Voigt Hill
#
# Bulk Modulus (GPa) = 44.99671 48.25720 46.62695
# Shear Modulus (GPa) = 20.48412 27.97219 24.22815
#
# Velocity S-wave (km/s) = 3.32114 3.88098 3.61192
# Velocity P-wave (km/s) = 6.23984 6.78729 6.51932
#
# Compressibility (1/GPa) = 0.02222385
#
# Stress axis : x y z
#
# Youngs Moduli (GPa) = 50.91477 85.71120 101.05648
#
# Poissons Ratio (x) = 0.46600 0.22351
# Poissons Ratio (y) = 0.27682 0.18605
# Poissons Ratio (z) = 0.11261 0.15780
#
# Static dielectric constant tensor:
#      x y z
#    x 1.653390 0.000000 0.000000 
#    y 0.000000 1.743310 0.000000 
#    z 0.000000 0.000000 1.643910 
# 
# From -- ./inp_files/4682.got.cif
#   From: 2010.05.17/outbox.cif.g08.bks.cpg/sg20_3_cif.got.tgz:4682.got - 2010.06.03 22:52:26.
