data_PCOD9317618
_publ_section_title
;
Structure prediction by ZEFSAII (Michael W. Deem and Ramdas Pophale) SiO2 
 PCOD9317618
Probable space group: C 2 2 21
;
_chemical_formula_sum "Si O2"
_cell_formula_units_Z 32
_cell_length_a 22.262487
_cell_length_b 16.652959
_cell_length_c 4.958067
_cell_angle_alpha 90.000000
_cell_angle_beta 90.000000
_cell_angle_gamma 90.000000
_cell_volume 1838.135332
_symmetry_space_group_name_H-M "C 2 2 21"
_symmetry_group_IT_number 20
_symmetry_cell_setting 'orthorhombic'
loop_
_space_group_symop_operation_xyz
x,y,z
-x,-y,1/2+z
x,-y,-z
-x,y,1/2-z
1/2+x,1/2+y,z
1/2-x,1/2-y,1/2+z
1/2+x,1/2-y,-z
1/2-x,1/2+y,1/2-z
loop_
_atom_site_type_symbol
_atom_site_label
_atom_site_fract_x
_atom_site_fract_y
_atom_site_fract_z
Si Si1 0.941453 0.089921 0.401444
Si Si2 0.710653 0.226587 0.602260
Si Si3 0.866473 0.865367 0.093078
Si Si4 0.261117 0.056324 0.743790
O O1 0.913868 0.133629 0.662260
O O2 0.000000 0.124395 0.250000
O O3 0.955889 0.000000 0.500000
O O4 0.892044 0.088993 0.166738
O O5 0.757728 0.227239 0.352418
O O6 0.653715 0.276913 0.502341
O O7 0.700144 0.136000 0.698119
O O8 0.805184 0.908494 0.183492
O O9 0.281397 0.000000 0.500000
O O10 0.258037 0.000000 0.000000
#
# Coordination Sequence:
#
# PCOD9317618 Si02
#       4
#     8   8   8   8
#     4  12  23  34  49  71  99 134 179 223 251 285
#     4  10  20  33  49  72 101 134 173 215 254 305
#     4  11  21  34  50  69 100 140 173 207 259 304
#     4  11  20  31  50  74 100 132 171 209 251 306
#
# _framework density 17.408946
#
# number of rings (size 3 to 8) (size 9 to 14) (size 15 to 20)
#    0.000    1.000    0.000   12.750    0.000    0.000 
#    0.000    0.000    0.000    0.000    0.000    0.000 
#    0.000    6.000    0.000    9.750    0.000    6.250 
#
# Total GULP energy -89399.525018 kJ/mol
# GULP energy per Si atom -5587.470314 kJ/mol
# Density = 1.736932 g / cm^3
# Si number density = 17.408946 Si / 1000 Ang^3
#
#
#
# Elastic Constant Matrix: (Units=GPa)
#
#
# Indices 1 2 3 4 5 6 
#
# 1 33.0129 25.4938 25.0206 0.0000 0.0000 0.0000
# 2 25.4938 112.0816 46.6911 0.0000 0.0000 0.0000
# 3 25.0206 46.6911 141.7811 0.0000 0.0000 0.0000
# 4 0.0000 0.0000 0.0000 37.0501 0.0000 0.0000
# 5 0.0000 0.0000 0.0000 0.0000 35.5221 0.0000
# 6 0.0000 0.0000 0.0000 0.0000 0.0000 17.3746
#
#
#
# Elastic Compliance Matrix: (Units=1/GPa)
#
#
# Indices 1 2 3 4 5 6 
#
# 1 0.039187 -0.006992 -0.004613 0.000000 0.000000 0.000000
# 2 -0.006992 0.011588 -0.002582 0.000000 0.000000 0.000000
# 3 -0.004613 -0.002582 0.008718 0.000000 0.000000 0.000000
# 4 0.000000 0.000000 0.000000 0.026990 0.000000 0.000000
# 5 0.000000 0.000000 0.000000 0.000000 0.028151 0.000000
# 6 0.000000 0.000000 0.000000 0.000000 0.000000 0.057555
#
#
# Mechanical properties :
#
#
# Convention : Reuss Voigt Hill
#
# Bulk Modulus (GPa) = 32.13523 53.47629 42.80576
# Shear Modulus (GPa) = 23.70387 30.63403 27.16895
#
# Velocity S-wave (km/s) = 3.69398 4.19940 3.95477
# Velocity P-wave (km/s) = 6.05748 7.36869 6.74502
#
# Compressibility (1/GPa) = 0.03111849
#
# Stress axis : x y z
#
# Youngs Moduli (GPa) = 25.51896 86.29515 114.71048
#
# Poissons Ratio (x) = 0.60334 0.52915
# Poissons Ratio (y) = 0.17842 0.29622
# Poissons Ratio (z) = 0.11772 0.22284
#
# Static dielectric constant tensor:
#      x y z
#    x 1.607200 0.000000 0.000000 
#    y 0.000000 1.608990 0.000000 
#    z 0.000000 0.000000 1.626840 
# 
# From -- ./inp_files/3609.got.cif
#   From: 2010.05.17/outbox.cif.g08.bks.cpg/sg20_2_cif.got.tgz:3609.got - 2010.06.03 22:52:26.
