data_PCOD9317906
_publ_section_title
;
Structure prediction by ZEFSAII (Michael W. Deem and Ramdas Pophale) SiO2 
 PCOD9317906
Probable space group: C 2 2 21
;
_chemical_formula_sum "Si O2"
_cell_formula_units_Z 56
_cell_length_a 15.967612
_cell_length_b 21.097168
_cell_length_c 8.233333
_cell_angle_alpha 90.000000
_cell_angle_beta 90.000000
_cell_angle_gamma 90.000000
_cell_volume 2773.574356
_symmetry_space_group_name_H-M "C 2 2 21"
_symmetry_group_IT_number 20
_symmetry_cell_setting 'orthorhombic'
loop_
_space_group_symop_operation_xyz
x,y,z
-x,-y,1/2+z
x,-y,-z
-x,y,1/2-z
1/2+x,1/2+y,z
1/2-x,1/2-y,1/2+z
1/2+x,1/2-y,-z
1/2-x,1/2+y,1/2-z
loop_
_atom_site_type_symbol
_atom_site_label
_atom_site_fract_x
_atom_site_fract_y
_atom_site_fract_z
Si Si1 0.743377 0.438091 0.110590
Si Si2 0.427158 0.059110 0.880952
Si Si3 0.260605 0.316027 0.618284
Si Si4 0.084595 0.174001 0.358087
Si Si5 0.908102 0.882329 0.201986
Si Si6 0.864653 0.254431 0.638818
Si Si7 0.477919 0.193869 0.941388
O O1 0.834188 0.441056 0.195719
O O2 0.666807 0.425318 0.231079
O O3 0.730647 0.500000 0.000000
O O4 0.750634 0.377778 0.991257
O O5 0.500000 0.053039 0.750000
O O6 0.440801 0.125193 0.977073
O O7 0.430545 0.000000 0.000000
O O8 0.336847 0.329661 0.740747
O O9 0.181212 0.294551 0.722790
O O10 0.295448 0.261152 0.499071
O O11 0.092188 0.127121 0.509036
O O12 0.000000 0.165715 0.250000
O O13 0.080118 0.244174 0.438022
O O14 0.895276 0.813360 0.289689
O O15 0.000000 0.906072 0.250000
O O16 0.942780 0.288952 0.553084
O O17 0.500000 0.188925 0.750000
#
# Coordination Sequence:
#
# PCOD9317906 Si02
#       7
#     8   8   8   8   8   8   8
#     4  10  25  48  65  93 136 176 224 278 319 391
#     4  10  24  44  66  89 128 179 219 265 319 382
#     4  11  23  37  64  93 132 173 213 274 340 397
#     4  11  20  39  60  97 136 167 208 273 342 399
#     4  11  22  39  68  97 129 172 215 272 339 398
#     4  11  22  36  60 100 129 166 217 272 336 402
#     4  10  20  36  61  89 135 167 207 273 328 388
#
# _framework density 20.190553000000001
#
# number of rings (size 3 to 8) (size 9 to 14) (size 15 to 20)
#    0.000    1.429    4.286    1.714    6.000    4.571 
#    0.000    2.857    0.000    0.000    0.000    0.000 
#    0.000    0.000    0.000    0.000    0.000    0.000 
#
# Total GULP energy -156455.969719 kJ/mol
# GULP energy per Si atom -5587.713204 kJ/mol
# Density = 2.014460 g / cm^3
# Si number density = 20.190553 Si / 1000 Ang^3
#
#
#
# Elastic Constant Matrix: (Units=GPa)
#
#
# Indices 1 2 3 4 5 6 
#
# 1 158.4860 37.6261 62.3100 0.0000 0.0000 0.0000
# 2 37.6261 60.8641 18.4984 0.0000 0.0000 0.0000
# 3 62.3100 18.4984 103.8297 0.0000 0.0000 0.0000
# 4 0.0000 0.0000 0.0000 12.1984 0.0000 0.0000
# 5 0.0000 0.0000 0.0000 0.0000 56.3813 0.0000
# 6 0.0000 0.0000 0.0000 0.0000 0.0000 20.4649
#
#
#
# Elastic Compliance Matrix: (Units=1/GPa)
#
#
# Indices 1 2 3 4 5 6 
#
# 1 0.009185 -0.004232 -0.004758 0.000000 0.000000 0.000000
# 2 -0.004232 0.019321 -0.000902 0.000000 0.000000 0.000000
# 3 -0.004758 -0.000902 0.012647 0.000000 0.000000 0.000000
# 4 0.000000 0.000000 0.000000 0.081978 0.000000 0.000000
# 5 0.000000 0.000000 0.000000 0.000000 0.017736 0.000000
# 6 0.000000 0.000000 0.000000 0.000000 0.000000 0.048864
#
#
# Mechanical properties :
#
#
# Convention : Reuss Voigt Hill
#
# Bulk Modulus (GPa) = 46.79951 62.22766 54.51358
# Shear Modulus (GPa) = 23.07980 31.45860 27.26920
#
# Velocity S-wave (km/s) = 3.38464 3.95154 3.67903
# Velocity P-wave (km/s) = 6.20513 7.19073 6.71604
#
# Compressibility (1/GPa) = 0.02136775
#
# Stress axis : x y z
#
# Youngs Moduli (GPa) = 108.87120 51.75823 79.06764
#
# Poissons Ratio (x) = 0.21905 0.37622
# Poissons Ratio (y) = 0.46075 0.07135
# Poissons Ratio (z) = 0.51803 0.04671
#
# Static dielectric constant tensor:
#      x y z
#    x 1.738570 0.000000 0.000000 
#    y 0.000000 1.713950 0.000000 
#    z 0.000000 0.000000 1.608640 
# 
# From -- ./inp_files/8734.got.cif
#   From: 2010.05.17/outbox.cif.g08.bks.cpg/sg20_5_cif.got.tgz:8734.got - 2010.06.03 22:52:26.
