data_PCOD9317323
_publ_section_title
;
Structure prediction by ZEFSAII (Michael W. Deem and Ramdas Pophale) SiO2 
 PCOD9317323
Probable space group: C 2 2 21
;
_chemical_formula_sum "Si O2"
_cell_formula_units_Z 48
_cell_length_a 27.962346
_cell_length_b 9.282572
_cell_length_c 8.768048
_cell_angle_alpha 90.000000
_cell_angle_beta 90.000000
_cell_angle_gamma 90.000000
_cell_volume 2275.856372
_symmetry_space_group_name_H-M "C 2 2 21"
_symmetry_group_IT_number 20
_symmetry_cell_setting 'orthorhombic'
loop_
_space_group_symop_operation_xyz
x,y,z
-x,-y,1/2+z
x,-y,-z
-x,y,1/2-z
1/2+x,1/2+y,z
1/2-x,1/2-y,1/2+z
1/2+x,1/2-y,-z
1/2-x,1/2+y,1/2-z
loop_
_atom_site_type_symbol
_atom_site_label
_atom_site_fract_x
_atom_site_fract_y
_atom_site_fract_z
Si Si1 0.738146 0.344728 0.077381
Si Si2 0.904895 0.160015 0.764261
Si Si3 0.303694 0.646715 0.916359
Si Si4 0.573563 0.671161 0.184202
Si Si5 0.646608 0.829432 0.003545
Si Si6 0.479153 0.326712 0.992829
O O1 0.725203 0.348350 0.256075
O O2 0.699169 0.235026 0.009520
O O3 0.731351 0.500000 0.000000
O O4 0.788472 0.279045 0.024137
O O5 0.860245 0.142656 0.879937
O O6 0.883535 0.265765 0.638347
O O7 0.916264 0.001091 0.694438
O O8 0.951675 0.217184 0.853506
O O9 0.290723 0.500000 0.000000
O O10 0.551600 0.715985 0.345674
O O11 0.533558 0.705603 0.054557
O O12 0.620786 0.759012 0.148101
O O13 0.646501 0.000000 0.000000
O O14 0.477276 0.500000 0.000000
#
# Coordination Sequence:
#
# PCOD9317323 Si02
#       6
#     8   8   8   8   8   8
#     4  11  24  41  64  90 120 167 218 266 323 387
#     4  10  21  39  62  92 124 162 208 260 318 380
#     4  11  22  40  63  93 129 163 208 267 326 389
#     4  10  19  36  62  88 120 160 206 258 313 377
#     4  11  23  39  58  85 122 165 212 263 318 378
#     4   9  18  33  59  92 119 155 206 256 309 378
#
# _framework density 21.090962000000001
#
# number of rings (size 3 to 8) (size 9 to 14) (size 15 to 20)
#    0.000    1.667    0.000    6.500    0.000    4.667 
#    0.000    4.167    0.000    0.000    0.000    0.000 
#    0.000    0.000    0.000    0.000    0.000    0.000 
#
# Total GULP energy -134080.167267 kJ/mol
# GULP energy per Si atom -5586.673636 kJ/mol
# Density = 2.104296 g / cm^3
# Si number density = 21.090962 Si / 1000 Ang^3
#
#
#
# Elastic Constant Matrix: (Units=GPa)
#
#
# Indices 1 2 3 4 5 6 
#
# 1 101.4191 32.6322 50.0455 0.0000 0.0000 0.0000
# 2 32.6322 104.4565 19.6916 0.0000 0.0000 0.0000
# 3 50.0455 19.6916 37.8715 0.0000 0.0000 0.0000
# 4 0.0000 0.0000 0.0000 12.0271 0.0000 0.0000
# 5 0.0000 0.0000 0.0000 0.0000 33.9236 0.0000
# 6 0.0000 0.0000 0.0000 0.0000 0.0000 11.8668
#
#
#
# Elastic Compliance Matrix: (Units=1/GPa)
#
#
# Indices 1 2 3 4 5 6 
#
# 1 0.028717 -0.002015 -0.036901 0.000000 0.000000 0.000000
# 2 -0.002015 0.010755 -0.002930 0.000000 0.000000 0.000000
# 3 -0.036901 -0.002930 0.076691 0.000000 0.000000 0.000000
# 4 0.000000 0.000000 0.000000 0.083146 0.000000 0.000000
# 5 0.000000 0.000000 0.000000 0.000000 0.029478 0.000000
# 6 0.000000 0.000000 0.000000 0.000000 0.000000 0.084269
#
#
# Mechanical properties :
#
#
# Convention : Reuss Voigt Hill
#
# Bulk Modulus (GPa) = 30.79501 49.83174 40.31337
# Shear Modulus (GPa) = 12.26781 20.98868 16.62825
#
# Velocity S-wave (km/s) = 2.41438 3.15802 2.81090
# Velocity P-wave (km/s) = 4.73340 6.08078 5.44889
#
# Compressibility (1/GPa) = 0.03247279
#
# Stress axis : x y z
#
# Youngs Moduli (GPa) = 34.82229 92.97923 13.03930
#
# Poissons Ratio (x) = 0.18734 0.48116
# Poissons Ratio (y) = 0.07016 0.03820
# Poissons Ratio (z) = 1.28497 0.27239
#
# Static dielectric constant tensor:
#      x y z
#    x 1.812850 0.000000 0.000000 
#    y 0.000000 1.699900 0.000000 
#    z 0.000000 0.000000 1.817420 
# 
# From -- ./inp_files/11468.got.cif
#   From: 2010.05.17/outbox.cif.g08.bks.cpg/sg20_6_cif.got.tgz:11468.got - 2010.06.03 22:52:26.
