data_PCOD9317217
_publ_section_title
;
Structure prediction by ZEFSAII (Michael W. Deem and Ramdas Pophale) SiO2 
 PCOD9317217
Probable space group: C 2 2 21
;
_chemical_formula_sum "Si O2"
_cell_formula_units_Z 52
_cell_length_a 5.883892
_cell_length_b 18.266141
_cell_length_c 23.881400
_cell_angle_alpha 90.000000
_cell_angle_beta 90.000000
_cell_angle_gamma 90.000000
_cell_volume 2566.677368
_symmetry_space_group_name_H-M "C 2 2 21"
_symmetry_group_IT_number 20
_symmetry_cell_setting 'orthorhombic'
loop_
_space_group_symop_operation_xyz
x,y,z
-x,-y,1/2+z
x,-y,-z
-x,y,1/2-z
1/2+x,1/2+y,z
1/2-x,1/2-y,1/2+z
1/2+x,1/2-y,-z
1/2-x,1/2+y,1/2-z
loop_
_atom_site_type_symbol
_atom_site_label
_atom_site_fract_x
_atom_site_fract_y
_atom_site_fract_z
Si Si1 0.727137 0.418658 0.859023
Si Si2 0.500000 0.593839 0.250000
Si Si3 0.517687 0.329003 0.551807
Si Si4 0.137164 0.422356 0.009805
Si Si5 0.122947 0.509323 0.804372
Si Si6 0.243809 0.318077 0.438510
Si Si7 0.046294 0.067071 0.613838
O O1 0.623541 0.374742 0.805251
O O2 0.681208 0.367149 0.912265
O O3 0.586910 0.493081 0.871704
O O4 0.967116 0.454641 0.841626
O O5 0.692979 0.543011 0.276142
O O6 0.726775 0.384881 0.540905
O O7 0.414795 0.305693 0.491297
O O8 0.629573 0.257664 0.579319
O O9 0.336317 0.440253 0.053780
O O10 0.957966 0.368289 0.037427
O O11 0.017818 0.500000 0.000000
O O12 0.248836 0.569240 0.841858
O O13 0.000000 0.542359 0.750000
O O14 0.380133 0.363717 0.391713
#
# Coordination Sequence:
#
# PCOD9317217 Si02
#       7
#     8   4   8   8   8   8   8
#     4  10  19  35  61  92 117 158 208 264 308 365
#     4   8  18  34  56  94 122 144 202 264 318 370
#     4  11  23  39  56  88 127 174 209 248 310 374
#     4  11  22  37  57  85 125 160 212 254 299 368
#     4   9  18  35  59  94 129 151 203 270 323 362
#     4  11  24  37  55  85 132 170 210 251 312 374
#     4  10  21  35  57  90 124 158 207 258 310 369
#
# _framework density 20.259654999999999
#
# number of rings (size 3 to 8) (size 9 to 14) (size 15 to 20)
#    0.000    1.846    3.077    0.923    4.308    0.000 
#    0.000    0.000    0.000    0.000   36.000    0.000 
#    0.000    0.000    0.000    0.000    0.000    0.000 
#
# Total GULP energy -144923.815243 kJ/mol
# GULP energy per Si atom -5573.992894 kJ/mol
# Density = 2.021354 g / cm^3
# Si number density = 20.259655 Si / 1000 Ang^3
#
#
#
# Elastic Constant Matrix: (Units=GPa)
#
#
# Indices 1 2 3 4 5 6 
#
# 1 83.0824 33.6471 28.6504 0.0000 0.0000 0.0000
# 2 33.6471 99.6487 29.2844 0.0000 0.0000 0.0000
# 3 28.6504 29.2844 74.6531 0.0000 0.0000 0.0000
# 4 0.0000 0.0000 0.0000 8.3535 0.0000 0.0000
# 5 0.0000 0.0000 0.0000 0.0000 35.9370 0.0000
# 6 0.0000 0.0000 0.0000 0.0000 0.0000 16.4716
#
#
#
# Elastic Compliance Matrix: (Units=1/GPa)
#
#
# Indices 1 2 3 4 5 6 
#
# 1 0.015062 -0.003828 -0.004279 0.000000 0.000000 0.000000
# 2 -0.003828 0.012316 -0.003362 0.000000 0.000000 0.000000
# 3 -0.004279 -0.003362 0.016356 0.000000 0.000000 0.000000
# 4 0.000000 0.000000 0.000000 0.119710 0.000000 0.000000
# 5 0.000000 0.000000 0.000000 0.000000 0.027826 0.000000
# 6 0.000000 0.000000 0.000000 0.000000 0.000000 0.060710
#
#
# Mechanical properties :
#
#
# Convention : Reuss Voigt Hill
#
# Bulk Modulus (GPa) = 48.08609 48.94980 48.51794
# Shear Modulus (GPa) = 17.73983 23.20592 20.47288
#
# Velocity S-wave (km/s) = 2.96230 3.38808 3.18232
# Velocity P-wave (km/s) = 5.95708 6.28643 6.12397
#
# Compressibility (1/GPa) = 0.02079604
#
# Stress axis : x y z
#
# Youngs Moduli (GPa) = 66.39136 81.19555 61.13886
#
# Poissons Ratio (x) = 0.31085 0.26160
# Poissons Ratio (y) = 0.25417 0.20555
# Poissons Ratio (z) = 0.28407 0.27298
#
# Static dielectric constant tensor:
#      x y z
#    x 1.782690 0.000000 0.000000 
#    y 0.000000 1.689620 0.000000 
#    z 0.000000 0.000000 1.797070 
# 
# From -- ./inp_files/26120.got.cif
#   From: 2010.05.17/outbox.cif.g08.bks.cpg/sg20_14_cif.got.tgz:26120.got - 2010.06.03 22:52:26.
