data_PCOD9317869
_publ_section_title
;
Structure prediction by ZEFSAII (Michael W. Deem and Ramdas Pophale) SiO2 
 PCOD9317869
Probable space group: C 2 2 21
;
_chemical_formula_sum "Si O2"
_cell_formula_units_Z 48
_cell_length_a 8.625984
_cell_length_b 18.406255
_cell_length_c 15.328821
_cell_angle_alpha 90.000000
_cell_angle_beta 90.000000
_cell_angle_gamma 90.000000
_cell_volume 2433.788505
_symmetry_space_group_name_H-M "C 2 2 21"
_symmetry_group_IT_number 20
_symmetry_cell_setting 'orthorhombic'
loop_
_space_group_symop_operation_xyz
x,y,z
-x,-y,1/2+z
x,-y,-z
-x,y,1/2-z
1/2+x,1/2+y,z
1/2-x,1/2-y,1/2+z
1/2+x,1/2-y,-z
1/2-x,1/2+y,1/2-z
loop_
_atom_site_type_symbol
_atom_site_label
_atom_site_fract_x
_atom_site_fract_y
_atom_site_fract_z
Si Si1 0.436413 0.674819 0.989853
Si Si2 0.918322 0.563349 0.156154
Si Si3 0.561183 0.604163 0.159137
Si Si4 0.637110 0.467761 0.404064
Si Si5 0.466564 0.090043 0.652116
Si Si6 0.569615 0.827415 0.979592
O O1 0.453969 0.606743 0.924353
O O2 0.255217 0.677715 0.015514
O O3 0.528601 0.655638 0.077404
O O4 0.494705 0.751022 0.953807
O O5 0.742399 0.588512 0.162791
O O6 0.000000 0.570062 0.250000
O O7 0.923650 0.478423 0.131873
O O8 0.012942 0.610510 0.086244
O O9 0.500000 0.635433 0.250000
O O10 0.463674 0.529685 0.142039
O O11 0.680260 0.500000 0.500000
O O12 0.793420 0.444739 0.354664
O O13 0.500000 0.115840 0.750000
O O14 0.481601 0.149565 0.577131
#
# Coordination Sequence:
#
# PCOD9317869 Si02
#       6
#     8   8   8   8   8   8
#     4  10  22  38  58  82 115 154 193 232 288 344
#     4  11  22  37  59  87 115 148 193 239 286 340
#     4  11  21  36  60  85 113 148 190 239 287 342
#     4   9  19  38  58  81 114 150 187 234 288 341
#     4  10  20  36  59  85 114 148 189 236 286 341
#     4  11  22  39  58  82 119 156 191 238 287 342
#
# _framework density 19.722339000000002
#
# number of rings (size 3 to 8) (size 9 to 14) (size 15 to 20)
#    0.000    1.667    0.000    7.500    0.000    6.000 
#    0.000    4.167    0.000    0.000    0.000    0.000 
#    0.000    0.000    0.000    0.000    0.000    0.000 
#
# Total GULP energy -134141.724751 kJ/mol
# GULP energy per Si atom -5589.238531 kJ/mol
# Density = 1.967745 g / cm^3
# Si number density = 19.722339 Si / 1000 Ang^3
#
#
#
# Elastic Constant Matrix: (Units=GPa)
#
#
# Indices 1 2 3 4 5 6 
#
# 1 56.6366 -19.0330 4.7189 0.0000 0.0000 0.0000
# 2 -19.0330 52.6876 5.3087 0.0000 0.0000 0.0000
# 3 4.7189 5.3087 64.4005 0.0000 0.0000 0.0000
# 4 0.0000 0.0000 0.0000 11.6493 0.0000 0.0000
# 5 0.0000 0.0000 0.0000 0.0000 27.5600 0.0000
# 6 0.0000 0.0000 0.0000 0.0000 0.0000 19.2626
#
#
#
# Elastic Compliance Matrix: (Units=1/GPa)
#
#
# Indices 1 2 3 4 5 6 
#
# 1 0.020378 0.007575 -0.002118 0.000000 0.000000 0.000000
# 2 0.007575 0.021954 -0.002365 0.000000 0.000000 0.000000
# 3 -0.002118 -0.002365 0.015878 0.000000 0.000000 0.000000
# 4 0.000000 0.000000 0.000000 0.085842 0.000000 0.000000
# 5 0.000000 0.000000 0.000000 0.000000 0.036285 0.000000
# 6 0.000000 0.000000 0.000000 0.000000 0.000000 0.051914
#
#
# Mechanical properties :
#
#
# Convention : Reuss Voigt Hill
#
# Bulk Modulus (GPa) = 15.52895 17.30154 16.41524
# Shear Modulus (GPa) = 20.19941 23.87638 22.03790
#
# Velocity S-wave (km/s) = 3.20377 3.48318 3.34639
# Velocity P-wave (km/s) = 4.64504 4.99683 4.82414
#
# Compressibility (1/GPa) = 0.06439587
#
# Stress axis : x y z
#
# Youngs Moduli (GPa) = 49.07140 45.54884 62.98052
#
# Poissons Ratio (x) = -0.34503 0.13337
# Poissons Ratio (y) = -0.37171 0.14894
# Poissons Ratio (z) = 0.10392 0.10771
#
# Static dielectric constant tensor:
#      x y z
#    x 1.679820 0.000000 0.000000 
#    y 0.000000 1.694420 0.000000 
#    z 0.000000 0.000000 1.680860 
# 
# From -- ./inp_files/18867.got.cif
#   From: 2010.05.17/outbox.cif.g08.bks.cpg/sg20_10_cif.got.tgz:18867.got - 2010.06.03 22:52:26.
