data_PCOD9317103
_publ_section_title
;
Structure prediction by ZEFSAII (Michael W. Deem and Ramdas Pophale) SiO2 
 PCOD9317103
Probable space group: C 2 2 21
;
_chemical_formula_sum "Si O2"
_cell_formula_units_Z 64
_cell_length_a 24.568405
_cell_length_b 7.691813
_cell_length_c 15.794497
_cell_angle_alpha 90.000000
_cell_angle_beta 90.000000
_cell_angle_gamma 90.000000
_cell_volume 2984.774183
_symmetry_space_group_name_H-M "C 2 2 21"
_symmetry_group_IT_number 20
_symmetry_cell_setting 'orthorhombic'
loop_
_space_group_symop_operation_xyz
x,y,z
-x,-y,1/2+z
x,-y,-z
-x,y,1/2-z
1/2+x,1/2+y,z
1/2-x,1/2-y,1/2+z
1/2+x,1/2-y,-z
1/2-x,1/2+y,1/2-z
loop_
_atom_site_type_symbol
_atom_site_label
_atom_site_fract_x
_atom_site_fract_y
_atom_site_fract_z
Si Si1 0.297838 0.713065 0.000000
Si Si2 0.672710 0.213438 0.000000
Si Si3 0.386917 0.203306 0.669379
Si Si4 0.379437 0.703099 0.142715
Si Si5 0.379437 0.703101 0.857286
Si Si6 0.000567 0.789500 0.597524
Si Si7 0.499432 0.710503 0.902477
Si Si8 0.613083 0.203303 0.169379
O O1 0.332186 0.772164 0.918043
O O2 0.295412 0.500000 0.000000
O O3 0.235405 0.768876 0.000001
O O4 0.332187 0.772163 0.081957
O O5 0.642292 0.273257 0.085090
O O6 0.642293 0.273258 0.914911
O O7 0.670222 0.000000 0.000000
O O8 0.368579 0.282542 0.757989
O O9 0.451410 0.227197 0.655719
O O10 0.374664 0.000002 0.674839
O O11 0.383590 0.499999 0.120210
O O12 0.439635 0.775970 0.123443
O O13 0.439635 0.775973 0.876559
O O14 0.368580 0.717461 0.757989
O O15 0.989887 0.738935 0.500001
O O16 0.000310 0.000002 0.602132
O O17 0.548589 0.772807 0.844282
#
# Coordination Sequence:
#
# PCOD9317103 Si02
#       8
#     8   8   8   8   8   8   8   8
#     4   9  18  37  61  79 103 143 186 227 274 318
#     4   9  20  37  55  77 109 147 184 221 266 324
#     4  11  22  36  54  81 115 150 179 212 268 332
#     4  10  20  36  59  85 107 137 183 230 272 318
#     4  10  20  36  59  85 107 137 183 230 272 318
#     4  10  19  34  57  83 109 138 179 229 272 316
#     4  10  19  34  57  83 109 138 179 229 272 316
#     4  11  22  36  54  81 115 150 179 212 268 332
#
# _framework density 21.442159
#
# number of rings (size 3 to 8) (size 9 to 14) (size 15 to 20)
#    0.000    2.000    2.500    1.500    0.000    5.000 
#    0.000    0.625    0.000    4.500    0.000    0.000 
#    0.000    0.000    0.000    0.000    0.000    0.000 
#
# Total GULP energy -178785.095442 kJ/mol
# GULP energy per Si atom -5587.034233 kJ/mol
# Density = 2.139336 g / cm^3
# Si number density = 21.442159 Si / 1000 Ang^3
#
#
#
# Elastic Constant Matrix: (Units=GPa)
#
#
# Indices 1 2 3 4 5 6 
#
# 1 135.7691 -5.8691 45.6162 0.0000 0.0000 0.0000
# 2 -5.8691 28.0030 -13.1534 0.0000 0.0000 0.0000
# 3 45.6162 -13.1534 109.2057 0.0000 0.0000 0.0000
# 4 0.0000 0.0000 0.0000 3.0640 0.0000 0.0000
# 5 0.0000 0.0000 0.0000 0.0000 8.3405 0.0000
# 6 0.0000 0.0000 0.0000 0.0000 0.0000 9.7887
#
#
#
# Elastic Compliance Matrix: (Units=1/GPa)
#
#
# Indices 1 2 3 4 5 6 
#
# 1 0.008568 0.000122 -0.003564 0.000000 0.000000 0.000000
# 2 0.000122 0.037854 0.004509 0.000000 0.000000 0.000000
# 3 -0.003564 0.004509 0.011189 0.000000 0.000000 0.000000
# 4 0.000000 0.000000 0.000000 0.326366 0.000000 0.000000
# 5 0.000000 0.000000 0.000000 0.000000 0.119897 0.000000
# 6 0.000000 0.000000 0.000000 0.000000 0.000000 0.102159
#
#
# Mechanical properties :
#
#
# Convention : Reuss Voigt Hill
#
# Bulk Modulus (GPa) = 16.73858 36.24059 26.48958
# Shear Modulus (GPa) = 8.01519 20.66425 14.33972
#
# Velocity S-wave (km/s) = 1.93550 3.10775 2.58885
# Velocity P-wave (km/s) = 3.58025 5.46038 4.61703
#
# Compressibility (1/GPa) = 0.05974223
#
# Stress axis : x y z
#
# Youngs Moduli (GPa) = 116.70949 26.41756 89.37390
#
# Poissons Ratio (x) = -0.00321 0.31856
# Poissons Ratio (y) = -0.01419 -0.40295
# Poissons Ratio (z) = 0.41600 -0.11910
#
# Static dielectric constant tensor:
#      x y z
#    x 1.748300 0.000000 0.000000 
#    y 0.000000 1.803970 0.000000 
#    z 0.000000 0.000000 1.757420 
# 
# From -- ./inp_files/22057.got.cif
#   From: 2010.05.17/outbox.cif.g08.bks.cpg/sg20_12_cif.got.tgz:22057.got - 2010.06.03 22:52:26.
