data_PCOD9317251
_publ_section_title
;
Structure prediction by ZEFSAII (Michael W. Deem and Ramdas Pophale) SiO2 
 PCOD9317251
Probable space group: C 2 2 21
;
_chemical_formula_sum "Si O2"
_cell_formula_units_Z 52
_cell_length_a 10.016352
_cell_length_b 9.224155
_cell_length_c 28.816883
_cell_angle_alpha 90.000000
_cell_angle_beta 90.000000
_cell_angle_gamma 90.000000
_cell_volume 2662.460502
_symmetry_space_group_name_H-M "C 2 2 21"
_symmetry_group_IT_number 20
_symmetry_cell_setting 'orthorhombic'
loop_
_space_group_symop_operation_xyz
x,y,z
-x,-y,1/2+z
x,-y,-z
-x,y,1/2-z
1/2+x,1/2+y,z
1/2-x,1/2-y,1/2+z
1/2+x,1/2-y,-z
1/2-x,1/2+y,1/2-z
loop_
_atom_site_type_symbol
_atom_site_label
_atom_site_fract_x
_atom_site_fract_y
_atom_site_fract_z
Si Si1 0.051022 0.156955 0.987327
Si Si2 0.344411 0.277135 0.388768
Si Si3 0.348807 0.228699 0.731792
Si Si4 0.063160 0.341042 0.430285
Si Si5 0.308726 0.000000 0.000000
Si Si6 0.254339 0.971600 0.189015
Si Si7 0.058472 0.523127 0.847158
O O1 0.059827 0.192018 0.932892
O O2 0.988584 0.267259 0.023079
O O3 0.989720 0.000000 0.000000
O O4 0.207054 0.134692 0.000646
O O5 0.191744 0.264071 0.407802
O O6 0.335742 0.412664 0.353372
O O7 0.385278 0.131254 0.362611
O O8 0.500000 0.251682 0.750000
O O9 0.263625 0.158142 0.773331
O O10 0.294941 0.379499 0.711739
O O11 0.358765 0.105615 0.692137
O O12 0.114179 0.493056 0.451815
O O13 0.953857 0.371638 0.391748
O O14 0.405898 0.993670 0.170777
#
# Coordination Sequence:
#
# PCOD9317251 Si02
#       7
#     8   8   8   8   4   8   8
#     4   9  20  36  54  79 115 150 197 243 283 339
#     4  10  21  39  58  86 117 155 198 243 290 353
#     4  10  22  40  62  89 118 151 191 243 296 355
#     4  10  19  36  55  75 116 152 189 241 290 335
#     4   8  18  34  50  72 106 144 186 238 288 330
#     4  10  22  40  63  86 120 154 189 247 297 350
#     4  10  22  37  58  86 117 151 197 235 293 356
#
# _framework density 19.530805999999998
#
# number of rings (size 3 to 8) (size 9 to 14) (size 15 to 20)
#    0.462    1.846    0.000    1.846    2.154    1.231 
#    8.308    0.000    0.000    0.000    0.000    0.000 
#    0.000    0.000    0.000    0.000    0.000    0.000 
#
# Total GULP energy -144840.292848 kJ/mol
# GULP energy per Si atom -5570.780494 kJ/mol
# Density = 1.948635 g / cm^3
# Si number density = 19.530806 Si / 1000 Ang^3
#
#
#
# Elastic Constant Matrix: (Units=GPa)
#
#
# Indices 1 2 3 4 5 6 
#
# 1 24.2423 28.8520 32.4136 0.0000 0.0000 0.0000
# 2 28.8520 103.3491 65.1642 0.0000 0.0000 0.0000
# 3 32.4136 65.1642 132.5109 0.0000 0.0000 0.0000
# 4 0.0000 0.0000 0.0000 44.1857 0.0000 0.0000
# 5 0.0000 0.0000 0.0000 0.0000 30.3096 0.0000
# 6 0.0000 0.0000 0.0000 0.0000 0.0000 18.3694
#
#
#
# Elastic Compliance Matrix: (Units=1/GPa)
#
#
# Indices 1 2 3 4 5 6 
#
# 1 0.071555 -0.012958 -0.011131 0.000000 0.000000 0.000000
# 2 -0.012958 0.016371 -0.004881 0.000000 0.000000 0.000000
# 3 -0.011131 -0.004881 0.012670 0.000000 0.000000 0.000000
# 4 0.000000 0.000000 0.000000 0.022632 0.000000 0.000000
# 5 0.000000 0.000000 0.000000 0.000000 0.032993 0.000000
# 6 0.000000 0.000000 0.000000 0.000000 0.000000 0.054438
#
#
# Mechanical properties :
#
#
# Convention : Reuss Voigt Hill
#
# Bulk Modulus (GPa) = 23.44338 56.99576 40.21957
# Shear Modulus (GPa) = 17.67934 27.48443 22.58188
#
# Velocity S-wave (km/s) = 3.01192 3.75538 3.40401
# Velocity P-wave (km/s) = 4.91171 6.93179 6.00727
#
# Compressibility (1/GPa) = 0.04265596
#
# Stress axis : x y z
#
# Youngs Moduli (GPa) = 13.97535 61.08371 78.92865
#
# Poissons Ratio (x) = 0.79149 0.87855
# Poissons Ratio (y) = 0.18109 0.38526
# Poissons Ratio (z) = 0.15556 0.29816
#
# Static dielectric constant tensor:
#      x y z
#    x 1.709000 0.000000 0.000000 
#    y 0.000000 1.689420 0.000000 
#    z 0.000000 0.000000 1.732430 
# 
# From -- ./inp_files/30294.got.cif
#   From: 2010.05.17/outbox.cif.g08.bks.cpg/sg20_16_cif.got.tgz:30294.got - 2010.06.03 22:52:26.
