data_PCOD9317532
_publ_section_title
;
Structure prediction by ZEFSAII (Michael W. Deem and Ramdas Pophale) SiO2 
 PCOD9317532
Probable space group: C 2 2 21
;
_chemical_formula_sum "Si O2"
_cell_formula_units_Z 64
_cell_length_a 9.226943
_cell_length_b 13.001338
_cell_length_c 21.302329
_cell_angle_alpha 90.000000
_cell_angle_beta 90.000000
_cell_angle_gamma 90.000000
_cell_volume 2555.482872
_symmetry_space_group_name_H-M "C 2 2 21"
_symmetry_group_IT_number 20
_symmetry_cell_setting 'orthorhombic'
loop_
_space_group_symop_operation_xyz
x,y,z
-x,-y,1/2+z
x,-y,-z
-x,y,1/2-z
1/2+x,1/2+y,z
1/2-x,1/2-y,1/2+z
1/2+x,1/2-y,-z
1/2-x,1/2+y,1/2-z
loop_
_atom_site_type_symbol
_atom_site_label
_atom_site_fract_x
_atom_site_fract_y
_atom_site_fract_z
Si Si1 0.455943 0.423492 0.942037
Si Si2 0.663199 0.051904 0.769110
Si Si3 0.911958 0.711696 0.592855
Si Si4 0.860382 0.689115 0.088885
Si Si5 0.883367 0.232730 0.209751
Si Si6 0.147431 0.397941 0.460153
Si Si7 0.184192 0.997071 0.145074
Si Si8 0.326647 0.107322 0.372982
O O1 0.544889 0.316204 0.946331
O O2 0.524424 0.478708 0.880114
O O3 0.289115 0.399445 0.928894
O O4 0.477987 0.500000 0.000000
O O5 0.500000 0.017617 0.750000
O O6 0.664046 0.173445 0.754057
O O7 0.781247 0.015666 0.717888
O O8 0.670111 0.003405 0.837980
O O9 0.741803 0.715226 0.607625
O O10 0.020264 0.726665 0.651680
O O11 0.980268 0.612831 0.559805
O O12 0.779700 0.594622 0.123390
O O13 0.026423 0.664319 0.105671
O O14 0.837836 0.686928 0.013744
O O15 0.747778 0.175392 0.181639
O O16 0.000000 0.168433 0.250000
O O17 0.173279 0.500000 0.500000
O O18 0.250332 0.405343 0.399301
#
# Coordination Sequence:
#
# PCOD9317532 Si02
#       8
#     8   8   8   8   8   8   8   8
#     4  10  23  43  69 104 147 184 236 293 353 428
#     4  11  22  42  73  94 140 183 235 290 353 424
#     4  10  21  42  69 102 135 187 238 287 358 421
#     4  10  22  40  68 100 131 183 228 291 353 417
#     4  10  24  42  69  98 133 182 237 287 353 427
#     4  10  21  39  71 102 137 179 241 288 352 427
#     4  10  19  40  71  99 133 188 234 278 350 418
#     4  11  25  42  71 103 142 181 231 300 355 423
#
# _framework density 25.044191000000001
#
# number of rings (size 3 to 8) (size 9 to 14) (size 15 to 20)
#    0.000    1.750    2.500    1.875    5.250    3.500 
#    2.250    2.500    8.250    0.000    0.000    0.000 
#    0.000    0.000    0.000    0.000    0.000    0.000 
#
# Total GULP energy -178553.530857 kJ/mol
# GULP energy per Si atom -5579.797839 kJ/mol
# Density = 2.498719 g / cm^3
# Si number density = 25.044191 Si / 1000 Ang^3
#
#
#
# Elastic Constant Matrix: (Units=GPa)
#
#
# Indices 1 2 3 4 5 6 
#
# 1 152.2592 22.8498 16.7198 0.0000 0.0000 0.0000
# 2 22.8498 40.4234 16.2531 0.0000 0.0000 0.0000
# 3 16.7198 16.2531 61.8628 0.0000 0.0000 0.0000
# 4 0.0000 0.0000 0.0000 22.3018 0.0000 0.0000
# 5 0.0000 0.0000 0.0000 0.0000 32.2338 0.0000
# 6 0.0000 0.0000 0.0000 0.0000 0.0000 37.4206
#
#
#
# Elastic Compliance Matrix: (Units=1/GPa)
#
#
# Indices 1 2 3 4 5 6 
#
# 1 0.007230 -0.003691 -0.000984 0.000000 0.000000 0.000000
# 2 -0.003691 0.029544 -0.006765 0.000000 0.000000 0.000000
# 3 -0.000984 -0.006765 0.018208 0.000000 0.000000 0.000000
# 4 0.000000 0.000000 0.000000 0.044839 0.000000 0.000000
# 5 0.000000 0.000000 0.000000 0.000000 0.031023 0.000000
# 6 0.000000 0.000000 0.000000 0.000000 0.000000 0.026723
#
#
# Mechanical properties :
#
#
# Convention : Reuss Voigt Hill
#
# Bulk Modulus (GPa) = 31.15018 40.68787 35.91903
# Shear Modulus (GPa) = 26.15768 31.63944 28.89856
#
# Velocity S-wave (km/s) = 3.23532 3.55821 3.40060
# Velocity P-wave (km/s) = 5.14018 5.75872 5.45822
#
# Compressibility (1/GPa) = 0.03210254
#
# Stress axis : x y z
#
# Youngs Moduli (GPa) = 138.31756 33.84746 54.92068
#
# Poissons Ratio (x) = 0.12493 0.05406
# Poissons Ratio (y) = 0.51052 0.37151
# Poissons Ratio (z) = 0.13614 0.22896
#
# Static dielectric constant tensor:
#      x y z
#    x 1.993500 0.000000 0.000000 
#    y 0.000000 2.120180 0.000000 
#    z 0.000000 0.000000 2.039720 
# 
# From -- ./inp_files/28902.got.cif
#   From: 2010.05.17/outbox.cif.g08.bks.cpg/sg20_15_cif.got.tgz:28902.got - 2010.06.03 22:52:26.
