data_PCOD9317052
_publ_section_title
;
Structure prediction by ZEFSAII (Michael W. Deem and Ramdas Pophale) SiO2 
 PCOD9317052
Probable space group: C 2 2 21
;
_chemical_formula_sum "Si O2"
_cell_formula_units_Z 36
_cell_length_a 19.120720
_cell_length_b 13.796529
_cell_length_c 5.181409
_cell_angle_alpha 90.000000
_cell_angle_beta 90.000000
_cell_angle_gamma 90.000000
_cell_volume 1366.853456
_symmetry_space_group_name_H-M "C 2 2 21"
_symmetry_group_IT_number 20
_symmetry_cell_setting 'orthorhombic'
loop_
_space_group_symop_operation_xyz
x,y,z
-x,-y,1/2+z
x,-y,-z
-x,y,1/2-z
1/2+x,1/2+y,z
1/2-x,1/2-y,1/2+z
1/2+x,1/2-y,-z
1/2-x,1/2+y,1/2-z
loop_
_atom_site_type_symbol
_atom_site_label
_atom_site_fract_x
_atom_site_fract_y
_atom_site_fract_z
Si Si1 0.041833 0.858802 0.497442
Si Si2 0.336762 0.673803 0.333378
Si Si3 0.118291 0.500000 0.000000
Si Si4 0.792907 0.371658 0.101899
Si Si5 0.413073 0.188048 0.280289
O O1 0.122354 0.874487 0.592035
O O2 0.043486 0.742028 0.442943
O O3 0.000000 0.900346 0.250000
O O4 0.000000 0.885017 0.750000
O O5 0.284015 0.608356 0.494562
O O6 0.292651 0.767807 0.245170
O O7 0.392472 0.724783 0.526105
O O8 0.169348 0.550469 0.786455
O O9 0.067991 0.411349 0.917722
O O10 0.843211 0.349540 0.861755
#
# Coordination Sequence:
#
# PCOD9317052 Si02
#       5
#     8   8   4   8   8
#     4  11  22  38  60  86 121 169 220 270 303 369
#     4  10  19  33  62  85 117 166 218 261 331 371
#     4  10  22  34  58  88 134 166 212 256 334 388
#     4  10  19  34  56  89 119 168 211 268 325 393
#     4  10  20  37  59  83 121 171 200 262 314 379
#
# _framework density 26.337864
#
# number of rings (size 3 to 8) (size 9 to 14) (size 15 to 20)
#    0.000    1.778    4.444    0.667    0.000    0.000 
#    0.000    0.000   14.667    0.000    0.000    0.000 
#    0.000    0.000  105.778    0.000    0.000    0.000 
#
# Total GULP energy -100463.595454 kJ/mol
# GULP energy per Si atom -5581.310859 kJ/mol
# Density = 2.627792 g / cm^3
# Si number density = 26.337864 Si / 1000 Ang^3
#
#
#
# Elastic Constant Matrix: (Units=GPa)
#
#
# Indices 1 2 3 4 5 6 
#
# 1 113.5337 34.6432 51.9018 0.0000 0.0000 0.0000
# 2 34.6432 139.3780 29.2530 0.0000 0.0000 0.0000
# 3 51.9018 29.2530 153.4751 0.0000 0.0000 0.0000
# 4 0.0000 0.0000 0.0000 7.9258 0.0000 0.0000
# 5 0.0000 0.0000 0.0000 0.0000 74.9066 0.0000
# 6 0.0000 0.0000 0.0000 0.0000 0.0000 -12.2391
#
#
#
# Elastic Compliance Matrix: (Units=1/GPa)
#
#
# Indices 1 2 3 4 5 6 
#
# 1 0.010941 -0.002024 -0.003314 0.000000 0.000000 0.000000
# 2 -0.002024 0.007848 -0.000811 0.000000 0.000000 0.000000
# 3 -0.003314 -0.000811 0.007791 0.000000 0.000000 0.000000
# 4 0.000000 0.000000 0.000000 0.126170 0.000000 0.000000
# 5 0.000000 0.000000 0.000000 0.000000 0.013350 0.000000
# 6 0.000000 0.000000 0.000000 0.000000 0.000000 -0.081706
#
#
# Mechanical properties :
#
#
# Convention : Reuss Voigt Hill
#
# Bulk Modulus (GPa) = 70.02291 70.88698 70.45495
# Shear Modulus (GPa) = 49.28395 33.49125 41.38760
#
# Velocity S-wave (km/s) = 4.33045 3.56982 3.96840
# Velocity P-wave (km/s) = 7.18665 6.63056 6.91420
#
# Compressibility (1/GPa) = 0.01428104
#
# Stress axis : x y z
#
# Youngs Moduli (GPa) = 91.40332 127.41992 128.35087
#
# Poissons Ratio (x) = 0.25787 0.42537
# Poissons Ratio (y) = 0.18498 0.10415
# Poissons Ratio (z) = 0.30292 0.10340
#
# Static dielectric constant tensor:
#      x y z
#    x 2.256850 0.000000 0.000000 
#    y 0.000000 2.047490 0.000000 
#    z 0.000000 0.000000 2.200400 
# 
# From -- ./inp_files/3057.got.cif
#   From: 2010.05.17/outbox.cif.g08.bks.cpg/sg20_2_cif.got.tgz:3057.got - 2010.06.03 22:52:26.
