data_PCOD9317497
_publ_section_title
;
Structure prediction by ZEFSAII (Michael W. Deem and Ramdas Pophale) SiO2 
 PCOD9317497
Probable space group: C 2 2 21
;
_chemical_formula_sum "Si O2"
_cell_formula_units_Z 40
_cell_length_a 12.483243
_cell_length_b 6.801050
_cell_length_c 15.773359
_cell_angle_alpha 90.000000
_cell_angle_beta 90.000000
_cell_angle_gamma 90.000000
_cell_volume 1339.144926
_symmetry_space_group_name_H-M "C 2 2 21"
_symmetry_group_IT_number 20
_symmetry_cell_setting 'orthorhombic'
loop_
_space_group_symop_operation_xyz
x,y,z
-x,-y,1/2+z
x,-y,-z
-x,y,1/2-z
1/2+x,1/2+y,z
1/2-x,1/2-y,1/2+z
1/2+x,1/2-y,-z
1/2-x,1/2+y,1/2-z
loop_
_atom_site_type_symbol
_atom_site_label
_atom_site_fract_x
_atom_site_fract_y
_atom_site_fract_z
Si Si1 0.235157 0.767516 0.068016
Si Si2 0.305965 0.821161 0.372305
Si Si3 0.450992 0.726912 0.141743
Si Si4 0.018075 0.274327 0.963254
Si Si5 0.598284 0.700255 0.696523
O O1 0.227984 0.539640 0.097921
O O2 0.339619 0.841202 0.117558
O O3 0.114072 0.825830 0.091159
O O4 0.216682 0.786491 0.964551
O O5 0.429515 0.814831 0.337632
O O6 0.224838 0.760131 0.296918
O O7 0.419654 0.534354 0.193474
O O8 0.479652 0.664125 0.045890
O O9 0.924568 0.277663 0.897326
O O10 0.038573 0.500000 0.000000
O O11 0.500000 0.787447 0.750000
#
# Coordination Sequence:
#
# PCOD9317497 Si02
#       5
#     8   8   8   8   8
#     4   9  16  33  63  89 121 155 203 281 313 357
#     4   9  17  36  60  89 122 162 208 261 318 381
#     4  10  19  39  66  90 121 170 218 262 318 396
#     4  11  20  38  66  95 125 168 220 273 324 384
#     4  11  24  42  61  93 136 172 214 273 333 392
#
# _framework density 29.869806000000001
#
# number of rings (size 3 to 8) (size 9 to 14) (size 15 to 20)
#    0.000    2.000    6.000    0.600    0.000    0.000 
#   10.800    1.000    0.000    0.000    0.000    0.000 
#    0.000    0.000    0.000    0.000    0.000    0.000 
#
# Total GULP energy -111349.237301 kJ/mol
# GULP energy per Si atom -5567.461865 kJ/mol
# Density = 2.980182 g / cm^3
# Si number density = 29.869806 Si / 1000 Ang^3
#
#
#
# Elastic Constant Matrix: (Units=GPa)
#
#
# Indices 1 2 3 4 5 6 
#
# 1 255.5376 32.6118 34.8147 0.0000 0.0000 0.0000
# 2 32.6118 104.2068 11.3551 0.0000 0.0000 0.0000
# 3 34.8147 11.3551 38.3288 0.0000 0.0000 0.0000
# 4 0.0000 0.0000 0.0000 26.5588 0.0000 0.0000
# 5 0.0000 0.0000 0.0000 0.0000 65.4742 0.0000
# 6 0.0000 0.0000 0.0000 0.0000 0.0000 37.4430
#
#
#
# Elastic Compliance Matrix: (Units=1/GPa)
#
#
# Indices 1 2 3 4 5 6 
#
# 1 0.004567 -0.001010 -0.003849 0.000000 0.000000 0.000000
# 2 -0.001010 0.010140 -0.002087 0.000000 0.000000 0.000000
# 3 -0.003849 -0.002087 0.030204 0.000000 0.000000 0.000000
# 4 0.000000 0.000000 0.000000 0.037652 0.000000 0.000000
# 5 0.000000 0.000000 0.000000 0.000000 0.015273 0.000000
# 6 0.000000 0.000000 0.000000 0.000000 0.000000 0.026707
#
#
# Mechanical properties :
#
#
# Convention : Reuss Voigt Hill
#
# Bulk Modulus (GPa) = 32.23738 61.73739 46.98739
# Shear Modulus (GPa) = 33.60813 47.18131 40.39472
#
# Velocity S-wave (km/s) = 3.35797 3.97869 3.68143
# Velocity P-wave (km/s) = 5.08436 6.46686 5.81683
#
# Compressibility (1/GPa) = 0.03101989
#
# Stress axis : x y z
#
# Youngs Moduli (GPa) = 218.98439 98.62232 33.10802
#
# Poissons Ratio (x) = 0.09958 0.12742
# Poissons Ratio (y) = 0.22111 0.06909
# Poissons Ratio (z) = 0.84281 0.20580
#
# Static dielectric constant tensor:
#      x y z
#    x 2.420180 0.000000 0.000000 
#    y 0.000000 2.445540 0.000000 
#    z 0.000000 0.000000 2.333770 
# 
# From -- ./inp_files/20476.got.cif
#   From: 2010.05.17/outbox.cif.g08.bks.cpg/sg20_11_cif.got.tgz:20476.got - 2010.06.03 22:52:26.
