data_PCOD9317252
_publ_section_title
;
Structure prediction by ZEFSAII (Michael W. Deem and Ramdas Pophale) SiO2 
 PCOD9317252
Probable space group: C 2 2 21
;
_chemical_formula_sum "Si O2"
_cell_formula_units_Z 44
_cell_length_a 9.795486
_cell_length_b 20.613268
_cell_length_c 11.744871
_cell_angle_alpha 90.000000
_cell_angle_beta 90.000000
_cell_angle_gamma 90.000000
_cell_volume 2371.488861
_symmetry_space_group_name_H-M "C 2 2 21"
_symmetry_group_IT_number 20
_symmetry_cell_setting 'orthorhombic'
loop_
_space_group_symop_operation_xyz
x,y,z
-x,-y,1/2+z
x,-y,-z
-x,y,1/2-z
1/2+x,1/2+y,z
1/2-x,1/2-y,1/2+z
1/2+x,1/2-y,-z
1/2-x,1/2+y,1/2-z
loop_
_atom_site_type_symbol
_atom_site_label
_atom_site_fract_x
_atom_site_fract_y
_atom_site_fract_z
Si Si1 0.380395 0.883029 0.946132
Si Si2 0.896192 0.827397 0.659894
Si Si3 0.496574 0.256737 0.441670
Si Si4 0.287492 0.284565 0.253444
Si Si5 0.359800 0.912652 0.201011
Si Si6 0.000000 0.465760 0.750000
O O1 0.236344 0.867581 0.883346
O O2 0.453237 0.814736 0.975682
O O3 0.475942 0.921503 0.858914
O O4 0.362357 0.919815 0.064959
O O5 0.975721 0.802986 0.548389
O O6 0.835600 0.762928 0.720694
O O7 0.000000 0.859301 0.750000
O O8 0.357548 0.256768 0.367814
O O9 0.608673 0.280413 0.351635
O O10 0.252364 0.359608 0.271265
O O11 0.500000 0.882210 0.250000
O O12 0.371418 0.984269 0.255708
#
# Coordination Sequence:
#
# PCOD9317252 Si02
#       6
#     8   8   8   8   8   4
#     4  11  20  41  57  86 124 150 200 252 289 364
#     4  11  22  34  59  90 124 156 193 245 318 358
#     4  10  21  34  60  89 119 154 187 251 313 358
#     4  10  19  36  55  88 120 153 196 243 301 364
#     4  10  21  37  61  83 113 156 205 244 287 353
#     4  10  24  38  62  86 108 164 204 242 294 332
#
# _framework density 18.553744999999999
#
# number of rings (size 3 to 8) (size 9 to 14) (size 15 to 20)
#    0.545    1.091    1.818    5.455    2.545    0.000 
#    3.273    0.000    4.000    0.000    0.000    0.000 
#    0.000    0.000    0.000    0.000    0.000    0.000 
#
# Total GULP energy -122610.775784 kJ/mol
# GULP energy per Si atom -5573.217081 kJ/mol
# Density = 1.851152 g / cm^3
# Si number density = 18.553745 Si / 1000 Ang^3
#
#
#
# Elastic Constant Matrix: (Units=GPa)
#
#
# Indices 1 2 3 4 5 6 
#
# 1 44.5857 13.2049 25.2038 0.0000 0.0000 0.0000
# 2 13.2049 49.2294 14.1593 0.0000 0.0000 0.0000
# 3 25.2038 14.1593 93.4978 0.0000 0.0000 0.0000
# 4 0.0000 0.0000 0.0000 20.7912 0.0000 0.0000
# 5 0.0000 0.0000 0.0000 0.0000 16.1339 0.0000
# 6 0.0000 0.0000 0.0000 0.0000 0.0000 5.3506
#
#
#
# Elastic Compliance Matrix: (Units=1/GPa)
#
#
# Indices 1 2 3 4 5 6 
#
# 1 0.027840 -0.005551 -0.006664 0.000000 0.000000 0.000000
# 2 -0.005551 0.022345 -0.001888 0.000000 0.000000 0.000000
# 3 -0.006664 -0.001888 0.012778 0.000000 0.000000 0.000000
# 4 0.000000 0.000000 0.000000 0.048097 0.000000 0.000000
# 5 0.000000 0.000000 0.000000 0.000000 0.061981 0.000000
# 6 0.000000 0.000000 0.000000 0.000000 0.000000 0.186896
#
#
# Mechanical properties :
#
#
# Convention : Reuss Voigt Hill
#
# Bulk Modulus (GPa) = 28.77077 32.49432 30.63255
# Shear Modulus (GPa) = 12.50850 17.43811 14.97330
#
# Velocity S-wave (km/s) = 2.59931 3.06906 2.84390
# Velocity P-wave (km/s) = 4.95469 5.48730 5.22778
#
# Compressibility (1/GPa) = 0.03475749
#
# Stress axis : x y z
#
# Youngs Moduli (GPa) = 35.91975 44.75296 78.26130
#
# Poissons Ratio (x) = 0.24841 0.52154
# Poissons Ratio (y) = 0.19938 0.14773
# Poissons Ratio (z) = 0.23937 0.08448
#
# Static dielectric constant tensor:
#      x y z
#    x 1.684030 0.000000 0.000000 
#    y 0.000000 1.638700 0.000000 
#    z 0.000000 0.000000 1.644740 
# 
# From -- ./inp_files/13027.got.cif
#   From: 2010.05.17/outbox.cif.g08.bks.cpg/sg20_7_cif.got.tgz:13027.got - 2010.06.03 22:52:26.
