data_PCOD9317324
_publ_section_title
;
Structure prediction by ZEFSAII (Michael W. Deem and Ramdas Pophale) SiO2 
 PCOD9317324
Probable space group: C 2 2 21
;
_chemical_formula_sum "Si O2"
_cell_formula_units_Z 64
_cell_length_a 19.136870
_cell_length_b 12.118237
_cell_length_c 12.812511
_cell_angle_alpha 90.000000
_cell_angle_beta 90.000000
_cell_angle_gamma 90.000000
_cell_volume 2971.286979
_symmetry_space_group_name_H-M "C 2 2 21"
_symmetry_group_IT_number 20
_symmetry_cell_setting 'orthorhombic'
loop_
_space_group_symop_operation_xyz
x,y,z
-x,-y,1/2+z
x,-y,-z
-x,y,1/2-z
1/2+x,1/2+y,z
1/2-x,1/2-y,1/2+z
1/2+x,1/2-y,-z
1/2-x,1/2+y,1/2-z
loop_
_atom_site_type_symbol
_atom_site_label
_atom_site_fract_x
_atom_site_fract_y
_atom_site_fract_z
Si Si1 0.129839 0.150108 0.835703
Si Si2 0.122220 0.793898 0.562429
Si Si3 0.264345 0.885989 0.545418
Si Si4 0.798371 0.609174 0.821773
Si Si5 0.516014 0.374351 0.983033
Si Si6 0.173909 0.637087 0.267987
Si Si7 0.708239 0.734518 0.123820
Si Si8 0.599623 0.414170 0.781691
O O1 0.214172 0.120972 0.844739
O O2 0.122211 0.270531 0.780964
O O3 0.100568 0.045679 0.769462
O O4 0.081124 0.144289 0.938935
O O5 0.183600 0.870013 0.516829
O O6 0.158781 0.678869 0.592861
O O7 0.103871 0.851920 0.673133
O O8 0.049773 0.794069 0.500727
O O9 0.273833 0.878671 0.668518
O O10 0.304729 0.788359 0.487159
O O11 0.290811 0.000000 0.500000
O O12 0.832331 0.488112 0.808061
O O13 0.807468 0.673233 0.711413
O O14 0.541284 0.372499 0.862642
O O15 0.491357 0.500000 0.000000
O O16 0.211670 0.702432 0.360030
O O17 0.667452 0.624470 0.152223
#
# Coordination Sequence:
#
# PCOD9317324 Si02
#       8
#     8   8   8   8   8   8   8   8
#     4  10  19  36  62  95 130 163 214 272 327 397
#     4  11  22  38  57  94 129 166 216 266 324 393
#     4  12  21  32  57  90 132 161 210 269 331 391
#     4  10  19  37  59  92 132 166 209 267 322 393
#     4  10  22  38  59  94 130 169 213 264 330 393
#     4  11  20  38  58  95 131 163 218 270 332 386
#     4  10  20  32  59  94 123 162 206 265 331 378
#     4  10  19  36  62  88 127 165 212 262 327 388
#
# _framework density 21.539487999999999
#
# number of rings (size 3 to 8) (size 9 to 14) (size 15 to 20)
#    0.000    1.500    6.250    1.500    1.750    0.000 
#    0.000    0.625    0.000    0.000   22.750    0.000 
#    0.000    0.000    0.000    0.000    0.000    0.000 
#
# Total GULP energy -178327.810301 kJ/mol
# GULP energy per Si atom -5572.744072 kJ/mol
# Density = 2.149046 g / cm^3
# Si number density = 21.539488 Si / 1000 Ang^3
#
#
#
# Elastic Constant Matrix: (Units=GPa)
#
#
# Indices 1 2 3 4 5 6 
#
# 1 69.6477 13.3063 7.6802 0.0000 0.0000 0.0000
# 2 13.3063 146.1437 24.1128 0.0000 0.0000 0.0000
# 3 7.6802 24.1128 53.6512 0.0000 0.0000 0.0000
# 4 0.0000 0.0000 0.0000 21.8472 0.0000 0.0000
# 5 0.0000 0.0000 0.0000 0.0000 15.1252 0.0000
# 6 0.0000 0.0000 0.0000 0.0000 0.0000 18.2263
#
#
#
# Elastic Compliance Matrix: (Units=1/GPa)
#
#
# Indices 1 2 3 4 5 6 
#
# 1 0.014743 -0.001074 -0.001628 0.000000 0.000000 0.000000
# 2 -0.001074 0.007469 -0.003203 0.000000 0.000000 0.000000
# 3 -0.001628 -0.003203 0.020312 0.000000 0.000000 0.000000
# 4 0.000000 0.000000 0.000000 0.045773 0.000000 0.000000
# 5 0.000000 0.000000 0.000000 0.000000 0.066115 0.000000
# 6 0.000000 0.000000 0.000000 0.000000 0.000000 0.054866
#
#
# Mechanical properties :
#
#
# Convention : Reuss Voigt Hill
#
# Bulk Modulus (GPa) = 32.55873 39.96012 36.25943
# Shear Modulus (GPa) = 21.61476 25.99594 23.80535
#
# Velocity S-wave (km/s) = 3.17123 3.47781 3.32805
# Velocity P-wave (km/s) = 5.34393 5.89230 5.62480
#
# Compressibility (1/GPa) = 0.03071373
#
# Stress axis : x y z
#
# Youngs Moduli (GPa) = 67.83053 133.88987 49.23314
#
# Poissons Ratio (x) = 0.14376 0.08014
# Poissons Ratio (y) = 0.07283 0.15770
# Poissons Ratio (z) = 0.11042 0.42886
#
# Static dielectric constant tensor:
#      x y z
#    x 1.857610 0.000000 0.000000 
#    y 0.000000 1.796650 0.000000 
#    z 0.000000 0.000000 1.808460 
# 
# From -- ./inp_files/21516.got.cif
#   From: 2010.05.17/outbox.cif.g08.bks.cpg/sg20_11_cif.got.tgz:21516.got - 2010.06.03 22:52:26.
