data_PCOD9317715
_publ_section_title
;
Structure prediction by ZEFSAII (Michael W. Deem and Ramdas Pophale) SiO2 
 PCOD9317715
Probable space group: C 2 2 21
;
_chemical_formula_sum "Si O2"
_cell_formula_units_Z 32
_cell_length_a 21.962573
_cell_length_b 7.717824
_cell_length_c 8.816814
_cell_angle_alpha 90.000000
_cell_angle_beta 90.000000
_cell_angle_gamma 90.000000
_cell_volume 1494.478830
_symmetry_space_group_name_H-M "C 2 2 21"
_symmetry_group_IT_number 20
_symmetry_cell_setting 'orthorhombic'
loop_
_space_group_symop_operation_xyz
x,y,z
-x,-y,1/2+z
x,-y,-z
-x,y,1/2-z
1/2+x,1/2+y,z
1/2-x,1/2-y,1/2+z
1/2+x,1/2-y,-z
1/2-x,1/2+y,1/2-z
loop_
_atom_site_type_symbol
_atom_site_label
_atom_site_fract_x
_atom_site_fract_y
_atom_site_fract_z
Si Si1 0.656623 0.500000 0.500000
Si Si2 0.769627 0.254646 0.459096
Si Si3 0.692668 0.936842 0.750403
Si Si4 0.908299 0.500000 0.000000
Si Si5 0.541322 0.642929 0.392719
O O1 0.702073 0.340703 0.478404
O O2 0.608472 0.555034 0.369960
O O3 0.751594 0.087216 0.360023
O O4 0.802870 0.386917 0.345549
O O5 0.802016 0.284630 0.621873
O O6 0.634233 0.955738 0.644402
O O7 0.946583 0.327745 0.031657
O O8 0.510300 0.500000 0.500000
O O9 0.500000 0.667733 0.250000
#
# Coordination Sequence:
#
# PCOD9317715 Si02
#       5
#     4   8   8   4   8
#     4   8  18  40  60  82 122 160 206 274 316 374
#     4  10  20  35  61  94 136 168 217 252 334 401
#     4  10  20  34  59  93 131 173 206 263 321 407
#     4  12  22  42  68  94 138 168 214 290 336 388
#     4  10  23  44  70  88 122 174 224 282 335 378
#
# _framework density 21.412144999999999
#
# number of rings (size 3 to 8) (size 9 to 14) (size 15 to 20)
#    0.750    1.500    2.500    1.500    3.500    1.000 
#    0.000   12.500   11.000    0.000    0.000    0.000 
#    0.000    0.000    0.000    0.000    0.000    0.000 
#
# Total GULP energy -89080.051109 kJ/mol
# GULP energy per Si atom -5567.503194 kJ/mol
# Density = 2.136341 g / cm^3
# Si number density = 21.412145 Si / 1000 Ang^3
#
#
#
# Elastic Constant Matrix: (Units=GPa)
#
#
# Indices 1 2 3 4 5 6 
#
# 1 73.5221 27.2384 53.0211 0.0000 0.0000 0.0000
# 2 27.2384 103.2721 57.2584 0.0000 0.0000 0.0000
# 3 53.0211 57.2584 166.2365 0.0000 0.0000 0.0000
# 4 0.0000 0.0000 0.0000 36.0014 0.0000 0.0000
# 5 0.0000 0.0000 0.0000 0.0000 -573.0643 0.0000
# 6 0.0000 0.0000 0.0000 0.0000 0.0000 34.4826
#
#
#
# Elastic Compliance Matrix: (Units=1/GPa)
#
#
# Indices 1 2 3 4 5 6 
#
# 1 0.017970 -0.001931 -0.005067 0.000000 0.000000 0.000000
# 2 -0.001931 0.012176 -0.003578 0.000000 0.000000 0.000000
# 3 -0.005067 -0.003578 0.008864 0.000000 0.000000 0.000000
# 4 0.000000 0.000000 0.000000 0.027777 0.000000 0.000000
# 5 0.000000 0.000000 0.000000 0.000000 -0.001745 0.000000
# 6 0.000000 0.000000 0.000000 0.000000 0.000000 0.029000
#
#
# Mechanical properties :
#
#
# Convention : Reuss Voigt Hill
#
# Bulk Modulus (GPa) = 55.99184 68.67405 62.33295
# Shear Modulus (GPa) = 41.27220 -86.81520 -22.77150
#
# Velocity S-wave (km/s) = 4.39511 -6.37439 -3.26465
# Velocity P-wave (km/s) = 7.20849 4.69415 3.86829
#
# Compressibility (1/GPa) = 0.01785974
#
# Stress axis : x y z
#
# Youngs Moduli (GPa) = 55.64676 82.12691 112.81544
#
# Poissons Ratio (x) = 0.15855 0.57160
# Poissons Ratio (y) = 0.10743 0.40368
# Poissons Ratio (z) = 0.28195 0.29387
#
# Static dielectric constant tensor:
#      x y z
#    x 1.745400 0.000000 0.000000 
#    y 0.000000 1.959270 0.000000 
#    z 0.000000 0.000000 1.794070 
# 
# From -- ./inp_files/9814.got.cif
#   From: 2010.05.17/outbox.cif.g08.bks.cpg/sg20_5_cif.got.tgz:9814.got - 2010.06.03 22:52:26.
