data_PCOD9317287
_publ_section_title
;
Structure prediction by ZEFSAII (Michael W. Deem and Ramdas Pophale) SiO2 
 PCOD9317287
Probable space group: C 2 2 21
;
_chemical_formula_sum "Si O2"
_cell_formula_units_Z 56
_cell_length_a 15.368674
_cell_length_b 11.061750
_cell_length_c 14.634711
_cell_angle_alpha 90.000000
_cell_angle_beta 90.000000
_cell_angle_gamma 90.000000
_cell_volume 2487.965696
_symmetry_space_group_name_H-M "C 2 2 21"
_symmetry_group_IT_number 20
_symmetry_cell_setting 'orthorhombic'
loop_
_space_group_symop_operation_xyz
x,y,z
-x,-y,1/2+z
x,-y,-z
-x,y,1/2-z
1/2+x,1/2+y,z
1/2-x,1/2-y,1/2+z
1/2+x,1/2-y,-z
1/2-x,1/2+y,1/2-z
loop_
_atom_site_type_symbol
_atom_site_label
_atom_site_fract_x
_atom_site_fract_y
_atom_site_fract_z
Si Si1 0.560604 0.000000 0.000000
Si Si2 0.473737 0.352556 0.090500
Si Si3 0.903746 0.345889 0.662884
Si Si4 0.347799 0.959769 0.202548
Si Si5 0.191404 0.838291 0.290645
Si Si6 0.733594 0.145099 0.435276
Si Si7 0.107690 0.000000 0.000000
Si Si8 0.577847 0.197600 0.569011
O O1 0.616408 0.919565 0.929855
O O2 0.494970 0.094452 0.950763
O O3 0.509823 0.229913 0.137676
O O4 0.391098 0.386890 0.151502
O O5 0.548875 0.451021 0.082621
O O6 0.456536 0.316828 0.983791
O O7 0.906132 0.450617 0.738294
O O8 0.840308 0.244522 0.705495
O O9 0.259205 0.935620 0.256771
O O10 0.393814 0.835078 0.172102
O O11 0.316934 0.034723 0.113887
O O12 0.239413 0.749529 0.360926
O O13 0.668726 0.184496 0.514568
O O14 0.827134 0.105508 0.469736
#
# Coordination Sequence:
#
# PCOD9317287 Si02
#       8
#     4   8   8   8   8   8   4   8
#     4  10  19  36  59  96 124 158 206 270 323 360
#     4  10  24  41  61  93 130 164 210 260 323 384
#     4  10  23  37  64  94 126 162 217 266 311 375
#     4  11  20  39  65  93 119 168 213 269 307 365
#     4  10  23  40  59  94 127 163 211 267 314 376
#     4  10  20  38  66  85 117 171 217 240 313 397
#     4  12  21  42  67  86 124 180 200 248 321 392
#     4  10  19  38  64  90 118 161 214 260 309 375
#
# _framework density 22.50835
#
# number of rings (size 3 to 8) (size 9 to 14) (size 15 to 20)
#    0.000    1.714    2.857    1.286    4.000    2.286 
#    7.714    0.000    0.000    0.000    0.000    0.000 
#    0.000    0.000    0.000    0.000    0.000    0.000 
#
# Total GULP energy -156232.028565 kJ/mol
# GULP energy per Si atom -5579.715306 kJ/mol
# Density = 2.245712 g / cm^3
# Si number density = 22.508350 Si / 1000 Ang^3
#
#
#
# Elastic Constant Matrix: (Units=GPa)
#
#
# Indices 1 2 3 4 5 6 
#
# 1 97.7310 33.5887 33.5779 0.0000 0.0000 0.0000
# 2 33.5887 27.5223 17.4768 0.0000 0.0000 0.0000
# 3 33.5779 17.4768 57.1024 0.0000 0.0000 0.0000
# 4 0.0000 0.0000 0.0000 17.6412 0.0000 0.0000
# 5 0.0000 0.0000 0.0000 0.0000 32.1219 0.0000
# 6 0.0000 0.0000 0.0000 0.0000 0.0000 23.7412
#
#
#
# Elastic Compliance Matrix: (Units=1/GPa)
#
#
# Indices 1 2 3 4 5 6 
#
# 1 0.018700 -0.019660 -0.004979 0.000000 0.000000 0.000000
# 2 -0.019660 0.065768 -0.008569 0.000000 0.000000 0.000000
# 3 -0.004979 -0.008569 0.023063 0.000000 0.000000 0.000000
# 4 0.000000 0.000000 0.000000 0.056686 0.000000 0.000000
# 5 0.000000 0.000000 0.000000 0.000000 0.031131 0.000000
# 6 0.000000 0.000000 0.000000 0.000000 0.000000 0.042121
#
#
# Mechanical properties :
#
#
# Convention : Reuss Voigt Hill
#
# Bulk Modulus (GPa) = 24.32131 39.07138 31.69634
# Shear Modulus (GPa) = 15.74368 21.21500 18.47934
#
# Velocity S-wave (km/s) = 2.64760 3.07341 2.86842
# Velocity P-wave (km/s) = 4.49169 5.47638 5.00830
#
# Compressibility (1/GPa) = 0.04111621
#
# Stress axis : x y z
#
# Youngs Moduli (GPa) = 53.47734 15.20492 43.36024
#
# Poissons Ratio (x) = 0.29892 0.21588
# Poissons Ratio (y) = 1.05135 0.37154
# Poissons Ratio (z) = 0.26625 0.13028
#
# Static dielectric constant tensor:
#      x y z
#    x 1.816580 0.000000 0.000000 
#    y 0.000000 1.867110 0.000000 
#    z 0.000000 0.000000 1.912300 
# 
# From -- ./inp_files/20771.got.cif
#   From: 2010.05.17/outbox.cif.g08.bks.cpg/sg20_11_cif.got.tgz:20771.got - 2010.06.03 22:52:26.
