data_PCOD9317014
_publ_section_title
;
Structure prediction by ZEFSAII (Michael W. Deem and Ramdas Pophale) SiO2 
 PCOD9317014
Probable space group: C 2 2 21
;
_chemical_formula_sum "Si O2"
_cell_formula_units_Z 48
_cell_length_a 8.925557
_cell_length_b 18.168520
_cell_length_c 15.975918
_cell_angle_alpha 90.000000
_cell_angle_beta 90.000000
_cell_angle_gamma 90.000000
_cell_volume 2590.721337
_symmetry_space_group_name_H-M "C 2 2 21"
_symmetry_group_IT_number 20
_symmetry_cell_setting 'orthorhombic'
loop_
_space_group_symop_operation_xyz
x,y,z
-x,-y,1/2+z
x,-y,-z
-x,y,1/2-z
1/2+x,1/2+y,z
1/2-x,1/2-y,1/2+z
1/2+x,1/2-y,-z
1/2-x,1/2+y,1/2-z
loop_
_atom_site_type_symbol
_atom_site_label
_atom_site_fract_x
_atom_site_fract_y
_atom_site_fract_z
Si Si1 0.616374 0.178129 0.496316
Si Si2 0.327077 0.963958 0.088328
Si Si3 0.973381 0.829956 0.513639
Si Si4 0.026071 0.402822 0.846138
Si Si5 0.338518 0.539919 0.088326
Si Si6 0.019645 0.092091 0.841734
O O1 0.587760 0.109815 0.559214
O O2 0.558074 0.254484 0.532822
O O3 0.531411 0.158766 0.410620
O O4 0.794664 0.178789 0.479417
O O5 0.185657 0.939884 0.142483
O O6 0.429150 0.023863 0.133086
O O7 0.272724 0.000000 0.000000
O O8 0.037963 0.897980 0.566840
O O9 0.006777 0.851401 0.417149
O O10 0.000000 0.382816 0.750000
O O11 0.196062 0.422705 0.869231
O O12 0.408246 0.476541 0.145780
O O13 0.297061 0.500000 0.000000
O O14 0.000000 0.124148 0.750000
#
# Coordination Sequence:
#
# PCOD9317014 Si02
#       6
#     8   8   8   8   8   8
#     4  10  20  36  55  75 104 140 179 215 256 315
#     4   9  18  35  54  74 102 139 174 208 257 315
#     4  10  21  36  56  77 104 142 180 214 257 316
#     4  11  21  33  54  81 108 135 171 221 266 306
#     4  10  19  33  54  79 103 136 178 214 255 314
#     4  10  19  33  55  80 106 132 167 218 268 312
#
# _framework density 18.527657999999999
#
# number of rings (size 3 to 8) (size 9 to 14) (size 15 to 20)
#    0.000    2.000    0.000    7.000    0.000    2.000 
#    0.000    0.000    0.000    1.000    0.000    0.000 
#    0.000    0.000    0.000    0.000    0.000    0.000 
#
# Total GULP energy -134007.270882 kJ/mol
# GULP energy per Si atom -5583.636287 kJ/mol
# Density = 1.848549 g / cm^3
# Si number density = 18.527658 Si / 1000 Ang^3
#
#
#
# Elastic Constant Matrix: (Units=GPa)
#
#
# Indices 1 2 3 4 5 6 
#
# 1 41.0385 -4.3723 -3.4724 0.0000 0.0000 0.0000
# 2 -4.3723 58.7389 -14.4566 0.0000 0.0000 0.0000
# 3 -3.4724 -14.4566 46.4257 0.0000 0.0000 0.0000
# 4 0.0000 0.0000 0.0000 6.9026 0.0000 0.0000
# 5 0.0000 0.0000 0.0000 0.0000 16.5554 0.0000
# 6 0.0000 0.0000 0.0000 0.0000 0.0000 23.8920
#
#
#
# Elastic Compliance Matrix: (Units=1/GPa)
#
#
# Indices 1 2 3 4 5 6 
#
# 1 0.024857 0.002499 0.002637 0.000000 0.000000 0.000000
# 2 0.002499 0.018689 0.006006 0.000000 0.000000 0.000000
# 3 0.002637 0.006006 0.023607 0.000000 0.000000 0.000000
# 4 0.000000 0.000000 0.000000 0.144872 0.000000 0.000000
# 5 0.000000 0.000000 0.000000 0.000000 0.060403 0.000000
# 6 0.000000 0.000000 0.000000 0.000000 0.000000 0.041855
#
#
# Mechanical properties :
#
#
# Convention : Reuss Voigt Hill
#
# Bulk Modulus (GPa) = 11.18071 11.28893 11.23482
# Shear Modulus (GPa) = 15.53711 20.70363 18.12037
#
# Velocity S-wave (km/s) = 2.89898 3.34645 3.13072
# Velocity P-wave (km/s) = 4.15369 4.58670 4.37556
#
# Compressibility (1/GPa) = 0.08943979
#
# Stress axis : x y z
#
# Youngs Moduli (GPa) = 40.23037 53.50792 42.35950
#
# Poissons Ratio (x) = -0.13374 -0.11172
# Poissons Ratio (y) = -0.10055 -0.25443
# Poissons Ratio (z) = -0.10611 -0.32139
#
# Static dielectric constant tensor:
#      x y z
#    x 1.632180 0.000000 0.000000 
#    y 0.000000 1.629700 0.000000 
#    z 0.000000 0.000000 1.626880 
# 
# From -- ./inp_files/18873.got.cif
#   From: 2010.05.17/outbox.cif.g08.bks.cpg/sg20_10_cif.got.tgz:18873.got - 2010.06.03 22:52:26.
