data_PCOD9317179
_publ_section_title
;
Structure prediction by ZEFSAII (Michael W. Deem and Ramdas Pophale) SiO2 
 PCOD9317179
Probable space group: C 2 2 21
;
_chemical_formula_sum "Si O2"
_cell_formula_units_Z 64
_cell_length_a 19.891904
_cell_length_b 18.906575
_cell_length_c 9.450937
_cell_angle_alpha 90.000000
_cell_angle_beta 90.000000
_cell_angle_gamma 90.000000
_cell_volume 3554.381867
_symmetry_space_group_name_H-M "C 2 2 21"
_symmetry_group_IT_number 20
_symmetry_cell_setting 'orthorhombic'
loop_
_space_group_symop_operation_xyz
x,y,z
-x,-y,1/2+z
x,-y,-z
-x,y,1/2-z
1/2+x,1/2+y,z
1/2-x,1/2-y,1/2+z
1/2+x,1/2-y,-z
1/2-x,1/2+y,1/2-z
loop_
_atom_site_type_symbol
_atom_site_label
_atom_site_fract_x
_atom_site_fract_y
_atom_site_fract_z
Si Si1 0.966608 0.430970 0.595616
Si Si2 0.816453 0.074287 0.963466
Si Si3 0.014016 0.295391 0.083975
Si Si4 0.882386 0.218160 0.044947
Si Si5 0.661309 0.235735 0.854615
Si Si6 0.812354 0.565539 0.325507
Si Si7 0.716144 0.167244 0.436380
Si Si8 0.281443 0.090438 0.766534
O O1 0.978122 0.500000 0.500000
O O2 0.996313 0.363914 0.512425
O O3 0.886165 0.420551 0.612569
O O4 0.000000 0.438176 0.750000
O O5 0.791836 0.079992 0.802198
O O6 0.861037 0.141199 0.997499
O O7 0.747661 0.072382 0.059280
O O8 0.850449 0.000000 0.000000
O O9 0.090358 0.269875 0.067490
O O10 0.000000 0.313564 0.250000
O O11 0.960806 0.235210 0.045789
O O12 0.854124 0.229113 0.203182
O O13 0.845359 0.278440 0.953897
O O14 0.718182 0.282421 0.929233
O O15 0.685669 0.156188 0.818465
O O16 0.793878 0.620451 0.202559
O O17 0.815243 0.485455 0.262892
O O18 0.718725 0.115580 0.571915
#
# Coordination Sequence:
#
# PCOD9317179 Si02
#       8
#     8   8   8   8   8   8   8   8
#     4  12  25  39  59  85 123 168 201 238 291 365
#     4  10  19  35  59  83 113 147 193 243 302 356
#     4  10  22  40  59  83 119 157 204 246 298 356
#     4  10  20  36  57  87 112 152 197 246 296 356
#     4  10  19  35  58  85 114 158 191 244 298 361
#     4  11  22  38  59  86 118 156 198 243 296 359
#     4  11  21  34  60  86 119 151 199 248 302 347
#     4  10  21  35  56  88 119 153 191 250 295 351
#
# _framework density 18.005942999999998
#
# number of rings (size 3 to 8) (size 9 to 14) (size 15 to 20)
#    0.000    1.500    2.500    4.125    0.000    3.000 
#    2.250    0.000    0.000    1.500    0.000    0.000 
#    0.000    0.000    0.000    0.000    0.000    0.000 
#
# Total GULP energy -178676.847949 kJ/mol
# GULP energy per Si atom -5583.651498 kJ/mol
# Density = 1.796496 g / cm^3
# Si number density = 18.005943 Si / 1000 Ang^3
#
#
#
# Elastic Constant Matrix: (Units=GPa)
#
#
# Indices 1 2 3 4 5 6 
#
# 1 54.9423 17.7009 9.3697 0.0000 0.0000 0.0000
# 2 17.7009 90.8055 33.2978 0.0000 0.0000 0.0000
# 3 9.3697 33.2978 64.3901 0.0000 0.0000 0.0000
# 4 0.0000 0.0000 0.0000 32.0158 0.0000 0.0000
# 5 0.0000 0.0000 0.0000 0.0000 17.9494 0.0000
# 6 0.0000 0.0000 0.0000 0.0000 0.0000 19.1602
#
#
#
# Elastic Compliance Matrix: (Units=1/GPa)
#
#
# Indices 1 2 3 4 5 6 
#
# 1 0.019481 -0.003403 -0.001075 0.000000 0.000000 0.000000
# 2 -0.003403 0.014184 -0.006840 0.000000 0.000000 0.000000
# 3 -0.001075 -0.006840 0.019224 0.000000 0.000000 0.000000
# 4 0.000000 0.000000 0.000000 0.031235 0.000000 0.000000
# 5 0.000000 0.000000 0.000000 0.000000 0.055712 0.000000
# 6 0.000000 0.000000 0.000000 0.000000 0.000000 0.052192
#
#
# Mechanical properties :
#
#
# Convention : Reuss Voigt Hill
#
# Bulk Modulus (GPa) = 33.05474 36.76386 34.90930
# Shear Modulus (GPa) = 22.24727 23.80970 23.02849
#
# Velocity S-wave (km/s) = 3.51885 3.64032 3.58010
# Velocity P-wave (km/s) = 5.90824 6.17505 6.04312
#
# Compressibility (1/GPa) = 0.03025284
#
# Stress axis : x y z
#
# Youngs Moduli (GPa) = 51.33295 70.50180 52.01907
#
# Poissons Ratio (x) = 0.23994 0.05591
# Poissons Ratio (y) = 0.17470 0.35580
# Poissons Ratio (z) = 0.05517 0.48221
#
# Static dielectric constant tensor:
#      x y z
#    x 1.605700 0.000000 0.000000 
#    y 0.000000 1.611550 0.000000 
#    z 0.000000 0.000000 1.628010 
# 
# From -- ./inp_files/10346.got.cif
#   From: 2010.05.17/outbox.cif.g08.bks.cpg/sg20_6_cif.got.tgz:10346.got - 2010.06.03 22:52:26.
