data_PCOD9317662
_publ_section_title
;
Structure prediction by ZEFSAII (Michael W. Deem and Ramdas Pophale) SiO2 
 PCOD9317662
Probable space group: C 2 2 21
;
_chemical_formula_sum "Si O2"
_cell_formula_units_Z 48
_cell_length_a 24.651038
_cell_length_b 11.653184
_cell_length_c 8.549863
_cell_angle_alpha 90.000000
_cell_angle_beta 90.000000
_cell_angle_gamma 90.000000
_cell_volume 2456.059993
_symmetry_space_group_name_H-M "C 2 2 21"
_symmetry_group_IT_number 20
_symmetry_cell_setting 'orthorhombic'
loop_
_space_group_symop_operation_xyz
x,y,z
-x,-y,1/2+z
x,-y,-z
-x,y,1/2-z
1/2+x,1/2+y,z
1/2-x,1/2-y,1/2+z
1/2+x,1/2-y,-z
1/2-x,1/2+y,1/2-z
loop_
_atom_site_type_symbol
_atom_site_label
_atom_site_fract_x
_atom_site_fract_y
_atom_site_fract_z
Si Si1 0.000000 0.126946 0.750000
Si Si2 0.690093 0.126502 0.427254
Si Si3 0.313453 0.450207 0.153644
Si Si4 0.406544 0.279129 0.037863
Si Si5 0.570508 0.500000 0.000000
Si Si6 0.368966 0.669128 0.300698
Si Si7 0.763079 0.740076 0.777331
O O1 0.962379 0.200889 0.869143
O O2 0.963977 0.041720 0.646308
O O3 0.627111 0.164149 0.417613
O O4 0.724809 0.153033 0.271759
O O5 0.715592 0.221829 0.546809
O O6 0.695768 0.000000 0.500000
O O7 0.366375 0.379655 0.098183
O O8 0.335910 0.556750 0.247613
O O9 0.274241 0.369188 0.247751
O O10 0.285521 0.500000 0.000000
O O11 0.406152 0.292310 0.847592
O O12 0.601258 0.617408 0.050016
O O13 0.319529 0.758179 0.320812
#
# Coordination Sequence:
#
# PCOD9317662 Si02
#       7
#     4   8   8   8   4   8   8
#     4  12  22  38  58  80 106 150 192 252 304 342
#     4  10  21  37  58  85 120 160 195 236 282 347
#     4   9  17  34  50  74 113 150 179 230 274 341
#     4   9  20  37  55  77 110 143 193 240 294 335
#     4  12  24  32  58  82 112 146 194 242 304 354
#     4  10  20  34  50  83 117 144 184 237 282 355
#     4  10  21  32  55  84 116 157 192 222 279 345
#
# _framework density 19.543496000000001
#
# number of rings (size 3 to 8) (size 9 to 14) (size 15 to 20)
#    0.000    2.000    1.667    3.000    4.667    0.000 
#    0.000    0.000    0.000    4.000    0.000    0.000 
#    0.000    0.000    0.000    0.000    0.000    0.000 
#
# Total GULP energy -133707.574924 kJ/mol
# GULP energy per Si atom -5571.148955 kJ/mol
# Density = 1.949901 g / cm^3
# Si number density = 19.543496 Si / 1000 Ang^3
#
#
#
# Elastic Constant Matrix: (Units=GPa)
#
#
# Indices 1 2 3 4 5 6 
#
# 1 58.0529 10.0490 17.5003 0.0000 0.0000 0.0000
# 2 10.0490 62.8213 -0.4503 0.0000 0.0000 0.0000
# 3 17.5003 -0.4503 32.5831 0.0000 0.0000 0.0000
# 4 0.0000 0.0000 0.0000 25.2432 0.0000 0.0000
# 5 0.0000 0.0000 0.0000 0.0000 43.6041 0.0000
# 6 0.0000 0.0000 0.0000 0.0000 0.0000 10.9739
#
#
#
# Elastic Compliance Matrix: (Units=1/GPa)
#
#
# Indices 1 2 3 4 5 6 
#
# 1 0.021291 -0.003488 -0.011484 0.000000 0.000000 0.000000
# 2 -0.003488 0.016491 0.002101 0.000000 0.000000 0.000000
# 3 -0.011484 0.002101 0.036888 0.000000 0.000000 0.000000
# 4 0.000000 0.000000 0.000000 0.039615 0.000000 0.000000
# 5 0.000000 0.000000 0.000000 0.000000 0.022934 0.000000
# 6 0.000000 0.000000 0.000000 0.000000 0.000000 0.091125
#
#
# Mechanical properties :
#
#
# Convention : Reuss Voigt Hill
#
# Bulk Modulus (GPa) = 20.43767 23.07281 21.75524
# Shear Modulus (GPa) = 18.49150 24.38811 21.43980
#
# Velocity S-wave (km/s) = 3.07933 3.53638 3.31574
# Velocity P-wave (km/s) = 4.80866 5.33911 5.08082
#
# Compressibility (1/GPa) = 0.04892927
#
# Stress axis : x y z
#
# Youngs Moduli (GPa) = 46.96761 60.63839 27.10935
#
# Poissons Ratio (x) = 0.21151 0.31132
# Poissons Ratio (y) = 0.16383 -0.05697
# Poissons Ratio (z) = 0.53936 -0.12742
#
# Static dielectric constant tensor:
#      x y z
#    x 1.735900 0.000000 0.000000 
#    y 0.000000 1.740720 0.000000 
#    z 0.000000 0.000000 1.809700 
# 
# From -- ./inp_files/7443.got.cif
#   From: 2010.05.17/outbox.cif.g08.bks.cpg/sg20_4_cif.got.tgz:7443.got - 2010.06.03 22:52:26.
