data_PCOD9317856
_publ_section_title
;
Structure prediction by ZEFSAII (Michael W. Deem and Ramdas Pophale) SiO2 
 PCOD9317856
Probable space group: C 2 2 21
;
_chemical_formula_sum "Si O2"
_cell_formula_units_Z 24
_cell_length_a 24.948888
_cell_length_b 9.090704
_cell_length_c 5.138712
_cell_angle_alpha 90.000000
_cell_angle_beta 90.000000
_cell_angle_gamma 90.000000
_cell_volume 1165.475071
_symmetry_space_group_name_H-M "C 2 2 21"
_symmetry_group_IT_number 20
_symmetry_cell_setting 'orthorhombic'
loop_
_space_group_symop_operation_xyz
x,y,z
-x,-y,1/2+z
x,-y,-z
-x,y,1/2-z
1/2+x,1/2+y,z
1/2-x,1/2-y,1/2+z
1/2+x,1/2-y,-z
1/2-x,1/2+y,1/2-z
loop_
_atom_site_type_symbol
_atom_site_label
_atom_site_fract_x
_atom_site_fract_y
_atom_site_fract_z
Si Si1 0.941652 0.393661 0.249054
Si Si2 0.719210 0.396040 0.251394
Si Si3 0.167017 0.327512 0.068744
O O1 0.944641 0.500000 0.500000
O O2 0.888397 0.296580 0.284577
O O3 0.000000 0.317189 0.250000
O O4 0.935230 0.500000 0.000000
O O5 0.709843 0.500000 0.500000
O O6 0.777049 0.316322 0.276414
O O7 0.721086 0.500000 0.000000
O O8 0.675148 0.273156 0.184268
O O9 0.165505 0.500000 0.000000
#
# Coordination Sequence:
#
# PCOD9317856 Si02
#       3
#     8   8   8
#     4   9  18  32  53  84 116 146 189 246 296 337
#     4  11  23  36  53  85 123 157 196 242 295 351
#     4  10  20  36  58  83 117 159 196 238 291 354
#
# _framework density 20.592461
#
# number of rings (size 3 to 8) (size 9 to 14) (size 15 to 20)
#    0.000    2.000    0.000    5.000    0.000    8.000 
#    0.000    0.000    0.000    0.000    0.000   28.000 
#    0.000    2.667    0.000    0.000    0.000    0.000 
#
# Total GULP energy -66950.766474 kJ/mol
# GULP energy per Si atom -5579.230540 kJ/mol
# Density = 2.054559 g / cm^3
# Si number density = 20.592461 Si / 1000 Ang^3
#
#
#
# Elastic Constant Matrix: (Units=GPa)
#
#
# Indices 1 2 3 4 5 6 
#
# 1 183.2087 42.3408 45.4682 0.0000 0.0000 0.0000
# 2 42.3408 84.6811 40.9287 0.0000 0.0000 0.0000
# 3 45.4682 40.9287 150.9343 0.0000 0.0000 0.0000
# 4 0.0000 0.0000 0.0000 32.2232 0.0000 0.0000
# 5 0.0000 0.0000 0.0000 0.0000 29.2394 0.0000
# 6 0.0000 0.0000 0.0000 0.0000 0.0000 14.3388
#
#
#
# Elastic Compliance Matrix: (Units=1/GPa)
#
#
# Indices 1 2 3 4 5 6 
#
# 1 0.006358 -0.002593 -0.001212 0.000000 0.000000 0.000000
# 2 -0.002593 0.014648 -0.003191 0.000000 0.000000 0.000000
# 3 -0.001212 -0.003191 0.007856 0.000000 0.000000 0.000000
# 4 0.000000 0.000000 0.000000 0.031034 0.000000 0.000000
# 5 0.000000 0.000000 0.000000 0.000000 0.034200 0.000000
# 6 0.000000 0.000000 0.000000 0.000000 0.000000 0.069741
#
#
# Mechanical properties :
#
#
# Convention : Reuss Voigt Hill
#
# Bulk Modulus (GPa) = 67.25220 75.14440 71.19830
# Shear Modulus (GPa) = 27.35438 34.49937 30.92687
#
# Velocity S-wave (km/s) = 3.64863 4.09753 3.87958
# Velocity P-wave (km/s) = 7.10490 7.67833 7.39717
#
# Compressibility (1/GPa) = 0.01486940
#
# Stress axis : x y z
#
# Youngs Moduli (GPa) = 157.27130 68.26917 127.29407
#
# Poissons Ratio (x) = 0.17705 0.15431
# Poissons Ratio (y) = 0.40786 0.40617
# Poissons Ratio (z) = 0.19065 0.21783
#
# Static dielectric constant tensor:
#      x y z
#    x 1.840490 0.000000 0.000000 
#    y 0.000000 1.738600 0.000000 
#    z 0.000000 0.000000 1.794070 
# 
# From -- ./inp_files/320.got.cif
#   From: 2010.05.17/outbox.cif.g08.bks.cpg/sg20_1_cif.got.tgz:320.got - 2010.06.03 22:52:26.
