data_PCOD9317922
_publ_section_title
;
Structure prediction by ZEFSAII (Michael W. Deem and Ramdas Pophale) SiO2 
 PCOD9317922
Probable space group: C 2 2 21
;
_chemical_formula_sum "Si O2"
_cell_formula_units_Z 64
_cell_length_a 9.722847
_cell_length_b 14.479905
_cell_length_c 22.911861
_cell_angle_alpha 90.000000
_cell_angle_beta 90.000000
_cell_angle_gamma 90.000000
_cell_volume 3225.666992
_symmetry_space_group_name_H-M "C 2 2 21"
_symmetry_group_IT_number 20
_symmetry_cell_setting 'orthorhombic'
loop_
_space_group_symop_operation_xyz
x,y,z
-x,-y,1/2+z
x,-y,-z
-x,y,1/2-z
1/2+x,1/2+y,z
1/2-x,1/2-y,1/2+z
1/2+x,1/2-y,-z
1/2-x,1/2+y,1/2-z
loop_
_atom_site_type_symbol
_atom_site_label
_atom_site_fract_x
_atom_site_fract_y
_atom_site_fract_z
Si Si1 0.842602 0.124918 0.729658
Si Si2 0.278827 0.720173 0.612206
Si Si3 0.006397 0.657788 0.582735
Si Si4 0.021086 0.805562 0.481340
Si Si5 0.080610 0.098800 0.404647
Si Si6 0.875614 0.275017 0.297215
Si Si7 0.244496 0.937691 0.442214
Si Si8 0.619491 0.423383 0.798470
O O1 0.823701 0.199404 0.677903
O O2 0.738210 0.150170 0.781220
O O3 0.000000 0.126404 0.750000
O O4 0.808971 0.021784 0.706537
O O5 0.404188 0.707107 0.567241
O O6 0.192767 0.817271 0.604471
O O7 0.163929 0.642651 0.598270
O O8 0.014026 0.714814 0.522019
O O9 0.940326 0.710981 0.638661
O O10 0.901258 0.575665 0.574694
O O11 0.665489 0.660156 0.547705
O O12 0.010434 0.883735 0.532085
O O13 0.158775 0.001770 0.399217
O O14 0.960373 0.090736 0.358539
O O15 0.805424 0.174284 0.290273
O O16 0.000000 0.281733 0.250000
O O17 0.243954 0.000000 0.500000
O O18 0.500000 0.424401 0.750000
#
# Coordination Sequence:
#
# PCOD9317922 Si02
#       8
#     8   8   8   8   8   8   8   8
#     4  11  25  41  63  98 124 164 216 270 318 393
#     4  11  21  41  64  92 128 160 209 268 323 374
#     4  11  21  38  64  90 123 166 205 259 322 375
#     4  10  20  36  62  92 121 162 208 257 309 384
#     4  10  20  40  62  92 125 169 211 259 313 388
#     4  11  21  43  66  88 122 166 209 259 327 383
#     4  10  22  38  62  91 125 166 215 250 314 389
#     4  10  20  38  64  89 120 164 210 256 312 381
#
# _framework density 19.840858000000001
#
# number of rings (size 3 to 8) (size 9 to 14) (size 15 to 20)
#    0.000    1.500    3.750    3.750    5.250    0.000 
#    0.000    5.000    0.000    0.000    0.000    0.000 
#    0.000    0.000    0.000    0.000    0.000    0.000 
#
# Total GULP energy -178162.360394 kJ/mol
# GULP energy per Si atom -5567.573762 kJ/mol
# Density = 1.979570 g / cm^3
# Si number density = 19.840858 Si / 1000 Ang^3
#
#
#
# Elastic Constant Matrix: (Units=GPa)
#
#
# Indices 1 2 3 4 5 6 
#
# 1 63.6856 8.4633 3.0798 0.0000 0.0000 0.0000
# 2 8.4633 62.1531 -2.1429 0.0000 0.0000 0.0000
# 3 3.0798 -2.1429 38.7686 0.0000 0.0000 0.0000
# 4 0.0000 0.0000 0.0000 28.4312 0.0000 0.0000
# 5 0.0000 0.0000 0.0000 0.0000 37.9037 0.0000
# 6 0.0000 0.0000 0.0000 0.0000 0.0000 40.9284
#
#
#
# Elastic Compliance Matrix: (Units=1/GPa)
#
#
# Indices 1 2 3 4 5 6 
#
# 1 0.016067 -0.002236 -0.001400 0.000000 0.000000 0.000000
# 2 -0.002236 0.016431 0.001086 0.000000 0.000000 0.000000
# 3 -0.001400 0.001086 0.025965 0.000000 0.000000 0.000000
# 4 0.000000 0.000000 0.000000 0.035173 0.000000 0.000000
# 5 0.000000 0.000000 0.000000 0.000000 0.026383 0.000000
# 6 0.000000 0.000000 0.000000 0.000000 0.000000 0.024433
#
#
# Mechanical properties :
#
#
# Convention : Reuss Voigt Hill
#
# Bulk Modulus (GPa) = 18.73955 20.37864 19.55909
# Shear Modulus (GPa) = 29.87933 31.79980 30.83957
#
# Velocity S-wave (km/s) = 3.88487 4.00777 3.94680
# Velocity P-wave (km/s) = 5.43952 5.63113 5.53615
#
# Compressibility (1/GPa) = 0.05336309
#
# Stress axis : x y z
#
# Youngs Moduli (GPa) = 62.23936 60.85978 38.51297
#
# Poissons Ratio (x) = 0.13609 0.05392
# Poissons Ratio (y) = 0.13917 -0.04182
# Poissons Ratio (z) = 0.08713 -0.06608
#
# Static dielectric constant tensor:
#      x y z
#    x 1.666140 0.000000 0.000000 
#    y 0.000000 1.770030 0.000000 
#    z 0.000000 0.000000 1.723970 
# 
# From -- ./inp_files/28926.got.cif
#   From: 2010.05.17/outbox.cif.g08.bks.cpg/sg20_15_cif.got.tgz:28926.got - 2010.06.03 22:52:26.
