data_PCOD9317717
_publ_section_title
;
Structure prediction by ZEFSAII (Michael W. Deem and Ramdas Pophale) SiO2 
 PCOD9317717
Probable space group: C 2 2 21
;
_chemical_formula_sum "Si O2"
_cell_formula_units_Z 48
_cell_length_a 5.370708
_cell_length_b 23.114124
_cell_length_c 18.584019
_cell_angle_alpha 90.000000
_cell_angle_beta 90.000000
_cell_angle_gamma 90.000000
_cell_volume 2307.005450
_symmetry_space_group_name_H-M "C 2 2 21"
_symmetry_group_IT_number 20
_symmetry_cell_setting 'orthorhombic'
loop_
_space_group_symop_operation_xyz
x,y,z
-x,-y,1/2+z
x,-y,-z
-x,y,1/2-z
1/2+x,1/2+y,z
1/2-x,1/2-y,1/2+z
1/2+x,1/2-y,-z
1/2-x,1/2+y,1/2-z
loop_
_atom_site_type_symbol
_atom_site_label
_atom_site_fract_x
_atom_site_fract_y
_atom_site_fract_z
Si Si1 0.978475 0.262324 0.541653
Si Si2 0.257148 0.591732 0.707767
Si Si3 0.666391 0.112575 0.451134
Si Si4 0.526547 0.356147 0.081595
Si Si5 0.687086 0.040053 0.942827
Si Si6 0.113651 0.530492 0.326359
O O1 0.194815 0.251594 0.481656
O O2 0.006306 0.329199 0.562755
O O3 0.046689 0.209835 0.595373
O O4 0.500000 0.612700 0.750000
O O5 0.248774 0.626893 0.633722
O O6 0.291911 0.523688 0.690024
O O7 0.000000 0.596959 0.750000
O O8 0.897995 0.134570 0.498261
O O9 0.523122 0.067882 0.504535
O O10 0.724299 0.080337 0.376795
O O11 0.325498 0.405931 0.091984
O O12 0.590730 0.000292 0.878107
O O13 0.839643 0.000000 0.000000
O O14 0.000000 0.549895 0.250000
#
# Coordination Sequence:
#
# PCOD9317717 Si02
#       6
#     8   8   8   8   8   8
#     4  10  21  38  60  90 119 155 200 254 300 346
#     4  11  24  39  59  91 126 163 201 248 310 367
#     4  10  21  38  58  88 119 153 211 246 303 359
#     4  11  21  36  62  85 123 157 206 253 305 354
#     4  10  20  34  60  89 119 156 202 251 302 362
#     4  10  21  40  58  86 125 162 195 249 307 370
#
# _framework density 20.806191999999999
#
# number of rings (size 3 to 8) (size 9 to 14) (size 15 to 20)
#    0.000    1.667    3.333    2.000    2.333    0.000 
#    0.000    0.833    0.000    0.000    0.000    1.167 
#    0.000    0.000    0.000    0.000    0.000    0.000 
#
# Total GULP energy -133759.730221 kJ/mol
# GULP energy per Si atom -5573.322093 kJ/mol
# Density = 2.075884 g / cm^3
# Si number density = 20.806192 Si / 1000 Ang^3
#
#
#
# Elastic Constant Matrix: (Units=GPa)
#
#
# Indices 1 2 3 4 5 6 
#
# 1 50.9680 10.4808 21.0004 0.0000 0.0000 0.0000
# 2 10.4808 85.7635 36.0694 0.0000 0.0000 0.0000
# 3 21.0004 36.0694 108.5487 0.0000 0.0000 0.0000
# 4 0.0000 0.0000 0.0000 19.0808 0.0000 0.0000
# 5 0.0000 0.0000 0.0000 0.0000 19.5240 0.0000
# 6 0.0000 0.0000 0.0000 0.0000 0.0000 25.1833
#
#
#
# Elastic Compliance Matrix: (Units=1/GPa)
#
#
# Indices 1 2 3 4 5 6 
#
# 1 0.021395 -0.001016 -0.003802 0.000000 0.000000 0.000000
# 2 -0.001016 0.013602 -0.004323 0.000000 0.000000 0.000000
# 3 -0.003802 -0.004323 0.011385 0.000000 0.000000 0.000000
# 4 0.000000 0.000000 0.000000 0.052409 0.000000 0.000000
# 5 0.000000 0.000000 0.000000 0.000000 0.051219 0.000000
# 6 0.000000 0.000000 0.000000 0.000000 0.000000 0.039709
#
#
# Mechanical properties :
#
#
# Convention : Reuss Voigt Hill
#
# Bulk Modulus (GPa) = 35.58639 42.26459 38.92549
# Shear Modulus (GPa) = 23.00249 24.60626 23.80437
#
# Velocity S-wave (km/s) = 3.32860 3.44269 3.38612
# Velocity P-wave (km/s) = 5.64922 6.01335 5.83412
#
# Compressibility (1/GPa) = 0.02810063
#
# Stress axis : x y z
#
# Youngs Moduli (GPa) = 46.73888 73.51654 87.83819
#
# Poissons Ratio (x) = 0.07467 0.33394
# Poissons Ratio (y) = 0.04747 0.37976
# Poissons Ratio (z) = 0.17769 0.31784
#
# Static dielectric constant tensor:
#      x y z
#    x 1.824730 0.000000 0.000000 
#    y 0.000000 1.826070 0.000000 
#    z 0.000000 0.000000 1.815020 
# 
# From -- ./inp_files/22801.got.cif
#   From: 2010.05.17/outbox.cif.g08.bks.cpg/sg20_12_cif.got.tgz:22801.got - 2010.06.03 22:52:26.
