data_PCOD9317945
_publ_section_title
;
Structure prediction by ZEFSAII (Michael W. Deem and Ramdas Pophale) SiO2 
 PCOD9317945
Probable space group: C 2 2 21
;
_chemical_formula_sum "Si O2"
_cell_formula_units_Z 48
_cell_length_a 14.269963
_cell_length_b 14.537455
_cell_length_c 10.014233
_cell_angle_alpha 90.000000
_cell_angle_beta 90.000000
_cell_angle_gamma 90.000000
_cell_volume 2077.442070
_symmetry_space_group_name_H-M "C 2 2 21"
_symmetry_group_IT_number 20
_symmetry_cell_setting 'orthorhombic'
loop_
_space_group_symop_operation_xyz
x,y,z
-x,-y,1/2+z
x,-y,-z
-x,y,1/2-z
1/2+x,1/2+y,z
1/2-x,1/2-y,1/2+z
1/2+x,1/2-y,-z
1/2-x,1/2+y,1/2-z
loop_
_atom_site_type_symbol
_atom_site_label
_atom_site_fract_x
_atom_site_fract_y
_atom_site_fract_z
Si Si1 0.376043 0.045209 0.145255
Si Si2 0.205879 0.163741 0.177802
Si Si3 0.980104 0.690662 0.461276
Si Si4 0.758409 0.319270 0.534831
Si Si5 0.144000 0.000000 0.500000
Si Si6 0.000000 0.602435 0.750000
Si Si7 0.505574 0.367830 0.898592
O O1 0.279699 0.083553 0.196402
O O2 0.412833 0.966427 0.241115
O O3 0.450576 0.127932 0.124358
O O4 0.364997 0.000000 0.000000
O O5 0.245584 0.240918 0.077988
O O6 0.200141 0.203911 0.329164
O O7 0.117196 0.118561 0.103391
O O8 0.869916 0.678041 0.428653
O O9 0.990455 0.655131 0.612799
O O10 0.010493 0.797358 0.478533
O O11 0.713377 0.413404 0.477314
O O12 0.066678 0.952574 0.599056
O O13 0.500000 0.325422 0.750000
#
# Coordination Sequence:
#
# PCOD9317945 Si02
#       7
#     8   8   8   8   4   4   8
#     4  10  22  35  63 100 137 171 229 292 354 435
#     4  11  25  47  68 103 146 188 244 300 373 441
#     4  10  22  41  69  98 142 181 230 290 378 427
#     4  11  26  45  73 102 140 192 242 304 363 447
#     4  12  26  46  74 102 144 192 254 302 368 446
#     4  10  20  36  66 100 132 178 220 286 352 428
#     4  11  23  45  69  93 140 193 237 299 365 436
#
# _framework density 23.105338
#
# number of rings (size 3 to 8) (size 9 to 14) (size 15 to 20)
#    0.000    1.333    2.500    2.000    7.000    1.333 
#    6.000    0.000    0.000    0.000    0.000    0.000 
#    0.000    0.000    0.000    0.000    0.000    0.000 
#
# Total GULP energy -133847.650031 kJ/mol
# GULP energy per Si atom -5576.985418 kJ/mol
# Density = 2.305275 g / cm^3
# Si number density = 23.105338 Si / 1000 Ang^3
#
#
#
# Elastic Constant Matrix: (Units=GPa)
#
#
# Indices 1 2 3 4 5 6 
#
# 1 74.8827 8.0509 -3.5159 0.0000 0.0000 0.0000
# 2 8.0509 41.3840 9.2834 0.0000 0.0000 0.0000
# 3 -3.5159 9.2834 56.2075 0.0000 0.0000 0.0000
# 4 0.0000 0.0000 0.0000 -6.5421 0.0000 0.0000
# 5 0.0000 0.0000 0.0000 0.0000 23.2888 0.0000
# 6 0.0000 0.0000 0.0000 0.0000 0.0000 23.5723
#
#
#
# Elastic Compliance Matrix: (Units=1/GPa)
#
#
# Indices 1 2 3 4 5 6 
#
# 1 0.013738 -0.002976 0.001351 0.000000 0.000000 0.000000
# 2 -0.002976 0.025738 -0.004437 0.000000 0.000000 0.000000
# 3 0.001351 -0.004437 0.018609 0.000000 0.000000 0.000000
# 4 0.000000 0.000000 0.000000 -0.152857 0.000000 0.000000
# 5 0.000000 0.000000 0.000000 0.000000 0.042939 0.000000
# 6 0.000000 0.000000 0.000000 0.000000 0.000000 0.042423
#
#
# Mechanical properties :
#
#
# Convention : Reuss Voigt Hill
#
# Bulk Modulus (GPa) = 21.75782 22.23455 21.99618
# Shear Modulus (GPa) = 277.26874 18.64085 147.95480
#
# Velocity S-wave (km/s) = 10.96643 2.84346 8.01086
# Velocity P-wave (km/s) = 13.03025 4.51934 9.75222
#
# Compressibility (1/GPa) = 0.04596049
#
# Stress axis : x y z
#
# Youngs Moduli (GPa) = 72.79312 38.85281 53.73865
#
# Poissons Ratio (x) = 0.11561 -0.07259
# Poissons Ratio (y) = 0.21660 0.23845
# Poissons Ratio (z) = -0.09833 0.17240
#
# Static dielectric constant tensor:
#      x y z
#    x 1.978110 0.000000 0.000000 
#    y 0.000000 1.896730 0.000000 
#    z 0.000000 0.000000 1.875040 
# 
# From -- ./inp_files/15071.got.cif
#   From: 2010.05.17/outbox.cif.g08.bks.cpg/sg20_8_cif.got.tgz:15071.got - 2010.06.03 22:52:26.
