data_PCOD9317702
_publ_section_title
;
Structure prediction by ZEFSAII (Michael W. Deem and Ramdas Pophale) SiO2 
 PCOD9317702
Probable space group: C 2 2 21
;
_chemical_formula_sum "Si O2"
_cell_formula_units_Z 48
_cell_length_a 23.278576
_cell_length_b 23.845259
_cell_length_c 5.271580
_cell_angle_alpha 90.000000
_cell_angle_beta 90.000000
_cell_angle_gamma 90.000000
_cell_volume 2926.167994
_symmetry_space_group_name_H-M "C 2 2 21"
_symmetry_group_IT_number 20
_symmetry_cell_setting 'orthorhombic'
loop_
_space_group_symop_operation_xyz
x,y,z
-x,-y,1/2+z
x,-y,-z
-x,y,1/2-z
1/2+x,1/2+y,z
1/2-x,1/2-y,1/2+z
1/2+x,1/2-y,-z
1/2-x,1/2+y,1/2-z
loop_
_atom_site_type_symbol
_atom_site_label
_atom_site_fract_x
_atom_site_fract_y
_atom_site_fract_z
Si Si1 0.136880 0.000000 0.500000
Si Si2 0.533543 0.580195 0.498504
Si Si3 0.163558 0.783010 0.315673
Si Si4 0.788642 0.000000 0.500000
Si Si5 0.225199 0.686983 0.080986
Si Si6 0.741934 0.626531 0.900942
Si Si7 0.964953 0.785433 0.999670
O O1 0.095814 0.946395 0.480952
O O2 0.173814 0.009177 0.250616
O O3 0.500000 0.560052 0.250000
O O4 0.534809 0.646996 0.485461
O O5 0.500000 0.564377 0.750000
O O6 0.175894 0.732606 0.121120
O O7 0.215426 0.779848 0.519656
O O8 0.180287 0.842482 0.174095
O O9 0.102503 0.774637 0.448357
O O10 0.759025 0.059775 0.561186
O O11 0.235769 0.653150 0.338639
O O12 0.219891 0.646144 0.839301
O O13 0.000000 0.768038 0.250000
O O14 0.000000 0.765333 0.750000
#
# Coordination Sequence:
#
# PCOD9317702 Si02
#       7
#     4   8   8   4   8   8   8
#     4  12  22  33  48  66  82 142 178 225 266 296
#     4  10  20  35  46  63  90 128 180 225 264 304
#     4  10  20  36  56  77 102 128 188 222 269 325
#     4  12  24  33  48  72 106 130 168 219 286 322
#     4  10  20  34  58  78  94 132 179 232 264 303
#     4  10  21  34  50  77 100 133 174 223 275 320
#     4  10  23  32  48  72 102 135 161 215 279 320
#
# _framework density 16.403706
#
# number of rings (size 3 to 8) (size 9 to 14) (size 15 to 20)
#    1.000    0.667    1.667    3.500    4.667    1.333 
#    0.000    0.000    0.000    0.000    0.000    0.000 
#    0.000    0.000    0.000    4.500    0.000    4.000 
#
# Total GULP energy -133622.981839 kJ/mol
# GULP energy per Si atom -5567.624243 kJ/mol
# Density = 1.636637 g / cm^3
# Si number density = 16.403706 Si / 1000 Ang^3
#
#
#
# Elastic Constant Matrix: (Units=GPa)
#
#
# Indices 1 2 3 4 5 6 
#
# 1 43.8317 22.6004 27.5565 0.0000 0.0000 0.0000
# 2 22.6004 88.5515 41.2197 0.0000 0.0000 0.0000
# 3 27.5565 41.2197 133.3488 0.0000 0.0000 0.0000
# 4 0.0000 0.0000 0.0000 18.8019 0.0000 0.0000
# 5 0.0000 0.0000 0.0000 0.0000 15.2024 0.0000
# 6 0.0000 0.0000 0.0000 0.0000 0.0000 24.0843
#
#
#
# Elastic Compliance Matrix: (Units=1/GPa)
#
#
# Indices 1 2 3 4 5 6 
#
# 1 0.028152 -0.005230 -0.004201 0.000000 0.000000 0.000000
# 2 -0.005230 0.014162 -0.003297 0.000000 0.000000 0.000000
# 3 -0.004201 -0.003297 0.009386 0.000000 0.000000 0.000000
# 4 0.000000 0.000000 0.000000 0.053186 0.000000 0.000000
# 5 0.000000 0.000000 0.000000 0.000000 0.065779 0.000000
# 6 0.000000 0.000000 0.000000 0.000000 0.000000 0.041521
#
#
# Mechanical properties :
#
#
# Convention : Reuss Voigt Hill
#
# Bulk Modulus (GPa) = 38.10173 49.83168 43.96671
# Shear Modulus (GPa) = 20.29296 23.24142 21.76719
#
# Velocity S-wave (km/s) = 3.52105 3.76818 3.64671
# Velocity P-wave (km/s) = 6.30939 7.02684 6.67775
#
# Compressibility (1/GPa) = 0.02624553
#
# Stress axis : x y z
#
# Youngs Moduli (GPa) = 35.52119 70.60998 106.53655
#
# Poissons Ratio (x) = 0.36926 0.44757
# Poissons Ratio (y) = 0.18576 0.35126
# Poissons Ratio (z) = 0.14923 0.23280
#
# Static dielectric constant tensor:
#      x y z
#    x 1.550150 0.000000 0.000000 
#    y 0.000000 1.578970 0.000000 
#    z 0.000000 0.000000 1.581020 
# 
# From -- ./inp_files/4351.got.cif
#   From: 2010.05.17/outbox.cif.g08.bks.cpg/sg20_3_cif.got.tgz:4351.got - 2010.06.03 22:52:26.
