data_PCOD9317534
_publ_section_title
;
Structure prediction by ZEFSAII (Michael W. Deem and Ramdas Pophale) SiO2 
 PCOD9317534
Probable space group: C 2 2 21
;
_chemical_formula_sum "Si O2"
_cell_formula_units_Z 52
_cell_length_a 8.650746
_cell_length_b 25.370548
_cell_length_c 12.228301
_cell_angle_alpha 90.000000
_cell_angle_beta 90.000000
_cell_angle_gamma 90.000000
_cell_volume 2683.796171
_symmetry_space_group_name_H-M "C 2 2 21"
_symmetry_group_IT_number 20
_symmetry_cell_setting 'orthorhombic'
loop_
_space_group_symop_operation_xyz
x,y,z
-x,-y,1/2+z
x,-y,-z
-x,y,1/2-z
1/2+x,1/2+y,z
1/2-x,1/2-y,1/2+z
1/2+x,1/2-y,-z
1/2-x,1/2+y,1/2-z
loop_
_atom_site_type_symbol
_atom_site_label
_atom_site_fract_x
_atom_site_fract_y
_atom_site_fract_z
Si Si1 0.249577 0.030116 0.113244
Si Si2 0.527982 0.827682 0.572701
Si Si3 0.621873 0.156476 0.844129
Si Si4 0.848777 0.870158 0.506851
Si Si5 0.441832 0.707094 0.874057
Si Si6 0.821910 0.923031 0.279209
Si Si7 0.000000 0.404703 0.750000
O O1 0.385594 0.059568 0.178523
O O2 0.193805 0.984330 0.193570
O O3 0.127938 0.075768 0.076130
O O4 0.296644 0.000000 0.000000
O O5 0.467326 0.846153 0.456552
O O6 0.712542 0.839562 0.569882
O O7 0.509821 0.765963 0.593777
O O8 0.437057 0.862981 0.661009
O O9 0.500000 0.170936 0.750000
O O10 0.759151 0.198144 0.863202
O O11 0.707696 0.102096 0.809722
O O12 0.785691 0.891666 0.390644
O O13 0.987019 0.832659 0.465410
O O14 0.500000 0.697433 0.750000
O O15 0.000000 0.913910 0.250000
#
# Coordination Sequence:
#
# PCOD9317534 Si02
#       7
#     8   8   8   8   8   8   4
#     4   9  22  37  65  89 125 172 214 265 335 390
#     4  11  23  39  63  93 131 168 215 269 323 390
#     4  12  23  38  67  98 124 163 228 274 318 399
#     4  10  19  41  61  86 125 170 203 261 327 380
#     4  12  21  40  66  91 131 172 212 264 329 394
#     4  11  20  40  64  91 125 166 213 270 325 389
#     4  10  22  42  58  92 134 164 210 278 328 372
#
# _framework density 19.375539
#
# number of rings (size 3 to 8) (size 9 to 14) (size 15 to 20)
#    0.000    1.231    5.385    0.923    1.077    0.000 
#    2.769    0.000    0.000    0.000    0.000    0.000 
#    0.000    0.000    0.000    0.000    0.000    0.000 
#
# Total GULP energy -144820.378463 kJ/mol
# GULP energy per Si atom -5570.014556 kJ/mol
# Density = 1.933144 g / cm^3
# Si number density = 19.375539 Si / 1000 Ang^3
#
#
#
# Elastic Constant Matrix: (Units=GPa)
#
#
# Indices 1 2 3 4 5 6 
#
# 1 73.6994 36.1678 21.3626 0.0000 0.0000 0.0000
# 2 36.1678 152.9257 45.8744 0.0000 0.0000 0.0000
# 3 21.3626 45.8744 87.3162 0.0000 0.0000 0.0000
# 4 0.0000 0.0000 0.0000 53.4839 0.0000 0.0000
# 5 0.0000 0.0000 0.0000 0.0000 15.0986 0.0000
# 6 0.0000 0.0000 0.0000 0.0000 0.0000 -7.9585
#
#
#
# Elastic Compliance Matrix: (Units=1/GPa)
#
#
# Indices 1 2 3 4 5 6 
#
# 1 0.015713 -0.003042 -0.002246 0.000000 0.000000 0.000000
# 2 -0.003042 0.008352 -0.003643 0.000000 0.000000 0.000000
# 3 -0.002246 -0.003643 0.013916 0.000000 0.000000 0.000000
# 4 0.000000 0.000000 0.000000 0.018697 0.000000 0.000000
# 5 0.000000 0.000000 0.000000 0.000000 0.066231 0.000000
# 6 0.000000 0.000000 0.000000 0.000000 0.000000 -0.125653
#
#
# Mechanical properties :
#
#
# Convention : Reuss Voigt Hill
#
# Bulk Modulus (GPa) = 49.70861 57.86121 53.78491
# Shear Modulus (GPa) = 229.09009 26.16058 127.62533
#
# Velocity S-wave (km/s) = 10.88547 3.67847 8.12480
# Velocity P-wave (km/s) = 13.55368 6.92600 10.76271
#
# Compressibility (1/GPa) = 0.02011724
#
# Stress axis : x y z
#
# Youngs Moduli (GPa) = 63.64290 119.73705 71.85834
#
# Poissons Ratio (x) = 0.36429 0.16138
# Poissons Ratio (y) = 0.19363 0.26181
# Poissons Ratio (z) = 0.14293 0.43625
#
# Static dielectric constant tensor:
#      x y z
#    x 1.656850 0.000000 0.000000 
#    y 0.000000 1.723650 0.000000 
#    z 0.000000 0.000000 1.777860 
# 
# From -- ./inp_files/13254.got.cif
#   From: 2010.05.17/outbox.cif.g08.bks.cpg/sg20_7_cif.got.tgz:13254.got - 2010.06.03 22:52:26.
