data_PCOD9317393
_publ_section_title
;
Structure prediction by ZEFSAII (Michael W. Deem and Ramdas Pophale) SiO2 
 PCOD9317393
Probable space group: C 2 2 21
;
_chemical_formula_sum "Si O2"
_cell_formula_units_Z 40
_cell_length_a 10.696155
_cell_length_b 8.846885
_cell_length_c 19.825310
_cell_angle_alpha 90.000000
_cell_angle_beta 90.000000
_cell_angle_gamma 90.000000
_cell_volume 1876.022560
_symmetry_space_group_name_H-M "C 2 2 21"
_symmetry_group_IT_number 20
_symmetry_cell_setting 'orthorhombic'
loop_
_space_group_symop_operation_xyz
x,y,z
-x,-y,1/2+z
x,-y,-z
-x,y,1/2-z
1/2+x,1/2+y,z
1/2-x,1/2-y,1/2+z
1/2+x,1/2-y,-z
1/2-x,1/2+y,1/2-z
loop_
_atom_site_type_symbol
_atom_site_label
_atom_site_fract_x
_atom_site_fract_y
_atom_site_fract_z
Si Si1 0.399607 0.335878 0.536599
Si Si2 0.967032 0.996921 0.853062
Si Si3 0.890905 0.411047 0.804347
Si Si4 0.612329 0.240137 0.442529
Si Si5 0.177526 0.104647 0.761709
O O1 0.396209 0.500000 0.500000
O O2 0.455062 0.364608 0.611798
O O3 0.503227 0.235966 0.498155
O O4 0.256145 0.282278 0.535982
O O5 0.897966 0.091908 0.910554
O O6 0.869208 0.977209 0.792387
O O7 0.070232 0.106769 0.818485
O O8 0.919223 0.376928 0.882175
O O9 0.819012 0.259512 0.779076
O O10 0.802785 0.554399 0.796649
O O11 0.000000 0.428900 0.750000
#
# Coordination Sequence:
#
# PCOD9317393 Si02
#       5
#     8   8   8   8   8
#     4  10  21  38  60  86 118 161 202 251 303 362
#     4   9  18  38  61  82 119 159 197 243 308 359
#     4  11  21  39  61  90 125 157 201 256 312 364
#     4  10  20  38  63  84 119 163 201 250 303 361
#     4  10  19  37  64  89 119 159 198 250 305 369
#
# _framework density 21.321705000000001
#
# number of rings (size 3 to 8) (size 9 to 14) (size 15 to 20)
#    0.000    2.000    6.000    0.000    0.000    1.600 
#    3.600    7.000    0.000    0.000    0.000    0.000 
#    0.000    0.000    0.000    0.000    0.000    0.000 
#
# Total GULP energy -111467.687997 kJ/mol
# GULP energy per Si atom -5573.384400 kJ/mol
# Density = 2.127318 g / cm^3
# Si number density = 21.321705 Si / 1000 Ang^3
#
#
#
# Elastic Constant Matrix: (Units=GPa)
#
#
# Indices 1 2 3 4 5 6 
#
# 1 120.3764 21.2838 32.7822 0.0000 0.0000 0.0000
# 2 21.2838 20.2606 5.8085 0.0000 0.0000 0.0000
# 3 32.7822 5.8085 53.1114 0.0000 0.0000 0.0000
# 4 0.0000 0.0000 0.0000 11.4374 0.0000 0.0000
# 5 0.0000 0.0000 0.0000 0.0000 28.8921 0.0000
# 6 0.0000 0.0000 0.0000 0.0000 0.0000 35.6395
#
#
#
# Elastic Compliance Matrix: (Units=1/GPa)
#
#
# Indices 1 2 3 4 5 6 
#
# 1 0.011879 -0.010713 -0.006161 0.000000 0.000000 0.000000
# 2 -0.010713 0.060616 -0.000017 0.000000 0.000000 0.000000
# 3 -0.006161 -0.000017 0.022633 0.000000 0.000000 0.000000
# 4 0.000000 0.000000 0.000000 0.087432 0.000000 0.000000
# 5 0.000000 0.000000 0.000000 0.000000 0.034612 0.000000
# 6 0.000000 0.000000 0.000000 0.000000 0.000000 0.028059
#
#
# Mechanical properties :
#
#
# Convention : Reuss Voigt Hill
#
# Bulk Modulus (GPa) = 16.30076 34.83304 25.56690
# Shear Modulus (GPa) = 16.69674 24.11874 20.40774
#
# Velocity S-wave (km/s) = 2.80140 3.36695 3.09712
# Velocity P-wave (km/s) = 4.25741 5.61138 4.98062
#
# Compressibility (1/GPa) = 0.06134685
#
# Stress axis : x y z
#
# Youngs Moduli (GPa) = 84.18112 16.49740 44.18376
#
# Poissons Ratio (x) = 0.17673 0.27220
# Poissons Ratio (y) = 0.90182 0.00074
# Poissons Ratio (z) = 0.51861 0.00028
#
# Static dielectric constant tensor:
#      x y z
#    x 1.783530 0.000000 0.000000 
#    y 0.000000 1.789920 0.000000 
#    z 0.000000 0.000000 1.813670 
# 
# From -- ./inp_files/26476.got.cif
#   From: 2010.05.17/outbox.cif.g08.bks.cpg/sg20_14_cif.got.tgz:26476.got - 2010.06.03 22:52:26.
