data_PCOD9317578
_publ_section_title
;
Structure prediction by ZEFSAII (Michael W. Deem and Ramdas Pophale) SiO2 
 PCOD9317578
Probable space group: C 2 2 21
;
_chemical_formula_sum "Si O2"
_cell_formula_units_Z 32
_cell_length_a 13.993241
_cell_length_b 15.844618
_cell_length_c 5.113962
_cell_angle_alpha 90.000000
_cell_angle_beta 90.000000
_cell_angle_gamma 90.000000
_cell_volume 1133.855168
_symmetry_space_group_name_H-M "C 2 2 21"
_symmetry_group_IT_number 20
_symmetry_cell_setting 'orthorhombic'
loop_
_space_group_symop_operation_xyz
x,y,z
-x,-y,1/2+z
x,-y,-z
-x,y,1/2-z
1/2+x,1/2+y,z
1/2-x,1/2-y,1/2+z
1/2+x,1/2-y,-z
1/2-x,1/2+y,1/2-z
loop_
_atom_site_type_symbol
_atom_site_label
_atom_site_fract_x
_atom_site_fract_y
_atom_site_fract_z
Si Si1 0.912298 0.404776 0.926647
Si Si2 0.106026 0.111660 0.849576
Si Si3 0.107208 0.742378 0.816501
Si Si4 0.211398 0.107152 0.350599
O O1 0.883215 0.213971 0.601691
O O2 0.816537 0.407555 0.753514
O O3 0.000000 0.370294 0.750000
O O4 0.937102 0.500000 0.000000
O O5 0.393449 0.149378 0.809330
O O6 0.312432 0.292847 0.843281
O O7 0.184004 0.081405 0.640445
O O8 0.133720 0.922029 0.864640
O O9 0.000000 0.773466 0.750000
O O10 0.000000 0.905959 0.250000
#
# Coordination Sequence:
#
# PCOD9317578 Si02
#       4
#     8   8   8   8
#     4  12  30  53  76 118 181 236 278 334 424 525
#     4  10  19  45  76 121 151 187 257 361 420 468
#     4  10  23  43  79 115 158 201 273 349 413 482
#     4  10  24  45  78 115 154 206 281 340 402 482
#
# _framework density 28.222301000000002
#
# number of rings (size 3 to 8) (size 9 to 14) (size 15 to 20)
#    1.500    0.000    2.500    1.500    3.500    8.000 
#    0.000    0.000    0.000    4.500    0.000    0.000 
#    0.000    0.000    0.000    0.000    0.000    0.000 
#
# Total GULP energy -89533.259145 kJ/mol
# GULP energy per Si atom -5595.828697 kJ/mol
# Density = 2.815807 g / cm^3
# Si number density = 28.222301 Si / 1000 Ang^3
#
#
#
# Elastic Constant Matrix: (Units=GPa)
#
#
# Indices 1 2 3 4 5 6 
#
# 1 156.0024 9.9447 67.0403 0.0000 0.0000 0.0000
# 2 9.9447 128.7692 29.8501 0.0000 0.0000 0.0000
# 3 67.0403 29.8501 181.9430 0.0000 0.0000 0.0000
# 4 0.0000 0.0000 0.0000 53.4773 0.0000 0.0000
# 5 0.0000 0.0000 0.0000 0.0000 52.3682 0.0000
# 6 0.0000 0.0000 0.0000 0.0000 0.0000 39.7584
#
#
#
# Elastic Compliance Matrix: (Units=1/GPa)
#
#
# Indices 1 2 3 4 5 6 
#
# 1 0.007617 0.000065 -0.002817 0.000000 0.000000 0.000000
# 2 0.000065 0.008073 -0.001348 0.000000 0.000000 0.000000
# 3 -0.002817 -0.001348 0.006755 0.000000 0.000000 0.000000
# 4 0.000000 0.000000 0.000000 0.018700 0.000000 0.000000
# 5 0.000000 0.000000 0.000000 0.000000 0.019096 0.000000
# 6 0.000000 0.000000 0.000000 0.000000 0.000000 0.025152
#
#
# Mechanical properties :
#
#
# Convention : Reuss Voigt Hill
#
# Bulk Modulus (GPa) = 70.20476 75.59832 72.90154
# Shear Modulus (GPa) = 50.84295 53.11274 51.97784
#
# Velocity S-wave (km/s) = 4.24903 4.34284 4.29619
# Velocity P-wave (km/s) = 7.00014 7.21054 7.10612
#
# Compressibility (1/GPa) = 0.01424405
#
# Stress axis : x y z
#
# Youngs Moduli (GPa) = 131.29121 123.86343 148.02797
#
# Poissons Ratio (x) = -0.00803 0.41701
# Poissons Ratio (y) = -0.00851 0.19961
# Poissons Ratio (z) = 0.36986 0.16702
#
# Static dielectric constant tensor:
#      x y z
#    x 2.041710 0.000000 0.000000 
#    y 0.000000 2.440500 0.000000 
#    z 0.000000 0.000000 2.116520 
# 
# From -- ./inp_files/6764.got.cif
#   From: 2010.05.17/outbox.cif.g08.bks.cpg/sg20_4_cif.got.tgz:6764.got - 2010.06.03 22:52:26.
