data_PCOD9317663
_publ_section_title
;
Structure prediction by ZEFSAII (Michael W. Deem and Ramdas Pophale) SiO2 
 PCOD9317663
Probable space group: C 2 2 21
;
_chemical_formula_sum "Si O2"
_cell_formula_units_Z 32
_cell_length_a 12.788103
_cell_length_b 26.760019
_cell_length_c 5.177347
_cell_angle_alpha 90.000000
_cell_angle_beta 90.000000
_cell_angle_gamma 90.000000
_cell_volume 1771.739292
_symmetry_space_group_name_H-M "C 2 2 21"
_symmetry_group_IT_number 20
_symmetry_cell_setting 'orthorhombic'
loop_
_space_group_symop_operation_xyz
x,y,z
-x,-y,1/2+z
x,-y,-z
-x,y,1/2-z
1/2+x,1/2+y,z
1/2-x,1/2-y,1/2+z
1/2+x,1/2-y,-z
1/2-x,1/2+y,1/2-z
loop_
_atom_site_type_symbol
_atom_site_label
_atom_site_fract_x
_atom_site_fract_y
_atom_site_fract_z
Si Si1 0.124279 0.533596 0.251709
Si Si2 0.300243 0.308661 0.210841
Si Si3 0.279190 0.141893 0.194098
Si Si4 0.903414 0.725793 0.943343
O O1 0.145261 0.500000 0.500000
O O2 0.187066 0.584876 0.280141
O O3 0.000000 0.545441 0.250000
O O4 0.147331 0.500000 0.000000
O O5 0.301950 0.343441 0.464562
O O6 0.201835 0.271712 0.267963
O O7 0.266576 0.340959 0.965741
O O8 0.395337 0.273468 0.129287
O O9 0.379970 0.175900 0.110462
O O10 0.000000 0.723046 0.750000
#
# Coordination Sequence:
#
# PCOD9317663 Si02
#       4
#     8   8   8   8
#     4  10  21  33  49  74 104 138 190 233 265 322
#     4  10  20  36  47  79 106 138 193 228 254 334
#     4  10  20  34  51  69 108 142 183 223 270 316
#     4  10  21  34  55  75 110 150 185 229 276 320
#
# _framework density 18.061347000000001
#
# number of rings (size 3 to 8) (size 9 to 14) (size 15 to 20)
#    1.500    0.500    2.500    1.500    3.500    1.000 
#    0.000    0.000    0.000    0.000    0.000    0.000 
#    0.000    6.000    0.000    0.750    0.500    1.000 
#
# Total GULP energy -89141.247871 kJ/mol
# GULP energy per Si atom -5571.327992 kJ/mol
# Density = 1.802024 g / cm^3
# Si number density = 18.061347 Si / 1000 Ang^3
#
#
#
# Elastic Constant Matrix: (Units=GPa)
#
#
# Indices 1 2 3 4 5 6 
#
# 1 34.4989 16.1389 16.0084 0.0000 0.0000 0.0000
# 2 16.1389 136.5495 54.0473 0.0000 0.0000 0.0000
# 3 16.0084 54.0473 144.1189 0.0000 0.0000 0.0000
# 4 0.0000 0.0000 0.0000 8.0506 0.0000 0.0000
# 5 0.0000 0.0000 0.0000 0.0000 10.6891 0.0000
# 6 0.0000 0.0000 0.0000 0.0000 0.0000 11.0234
#
#
#
# Elastic Compliance Matrix: (Units=1/GPa)
#
#
# Indices 1 2 3 4 5 6 
#
# 1 0.031410 -0.002738 -0.002462 0.000000 0.000000 0.000000
# 2 -0.002738 0.008839 -0.003011 0.000000 0.000000 0.000000
# 3 -0.002462 -0.003011 0.008341 0.000000 0.000000 0.000000
# 4 0.000000 0.000000 0.000000 0.124214 0.000000 0.000000
# 5 0.000000 0.000000 0.000000 0.000000 0.093554 0.000000
# 6 0.000000 0.000000 0.000000 0.000000 0.000000 0.090716
#
#
# Mechanical properties :
#
#
# Convention : Reuss Voigt Hill
#
# Bulk Modulus (GPa) = 31.08635 54.17293 42.62964
# Shear Modulus (GPa) = 13.01347 21.21745 17.11546
#
# Velocity S-wave (km/s) = 2.68715 3.43117 3.08170
# Velocity P-wave (km/s) = 5.18427 6.76433 6.02631
#
# Compressibility (1/GPa) = 0.03216846
#
# Stress axis : x y z
#
# Youngs Moduli (GPa) = 31.83730 113.14117 119.88673
#
# Poissons Ratio (x) = 0.30976 0.29518
# Poissons Ratio (y) = 0.08716 0.36092
# Poissons Ratio (z) = 0.07839 0.34061
#
# Static dielectric constant tensor:
#      x y z
#    x 1.650900 0.000000 0.000000 
#    y 0.000000 1.688620 0.000000 
#    z 0.000000 0.000000 1.655150 
# 
# From -- ./inp_files/1823.got.cif
#   From: 2010.05.17/outbox.cif.g08.bks.cpg/sg20_1_cif.got.tgz:1823.got - 2010.06.03 22:52:26.
