data_PCOD9317703
_publ_section_title
;
Structure prediction by ZEFSAII (Michael W. Deem and Ramdas Pophale) SiO2 
 PCOD9317703
Probable space group: C 2 2 21
;
_chemical_formula_sum "Si O2"
_cell_formula_units_Z 60
_cell_length_a 22.186581
_cell_length_b 15.665269
_cell_length_c 9.548406
_cell_angle_alpha 90.000000
_cell_angle_beta 90.000000
_cell_angle_gamma 90.000000
_cell_volume 3318.632145
_symmetry_space_group_name_H-M "C 2 2 21"
_symmetry_group_IT_number 20
_symmetry_cell_setting 'orthorhombic'
loop_
_space_group_symop_operation_xyz
x,y,z
-x,-y,1/2+z
x,-y,-z
-x,y,1/2-z
1/2+x,1/2+y,z
1/2-x,1/2-y,1/2+z
1/2+x,1/2-y,-z
1/2-x,1/2+y,1/2-z
loop_
_atom_site_type_symbol
_atom_site_label
_atom_site_fract_x
_atom_site_fract_y
_atom_site_fract_z
Si Si1 0.744274 0.500000 0.000000
Si Si2 0.174172 0.739885 0.590211
Si Si3 0.348556 0.828683 0.536629
Si Si4 0.700320 0.341649 0.159625
Si Si5 0.569176 0.842532 0.229020
Si Si6 0.160977 0.610766 0.348076
Si Si7 0.781903 0.099776 0.963641
Si Si8 0.041842 0.474901 0.640384
O O1 0.706110 0.423127 0.060204
O O2 0.788345 0.540658 0.117709
O O3 0.233461 0.702242 0.664419
O O4 0.115626 0.709363 0.673273
O O5 0.176473 0.695967 0.435254
O O6 0.183007 0.840726 0.574983
O O7 0.340583 0.730699 0.588182
O O8 0.403034 0.838319 0.427307
O O9 0.350795 0.878140 0.684429
O O10 0.286897 0.864375 0.466611
O O11 0.688703 0.378117 0.313794
O O12 0.500000 0.812290 0.250000
O O13 0.566100 0.941204 0.279815
O O14 0.098051 0.579040 0.409898
O O15 0.782477 0.000000 0.000000
O O16 0.006808 0.500000 0.500000
O O17 0.000000 0.427038 0.750000
#
# Coordination Sequence:
#
# PCOD9317703 Si02
#       8
#     4   8   8   8   8   8   8   8
#     4  10  20  34  58  80 120 150 186 224 314 356
#     4  10  20  39  58  80 124 157 195 241 301 357
#     4  11  24  35  58  86 124 156 201 243 296 363
#     4  10  20  37  55  88 119 154 189 242 301 360
#     4  11  24  40  58  86 121 166 208 241 292 363
#     4  11  20  35  55  77 114 166 186 238 288 349
#     4  11  22  35  60  94 122 150 199 255 310 359
#     4  11  23  36  53  81 115 154 203 243 282 342
#
# _framework density 18.079739
#
# number of rings (size 3 to 8) (size 9 to 14) (size 15 to 20)
#    0.000    1.333    4.667    1.600    5.600    1.067 
#    0.000    0.000    0.000    0.000    5.200    0.000 
#    0.000    0.000    0.000    0.000    0.000    0.000 
#
# Total GULP energy -167351.295422 kJ/mol
# GULP energy per Si atom -5578.376514 kJ/mol
# Density = 1.803859 g / cm^3
# Si number density = 18.079739 Si / 1000 Ang^3
#
#
#
# Elastic Constant Matrix: (Units=GPa)
#
#
# Indices 1 2 3 4 5 6 
#
# 1 49.9778 12.3368 19.5248 0.0000 0.0000 0.0000
# 2 12.3368 111.4948 29.6733 0.0000 0.0000 0.0000
# 3 19.5248 29.6733 116.7000 0.0000 0.0000 0.0000
# 4 0.0000 0.0000 0.0000 13.4283 0.0000 0.0000
# 5 0.0000 0.0000 0.0000 0.0000 31.0258 0.0000
# 6 0.0000 0.0000 0.0000 0.0000 0.0000 11.8729
#
#
#
# Elastic Compliance Matrix: (Units=1/GPa)
#
#
# Indices 1 2 3 4 5 6 
#
# 1 0.021651 -0.001535 -0.003232 0.000000 0.000000 0.000000
# 2 -0.001535 0.009729 -0.002217 0.000000 0.000000 0.000000
# 3 -0.003232 -0.002217 0.009673 0.000000 0.000000 0.000000
# 4 0.000000 0.000000 0.000000 0.074469 0.000000 0.000000
# 5 0.000000 0.000000 0.000000 0.000000 0.032231 0.000000
# 6 0.000000 0.000000 0.000000 0.000000 0.000000 0.084226
#
#
# Mechanical properties :
#
#
# Convention : Reuss Voigt Hill
#
# Bulk Modulus (GPa) = 36.92168 44.58250 40.75209
# Shear Modulus (GPa) = 19.60972 25.70791 22.65881
#
# Velocity S-wave (km/s) = 3.29694 3.77492 3.54400
# Velocity P-wave (km/s) = 5.91261 6.61154 6.27182
#
# Compressibility (1/GPa) = 0.02708436
#
# Stress axis : x y z
#
# Youngs Moduli (GPa) = 46.18827 102.78621 103.37650
#
# Poissons Ratio (x) = 0.15783 0.33410
# Poissons Ratio (y) = 0.07092 0.22917
# Poissons Ratio (z) = 0.14927 0.22786
#
# Static dielectric constant tensor:
#      x y z
#    x 1.618470 0.000000 0.000000 
#    y 0.000000 1.626720 0.000000 
#    z 0.000000 0.000000 1.681900 
# 
# From -- ./inp_files/10782.got.cif
#   From: 2010.05.17/outbox.cif.g08.bks.cpg/sg20_6_cif.got.tgz:10782.got - 2010.06.03 22:52:26.
