data_PCOD9317563
_publ_section_title
;
Structure prediction by ZEFSAII (Michael W. Deem and Ramdas Pophale) SiO2 
 PCOD9317563
Probable space group: C 2 2 21
;
_chemical_formula_sum "Si O2"
_cell_formula_units_Z 56
_cell_length_a 13.623994
_cell_length_b 5.501654
_cell_length_c 32.419655
_cell_angle_alpha 90.000000
_cell_angle_beta 90.000000
_cell_angle_gamma 90.000000
_cell_volume 2429.999066
_symmetry_space_group_name_H-M "C 2 2 21"
_symmetry_group_IT_number 20
_symmetry_cell_setting 'orthorhombic'
loop_
_space_group_symop_operation_xyz
x,y,z
-x,-y,1/2+z
x,-y,-z
-x,y,1/2-z
1/2+x,1/2+y,z
1/2-x,1/2-y,1/2+z
1/2+x,1/2-y,-z
1/2-x,1/2+y,1/2-z
loop_
_atom_site_type_symbol
_atom_site_label
_atom_site_fract_x
_atom_site_fract_y
_atom_site_fract_z
Si Si1 0.519979 0.749956 0.880951
Si Si2 0.964083 0.868992 0.823813
Si Si3 0.063411 0.749778 0.974392
Si Si4 0.196483 0.929933 0.910434
Si Si5 0.656845 0.883402 0.159754
Si Si6 0.723873 0.343128 0.727297
Si Si7 0.103825 0.633224 0.588836
O O1 0.480276 0.647260 0.837674
O O2 0.592458 0.555229 0.900119
O O3 0.591887 0.973238 0.873112
O O4 0.432161 0.851720 0.907866
O O5 0.888634 0.833706 0.787212
O O6 0.917942 0.751120 0.866036
O O7 0.072441 0.761600 0.815515
O O8 0.164481 0.758266 0.947739
O O9 0.965962 0.744936 0.945682
O O10 0.061847 0.500000 0.000000
O O11 0.062770 0.000000 0.000000
O O12 0.223286 0.794682 0.867490
O O13 0.281367 0.120357 0.920220
O O14 0.714894 0.072191 0.187224
O O15 0.742457 0.577137 0.757108
#
# Coordination Sequence:
#
# PCOD9317563 Si02
#       7
#     8   8   8   8   8   8   8
#     4  10  19  42  73 106 137 178 260 303 338 432
#     4  10  23  44  76 103 139 197 248 300 358 447
#     4  12  27  50  70 108 160 186 239 315 374 426
#     4  11  23  44  77 105 137 198 248 298 358 445
#     4  10  23  44  76 103 139 197 248 300 358 447
#     4  12  30  48  68 112 155 190 241 316 372 426
#     4  11  23  44  77 105 137 198 248 298 358 445
#
# _framework density 23.045276000000001
#
# number of rings (size 3 to 8) (size 9 to 14) (size 15 to 20)
#    0.000    1.143    4.286    2.571   10.000    1.143 
#    0.000    4.286    0.000    0.000    0.000    0.000 
#    0.000    0.000    0.000    0.000    0.000    0.000 
#
# Total GULP energy -156380.829703 kJ/mol
# GULP energy per Si atom -5585.029632 kJ/mol
# Density = 2.299282 g / cm^3
# Si number density = 23.045276 Si / 1000 Ang^3
#
#
#
# Elastic Constant Matrix: (Units=GPa)
#
#
# Indices 1 2 3 4 5 6 
#
# 1 84.9892 3.1463 18.1146 0.0000 0.0000 0.0000
# 2 3.1463 74.7703 15.8108 0.0000 0.0000 0.0000
# 3 18.1146 15.8108 62.1496 0.0000 0.0000 0.0000
# 4 0.0000 0.0000 0.0000 50.0570 0.0000 0.0000
# 5 0.0000 0.0000 0.0000 0.0000 28.8384 0.0000
# 6 0.0000 0.0000 0.0000 0.0000 0.0000 27.8665
#
#
#
# Elastic Compliance Matrix: (Units=1/GPa)
#
#
# Indices 1 2 3 4 5 6 
#
# 1 0.012550 0.000259 -0.003724 0.000000 0.000000 0.000000
# 2 0.000259 0.014140 -0.003673 0.000000 0.000000 0.000000
# 3 -0.003724 -0.003673 0.018110 0.000000 0.000000 0.000000
# 4 0.000000 0.000000 0.000000 0.019977 0.000000 0.000000
# 5 0.000000 0.000000 0.000000 0.000000 0.034676 0.000000
# 6 0.000000 0.000000 0.000000 0.000000 0.000000 0.035885
#
#
# Mechanical properties :
#
#
# Convention : Reuss Voigt Hill
#
# Bulk Modulus (GPa) = 32.75953 32.89472 32.82713
# Shear Modulus (GPa) = 31.29128 33.67487 32.48307
#
# Velocity S-wave (km/s) = 3.68885 3.82677 3.75845
# Velocity P-wave (km/s) = 5.69119 5.81640 5.75414
#
# Compressibility (1/GPa) = 0.03052546
#
# Stress axis : x y z
#
# Youngs Moduli (GPa) = 79.67916 70.72121 55.21811
#
# Poissons Ratio (x) = -0.01834 0.20563
# Poissons Ratio (y) = -0.02066 0.20280
# Poissons Ratio (z) = 0.29673 0.25974
#
# Static dielectric constant tensor:
#      x y z
#    x 1.814590 0.000000 0.000000 
#    y 0.000000 1.935010 0.000000 
#    z 0.000000 0.000000 1.927500 
# 
# From -- ./inp_files/30749.got.cif
#   From: 2010.05.17/outbox.cif.g08.bks.cpg/sg20_16_cif.got.tgz:30749.got - 2010.06.03 22:52:26.
