data_PCOD9317344
_publ_section_title
;
Structure prediction by ZEFSAII (Michael W. Deem and Ramdas Pophale) SiO2 
 PCOD9317344
Probable space group: C 2 2 21
;
_chemical_formula_sum "Si O2"
_cell_formula_units_Z 64
_cell_length_a 17.626455
_cell_length_b 29.790533
_cell_length_c 5.734688
_cell_angle_alpha 90.000000
_cell_angle_beta 90.000000
_cell_angle_gamma 90.000000
_cell_volume 3011.293210
_symmetry_space_group_name_H-M "C 2 2 21"
_symmetry_group_IT_number 20
_symmetry_cell_setting 'orthorhombic'
loop_
_space_group_symop_operation_xyz
x,y,z
-x,-y,1/2+z
x,-y,-z
-x,y,1/2-z
1/2+x,1/2+y,z
1/2-x,1/2-y,1/2+z
1/2+x,1/2-y,-z
1/2-x,1/2+y,1/2-z
loop_
_atom_site_type_symbol
_atom_site_label
_atom_site_fract_x
_atom_site_fract_y
_atom_site_fract_z
Si Si1 0.805129 0.366901 0.773974
Si Si2 0.544683 0.838557 0.499045
Si Si3 0.571398 0.354247 0.399327
Si Si4 0.185073 0.099192 0.893578
Si Si5 0.752521 0.049879 0.993181
Si Si6 0.916093 0.066645 0.238642
Si Si7 0.739591 0.274360 0.687843
Si Si8 0.926026 0.765143 0.899950
O O1 0.878280 0.365645 0.941724
O O2 0.797443 0.411341 0.615317
O O3 0.792623 0.318390 0.653207
O O4 0.729178 0.371517 0.923819
O O5 0.500000 0.841611 0.750000
O O6 0.569973 0.786758 0.466167
O O7 0.500000 0.849644 0.250000
O O8 0.500000 0.370279 0.250000
O O9 0.651665 0.367957 0.295557
O O10 0.570313 0.383340 0.634645
O O11 0.569867 0.300984 0.396063
O O12 0.240193 0.064314 0.773673
O O13 0.116255 0.071801 0.003719
O O14 0.840349 0.049266 0.098324
O O15 0.721504 0.000000 0.000000
O O16 0.000000 0.044430 0.250000
O O17 0.737093 0.249333 0.433657
O O18 0.649792 0.280219 0.731815
O O19 0.000000 0.774549 0.750000
#
# Coordination Sequence:
#
# PCOD9317344 Si02
#       8
#     8   8   8   8   8   8   8   8
#     4  11  26  44  73 102 138 187 235 301 366 438
#     4  11  27  47  70 102 140 182 235 293 367 439
#     4  11  21  33  59  86 130 186 238 290 346 401
#     4  10  22  39  66  90 134 173 234 291 349 422
#     4  10  24  43  67 102 135 180 242 297 370 435
#     4  10  19  37  54  93 131 183 237 289 352 406
#     4  12  28  44  69 102 146 189 243 293 350 426
#     4  11  25  39  60  92 138 185 239 294 347 410
#
# _framework density 21.253328
#
# number of rings (size 3 to 8) (size 9 to 14) (size 15 to 20)
#    0.000    1.250    2.500    3.000   10.500    2.000 
#    2.250    0.000    0.000    0.000    3.250    0.000 
#    0.000    0.000    0.000    0.000    0.000    0.000 
#
# Total GULP energy -178163.768039 kJ/mol
# GULP energy per Si atom -5567.617751 kJ/mol
# Density = 2.120495 g / cm^3
# Si number density = 21.253328 Si / 1000 Ang^3
#
#
#
# Elastic Constant Matrix: (Units=GPa)
#
#
# Indices 1 2 3 4 5 6 
#
# 1 81.5249 16.9030 17.6188 0.0000 0.0000 0.0000
# 2 16.9030 100.5928 35.3393 0.0000 0.0000 0.0000
# 3 17.6188 35.3393 77.8216 0.0000 0.0000 0.0000
# 4 0.0000 0.0000 0.0000 37.3581 0.0000 0.0000
# 5 0.0000 0.0000 0.0000 0.0000 40.0123 0.0000
# 6 0.0000 0.0000 0.0000 0.0000 0.0000 13.6180
#
#
#
# Elastic Compliance Matrix: (Units=1/GPa)
#
#
# Indices 1 2 3 4 5 6 
#
# 1 0.013055 -0.001375 -0.002331 0.000000 0.000000 0.000000
# 2 -0.001375 0.011973 -0.005126 0.000000 0.000000 0.000000
# 3 -0.002331 -0.005126 0.015705 0.000000 0.000000 0.000000
# 4 0.000000 0.000000 0.000000 0.026768 0.000000 0.000000
# 5 0.000000 0.000000 0.000000 0.000000 0.024992 0.000000
# 6 0.000000 0.000000 0.000000 0.000000 0.000000 0.073432
#
#
# Mechanical properties :
#
#
# Convention : Reuss Voigt Hill
#
# Bulk Modulus (GPa) = 43.34701 44.40685 43.87693
# Shear Modulus (GPa) = 26.13980 30.86956 28.50468
#
# Velocity S-wave (km/s) = 3.51082 3.81525 3.66619
# Velocity P-wave (km/s) = 6.07241 6.35197 6.21376
#
# Compressibility (1/GPa) = 0.02306964
#
# Stress axis : x y z
#
# Youngs Moduli (GPa) = 76.59869 83.52289 63.67251
#
# Poissons Ratio (x) = 0.11481 0.14845
# Poissons Ratio (y) = 0.10530 0.32637
# Poissons Ratio (z) = 0.17858 0.42811
#
# Static dielectric constant tensor:
#      x y z
#    x 1.833490 0.000000 0.000000 
#    y 0.000000 1.820440 0.000000 
#    z 0.000000 0.000000 1.893680 
# 
# From -- ./inp_files/2914.got.cif
#   From: 2010.05.17/outbox.cif.g08.bks.cpg/sg20_2_cif.got.tgz:2914.got - 2010.06.03 22:52:26.
