data_PCOD9317567
_publ_section_title
;
Structure prediction by ZEFSAII (Michael W. Deem and Ramdas Pophale) SiO2 
 PCOD9317567
Probable space group: C 2 2 21
;
_chemical_formula_sum "Si O2"
_cell_formula_units_Z 36
_cell_length_a 10.966924
_cell_length_b 8.763723
_cell_length_c 15.088687
_cell_angle_alpha 90.000000
_cell_angle_beta 90.000000
_cell_angle_gamma 90.000000
_cell_volume 1450.190065
_symmetry_space_group_name_H-M "C 2 2 21"
_symmetry_group_IT_number 20
_symmetry_cell_setting 'orthorhombic'
loop_
_space_group_symop_operation_xyz
x,y,z
-x,-y,1/2+z
x,-y,-z
-x,y,1/2-z
1/2+x,1/2+y,z
1/2-x,1/2-y,1/2+z
1/2+x,1/2-y,-z
1/2-x,1/2+y,1/2-z
loop_
_atom_site_type_symbol
_atom_site_label
_atom_site_fract_x
_atom_site_fract_y
_atom_site_fract_z
Si Si1 0.500000 0.659947 0.750000
Si Si2 0.798096 0.914194 0.693470
Si Si3 0.648930 0.500000 0.000000
Si Si4 0.485518 0.000000 0.000000
Si Si5 0.815183 0.431744 0.353533
Si Si6 0.575371 0.300016 0.434844
O O1 0.398553 0.540215 0.718428
O O2 0.453100 0.750378 0.834238
O O3 0.835419 0.736197 0.690155
O O4 0.780449 0.954787 0.589713
O O5 0.706109 0.948016 0.774340
O O6 0.549530 0.371423 0.027689
O O7 0.409066 0.155555 0.002943
O O8 0.575615 0.982201 0.083713
O O9 0.692552 0.407425 0.415346
#
# Coordination Sequence:
#
# PCOD9317567 Si02
#       6
#     4   8   4   4   8   8
#     4   8  20  42  66  88 140 180 224 284 354 416
#     4  10  22  41  66  99 134 182 230 289 350 417
#     4  10  19  43  66  88 138 184 227 281 362 412
#     4  12  25  45  72 102 142 182 239 293 350 422
#     4  11  25  43  69 105 138 183 234 295 355 421
#     4  10  22  42  67  97 134 179 229 291 342 423
#
# _framework density 24.824332999999999
#
# number of rings (size 3 to 8) (size 9 to 14) (size 15 to 20)
#    0.000    1.778    2.222    0.667    9.333    0.889 
#    4.000    0.000    0.000    0.000    0.000    0.000 
#    0.000    0.000    0.000    0.000    0.000    0.000 
#
# Total GULP energy -100426.585998 kJ/mol
# GULP energy per Si atom -5579.254778 kJ/mol
# Density = 2.476783 g / cm^3
# Si number density = 24.824333 Si / 1000 Ang^3
#
#
#
# Elastic Constant Matrix: (Units=GPa)
#
#
# Indices 1 2 3 4 5 6 
#
# 1 60.8646 -8.6543 37.3015 0.0000 0.0000 0.0000
# 2 -8.6543 89.1756 45.0816 0.0000 0.0000 0.0000
# 3 37.3015 45.0816 154.1541 0.0000 0.0000 0.0000
# 4 0.0000 0.0000 0.0000 62.0504 0.0000 0.0000
# 5 0.0000 0.0000 0.0000 0.0000 23.8020 0.0000
# 6 0.0000 0.0000 0.0000 0.0000 0.0000 95.8722
#
#
#
# Elastic Compliance Matrix: (Units=1/GPa)
#
#
# Indices 1 2 3 4 5 6 
#
# 1 0.021366 0.005500 -0.006779 0.000000 0.000000 0.000000
# 2 0.005500 0.014575 -0.005593 0.000000 0.000000 0.000000
# 3 -0.006779 -0.005593 0.009763 0.000000 0.000000 0.000000
# 4 0.000000 0.000000 0.000000 0.016116 0.000000 0.000000
# 5 0.000000 0.000000 0.000000 0.000000 0.042013 0.000000
# 6 0.000000 0.000000 0.000000 0.000000 0.000000 0.010431
#
#
# Mechanical properties :
#
#
# Convention : Reuss Voigt Hill
#
# Bulk Modulus (GPa) = 31.28775 50.18355 40.73565
# Shear Modulus (GPa) = 36.05896 51.70930 43.88413
#
# Velocity S-wave (km/s) = 3.81539 4.56895 4.20907
# Velocity P-wave (km/s) = 5.66044 6.93492 6.32984
#
# Compressibility (1/GPa) = 0.03196139
#
# Stress axis : x y z
#
# Youngs Moduli (GPa) = 46.80240 68.60902 102.42669
#
# Poissons Ratio (x) = -0.37738 0.69432
# Poissons Ratio (y) = -0.25743 0.57292
# Poissons Ratio (z) = 0.31726 0.38376
#
# Static dielectric constant tensor:
#      x y z
#    x 2.062790 0.000000 0.000000 
#    y 0.000000 2.020740 0.000000 
#    z 0.000000 0.000000 1.927700 
# 
# From -- ./inp_files/18470.got.cif
#   From: 2010.05.17/outbox.cif.g08.bks.cpg/sg20_10_cif.got.tgz:18470.got - 2010.06.03 22:52:26.
