data_PCOD9317326
_publ_section_title
;
Structure prediction by ZEFSAII (Michael W. Deem and Ramdas Pophale) SiO2 
 PCOD9317326
Probable space group: C 2 2 21
;
_chemical_formula_sum "Si O2"
_cell_formula_units_Z 40
_cell_length_a 8.366389
_cell_length_b 20.028541
_cell_length_c 10.896431
_cell_angle_alpha 90.000000
_cell_angle_beta 90.000000
_cell_angle_gamma 90.000000
_cell_volume 1825.877515
_symmetry_space_group_name_H-M "C 2 2 21"
_symmetry_group_IT_number 20
_symmetry_cell_setting 'orthorhombic'
loop_
_space_group_symop_operation_xyz
x,y,z
-x,-y,1/2+z
x,-y,-z
-x,y,1/2-z
1/2+x,1/2+y,z
1/2-x,1/2-y,1/2+z
1/2+x,1/2-y,-z
1/2-x,1/2+y,1/2-z
loop_
_atom_site_type_symbol
_atom_site_label
_atom_site_fract_x
_atom_site_fract_y
_atom_site_fract_z
Si Si1 0.099209 0.927700 0.561887
Si Si2 0.010906 0.711396 0.427233
Si Si3 0.287714 0.629481 0.314622
Si Si4 0.144553 0.149534 0.674032
Si Si5 0.175662 0.740591 0.670282
O O1 0.920491 0.898845 0.590785
O O2 0.194385 0.916934 0.691401
O O3 0.181296 0.887145 0.451351
O O4 0.085581 0.000000 0.500000
O O5 0.112861 0.648441 0.372020
O O6 0.082103 0.777568 0.364405
O O7 0.048247 0.721089 0.568796
O O8 0.825488 0.723893 0.399880
O O9 0.348387 0.702014 0.270611
O O10 0.280493 0.170042 0.768094
O O11 0.000000 0.115110 0.750000
#
# Coordination Sequence:
#
# PCOD9317326 Si02
#       5
#     8   8   8   8   8
#     4  11  23  37  58  89 126 171 225 265 304 387
#     4  10  19  36  62  93 127 158 198 269 336 393
#     4  10  21  37  57  88 123 166 211 262 327 376
#     4   9  18  33  54  84 120 153 201 254 318 371
#     4  10  20  36  64  95 130 161 199 270 337 396
#
# _framework density 21.907274000000001
#
# number of rings (size 3 to 8) (size 9 to 14) (size 15 to 20)
#    0.000    2.000    2.000    4.200    5.600    0.000 
#    0.000    0.000    0.000    4.800    0.000    0.000 
#    0.000    0.000    0.000    0.000    0.000    0.000 
#
# Total GULP energy -111379.640679 kJ/mol
# GULP energy per Si atom -5568.982034 kJ/mol
# Density = 2.185741 g / cm^3
# Si number density = 21.907274 Si / 1000 Ang^3
#
#
#
# Elastic Constant Matrix: (Units=GPa)
#
#
# Indices 1 2 3 4 5 6 
#
# 1 90.3513 31.7237 44.7823 0.0000 0.0000 0.0000
# 2 31.7237 91.3507 50.0666 0.0000 0.0000 0.0000
# 3 44.7823 50.0666 145.2098 0.0000 0.0000 0.0000
# 4 0.0000 0.0000 0.0000 42.1082 0.0000 0.0000
# 5 0.0000 0.0000 0.0000 0.0000 52.8001 0.0000
# 6 0.0000 0.0000 0.0000 0.0000 0.0000 17.2932
#
#
#
# Elastic Compliance Matrix: (Units=1/GPa)
#
#
# Indices 1 2 3 4 5 6 
#
# 1 0.013706 -0.003012 -0.003188 0.000000 0.000000 0.000000
# 2 -0.003012 0.014159 -0.003953 0.000000 0.000000 0.000000
# 3 -0.003188 -0.003953 0.009233 0.000000 0.000000 0.000000
# 4 0.000000 0.000000 0.000000 0.023748 0.000000 0.000000
# 5 0.000000 0.000000 0.000000 0.000000 0.018939 0.000000
# 6 0.000000 0.000000 0.000000 0.000000 0.000000 0.057826
#
#
# Mechanical properties :
#
#
# Convention : Reuss Voigt Hill
#
# Bulk Modulus (GPa) = 59.55591 64.45079 62.00335
# Shear Modulus (GPa) = 30.57802 35.79624 33.18713
#
# Velocity S-wave (km/s) = 3.74008 4.04665 3.89638
# Velocity P-wave (km/s) = 6.77462 7.16362 6.97183
#
# Compressibility (1/GPa) = 0.01679094
#
# Stress axis : x y z
#
# Youngs Moduli (GPa) = 72.96183 70.62424 108.30965
#
# Poissons Ratio (x) = 0.21274 0.34532
# Poissons Ratio (y) = 0.21978 0.42815
# Poissons Ratio (z) = 0.23262 0.27918
#
# Static dielectric constant tensor:
#      x y z
#    x 1.992090 0.000000 0.000000 
#    y 0.000000 1.788490 0.000000 
#    z 0.000000 0.000000 1.945650 
# 
# From -- ./inp_files/12663.got.cif
#   From: 2010.05.17/outbox.cif.g08.bks.cpg/sg20_7_cif.got.tgz:12663.got - 2010.06.03 22:52:26.
