data_PCOD9317555
_publ_section_title
;
Structure prediction by ZEFSAII (Michael W. Deem and Ramdas Pophale) SiO2 
 PCOD9317555
Probable space group: C 2 2 21
;
_chemical_formula_sum "Si O2"
_cell_formula_units_Z 40
_cell_length_a 13.316514
_cell_length_b 8.991680
_cell_length_c 14.080321
_cell_angle_alpha 90.000000
_cell_angle_beta 90.000000
_cell_angle_gamma 90.000000
_cell_volume 1685.947119
_symmetry_space_group_name_H-M "C 2 2 21"
_symmetry_group_IT_number 20
_symmetry_cell_setting 'orthorhombic'
loop_
_space_group_symop_operation_xyz
x,y,z
-x,-y,1/2+z
x,-y,-z
-x,y,1/2-z
1/2+x,1/2+y,z
1/2-x,1/2-y,1/2+z
1/2+x,1/2-y,-z
1/2-x,1/2+y,1/2-z
loop_
_atom_site_type_symbol
_atom_site_label
_atom_site_fract_x
_atom_site_fract_y
_atom_site_fract_z
Si Si1 0.000000 0.781092 0.750000
Si Si2 0.199628 0.638236 0.548754
Si Si3 0.785849 0.125808 0.198063
Si Si4 0.000000 0.279581 0.750000
Si Si5 0.690951 0.303640 0.356245
Si Si6 0.476053 0.965747 0.395203
O O1 0.907027 0.864971 0.796742
O O2 0.950145 0.677200 0.668117
O O3 0.256941 0.500000 0.500000
O O4 0.247228 0.735442 0.631943
O O5 0.177684 0.756357 0.464949
O O6 0.096368 0.565112 0.588891
O O7 0.744489 0.167220 0.301344
O O8 0.757840 0.963838 0.158981
O O9 0.915319 0.188847 0.802915
O O10 0.958352 0.391887 0.670098
O O11 0.434728 0.000000 0.500000
#
# Coordination Sequence:
#
# PCOD9317555 Si02
#       6
#     4   8   8   4   8   8
#     4   9  21  40  64  86 132 166 216 266 326 380
#     4  10  19  42  66  93 126 171 206 275 328 385
#     4  11  25  42  64  97 130 176 218 273 323 390
#     4  11  21  38  68  96 124 174 218 268 326 398
#     4  12  24  41  66  95 132 170 223 267 330 388
#     4   9  17  35  67  93 121 166 211 264 331 383
#
# _framework density 23.725538
#
# number of rings (size 3 to 8) (size 9 to 14) (size 15 to 20)
#    0.000    1.600    4.000    2.400    5.600    0.000 
#    3.600    0.000    0.000    0.000    0.000    0.000 
#    0.000    0.000    0.000    0.000    0.000    0.000 
#
# Total GULP energy -111744.626692 kJ/mol
# GULP energy per Si atom -5587.231335 kJ/mol
# Density = 2.367154 g / cm^3
# Si number density = 23.725538 Si / 1000 Ang^3
#
#
#
# Elastic Constant Matrix: (Units=GPa)
#
#
# Indices 1 2 3 4 5 6 
#
# 1 51.1197 2.9984 -4.5257 0.0000 0.0000 0.0000
# 2 2.9984 109.1787 17.1789 0.0000 0.0000 0.0000
# 3 -4.5257 17.1789 130.6575 0.0000 0.0000 0.0000
# 4 0.0000 0.0000 0.0000 28.2925 0.0000 0.0000
# 5 0.0000 0.0000 0.0000 0.0000 25.3791 0.0000
# 6 0.0000 0.0000 0.0000 0.0000 0.0000 21.2336
#
#
#
# Elastic Compliance Matrix: (Units=1/GPa)
#
#
# Indices 1 2 3 4 5 6 
#
# 1 0.019669 -0.000661 0.000768 0.000000 0.000000 0.000000
# 2 -0.000661 0.009375 -0.001256 0.000000 0.000000 0.000000
# 3 0.000768 -0.001256 0.007845 0.000000 0.000000 0.000000
# 4 0.000000 0.000000 0.000000 0.035345 0.000000 0.000000
# 5 0.000000 0.000000 0.000000 0.000000 0.039402 0.000000
# 6 0.000000 0.000000 0.000000 0.000000 0.000000 0.047095
#
#
# Mechanical properties :
#
#
# Convention : Reuss Voigt Hill
#
# Bulk Modulus (GPa) = 28.90819 35.80656 32.35738
# Shear Modulus (GPa) = 28.97558 33.33467 31.15513
#
# Velocity S-wave (km/s) = 3.49848 3.75242 3.62767
# Velocity P-wave (km/s) = 5.34135 5.82228 5.58699
#
# Compressibility (1/GPa) = 0.03459227
#
# Stress axis : x y z
#
# Youngs Moduli (GPa) = 50.84214 106.66662 127.46512
#
# Poissons Ratio (x) = 0.07051 -0.09792
# Poissons Ratio (y) = 0.03361 0.16004
# Poissons Ratio (z) = -0.03906 0.13392
#
# Static dielectric constant tensor:
#      x y z
#    x 1.987360 0.000000 0.000000 
#    y 0.000000 1.891890 0.000000 
#    z 0.000000 0.000000 1.865820 
# 
# From -- ./inp_files/20513.got.cif
#   From: 2010.05.17/outbox.cif.g08.bks.cpg/sg20_11_cif.got.tgz:20513.got - 2010.06.03 22:52:26.
