data_PCOD9317898
_publ_section_title
;
Structure prediction by ZEFSAII (Michael W. Deem and Ramdas Pophale) SiO2 
 PCOD9317898
Probable space group: C 2 2 21
;
_chemical_formula_sum "Si O2"
_cell_formula_units_Z 48
_cell_length_a 8.220178
_cell_length_b 20.281944
_cell_length_c 13.438137
_cell_angle_alpha 90.000000
_cell_angle_beta 90.000000
_cell_angle_gamma 90.000000
_cell_volume 2240.422190
_symmetry_space_group_name_H-M "C 2 2 21"
_symmetry_group_IT_number 20
_symmetry_cell_setting 'orthorhombic'
loop_
_space_group_symop_operation_xyz
x,y,z
-x,-y,1/2+z
x,-y,-z
-x,y,1/2-z
1/2+x,1/2+y,z
1/2-x,1/2-y,1/2+z
1/2+x,1/2-y,-z
1/2-x,1/2+y,1/2-z
loop_
_atom_site_type_symbol
_atom_site_label
_atom_site_fract_x
_atom_site_fract_y
_atom_site_fract_z
Si Si1 0.671899 0.250410 0.772051
Si Si2 0.149308 0.355565 0.380595
Si Si3 0.502718 0.379668 0.370592
Si Si4 0.368259 0.243552 0.048032
Si Si5 0.596940 0.853229 0.837082
Si Si6 0.171756 0.574218 0.969217
O O1 0.500000 0.282137 0.750000
O O2 0.667079 0.176109 0.729332
O O3 0.703249 0.246955 0.889628
O O4 0.804229 0.296342 0.719854
O O5 0.315529 0.396564 0.399764
O O6 0.158460 0.285627 0.440362
O O7 0.984871 0.393891 0.411534
O O8 0.500000 0.373669 0.250000
O O9 0.536193 0.309782 0.425669
O O10 0.658837 0.421630 0.407444
O O11 0.461174 0.183782 0.099640
O O12 0.500000 0.892727 0.750000
O O13 0.696309 0.889713 0.923247
O O14 0.131390 0.500000 0.000000
#
# Coordination Sequence:
#
# PCOD9317898 Si02
#       6
#     8   8   8   8   8   8
#     4  11  20  32  60  99 129 160 205 261 344 414
#     4  11  24  39  66  97 137 177 212 276 339 405
#     4  12  23  42  67 100 136 172 222 281 343 402
#     4  10  20  36  60  97 134 162 201 264 341 412
#     4   9  19  41  62  90 132 168 209 273 336 394
#     4  11  27  47  65  90 130 183 238 277 323 395
#
# _framework density 21.424534000000001
#
# number of rings (size 3 to 8) (size 9 to 14) (size 15 to 20)
#    0.000    1.333    3.333    2.500    7.000    0.667 
#    3.000    0.833    0.000    0.000    0.000    0.000 
#    0.000    0.000    0.000    0.000    0.000    0.000 
#
# Total GULP energy -133703.630045 kJ/mol
# GULP energy per Si atom -5570.984585 kJ/mol
# Density = 2.137577 g / cm^3
# Si number density = 21.424534 Si / 1000 Ang^3
#
#
#
# Elastic Constant Matrix: (Units=GPa)
#
#
# Indices 1 2 3 4 5 6 
#
# 1 140.4739 15.9046 44.8336 0.0000 0.0000 0.0000
# 2 15.9046 63.7214 30.8058 0.0000 0.0000 0.0000
# 3 44.8336 30.8058 75.3090 0.0000 0.0000 0.0000
# 4 0.0000 0.0000 0.0000 13.5655 0.0000 0.0000
# 5 0.0000 0.0000 0.0000 0.0000 38.0370 0.0000
# 6 0.0000 0.0000 0.0000 0.0000 0.0000 16.8257
#
#
#
# Elastic Compliance Matrix: (Units=1/GPa)
#
#
# Indices 1 2 3 4 5 6 
#
# 1 0.008798 0.000419 -0.005409 0.000000 0.000000 0.000000
# 2 0.000419 0.019582 -0.008260 0.000000 0.000000 0.000000
# 3 -0.005409 -0.008260 0.019877 0.000000 0.000000 0.000000
# 4 0.000000 0.000000 0.000000 0.073716 0.000000 0.000000
# 5 0.000000 0.000000 0.000000 0.000000 0.026290 0.000000
# 6 0.000000 0.000000 0.000000 0.000000 0.000000 0.059433
#
#
# Mechanical properties :
#
#
# Convention : Reuss Voigt Hill
#
# Bulk Modulus (GPa) = 45.96027 51.39915 48.67971
# Shear Modulus (GPa) = 20.70844 26.21632 23.46238
#
# Velocity S-wave (km/s) = 3.11235 3.50188 3.31285
# Velocity P-wave (km/s) = 5.86638 6.35561 6.11589
#
# Compressibility (1/GPa) = 0.02175792
#
# Stress axis : x y z
#
# Youngs Moduli (GPa) = 113.66712 51.06786 50.30853
#
# Poissons Ratio (x) = -0.02140 0.27211
# Poissons Ratio (y) = -0.04763 0.41553
# Poissons Ratio (z) = 0.61481 0.42180
#
# Static dielectric constant tensor:
#      x y z
#    x 1.886760 0.000000 0.000000 
#    y 0.000000 1.745650 0.000000 
#    z 0.000000 0.000000 1.914590 
# 
# From -- ./inp_files/19003.got.cif
#   From: 2010.05.17/outbox.cif.g08.bks.cpg/sg20_10_cif.got.tgz:19003.got - 2010.06.03 22:52:26.
