data_PCOD9317668
_publ_section_title
;
Structure prediction by ZEFSAII (Michael W. Deem and Ramdas Pophale) SiO2 
 PCOD9317668
Probable space group: C 2 2 21
;
_chemical_formula_sum "Si O2"
_cell_formula_units_Z 56
_cell_length_a 9.261072
_cell_length_b 10.662366
_cell_length_c 19.714219
_cell_angle_alpha 90.000000
_cell_angle_beta 90.000000
_cell_angle_gamma 90.000000
_cell_volume 1946.679357
_symmetry_space_group_name_H-M "C 2 2 21"
_symmetry_group_IT_number 20
_symmetry_cell_setting 'orthorhombic'
loop_
_space_group_symop_operation_xyz
x,y,z
-x,-y,1/2+z
x,-y,-z
-x,y,1/2-z
1/2+x,1/2+y,z
1/2-x,1/2-y,1/2+z
1/2+x,1/2-y,-z
1/2-x,1/2+y,1/2-z
loop_
_atom_site_type_symbol
_atom_site_label
_atom_site_fract_x
_atom_site_fract_y
_atom_site_fract_z
Si Si1 0.715722 0.464999 0.570390
Si Si2 0.489051 0.229047 0.964163
Si Si3 0.725136 0.000000 0.500000
Si Si4 0.534871 0.164492 0.674394
Si Si5 0.285110 0.923750 0.862995
Si Si6 0.000000 0.127803 0.750000
Si Si7 0.210592 0.909644 0.710956
Si Si8 0.493042 0.699884 0.896716
O O1 0.796113 0.500000 0.500000
O O2 0.617330 0.345164 0.552144
O O3 0.799645 0.436483 0.641390
O O4 0.605119 0.578195 0.587578
O O5 0.565098 0.192472 0.892113
O O6 0.575672 0.268205 0.032575
O O7 0.383606 0.112792 0.980554
O O8 0.808993 0.041147 0.430581
O O9 0.500000 0.118501 0.750000
O O10 0.603929 0.299656 0.688844
O O11 0.643461 0.057234 0.651719
O O12 0.252458 0.873156 0.787302
O O13 0.389992 0.818107 0.889304
O O14 0.943832 0.190244 0.680064
O O15 0.128249 0.038955 0.725631
#
# Coordination Sequence:
#
# PCOD9317668 Si02
#       8
#     8   8   4   8   8   4   8   8
#     4   8  15  29  51  74  97 136 181 214 252 320
#     4   8  15  31  53  76 101 145 181 210 262 326
#     4   8  16  34  52  78 106 142 182 220 260 326
#     4  10  20  35  54  77 108 140 180 219 268 326
#     4  10  21  34  57  78 106 144 180 220 270 321
#     4  10  20  34  52  80 112 136 176 228 266 318
#     4  10  20  34  52  78 108 141 176 223 270 316
#     4   9  18  32  54  78 104 137 183 219 263 316
#
# _framework density 28.766935
#
# number of rings (size 3 to 8) (size 9 to 14) (size 15 to 20)
#    0.000    2.857    0.714    0.000    5.000    0.000 
#    0.000    1.429    1.571    1.714    0.000    0.000 
#    0.000    0.000    0.000    0.000    0.000    0.000 
#
# Total GULP energy -156327.110587 kJ/mol
# GULP energy per Si atom -5583.111092 kJ/mol
# Density = 2.870146 g / cm^3
# Si number density = 28.766935 Si / 1000 Ang^3
#
#
#
# Elastic Constant Matrix: (Units=GPa)
#
#
# Indices 1 2 3 4 5 6 
#
# 1 63.0177 28.2536 40.3823 0.0000 0.0000 0.0000
# 2 28.2536 117.6618 73.1722 0.0000 0.0000 0.0000
# 3 40.3823 73.1722 363.3936 0.0000 0.0000 0.0000
# 4 0.0000 0.0000 0.0000 47.7149 0.0000 0.0000
# 5 0.0000 0.0000 0.0000 0.0000 35.9323 0.0000
# 6 0.0000 0.0000 0.0000 0.0000 0.0000 17.2716
#
#
#
# Elastic Compliance Matrix: (Units=1/GPa)
#
#
# Indices 1 2 3 4 5 6 
#
# 1 0.018316 -0.003581 -0.001314 0.000000 0.000000 0.000000
# 2 -0.003581 0.010416 -0.001699 0.000000 0.000000 0.000000
# 3 -0.001314 -0.001699 0.003240 0.000000 0.000000 0.000000
# 4 0.000000 0.000000 0.000000 0.020958 0.000000 0.000000
# 5 0.000000 0.000000 0.000000 0.000000 0.027830 0.000000
# 6 0.000000 0.000000 0.000000 0.000000 0.000000 0.057898
#
#
# Mechanical properties :
#
#
# Convention : Reuss Voigt Hill
#
# Bulk Modulus (GPa) = 53.24008 91.96548 72.60278
# Shear Modulus (GPa) = 31.62392 47.00144 39.31268
#
# Velocity S-wave (km/s) = 3.31919 4.04650 3.70076
# Velocity P-wave (km/s) = 5.76515 7.33967 6.59953
#
# Compressibility (1/GPa) = 0.01878284
#
# Stress axis : x y z
#
# Youngs Moduli (GPa) = 54.59636 96.01011 308.63498
#
# Poissons Ratio (x) = 0.34379 0.40566
# Poissons Ratio (y) = 0.19550 0.52448
# Poissons Ratio (z) = 0.07176 0.16315
#
# Static dielectric constant tensor:
#      x y z
#    x 2.335410 0.000000 0.000000 
#    y 0.000000 2.158280 0.000000 
#    z 0.000000 0.000000 2.700390 
# 
# From -- ./inp_files/25331.got.cif
#   From: 2010.05.17/outbox.cif.g08.bks.cpg/sg20_13_cif.got.tgz:25331.got - 2010.06.03 22:52:26.
