data_PCOD9317113
_publ_section_title
;
Structure prediction by ZEFSAII (Michael W. Deem and Ramdas Pophale) SiO2 
 PCOD9317113
Probable space group: C 2 2 21
;
_chemical_formula_sum "Si O2"
_cell_formula_units_Z 64
_cell_length_a 21.650296
_cell_length_b 8.540139
_cell_length_c 19.399379
_cell_angle_alpha 90.000000
_cell_angle_beta 90.000000
_cell_angle_gamma 90.000000
_cell_volume 3586.878002
_symmetry_space_group_name_H-M "C 2 2 21"
_symmetry_group_IT_number 20
_symmetry_cell_setting 'orthorhombic'
loop_
_space_group_symop_operation_xyz
x,y,z
-x,-y,1/2+z
x,-y,-z
-x,y,1/2-z
1/2+x,1/2+y,z
1/2-x,1/2-y,1/2+z
1/2+x,1/2-y,-z
1/2-x,1/2+y,1/2-z
loop_
_atom_site_type_symbol
_atom_site_label
_atom_site_fract_x
_atom_site_fract_y
_atom_site_fract_z
Si Si1 0.295591 0.042232 0.789686
Si Si2 0.907637 0.624838 0.278508
Si Si3 0.982464 0.390693 0.865685
Si Si4 0.001284 0.959544 0.423084
Si Si5 0.564311 0.477383 0.208823
Si Si6 0.320303 0.406903 0.783643
Si Si7 0.143790 0.054069 0.574822
Si Si8 0.139395 0.569059 0.426850
O O1 0.301685 0.227636 0.789260
O O2 0.344308 0.963134 0.736323
O O3 0.228020 0.990410 0.766772
O O4 0.317014 0.986141 0.865046
O O5 0.943206 0.632732 0.204862
O O6 0.902818 0.807729 0.297732
O O7 0.952521 0.547347 0.335942
O O8 0.996973 0.225661 0.903336
O O9 0.932287 0.481165 0.911736
O O10 0.073197 0.008720 0.417828
O O11 0.957286 0.035201 0.365832
O O12 0.981052 0.000000 0.500000
O O13 0.500000 0.455730 0.250000
O O14 0.611344 0.582079 0.251263
O O15 0.321041 0.490995 0.858201
O O16 0.140679 0.242231 0.574188
O O17 0.167484 0.000000 0.500000
O O18 0.158255 0.500000 0.500000
#
# Coordination Sequence:
#
# PCOD9317113 Si02
#       8
#     8   8   8   8   8   8   8   8
#     4  11  24  38  57  84 111 155 198 244 285 343
#     4   9  15  33  57  79 105 144 190 227 287 341
#     4   8  14  28  51  77 108 144 178 223 282 331
#     4   9  16  28  50  81 113 146 184 223 286 343
#     4  11  17  34  57  82 112 150 185 236 289 348
#     4  12  23  39  57  83 115 151 201 242 288 344
#     4  10  19  34  58  84 113 147 183 238 288 341
#     4  10  19  35  55  85 117 151 192 233 284 342
#
# _framework density 17.842815000000002
#
# number of rings (size 3 to 8) (size 9 to 14) (size 15 to 20)
#    0.000    2.000    3.750    3.750    0.000    0.000 
#    4.500    0.625    0.000    5.250    0.000    0.000 
#    0.000    0.000    0.000    0.000    0.000    0.000 
#
# Total GULP energy -178298.000705 kJ/mol
# GULP energy per Si atom -5571.812522 kJ/mol
# Density = 1.780220 g / cm^3
# Si number density = 17.842815 Si / 1000 Ang^3
#
#
#
# Elastic Constant Matrix: (Units=GPa)
#
#
# Indices 1 2 3 4 5 6 
#
# 1 71.7979 23.6295 43.7621 0.0000 0.0000 0.0000
# 2 23.6295 66.5730 32.3758 0.0000 0.0000 0.0000
# 3 43.7621 32.3758 127.6373 0.0000 0.0000 0.0000
# 4 0.0000 0.0000 0.0000 23.1070 0.0000 0.0000
# 5 0.0000 0.0000 0.0000 0.0000 25.4304 0.0000
# 6 0.0000 0.0000 0.0000 0.0000 0.0000 17.3528
#
#
#
# Elastic Compliance Matrix: (Units=1/GPa)
#
#
# Indices 1 2 3 4 5 6 
#
# 1 0.018483 -0.003968 -0.005331 0.000000 0.000000 0.000000
# 2 -0.003968 0.017987 -0.003202 0.000000 0.000000 0.000000
# 3 -0.005331 -0.003202 0.010475 0.000000 0.000000 0.000000
# 4 0.000000 0.000000 0.000000 0.043277 0.000000 0.000000
# 5 0.000000 0.000000 0.000000 0.000000 0.039323 0.000000
# 6 0.000000 0.000000 0.000000 0.000000 0.000000 0.057628
#
#
# Mechanical properties :
#
#
# Convention : Reuss Voigt Hill
#
# Bulk Modulus (GPa) = 45.57233 51.72700 48.64966
# Shear Modulus (GPa) = 22.78035 24.26075 23.52055
#
# Velocity S-wave (km/s) = 3.57700 3.69140 3.63465
# Velocity P-wave (km/s) = 6.53119 6.87182 6.70367
#
# Compressibility (1/GPa) = 0.02194314
#
# Stress axis : x y z
#
# Youngs Moduli (GPa) = 54.10370 55.59673 95.46942
#
# Poissons Ratio (x) = 0.22061 0.50891
# Poissons Ratio (y) = 0.21468 0.30569
# Poissons Ratio (z) = 0.28841 0.17802
#
# Static dielectric constant tensor:
#      x y z
#    x 1.624000 0.000000 0.000000 
#    y 0.000000 1.619980 0.000000 
#    z 0.000000 0.000000 1.630320 
# 
# From -- ./inp_files/25507.got.cif
#   From: 2010.05.17/outbox.cif.g08.bks.cpg/sg20_13_cif.got.tgz:25507.got - 2010.06.03 22:52:26.
