data_PCOD9317934
_publ_section_title
;
Structure prediction by ZEFSAII (Michael W. Deem and Ramdas Pophale) SiO2 
 PCOD9317934
Probable space group: C 2 2 21
;
_chemical_formula_sum "Si O2"
_cell_formula_units_Z 48
_cell_length_a 8.984475
_cell_length_b 16.850428
_cell_length_c 14.899473
_cell_angle_alpha 90.000000
_cell_angle_beta 90.000000
_cell_angle_gamma 90.000000
_cell_volume 2255.664728
_symmetry_space_group_name_H-M "C 2 2 21"
_symmetry_group_IT_number 20
_symmetry_cell_setting 'orthorhombic'
loop_
_space_group_symop_operation_xyz
x,y,z
-x,-y,1/2+z
x,-y,-z
-x,y,1/2-z
1/2+x,1/2+y,z
1/2-x,1/2-y,1/2+z
1/2+x,1/2-y,-z
1/2-x,1/2+y,1/2-z
loop_
_atom_site_type_symbol
_atom_site_label
_atom_site_fract_x
_atom_site_fract_y
_atom_site_fract_z
Si Si1 0.588560 0.217422 0.616560
Si Si2 0.330012 0.474234 0.230790
Si Si3 0.000000 0.291977 0.750000
Si Si4 0.175315 0.450109 0.419524
Si Si5 0.390355 0.000000 0.500000
Si Si6 0.738364 0.875120 0.878612
Si Si7 0.724962 0.190297 0.815950
O O1 0.658861 0.143739 0.562000
O O2 0.655539 0.302604 0.595020
O O3 0.649642 0.199726 0.717238
O O4 0.408856 0.216508 0.618429
O O5 0.500000 0.455551 0.250000
O O6 0.247779 0.470351 0.325870
O O7 0.314752 0.559605 0.185494
O O8 0.265081 0.401894 0.172554
O O9 0.097319 0.341556 0.822076
O O10 0.122179 0.240218 0.694152
O O11 0.248772 0.500000 0.500000
O O12 0.005172 0.480275 0.419712
O O13 0.303588 0.924346 0.533597
#
# Coordination Sequence:
#
# PCOD9317934 Si02
#       7
#     8   8   4   8   4   8   8
#     4   9  19  37  66  94 132 165 216 275 332 389
#     4  11  22  39  68 100 130 180 225 276 336 407
#     4  10  20  36  64 100 124 170 230 270 322 404
#     4   9  21  43  69  92 133 179 219 274 346 408
#     4  10  22  44  60  94 134 178 220 272 338 408
#     4  11  23  38  67  98 131 173 223 274 332 401
#     4   9  18  36  63  98 124 163 219 274 323 389
#
# _framework density 21.279757
#
# number of rings (size 3 to 8) (size 9 to 14) (size 15 to 20)
#    0.500    1.667    0.833    2.000    4.667    2.667 
#    1.500    5.000    3.667    0.000    0.000    0.000 
#    0.000    0.000    0.000    0.000    0.000    0.000 
#
# Total GULP energy -133889.677871 kJ/mol
# GULP energy per Si atom -5578.736578 kJ/mol
# Density = 2.123132 g / cm^3
# Si number density = 21.279757 Si / 1000 Ang^3
#
#
#
# Elastic Constant Matrix: (Units=GPa)
#
#
# Indices 1 2 3 4 5 6 
#
# 1 127.4632 66.4907 36.6828 0.0000 0.0000 0.0000
# 2 66.4907 171.9154 41.9945 0.0000 0.0000 0.0000
# 3 36.6828 41.9945 68.0178 0.0000 0.0000 0.0000
# 4 0.0000 0.0000 0.0000 31.6373 0.0000 0.0000
# 5 0.0000 0.0000 0.0000 0.0000 -116.9838 0.0000
# 6 0.0000 0.0000 0.0000 0.0000 0.0000 34.1034
#
#
#
# Elastic Compliance Matrix: (Units=1/GPa)
#
#
# Indices 1 2 3 4 5 6 
#
# 1 0.010581 -0.003178 -0.003744 0.000000 0.000000 0.000000
# 2 -0.003178 0.007804 -0.003105 0.000000 0.000000 0.000000
# 3 -0.003744 -0.003105 0.018638 0.000000 0.000000 0.000000
# 4 0.000000 0.000000 0.000000 0.031608 0.000000 0.000000
# 5 0.000000 0.000000 0.000000 0.000000 -0.008548 0.000000
# 6 0.000000 0.000000 0.000000 0.000000 0.000000 0.029323
#
#
# Mechanical properties :
#
#
# Convention : Reuss Voigt Hill
#
# Bulk Modulus (GPa) = 58.92810 73.08136 66.00473
# Shear Modulus (GPa) = 43.43472 4.56662 24.00067
#
# Velocity S-wave (km/s) = 4.52279 1.46651 3.36201
# Velocity P-wave (km/s) = 7.41797 6.10616 6.79380
#
# Compressibility (1/GPa) = 0.01696983
#
# Stress axis : x y z
#
# Youngs Moduli (GPa) = 94.51316 128.13701 53.65307
#
# Poissons Ratio (x) = 0.40716 0.20090
# Poissons Ratio (y) = 0.30032 0.16657
# Poissons Ratio (z) = 0.35389 0.39782
#
# Static dielectric constant tensor:
#      x y z
#    x 1.779650 0.000000 0.000000 
#    y 0.000000 1.800620 0.000000 
#    z 0.000000 0.000000 1.769880 
# 
# From -- ./inp_files/23531.got.cif
#   From: 2010.05.17/outbox.cif.g08.bks.cpg/sg20_12_cif.got.tgz:23531.got - 2010.06.03 22:52:26.
