data_PCOD9317241
_publ_section_title
;
Structure prediction by ZEFSAII (Michael W. Deem and Ramdas Pophale) SiO2 
 PCOD9317241
Probable space group: C 2 2 21
;
_chemical_formula_sum "Si O2"
_cell_formula_units_Z 48
_cell_length_a 21.469169
_cell_length_b 7.042427
_cell_length_c 14.107660
_cell_angle_alpha 90.000000
_cell_angle_beta 90.000000
_cell_angle_gamma 90.000000
_cell_volume 2133.008436
_symmetry_space_group_name_H-M "C 2 2 21"
_symmetry_group_IT_number 20
_symmetry_cell_setting 'orthorhombic'
loop_
_space_group_symop_operation_xyz
x,y,z
-x,-y,1/2+z
x,-y,-z
-x,y,1/2-z
1/2+x,1/2+y,z
1/2-x,1/2-y,1/2+z
1/2+x,1/2-y,-z
1/2-x,1/2+y,1/2-z
loop_
_atom_site_type_symbol
_atom_site_label
_atom_site_fract_x
_atom_site_fract_y
_atom_site_fract_z
Si Si1 0.247044 0.231145 0.418993
Si Si2 0.777687 0.678819 0.129936
Si Si3 0.334168 0.339299 0.759026
Si Si4 0.472778 0.888743 0.597474
Si Si5 0.403273 0.964645 0.794316
Si Si6 0.372906 0.385088 0.405317
O O1 0.225462 0.227034 0.527030
O O2 0.235873 0.451680 0.387017
O O3 0.205934 0.100080 0.350465
O O4 0.321551 0.214849 0.406943
O O5 0.720303 0.749775 0.193183
O O6 0.843794 0.667906 0.182902
O O7 0.365768 0.490896 0.689670
O O8 0.381530 0.182857 0.797882
O O9 0.432964 0.949187 0.690020
O O10 0.543743 0.911197 0.629960
O O11 0.443592 0.681820 0.582725
O O12 0.461808 0.000000 0.500000
O O13 0.355811 0.500000 0.500000
#
# Coordination Sequence:
#
# PCOD9317241 Si02
#       6
#     8   8   8   8   8   8
#     4   9  17  31  62  99 131 168 204 277 356 408
#     4   9  17  34  61  97 135 161 205 280 352 408
#     4  10  19  35  69 100 128 171 220 282 351 408
#     4  11  25  41  65  91 134 189 231 275 326 413
#     4  10  23  42  63  96 132 173 228 278 341 415
#     4  11  20  40  65  98 140 178 230 282 341 413
#
# _framework density 22.503429000000001
#
# number of rings (size 3 to 8) (size 9 to 14) (size 15 to 20)
#    0.000    2.000    3.333    2.000    4.667    0.000 
#    0.000    6.667    0.000    0.000    0.000    0.000 
#    0.000    0.000    0.000    0.000    0.000    0.000 
#
# Total GULP energy -133986.196038 kJ/mol
# GULP energy per Si atom -5582.758168 kJ/mol
# Density = 2.245221 g / cm^3
# Si number density = 22.503429 Si / 1000 Ang^3
#
#
#
# Elastic Constant Matrix: (Units=GPa)
#
#
# Indices 1 2 3 4 5 6 
#
# 1 134.9179 38.7667 42.1374 0.0000 0.0000 0.0000
# 2 38.7667 54.8946 36.8596 0.0000 0.0000 0.0000
# 3 42.1374 36.8596 148.7518 0.0000 0.0000 0.0000
# 4 0.0000 0.0000 0.0000 46.1043 0.0000 0.0000
# 5 0.0000 0.0000 0.0000 0.0000 32.0485 0.0000
# 6 0.0000 0.0000 0.0000 0.0000 0.0000 27.6733
#
#
#
# Elastic Compliance Matrix: (Units=1/GPa)
#
#
# Indices 1 2 3 4 5 6 
#
# 1 0.009483 -0.005870 -0.001232 0.000000 0.000000 0.000000
# 2 -0.005870 0.025486 -0.004652 0.000000 0.000000 0.000000
# 3 -0.001232 -0.004652 0.008224 0.000000 0.000000 0.000000
# 4 0.000000 0.000000 0.000000 0.021690 0.000000 0.000000
# 5 0.000000 0.000000 0.000000 0.000000 0.031203 0.000000
# 6 0.000000 0.000000 0.000000 0.000000 0.000000 0.036136
#
#
# Mechanical properties :
#
#
# Convention : Reuss Voigt Hill
#
# Bulk Modulus (GPa) = 50.79955 63.78796 57.29375
# Shear Modulus (GPa) = 30.80856 35.88526 33.34691
#
# Velocity S-wave (km/s) = 3.70410 3.99765 3.85367
# Velocity P-wave (km/s) = 6.39663 7.05093 6.73174
#
# Compressibility (1/GPa) = 0.01968521
#
# Stress axis : x y z
#
# Youngs Moduli (GPa) = 105.44856 39.23715 121.58963
#
# Poissons Ratio (x) = 0.23032 0.14978
# Poissons Ratio (y) = 0.61898 0.56569
# Poissons Ratio (z) = 0.12989 0.18255
#
# Static dielectric constant tensor:
#      x y z
#    x 1.846420 0.000000 0.000000 
#    y 0.000000 1.964830 0.000000 
#    z 0.000000 0.000000 1.854710 
# 
# From -- ./inp_files/21661.got.cif
#   From: 2010.05.17/outbox.cif.g08.bks.cpg/sg20_11_cif.got.tgz:21661.got - 2010.06.03 22:52:26.
