data_PCOD9317868
_publ_section_title
;
Structure prediction by ZEFSAII (Michael W. Deem and Ramdas Pophale) SiO2 
 PCOD9317868
Probable space group: C 2 2 21
;
_chemical_formula_sum "Si O2"
_cell_formula_units_Z 48
_cell_length_a 17.994076
_cell_length_b 8.453687
_cell_length_c 15.333938
_cell_angle_alpha 90.000000
_cell_angle_beta 90.000000
_cell_angle_gamma 90.000000
_cell_volume 2332.541704
_symmetry_space_group_name_H-M "C 2 2 21"
_symmetry_group_IT_number 20
_symmetry_cell_setting 'orthorhombic'
loop_
_space_group_symop_operation_xyz
x,y,z
-x,-y,1/2+z
x,-y,-z
-x,y,1/2-z
1/2+x,1/2+y,z
1/2-x,1/2-y,1/2+z
1/2+x,1/2-y,-z
1/2-x,1/2+y,1/2-z
loop_
_atom_site_type_symbol
_atom_site_label
_atom_site_fract_x
_atom_site_fract_y
_atom_site_fract_z
Si Si1 0.325257 0.943880 0.739598
Si Si2 0.558799 0.085934 0.092976
Si Si3 0.534444 0.624258 0.345434
Si Si4 0.901120 0.449995 0.095912
Si Si5 0.107678 0.050283 0.911127
Si Si6 0.330297 0.570232 0.773714
O O1 0.390377 0.981273 0.670643
O O2 0.326904 0.759770 0.767570
O O3 0.340927 0.037397 0.828421
O O4 0.247208 0.994191 0.698057
O O5 0.583857 0.267061 0.086336
O O6 0.472048 0.063685 0.115942
O O7 0.569759 0.000000 0.000000
O O8 0.500000 0.668827 0.250000
O O9 0.565866 0.774144 0.396844
O O10 0.467596 0.548816 0.399197
O O11 0.599795 0.497623 0.327019
O O12 0.874879 0.500000 0.000000
O O13 0.155929 0.017591 0.826081
O O14 0.146113 0.000000 0.000000
#
# Coordination Sequence:
#
# PCOD9317868 Si02
#       6
#     8   8   8   8   8   8
#     4  11  22  40  58  81 118 154 189 238 286 342
#     4  10  21  37  59  87 113 147 190 233 286 339
#     4  10  20  37  59  84 112 149 191 235 286 340
#     4  11  22  36  59  87 115 149 191 236 284 338
#     4  10  20  36  59  85 114 145 186 237 283 338
#     4  10  23  38  58  82 113 154 192 231 290 343
#
# _framework density 20.578410999999999
#
# number of rings (size 3 to 8) (size 9 to 14) (size 15 to 20)
#    0.000    1.667    0.000    5.500    0.000    7.333 
#    0.000    4.167    0.000    0.000    0.000    0.000 
#    0.000    0.000    0.000    0.000    0.000    0.000 
#
# Total GULP energy -134117.569435 kJ/mol
# GULP energy per Si atom -5588.232060 kJ/mol
# Density = 2.053157 g / cm^3
# Si number density = 20.578411 Si / 1000 Ang^3
#
#
#
# Elastic Constant Matrix: (Units=GPa)
#
#
# Indices 1 2 3 4 5 6 
#
# 1 44.6109 -12.0812 -4.0357 0.0000 0.0000 0.0000
# 2 -12.0812 40.9222 -3.1177 0.0000 0.0000 0.0000
# 3 -4.0357 -3.1177 62.0885 0.0000 0.0000 0.0000
# 4 0.0000 0.0000 0.0000 27.6278 0.0000 0.0000
# 5 0.0000 0.0000 0.0000 0.0000 11.2877 0.0000
# 6 0.0000 0.0000 0.0000 0.0000 0.0000 19.6897
#
#
#
# Elastic Compliance Matrix: (Units=1/GPa)
#
#
# Indices 1 2 3 4 5 6 
#
# 1 0.024602 0.007413 0.001971 0.000000 0.000000 0.000000
# 2 0.007413 0.026764 0.001826 0.000000 0.000000 0.000000
# 3 0.001971 0.001826 0.016326 0.000000 0.000000 0.000000
# 4 0.000000 0.000000 0.000000 0.036195 0.000000 0.000000
# 5 0.000000 0.000000 0.000000 0.000000 0.088592 0.000000
# 6 0.000000 0.000000 0.000000 0.000000 0.000000 0.050788
#
#
# Mechanical properties :
#
#
# Convention : Reuss Voigt Hill
#
# Bulk Modulus (GPa) = 11.09718 12.12805 11.61261
# Shear Modulus (GPa) = 19.92953 22.84481 21.38717
#
# Velocity S-wave (km/s) = 3.11540 3.33548 3.22732
# Velocity P-wave (km/s) = 4.28314 4.55415 4.42072
#
# Compressibility (1/GPa) = 0.09011299
#
# Stress axis : x y z
#
# Youngs Moduli (GPa) = 40.64714 37.36323 61.25252
#
# Poissons Ratio (x) = -0.27698 -0.12075
# Poissons Ratio (y) = -0.30133 -0.11184
# Poissons Ratio (z) = -0.08013 -0.06822
#
# Static dielectric constant tensor:
#      x y z
#    x 1.716060 0.000000 0.000000 
#    y 0.000000 1.723220 0.000000 
#    z 0.000000 0.000000 1.727140 
# 
# From -- ./inp_files/18882.got.cif
#   From: 2010.05.17/outbox.cif.g08.bks.cpg/sg20_10_cif.got.tgz:18882.got - 2010.06.03 22:52:26.
