data_PCOD9317397
_publ_section_title
;
Structure prediction by ZEFSAII (Michael W. Deem and Ramdas Pophale) SiO2 
 PCOD9317397
Probable space group: C 2 2 21
;
_chemical_formula_sum "Si O2"
_cell_formula_units_Z 64
_cell_length_a 19.940278
_cell_length_b 17.086762
_cell_length_c 8.475824
_cell_angle_alpha 90.000000
_cell_angle_beta 90.000000
_cell_angle_gamma 90.000000
_cell_volume 2887.838547
_symmetry_space_group_name_H-M "C 2 2 21"
_symmetry_group_IT_number 20
_symmetry_cell_setting 'orthorhombic'
loop_
_space_group_symop_operation_xyz
x,y,z
-x,-y,1/2+z
x,-y,-z
-x,y,1/2-z
1/2+x,1/2+y,z
1/2-x,1/2-y,1/2+z
1/2+x,1/2-y,-z
1/2-x,1/2+y,1/2-z
loop_
_atom_site_type_symbol
_atom_site_label
_atom_site_fract_x
_atom_site_fract_y
_atom_site_fract_z
Si Si1 0.457524 0.662488 0.411597
Si Si2 0.823853 0.332133 0.761497
Si Si3 0.945276 0.440699 0.866834
Si Si4 0.317934 0.832646 0.389257
Si Si5 0.460278 0.158155 0.588337
Si Si6 0.824033 0.159124 0.261467
Si Si7 0.949575 0.940420 0.129852
Si Si8 0.670675 0.342917 0.387701
O O1 0.500000 0.664930 0.250000
O O2 0.447172 0.752373 0.463275
O O3 0.385072 0.627554 0.366390
O O4 0.500951 0.619416 0.541442
O O5 0.884424 0.392504 0.789331
O O6 0.813818 0.313761 0.575913
O O7 0.750846 0.365760 0.810162
O O8 0.835902 0.249396 0.848776
O O9 0.000000 0.480576 0.750000
O O10 0.919611 0.500000 0.000000
O O11 0.994104 0.381003 0.958177
O O12 0.387368 0.879529 0.377254
O O13 0.324444 0.753427 0.288103
O O14 0.246321 0.868768 0.345274
O O15 0.500000 0.161098 0.750000
O O16 0.837462 0.145468 0.076429
O O17 0.886942 0.892587 0.196283
O O18 0.000000 0.982421 0.250000
O O19 0.923562 0.000000 0.000000
#
# Coordination Sequence:
#
# PCOD9317397 Si02
#       8
#     8   8   8   8   8   8   8   8
#     4  10  19  37  64  93 119 154 198 246 306 365
#     4  10  21  38  64  94 123 156 203 252 302 361
#     4  12  25  42  59  85 123 166 207 256 301 355
#     4   9  19  37  63  96 127 151 196 247 308 358
#     4  10  21  37  64  94 120 158 201 248 305 366
#     4   9  19  36  64  94 128 152 192 248 310 359
#     4  12  27  42  60  86 121 165 209 254 303 357
#     4  10  21  39  66  93 124 158 198 249 307 367
#
# _framework density 22.161902999999999
#
# number of rings (size 3 to 8) (size 9 to 14) (size 15 to 20)
#    0.000    1.750    2.500    1.500    7.000    1.000 
#    0.000    1.250    2.750    0.000    0.000    0.000 
#    0.000    0.000    0.000    0.000    0.000    0.000 
#
# Total GULP energy -178691.506515 kJ/mol
# GULP energy per Si atom -5584.109579 kJ/mol
# Density = 2.211146 g / cm^3
# Si number density = 22.161903 Si / 1000 Ang^3
#
#
#
# Elastic Constant Matrix: (Units=GPa)
#
#
# Indices 1 2 3 4 5 6 
#
# 1 167.1486 22.5926 6.7621 0.0000 0.0000 0.0000
# 2 22.5926 41.8766 0.6682 0.0000 0.0000 0.0000
# 3 6.7621 0.6682 25.3291 0.0000 0.0000 0.0000
# 4 0.0000 0.0000 0.0000 12.2025 0.0000 0.0000
# 5 0.0000 0.0000 0.0000 0.0000 27.7388 0.0000
# 6 0.0000 0.0000 0.0000 0.0000 0.0000 0.0289
#
#
#
# Elastic Compliance Matrix: (Units=1/GPa)
#
#
# Indices 1 2 3 4 5 6 
#
# 1 0.006521 -0.003492 -0.001649 0.000000 0.000000 0.000000
# 2 -0.003492 0.025760 0.000253 0.000000 0.000000 0.000000
# 3 -0.001649 0.000253 0.039914 0.000000 0.000000 0.000000
# 4 0.000000 0.000000 0.000000 0.081951 0.000000 0.000000
# 5 0.000000 0.000000 0.000000 0.000000 0.036051 0.000000
# 6 0.000000 0.000000 0.000000 0.000000 0.000000 34.561788
#
#
# Mechanical properties :
#
#
# Convention : Reuss Voigt Hill
#
# Bulk Modulus (GPa) = 16.02089 32.71112 24.36600
# Shear Modulus (GPa) = 0.14375 21.61614 10.87994
#
# Velocity S-wave (km/s) = 0.25496 3.12649 2.21810
# Velocity P-wave (km/s) = 2.70765 5.27497 4.19266
#
# Compressibility (1/GPa) = 0.06241852
#
# Stress axis : x y z
#
# Youngs Moduli (GPa) = 153.34114 38.82046 25.05394
#
# Poissons Ratio (x) = 0.13556 0.04131
# Poissons Ratio (y) = 0.53547 -0.00633
# Poissons Ratio (z) = 0.25285 -0.00981
#
# Static dielectric constant tensor:
#      x y z
#    x 1.854890 0.000000 0.000000 
#    y 0.000000 1.801230 0.000000 
#    z 0.000000 0.000000 2.024170 
# 
# From -- ./inp_files/10332.got.cif
#   From: 2010.05.17/outbox.cif.g08.bks.cpg/sg20_6_cif.got.tgz:10332.got - 2010.06.03 22:52:26.
