data_PCOD9317022
_publ_section_title
;
Structure prediction by ZEFSAII (Michael W. Deem and Ramdas Pophale) SiO2 
 PCOD9317022
Probable space group: C 2 2 21
;
_chemical_formula_sum "Si O2"
_cell_formula_units_Z 64
_cell_length_a 8.343857
_cell_length_b 19.012752
_cell_length_c 21.202162
_cell_angle_alpha 90.000000
_cell_angle_beta 90.000000
_cell_angle_gamma 90.000000
_cell_volume 3363.504277
_symmetry_space_group_name_H-M "C 2 2 21"
_symmetry_group_IT_number 20
_symmetry_cell_setting 'orthorhombic'
loop_
_space_group_symop_operation_xyz
x,y,z
-x,-y,1/2+z
x,-y,-z
-x,y,1/2-z
1/2+x,1/2+y,z
1/2-x,1/2-y,1/2+z
1/2+x,1/2-y,-z
1/2-x,1/2+y,1/2-z
loop_
_atom_site_type_symbol
_atom_site_label
_atom_site_fract_x
_atom_site_fract_y
_atom_site_fract_z
Si Si1 0.941923 0.204430 0.819464
Si Si2 0.058027 0.955026 0.180604
Si Si3 0.445891 0.544774 0.439221
Si Si4 0.056077 0.793646 0.939616
Si Si5 0.943922 0.706354 0.060384
Si Si6 0.058027 0.544974 0.680604
Si Si7 0.941923 0.295570 0.319464
Si Si8 0.554110 0.955226 0.560778
O O1 0.998141 0.255054 0.875556
O O2 0.750000 0.203907 0.818992
O O3 0.000000 0.226153 0.750000
O O4 0.000237 0.124720 0.830764
O O5 0.250000 0.954323 0.180781
O O6 0.000000 0.976692 0.250000
O O7 0.002237 0.006068 0.124808
O O8 0.497218 0.500000 0.500000
O O9 0.498864 0.625541 0.442575
O O10 0.250000 0.545001 0.439224
O O11 0.249999 0.794066 0.939312
O O12 0.001858 0.755054 0.875555
O O13 0.999999 0.750000 1.000000
O O14 0.998863 0.625541 0.057425
O O15 0.002237 0.493932 0.624808
O O16 0.000000 0.523308 0.750000
O O17 0.000235 0.624719 0.669235
O O18 0.000000 0.273848 0.250000
O O19 0.502783 0.000000 0.500000
#
# Coordination Sequence:
#
# PCOD9317022 Si02
#       8
#     8   8   8   8   8   8   8   8
#     4  10  20  34  53  77 106 137 171 211 254 306
#     4  10  19  33  55  78 103 136 171 210 255 304
#     4   9  18  33  53  75 100 133 171 208 250 303
#     4  10  21  36  54  78 105 135 174 216 259 308
#     4  10  21  36  54  78 105 135 174 216 259 308
#     4  10  19  33  55  78 103 136 171 210 255 304
#     4  10  20  34  53  77 106 137 171 211 254 306
#     4   9  18  33  53  75 100 133 171 208 250 303
#
# _framework density 19.027774000000001
#
# number of rings (size 3 to 8) (size 9 to 14) (size 15 to 20)
#    0.000    2.250    0.000    4.500    0.000    5.000 
#    0.000    2.500    0.000    6.750    0.000    0.000 
#    0.000    0.000    0.000    0.000    0.000    0.000 
#
# Total GULP energy -178685.663448 kJ/mol
# GULP energy per Si atom -5583.926983 kJ/mol
# Density = 1.898447 g / cm^3
# Si number density = 19.027774 Si / 1000 Ang^3
#
#
#
# Elastic Constant Matrix: (Units=GPa)
#
#
# Indices 1 2 3 4 5 6 
#
# 1 25.3379 18.9276 23.5927 0.0000 0.0000 0.0000
# 2 18.9276 167.6983 152.3596 0.0000 0.0000 0.0000
# 3 23.5927 152.3596 211.2133 0.0000 0.0000 0.0000
# 4 0.0000 0.0000 0.0000 44.0822 0.0000 0.0000
# 5 0.0000 0.0000 0.0000 0.0000 19.5908 0.0000
# 6 0.0000 0.0000 0.0000 0.0000 0.0000 6.9386
#
#
#
# Elastic Compliance Matrix: (Units=1/GPa)
#
#
# Indices 1 2 3 4 5 6 
#
# 1 0.044171 -0.001459 -0.003881 0.000000 0.000000 0.000000
# 2 -0.001459 0.017351 -0.012353 0.000000 0.000000 0.000000
# 3 -0.003881 -0.012353 0.014079 0.000000 0.000000 0.000000
# 4 0.000000 0.000000 0.000000 0.022685 0.000000 0.000000
# 5 0.000000 0.000000 0.000000 0.000000 0.051044 0.000000
# 6 0.000000 0.000000 0.000000 0.000000 0.000000 0.144120
#
#
# Mechanical properties :
#
#
# Convention : Reuss Voigt Hill
#
# Bulk Modulus (GPa) = 24.86734 88.22326 56.54530
# Shear Modulus (GPa) = 14.60950 28.08030 21.34490
#
# Velocity S-wave (km/s) = 2.77392 3.84572 3.35293
# Velocity P-wave (km/s) = 4.83290 8.13545 6.69113
#
# Compressibility (1/GPa) = 0.04021338
#
# Stress axis : x y z
#
# Youngs Moduli (GPa) = 22.63954 57.63258 71.02612
#
# Poissons Ratio (x) = 0.08409 0.27568
# Poissons Ratio (y) = 0.03303 0.87742
# Poissons Ratio (z) = 0.08787 0.71196
#
# Static dielectric constant tensor:
#      x y z
#    x 1.660510 0.000000 0.000000 
#    y 0.000000 1.636690 0.000000 
#    z 0.000000 0.000000 1.647680 
# 
# From -- ./inp_files/26881.got.cif
#   From: 2010.05.17/outbox.cif.g08.bks.cpg/sg20_14_cif.got.tgz:26881.got - 2010.06.03 22:52:26.
