data_PCOD9317158
_publ_section_title
;
Structure prediction by ZEFSAII (Michael W. Deem and Ramdas Pophale) SiO2 
 PCOD9317158
Probable space group: C 2 2 21
;
_chemical_formula_sum "Si O2"
_cell_formula_units_Z 52
_cell_length_a 24.175984
_cell_length_b 17.861333
_cell_length_c 6.345874
_cell_angle_alpha 90.000000
_cell_angle_beta 90.000000
_cell_angle_gamma 90.000000
_cell_volume 2740.245490
_symmetry_space_group_name_H-M "C 2 2 21"
_symmetry_group_IT_number 20
_symmetry_cell_setting 'orthorhombic'
loop_
_space_group_symop_operation_xyz
x,y,z
-x,-y,1/2+z
x,-y,-z
-x,y,1/2-z
1/2+x,1/2+y,z
1/2-x,1/2-y,1/2+z
1/2+x,1/2-y,-z
1/2-x,1/2+y,1/2-z
loop_
_atom_site_type_symbol
_atom_site_label
_atom_site_fract_x
_atom_site_fract_y
_atom_site_fract_z
Si Si1 0.000000 0.330658 0.250000
Si Si2 0.447215 0.068688 0.116927
Si Si3 0.727742 0.314149 0.692328
Si Si4 0.828581 0.209345 0.807073
Si Si5 0.099748 0.680196 0.032277
Si Si6 0.195550 0.419013 0.100280
Si Si7 0.708922 0.420097 0.081330
O O1 0.030728 0.379481 0.428659
O O2 0.951732 0.292902 0.390466
O O3 0.500000 0.037532 0.250000
O O4 0.416395 0.118621 0.289322
O O5 0.417105 0.000000 0.000000
O O6 0.768703 0.246210 0.747753
O O7 0.675182 0.285449 0.559427
O O8 0.763717 0.373512 0.557213
O O9 0.710824 0.359910 0.895703
O O10 0.871948 0.254635 0.668854
O O11 0.829059 0.121820 0.751374
O O12 0.142756 0.634817 0.885543
O O13 0.230613 0.429529 0.312863
O O14 0.182333 0.500000 0.000000
O O15 0.689906 0.500000 0.000000
#
# Coordination Sequence:
#
# PCOD9317158 Si02
#       7
#     4   8   8   8   8   8   8
#     4  10  22  40  58  76 118 148 204 256 306 346
#     4  10  20  36  55  75 107 152 196 248 304 347
#     4  10  19  35  53  74 112 153 193 245 283 347
#     4  10  21  36  54  80 113 152 202 240 298 357
#     4  10  24  37  55  84 112 162 204 251 301 358
#     4  10  21  34  49  80 115 151 207 239 287 350
#     4  11  21  36  58  81 118 159 192 245 298 349
#
# _framework density 18.976403000000001
#
# number of rings (size 3 to 8) (size 9 to 14) (size 15 to 20)
#    0.000    1.846    3.846    0.000    2.154    3.692 
#    0.000    0.000    0.000    0.000    0.000    0.000 
#    6.923    0.000    0.000    0.000    0.000    0.000 
#
# Total GULP energy -144961.343887 kJ/mol
# GULP energy per Si atom -5575.436303 kJ/mol
# Density = 1.893321 g / cm^3
# Si number density = 18.976403 Si / 1000 Ang^3
#
#
#
# Elastic Constant Matrix: (Units=GPa)
#
#
# Indices 1 2 3 4 5 6 
#
# 1 52.3321 14.9838 18.6399 0.0000 0.0000 0.0000
# 2 14.9838 81.5159 15.9755 0.0000 0.0000 0.0000
# 3 18.6399 15.9755 82.2147 0.0000 0.0000 0.0000
# 4 0.0000 0.0000 0.0000 29.7082 0.0000 0.0000
# 5 0.0000 0.0000 0.0000 0.0000 30.4674 0.0000
# 6 0.0000 0.0000 0.0000 0.0000 0.0000 16.4756
#
#
#
# Elastic Compliance Matrix: (Units=1/GPa)
#
#
# Indices 1 2 3 4 5 6 
#
# 1 0.021524 -0.003119 -0.004274 0.000000 0.000000 0.000000
# 2 -0.003119 0.013205 -0.001859 0.000000 0.000000 0.000000
# 3 -0.004274 -0.001859 0.013493 0.000000 0.000000 0.000000
# 4 0.000000 0.000000 0.000000 0.033661 0.000000 0.000000
# 5 0.000000 0.000000 0.000000 0.000000 0.032822 0.000000
# 6 0.000000 0.000000 0.000000 0.000000 0.000000 0.060696
#
#
# Mechanical properties :
#
#
# Convention : Reuss Voigt Hill
#
# Bulk Modulus (GPa) = 33.64804 35.02901 34.33853
# Shear Modulus (GPa) = 24.53256 26.42781 25.48019
#
# Velocity S-wave (km/s) = 3.59944 3.73589 3.66830
# Velocity P-wave (km/s) = 5.91985 6.09168 6.00638
#
# Compressibility (1/GPa) = 0.02971941
#
# Stress axis : x y z
#
# Youngs Moduli (GPa) = 46.45976 75.72813 74.10994
#
# Poissons Ratio (x) = 0.23618 0.31674
# Poissons Ratio (y) = 0.14490 0.13776
# Poissons Ratio (z) = 0.19857 0.14077
#
# Static dielectric constant tensor:
#      x y z
#    x 1.686230 0.000000 0.000000 
#    y 0.000000 1.661160 0.000000 
#    z 0.000000 0.000000 1.736990 
# 
# From -- ./inp_files/4285.got.cif
#   From: 2010.05.17/outbox.cif.g08.bks.cpg/sg20_3_cif.got.tgz:4285.got - 2010.06.03 22:52:26.
