data_PCOD9317766
_publ_section_title
;
Structure prediction by ZEFSAII (Michael W. Deem and Ramdas Pophale) SiO2 
 PCOD9317766
Probable space group: C 2 2 21
;
_chemical_formula_sum "Si O2"
_cell_formula_units_Z 52
_cell_length_a 13.989902
_cell_length_b 11.351582
_cell_length_c 18.501523
_cell_angle_alpha 90.000000
_cell_angle_beta 90.000000
_cell_angle_gamma 90.000000
_cell_volume 2938.180979
_symmetry_space_group_name_H-M "C 2 2 21"
_symmetry_group_IT_number 20
_symmetry_cell_setting 'orthorhombic'
loop_
_space_group_symop_operation_xyz
x,y,z
-x,-y,1/2+z
x,-y,-z
-x,y,1/2-z
1/2+x,1/2+y,z
1/2-x,1/2-y,1/2+z
1/2+x,1/2-y,-z
1/2-x,1/2+y,1/2-z
loop_
_atom_site_type_symbol
_atom_site_label
_atom_site_fract_x
_atom_site_fract_y
_atom_site_fract_z
Si Si1 0.003084 0.378932 0.410370
Si Si2 0.981651 0.349858 0.920062
Si Si3 0.000000 0.026552 0.250000
Si Si4 0.888768 0.838972 0.176041
Si Si5 0.343674 0.184560 0.317627
Si Si6 0.629749 0.731366 0.301155
Si Si7 0.823264 0.418438 0.321364
O O1 0.040468 0.513631 0.399823
O O2 0.015013 0.345253 0.493703
O O3 0.891878 0.390130 0.388638
O O4 0.055666 0.285499 0.358646
O O5 0.083039 0.313686 0.884066
O O6 0.909473 0.257958 0.884264
O O7 0.973396 0.935201 0.185525
O O8 0.911629 0.117166 0.241061
O O9 0.876657 0.769236 0.252461
O O10 0.788160 0.902596 0.162004
O O11 0.233433 0.209950 0.336260
O O12 0.344795 0.048934 0.292955
O O13 0.647245 0.828550 0.240520
#
# Coordination Sequence:
#
# PCOD9317766 Si02
#       7
#     8   8   4   8   8   8   8
#     4  10  21  38  57  79 111 146 185 228 273 331
#     4  10  21  38  57  79 111 146 185 228 273 331
#     4  12  20  36  56  88 114 144 182 238 274 346
#     4  11  21  35  58  83 116 142 186 232 281 329
#     4  10  20  35  58  83 106 147 189 233 276 326
#     4  11  21  35  58  83 116 142 186 232 281 329
#     4  10  20  35  58  83 106 147 189 233 276 326
#
# _framework density 17.698024
#
# number of rings (size 3 to 8) (size 9 to 14) (size 15 to 20)
#    0.000    1.538    4.615    0.923    0.000    3.692 
#    0.000    0.769    0.000    0.000    0.000    0.000 
#    0.000    0.000    0.000    0.000    0.000    0.000 
#
# Total GULP energy -144814.339115 kJ/mol
# GULP energy per Si atom -5569.782274 kJ/mol
# Density = 1.765774 g / cm^3
# Si number density = 17.698024 Si / 1000 Ang^3
#
#
#
# Elastic Constant Matrix: (Units=GPa)
#
#
# Indices 1 2 3 4 5 6 
#
# 1 63.3922 27.0545 17.6399 0.0000 0.0000 0.0000
# 2 27.0545 81.3223 20.1284 0.0000 0.0000 0.0000
# 3 17.6399 20.1284 48.6656 0.0000 0.0000 0.0000
# 4 0.0000 0.0000 0.0000 21.1544 0.0000 0.0000
# 5 0.0000 0.0000 0.0000 0.0000 13.4140 0.0000
# 6 0.0000 0.0000 0.0000 0.0000 0.0000 32.4987
#
#
#
# Elastic Compliance Matrix: (Units=1/GPa)
#
#
# Indices 1 2 3 4 5 6 
#
# 1 0.019361 -0.005241 -0.004850 0.000000 0.000000 0.000000
# 2 -0.005241 0.015118 -0.004353 0.000000 0.000000 0.000000
# 3 -0.004850 -0.004353 0.024107 0.000000 0.000000 0.000000
# 4 0.000000 0.000000 0.000000 0.047272 0.000000 0.000000
# 5 0.000000 0.000000 0.000000 0.000000 0.074549 0.000000
# 6 0.000000 0.000000 0.000000 0.000000 0.000000 0.030771
#
#
# Mechanical properties :
#
#
# Convention : Reuss Voigt Hill
#
# Bulk Modulus (GPa) = 33.67278 35.89174 34.78226
# Shear Modulus (GPa) = 20.00287 21.98390 20.99338
#
# Velocity S-wave (km/s) = 3.36554 3.52826 3.44786
# Velocity P-wave (km/s) = 5.84552 6.07637 5.96206
#
# Compressibility (1/GPa) = 0.02969758
#
# Stress axis : x y z
#
# Youngs Moduli (GPa) = 51.65008 66.14775 41.48177
#
# Poissons Ratio (x) = 0.34665 0.20120
# Poissons Ratio (y) = 0.27068 0.18058
# Poissons Ratio (z) = 0.25052 0.28795
#
# Static dielectric constant tensor:
#      x y z
#    x 1.638290 0.000000 0.000000 
#    y 0.000000 1.619770 0.000000 
#    z 0.000000 0.000000 1.561860 
# 
# From -- ./inp_files/24913.got.cif
#   From: 2010.05.17/outbox.cif.g08.bks.cpg/sg20_13_cif.got.tgz:24913.got - 2010.06.03 22:52:26.
