data_PCOD9317965
_publ_section_title
;
Structure prediction by ZEFSAII (Michael W. Deem and Ramdas Pophale) SiO2 
 PCOD9317965
Probable space group: C 2 2 21
;
_chemical_formula_sum "Si O2"
_cell_formula_units_Z 60
_cell_length_a 30.803424
_cell_length_b 10.365364
_cell_length_c 10.292375
_cell_angle_alpha 90.000000
_cell_angle_beta 90.000000
_cell_angle_gamma 90.000000
_cell_volume 3286.239056
_symmetry_space_group_name_H-M "C 2 2 21"
_symmetry_group_IT_number 20
_symmetry_cell_setting 'orthorhombic'
loop_
_space_group_symop_operation_xyz
x,y,z
-x,-y,1/2+z
x,-y,-z
-x,y,1/2-z
1/2+x,1/2+y,z
1/2-x,1/2-y,1/2+z
1/2+x,1/2-y,-z
1/2-x,1/2+y,1/2-z
loop_
_atom_site_type_symbol
_atom_site_label
_atom_site_fract_x
_atom_site_fract_y
_atom_site_fract_z
Si Si1 0.568115 0.110228 0.890988
Si Si2 0.800183 0.321588 0.181154
Si Si3 0.500000 0.283126 0.750000
Si Si4 0.327880 0.537498 0.151040
Si Si5 0.336501 0.848822 0.464024
Si Si6 0.795251 0.110916 0.606739
Si Si7 0.895587 0.603926 0.894579
Si Si8 0.579062 0.608558 0.392286
O O1 0.525498 0.194832 0.856658
O O2 0.612366 0.182840 0.938102
O O3 0.583806 0.067710 0.745654
O O4 0.559754 0.000000 0.000000
O O5 0.807429 0.339478 0.334631
O O6 0.756507 0.376566 0.121548
O O7 0.843690 0.382522 0.120175
O O8 0.800539 0.167822 0.161942
O O9 0.463507 0.373644 0.809385
O O10 0.311748 0.432368 0.251823
O O11 0.377580 0.572163 0.186267
O O12 0.327597 0.500000 0.000000
O O13 0.316623 0.746066 0.563715
O O14 0.336050 0.000000 0.500000
O O15 0.805612 0.000000 0.500000
O O16 0.911454 0.745418 0.938998
O O17 0.907618 0.500000 0.000000
O O18 0.573537 0.500000 0.500000
#
# Coordination Sequence:
#
# PCOD9317965 Si02
#       8
#     8   8   4   8   8   8   8   8
#     4   9  20  41  61  91 127 157 196 251 325 369
#     4  10  22  38  59  88 127 160 215 258 296 359
#     4  10  20  36  70  84 120 162 198 258 302 380
#     4  10  23  43  62  84 128 166 199 262 313 359
#     4  10  23  43  61  88 132 166 201 262 320 363
#     4  12  25  37  64  93 119 171 221 252 302 368
#     4   9  18  38  65  86 119 166 202 254 302 357
#     4   9  20  42  57  86 122 156 201 245 317 364
#
# _framework density 18.257953000000001
#
# number of rings (size 3 to 8) (size 9 to 14) (size 15 to 20)
#    0.000    2.133    1.333    1.200    3.733    2.133 
#   24.000    0.000    0.000    0.000    0.000    0.000 
#    0.000    0.000    0.000    0.000    0.000    0.000 
#
# Total GULP energy -167184.550074 kJ/mol
# GULP energy per Si atom -5572.818336 kJ/mol
# Density = 1.821640 g / cm^3
# Si number density = 18.257953 Si / 1000 Ang^3
#
#
#
# Elastic Constant Matrix: (Units=GPa)
#
#
# Indices 1 2 3 4 5 6 
#
# 1 83.0666 39.8641 32.8673 0.0000 0.0000 0.0000
# 2 39.8641 96.3117 58.7895 0.0000 0.0000 0.0000
# 3 32.8673 58.7895 94.4372 0.0000 0.0000 0.0000
# 4 0.0000 0.0000 0.0000 35.3466 0.0000 0.0000
# 5 0.0000 0.0000 0.0000 0.0000 15.6822 0.0000
# 6 0.0000 0.0000 0.0000 0.0000 0.0000 9.6143
#
#
#
# Elastic Compliance Matrix: (Units=1/GPa)
#
#
# Indices 1 2 3 4 5 6 
#
# 1 0.015309 -0.004974 -0.002231 0.000000 0.000000 0.000000
# 2 -0.004974 0.018363 -0.009700 0.000000 0.000000 0.000000
# 3 -0.002231 -0.009700 0.017404 0.000000 0.000000 0.000000
# 4 0.000000 0.000000 0.000000 0.028291 0.000000 0.000000
# 5 0.000000 0.000000 0.000000 0.000000 0.063767 0.000000
# 6 0.000000 0.000000 0.000000 0.000000 0.000000 0.104012
#
#
# Mechanical properties :
#
#
# Convention : Reuss Voigt Hill
#
# Bulk Modulus (GPa) = 57.92327 59.65080 58.78704
# Shear Modulus (GPa) = 17.43916 21.61495 19.52705
#
# Velocity S-wave (km/s) = 3.09391 3.44447 3.27388
# Velocity P-wave (km/s) = 6.67509 6.96859 6.82342
#
# Compressibility (1/GPa) = 0.01726422
#
# Stress axis : x y z
#
# Youngs Moduli (GPa) = 65.32274 54.45760 57.45760
#
# Poissons Ratio (x) = 0.27089 0.12820
# Poissons Ratio (y) = 0.32494 0.55734
# Poissons Ratio (z) = 0.14575 0.52824
#
# Static dielectric constant tensor:
#      x y z
#    x 1.651790 0.000000 0.000000 
#    y 0.000000 1.605050 0.000000 
#    z 0.000000 0.000000 1.616910 
# 
# From -- ./inp_files/7640.got.cif
#   From: 2010.05.17/outbox.cif.g08.bks.cpg/sg20_4_cif.got.tgz:7640.got - 2010.06.03 22:52:26.
