data_PCOD9317729
_publ_section_title
;
Structure prediction by ZEFSAII (Michael W. Deem and Ramdas Pophale) SiO2 
 PCOD9317729
Probable space group: C 2 2 21
;
_chemical_formula_sum "Si O2"
_cell_formula_units_Z 40
_cell_length_a 16.219421
_cell_length_b 7.212080
_cell_length_c 14.299088
_cell_angle_alpha 90.000000
_cell_angle_beta 90.000000
_cell_angle_gamma 90.000000
_cell_volume 1672.646712
_symmetry_space_group_name_H-M "C 2 2 21"
_symmetry_group_IT_number 20
_symmetry_cell_setting 'orthorhombic'
loop_
_space_group_symop_operation_xyz
x,y,z
-x,-y,1/2+z
x,-y,-z
-x,y,1/2-z
1/2+x,1/2+y,z
1/2-x,1/2-y,1/2+z
1/2+x,1/2-y,-z
1/2-x,1/2+y,1/2-z
loop_
_atom_site_type_symbol
_atom_site_label
_atom_site_fract_x
_atom_site_fract_y
_atom_site_fract_z
Si Si1 0.526208 0.710374 0.543115
Si Si2 0.816383 0.815107 0.707444
Si Si3 0.848842 0.222537 0.496746
Si Si4 0.643412 0.337651 0.307590
Si Si5 0.173399 0.793367 0.588143
O O1 0.517053 0.500000 0.500000
O O2 0.435085 0.792048 0.537018
O O3 0.557704 0.726360 0.649801
O O4 0.600563 0.783346 0.476967
O O5 0.847006 0.724905 0.612840
O O6 0.716838 0.807926 0.701944
O O7 0.837329 0.718628 0.805852
O O8 0.853410 0.023008 0.719340
O O9 0.764156 0.271047 0.547756
O O10 0.847507 0.000000 0.500000
O O11 0.666767 0.486109 0.390037
#
# Coordination Sequence:
#
# PCOD9317729 Si02
#       5
#     8   8   8   8   8
#     4   9  18  37  58  85 116 153 200 252 293 359
#     4  10  20  34  63  86 121 160 203 244 305 372
#     4  11  21  35  61  91 116 158 205 252 308 356
#     4   9  19  37  60  89 117 160 199 254 305 355
#     4   9  20  36  59  84 122 155 199 252 302 354
#
# _framework density 23.914194999999999
#
# number of rings (size 3 to 8) (size 9 to 14) (size 15 to 20)
#    1.200    1.200    2.000    1.200    0.000    0.800 
#    0.000    3.000    4.400    2.400    0.000    0.000 
#    0.000    0.000    0.000    0.000    0.000    0.000 
#
# Total GULP energy -111436.782953 kJ/mol
# GULP energy per Si atom -5571.839148 kJ/mol
# Density = 2.385977 g / cm^3
# Si number density = 23.914195 Si / 1000 Ang^3
#
#
#
# Elastic Constant Matrix: (Units=GPa)
#
#
# Indices 1 2 3 4 5 6 
#
# 1 162.1244 -0.6497 50.8158 0.0000 0.0000 0.0000
# 2 -0.6497 43.9519 -4.9610 0.0000 0.0000 0.0000
# 3 50.8158 -4.9610 107.9408 0.0000 0.0000 0.0000
# 4 0.0000 0.0000 0.0000 14.8432 0.0000 0.0000
# 5 0.0000 0.0000 0.0000 0.0000 31.8048 0.0000
# 6 0.0000 0.0000 0.0000 0.0000 0.0000 15.1452
#
#
#
# Elastic Compliance Matrix: (Units=1/GPa)
#
#
# Indices 1 2 3 4 5 6 
#
# 1 0.007239 -0.000279 -0.003421 0.000000 0.000000 0.000000
# 2 -0.000279 0.022882 0.001183 0.000000 0.000000 0.000000
# 3 -0.003421 0.001183 0.010929 0.000000 0.000000 0.000000
# 4 0.000000 0.000000 0.000000 0.067371 0.000000 0.000000
# 5 0.000000 0.000000 0.000000 0.000000 0.031442 0.000000
# 6 0.000000 0.000000 0.000000 0.000000 0.000000 0.066028
#
#
# Mechanical properties :
#
#
# Convention : Reuss Voigt Hill
#
# Bulk Modulus (GPa) = 27.76537 44.93635 36.35086
# Shear Modulus (GPa) = 22.42860 30.27943 26.35402
#
# Velocity S-wave (km/s) = 3.06580 3.56219 3.32328
# Velocity P-wave (km/s) = 4.91608 5.97916 5.47349
#
# Compressibility (1/GPa) = 0.03601609
#
# Stress axis : x y z
#
# Youngs Moduli (GPa) = 138.13658 43.70329 91.49830
#
# Poissons Ratio (x) = 0.01220 0.31300
# Poissons Ratio (y) = 0.03856 -0.10825
# Poissons Ratio (z) = 0.47255 -0.05170
#
# Static dielectric constant tensor:
#      x y z
#    x 1.931500 0.000000 0.000000 
#    y 0.000000 2.015490 0.000000 
#    z 0.000000 0.000000 2.006660 
# 
# From -- ./inp_files/18519.got.cif
#   From: 2010.05.17/outbox.cif.g08.bks.cpg/sg20_10_cif.got.tgz:18519.got - 2010.06.03 22:52:26.
