data_PCOD9317153
_publ_section_title
;
Structure prediction by ZEFSAII (Michael W. Deem and Ramdas Pophale) SiO2 
 PCOD9317153
Probable space group: C 2 2 21
;
_chemical_formula_sum "Si O2"
_cell_formula_units_Z 24
_cell_length_a 25.606503
_cell_length_b 7.319784
_cell_length_c 5.390664
_cell_angle_alpha 90.000000
_cell_angle_beta 90.000000
_cell_angle_gamma 90.000000
_cell_volume 1010.394099
_symmetry_space_group_name_H-M "C 2 2 21"
_symmetry_group_IT_number 20
_symmetry_cell_setting 'orthorhombic'
loop_
_space_group_symop_operation_xyz
x,y,z
-x,-y,1/2+z
x,-y,-z
-x,y,1/2-z
1/2+x,1/2+y,z
1/2-x,1/2-y,1/2+z
1/2+x,1/2-y,-z
1/2-x,1/2+y,1/2-z
loop_
_atom_site_type_symbol
_atom_site_label
_atom_site_fract_x
_atom_site_fract_y
_atom_site_fract_z
Si Si1 0.562267 0.710696 0.748112
Si Si2 0.393417 0.704333 0.255949
Si Si3 0.720947 0.205100 0.904722
O O1 0.500000 0.709177 0.750000
O O2 0.583452 0.501338 0.750680
O O3 0.588027 0.790355 0.501224
O O4 0.581759 0.795093 0.002988
O O5 0.331815 0.704496 0.300418
O O6 0.757858 0.200444 0.658662
O O7 0.710588 0.000000 0.000000
#
# Coordination Sequence:
#
# PCOD9317153 Si02
#       3
#     8   8   8
#     4  10  19  34  65 102 133 167 224 277 335 411
#     4  10  20  35  59  91 135 165 218 278 339 384
#     4  12  28  45  68  97 138 188 241 288 350 411
#
# _framework density 23.753107
#
# number of rings (size 3 to 8) (size 9 to 14) (size 15 to 20)
#    0.000    1.333    0.000    8.000   14.000    0.000 
#    0.000    0.000    0.000    6.000    0.000    0.000 
#    0.000    0.000    0.000    0.000    0.000    0.000 
#
# Total GULP energy -67074.434560 kJ/mol
# GULP energy per Si atom -5589.536213 kJ/mol
# Density = 2.369904 g / cm^3
# Si number density = 23.753107 Si / 1000 Ang^3
#
#
#
# Elastic Constant Matrix: (Units=GPa)
#
#
# Indices 1 2 3 4 5 6 
#
# 1 178.8501 9.6571 85.9805 0.0000 0.0000 0.0000
# 2 9.6571 69.4489 19.1879 0.0000 0.0000 0.0000
# 3 85.9805 19.1879 288.4257 0.0000 0.0000 0.0000
# 4 0.0000 0.0000 0.0000 -4.4409 0.0000 0.0000
# 5 0.0000 0.0000 0.0000 0.0000 55.8038 0.0000
# 6 0.0000 0.0000 0.0000 0.0000 0.0000 6.3887
#
#
#
# Elastic Compliance Matrix: (Units=1/GPa)
#
#
# Indices 1 2 3 4 5 6 
#
# 1 0.006536 -0.000377 -0.001923 0.000000 0.000000 0.000000
# 2 -0.000377 0.014691 -0.000865 0.000000 0.000000 0.000000
# 3 -0.001923 -0.000865 0.004098 0.000000 0.000000 0.000000
# 4 0.000000 0.000000 0.000000 -0.225181 0.000000 0.000000
# 5 0.000000 0.000000 0.000000 0.000000 0.017920 0.000000
# 6 0.000000 0.000000 0.000000 0.000000 0.000000 0.156526
#
#
# Mechanical properties :
#
#
# Convention : Reuss Voigt Hill
#
# Bulk Modulus (GPa) = 52.64957 85.15287 68.90122
# Shear Modulus (GPa) = -392.22042 39.67695 -176.27174
#
# Velocity S-wave (km/s) = -12.86399 4.09147 -8.62387
# Velocity P-wave (km/s) = 14.08650 7.63198 8.37205
#
# Compressibility (1/GPa) = 0.01899351
#
# Stress axis : x y z
#
# Youngs Moduli (GPa) = 152.99171 68.07120 244.02202
#
# Poissons Ratio (x) = 0.02570 0.46935
# Poissons Ratio (y) = 0.05775 0.21102
# Poissons Ratio (z) = 0.29426 0.05887
#
# Static dielectric constant tensor:
#      x y z
#    x 1.871850 0.000000 0.000000 
#    y 0.000000 1.857720 0.000000 
#    z 0.000000 0.000000 1.904960 
# 
# From -- ./inp_files/315.got.cif
#   From: 2010.05.17/outbox.cif.g08.bks.cpg/sg20_1_cif.got.tgz:315.got - 2010.06.03 22:52:26.
