data_PCOD9317989
_publ_section_title
;
Structure prediction by ZEFSAII (Michael W. Deem and Ramdas Pophale) SiO2 
 PCOD9317989
Probable space group: C 2 2 21
;
_chemical_formula_sum "Si O2"
_cell_formula_units_Z 48
_cell_length_a 16.732110
_cell_length_b 7.730204
_cell_length_c 15.934015
_cell_angle_alpha 90.000000
_cell_angle_beta 90.000000
_cell_angle_gamma 90.000000
_cell_volume 2060.947305
_symmetry_space_group_name_H-M "C 2 2 21"
_symmetry_group_IT_number 20
_symmetry_cell_setting 'orthorhombic'
loop_
_space_group_symop_operation_xyz
x,y,z
-x,-y,1/2+z
x,-y,-z
-x,y,1/2-z
1/2+x,1/2+y,z
1/2-x,1/2-y,1/2+z
1/2+x,1/2-y,-z
1/2-x,1/2+y,1/2-z
loop_
_atom_site_type_symbol
_atom_site_label
_atom_site_fract_x
_atom_site_fract_y
_atom_site_fract_z
Si Si1 0.163596 0.439410 0.655620
Si Si2 0.164264 0.439533 0.844848
Si Si3 0.826662 0.073087 0.593250
Si Si4 0.000278 0.472188 0.901467
Si Si5 0.500481 0.443825 0.098794
Si Si6 0.827590 0.927108 0.093334
O O1 0.157501 0.370843 0.750263
O O2 0.246789 0.536008 0.644619
O O3 0.165276 0.280030 0.591123
O O4 0.082233 0.542442 0.636636
O O5 0.166092 0.280162 0.909320
O O6 0.083059 0.542894 0.864170
O O7 0.247657 0.535519 0.855429
O O8 0.911206 0.001952 0.629527
O O9 0.817174 0.000000 0.500000
O O10 0.000463 0.264200 0.886626
O O11 0.999828 0.500000 0.000000
O O12 0.412183 0.498146 0.129551
O O13 0.500484 0.500000 0.000000
O O14 0.818219 0.000000 0.000000
#
# Coordination Sequence:
#
# PCOD9317989 Si02
#       6
#     8   8   8   8   8   8
#     4  11  22  37  56  84 117 150 188 240 293 338
#     4  11  22  37  56  84 117 150 188 240 293 338
#     4  10  20  37  59  83 112 151 194 234 283 348
#     4  10  21  37  58  81 109 148 189 228 276 341
#     4   8  18  35  56  81 106 138 184 232 274 323
#     4  10  20  37  59  83 112 151 194 234 283 348
#
# _framework density 23.290261000000001
#
# number of rings (size 3 to 8) (size 9 to 14) (size 15 to 20)
#    0.000    2.000    0.000    3.500    0.000    5.333 
#    0.000    2.500    0.000    0.000    0.000    2.333 
#    0.000    0.000    0.000    0.000    0.000    0.000 
#
# Total GULP energy -133899.704196 kJ/mol
# GULP energy per Si atom -5579.154342 kJ/mol
# Density = 2.323725 g / cm^3
# Si number density = 23.290261 Si / 1000 Ang^3
#
#
#
# Elastic Constant Matrix: (Units=GPa)
#
#
# Indices 1 2 3 4 5 6 
#
# 1 277.6275 18.4937 35.1539 0.0000 0.0000 0.0000
# 2 18.4937 19.3078 -11.7609 0.0000 0.0000 0.0000
# 3 35.1539 -11.7609 56.0709 0.0000 0.0000 0.0000
# 4 0.0000 0.0000 0.0000 21.1312 0.0000 0.0000
# 5 0.0000 0.0000 0.0000 0.0000 8.3277 0.0000
# 6 0.0000 0.0000 0.0000 0.0000 0.0000 22.6197
#
#
#
# Elastic Compliance Matrix: (Units=1/GPa)
#
#
# Indices 1 2 3 4 5 6 
#
# 1 0.004633 -0.007116 -0.004397 0.000000 0.000000 0.000000
# 2 -0.007116 0.070309 0.019208 0.000000 0.000000 0.000000
# 3 -0.004397 0.019208 0.024620 0.000000 0.000000 0.000000
# 4 0.000000 0.000000 0.000000 0.047323 0.000000 0.000000
# 5 0.000000 0.000000 0.000000 0.000000 0.120081 0.000000
# 6 0.000000 0.000000 0.000000 0.000000 0.000000 0.044209
#
#
# Mechanical properties :
#
#
# Convention : Reuss Voigt Hill
#
# Bulk Modulus (GPa) = 8.69920 48.53108 28.61514
# Shear Modulus (GPa) = 14.96551 31.15701 23.06126
#
# Velocity S-wave (km/s) = 2.53764 3.66152 3.15011
# Velocity P-wave (km/s) = 3.51132 6.22562 5.05410
#
# Compressibility (1/GPa) = 0.11495312
#
# Stress axis : x y z
#
# Youngs Moduli (GPa) = 215.85606 14.22300 40.61689
#
# Poissons Ratio (x) = 0.10121 0.17859
# Poissons Ratio (y) = 1.53597 -0.78019
# Poissons Ratio (z) = 0.94913 -0.27320
#
# Static dielectric constant tensor:
#      x y z
#    x 2.003520 0.000000 0.000000 
#    y 0.000000 1.907380 0.000000 
#    z 0.000000 0.000000 1.886980 
# 
# From -- ./inp_files/21309.got.cif
#   From: 2010.05.17/outbox.cif.g08.bks.cpg/sg20_11_cif.got.tgz:21309.got - 2010.06.03 22:52:26.
