data_PCOD9317564
_publ_section_title
;
Structure prediction by ZEFSAII (Michael W. Deem and Ramdas Pophale) SiO2 
 PCOD9317564
Probable space group: C 2 2 21
;
_chemical_formula_sum "Si O2"
_cell_formula_units_Z 44
_cell_length_a 9.283429
_cell_length_b 15.829427
_cell_length_c 16.505686
_cell_angle_alpha 90.000000
_cell_angle_beta 90.000000
_cell_angle_gamma 90.000000
_cell_volume 2425.533033
_symmetry_space_group_name_H-M "C 2 2 21"
_symmetry_group_IT_number 20
_symmetry_cell_setting 'orthorhombic'
loop_
_space_group_symop_operation_xyz
x,y,z
-x,-y,1/2+z
x,-y,-z
-x,y,1/2-z
1/2+x,1/2+y,z
1/2-x,1/2-y,1/2+z
1/2+x,1/2-y,-z
1/2-x,1/2+y,1/2-z
loop_
_atom_site_type_symbol
_atom_site_label
_atom_site_fract_x
_atom_site_fract_y
_atom_site_fract_z
Si Si1 0.168914 0.546104 0.585748
Si Si2 0.500000 0.303116 0.750000
Si Si3 0.427728 0.229072 0.924919
Si Si4 0.150819 0.496642 0.125373
Si Si5 0.844855 0.969367 0.723098
Si Si6 0.792699 0.356563 0.499533
O O1 0.160546 0.500000 0.500000
O O2 0.173752 0.646334 0.574209
O O3 0.295125 0.506242 0.638312
O O4 0.015914 0.528843 0.629570
O O5 0.459009 0.252651 0.830980
O O6 0.372631 0.368410 0.724423
O O7 0.344426 0.303790 0.971021
O O8 0.575436 0.202601 0.970141
O O9 0.226937 0.508114 0.210341
O O10 0.160551 0.582959 0.073836
O O11 0.229364 0.422696 0.073996
O O12 0.000000 0.004819 0.750000
#
# Coordination Sequence:
#
# PCOD9317564 Si02
#       6
#     8   4   8   8   8   8
#     4  11  23  41  65  91 120 166 214 248 302 376
#     4  10  24  40  58  88 124 162 196 260 316 352
#     4  11  23  39  63  90 125 158 208 259 304 357
#     4  10  19  43  63  88 119 166 204 246 307 378
#     4  10  23  41  62  88 124 161 206 249 316 363
#     4  10  21  38  63  89 121 157 205 250 306 359
#
# _framework density 18.140342
#
# number of rings (size 3 to 8) (size 9 to 14) (size 15 to 20)
#    0.545    1.091    5.455    0.545    7.636    1.455 
#    3.273    0.000    4.000    0.000    0.000    0.000 
#    0.000    0.000    0.000    0.000    0.000    0.000 
#
# Total GULP energy -122666.958079 kJ/mol
# GULP energy per Si atom -5575.770822 kJ/mol
# Density = 1.809905 g / cm^3
# Si number density = 18.140342 Si / 1000 Ang^3
#
#
#
# Elastic Constant Matrix: (Units=GPa)
#
#
# Indices 1 2 3 4 5 6 
#
# 1 59.3445 33.4695 44.7336 0.0000 0.0000 0.0000
# 2 33.4695 88.5700 34.8447 0.0000 0.0000 0.0000
# 3 44.7336 34.8447 81.3228 0.0000 0.0000 0.0000
# 4 0.0000 0.0000 0.0000 4.1587 0.0000 0.0000
# 5 0.0000 0.0000 0.0000 0.0000 37.4226 0.0000
# 6 0.0000 0.0000 0.0000 0.0000 0.0000 25.5717
#
#
#
# Elastic Compliance Matrix: (Units=1/GPa)
#
#
# Indices 1 2 3 4 5 6 
#
# 1 0.031289 -0.006077 -0.014608 0.000000 0.000000 0.000000
# 2 -0.006077 0.014760 -0.002981 0.000000 0.000000 0.000000
# 3 -0.014608 -0.002981 0.021609 0.000000 0.000000 0.000000
# 4 0.000000 0.000000 0.000000 0.240460 0.000000 0.000000
# 5 0.000000 0.000000 0.000000 0.000000 0.026722 0.000000
# 6 0.000000 0.000000 0.000000 0.000000 0.000000 0.039106
#
#
# Mechanical properties :
#
#
# Convention : Reuss Voigt Hill
#
# Bulk Modulus (GPa) = 49.19683 50.59255 49.89469
# Shear Modulus (GPa) = 11.68077 21.17658 16.42868
#
# Velocity S-wave (km/s) = 2.54029 3.42039 3.01266
# Velocity P-wave (km/s) = 5.98190 6.59916 6.29809
#
# Compressibility (1/GPa) = 0.02032651
#
# Stress axis : x y z
#
# Youngs Moduli (GPa) = 31.95984 67.75137 46.27617
#
# Poissons Ratio (x) = 0.41172 0.67598
# Poissons Ratio (y) = 0.19422 0.13797
# Poissons Ratio (z) = 0.46686 0.20199
#
# Static dielectric constant tensor:
#      x y z
#    x 1.614860 0.000000 0.000000 
#    y 0.000000 1.627960 0.000000 
#    z 0.000000 0.000000 1.602980 
# 
# From -- ./inp_files/23352.got.cif
#   From: 2010.05.17/outbox.cif.g08.bks.cpg/sg20_12_cif.got.tgz:23352.got - 2010.06.03 22:52:26.
