data_PCOD9317303
_publ_section_title
;
Structure prediction by ZEFSAII (Michael W. Deem and Ramdas Pophale) SiO2 
 PCOD9317303
Probable space group: C 2 2 21
;
_chemical_formula_sum "Si O2"
_cell_formula_units_Z 52
_cell_length_a 17.214065
_cell_length_b 7.545398
_cell_length_c 16.550769
_cell_angle_alpha 90.000000
_cell_angle_beta 90.000000
_cell_angle_gamma 90.000000
_cell_volume 2149.729263
_symmetry_space_group_name_H-M "C 2 2 21"
_symmetry_group_IT_number 20
_symmetry_cell_setting 'orthorhombic'
loop_
_space_group_symop_operation_xyz
x,y,z
-x,-y,1/2+z
x,-y,-z
-x,y,1/2-z
1/2+x,1/2+y,z
1/2-x,1/2-y,1/2+z
1/2+x,1/2-y,-z
1/2-x,1/2+y,1/2-z
loop_
_atom_site_type_symbol
_atom_site_label
_atom_site_fract_x
_atom_site_fract_y
_atom_site_fract_z
Si Si1 0.000000 0.809091 0.250000
Si Si2 0.598174 0.331059 0.110067
Si Si3 0.373873 0.416634 0.125435
Si Si4 0.290978 0.817701 0.323013
Si Si5 0.566504 0.253913 0.925807
Si Si6 0.730847 0.080834 0.647532
Si Si7 0.102304 0.282191 0.465004
O O1 0.954739 0.726602 0.325872
O O2 0.928389 0.904962 0.203978
O O3 0.568801 0.540148 0.108266
O O4 0.687688 0.320336 0.134353
O O5 0.591213 0.270880 0.018683
O O6 0.284315 0.428350 0.151091
O O7 0.391313 0.591366 0.076377
O O8 0.391280 0.258336 0.060894
O O9 0.367380 0.844680 0.375765
O O10 0.308316 0.850997 0.229520
O O11 0.258281 0.620130 0.338819
O O12 0.482517 0.162080 0.932774
O O13 0.673005 0.109427 0.573246
#
# Coordination Sequence:
#
# PCOD9317303 Si02
#       7
#     4   8   8   8   8   8   8
#     4  12  18  34  66  92 120 162 212 260 290 378
#     4  10  19  36  60  93 112 160 209 255 293 370
#     4  11  22  39  65  94 122 161 211 258 315 367
#     4  11  24  41  64  91 126 167 209 261 314 375
#     4  10  20  37  62  88 121 160 212 248 306 372
#     4  11  24  38  64  90 127 161 210 261 318 368
#     4  11  22  39  64  94 124 159 207 263 310 374
#
# _framework density 24.189091999999999
#
# number of rings (size 3 to 8) (size 9 to 14) (size 15 to 20)
#    0.000    1.231    4.615    2.769    2.154    2.462 
#    0.000    1.538    0.000    0.000    0.000    0.000 
#    0.000    0.000    0.000    0.000    0.000    0.000 
#
# Total GULP energy -145382.419249 kJ/mol
# GULP energy per Si atom -5591.631510 kJ/mol
# Density = 2.413404 g / cm^3
# Si number density = 24.189092 Si / 1000 Ang^3
#
#
#
# Elastic Constant Matrix: (Units=GPa)
#
#
# Indices 1 2 3 4 5 6 
#
# 1 129.7112 18.6050 64.8697 0.0000 0.0000 0.0000
# 2 18.6050 46.9457 14.5906 0.0000 0.0000 0.0000
# 3 64.8697 14.5906 163.5957 0.0000 0.0000 0.0000
# 4 0.0000 0.0000 0.0000 19.4887 0.0000 0.0000
# 5 0.0000 0.0000 0.0000 0.0000 51.4924 0.0000
# 6 0.0000 0.0000 0.0000 0.0000 0.0000 -8.3610
#
#
#
# Elastic Compliance Matrix: (Units=1/GPa)
#
#
# Indices 1 2 3 4 5 6 
#
# 1 0.009961 -0.002798 -0.003700 0.000000 0.000000 0.000000
# 2 -0.002798 0.022694 -0.000915 0.000000 0.000000 0.000000
# 3 -0.003700 -0.000915 0.007662 0.000000 0.000000 0.000000
# 4 0.000000 0.000000 0.000000 0.051312 0.000000 0.000000
# 5 0.000000 0.000000 0.000000 0.000000 0.019420 0.000000
# 6 0.000000 0.000000 0.000000 0.000000 0.000000 -0.119603
#
#
# Mechanical properties :
#
#
# Convention : Reuss Voigt Hill
#
# Bulk Modulus (GPa) = 39.22868 59.59815 49.41342
# Shear Modulus (GPa) = 338.55518 28.66984 183.61251
#
# Velocity S-wave (km/s) = 11.84338 3.44646 8.72192
# Velocity P-wave (km/s) = 14.25741 6.36627 11.04090
#
# Compressibility (1/GPa) = 0.02549155
#
# Stress axis : x y z
#
# Youngs Moduli (GPa) = 100.38835 44.06400 130.52273
#
# Poissons Ratio (x) = 0.12328 0.48298
# Poissons Ratio (y) = 0.28086 0.11939
# Poissons Ratio (z) = 0.37148 0.04030
#
# Static dielectric constant tensor:
#      x y z
#    x 1.927600 0.000000 0.000000 
#    y 0.000000 2.030040 0.000000 
#    z 0.000000 0.000000 1.863860 
# 
# From -- ./inp_files/25230.got.cif
#   From: 2010.05.17/outbox.cif.g08.bks.cpg/sg20_13_cif.got.tgz:25230.got - 2010.06.03 22:52:26.
