data_PCOD9317979
_publ_section_title
;
Structure prediction by ZEFSAII (Michael W. Deem and Ramdas Pophale) SiO2 
 PCOD9317979
Probable space group: C 2 2 21
;
_chemical_formula_sum "Si O2"
_cell_formula_units_Z 32
_cell_length_a 5.278517
_cell_length_b 32.945890
_cell_length_c 8.664434
_cell_angle_alpha 90.000000
_cell_angle_beta 90.000000
_cell_angle_gamma 90.000000
_cell_volume 1506.792211
_symmetry_space_group_name_H-M "C 2 2 21"
_symmetry_group_IT_number 20
_symmetry_cell_setting 'orthorhombic'
loop_
_space_group_symop_operation_xyz
x,y,z
-x,-y,1/2+z
x,-y,-z
-x,y,1/2-z
1/2+x,1/2+y,z
1/2-x,1/2-y,1/2+z
1/2+x,1/2-y,-z
1/2-x,1/2+y,1/2-z
loop_
_atom_site_type_symbol
_atom_site_label
_atom_site_fract_x
_atom_site_fract_y
_atom_site_fract_z
Si Si1 0.513399 0.044875 0.936869
Si Si2 0.250979 0.764267 0.645454
Si Si3 0.015717 0.091599 0.938224
Si Si4 0.965550 0.182699 0.567249
O O1 0.500000 0.043664 0.750000
O O2 0.242336 0.062274 0.988437
O O3 0.742263 0.074562 0.986533
O O4 0.558607 0.000000 0.000000
O O5 0.500000 0.769105 0.750000
O O6 0.272328 0.720579 0.561033
O O7 0.000000 0.764794 0.750000
O O8 0.208624 0.799481 0.520781
O O9 0.082153 0.137376 0.990716
O O10 0.000000 0.091539 0.750000
O O11 0.000000 0.178256 0.750000
#
# Coordination Sequence:
#
# PCOD9317979 Si02
#       4
#     8   8   8   8
#     4  10  20  37  58  82 110 141 182 234 292 349
#     4  11  24  39  59  90 126 162 203 256 306 349
#     4   9  20  35  58  85 109 144 194 240 275 340
#     4  10  21  39  62  85 116 161 207 242 291 356
#
# _framework density 21.237169000000002
#
# number of rings (size 3 to 8) (size 9 to 14) (size 15 to 20)
#    0.000    2.000    0.000    3.750    0.000   11.000 
#    0.000    3.750    0.000    1.500    0.000    0.000 
#    0.000    0.000    0.000    0.000    0.000    0.000 
#
# Total GULP energy -89267.120827 kJ/mol
# GULP energy per Si atom -5579.195052 kJ/mol
# Density = 2.118883 g / cm^3
# Si number density = 21.237169 Si / 1000 Ang^3
#
#
#
# Elastic Constant Matrix: (Units=GPa)
#
#
# Indices 1 2 3 4 5 6 
#
# 1 132.8632 20.1230 39.1169 0.0000 0.0000 0.0000
# 2 20.1230 119.1420 20.9519 0.0000 0.0000 0.0000
# 3 39.1169 20.9519 44.8619 0.0000 0.0000 0.0000
# 4 0.0000 0.0000 0.0000 17.0492 0.0000 0.0000
# 5 0.0000 0.0000 0.0000 0.0000 24.9756 0.0000
# 6 0.0000 0.0000 0.0000 0.0000 0.0000 33.9035
#
#
#
# Elastic Compliance Matrix: (Units=1/GPa)
#
#
# Indices 1 2 3 4 5 6 
#
# 1 0.010129 -0.000172 -0.008752 0.000000 0.000000 0.000000
# 2 -0.000172 0.009147 -0.004122 0.000000 0.000000 0.000000
# 3 -0.008752 -0.004122 0.031847 0.000000 0.000000 0.000000
# 4 0.000000 0.000000 0.000000 0.058654 0.000000 0.000000
# 5 0.000000 0.000000 0.000000 0.000000 0.040039 0.000000
# 6 0.000000 0.000000 0.000000 0.000000 0.000000 0.029496
#
#
# Mechanical properties :
#
#
# Convention : Reuss Voigt Hill
#
# Bulk Modulus (GPa) = 39.94945 50.80562 45.37753
# Shear Modulus (GPa) = 23.39208 29.63068 26.51138
#
# Velocity S-wave (km/s) = 3.32244 3.73933 3.53703
# Velocity P-wave (km/s) = 5.79397 6.52827 6.17205
#
# Compressibility (1/GPa) = 0.02503164
#
# Stress axis : x y z
#
# Youngs Moduli (GPa) = 98.72423 109.32197 31.40016
#
# Poissons Ratio (x) = 0.01878 0.27481
# Poissons Ratio (y) = 0.01696 0.12944
# Poissons Ratio (z) = 0.86402 0.45066
#
# Static dielectric constant tensor:
#      x y z
#    x 1.772360 0.000000 0.000000 
#    y 0.000000 1.741380 0.000000 
#    z 0.000000 0.000000 1.808280 
# 
# From -- ./inp_files/5114.got.cif
#   From: 2010.05.17/outbox.cif.g08.bks.cpg/sg20_3_cif.got.tgz:5114.got - 2010.06.03 22:52:26.
