data_PCOD9317427
_publ_section_title
;
Structure prediction by ZEFSAII (Michael W. Deem and Ramdas Pophale) SiO2 
 PCOD9317427
Probable space group: C 2 2 21
;
_chemical_formula_sum "Si O2"
_cell_formula_units_Z 48
_cell_length_a 8.465518
_cell_length_b 18.234015
_cell_length_c 12.938890
_cell_angle_alpha 90.000000
_cell_angle_beta 90.000000
_cell_angle_gamma 90.000000
_cell_volume 1997.252006
_symmetry_space_group_name_H-M "C 2 2 21"
_symmetry_group_IT_number 20
_symmetry_cell_setting 'orthorhombic'
loop_
_space_group_symop_operation_xyz
x,y,z
-x,-y,1/2+z
x,-y,-z
-x,y,1/2-z
1/2+x,1/2+y,z
1/2-x,1/2-y,1/2+z
1/2+x,1/2-y,-z
1/2-x,1/2+y,1/2-z
loop_
_atom_site_type_symbol
_atom_site_label
_atom_site_fract_x
_atom_site_fract_y
_atom_site_fract_z
Si Si1 0.621538 0.518439 0.398065
Si Si2 0.669019 0.983791 0.300129
Si Si3 0.345293 0.855293 0.823949
Si Si4 0.852180 0.183273 0.128229
Si Si5 0.960980 0.733263 0.480328
Si Si6 0.589548 0.617296 0.858899
O O1 0.722884 0.500000 0.500000
O O2 0.715033 0.501042 0.295092
O O3 0.574797 0.602794 0.390418
O O4 0.487054 0.457267 0.402639
O O5 0.500000 0.974596 0.250000
O O6 0.679994 0.060908 0.361157
O O7 0.730483 0.908232 0.347025
O O8 0.500000 0.859612 0.750000
O O9 0.215744 0.821073 0.745228
O O10 0.395596 0.805551 0.919106
O O11 0.699755 0.189853 0.049763
O O12 0.974756 0.245977 0.093848
O O13 0.933356 0.812003 0.427088
O O14 0.500000 0.632408 0.750000
#
# Coordination Sequence:
#
# PCOD9317427 Si02
#       6
#     8   8   8   8   8   8
#     4  10  19  38  60  83 119 159 195 241 300 367
#     4   9  19  37  61  89 117 153 200 248 302 357
#     4   8  17  36  61  81 118 165 195 241 306 363
#     4  10  21  37  59  86 121 160 202 244 305 366
#     4  11  21  39  61  87 122 161 205 253 305 361
#     4  10  20  36  63  87 113 155 200 245 298 361
#
# _framework density 24.033021999999999
#
# number of rings (size 3 to 8) (size 9 to 14) (size 15 to 20)
#    0.000    2.333    1.667    2.500    0.000    1.333 
#    3.000    3.333    0.000    9.000    0.000    0.000 
#    0.000    0.000    0.000    0.000    0.000    0.000 
#
# Total GULP energy -134024.933175 kJ/mol
# GULP energy per Si atom -5584.372216 kJ/mol
# Density = 2.397832 g / cm^3
# Si number density = 24.033022 Si / 1000 Ang^3
#
#
#
# Elastic Constant Matrix: (Units=GPa)
#
#
# Indices 1 2 3 4 5 6 
#
# 1 68.9720 38.8687 8.0542 0.0000 0.0000 0.0000
# 2 38.8687 111.7734 21.2994 0.0000 0.0000 0.0000
# 3 8.0542 21.2994 38.3095 0.0000 0.0000 0.0000
# 4 0.0000 0.0000 0.0000 22.6304 0.0000 0.0000
# 5 0.0000 0.0000 0.0000 0.0000 26.5295 0.0000
# 6 0.0000 0.0000 0.0000 0.0000 0.0000 34.9461
#
#
#
# Elastic Compliance Matrix: (Units=1/GPa)
#
#
# Indices 1 2 3 4 5 6 
#
# 1 0.018036 -0.006207 -0.000341 0.000000 0.000000 0.000000
# 2 -0.006207 0.012143 -0.005446 0.000000 0.000000 0.000000
# 3 -0.000341 -0.005446 0.029203 0.000000 0.000000 0.000000
# 4 0.000000 0.000000 0.000000 0.044188 0.000000 0.000000
# 5 0.000000 0.000000 0.000000 0.000000 0.037694 0.000000
# 6 0.000000 0.000000 0.000000 0.000000 0.000000 0.028616
#
#
# Mechanical properties :
#
#
# Convention : Reuss Voigt Hill
#
# Bulk Modulus (GPa) = 28.25366 39.49994 33.87680
# Shear Modulus (GPa) = 24.31118 26.87671 25.59395
#
# Velocity S-wave (km/s) = 3.18398 3.34776 3.26690
# Velocity P-wave (km/s) = 5.02978 5.60488 5.32510
#
# Compressibility (1/GPa) = 0.03539364
#
# Stress axis : x y z
#
# Youngs Moduli (GPa) = 55.44334 82.35184 34.24310
#
# Poissons Ratio (x) = 0.51117 0.01167
# Poissons Ratio (y) = 0.34414 0.18650
# Poissons Ratio (z) = 0.01890 0.44852
#
# Static dielectric constant tensor:
#      x y z
#    x 2.039400 0.000000 0.000000 
#    y 0.000000 1.903900 0.000000 
#    z 0.000000 0.000000 1.856820 
# 
# From -- ./inp_files/19018.got.cif
#   From: 2010.05.17/outbox.cif.g08.bks.cpg/sg20_10_cif.got.tgz:19018.got - 2010.06.03 22:52:26.
