data_PCOD9317115
_publ_section_title
;
Structure prediction by ZEFSAII (Michael W. Deem and Ramdas Pophale) SiO2 
 PCOD9317115
Probable space group: C 2 2 21
;
_chemical_formula_sum "Si O2"
_cell_formula_units_Z 48
_cell_length_a 13.147213
_cell_length_b 12.308445
_cell_length_c 11.876291
_cell_angle_alpha 90.000000
_cell_angle_beta 90.000000
_cell_angle_gamma 90.000000
_cell_volume 1921.842171
_symmetry_space_group_name_H-M "C 2 2 21"
_symmetry_group_IT_number 20
_symmetry_cell_setting 'orthorhombic'
loop_
_space_group_symop_operation_xyz
x,y,z
-x,-y,1/2+z
x,-y,-z
-x,y,1/2-z
1/2+x,1/2+y,z
1/2-x,1/2-y,1/2+z
1/2+x,1/2-y,-z
1/2-x,1/2+y,1/2-z
loop_
_atom_site_type_symbol
_atom_site_label
_atom_site_fract_x
_atom_site_fract_y
_atom_site_fract_z
Si Si1 0.613535 0.321337 0.252705
Si Si2 0.220378 0.974213 0.691943
Si Si3 0.897063 0.320866 0.980004
Si Si4 0.969681 0.873883 0.879382
Si Si5 0.811328 0.841444 0.582188
Si Si6 0.879025 0.353429 0.552254
O O1 0.500000 0.373474 0.250000
O O2 0.702988 0.409147 0.252770
O O3 0.615078 0.250395 0.366067
O O4 0.620233 0.241145 0.147401
O O5 0.118305 0.961885 0.617635
O O6 0.214257 0.884109 0.791666
O O7 0.314700 0.948376 0.611488
O O8 0.787253 0.375474 0.989604
O O9 0.003458 0.383243 0.968231
O O10 0.917037 0.235593 0.078165
O O11 0.000000 0.859964 0.750000
O O12 0.076503 0.889720 0.942642
O O13 0.830423 0.712579 0.553565
#
# Coordination Sequence:
#
# PCOD9317115 Si02
#       6
#     8   8   8   8   8   8
#     4  10  21  36  58  92 119 150 198 252 296 356
#     4  11  20  36  58  86 120 153 195 248 304 353
#     4  10  19  35  58  89 115 155 200 246 300 361
#     4   9  19  33  54  86 118 154 197 244 298 359
#     4  10  19  34  58  84 115 162 192 242 302 362
#     4  10  21  36  57  87 119 152 198 248 299 356
#
# _framework density 24.976037000000002
#
# number of rings (size 3 to 8) (size 9 to 14) (size 15 to 20)
#    0.000    2.000    3.333    1.500    0.000    1.333 
#    0.000    6.667    0.000    4.000    4.333    0.000 
#    0.000    0.000    0.000    0.000    0.000    0.000 
#
# Total GULP energy -134040.027907 kJ/mol
# GULP energy per Si atom -5585.001163 kJ/mol
# Density = 2.491919 g / cm^3
# Si number density = 24.976037 Si / 1000 Ang^3
#
#
#
# Elastic Constant Matrix: (Units=GPa)
#
#
# Indices 1 2 3 4 5 6 
#
# 1 159.0432 24.3869 4.4205 0.0000 0.0000 0.0000
# 2 24.3869 91.1139 34.4741 0.0000 0.0000 0.0000
# 3 4.4205 34.4741 91.6891 0.0000 0.0000 0.0000
# 4 0.0000 0.0000 0.0000 30.1846 0.0000 0.0000
# 5 0.0000 0.0000 0.0000 0.0000 28.2367 0.0000
# 6 0.0000 0.0000 0.0000 0.0000 0.0000 18.1305
#
#
#
# Elastic Compliance Matrix: (Units=1/GPa)
#
#
# Indices 1 2 3 4 5 6 
#
# 1 0.006569 -0.001910 0.000402 0.000000 0.000000 0.000000
# 2 -0.001910 0.013351 -0.004928 0.000000 0.000000 0.000000
# 3 0.000402 -0.004928 0.012740 0.000000 0.000000 0.000000
# 4 0.000000 0.000000 0.000000 0.033129 0.000000 0.000000
# 5 0.000000 0.000000 0.000000 0.000000 0.035415 0.000000
# 6 0.000000 0.000000 0.000000 0.000000 0.000000 0.055156
#
#
# Mechanical properties :
#
#
# Convention : Reuss Voigt Hill
#
# Bulk Modulus (GPa) = 50.53749 52.04546 51.29147
# Shear Modulus (GPa) = 28.43675 33.88134 31.15905
#
# Velocity S-wave (km/s) = 3.37792 3.68714 3.53591
# Velocity P-wave (km/s) = 5.95752 6.24580 6.10337
#
# Compressibility (1/GPa) = 0.01978729
#
# Stress axis : x y z
#
# Youngs Moduli (GPa) = 152.22217 74.90060 78.49389
#
# Poissons Ratio (x) = 0.14308 -0.03152
# Poissons Ratio (y) = 0.29078 0.38680
# Poissons Ratio (z) = -0.06112 0.36909
#
# Static dielectric constant tensor:
#      x y z
#    x 2.053130 0.000000 0.000000 
#    y 0.000000 2.022160 0.000000 
#    z 0.000000 0.000000 1.954290 
# 
# From -- ./inp_files/19948.got.cif
#   From: 2010.05.17/outbox.cif.g08.bks.cpg/sg20_10_cif.got.tgz:19948.got - 2010.06.03 22:52:26.
