data_PCOD9317363
_publ_section_title
;
Structure prediction by ZEFSAII (Michael W. Deem and Ramdas Pophale) SiO2 
 PCOD9317363
Probable space group: C 2 2 21
;
_chemical_formula_sum "Si O2"
_cell_formula_units_Z 64
_cell_length_a 19.704289
_cell_length_b 9.595520
_cell_length_c 18.149361
_cell_angle_alpha 90.000000
_cell_angle_beta 90.000000
_cell_angle_gamma 90.000000
_cell_volume 3431.552303
_symmetry_space_group_name_H-M "C 2 2 21"
_symmetry_group_IT_number 20
_symmetry_cell_setting 'orthorhombic'
loop_
_space_group_symop_operation_xyz
x,y,z
-x,-y,1/2+z
x,-y,-z
-x,y,1/2-z
1/2+x,1/2+y,z
1/2-x,1/2-y,1/2+z
1/2+x,1/2-y,-z
1/2-x,1/2+y,1/2-z
loop_
_atom_site_type_symbol
_atom_site_label
_atom_site_fract_x
_atom_site_fract_y
_atom_site_fract_z
Si Si1 0.863848 0.875145 0.943271
Si Si2 0.928727 0.809141 0.705978
Si Si3 0.689977 0.183136 0.288203
Si Si4 0.648093 0.862096 0.549347
Si Si5 0.685718 0.520902 0.286909
Si Si6 0.571841 0.985726 0.791206
Si Si7 0.009528 0.621597 0.058977
Si Si8 0.480405 0.358807 0.546160
O O1 0.826572 0.928187 0.870816
O O2 0.941568 0.826920 0.928283
O O3 0.829711 0.754917 0.991150
O O4 0.870610 0.000000 0.000000
O O5 0.879174 0.919496 0.743507
O O6 0.903582 0.647396 0.708580
O O7 0.938977 0.851408 0.621111
O O8 0.000000 0.812608 0.750000
O O9 0.689150 0.142556 0.374848
O O10 0.692049 0.352409 0.282605
O O11 0.751185 0.103957 0.247632
O O12 0.623180 0.117056 0.250068
O O13 0.569205 0.837518 0.575157
O O14 0.650762 0.000000 0.500000
O O15 0.500000 0.987036 0.750000
O O16 0.552675 0.929739 0.872102
O O17 0.003764 0.500000 0.000000
O O18 0.042312 0.746279 0.013640
O O19 0.479158 0.500000 0.500000
#
# Coordination Sequence:
#
# PCOD9317363 Si02
#       8
#     8   8   8   8   8   8   8   8
#     4  10  20  41  65  95 124 169 215 268 321 388
#     4  11  23  40  65  98 131 170 210 265 331 385
#     4  12  27  46  64  98 131 179 218 270 326 392
#     4  10  22  37  69  97 128 164 221 266 317 389
#     4  12  27  45  67  92 137 174 223 268 331 389
#     4  11  23  39  66  97 133 167 214 265 327 386
#     4  10  19  37  60  96 132 168 210 267 323 383
#     4  10  21  35  62  97 132 163 215 269 326 382
#
# _framework density 18.650452999999999
#
# number of rings (size 3 to 8) (size 9 to 14) (size 15 to 20)
#    0.000    1.250    5.000    0.750    5.250    0.500 
#    0.000    2.500    0.000    0.000    0.000    0.000 
#    0.000    0.000    0.000    0.000    0.000    0.000 
#
# Total GULP energy -178491.314427 kJ/mol
# GULP energy per Si atom -5577.853576 kJ/mol
# Density = 1.860800 g / cm^3
# Si number density = 18.650453 Si / 1000 Ang^3
#
#
#
# Elastic Constant Matrix: (Units=GPa)
#
#
# Indices 1 2 3 4 5 6 
#
# 1 55.6283 36.1689 39.5779 0.0000 0.0000 0.0000
# 2 36.1689 118.8401 62.1639 0.0000 0.0000 0.0000
# 3 39.5779 62.1639 150.5637 0.0000 0.0000 0.0000
# 4 0.0000 0.0000 0.0000 31.4803 0.0000 0.0000
# 5 0.0000 0.0000 0.0000 0.0000 41.2073 0.0000
# 6 0.0000 0.0000 0.0000 0.0000 0.0000 28.0042
#
#
#
# Elastic Compliance Matrix: (Units=1/GPa)
#
#
# Indices 1 2 3 4 5 6 
#
# 1 0.024387 -0.005190 -0.004268 0.000000 0.000000 0.000000
# 2 -0.005190 0.011837 -0.003523 0.000000 0.000000 0.000000
# 3 -0.004268 -0.003523 0.009218 0.000000 0.000000 0.000000
# 4 0.000000 0.000000 0.000000 0.031766 0.000000 0.000000
# 5 0.000000 0.000000 0.000000 0.000000 0.024268 0.000000
# 6 0.000000 0.000000 0.000000 0.000000 0.000000 0.035709
#
#
# Mechanical properties :
#
#
# Convention : Reuss Voigt Hill
#
# Bulk Modulus (GPa) = 51.33157 66.76151 59.04654
# Shear Modulus (GPa) = 29.47425 32.61313 31.04369
#
# Velocity S-wave (km/s) = 3.97967 4.18622 4.08426
# Velocity P-wave (km/s) = 6.97852 7.69674 7.34642
#
# Compressibility (1/GPa) = 0.01948119
#
# Stress axis : x y z
#
# Youngs Moduli (GPa) = 41.00504 84.48083 108.48203
#
# Poissons Ratio (x) = 0.43844 0.46298
# Poissons Ratio (y) = 0.21281 0.38218
# Poissons Ratio (z) = 0.17500 0.29762
#
# Static dielectric constant tensor:
#      x y z
#    x 1.664960 0.000000 0.000000 
#    y 0.000000 1.580420 0.000000 
#    z 0.000000 0.000000 1.626780 
# 
# From -- ./inp_files/25525.got.cif
#   From: 2010.05.17/outbox.cif.g08.bks.cpg/sg20_13_cif.got.tgz:25525.got - 2010.06.03 22:52:26.
