data_PCOD9317956
_publ_section_title
;
Structure prediction by ZEFSAII (Michael W. Deem and Ramdas Pophale) SiO2 
 PCOD9317956
Probable space group: C 2 2 21
;
_chemical_formula_sum "Si O2"
_cell_formula_units_Z 40
_cell_length_a 8.145405
_cell_length_b 22.161238
_cell_length_c 8.979513
_cell_angle_alpha 90.000000
_cell_angle_beta 90.000000
_cell_angle_gamma 90.000000
_cell_volume 1620.912175
_symmetry_space_group_name_H-M "C 2 2 21"
_symmetry_group_IT_number 20
_symmetry_cell_setting 'orthorhombic'
loop_
_space_group_symop_operation_xyz
x,y,z
-x,-y,1/2+z
x,-y,-z
-x,y,1/2-z
1/2+x,1/2+y,z
1/2-x,1/2-y,1/2+z
1/2+x,1/2-y,-z
1/2-x,1/2+y,1/2-z
loop_
_atom_site_type_symbol
_atom_site_label
_atom_site_fract_x
_atom_site_fract_y
_atom_site_fract_z
Si Si1 0.140193 0.747102 0.367974
Si Si2 0.344122 0.937525 0.570638
Si Si3 0.680211 0.376811 0.826791
Si Si4 0.552957 0.826743 0.088213
Si Si5 0.486790 0.563729 0.573582
O O1 0.236857 0.688185 0.307447
O O2 0.265570 0.800191 0.397471
O O3 0.000000 0.763301 0.250000
O O4 0.057673 0.726572 0.522233
O O5 0.289550 0.928061 0.742328
O O6 0.456489 0.881728 0.525749
O O7 0.171877 0.927274 0.484328
O O8 0.406928 0.000000 0.500000
O O9 0.500000 0.377931 0.750000
O O10 0.638516 0.389162 0.999722
O O11 0.500000 0.847170 0.250000
O O12 0.436325 0.500000 0.500000
O O13 0.500000 0.561805 0.750000
#
# Coordination Sequence:
#
# PCOD9317956 Si02
#       5
#     8   8   8   8   8
#     4  12  26  49  73 105 145 191 241 308 382 445
#     4  10  22  45  69 101 151 194 245 304 364 452
#     4  10  22  43  72 101 143 197 241 299 373 438
#     4  12  28  46  73 111 142 192 252 310 375 445
#     4  10  20  36  67 104 141 190 246 299 360 445
#
# _framework density 24.677464000000001
#
# number of rings (size 3 to 8) (size 9 to 14) (size 15 to 20)
#    0.000    1.200    2.000    4.800    8.400    0.800 
#    3.600    0.000    0.000    0.000    0.000    0.000 
#    0.000    0.000    0.000    0.000    0.000    0.000 
#
# Total GULP energy -112043.924738 kJ/mol
# GULP energy per Si atom -5602.196237 kJ/mol
# Density = 2.462130 g / cm^3
# Si number density = 24.677464 Si / 1000 Ang^3
#
#
#
# Elastic Constant Matrix: (Units=GPa)
#
#
# Indices 1 2 3 4 5 6 
#
# 1 62.0572 29.8621 21.7396 0.0000 0.0000 0.0000
# 2 29.8621 111.6621 22.8431 0.0000 0.0000 0.0000
# 3 21.7396 22.8431 171.8776 0.0000 0.0000 0.0000
# 4 0.0000 0.0000 0.0000 20.5475 0.0000 0.0000
# 5 0.0000 0.0000 0.0000 0.0000 42.8845 0.0000
# 6 0.0000 0.0000 0.0000 0.0000 0.0000 24.5764
#
#
#
# Elastic Compliance Matrix: (Units=1/GPa)
#
#
# Indices 1 2 3 4 5 6 
#
# 1 0.019008 -0.004720 -0.001777 0.000000 0.000000 0.000000
# 2 -0.004720 0.010378 -0.000782 0.000000 0.000000 0.000000
# 3 -0.001777 -0.000782 0.006147 0.000000 0.000000 0.000000
# 4 0.000000 0.000000 0.000000 0.048668 0.000000 0.000000
# 5 0.000000 0.000000 0.000000 0.000000 0.023318 0.000000
# 6 0.000000 0.000000 0.000000 0.000000 0.000000 0.040689
#
#
# Mechanical properties :
#
#
# Convention : Reuss Voigt Hill
#
# Bulk Modulus (GPa) = 47.67688 54.94296 51.30992
# Shear Modulus (GPa) = 29.45376 35.67849 32.56612
#
# Velocity S-wave (km/s) = 3.45853 3.80648 3.63667
# Velocity P-wave (km/s) = 5.94226 6.45227 6.20251
#
# Compressibility (1/GPa) = 0.02097453
#
# Stress axis : x y z
#
# Youngs Moduli (GPa) = 52.60995 96.35897 162.68614
#
# Poissons Ratio (x) = 0.45480 0.28907
# Poissons Ratio (y) = 0.24831 0.12727
# Poissons Ratio (z) = 0.09348 0.07538
#
# Static dielectric constant tensor:
#      x y z
#    x 1.995500 0.000000 0.000000 
#    y 0.000000 1.957950 0.000000 
#    z 0.000000 0.000000 1.955900 
# 
# From -- ./inp_files/6075.got.cif
#   From: 2010.05.17/outbox.cif.g08.bks.cpg/sg20_4_cif.got.tgz:6075.got - 2010.06.03 22:52:26.
