data_PCOD9317185
_publ_section_title
;
Structure prediction by ZEFSAII (Michael W. Deem and Ramdas Pophale) SiO2 
 PCOD9317185
Probable space group: C 2 2 21
;
_chemical_formula_sum "Si O2"
_cell_formula_units_Z 40
_cell_length_a 14.562164
_cell_length_b 16.073811
_cell_length_c 8.618570
_cell_angle_alpha 90.000000
_cell_angle_beta 90.000000
_cell_angle_gamma 90.000000
_cell_volume 2017.344128
_symmetry_space_group_name_H-M "C 2 2 21"
_symmetry_group_IT_number 20
_symmetry_cell_setting 'orthorhombic'
loop_
_space_group_symop_operation_xyz
x,y,z
-x,-y,1/2+z
x,-y,-z
-x,y,1/2-z
1/2+x,1/2+y,z
1/2-x,1/2-y,1/2+z
1/2+x,1/2-y,-z
1/2-x,1/2+y,1/2-z
loop_
_atom_site_type_symbol
_atom_site_label
_atom_site_fract_x
_atom_site_fract_y
_atom_site_fract_z
Si Si1 0.289759 0.927457 0.618885
Si Si2 0.080880 0.069033 0.371858
Si Si3 0.307062 0.257806 0.435809
Si Si4 0.501610 0.256165 0.572831
Si Si5 0.144304 0.322350 0.624676
O O1 0.185957 0.941033 0.680176
O O2 0.288888 0.839700 0.526194
O O3 0.349293 0.905326 0.770872
O O4 0.315803 0.000000 0.500000
O O5 0.066724 0.163015 0.431013
O O6 0.000000 0.058054 0.250000
O O7 0.066654 0.000000 0.500000
O O8 0.399869 0.282748 0.523449
O O9 0.222062 0.313037 0.491898
O O10 0.329031 0.249250 0.252293
O O11 0.500000 0.225479 0.750000
O O12 0.545986 0.192497 0.452085
#
# Coordination Sequence:
#
# PCOD9317185 Si02
#       5
#     8   8   8   8   8
#     4   9  20  38  60  81 125 170 206 259 329 376
#     4  10  20  36  56  86 127 165 196 254 315 379
#     4  10  20  34  61  86 122 161 213 254 315 380
#     4  11  20  36  60  91 124 165 213 263 312 384
#     4  10  19  35  58  92 117 168 207 262 317 374
#
# _framework density 19.828049
#
# number of rings (size 3 to 8) (size 9 to 14) (size 15 to 20)
#    1.200    0.800    2.000    4.200    0.000    1.600 
#    0.000    0.000    4.400    0.000    0.000    1.400 
#    0.000    0.000    0.000    0.000    0.000    0.000 
#
# Total GULP energy -111348.033255 kJ/mol
# GULP energy per Si atom -5567.401663 kJ/mol
# Density = 1.978292 g / cm^3
# Si number density = 19.828049 Si / 1000 Ang^3
#
#
#
# Elastic Constant Matrix: (Units=GPa)
#
#
# Indices 1 2 3 4 5 6 
#
# 1 39.0155 1.5962 9.4462 0.0000 0.0000 0.0000
# 2 1.5962 55.6524 28.9204 0.0000 0.0000 0.0000
# 3 9.4462 28.9204 70.1080 0.0000 0.0000 0.0000
# 4 0.0000 0.0000 0.0000 25.5214 0.0000 0.0000
# 5 0.0000 0.0000 0.0000 0.0000 83.2254 0.0000
# 6 0.0000 0.0000 0.0000 0.0000 0.0000 74.9583
#
#
#
# Elastic Compliance Matrix: (Units=1/GPa)
#
#
# Indices 1 2 3 4 5 6 
#
# 1 0.026580 0.001399 -0.004158 0.000000 0.000000 0.000000
# 2 0.001399 0.022945 -0.009654 0.000000 0.000000 0.000000
# 3 -0.004158 -0.009654 0.018806 0.000000 0.000000 0.000000
# 4 0.000000 0.000000 0.000000 0.039183 0.000000 0.000000
# 5 0.000000 0.000000 0.000000 0.000000 0.012016 0.000000
# 6 0.000000 0.000000 0.000000 0.000000 0.000000 0.013341
#
#
# Mechanical properties :
#
#
# Convention : Reuss Voigt Hill
#
# Bulk Modulus (GPa) = 22.98583 27.18906 25.08745
# Shear Modulus (GPa) = 29.03613 45.06192 37.04902
#
# Velocity S-wave (km/s) = 3.83090 4.77239 4.32732
# Velocity P-wave (km/s) = 5.58439 6.64152 6.13576
#
# Compressibility (1/GPa) = 0.04350506
#
# Stress axis : x y z
#
# Youngs Moduli (GPa) = 37.62173 43.58213 53.17389
#
# Poissons Ratio (x) = -0.06095 0.22111
# Poissons Ratio (y) = -0.05262 0.51332
# Poissons Ratio (z) = 0.15644 0.42072
#
# Static dielectric constant tensor:
#      x y z
#    x 1.732640 0.000000 0.000000 
#    y 0.000000 1.696210 0.000000 
#    z 0.000000 0.000000 1.659160 
# 
# From -- ./inp_files/8545.got.cif
#   From: 2010.05.17/outbox.cif.g08.bks.cpg/sg20_5_cif.got.tgz:8545.got - 2010.06.03 22:52:26.
