data_PCOD9317159
_publ_section_title
;
Structure prediction by ZEFSAII (Michael W. Deem and Ramdas Pophale) SiO2 
 PCOD9317159
Probable space group: C 2 2 21
;
_chemical_formula_sum "Si O2"
_cell_formula_units_Z 64
_cell_length_a 19.046475
_cell_length_b 20.839667
_cell_length_c 9.003083
_cell_angle_alpha 90.000000
_cell_angle_beta 90.000000
_cell_angle_gamma 90.000000
_cell_volume 3573.523480
_symmetry_space_group_name_H-M "C 2 2 21"
_symmetry_group_IT_number 20
_symmetry_cell_setting 'orthorhombic'
loop_
_space_group_symop_operation_xyz
x,y,z
-x,-y,1/2+z
x,-y,-z
-x,y,1/2-z
1/2+x,1/2+y,z
1/2-x,1/2-y,1/2+z
1/2+x,1/2-y,-z
1/2-x,1/2+y,1/2-z
loop_
_atom_site_type_symbol
_atom_site_label
_atom_site_fract_x
_atom_site_fract_y
_atom_site_fract_z
Si Si1 0.072654 0.704195 0.678657
Si Si2 0.333727 0.298550 0.657566
Si Si3 0.211284 0.497955 0.173380
Si Si4 0.205627 0.065868 0.084905
Si Si5 0.216105 0.371576 0.325506
Si Si6 0.795145 0.257963 0.656807
Si Si7 0.070148 0.535554 0.342339
Si Si8 0.928897 0.309982 0.837695
O O1 0.098763 0.766363 0.768748
O O2 0.137394 0.654339 0.690356
O O3 0.067006 0.717730 0.503714
O O4 0.000000 0.680535 0.750000
O O5 0.343362 0.371558 0.601364
O O6 0.271430 0.298352 0.781602
O O7 0.310119 0.251892 0.519538
O O8 0.266079 0.544259 0.255465
O O9 0.232634 0.425919 0.209937
O O10 0.137325 0.511527 0.252032
O O11 0.204793 0.500000 0.000000
O O12 0.269465 0.095157 0.985185
O O13 0.182501 0.000000 0.000000
O O14 0.269714 0.313635 0.303770
O O15 0.862664 0.283641 0.744745
O O16 0.068203 0.500000 0.500000
O O17 0.074945 0.612764 0.355461
O O18 0.000000 0.520734 0.250000
O O19 0.000000 0.294985 0.750000
#
# Coordination Sequence:
#
# PCOD9317159 Si02
#       8
#     8   8   8   8   8   8   8   8
#     4  11  22  35  52  78 109 142 180 220 268 322
#     4  10  20  34  57  80 106 144 179 224 271 318
#     4  11  21  31  49  77 103 134 177 220 262 309
#     4   9  18  36  55  76 105 138 177 218 266 318
#     4   9  20  35  54  74 104 146 179 221 267 313
#     4  10  19  35  53  77 106 137 181 219 268 321
#     4  11  23  37  51  70 102 144 186 219 256 307
#     4  11  23  37  55  78 109 147 182 225 271 318
#
# _framework density 17.909495
#
# number of rings (size 3 to 8) (size 9 to 14) (size 15 to 20)
#    0.000    1.750    0.000    6.750    0.000    9.000 
#    0.000    0.000    0.000    0.000    0.000   14.000 
#    0.000    0.000    0.000    0.000    0.000    0.000 
#
# Total GULP energy -178466.191174 kJ/mol
# GULP energy per Si atom -5577.068474 kJ/mol
# Density = 1.786873 g / cm^3
# Si number density = 17.909495 Si / 1000 Ang^3
#
#
#
# Elastic Constant Matrix: (Units=GPa)
#
#
# Indices 1 2 3 4 5 6 
#
# 1 52.1571 22.5488 22.6000 0.0000 0.0000 0.0000
# 2 22.5488 92.8738 42.5239 0.0000 0.0000 0.0000
# 3 22.6000 42.5239 132.9648 0.0000 0.0000 0.0000
# 4 0.0000 0.0000 0.0000 10.9672 0.0000 0.0000
# 5 0.0000 0.0000 0.0000 0.0000 26.5638 0.0000
# 6 0.0000 0.0000 0.0000 0.0000 0.0000 12.0563
#
#
#
# Elastic Compliance Matrix: (Units=1/GPa)
#
#
# Indices 1 2 3 4 5 6 
#
# 1 0.022048 -0.004261 -0.002385 0.000000 0.000000 0.000000
# 2 -0.004261 0.013438 -0.003573 0.000000 0.000000 0.000000
# 3 -0.002385 -0.003573 0.009069 0.000000 0.000000 0.000000
# 4 0.000000 0.000000 0.000000 0.091181 0.000000 0.000000
# 5 0.000000 0.000000 0.000000 0.000000 0.037645 0.000000
# 6 0.000000 0.000000 0.000000 0.000000 0.000000 0.082944
#
#
# Mechanical properties :
#
#
# Convention : Reuss Voigt Hill
#
# Bulk Modulus (GPa) = 41.46513 50.37123 45.91818
# Shear Modulus (GPa) = 17.55598 22.60567 20.08082
#
# Velocity S-wave (km/s) = 3.13431 3.55662 3.35212
# Velocity P-wave (km/s) = 6.02506 6.71212 6.37785
#
# Compressibility (1/GPa) = 0.02411665
#
# Stress axis : x y z
#
# Youngs Moduli (GPa) = 45.35475 74.41579 110.26650
#
# Poissons Ratio (x) = 0.31710 0.26296
# Poissons Ratio (y) = 0.19327 0.39402
# Poissons Ratio (z) = 0.10816 0.26592
#
# Static dielectric constant tensor:
#      x y z
#    x 1.603340 0.000000 0.000000 
#    y 0.000000 1.639200 0.000000 
#    z 0.000000 0.000000 1.674610 
# 
# From -- ./inp_files/9635.got.cif
#   From: 2010.05.17/outbox.cif.g08.bks.cpg/sg20_5_cif.got.tgz:9635.got - 2010.06.03 22:52:26.
