data_PCOD9317056
_publ_section_title
;
Structure prediction by ZEFSAII (Michael W. Deem and Ramdas Pophale) SiO2 
 PCOD9317056
Probable space group: C 2 2 21
;
_chemical_formula_sum "Si O2"
_cell_formula_units_Z 32
_cell_length_a 9.077565
_cell_length_b 22.920117
_cell_length_c 7.089433
_cell_angle_alpha 90.000000
_cell_angle_beta 90.000000
_cell_angle_gamma 90.000000
_cell_volume 1475.019290
_symmetry_space_group_name_H-M "C 2 2 21"
_symmetry_group_IT_number 20
_symmetry_cell_setting 'orthorhombic'
loop_
_space_group_symop_operation_xyz
x,y,z
-x,-y,1/2+z
x,-y,-z
-x,y,1/2-z
1/2+x,1/2+y,z
1/2-x,1/2-y,1/2+z
1/2+x,1/2-y,-z
1/2-x,1/2+y,1/2-z
loop_
_atom_site_type_symbol
_atom_site_label
_atom_site_fract_x
_atom_site_fract_y
_atom_site_fract_z
Si Si1 0.357430 0.319602 0.996953
Si Si2 0.201635 0.434432 0.951823
Si Si3 0.905956 0.617543 0.086331
Si Si4 0.680145 0.293384 0.944079
O O1 0.310376 0.385844 0.035922
O O2 0.524301 0.301995 0.043679
O O3 0.342644 0.313755 0.770364
O O4 0.241721 0.271689 0.067261
O O5 0.187467 0.425326 0.723360
O O6 0.034632 0.417642 0.016871
O O7 0.239604 0.500000 0.000000
O O8 0.805108 0.662710 0.977487
O O9 0.000000 0.652313 0.250000
#
# Coordination Sequence:
#
# PCOD9317056 Si02
#       4
#     8   8   8   8
#     4  10  20  31  55  76 106 135 172 212 257 305
#     4   8  15  31  49  68  95 135 166 203 249 299
#     4   7  16  30  51  70  93 134 161 214 252 297
#     4  10  19  34  51  80 101 137 170 210 262 303
#
# _framework density 21.694633
#
# number of rings (size 3 to 8) (size 9 to 14) (size 15 to 20)
#    1.500    1.500    0.000    1.500    0.000    0.000 
#    0.000   11.250    0.000    9.000    0.000    0.000 
#    0.000    0.000    0.000    0.000    0.000    0.000 
#
# Total GULP energy -89076.959809 kJ/mol
# GULP energy per Si atom -5567.309988 kJ/mol
# Density = 2.164525 g / cm^3
# Si number density = 21.694633 Si / 1000 Ang^3
#
#
#
# Elastic Constant Matrix: (Units=GPa)
#
#
# Indices 1 2 3 4 5 6 
#
# 1 129.5005 95.9660 0.8648 0.0000 0.0000 0.0000
# 2 95.9660 209.8512 11.5915 0.0000 0.0000 0.0000
# 3 0.8648 11.5915 41.0326 0.0000 0.0000 0.0000
# 4 0.0000 0.0000 0.0000 6.1993 0.0000 0.0000
# 5 0.0000 0.0000 0.0000 0.0000 4.9410 0.0000
# 6 0.0000 0.0000 0.0000 0.0000 0.0000 23.3046
#
#
#
# Elastic Compliance Matrix: (Units=1/GPa)
#
#
# Indices 1 2 3 4 5 6 
#
# 1 0.011747 -0.005443 0.001290 0.000000 0.000000 0.000000
# 2 -0.005443 0.007363 -0.001965 0.000000 0.000000 0.000000
# 3 0.001290 -0.001965 0.024899 0.000000 0.000000 0.000000
# 4 0.000000 0.000000 0.000000 0.161309 0.000000 0.000000
# 5 0.000000 0.000000 0.000000 0.000000 0.202390 0.000000
# 6 0.000000 0.000000 0.000000 0.000000 0.000000 0.042910
#
#
# Mechanical properties :
#
#
# Convention : Reuss Voigt Hill
#
# Bulk Modulus (GPa) = 31.47414 66.35877 48.91645
# Shear Modulus (GPa) = 10.56087 25.01976 17.79031
#
# Velocity S-wave (km/s) = 2.20874 3.39967 2.86673
# Velocity P-wave (km/s) = 4.58737 6.78707 5.79260
#
# Compressibility (1/GPa) = 0.03177212
#
# Stress axis : x y z
#
# Youngs Moduli (GPa) = 85.12763 135.81297 40.16244
#
# Poissons Ratio (x) = 0.73926 -0.05181
# Poissons Ratio (y) = 0.46337 0.07893
# Poissons Ratio (z) = -0.10982 0.26692
#
# Static dielectric constant tensor:
#      x y z
#    x 1.879020 0.000000 0.000000 
#    y 0.000000 1.754350 0.000000 
#    z 0.000000 0.000000 1.881520 
# 
# From -- ./inp_files/5804.got.cif
#   From: 2010.05.17/outbox.cif.g08.bks.cpg/sg20_3_cif.got.tgz:5804.got - 2010.06.03 22:52:26.
