data_PCOD9317505
_publ_section_title
;
Structure prediction by ZEFSAII (Michael W. Deem and Ramdas Pophale) SiO2 
 PCOD9317505
Probable space group: C 2 2 21
;
_chemical_formula_sum "Si O2"
_cell_formula_units_Z 60
_cell_length_a 18.995388
_cell_length_b 7.196613
_cell_length_c 18.511106
_cell_angle_alpha 90.000000
_cell_angle_beta 90.000000
_cell_angle_gamma 90.000000
_cell_volume 2530.513658
_symmetry_space_group_name_H-M "C 2 2 21"
_symmetry_group_IT_number 20
_symmetry_cell_setting 'orthorhombic'
loop_
_space_group_symop_operation_xyz
x,y,z
-x,-y,1/2+z
x,-y,-z
-x,y,1/2-z
1/2+x,1/2+y,z
1/2-x,1/2-y,1/2+z
1/2+x,1/2-y,-z
1/2-x,1/2+y,1/2-z
loop_
_atom_site_type_symbol
_atom_site_label
_atom_site_fract_x
_atom_site_fract_y
_atom_site_fract_z
Si Si1 0.568293 0.500000 0.500000
Si Si2 0.687396 0.294707 0.813638
Si Si3 0.423096 0.425623 0.264145
Si Si4 0.957446 0.246146 0.583431
Si Si5 0.307834 0.213609 0.971586
Si Si6 0.452892 0.048284 0.182741
Si Si7 0.839124 0.783410 0.527328
Si Si8 0.197642 0.416647 0.323280
O O1 0.514223 0.593925 0.556547
O O2 0.622180 0.663753 0.477438
O O3 0.639834 0.430480 0.763811
O O4 0.645928 0.259041 0.887732
O O5 0.758299 0.398342 0.836313
O O6 0.707739 0.130889 0.760328
O O7 0.500000 0.514125 0.250000
O O8 0.421433 0.336458 0.344315
O O9 0.423466 0.251203 0.209358
O O10 0.900250 0.292840 0.523526
O O11 0.000147 0.421884 0.612799
O O12 0.279988 0.214815 0.888673
O O13 0.240206 0.287038 0.015339
O O14 0.321009 0.000000 0.000000
O O15 0.500000 0.982497 0.250000
O O16 0.385289 0.931490 0.166530
O O17 0.837127 0.000000 0.500000
#
# Coordination Sequence:
#
# PCOD9317505 Si02
#       8
#     4   8   8   8   8   8   8   8
#     4  12  24  38  74 110 124 188 250 286 364 444
#     4  12  24  40  69 100 136 186 239 290 361 444
#     4   9  19  37  65  94 131 175 219 292 348 419
#     4  10  19  39  74  96 133 182 240 286 366 445
#     4  11  25  46  71 101 155 185 236 314 367 432
#     4   9  22  42  64  94 141 178 222 300 368 424
#     4  11  20  44  69  98 138 194 239 296 370 442
#     4  12  25  42  67 101 142 188 235 300 370 436
#
# _framework density 23.710602000000002
#
# number of rings (size 3 to 8) (size 9 to 14) (size 15 to 20)
#    0.000    1.600    4.667    1.600    3.733    2.667 
#    2.400    0.000    4.400    0.000    0.000    0.000 
#    0.000    0.000    0.000    0.000    0.000    0.000 
#
# Total GULP energy -167609.921720 kJ/mol
# GULP energy per Si atom -5586.997391 kJ/mol
# Density = 2.365664 g / cm^3
# Si number density = 23.710602 Si / 1000 Ang^3
#
#
#
# Elastic Constant Matrix: (Units=GPa)
#
#
# Indices 1 2 3 4 5 6 
#
# 1 79.9318 15.0720 8.7512 0.0000 0.0000 0.0000
# 2 15.0720 43.0015 19.0701 0.0000 0.0000 0.0000
# 3 8.7512 19.0701 125.3520 0.0000 0.0000 0.0000
# 4 0.0000 0.0000 0.0000 14.8265 0.0000 0.0000
# 5 0.0000 0.0000 0.0000 0.0000 36.4776 0.0000
# 6 0.0000 0.0000 0.0000 0.0000 0.0000 18.3243
#
#
#
# Elastic Compliance Matrix: (Units=1/GPa)
#
#
# Indices 1 2 3 4 5 6 
#
# 1 0.013403 -0.004593 -0.000237 0.000000 0.000000 0.000000
# 2 -0.004593 0.026511 -0.003713 0.000000 0.000000 0.000000
# 3 -0.000237 -0.003713 0.008559 0.000000 0.000000 0.000000
# 4 0.000000 0.000000 0.000000 0.067447 0.000000 0.000000
# 5 0.000000 0.000000 0.000000 0.000000 0.027414 0.000000
# 6 0.000000 0.000000 0.000000 0.000000 0.000000 0.054572
#
#
# Mechanical properties :
#
#
# Convention : Reuss Voigt Hill
#
# Bulk Modulus (GPa) = 31.85890 37.11911 34.48900
# Shear Modulus (GPa) = 22.17757 27.61846 24.89801
#
# Velocity S-wave (km/s) = 3.06166 3.41664 3.24401
# Velocity P-wave (km/s) = 5.09549 5.59049 5.34872
#
# Compressibility (1/GPa) = 0.03138841
#
# Stress axis : x y z
#
# Youngs Moduli (GPa) = 74.61250 37.71999 116.83757
#
# Poissons Ratio (x) = 0.17323 0.02769
# Poissons Ratio (y) = 0.34266 0.43377
# Poissons Ratio (z) = 0.01768 0.14004
#
# Static dielectric constant tensor:
#      x y z
#    x 1.880900 0.000000 0.000000 
#    y 0.000000 1.950910 0.000000 
#    z 0.000000 0.000000 2.002860 
# 
# From -- ./inp_files/25284.got.cif
#   From: 2010.05.17/outbox.cif.g08.bks.cpg/sg20_13_cif.got.tgz:25284.got - 2010.06.03 22:52:26.
