data_PCOD9317033
_publ_section_title
;
Structure prediction by ZEFSAII (Michael W. Deem and Ramdas Pophale) SiO2 
 PCOD9317033
Probable space group: C 2 2 21
;
_chemical_formula_sum "Si O2"
_cell_formula_units_Z 48
_cell_length_a 11.578199
_cell_length_b 19.558320
_cell_length_c 11.681702
_cell_angle_alpha 90.000000
_cell_angle_beta 90.000000
_cell_angle_gamma 90.000000
_cell_volume 2645.322832
_symmetry_space_group_name_H-M "C 2 2 21"
_symmetry_group_IT_number 20
_symmetry_cell_setting 'orthorhombic'
loop_
_space_group_symop_operation_xyz
x,y,z
-x,-y,1/2+z
x,-y,-z
-x,y,1/2-z
1/2+x,1/2+y,z
1/2-x,1/2-y,1/2+z
1/2+x,1/2-y,-z
1/2-x,1/2+y,1/2-z
loop_
_atom_site_type_symbol
_atom_site_label
_atom_site_fract_x
_atom_site_fract_y
_atom_site_fract_z
Si Si1 0.888845 0.793495 0.823697
Si Si2 0.017089 0.296893 0.524118
Si Si3 0.567478 0.000000 0.000000
Si Si4 0.220034 0.635552 0.020422
Si Si5 0.767039 0.164863 0.759478
Si Si6 0.079972 0.588388 0.645545
Si Si7 0.500000 0.729222 0.750000
O O1 0.815216 0.731801 0.763404
O O2 0.000000 0.814639 0.750000
O O3 0.804662 0.851800 0.873126
O O4 0.942405 0.760932 0.938271
O O5 0.879928 0.307159 0.526671
O O6 0.068858 0.364910 0.467330
O O7 0.051413 0.276955 0.651038
O O8 0.651169 0.935916 0.976525
O O9 0.482315 0.980917 0.105591
O O10 0.273627 0.646155 0.893970
O O11 0.706490 0.100856 0.695208
O O12 0.892788 0.182997 0.711596
O O13 0.000000 0.616118 0.750000
#
# Coordination Sequence:
#
# PCOD9317033 Si02
#       7
#     8   8   4   8   8   8   4
#     4  11  20  34  63  91 125 160 200 259 325 367
#     4  10  19  33  55  92 121 157 194 248 310 372
#     4  10  22  38  64  88 112 172 210 254 298 378
#     4  11  20  38  59  87 125 162 209 250 311 373
#     4  11  20  35  61  87 125 162 194 257 318 379
#     4  10  19  40  64  83 116 159 211 251 309 358
#     4  12  22  30  54  98 130 158 194 242 322 382
#
# _framework density 18.145233000000001
#
# number of rings (size 3 to 8) (size 9 to 14) (size 15 to 20)
#    0.000    1.333    8.333    1.000    0.000    0.000 
#    6.000    0.000    1.833    1.000    0.000    0.000 
#    0.000    0.000    0.000    0.000    0.000    0.000 
#
# Total GULP energy -133601.327065 kJ/mol
# GULP energy per Si atom -5566.721961 kJ/mol
# Density = 1.810393 g / cm^3
# Si number density = 18.145233 Si / 1000 Ang^3
#
#
#
# Elastic Constant Matrix: (Units=GPa)
#
#
# Indices 1 2 3 4 5 6 
#
# 1 89.9171 27.7598 17.2984 0.0000 0.0000 0.0000
# 2 27.7598 62.9166 30.1057 0.0000 0.0000 0.0000
# 3 17.2984 30.1057 83.2737 0.0000 0.0000 0.0000
# 4 0.0000 0.0000 0.0000 18.4864 0.0000 0.0000
# 5 0.0000 0.0000 0.0000 0.0000 34.5968 0.0000
# 6 0.0000 0.0000 0.0000 0.0000 0.0000 22.0105
#
#
#
# Elastic Compliance Matrix: (Units=1/GPa)
#
#
# Indices 1 2 3 4 5 6 
#
# 1 0.012914 -0.005338 -0.000753 0.000000 0.000000 0.000000
# 2 -0.005338 0.021425 -0.006637 0.000000 0.000000 0.000000
# 3 -0.000753 -0.006637 0.014564 0.000000 0.000000 0.000000
# 4 0.000000 0.000000 0.000000 0.054094 0.000000 0.000000
# 5 0.000000 0.000000 0.000000 0.000000 0.028904 0.000000
# 6 0.000000 0.000000 0.000000 0.000000 0.000000 0.045433
#
#
# Mechanical properties :
#
#
# Convention : Reuss Voigt Hill
#
# Bulk Modulus (GPa) = 42.64673 42.93726 42.79200
# Shear Modulus (GPa) = 23.74107 25.74830 24.74468
#
# Velocity S-wave (km/s) = 3.62109 3.77106 3.69684
# Velocity P-wave (km/s) = 6.40602 6.53266 6.46965
#
# Compressibility (1/GPa) = 0.02344846
#
# Stress axis : x y z
#
# Youngs Moduli (GPa) = 77.43497 46.67477 68.66046
#
# Poissons Ratio (x) = 0.24913 0.05170
# Poissons Ratio (y) = 0.41332 0.45569
# Poissons Ratio (z) = 0.05830 0.30978
#
# Static dielectric constant tensor:
#      x y z
#    x 1.656860 0.000000 0.000000 
#    y 0.000000 1.659040 0.000000 
#    z 0.000000 0.000000 1.665830 
# 
# From -- ./inp_files/14280.got.cif
#   From: 2010.05.17/outbox.cif.g08.bks.cpg/sg20_8_cif.got.tgz:14280.got - 2010.06.03 22:52:26.
