data_PCOD9317121
_publ_section_title
;
Structure prediction by ZEFSAII (Michael W. Deem and Ramdas Pophale) SiO2 
 PCOD9317121
Probable space group: C 2 2 21
;
_chemical_formula_sum "Si O2"
_cell_formula_units_Z 56
_cell_length_a 11.270891
_cell_length_b 11.760150
_cell_length_c 21.577285
_cell_angle_alpha 90.000000
_cell_angle_beta 90.000000
_cell_angle_gamma 90.000000
_cell_volume 2860.012352
_symmetry_space_group_name_H-M "C 2 2 21"
_symmetry_group_IT_number 20
_symmetry_cell_setting 'orthorhombic'
loop_
_space_group_symop_operation_xyz
x,y,z
-x,-y,1/2+z
x,-y,-z
-x,y,1/2-z
1/2+x,1/2+y,z
1/2-x,1/2-y,1/2+z
1/2+x,1/2-y,-z
1/2-x,1/2+y,1/2-z
loop_
_atom_site_type_symbol
_atom_site_label
_atom_site_fract_x
_atom_site_fract_y
_atom_site_fract_z
Si Si1 0.044910 0.884673 0.983484
Si Si2 0.756330 0.824153 0.421383
Si Si3 0.828259 0.431363 0.560215
Si Si4 0.657627 0.050007 0.687276
Si Si5 0.876161 0.401985 0.329416
Si Si6 0.579044 0.836784 0.517014
Si Si7 0.270756 0.665737 0.379082
O O1 0.127320 0.889632 0.922666
O O2 0.125978 0.864250 0.044101
O O3 0.969898 0.772113 0.980770
O O4 0.978997 0.000000 0.000000
O O5 0.762137 0.687824 0.428714
O O6 0.736929 0.861158 0.351471
O O7 0.656455 0.891037 0.461930
O O8 0.787296 0.500000 0.500000
O O9 0.824764 0.512912 0.619150
O O10 0.966312 0.399958 0.545160
O O11 0.666808 0.065764 0.760708
O O12 0.519504 0.078452 0.670795
O O13 0.706822 0.926772 0.665110
O O14 0.831009 0.274862 0.346529
O O15 0.669310 0.800268 0.571051
#
# Coordination Sequence:
#
# PCOD9317121 Si02
#       7
#     8   8   8   8   8   8   8
#     4  10  19  34  58  91 125 156 209 254 325 393
#     4  10  21  36  58  88 123 169 205 265 332 381
#     4  11  21  38  62  94 128 161 223 271 327 394
#     4  11  23  43  66  88 127 175 216 270 322 387
#     4  11  25  41  65  95 121 170 224 266 319 398
#     4  10  21  34  62  93 126 163 202 274 328 372
#     4  11  22  41  64  94 127 169 218 263 328 393
#
# _framework density 19.580334000000001
#
# number of rings (size 3 to 8) (size 9 to 14) (size 15 to 20)
#    0.000    1.429    2.857    4.286    2.000    1.714 
#    0.000    0.000    0.000    0.000    0.000    0.000 
#    0.000    0.000    0.000    0.000    0.000    0.000 
#
# Total GULP energy -156163.914265 kJ/mol
# GULP energy per Si atom -5577.282652 kJ/mol
# Density = 1.953577 g / cm^3
# Si number density = 19.580334 Si / 1000 Ang^3
#
#
#
# Elastic Constant Matrix: (Units=GPa)
#
#
# Indices 1 2 3 4 5 6 
#
# 1 77.3787 29.0319 33.4257 0.0000 0.0000 0.0000
# 2 29.0319 126.4635 54.5007 0.0000 0.0000 0.0000
# 3 33.4257 54.5007 137.9897 0.0000 0.0000 0.0000
# 4 0.0000 0.0000 0.0000 36.1527 0.0000 0.0000
# 5 0.0000 0.0000 0.0000 0.0000 14.2496 0.0000
# 6 0.0000 0.0000 0.0000 0.0000 0.0000 17.5565
#
#
#
# Elastic Compliance Matrix: (Units=1/GPa)
#
#
# Indices 1 2 3 4 5 6 
#
# 1 0.014949 -0.002255 -0.002730 0.000000 0.000000 0.000000
# 2 -0.002255 0.009870 -0.003352 0.000000 0.000000 0.000000
# 3 -0.002730 -0.003352 0.009232 0.000000 0.000000 0.000000
# 4 0.000000 0.000000 0.000000 0.027660 0.000000 0.000000
# 5 0.000000 0.000000 0.000000 0.000000 0.070177 0.000000
# 6 0.000000 0.000000 0.000000 0.000000 0.000000 0.056959
#
#
# Mechanical properties :
#
#
# Convention : Reuss Voigt Hill
#
# Bulk Modulus (GPa) = 57.55065 63.97204 60.76135
# Shear Modulus (GPa) = 23.66140 28.58332 26.12236
#
# Velocity S-wave (km/s) = 3.48001 3.82487 3.65651
# Velocity P-wave (km/s) = 6.75302 7.22833 6.99471
#
# Compressibility (1/GPa) = 0.01737600
#
# Stress axis : x y z
#
# Youngs Moduli (GPa) = 66.89388 101.32076 108.31652
#
# Poissons Ratio (x) = 0.22849 0.29576
# Poissons Ratio (y) = 0.15085 0.36306
# Poissons Ratio (z) = 0.18265 0.33962
#
# Static dielectric constant tensor:
#      x y z
#    x 1.716030 0.000000 0.000000 
#    y 0.000000 1.754960 0.000000 
#    z 0.000000 0.000000 1.657810 
# 
# From -- ./inp_files/27201.got.cif
#   From: 2010.05.17/outbox.cif.g08.bks.cpg/sg20_14_cif.got.tgz:27201.got - 2010.06.03 22:52:26.
