data_PCOD9317834
_publ_section_title
;
Structure prediction by ZEFSAII (Michael W. Deem and Ramdas Pophale) SiO2 
 PCOD9317834
Probable space group: C 2 2 21
;
_chemical_formula_sum "Si O2"
_cell_formula_units_Z 60
_cell_length_a 18.832332
_cell_length_b 13.175609
_cell_length_c 12.526506
_cell_angle_alpha 90.000000
_cell_angle_beta 90.000000
_cell_angle_gamma 90.000000
_cell_volume 3108.169903
_symmetry_space_group_name_H-M "C 2 2 21"
_symmetry_group_IT_number 20
_symmetry_cell_setting 'orthorhombic'
loop_
_space_group_symop_operation_xyz
x,y,z
-x,-y,1/2+z
x,-y,-z
-x,y,1/2-z
1/2+x,1/2+y,z
1/2-x,1/2-y,1/2+z
1/2+x,1/2-y,-z
1/2-x,1/2+y,1/2-z
loop_
_atom_site_type_symbol
_atom_site_label
_atom_site_fract_x
_atom_site_fract_y
_atom_site_fract_z
Si Si1 0.085299 0.563023 0.400780
Si Si2 0.165174 0.223793 0.417158
Si Si3 0.811763 0.746590 0.151708
Si Si4 0.500000 0.919681 0.250000
Si Si5 0.912606 0.107471 0.474009
Si Si6 0.787824 0.120508 0.647904
Si Si7 0.811696 0.897060 0.712026
Si Si8 0.005460 0.701322 0.551069
O O1 0.119499 0.500000 0.500000
O O2 0.133782 0.652589 0.356388
O O3 0.058299 0.489058 0.308672
O O4 0.018863 0.618399 0.459083
O O5 0.181571 0.196199 0.539512
O O6 0.218130 0.316787 0.386703
O O7 0.177863 0.132947 0.334680
O O8 0.084135 0.262269 0.413357
O O9 0.822167 0.817481 0.253734
O O10 0.735764 0.693150 0.163784
O O11 0.529676 0.850174 0.154520
O O12 0.843328 0.114437 0.550244
O O13 0.885078 0.103304 0.352663
O O14 0.961798 0.203645 0.489838
O O15 0.948555 0.000000 0.500000
O O16 0.775432 0.005533 0.688032
#
# Coordination Sequence:
#
# PCOD9317834 Si02
#       8
#     8   8   8   4   8   8   8   8
#     4   9  21  35  57  88 115 159 197 238 299 353
#     4  10  21  40  61  89 117 160 201 247 295 361
#     4  10  21  37  60  88 118 156 196 250 293 354
#     4  10  20  36  56  86 120 152 198 244 290 360
#     4  10  21  40  62  90 119 163 201 246 297 361
#     4  10  22  38  61  90 121 156 198 248 307 346
#     4  10  21  37  63  85 120 155 201 246 297 357
#     4  10  21  38  61  85 122 160 199 247 298 357
#
# _framework density 19.303963
#
# number of rings (size 3 to 8) (size 9 to 14) (size 15 to 20)
#    0.000    2.133    1.333    0.800    7.467    0.533 
#    4.800    0.000    0.000    0.000    0.000    0.000 
#    0.000    0.000    0.000    0.000    0.000    0.000 
#
# Total GULP energy -167398.360464 kJ/mol
# GULP energy per Si atom -5579.945349 kJ/mol
# Density = 1.926003 g / cm^3
# Si number density = 19.303963 Si / 1000 Ang^3
#
#
#
# Elastic Constant Matrix: (Units=GPa)
#
#
# Indices 1 2 3 4 5 6 
#
# 1 35.8033 14.8901 16.3984 0.0000 0.0000 0.0000
# 2 14.8901 74.4425 24.9677 0.0000 0.0000 0.0000
# 3 16.3984 24.9677 101.0980 0.0000 0.0000 0.0000
# 4 0.0000 0.0000 0.0000 41.2858 0.0000 0.0000
# 5 0.0000 0.0000 0.0000 0.0000 12.9710 0.0000
# 6 0.0000 0.0000 0.0000 0.0000 0.0000 32.9829
#
#
#
# Elastic Compliance Matrix: (Units=1/GPa)
#
#
# Indices 1 2 3 4 5 6 
#
# 1 0.031825 -0.005053 -0.003914 0.000000 0.000000 0.000000
# 2 -0.005053 0.015449 -0.002996 0.000000 0.000000 0.000000
# 3 -0.003914 -0.002996 0.011266 0.000000 0.000000 0.000000
# 4 0.000000 0.000000 0.000000 0.024221 0.000000 0.000000
# 5 0.000000 0.000000 0.000000 0.000000 0.077095 0.000000
# 6 0.000000 0.000000 0.000000 0.000000 0.000000 0.030319
#
#
# Mechanical properties :
#
#
# Convention : Reuss Voigt Hill
#
# Bulk Modulus (GPa) = 28.89008 35.98400 32.43704
# Shear Modulus (GPa) = 22.15943 27.78711 24.97327
#
# Velocity S-wave (km/s) = 3.39177 3.79813 3.60069
# Velocity P-wave (km/s) = 5.50792 6.15756 5.84178
#
# Compressibility (1/GPa) = 0.03461395
#
# Stress axis : x y z
#
# Youngs Moduli (GPa) = 31.42231 64.73077 88.76174
#
# Poissons Ratio (x) = 0.32707 0.34743
# Poissons Ratio (y) = 0.15877 0.26590
# Poissons Ratio (z) = 0.12299 0.19391
#
# Static dielectric constant tensor:
#      x y z
#    x 1.668960 0.000000 0.000000 
#    y 0.000000 1.678750 0.000000 
#    z 0.000000 0.000000 1.682820 
# 
# From -- ./inp_files/16384.got.cif
#   From: 2010.05.17/outbox.cif.g08.bks.cpg/sg20_9_cif.got.tgz:16384.got - 2010.06.03 22:52:26.
