data_PCOD9317672
_publ_section_title
;
Structure prediction by ZEFSAII (Michael W. Deem and Ramdas Pophale) SiO2 
 PCOD9317672
Probable space group: C 2 2 21
;
_chemical_formula_sum "Si O2"
_cell_formula_units_Z 60
_cell_length_a 5.736244
_cell_length_b 18.578112
_cell_length_c 21.933958
_cell_angle_alpha 90.000000
_cell_angle_beta 90.000000
_cell_angle_gamma 90.000000
_cell_volume 2337.470834
_symmetry_space_group_name_H-M "C 2 2 21"
_symmetry_group_IT_number 20
_symmetry_cell_setting 'orthorhombic'
loop_
_space_group_symop_operation_xyz
x,y,z
-x,-y,1/2+z
x,-y,-z
-x,y,1/2-z
1/2+x,1/2+y,z
1/2-x,1/2-y,1/2+z
1/2+x,1/2-y,-z
1/2-x,1/2+y,1/2-z
loop_
_atom_site_type_symbol
_atom_site_label
_atom_site_fract_x
_atom_site_fract_y
_atom_site_fract_z
Si Si1 0.333089 0.437899 0.148614
Si Si2 0.969464 0.549134 0.394436
Si Si3 0.080019 0.648619 0.497413
Si Si4 0.368181 0.570127 0.314128
Si Si5 0.500000 0.900208 0.250000
Si Si6 0.071434 0.806727 0.477406
Si Si7 0.374590 0.319806 0.881601
Si Si8 0.625817 0.692053 0.814603
O O1 0.531082 0.498787 0.151432
O O2 0.202348 0.440182 0.213936
O O3 0.445963 0.358530 0.147302
O O4 0.140887 0.470166 0.102599
O O5 0.104811 0.579091 0.453393
O O6 0.099480 0.558051 0.329842
O O7 0.763872 0.606518 0.391627
O O8 0.073386 0.723307 0.457191
O O9 0.322332 0.654654 0.535097
O O10 0.823044 0.654272 0.529275
O O11 0.500000 0.571205 0.250000
O O12 0.413856 0.649848 0.341717
O O13 0.641263 0.853190 0.299067
O O14 0.058254 0.795598 0.551309
O O15 0.219397 0.262650 0.846581
O O16 0.500000 0.707038 0.750000
#
# Coordination Sequence:
#
# PCOD9317672 Si02
#       8
#     8   8   8   8   4   8   8   8
#     4  10  20  36  53  75 106 148 200 235 279 346
#     4  10  20  34  53  83 115 142 192 248 297 352
#     4   9  17  32  57  82 117 148 186 237 303 362
#     4  11  21  31  53  79 112 146 186 239 295 340
#     4  10  20  38  54  70  98 154 198 236 262 346
#     4   9  17  34  53  83 119 149 184 236 301 369
#     4  10  22  33  50  83 117 147 186 240 297 353
#     4  10  22  36  53  75 112 159 204 229 287 357
#
# _framework density 25.668771
#
# number of rings (size 3 to 8) (size 9 to 14) (size 15 to 20)
#    0.000    2.133    1.333    2.800    2.800    2.133 
#    0.000    0.000    0.000    0.000    0.000    5.600 
#    0.000    0.000    0.000    0.000    0.000    0.000 
#
# Total GULP energy -167386.699002 kJ/mol
# GULP energy per Si atom -5579.556633 kJ/mol
# Density = 2.561035 g / cm^3
# Si number density = 25.668771 Si / 1000 Ang^3
#
#
#
# Elastic Constant Matrix: (Units=GPa)
#
#
# Indices 1 2 3 4 5 6 
#
# 1 121.5663 17.2580 23.5110 0.0000 0.0000 0.0000
# 2 17.2580 128.3849 36.3410 0.0000 0.0000 0.0000
# 3 23.5110 36.3410 49.4637 0.0000 0.0000 0.0000
# 4 0.0000 0.0000 0.0000 30.9278 0.0000 0.0000
# 5 0.0000 0.0000 0.0000 0.0000 33.0713 0.0000
# 6 0.0000 0.0000 0.0000 0.0000 0.0000 29.5362
#
#
#
# Elastic Compliance Matrix: (Units=1/GPa)
#
#
# Indices 1 2 3 4 5 6 
#
# 1 0.009059 0.000001 -0.004307 0.000000 0.000000 0.000000
# 2 0.000001 0.009834 -0.007226 0.000000 0.000000 0.000000
# 3 -0.004307 -0.007226 0.027573 0.000000 0.000000 0.000000
# 4 0.000000 0.000000 0.000000 0.032333 0.000000 0.000000
# 5 0.000000 0.000000 0.000000 0.000000 0.030238 0.000000
# 6 0.000000 0.000000 0.000000 0.000000 0.000000 0.033857
#
#
# Mechanical properties :
#
#
# Convention : Reuss Voigt Hill
#
# Bulk Modulus (GPa) = 42.72924 50.40388 46.56656
# Shear Modulus (GPa) = 28.77577 33.52739 31.15158
#
# Velocity S-wave (km/s) = 3.35183 3.61800 3.48745
# Velocity P-wave (km/s) = 5.62692 6.09361 5.86491
#
# Compressibility (1/GPa) = 0.02340318
#
# Stress axis : x y z
#
# Youngs Moduli (GPa) = 110.39111 101.68516 36.26763
#
# Poissons Ratio (x) = -0.00014 0.15620
# Poissons Ratio (y) = -0.00015 0.26207
# Poissons Ratio (z) = 0.47543 0.73477
#
# Static dielectric constant tensor:
#      x y z
#    x 2.128620 0.000000 0.000000 
#    y 0.000000 2.045710 0.000000 
#    z 0.000000 0.000000 2.167570 
# 
# From -- ./inp_files/29951.got.cif
#   From: 2010.05.17/outbox.cif.g08.bks.cpg/sg20_15_cif.got.tgz:29951.got - 2010.06.03 22:52:26.
