data_PCOD9317669
_publ_section_title
;
Structure prediction by ZEFSAII (Michael W. Deem and Ramdas Pophale) SiO2 
 PCOD9317669
Probable space group: C 2 2 21
;
_chemical_formula_sum "Si O2"
_cell_formula_units_Z 32
_cell_length_a 11.684647
_cell_length_b 8.387944
_cell_length_c 17.434866
_cell_angle_alpha 90.000000
_cell_angle_beta 90.000000
_cell_angle_gamma 90.000000
_cell_volume 1708.794088
_symmetry_space_group_name_H-M "C 2 2 21"
_symmetry_group_IT_number 20
_symmetry_cell_setting 'orthorhombic'
loop_
_space_group_symop_operation_xyz
x,y,z
-x,-y,1/2+z
x,-y,-z
-x,y,1/2-z
1/2+x,1/2+y,z
1/2-x,1/2-y,1/2+z
1/2+x,1/2-y,-z
1/2-x,1/2+y,1/2-z
loop_
_atom_site_type_symbol
_atom_site_label
_atom_site_fract_x
_atom_site_fract_y
_atom_site_fract_z
Si Si1 0.706677 0.500000 0.500000
Si Si2 0.646142 0.403714 0.886100
Si Si3 0.612243 0.732729 0.624267
Si Si4 0.110351 0.748713 0.043708
Si Si5 0.000000 0.021206 0.750000
O O1 0.633360 0.597107 0.560363
O O2 0.788169 0.377471 0.544476
O O3 0.774096 0.338630 0.871736
O O4 0.647490 0.585106 0.917185
O O5 0.570710 0.414359 0.809773
O O6 0.592486 0.294670 0.953974
O O7 0.499257 0.816538 0.589687
O O8 0.582157 0.639585 0.701849
#
# Coordination Sequence:
#
# PCOD9317669 Si02
#       5
#     4   8   8   8   4
#     4  10  20  34  58  82 102 136 176 220 266 306
#     4   9  19  36  56  76 106 142 172 217 265 306
#     4  10  20  36  55  77 108 140 174 219 263 309
#     4   9  19  36  56  80 102 132 180 220 260 310
#     4  10  20  34  52  78 110 140 176 212 258 320
#
# _framework density 18.726655000000001
#
# number of rings (size 3 to 8) (size 9 to 14) (size 15 to 20)
#    0.000    2.500    0.000    3.000    0.000    8.000 
#    0.000    7.500    0.000    3.000    0.000    0.000 
#    0.000    0.000    0.000    0.000    0.000    0.000 
#
# Total GULP energy -89238.561580 kJ/mol
# GULP energy per Si atom -5577.410099 kJ/mol
# Density = 1.868403 g / cm^3
# Si number density = 18.726655 Si / 1000 Ang^3
#
#
#
# Elastic Constant Matrix: (Units=GPa)
#
#
# Indices 1 2 3 4 5 6 
#
# 1 74.1835 14.2418 39.7167 0.0000 0.0000 0.0000
# 2 14.2418 20.5250 0.8562 0.0000 0.0000 0.0000
# 3 39.7167 0.8562 76.3811 0.0000 0.0000 0.0000
# 4 0.0000 0.0000 0.0000 11.2460 0.0000 0.0000
# 5 0.0000 0.0000 0.0000 0.0000 29.2800 0.0000
# 6 0.0000 0.0000 0.0000 0.0000 0.0000 22.4538
#
#
#
# Elastic Compliance Matrix: (Units=1/GPa)
#
#
# Indices 1 2 3 4 5 6 
#
# 1 0.022597 -0.015197 -0.011580 0.000000 0.000000 0.000000
# 2 -0.015197 0.058964 0.007241 0.000000 0.000000 0.000000
# 3 -0.011580 0.007241 0.019032 0.000000 0.000000 0.000000
# 4 0.000000 0.000000 0.000000 0.088920 0.000000 0.000000
# 5 0.000000 0.000000 0.000000 0.000000 0.034153 0.000000
# 6 0.000000 0.000000 0.000000 0.000000 0.000000 0.044536
#
#
# Mechanical properties :
#
#
# Convention : Reuss Voigt Hill
#
# Bulk Modulus (GPa) = 16.25425 31.19101 23.72263
# Shear Modulus (GPa) = 15.25409 20.34760 17.80085
#
# Velocity S-wave (km/s) = 2.85716 3.29987 3.08646
# Velocity P-wave (km/s) = 4.42527 5.58668 5.03955
#
# Compressibility (1/GPa) = 0.06152238
#
# Stress axis : x y z
#
# Youngs Moduli (GPa) = 44.25329 16.95960 52.54217
#
# Poissons Ratio (x) = 0.25773 0.60843
# Poissons Ratio (y) = 0.67250 -0.38046
# Poissons Ratio (z) = 0.51244 -0.12280
#
# Static dielectric constant tensor:
#      x y z
#    x 1.653580 0.000000 0.000000 
#    y 0.000000 1.629630 0.000000 
#    z 0.000000 0.000000 1.663930 
# 
# From -- ./inp_files/18226.got.cif
#   From: 2010.05.17/outbox.cif.g08.bks.cpg/sg20_10_cif.got.tgz:18226.got - 2010.06.03 22:52:26.
