data_PCOD9317971
_publ_section_title
;
Structure prediction by ZEFSAII (Michael W. Deem and Ramdas Pophale) SiO2 
 PCOD9317971
Probable space group: C 2 2 21
;
_chemical_formula_sum "Si O2"
_cell_formula_units_Z 48
_cell_length_a 11.402966
_cell_length_b 9.074134
_cell_length_c 20.795200
_cell_angle_alpha 90.000000
_cell_angle_beta 90.000000
_cell_angle_gamma 90.000000
_cell_volume 2151.721797
_symmetry_space_group_name_H-M "C 2 2 21"
_symmetry_group_IT_number 20
_symmetry_cell_setting 'orthorhombic'
loop_
_space_group_symop_operation_xyz
x,y,z
-x,-y,1/2+z
x,-y,-z
-x,y,1/2-z
1/2+x,1/2+y,z
1/2-x,1/2-y,1/2+z
1/2+x,1/2-y,-z
1/2-x,1/2+y,1/2-z
loop_
_atom_site_type_symbol
_atom_site_label
_atom_site_fract_x
_atom_site_fract_y
_atom_site_fract_z
Si Si1 0.374144 0.188154 0.752830
Si Si2 0.822410 0.439927 0.930401
Si Si3 0.515373 0.627694 0.152732
Si Si4 0.830055 0.132398 0.665697
Si Si5 0.923347 0.605553 0.403623
Si Si6 0.120243 0.715970 0.954328
O O1 0.500000 0.100582 0.750000
O O2 0.377249 0.282459 0.687790
O O3 0.405392 0.306368 0.809602
O O4 0.253493 0.115279 0.772305
O O5 0.744758 0.558894 0.892327
O O6 0.741718 0.300352 0.944951
O O7 0.938461 0.406015 0.890695
O O8 0.861847 0.500000 0.000000
O O9 0.549156 0.460195 0.165452
O O10 0.522298 0.680507 0.079728
O O11 0.858697 0.301101 0.650379
O O12 0.879849 0.441175 0.418632
O O13 0.906552 0.691873 0.471062
#
# Coordination Sequence:
#
# PCOD9317971 Si02
#       6
#     8   8   8   8   8   8
#     4   8  20  39  58  84 113 153 193 248 288 334
#     4  11  21  37  58  84 123 152 194 236 286 355
#     4   8  20  37  60  83 112 152 195 241 289 346
#     4  11  21  39  62  86 114 160 192 239 300 344
#     4  11  23  34  59  89 118 155 192 239 292 352
#     4  10  20  37  55  87 119 151 194 237 291 345
#
# _framework density 22.307715999999999
#
# number of rings (size 3 to 8) (size 9 to 14) (size 15 to 20)
#    1.000    1.000    3.333    1.000    0.000    2.667 
#    0.000    8.333    0.000    4.000    0.000    0.000 
#    0.000    0.000    0.000    0.000    0.000    0.000 
#
# Total GULP energy -133830.526930 kJ/mol
# GULP energy per Si atom -5576.271955 kJ/mol
# Density = 2.225694 g / cm^3
# Si number density = 22.307716 Si / 1000 Ang^3
#
#
#
# Elastic Constant Matrix: (Units=GPa)
#
#
# Indices 1 2 3 4 5 6 
#
# 1 76.5325 23.0709 -4.0182 0.0000 0.0000 0.0000
# 2 23.0709 34.1131 -3.2910 0.0000 0.0000 0.0000
# 3 -4.0182 -3.2910 23.4553 0.0000 0.0000 0.0000
# 4 0.0000 0.0000 0.0000 19.9147 0.0000 0.0000
# 5 0.0000 0.0000 0.0000 0.0000 26.9366 0.0000
# 6 0.0000 0.0000 0.0000 0.0000 0.0000 9.5914
#
#
#
# Elastic Compliance Matrix: (Units=1/GPa)
#
#
# Indices 1 2 3 4 5 6 
#
# 1 0.016450 -0.011002 0.001274 0.000000 0.000000 0.000000
# 2 -0.011002 0.037075 0.003317 0.000000 0.000000 0.000000
# 3 0.001274 0.003317 0.043318 0.000000 0.000000 0.000000
# 4 0.000000 0.000000 0.000000 0.050214 0.000000 0.000000
# 5 0.000000 0.000000 0.000000 0.000000 0.037124 0.000000
# 6 0.000000 0.000000 0.000000 0.000000 0.000000 0.104260
#
#
# Mechanical properties :
#
#
# Convention : Reuss Voigt Hill
#
# Bulk Modulus (GPa) = 11.90168 18.40270 15.15219
# Shear Modulus (GPa) = 15.18510 19.17782 17.18146
#
# Velocity S-wave (km/s) = 2.61187 2.93524 2.77826
# Velocity P-wave (km/s) = 3.80035 4.44464 4.13507
#
# Compressibility (1/GPa) = 0.08402172
#
# Stress axis : x y z
#
# Youngs Moduli (GPa) = 60.79062 26.97223 23.08508
#
# Poissons Ratio (x) = 0.29675 -0.02942
# Poissons Ratio (y) = 0.66883 -0.07658
# Poissons Ratio (z) = -0.07747 -0.08947
#
# Static dielectric constant tensor:
#      x y z
#    x 1.820190 0.000000 0.000000 
#    y 0.000000 1.848670 0.000000 
#    z 0.000000 0.000000 1.875040 
# 
# From -- ./inp_files/29088.got.cif
#   From: 2010.05.17/outbox.cif.g08.bks.cpg/sg20_15_cif.got.tgz:29088.got - 2010.06.03 22:52:26.
