data_PCOD9317314
_publ_section_title
;
Structure prediction by ZEFSAII (Michael W. Deem and Ramdas Pophale) SiO2 
 PCOD9317314
Probable space group: C 2 2 21
;
_chemical_formula_sum "Si O2"
_cell_formula_units_Z 52
_cell_length_a 15.383982
_cell_length_b 20.314162
_cell_length_c 8.263264
_cell_angle_alpha 90.000000
_cell_angle_beta 90.000000
_cell_angle_gamma 90.000000
_cell_volume 2582.374965
_symmetry_space_group_name_H-M "C 2 2 21"
_symmetry_group_IT_number 20
_symmetry_cell_setting 'orthorhombic'
loop_
_space_group_symop_operation_xyz
x,y,z
-x,-y,1/2+z
x,-y,-z
-x,y,1/2-z
1/2+x,1/2+y,z
1/2-x,1/2-y,1/2+z
1/2+x,1/2-y,-z
1/2-x,1/2+y,1/2-z
loop_
_atom_site_type_symbol
_atom_site_label
_atom_site_fract_x
_atom_site_fract_y
_atom_site_fract_z
Si Si1 0.000000 0.824114 0.250000
Si Si2 0.464742 0.897714 0.483009
Si Si3 0.479468 0.754946 0.082836
Si Si4 0.310900 0.030974 0.672232
Si Si5 0.134522 0.407065 0.674413
Si Si6 0.710296 0.779915 0.525202
Si Si7 0.694388 0.343785 0.252461
O O1 0.092268 0.860651 0.260696
O O2 0.999834 0.780060 0.413076
O O3 0.468640 0.823649 0.418179
O O4 0.409788 0.943850 0.363727
O O5 0.562964 0.915892 0.533158
O O6 0.414153 0.898444 0.653905
O O7 0.500000 0.718259 0.250000
O O8 0.377105 0.770989 0.080380
O O9 0.254182 0.092760 0.725882
O O10 0.280803 0.000000 0.500000
O O11 0.310497 0.972724 0.801781
O O12 0.186864 0.340190 0.644141
O O13 0.720770 0.710641 0.613715
O O14 0.787298 0.805628 0.414447
#
# Coordination Sequence:
#
# PCOD9317314 Si02
#       7
#     4   8   8   8   8   8   8
#     4  10  24  42  64  86 134 166 220 278 332 360
#     4   9  17  35  56  90 134 173 199 244 319 395
#     4  10  19  36  61  95 127 168 212 258 318 394
#     4  10  22  38  61  92 129 173 209 261 318 396
#     4   9  19  39  55  89 135 174 204 255 321 390
#     4  10  23  37  64  94 126 163 215 264 315 381
#     4  11  24  42  65  94 124 170 212 273 318 374
#
# _framework density 20.136502
#
# number of rings (size 3 to 8) (size 9 to 14) (size 15 to 20)
#    0.000    2.154    0.000    3.692    8.615    0.615 
#   38.769    0.000    3.385    0.000    0.000    0.000 
#    0.000    0.000    0.000    0.000    0.000    0.000 
#
# Total GULP energy -145222.438263 kJ/mol
# GULP energy per Si atom -5585.478395 kJ/mol
# Density = 2.009067 g / cm^3
# Si number density = 20.136502 Si / 1000 Ang^3
#
#
#
# Elastic Constant Matrix: (Units=GPa)
#
#
# Indices 1 2 3 4 5 6 
#
# 1 70.2919 34.6005 13.9335 0.0000 0.0000 0.0000
# 2 34.6005 76.8227 14.2927 0.0000 0.0000 0.0000
# 3 13.9335 14.2927 84.0120 0.0000 0.0000 0.0000
# 4 0.0000 0.0000 0.0000 13.1998 0.0000 0.0000
# 5 0.0000 0.0000 0.0000 0.0000 18.0984 0.0000
# 6 0.0000 0.0000 0.0000 0.0000 0.0000 10.9849
#
#
#
# Elastic Compliance Matrix: (Units=1/GPa)
#
#
# Indices 1 2 3 4 5 6 
#
# 1 0.018513 -0.008021 -0.001706 0.000000 0.000000 0.000000
# 2 -0.008021 0.016917 -0.001548 0.000000 0.000000 0.000000
# 3 -0.001706 -0.001548 0.012449 0.000000 0.000000 0.000000
# 4 0.000000 0.000000 0.000000 0.075759 0.000000 0.000000
# 5 0.000000 0.000000 0.000000 0.000000 0.055254 0.000000
# 6 0.000000 0.000000 0.000000 0.000000 0.000000 0.091034
#
#
# Mechanical properties :
#
#
# Convention : Reuss Voigt Hill
#
# Bulk Modulus (GPa) = 39.47779 39.64224 39.56001
# Shear Modulus (GPa) = 16.61585 19.67661 18.14623
#
# Velocity S-wave (km/s) = 2.87568 3.12935 3.00519
# Velocity P-wave (km/s) = 5.53838 5.72596 5.63295
#
# Compressibility (1/GPa) = 0.02533070
#
# Stress axis : x y z
#
# Youngs Moduli (GPa) = 54.01735 59.11081 80.32570
#
# Poissons Ratio (x) = 0.47410 0.13702
# Poissons Ratio (y) = 0.43325 0.12433
# Poissons Ratio (z) = 0.09214 0.09150
#
# Static dielectric constant tensor:
#      x y z
#    x 1.729250 0.000000 0.000000 
#    y 0.000000 1.695670 0.000000 
#    z 0.000000 0.000000 1.781910 
# 
# From -- ./inp_files/8670.got.cif
#   From: 2010.05.17/outbox.cif.g08.bks.cpg/sg20_5_cif.got.tgz:8670.got - 2010.06.03 22:52:26.
