data_PCOD9317571
_publ_section_title
;
Structure prediction by ZEFSAII (Michael W. Deem and Ramdas Pophale) SiO2 
 PCOD9317571
Probable space group: C 2 2 21
;
_chemical_formula_sum "Si O2"
_cell_formula_units_Z 48
_cell_length_a 13.388174
_cell_length_b 16.995824
_cell_length_c 9.419313
_cell_angle_alpha 90.000000
_cell_angle_beta 90.000000
_cell_angle_gamma 90.000000
_cell_volume 2143.299199
_symmetry_space_group_name_H-M "C 2 2 21"
_symmetry_group_IT_number 20
_symmetry_cell_setting 'orthorhombic'
loop_
_space_group_symop_operation_xyz
x,y,z
-x,-y,1/2+z
x,-y,-z
-x,y,1/2-z
1/2+x,1/2+y,z
1/2-x,1/2-y,1/2+z
1/2+x,1/2-y,-z
1/2-x,1/2+y,1/2-z
loop_
_atom_site_type_symbol
_atom_site_label
_atom_site_fract_x
_atom_site_fract_y
_atom_site_fract_z
Si Si1 0.704703 0.775159 0.024328
Si Si2 0.608277 0.542807 0.790529
Si Si3 0.390839 0.228831 0.209285
Si Si4 0.887766 0.551106 0.127897
Si Si5 0.188208 0.442802 0.131780
Si Si6 0.660186 0.605534 0.094520
O O1 0.820614 0.765711 0.082525
O O2 0.658030 0.856573 0.079576
O O3 0.656032 0.698594 0.097622
O O4 0.678584 0.771731 0.854241
O O5 0.500000 0.567445 0.750000
O O6 0.704841 0.570502 0.706477
O O7 0.612978 0.447465 0.783882
O O8 0.617497 0.576734 0.947113
O O9 0.500000 0.263962 0.250000
O O10 0.420656 0.139829 0.159852
O O11 0.881270 0.491774 0.260673
O O12 0.773299 0.573153 0.090030
O O13 0.933374 0.500000 0.000000
O O14 0.203849 0.500000 0.000000
#
# Coordination Sequence:
#
# PCOD9317571 Si02
#       6
#     8   8   8   8   8   8
#     4  11  24  43  72  99 150 188 235 311 364 427
#     4  10  20  36  60  91 128 173 226 285 349 425
#     4  11  26  48  71 108 143 191 245 297 372 440
#     4  10  19  43  69  89 131 185 233 289 353 426
#     4  11  21  37  64  96 129 178 242 289 358 423
#     4   9  19  37  59  87 123 181 223 261 364 418
#
# _framework density 22.395379999999999
#
# number of rings (size 3 to 8) (size 9 to 14) (size 15 to 20)
#    0.000    1.667    5.000    1.000    4.667    2.667 
#    3.000    0.833    0.000    0.000    0.000    0.000 
#    0.000    0.000    0.000    0.000    0.000    0.000 
#
# Total GULP energy -133689.755931 kJ/mol
# GULP energy per Si atom -5570.406497 kJ/mol
# Density = 2.234441 g / cm^3
# Si number density = 22.395380 Si / 1000 Ang^3
#
#
#
# Elastic Constant Matrix: (Units=GPa)
#
#
# Indices 1 2 3 4 5 6 
#
# 1 61.2704 -19.0423 12.1750 0.0000 0.0000 0.0000
# 2 -19.0423 172.2162 -6.5507 0.0000 0.0000 0.0000
# 3 12.1750 -6.5507 65.7600 0.0000 0.0000 0.0000
# 4 0.0000 0.0000 0.0000 30.6850 0.0000 0.0000
# 5 0.0000 0.0000 0.0000 0.0000-1319.0718 0.0000
# 6 0.0000 0.0000 0.0000 0.0000 0.0000 7.0708
#
#
#
# Elastic Compliance Matrix: (Units=1/GPa)
#
#
# Indices 1 2 3 4 5 6 
#
# 1 0.017494 0.001818 -0.003058 0.000000 0.000000 0.000000
# 2 0.001818 0.006018 0.000263 0.000000 0.000000 0.000000
# 3 -0.003058 0.000263 0.015799 0.000000 0.000000 0.000000
# 4 0.000000 0.000000 0.000000 0.032589 0.000000 0.000000
# 5 0.000000 0.000000 0.000000 0.000000 -0.000758 0.000000
# 6 0.000000 0.000000 0.000000 0.000000 0.000000 0.141427
#
#
# Mechanical properties :
#
#
# Convention : Reuss Voigt Hill
#
# Bulk Modulus (GPa) = 26.76892 30.26785 28.51839
# Shear Modulus (GPa) = 22.02892 -235.41891 -106.69499
#
# Velocity S-wave (km/s) = 3.13970 -10.26390 -6.90977
# Velocity P-wave (km/s) = 5.01223 11.26583 7.13430
#
# Compressibility (1/GPa) = 0.03735676
#
# Stress axis : x y z
#
# Youngs Moduli (GPa) = 57.16337 166.17715 63.29472
#
# Poissons Ratio (x) = -0.30211 0.19354
# Poissons Ratio (y) = -0.10392 -0.01664
# Poissons Ratio (z) = 0.17479 -0.04368
#
# Static dielectric constant tensor:
#      x y z
#    x 1.865940 0.000000 0.000000 
#    y 0.000000 10.757010 0.000000 
#    z 0.000000 0.000000 1.856520 
# 
# From -- ./inp_files/8394.got.cif
#   From: 2010.05.17/outbox.cif.g08.bks.cpg/sg20_5_cif.got.tgz:8394.got - 2010.06.03 22:52:26.
