data_PCOD9317095
_publ_section_title
;
Structure prediction by ZEFSAII (Michael W. Deem and Ramdas Pophale) SiO2 
 PCOD9317095
Probable space group: C 2 2 21
;
_chemical_formula_sum "Si O2"
_cell_formula_units_Z 56
_cell_length_a 8.890092
_cell_length_b 15.196484
_cell_length_c 17.724461
_cell_angle_alpha 90.000000
_cell_angle_beta 90.000000
_cell_angle_gamma 90.000000
_cell_volume 2394.541728
_symmetry_space_group_name_H-M "C 2 2 21"
_symmetry_group_IT_number 20
_symmetry_cell_setting 'orthorhombic'
loop_
_space_group_symop_operation_xyz
x,y,z
-x,-y,1/2+z
x,-y,-z
-x,y,1/2-z
1/2+x,1/2+y,z
1/2-x,1/2-y,1/2+z
1/2+x,1/2-y,-z
1/2-x,1/2+y,1/2-z
loop_
_atom_site_type_symbol
_atom_site_label
_atom_site_fract_x
_atom_site_fract_y
_atom_site_fract_z
Si Si1 0.002248 0.552976 0.640171
Si Si2 0.534534 0.864708 0.889717
Si Si3 0.919355 0.814074 0.154768
Si Si4 0.259367 0.907539 0.480233
Si Si5 0.686581 0.628405 0.057304
Si Si6 0.150978 0.934414 0.108511
Si Si7 0.612167 0.760699 0.188797
O O1 0.960240 0.452738 0.661598
O O2 0.913213 0.562240 0.561328
O O3 0.179416 0.564598 0.637806
O O4 0.942124 0.639538 0.679297
O O5 0.523889 0.770313 0.853116
O O6 0.368921 0.872037 0.930924
O O7 0.678645 0.863672 0.944446
O O8 0.832640 0.845830 0.076961
O O9 0.028754 0.896283 0.165599
O O10 0.786670 0.778399 0.208119
O O11 0.178860 0.000000 0.500000
O O12 0.624588 0.535716 0.087744
O O13 0.617241 0.704513 0.110615
O O14 0.652276 0.625064 0.968235
O O15 0.500000 0.718699 0.250000
#
# Coordination Sequence:
#
# PCOD9317095 Si02
#       7
#     8   8   8   8   8   8   8
#     4   9  18  35  57  76 108 153 181 224 286 345
#     4   9  17  32  51  80 111 147 181 212 286 347
#     4  10  22  31  53  84 114 141 188 241 275 329
#     4   9  17  30  46  76 113 147 173 214 278 340
#     4   9  19  34  59  85 122 148 181 236 294 358
#     4  10  19  34  56  93 118 139 184 240 305 345
#     4  10  22  41  58  78 109 158 205 232 280 348
#
# _framework density 23.386520999999998
#
# number of rings (size 3 to 8) (size 9 to 14) (size 15 to 20)
#    0.000    2.571    1.429    0.000    8.000    0.000 
#    0.000    5.000    0.000    0.000    0.000    0.000 
#    0.000    0.000    0.000    0.000    0.000    0.000 
#
# Total GULP energy -156032.046570 kJ/mol
# GULP energy per Si atom -5572.573092 kJ/mol
# Density = 2.333329 g / cm^3
# Si number density = 23.386521 Si / 1000 Ang^3
#
#
#
# Elastic Constant Matrix: (Units=GPa)
#
#
# Indices 1 2 3 4 5 6 
#
# 1 63.9557 24.3157 7.5182 0.0000 0.0000 0.0000
# 2 24.3157 128.1474 31.6110 0.0000 0.0000 0.0000
# 3 7.5182 31.6110 68.2482 0.0000 0.0000 0.0000
# 4 0.0000 0.0000 0.0000 1.4027 0.0000 0.0000
# 5 0.0000 0.0000 0.0000 0.0000 24.9398 0.0000
# 6 0.0000 0.0000 0.0000 0.0000 0.0000 29.6172
#
#
#
# Elastic Compliance Matrix: (Units=1/GPa)
#
#
# Indices 1 2 3 4 5 6 
#
# 1 0.016862 -0.003095 -0.000424 0.000000 0.000000 0.000000
# 2 -0.003095 0.009378 -0.004003 0.000000 0.000000 0.000000
# 3 -0.000424 -0.004003 0.016553 0.000000 0.000000 0.000000
# 4 0.000000 0.000000 0.000000 0.712920 0.000000 0.000000
# 5 0.000000 0.000000 0.000000 0.000000 0.040096 0.000000
# 6 0.000000 0.000000 0.000000 0.000000 0.000000 0.033764
#
#
# Mechanical properties :
#
#
# Convention : Reuss Voigt Hill
#
# Bulk Modulus (GPa) = 36.03603 43.02680 39.53141
# Shear Modulus (GPa) = 5.85570 24.31903 15.08737
#
# Velocity S-wave (km/s) = 1.58408 3.22821 2.54270
# Velocity P-wave (km/s) = 4.33452 5.68622 5.05575
#
# Compressibility (1/GPa) = 0.02775000
#
# Stress axis : x y z
#
# Youngs Moduli (GPa) = 59.30358 106.63047 60.41161
#
# Poissons Ratio (x) = 0.33002 0.02562
# Poissons Ratio (y) = 0.18354 0.24182
# Poissons Ratio (z) = 0.02515 0.42682
#
# Static dielectric constant tensor:
#      x y z
#    x 1.930880 0.000000 0.000000 
#    y 0.000000 1.890850 0.000000 
#    z 0.000000 0.000000 2.035270 
# 
# From -- ./inp_files/26726.got.cif
#   From: 2010.05.17/outbox.cif.g08.bks.cpg/sg20_14_cif.got.tgz:26726.got - 2010.06.03 22:52:26.
