data_PCOD9317833
_publ_section_title
;
Structure prediction by ZEFSAII (Michael W. Deem and Ramdas Pophale) SiO2 
 PCOD9317833
Probable space group: C 2 2 21
;
_chemical_formula_sum "Si O2"
_cell_formula_units_Z 44
_cell_length_a 23.236279
_cell_length_b 5.642669
_cell_length_c 14.081046
_cell_angle_alpha 90.000000
_cell_angle_beta 90.000000
_cell_angle_gamma 90.000000
_cell_volume 1846.231153
_symmetry_space_group_name_H-M "C 2 2 21"
_symmetry_group_IT_number 20
_symmetry_cell_setting 'orthorhombic'
loop_
_space_group_symop_operation_xyz
x,y,z
-x,-y,1/2+z
x,-y,-z
-x,y,1/2-z
1/2+x,1/2+y,z
1/2-x,1/2-y,1/2+z
1/2+x,1/2-y,-z
1/2-x,1/2+y,1/2-z
loop_
_atom_site_type_symbol
_atom_site_label
_atom_site_fract_x
_atom_site_fract_y
_atom_site_fract_z
Si Si1 0.176054 0.940700 0.403999
Si Si2 0.029312 0.979091 0.112240
Si Si3 0.804208 0.256265 0.449262
Si Si4 0.500000 0.148014 0.750000
Si Si5 0.284620 0.749838 0.247129
Si Si6 0.079072 0.747655 0.287704
O O1 0.235370 0.809598 0.433959
O O2 0.141193 0.787038 0.328945
O O3 0.143013 0.000000 0.500000
O O4 0.186937 0.191710 0.352864
O O5 0.071019 0.813107 0.176287
O O6 0.965262 0.905609 0.149308
O O7 0.033401 0.226761 0.164883
O O8 0.037051 0.000000 0.000000
O O9 0.825300 0.500000 0.500000
O O10 0.824674 0.248964 0.340038
O O11 0.812923 0.000000 0.500000
O O12 0.449314 0.004311 0.800082
O O13 0.247444 0.502710 0.256297
#
# Coordination Sequence:
#
# PCOD9317833 Si02
#       6
#     8   8   8   4   8   8
#     4  10  20  36  56  86 119 148 193 248 301 348
#     4   9  18  36  57  77 114 156 187 231 285 351
#     4  10  20  38  60  88 118 160 201 241 302 365
#     4   8  18  36  54  84 112 150 190 236 288 350
#     4  10  20  37  59  85 122 162 195 241 299 363
#     4   9  19  34  53  85 114 145 192 236 289 339
#
# _framework density 23.832336999999999
#
# number of rings (size 3 to 8) (size 9 to 14) (size 15 to 20)
#    0.000    2.909    0.000    3.818    0.000    2.909 
#   29.455    0.909    0.000    0.000    0.000    0.000 
#    0.000    0.000    0.000    0.000    0.000    0.000 
#
# Total GULP energy -122562.464733 kJ/mol
# GULP energy per Si atom -5571.021124 kJ/mol
# Density = 2.377809 g / cm^3
# Si number density = 23.832337 Si / 1000 Ang^3
#
#
#
# Elastic Constant Matrix: (Units=GPa)
#
#
# Indices 1 2 3 4 5 6 
#
# 1 54.1510 12.5502 11.5088 0.0000 0.0000 0.0000
# 2 12.5502 116.0833 40.0201 0.0000 0.0000 0.0000
# 3 11.5088 40.0201 194.5267 0.0000 0.0000 0.0000
# 4 0.0000 0.0000 0.0000 22.8876 0.0000 0.0000
# 5 0.0000 0.0000 0.0000 0.0000 17.1534 0.0000
# 6 0.0000 0.0000 0.0000 0.0000 0.0000-1042.5771
#
#
#
# Elastic Compliance Matrix: (Units=1/GPa)
#
#
# Indices 1 2 3 4 5 6 
#
# 1 0.019044 -0.001798 -0.000757 0.000000 0.000000 0.000000
# 2 -0.001798 0.009442 -0.001836 0.000000 0.000000 0.000000
# 3 -0.000757 -0.001836 0.005563 0.000000 0.000000 0.000000
# 4 0.000000 0.000000 0.000000 0.043692 0.000000 0.000000
# 5 0.000000 0.000000 0.000000 0.000000 0.058298 0.000000
# 6 0.000000 0.000000 0.000000 0.000000 0.000000 -0.000959
#
#
# Mechanical properties :
#
#
# Convention : Reuss Voigt Hill
#
# Bulk Modulus (GPa) = 39.57638 54.76879 47.17259
# Shear Modulus (GPa) = 32.83334 -180.46177 -73.81422
#
# Velocity S-wave (km/s) = 3.71574 -8.71124 -5.57131
# Velocity P-wave (km/s) = 5.92040 8.84026 4.64215
#
# Compressibility (1/GPa) = 0.02526759
#
# Stress axis : x y z
#
# Youngs Moduli (GPa) = 52.50878 105.91081 179.75254
#
# Poissons Ratio (x) = 0.19043 0.13604
# Poissons Ratio (y) = 0.09441 0.33005
# Poissons Ratio (z) = 0.03974 0.19446
#
# Static dielectric constant tensor:
#      x y z
#    x 2.037830 0.000000 0.000000 
#    y 0.000000 1.992780 0.000000 
#    z 0.000000 0.000000 2.349230 
# 
# From -- ./inp_files/22117.got.cif
#   From: 2010.05.17/outbox.cif.g08.bks.cpg/sg20_12_cif.got.tgz:22117.got - 2010.06.03 22:52:26.
