data_PCOD9317743
_publ_section_title
;
Structure prediction by ZEFSAII (Michael W. Deem and Ramdas Pophale) SiO2 
 PCOD9317743
Probable space group: C 2 2 21
;
_chemical_formula_sum "Si O2"
_cell_formula_units_Z 52
_cell_length_a 24.426943
_cell_length_b 17.929942
_cell_length_c 6.611003
_cell_angle_alpha 90.000000
_cell_angle_beta 90.000000
_cell_angle_gamma 90.000000
_cell_volume 2895.445254
_symmetry_space_group_name_H-M "C 2 2 21"
_symmetry_group_IT_number 20
_symmetry_cell_setting 'orthorhombic'
loop_
_space_group_symop_operation_xyz
x,y,z
-x,-y,1/2+z
x,-y,-z
-x,y,1/2-z
1/2+x,1/2+y,z
1/2-x,1/2-y,1/2+z
1/2+x,1/2-y,-z
1/2-x,1/2+y,1/2-z
loop_
_atom_site_type_symbol
_atom_site_label
_atom_site_fract_x
_atom_site_fract_y
_atom_site_fract_z
Si Si1 0.168114 0.294593 0.659172
Si Si2 0.579687 0.411509 0.035878
Si Si3 0.942583 0.793028 0.142636
Si Si4 0.765871 0.686962 0.797768
Si Si5 0.000000 0.824114 0.750000
Si Si6 0.786364 0.582550 0.419587
Si Si7 0.698664 0.417935 0.905911
O O1 0.109736 0.257203 0.700851
O O2 0.180538 0.287877 0.419464
O O3 0.220624 0.249273 0.748402
O O4 0.173816 0.377375 0.755684
O O5 0.573198 0.375366 0.261281
O O6 0.575300 0.500000 0.000000
O O7 0.532802 0.374050 0.906713
O O8 0.637414 0.389171 0.934559
O O9 0.000000 0.771133 0.250000
O O10 0.956380 0.786279 0.903370
O O11 0.781928 0.639637 0.603923
O O12 0.736295 0.632563 0.954687
O O13 0.801163 0.500000 0.500000
O O14 0.726561 0.578419 0.312663
O O15 0.699409 0.500000 0.000000
#
# Coordination Sequence:
#
# PCOD9317743 Si02
#       7
#     8   8   8   8   4   8   8
#     4  11  23  37  62  89 122 160 205 253 313 370
#     4  10  22  35  55  79 117 162 206 246 292 348
#     4  10  23  42  58  85 121 158 212 265 304 369
#     4  11  21  35  56  89 124 158 196 248 301 368
#     4  10  24  36  56  76 114 160 208 260 306 340
#     4  11  23  38  59  91 129 159 195 249 311 375
#     4  10  20  35  55  82 121 162 197 238 296 366
#
# _framework density 17.959240000000001
#
# number of rings (size 3 to 8) (size 9 to 14) (size 15 to 20)
#    0.000    1.538    4.615    0.000    5.385    2.462 
#    0.000    0.000    0.000    0.000    4.000    0.000 
#    0.000    0.000    0.000    0.000    0.000    0.000 
#
# Total GULP energy -144760.198277 kJ/mol
# GULP energy per Si atom -5567.699934 kJ/mol
# Density = 1.791836 g / cm^3
# Si number density = 17.959240 Si / 1000 Ang^3
#
#
#
# Elastic Constant Matrix: (Units=GPa)
#
#
# Indices 1 2 3 4 5 6 
#
# 1 87.8512 28.8842 18.3007 0.0000 0.0000 0.0000
# 2 28.8842 66.8366 31.3975 0.0000 0.0000 0.0000
# 3 18.3007 31.3975 90.5034 0.0000 0.0000 0.0000
# 4 0.0000 0.0000 0.0000 30.4952 0.0000 0.0000
# 5 0.0000 0.0000 0.0000 0.0000 19.0361 0.0000
# 6 0.0000 0.0000 0.0000 0.0000 0.0000 24.0741
#
#
#
# Elastic Compliance Matrix: (Units=1/GPa)
#
#
# Indices 1 2 3 4 5 6 
#
# 1 0.013320 -0.005366 -0.000832 0.000000 0.000000 0.000000
# 2 -0.005366 0.020036 -0.005866 0.000000 0.000000 0.000000
# 3 -0.000832 -0.005866 0.013253 0.000000 0.000000 0.000000
# 4 0.000000 0.000000 0.000000 0.032792 0.000000 0.000000
# 5 0.000000 0.000000 0.000000 0.000000 0.052532 0.000000
# 6 0.000000 0.000000 0.000000 0.000000 0.000000 0.041539
#
#
# Mechanical properties :
#
#
# Convention : Reuss Voigt Hill
#
# Bulk Modulus (GPa) = 44.48039 44.70621 44.59330
# Shear Modulus (GPa) = 24.37917 25.82832 25.10375
#
# Velocity S-wave (km/s) = 3.68839 3.79643 3.74280
# Velocity P-wave (km/s) = 6.55440 6.64563 6.60017
#
# Compressibility (1/GPa) = 0.02248182
#
# Stress axis : x y z
#
# Youngs Moduli (GPa) = 75.07305 49.90929 75.45683
#
# Poissons Ratio (x) = 0.26780 0.06278
# Poissons Ratio (y) = 0.40282 0.44263
# Poissons Ratio (z) = 0.06246 0.29277
#
# Static dielectric constant tensor:
#      x y z
#    x 1.646210 0.000000 0.000000 
#    y 0.000000 1.728620 0.000000 
#    z 0.000000 0.000000 1.701850 
# 
# From -- ./inp_files/4275.got.cif
#   From: 2010.05.17/outbox.cif.g08.bks.cpg/sg20_3_cif.got.tgz:4275.got - 2010.06.03 22:52:26.
