data_PCOD9317625
_publ_section_title
;
Structure prediction by ZEFSAII (Michael W. Deem and Ramdas Pophale) SiO2 
 PCOD9317625
Probable space group: C 2 2 21
;
_chemical_formula_sum "Si O2"
_cell_formula_units_Z 40
_cell_length_a 18.265582
_cell_length_b 5.205574
_cell_length_c 21.653458
_cell_angle_alpha 90.000000
_cell_angle_beta 90.000000
_cell_angle_gamma 90.000000
_cell_volume 2058.872255
_symmetry_space_group_name_H-M "C 2 2 21"
_symmetry_group_IT_number 20
_symmetry_cell_setting 'orthorhombic'
loop_
_space_group_symop_operation_xyz
x,y,z
-x,-y,1/2+z
x,-y,-z
-x,y,1/2-z
1/2+x,1/2+y,z
1/2-x,1/2-y,1/2+z
1/2+x,1/2-y,-z
1/2-x,1/2+y,1/2-z
loop_
_atom_site_type_symbol
_atom_site_label
_atom_site_fract_x
_atom_site_fract_y
_atom_site_fract_z
Si Si1 0.597288 0.049320 0.898850
Si Si2 0.981441 0.064460 0.564876
Si Si3 0.173626 0.587513 0.696184
Si Si4 0.743601 0.912254 0.166899
Si Si5 0.519875 0.818637 0.684121
O O1 0.570994 0.327564 0.919401
O O2 0.567852 0.820491 0.942090
O O3 0.682569 0.037550 0.884513
O O4 0.550894 0.982665 0.836737
O O5 0.019801 0.000000 0.500000
O O6 0.029098 0.126491 0.625876
O O7 0.195459 0.865838 0.670596
O O8 0.200907 0.580882 0.767253
O O9 0.089975 0.500312 0.690504
O O10 0.220489 0.366813 0.661999
O O11 0.500000 0.694045 0.750000
#
# Coordination Sequence:
#
# PCOD9317625 Si02
#       5
#     8   8   8   8   8
#     4  10  21  37  60  83 114 150 203 242 282 355
#     4  10  22  38  62  88 114 158 198 249 293 350
#     4  10  20  33  52  83 125 154 182 236 306 347
#     4  10  20  34  53  82 120 156 186 234 301 356
#     4  10  22  36  60  93 119 153 200 252 294 350
#
# _framework density 19.428113
#
# number of rings (size 3 to 8) (size 9 to 14) (size 15 to 20)
#    1.200    0.800    2.000    1.800    2.800    2.400 
#    0.000    0.000    0.000    4.800    0.000    0.000 
#    0.000    0.000    0.000    0.000    0.000    0.000 
#
# Total GULP energy -111379.634049 kJ/mol
# GULP energy per Si atom -5568.981702 kJ/mol
# Density = 1.938389 g / cm^3
# Si number density = 19.428113 Si / 1000 Ang^3
#
#
#
# Elastic Constant Matrix: (Units=GPa)
#
#
# Indices 1 2 3 4 5 6 
#
# 1 36.1670 -14.7034 11.9964 0.0000 0.0000 0.0000
# 2 -14.7034 88.6808 16.3654 0.0000 0.0000 0.0000
# 3 11.9964 16.3654 89.9856 0.0000 0.0000 0.0000
# 4 0.0000 0.0000 0.0000 14.4736 0.0000 0.0000
# 5 0.0000 0.0000 0.0000 0.0000 12.1824 0.0000
# 6 0.0000 0.0000 0.0000 0.0000 0.0000 20.5371
#
#
#
# Elastic Compliance Matrix: (Units=1/GPa)
#
#
# Indices 1 2 3 4 5 6 
#
# 1 0.032009 0.006306 -0.005414 0.000000 0.000000 0.000000
# 2 0.006306 0.012910 -0.003189 0.000000 0.000000 0.000000
# 3 -0.005414 -0.003189 0.012415 0.000000 0.000000 0.000000
# 4 0.000000 0.000000 0.000000 0.069091 0.000000 0.000000
# 5 0.000000 0.000000 0.000000 0.000000 0.082085 0.000000
# 6 0.000000 0.000000 0.000000 0.000000 0.000000 0.048692
#
#
# Mechanical properties :
#
#
# Convention : Reuss Voigt Hill
#
# Bulk Modulus (GPa) = 18.96059 26.90558 22.93308
# Shear Modulus (GPa) = 17.89698 22.85030 20.37364
#
# Velocity S-wave (km/s) = 3.03840 3.43322 3.24183
# Velocity P-wave (km/s) = 4.69997 5.44011 5.08353
#
# Compressibility (1/GPa) = 0.05274098
#
# Stress axis : x y z
#
# Youngs Moduli (GPa) = 31.24108 77.45673 80.55036
#
# Poissons Ratio (x) = -0.48847 0.43612
# Poissons Ratio (y) = -0.19702 0.25685
# Poissons Ratio (z) = 0.16915 0.24699
#
# Static dielectric constant tensor:
#      x y z
#    x 1.646620 0.000000 0.000000 
#    y 0.000000 1.671970 0.000000 
#    z 0.000000 0.000000 1.731420 
# 
# From -- ./inp_files/26005.got.cif
#   From: 2010.05.17/outbox.cif.g08.bks.cpg/sg20_14_cif.got.tgz:26005.got - 2010.06.03 22:52:26.
