data_PCOD9317365
_publ_section_title
;
Structure prediction by ZEFSAII (Michael W. Deem and Ramdas Pophale) SiO2 
 PCOD9317365
Probable space group: C 2 2 21
;
_chemical_formula_sum "Si O2"
_cell_formula_units_Z 64
_cell_length_a 29.643798
_cell_length_b 8.880252
_cell_length_c 12.329392
_cell_angle_alpha 90.000000
_cell_angle_beta 90.000000
_cell_angle_gamma 90.000000
_cell_volume 3245.643356
_symmetry_space_group_name_H-M "C 2 2 21"
_symmetry_group_IT_number 20
_symmetry_cell_setting 'orthorhombic'
loop_
_space_group_symop_operation_xyz
x,y,z
-x,-y,1/2+z
x,-y,-z
-x,y,1/2-z
1/2+x,1/2+y,z
1/2-x,1/2-y,1/2+z
1/2+x,1/2-y,-z
1/2-x,1/2+y,1/2-z
loop_
_atom_site_type_symbol
_atom_site_label
_atom_site_fract_x
_atom_site_fract_y
_atom_site_fract_z
Si Si1 0.007391 0.045273 0.115179
Si Si2 0.102865 0.947266 0.115466
Si Si3 0.857453 0.790952 0.753208
Si Si4 0.801046 0.034349 0.874813
Si Si5 0.923680 0.543160 0.816344
Si Si6 0.355392 0.202375 0.237658
Si Si7 0.694934 0.044626 0.874576
Si Si8 0.521745 0.098788 0.901138
O O1 0.019578 0.220397 0.096462
O O2 0.000000 0.037705 0.250000
O O3 0.049582 0.933314 0.104694
O O4 0.980079 0.000000 0.000000
O O5 0.123616 0.798195 0.164132
O O6 0.111433 0.082902 0.198863
O O7 0.121954 0.000000 0.000000
O O8 0.888804 0.682945 0.827041
O O9 0.834211 0.688271 0.661624
O O10 0.818752 0.886047 0.812816
O O11 0.829849 0.177576 0.836634
O O12 0.748247 0.066517 0.857402
O O13 0.808152 0.000000 0.000000
O O14 0.894270 0.391866 0.823384
O O15 0.944866 0.557554 0.696483
O O16 0.969346 0.551346 0.884490
O O17 0.321583 0.084996 0.292923
O O18 0.687478 0.000000 0.000000
O O19 0.539050 0.000000 0.000000
#
# Coordination Sequence:
#
# PCOD9317365 Si02
#       8
#     8   8   8   8   8   8   8   8
#     4  11  23  42  62  90 126 167 213 265 323 378
#     4  10  20  34  55  86 119 152 202 254 306 363
#     4  10  19  37  61  81 122 161 191 257 303 360
#     4  10  22  39  59  87 122 161 201 245 301 373
#     4  10  22  40  59  84 122 152 214 249 314 367
#     4  10  22  37  60  90 118 159 205 250 303 372
#     4  10  20  36  61  91 120 154 199 247 308 368
#     4  11  23  40  62  87 121 164 204 269 316 374
#
# _framework density 19.718741999999999
#
# number of rings (size 3 to 8) (size 9 to 14) (size 15 to 20)
#    0.000    1.750    2.500    1.500    3.500    4.000 
#    0.000    6.250    0.000   10.500    0.000    0.000 
#    0.000    0.000    0.000    0.000    0.000    0.000 
#
# Total GULP energy -178232.798849 kJ/mol
# GULP energy per Si atom -5569.774964 kJ/mol
# Density = 1.967386 g / cm^3
# Si number density = 19.718742 Si / 1000 Ang^3
#
#
#
# Elastic Constant Matrix: (Units=GPa)
#
#
# Indices 1 2 3 4 5 6 
#
# 1 67.5244 17.7514 7.9737 0.0000 0.0000 0.0000
# 2 17.7514 75.8868 15.7607 0.0000 0.0000 0.0000
# 3 7.9737 15.7607 67.3438 0.0000 0.0000 0.0000
# 4 0.0000 0.0000 0.0000 16.8352 0.0000 0.0000
# 5 0.0000 0.0000 0.0000 0.0000 -13.4281 0.0000
# 6 0.0000 0.0000 0.0000 0.0000 0.0000 21.7141
#
#
#
# Elastic Compliance Matrix: (Units=1/GPa)
#
#
# Indices 1 2 3 4 5 6 
#
# 1 0.015852 -0.003488 -0.001061 0.000000 0.000000 0.000000
# 2 -0.003488 0.014618 -0.003008 0.000000 0.000000 0.000000
# 3 -0.001061 -0.003008 0.015679 0.000000 0.000000 0.000000
# 4 0.000000 0.000000 0.000000 0.059399 0.000000 0.000000
# 5 0.000000 0.000000 0.000000 0.000000 -0.074471 0.000000
# 6 0.000000 0.000000 0.000000 0.000000 0.000000 0.046053
#
#
# Mechanical properties :
#
#
# Convention : Reuss Voigt Hill
#
# Bulk Modulus (GPa) = 32.22122 32.63628 32.42875
# Shear Modulus (GPa) = 48.73837 16.30885 32.52361
#
# Velocity S-wave (km/s) = 4.97699 2.87901 4.06566
# Velocity P-wave (km/s) = 7.02874 5.25722 6.20651
#
# Compressibility (1/GPa) = 0.03103545
#
# Stress axis : x y z
#
# Youngs Moduli (GPa) = 63.08522 68.40824 63.78052
#
# Poissons Ratio (x) = 0.23859 0.06765
# Poissons Ratio (y) = 0.22002 0.19186
# Poissons Ratio (z) = 0.06691 0.20578
#
# Static dielectric constant tensor:
#      x y z
#    x 1.703000 0.000000 0.000000 
#    y 0.000000 1.677860 0.000000 
#    z 0.000000 0.000000 1.715390 
# 
# From -- ./inp_files/17251.got.cif
#   From: 2010.05.17/outbox.cif.g08.bks.cpg/sg20_9_cif.got.tgz:17251.got - 2010.06.03 22:52:26.
