data_PCOD9317141
_publ_section_title
;
Structure prediction by ZEFSAII (Michael W. Deem and Ramdas Pophale) SiO2 
 PCOD9317141
Probable space group: C 2 2 21
;
_chemical_formula_sum "Si O2"
_cell_formula_units_Z 64
_cell_length_a 19.193225
_cell_length_b 9.280704
_cell_length_c 18.743807
_cell_angle_alpha 90.000000
_cell_angle_beta 90.000000
_cell_angle_gamma 90.000000
_cell_volume 3338.771362
_symmetry_space_group_name_H-M "C 2 2 21"
_symmetry_group_IT_number 20
_symmetry_cell_setting 'orthorhombic'
loop_
_space_group_symop_operation_xyz
x,y,z
-x,-y,1/2+z
x,-y,-z
-x,y,1/2-z
1/2+x,1/2+y,z
1/2-x,1/2-y,1/2+z
1/2+x,1/2-y,-z
1/2-x,1/2+y,1/2-z
loop_
_atom_site_type_symbol
_atom_site_label
_atom_site_fract_x
_atom_site_fract_y
_atom_site_fract_z
Si Si1 0.425527 0.417814 0.064408
Si Si2 0.291297 0.535543 0.130963
Si Si3 0.459912 0.618146 0.684963
Si Si4 0.375764 0.357855 0.737590
Si Si5 0.330255 0.816497 0.696060
Si Si6 0.748679 0.224022 0.345280
Si Si7 0.871977 0.591589 0.072617
Si Si8 0.078026 0.455755 0.279811
O O1 0.359101 0.522612 0.081036
O O2 0.482056 0.403663 0.126083
O O3 0.398824 0.253784 0.055925
O O4 0.461597 0.500000 0.000000
O O5 0.327861 0.553176 0.207770
O O6 0.228700 0.650539 0.136589
O O7 0.255113 0.381844 0.121910
O O8 0.500000 0.695608 0.750000
O O9 0.435441 0.462617 0.711768
O O10 0.390093 0.708357 0.669715
O O11 0.326554 0.320393 0.671308
O O12 0.400048 0.212004 0.776050
O O13 0.290788 0.763745 0.768179
O O14 0.369977 0.958123 0.726412
O O15 0.705222 0.114899 0.394260
O O16 0.913298 0.520149 0.139959
O O17 0.874087 0.500000 0.000000
O O18 0.000000 0.467415 0.250000
#
# Coordination Sequence:
#
# PCOD9317141 Si02
#       8
#     8   8   8   8   8   8   8   8
#     4  11  25  43  65  88 129 173 221 267 331 405
#     4  10  19  37  59  90 119 159 208 262 322 376
#     4  12  21  39  63  95 128 169 212 265 327 398
#     4  11  21  33  62  93 123 158 207 263 322 382
#     4  10  19  34  62  88 126 158 205 266 328 373
#     4   9  18  37  57  93 122 155 205 268 319 376
#     4  10  23  41  64  90 126 171 218 269 330 398
#     4  11  22  35  59  96 129 161 211 274 318 390
#
# _framework density 19.168728000000002
#
# number of rings (size 3 to 8) (size 9 to 14) (size 15 to 20)
#    0.000    1.500    3.750    3.000    1.750    0.000 
#    0.000    0.625    2.750    0.750    0.000    0.000 
#    0.000    0.000    0.000    0.000    0.000    0.000 
#
# Total GULP energy -178341.042178 kJ/mol
# GULP energy per Si atom -5573.157568 kJ/mol
# Density = 1.912510 g / cm^3
# Si number density = 19.168728 Si / 1000 Ang^3
#
#
#
# Elastic Constant Matrix: (Units=GPa)
#
#
# Indices 1 2 3 4 5 6 
#
# 1 105.3830 37.7484 37.7174 0.0000 0.0000 0.0000
# 2 37.7484 96.4410 32.0328 0.0000 0.0000 0.0000
# 3 37.7174 32.0328 86.8020 0.0000 0.0000 0.0000
# 4 0.0000 0.0000 0.0000 16.2201 0.0000 0.0000
# 5 0.0000 0.0000 0.0000 0.0000 17.5233 0.0000
# 6 0.0000 0.0000 0.0000 0.0000 0.0000 28.6406
#
#
#
# Elastic Compliance Matrix: (Units=1/GPa)
#
#
# Indices 1 2 3 4 5 6 
#
# 1 0.012153 -0.003422 -0.004018 0.000000 0.000000 0.000000
# 2 -0.003422 0.012781 -0.003230 0.000000 0.000000 0.000000
# 3 -0.004018 -0.003230 0.014458 0.000000 0.000000 0.000000
# 4 0.000000 0.000000 0.000000 0.061652 0.000000 0.000000
# 5 0.000000 0.000000 0.000000 0.000000 0.057067 0.000000
# 6 0.000000 0.000000 0.000000 0.000000 0.000000 0.034916
#
#
# Mechanical properties :
#
#
# Convention : Reuss Voigt Hill
#
# Bulk Modulus (GPa) = 55.39272 55.95812 55.67542
# Shear Modulus (GPa) = 22.68766 24.55195 23.61981
#
# Velocity S-wave (km/s) = 3.44405 3.58276 3.51409
# Velocity P-wave (km/s) = 6.69145 6.80960 6.75078
#
# Compressibility (1/GPa) = 0.01805291
#
# Stress axis : x y z
#
# Youngs Moduli (GPa) = 82.28346 78.23911 69.16517
#
# Poissons Ratio (x) = 0.26777 0.27789
# Poissons Ratio (y) = 0.28161 0.22338
# Poissons Ratio (z) = 0.33060 0.25268
#
# Static dielectric constant tensor:
#      x y z
#    x 1.687650 0.000000 0.000000 
#    y 0.000000 1.690830 0.000000 
#    z 0.000000 0.000000 1.663800 
# 
# From -- ./inp_files/25494.got.cif
#   From: 2010.05.17/outbox.cif.g08.bks.cpg/sg20_13_cif.got.tgz:25494.got - 2010.06.03 22:52:26.
