data_PCOD9317458
_publ_section_title
;
Structure prediction by ZEFSAII (Michael W. Deem and Ramdas Pophale) SiO2 
 PCOD9317458
Probable space group: C 2 2 21
;
_chemical_formula_sum "Si O2"
_cell_formula_units_Z 56
_cell_length_a 11.458619
_cell_length_b 15.410880
_cell_length_c 13.804095
_cell_angle_alpha 90.000000
_cell_angle_beta 90.000000
_cell_angle_gamma 90.000000
_cell_volume 2437.629278
_symmetry_space_group_name_H-M "C 2 2 21"
_symmetry_group_IT_number 20
_symmetry_cell_setting 'orthorhombic'
loop_
_space_group_symop_operation_xyz
x,y,z
-x,-y,1/2+z
x,-y,-z
-x,y,1/2-z
1/2+x,1/2+y,z
1/2-x,1/2-y,1/2+z
1/2+x,1/2-y,-z
1/2-x,1/2+y,1/2-z
loop_
_atom_site_type_symbol
_atom_site_label
_atom_site_fract_x
_atom_site_fract_y
_atom_site_fract_z
Si Si1 0.054474 0.403460 0.544950
Si Si2 0.939801 0.814376 0.949718
Si Si3 0.434557 0.531993 0.349234
Si Si4 0.170570 0.334918 0.365841
Si Si5 0.702988 0.915260 0.937343
Si Si6 0.554219 0.673037 0.854002
Si Si7 0.672646 0.977518 0.717022
O O1 0.054098 0.500000 0.500000
O O2 0.152894 0.359072 0.479561
O O3 0.085432 0.416905 0.656823
O O4 0.920702 0.376220 0.531330
O O5 0.925172 0.742062 0.864973
O O6 0.808765 0.850902 0.954288
O O7 0.021751 0.894767 0.921251
O O8 0.984904 0.785959 0.055760
O O9 0.500000 0.553369 0.250000
O O10 0.463599 0.431183 0.368239
O O11 0.296854 0.534402 0.335143
O O12 0.306142 0.310512 0.350268
O O13 0.143410 0.420134 0.300632
O O14 0.688907 0.948298 0.826967
O O15 0.728384 0.000000 0.000000
O O16 0.500000 0.696637 0.750000
#
# Coordination Sequence:
#
# PCOD9317458 Si02
#       7
#     8   8   8   8   8   8   8
#     4   9  20  41  63  90 126 179 227 262 333 423
#     4  12  24  40  66 105 141 169 229 301 350 398
#     4  10  19  38  66 100 131 178 237 284 334 413
#     4  10  24  43  68 101 139 179 226 291 361 405
#     4  11  23  38  67  97 133 182 230 277 336 418
#     4  10  23  44  73  97 134 190 235 278 349 427
#     4  10  20  43  71  92 131 186 239 272 334 431
#
# _framework density 22.973140000000001
#
# number of rings (size 3 to 8) (size 9 to 14) (size 15 to 20)
#    0.000    1.714    1.429    2.571    6.000    2.286 
#    2.571    4.286    0.000    0.000    0.000    0.000 
#    0.000    0.000    0.000    0.000    0.000    0.000 
#
# Total GULP energy -156372.720550 kJ/mol
# GULP energy per Si atom -5584.740020 kJ/mol
# Density = 2.292085 g / cm^3
# Si number density = 22.973140 Si / 1000 Ang^3
#
#
#
# Elastic Constant Matrix: (Units=GPa)
#
#
# Indices 1 2 3 4 5 6 
#
# 1 70.5522 12.0069 -0.2027 0.0000 0.0000 0.0000
# 2 12.0069 58.2982 4.6356 0.0000 0.0000 0.0000
# 3 -0.2027 4.6356 78.8777 0.0000 0.0000 0.0000
# 4 0.0000 0.0000 0.0000 -0.7458 0.0000 0.0000
# 5 0.0000 0.0000 0.0000 0.0000 35.4274 0.0000
# 6 0.0000 0.0000 0.0000 0.0000 0.0000 40.3098
#
#
#
# Elastic Compliance Matrix: (Units=1/GPa)
#
#
# Indices 1 2 3 4 5 6 
#
# 1 0.014692 -0.003043 0.000217 0.000000 0.000000 0.000000
# 2 -0.003043 0.017864 -0.001058 0.000000 0.000000 0.000000
# 3 0.000217 -0.001058 0.012741 0.000000 0.000000 0.000000
# 4 0.000000 0.000000 0.000000 -1.340838 0.000000 0.000000
# 5 0.000000 0.000000 0.000000 0.000000 0.028227 0.000000
# 6 0.000000 0.000000 0.000000 0.000000 0.000000 0.024808
#
#
# Mechanical properties :
#
#
# Convention : Reuss Voigt Hill
#
# Bulk Modulus (GPa) = 26.64645 26.73420 26.69033
# Shear Modulus (GPa) = -4.09089 27.75084 11.82998
#
# Velocity S-wave (km/s) = -1.33589 3.47936 2.27171
# Velocity P-wave (km/s) = 3.04051 5.27292 4.30397
#
# Compressibility (1/GPa) = 0.03752845
#
# Stress axis : x y z
#
# Youngs Moduli (GPa) = 68.06229 55.97833 78.48945
#
# Poissons Ratio (x) = 0.17035 -0.01700
# Poissons Ratio (y) = 0.20713 0.08302
# Poissons Ratio (z) = -0.01474 0.05921
#
# Static dielectric constant tensor:
#      x y z
#    x 1.837980 0.000000 0.000000 
#    y 0.000000 1.968870 0.000000 
#    z 0.000000 0.000000 1.810080 
# 
# From -- ./inp_files/20065.got.cif
#   From: 2010.05.17/outbox.cif.g08.bks.cpg/sg20_11_cif.got.tgz:20065.got - 2010.06.03 22:52:26.
