data_PCOD9317626
_publ_section_title
;
Structure prediction by ZEFSAII (Michael W. Deem and Ramdas Pophale) SiO2 
 PCOD9317626
Probable space group: C 2 2 21
;
_chemical_formula_sum "Si O2"
_cell_formula_units_Z 48
_cell_length_a 10.029199
_cell_length_b 19.939548
_cell_length_c 11.558834
_cell_angle_alpha 90.000000
_cell_angle_beta 90.000000
_cell_angle_gamma 90.000000
_cell_volume 2311.508979
_symmetry_space_group_name_H-M "C 2 2 21"
_symmetry_group_IT_number 20
_symmetry_cell_setting 'orthorhombic'
loop_
_space_group_symop_operation_xyz
x,y,z
-x,-y,1/2+z
x,-y,-z
-x,y,1/2-z
1/2+x,1/2+y,z
1/2-x,1/2-y,1/2+z
1/2+x,1/2-y,-z
1/2-x,1/2+y,1/2-z
loop_
_atom_site_type_symbol
_atom_site_label
_atom_site_fract_x
_atom_site_fract_y
_atom_site_fract_z
Si Si1 0.190701 0.486859 0.633474
Si Si2 0.620015 0.316506 0.167873
Si Si3 0.865405 0.292374 0.321709
Si Si4 0.944651 0.669726 0.429300
Si Si5 0.261453 0.343825 0.574620
Si Si6 0.373929 0.979486 0.624903
O O1 0.235261 0.500000 0.500000
O O2 0.249782 0.412228 0.643291
O O3 0.207352 0.510473 0.767251
O O4 0.030685 0.500345 0.625769
O O5 0.500000 0.340105 0.250000
O O6 0.751281 0.322555 0.243420
O O7 0.594266 0.237649 0.137485
O O8 0.654121 0.349703 0.044311
O O9 0.880777 0.328858 0.443904
O O10 0.824509 0.216520 0.353782
O O11 0.000000 0.293869 0.250000
O O12 0.894800 0.601718 0.368637
O O13 0.104578 0.671689 0.448798
O O14 0.318661 0.000000 0.500000
#
# Coordination Sequence:
#
# PCOD9317626 Si02
#       6
#     8   8   8   8   8   8
#     4   9  18  33  54  79 111 152 198 241 292 345
#     4  11  21  34  54  79 116 153 187 238 291 348
#     4  11  21  34  52  82 113 148 190 234 288 343
#     4  10  20  33  53  80 115 151 193 236 290 350
#     4  10  20  34  54  81 110 152 193 235 290 350
#     4   9  18  32  51  81 114 154 191 242 299 346
#
# _framework density 20.765657000000001
#
# number of rings (size 3 to 8) (size 9 to 14) (size 15 to 20)
#    0.000    2.000    3.333    1.000    2.333    1.333 
#    3.000    0.000    0.000    1.000    0.000    2.333 
#    0.000    0.000    0.000    0.000    0.000    0.000 
#
# Total GULP energy -133619.122290 kJ/mol
# GULP energy per Si atom -5567.463429 kJ/mol
# Density = 2.071839 g / cm^3
# Si number density = 20.765657 Si / 1000 Ang^3
#
#
#
# Elastic Constant Matrix: (Units=GPa)
#
#
# Indices 1 2 3 4 5 6 
#
# 1 73.7196 12.3850 27.0000 0.0000 0.0000 0.0000
# 2 12.3850 24.4205 20.0730 0.0000 0.0000 0.0000
# 3 27.0000 20.0730 159.3440 0.0000 0.0000 0.0000
# 4 0.0000 0.0000 0.0000 -3.6943 0.0000 0.0000
# 5 0.0000 0.0000 0.0000 0.0000 5.7084 0.0000
# 6 0.0000 0.0000 0.0000 0.0000 0.0000 5.6574
#
#
#
# Elastic Compliance Matrix: (Units=1/GPa)
#
#
# Indices 1 2 3 4 5 6 
#
# 1 0.015277 -0.006269 -0.001799 0.000000 0.000000 0.000000
# 2 -0.006269 0.048252 -0.005016 0.000000 0.000000 0.000000
# 3 -0.001799 -0.005016 0.007212 0.000000 0.000000 0.000000
# 4 0.000000 0.000000 0.000000 -0.270689 0.000000 0.000000
# 5 0.000000 0.000000 0.000000 0.000000 0.175180 0.000000
# 6 0.000000 0.000000 0.000000 0.000000 0.000000 0.176761
#
#
# Mechanical properties :
#
#
# Convention : Reuss Voigt Hill
#
# Bulk Modulus (GPa) = 22.43517 41.82223 32.12870
# Shear Modulus (GPa) = 25.90426 14.73604 20.32015
#
# Velocity S-wave (km/s) = 3.53577 2.66679 3.13157
# Velocity P-wave (km/s) = 5.24369 5.44667 5.34614
#
# Compressibility (1/GPa) = 0.04457287
#
# Stress axis : x y z
#
# Youngs Moduli (GPa) = 65.45791 20.72458 138.64950
#
# Poissons Ratio (x) = 0.12993 0.24941
# Poissons Ratio (y) = 0.41037 0.69548
# Poissons Ratio (z) = 0.11775 0.10396
#
# Static dielectric constant tensor:
#      x y z
#    x 1.714780 0.000000 0.000000 
#    y 0.000000 1.791440 0.000000 
#    z 0.000000 0.000000 2.170920 
# 
# From -- ./inp_files/13082.got.cif
#   From: 2010.05.17/outbox.cif.g08.bks.cpg/sg20_7_cif.got.tgz:13082.got - 2010.06.03 22:52:26.
