data_PCOD9317186
_publ_section_title
;
Structure prediction by ZEFSAII (Michael W. Deem and Ramdas Pophale) SiO2 
 PCOD9317186
Probable space group: C 2 2 21
;
_chemical_formula_sum "Si O2"
_cell_formula_units_Z 48
_cell_length_a 5.731016
_cell_length_b 13.978864
_cell_length_c 22.704504
_cell_angle_alpha 90.000000
_cell_angle_beta 90.000000
_cell_angle_gamma 90.000000
_cell_volume 1818.928046
_symmetry_space_group_name_H-M "C 2 2 21"
_symmetry_group_IT_number 20
_symmetry_cell_setting 'orthorhombic'
loop_
_space_group_symop_operation_xyz
x,y,z
-x,-y,1/2+z
x,-y,-z
-x,y,1/2-z
1/2+x,1/2+y,z
1/2-x,1/2-y,1/2+z
1/2+x,1/2-y,-z
1/2-x,1/2+y,1/2-z
loop_
_atom_site_type_symbol
_atom_site_label
_atom_site_fract_x
_atom_site_fract_y
_atom_site_fract_z
Si Si1 0.500000 0.648113 0.750000
Si Si2 0.698013 0.679002 0.201778
Si Si3 0.128208 0.914615 0.123558
Si Si4 0.618590 0.370619 0.927719
Si Si5 0.500000 0.009002 0.250000
Si Si6 0.867978 0.424269 0.369247
Si Si7 0.621022 0.090125 0.043815
O O1 0.663598 0.726132 0.717423
O O2 0.387262 0.589933 0.695312
O O3 0.500000 0.672188 0.250000
O O4 0.610409 0.680765 0.135270
O O5 0.848394 0.584333 0.212413
O O6 0.388113 0.876342 0.111642
O O7 0.870217 0.876571 0.107580
O O8 0.128239 0.016439 0.090527
O O9 0.371690 0.357429 0.961134
O O10 0.872773 0.354961 0.957870
O O11 0.373534 0.944473 0.299157
O O12 0.866664 0.533420 0.394041
O O13 0.611910 0.000000 0.000000
#
# Coordination Sequence:
#
# PCOD9317186 Si02
#       7
#     4   8   8   8   4   8   8
#     4  11  26  34  52  86 121 164 192 243 278 346
#     4  11  23  35  52  81 125 158 194 231 290 359
#     4  10  20  35  52  78 115 152 195 224 282 341
#     4  10  21  37  59  85 117 161 191 239 301 358
#     4  11  18  32  52  80 111 150 186 223 276 368
#     4  10  20  32  58  82 111 153 188 230 290 349
#     4  10  19  35  58  92 118 140 197 261 300 331
#
# _framework density 26.389168999999999
#
# number of rings (size 3 to 8) (size 9 to 14) (size 15 to 20)
#    0.000    1.667    3.333    3.500    5.833    0.000 
#    0.000    0.000    0.000    0.000    0.000   18.667 
#    0.000    0.000    0.000    0.000    0.000    0.000 
#
# Total GULP energy -133966.385383 kJ/mol
# GULP energy per Si atom -5581.932724 kJ/mol
# Density = 2.632911 g / cm^3
# Si number density = 26.389169 Si / 1000 Ang^3
#
#
#
# Elastic Constant Matrix: (Units=GPa)
#
#
# Indices 1 2 3 4 5 6 
#
# 1 273.4218 32.4872 12.8281 0.0000 0.0000 0.0000
# 2 32.4872 101.1055 12.9816 0.0000 0.0000 0.0000
# 3 12.8281 12.9816 81.2451 0.0000 0.0000 0.0000
# 4 0.0000 0.0000 0.0000 -30.3132 0.0000 0.0000
# 5 0.0000 0.0000 0.0000 0.0000 8.2124 0.0000
# 6 0.0000 0.0000 0.0000 0.0000 0.0000 5.7395
#
#
#
# Elastic Compliance Matrix: (Units=1/GPa)
#
#
# Indices 1 2 3 4 5 6 
#
# 1 0.003816 -0.001173 -0.000415 0.000000 0.000000 0.000000
# 2 -0.001173 0.010458 -0.001486 0.000000 0.000000 0.000000
# 3 -0.000415 -0.001486 0.012611 0.000000 0.000000 0.000000
# 4 0.000000 0.000000 0.000000 -0.032989 0.000000 0.000000
# 5 0.000000 0.000000 0.000000 0.000000 0.121767 0.000000
# 6 0.000000 0.000000 0.000000 0.000000 0.000000 0.174232
#
#
# Mechanical properties :
#
#
# Convention : Reuss Voigt Hill
#
# Bulk Modulus (GPa) = 48.22051 63.59625 55.90838
# Shear Modulus (GPa) = 16.50401 23.22609 19.86505
#
# Velocity S-wave (km/s) = 2.50353 2.96993 2.74665
# Velocity P-wave (km/s) = 5.16424 5.99269 5.59382
#
# Compressibility (1/GPa) = 0.02073806
#
# Stress axis : x y z
#
# Youngs Moduli (GPa) = 262.04129 95.61763 79.29330
#
# Poissons Ratio (x) = 0.11215 0.03292
# Poissons Ratio (y) = 0.30735 0.11782
# Poissons Ratio (z) = 0.10878 0.14208
#
# Static dielectric constant tensor:
#      x y z
#    x 2.435440 0.000000 0.000000 
#    y 0.000000 2.027000 0.000000 
#    z 0.000000 0.000000 2.081300 
# 
# From -- ./inp_files/28370.got.cif
#   From: 2010.05.17/outbox.cif.g08.bks.cpg/sg20_15_cif.got.tgz:28370.got - 2010.06.03 22:52:26.
