data_PCOD9317023
_publ_section_title
;
Structure prediction by ZEFSAII (Michael W. Deem and Ramdas Pophale) SiO2 
 PCOD9317023
Probable space group: C 2 2 21
;
_chemical_formula_sum "Si O2"
_cell_formula_units_Z 40
_cell_length_a 22.202030
_cell_length_b 19.431284
_cell_length_c 4.862089
_cell_angle_alpha 90.000000
_cell_angle_beta 90.000000
_cell_angle_gamma 90.000000
_cell_volume 2097.573022
_symmetry_space_group_name_H-M "C 2 2 21"
_symmetry_group_IT_number 20
_symmetry_cell_setting 'orthorhombic'
loop_
_space_group_symop_operation_xyz
x,y,z
-x,-y,1/2+z
x,-y,-z
-x,y,1/2-z
1/2+x,1/2+y,z
1/2-x,1/2-y,1/2+z
1/2+x,1/2-y,-z
1/2-x,1/2+y,1/2-z
loop_
_atom_site_type_symbol
_atom_site_label
_atom_site_fract_x
_atom_site_fract_y
_atom_site_fract_z
Si Si1 0.819548 0.799143 0.445427
Si Si2 0.069246 0.243132 0.264812
Si Si3 0.430623 0.163631 0.268708
Si Si4 0.339415 0.955142 0.732869
Si Si5 0.252114 0.155015 0.438100
O O1 0.883021 0.804738 0.605458
O O2 0.772004 0.839511 0.631027
O O3 0.798565 0.719041 0.469936
O O4 0.803082 0.827921 0.144339
O O5 0.080604 0.268633 0.576126
O O6 0.000000 0.218360 0.250000
O O7 0.074049 0.312548 0.083526
O O8 0.500000 0.141832 0.250000
O O9 0.383792 0.106252 0.181464
O O10 0.285911 0.917530 0.560284
O O11 0.372064 0.000000 0.500000
O O12 0.322779 0.000000 0.000000
#
# Coordination Sequence:
#
# PCOD9317023 Si02
#       5
#     8   8   8   8   8
#     4  10  19  33  56  75 104 135 177 234 277 349
#     4  10  19  33  55  80 108 139 176 228 285 334
#     4  10  21  35  51  73 106 144 192 235 269 314
#     4  12  24  36  53  72 108 149 195 239 270 321
#     4  10  21  33  52  77 101 138 188 226 282 326
#
# _framework density 19.069659999999999
#
# number of rings (size 3 to 8) (size 9 to 14) (size 15 to 20)
#    0.000    1.600    2.000    3.600    5.600    0.800 
#    0.000    0.000    0.000    0.000    0.000    0.000 
#    0.000    4.800    0.000    0.400    0.400    1.000 
#
# Total GULP energy -111360.089108 kJ/mol
# GULP energy per Si atom -5568.004455 kJ/mol
# Density = 1.902626 g / cm^3
# Si number density = 19.069660 Si / 1000 Ang^3
#
#
#
# Elastic Constant Matrix: (Units=GPa)
#
#
# Indices 1 2 3 4 5 6 
#
# 1 87.8377 22.3222 5.0249 0.0000 0.0000 0.0000
# 2 22.3222 23.3127 6.2931 0.0000 0.0000 0.0000
# 3 5.0249 6.2931 89.1232 0.0000 0.0000 0.0000
# 4 0.0000 0.0000 0.0000 26.0744 0.0000 0.0000
# 5 0.0000 0.0000 0.0000 0.0000 20.6304 0.0000
# 6 0.0000 0.0000 0.0000 0.0000 0.0000 12.3505
#
#
#
# Elastic Compliance Matrix: (Units=1/GPa)
#
#
# Indices 1 2 3 4 5 6 
#
# 1 0.015048 -0.014456 0.000172 0.000000 0.000000 0.000000
# 2 -0.014456 0.057615 -0.003253 0.000000 0.000000 0.000000
# 3 0.000172 -0.003253 0.011440 0.000000 0.000000 0.000000
# 4 0.000000 0.000000 0.000000 0.038352 0.000000 0.000000
# 5 0.000000 0.000000 0.000000 0.000000 0.048472 0.000000
# 6 0.000000 0.000000 0.000000 0.000000 0.000000 0.080968
#
#
# Mechanical properties :
#
#
# Convention : Reuss Voigt Hill
#
# Bulk Modulus (GPa) = 20.39547 29.72824 25.06186
# Shear Modulus (GPa) = 16.48467 22.91995 19.70231
#
# Velocity S-wave (km/s) = 2.94333 3.47061 3.21779
# Velocity P-wave (km/s) = 4.71905 5.62880 5.19388
#
# Compressibility (1/GPa) = 0.04903049
#
# Stress axis : x y z
#
# Youngs Moduli (GPa) = 66.45238 17.35669 87.40938
#
# Poissons Ratio (x) = 0.25090 -0.01506
# Poissons Ratio (y) = 0.96060 0.28436
# Poissons Ratio (z) = -0.01145 0.05647
#
# Static dielectric constant tensor:
#      x y z
#    x 1.729310 0.000000 0.000000 
#    y 0.000000 1.668190 0.000000 
#    z 0.000000 0.000000 1.657840 
# 
# From -- ./inp_files/3093.got.cif
#   From: 2010.05.17/outbox.cif.g08.bks.cpg/sg20_2_cif.got.tgz:3093.got - 2010.06.03 22:52:26.
