data_PCOD9317037
_publ_section_title
;
Structure prediction by ZEFSAII (Michael W. Deem and Ramdas Pophale) SiO2 
 PCOD9317037
Probable space group: C 2 2 21
;
_chemical_formula_sum "Si O2"
_cell_formula_units_Z 64
_cell_length_a 21.882156
_cell_length_b 9.239194
_cell_length_c 16.926479
_cell_angle_alpha 90.000000
_cell_angle_beta 90.000000
_cell_angle_gamma 90.000000
_cell_volume 3422.085238
_symmetry_space_group_name_H-M "C 2 2 21"
_symmetry_group_IT_number 20
_symmetry_cell_setting 'orthorhombic'
loop_
_space_group_symop_operation_xyz
x,y,z
-x,-y,1/2+z
x,-y,-z
-x,y,1/2-z
1/2+x,1/2+y,z
1/2-x,1/2-y,1/2+z
1/2+x,1/2-y,-z
1/2-x,1/2+y,1/2-z
loop_
_atom_site_type_symbol
_atom_site_label
_atom_site_fract_x
_atom_site_fract_y
_atom_site_fract_z
Si Si1 0.847472 0.870324 0.939101
Si Si2 0.418120 0.892718 0.704126
Si Si3 0.010723 0.071112 0.415303
Si Si4 0.813100 0.203760 0.231255
Si Si5 0.979175 0.765312 0.143719
Si Si6 0.126972 0.634379 0.450550
Si Si7 0.698123 0.046751 0.291267
Si Si8 0.442645 0.235474 0.694112
O O1 0.815135 0.872260 0.854686
O O2 0.920003 0.870193 0.919176
O O3 0.832880 0.726755 0.988672
O O4 0.835459 0.000000 0.000000
O O5 0.454421 0.808680 0.635711
O O6 0.446112 0.812460 0.781816
O O7 0.346097 0.892951 0.721018
O O8 0.435753 0.061346 0.695940
O O9 0.963151 0.192577 0.387979
O O10 0.995802 0.000000 0.500000
O O11 0.011809 0.936561 0.353829
O O12 0.762601 0.124986 0.283726
O O13 0.798167 0.373714 0.218393
O O14 0.879941 0.200639 0.271359
O O15 0.930335 0.731437 0.075846
O O16 0.102609 0.500000 0.500000
O O17 0.164309 0.583564 0.373772
O O18 0.500000 0.269124 0.750000
#
# Coordination Sequence:
#
# PCOD9317037 Si02
#       8
#     8   8   8   8   8   8   8   8
#     4  11  22  38  60  94 127 156 207 267 315 366
#     4   9  21  36  58  89 120 159 203 254 300 368
#     4  11  23  36  55  94 129 161 198 252 329 375
#     4  11  24  41  65  91 121 170 210 261 309 371
#     4  10  19  33  56  89 123 154 195 254 309 361
#     4  11  21  37  63  92 125 162 211 260 309 376
#     4  10  24  41  61  91 123 164 219 247 309 378
#     4  11  21  38  63  90 124 156 208 259 317 368
#
# _framework density 18.702048000000001
#
# number of rings (size 3 to 8) (size 9 to 14) (size 15 to 20)
#    0.000    1.500    6.250    0.000    5.250    1.000 
#    0.000    0.625    2.750    0.750    0.000    0.000 
#    0.000    0.000    0.000    0.000    0.000    0.000 
#
# Total GULP energy -178328.073177 kJ/mol
# GULP energy per Si atom -5572.752287 kJ/mol
# Density = 1.865948 g / cm^3
# Si number density = 18.702048 Si / 1000 Ang^3
#
#
#
# Elastic Constant Matrix: (Units=GPa)
#
#
# Indices 1 2 3 4 5 6 
#
# 1 91.8082 25.7804 16.8374 0.0000 0.0000 0.0000
# 2 25.7804 69.2692 15.7299 0.0000 0.0000 0.0000
# 3 16.8374 15.7299 54.5464 0.0000 0.0000 0.0000
# 4 0.0000 0.0000 0.0000 73.1909 0.0000 0.0000
# 5 0.0000 0.0000 0.0000 0.0000 2.5448 0.0000
# 6 0.0000 0.0000 0.0000 0.0000 0.0000 25.4200
#
#
#
# Elastic Compliance Matrix: (Units=1/GPa)
#
#
# Indices 1 2 3 4 5 6 
#
# 1 0.012524 -0.004048 -0.002698 0.000000 0.000000 0.000000
# 2 -0.004048 0.016757 -0.003583 0.000000 0.000000 0.000000
# 3 -0.002698 -0.003583 0.020199 0.000000 0.000000 0.000000
# 4 0.000000 0.000000 0.000000 0.013663 0.000000 0.000000
# 5 0.000000 0.000000 0.000000 0.000000 0.392957 0.000000
# 6 0.000000 0.000000 0.000000 0.000000 0.000000 0.039339
#
#
# Mechanical properties :
#
#
# Convention : Reuss Voigt Hill
#
# Bulk Modulus (GPa) = 34.69698 36.92436 35.81067
# Shear Modulus (GPa) = 9.51104 30.71620 20.11362
#
# Velocity S-wave (km/s) = 2.25756 4.05705 3.28300
# Velocity P-wave (km/s) = 5.03867 6.46007 5.79313
#
# Compressibility (1/GPa) = 0.02882096
#
# Stress axis : x y z
#
# Youngs Moduli (GPa) = 79.84687 59.67769 49.50717
#
# Poissons Ratio (x) = 0.24160 0.13359
# Poissons Ratio (y) = 0.32325 0.17736
# Poissons Ratio (z) = 0.21546 0.21380
#
# Static dielectric constant tensor:
#      x y z
#    x 1.605450 0.000000 0.000000 
#    y 0.000000 1.693840 0.000000 
#    z 0.000000 0.000000 1.741150 
# 
# From -- ./inp_files/25531.got.cif
#   From: 2010.05.17/outbox.cif.g08.bks.cpg/sg20_13_cif.got.tgz:25531.got - 2010.06.03 22:52:26.
