data_PCOD9317657
_publ_section_title
;
Structure prediction by ZEFSAII (Michael W. Deem and Ramdas Pophale) SiO2 
 PCOD9317657
Probable space group: C 2 2 21
;
_chemical_formula_sum "Si O2"
_cell_formula_units_Z 36
_cell_length_a 30.920061
_cell_length_b 14.310726
_cell_length_c 5.001943
_cell_angle_alpha 90.000000
_cell_angle_beta 90.000000
_cell_angle_gamma 90.000000
_cell_volume 2213.302360
_symmetry_space_group_name_H-M "C 2 2 21"
_symmetry_group_IT_number 20
_symmetry_cell_setting 'orthorhombic'
loop_
_space_group_symop_operation_xyz
x,y,z
-x,-y,1/2+z
x,-y,-z
-x,y,1/2-z
1/2+x,1/2+y,z
1/2-x,1/2-y,1/2+z
1/2+x,1/2-y,-z
1/2-x,1/2+y,1/2-z
loop_
_atom_site_type_symbol
_atom_site_label
_atom_site_fract_x
_atom_site_fract_y
_atom_site_fract_z
Si Si1 0.743674 0.000000 0.000000
Si Si2 0.640833 0.328160 0.954979
Si Si3 0.000000 0.934910 0.250000
Si Si4 0.276387 0.209483 0.449084
Si Si5 0.300866 0.500000 0.500000
Si Si6 0.089385 0.112924 0.529707
O O1 0.721173 0.902838 0.919799
O O2 0.771968 0.968836 0.253641
O O3 0.675781 0.245989 0.973865
O O4 0.602615 0.332318 0.737888
O O5 0.670078 0.417753 0.886155
O O6 0.620667 0.349059 0.242121
O O7 0.040083 0.878093 0.369612
O O8 0.984487 0.000000 0.500000
O O9 0.257052 0.254974 0.178260
O O10 0.094869 0.000000 0.500000
#
# Coordination Sequence:
#
# PCOD9317657 Si02
#       6
#     4   8   4   8   4   8
#     4  12  22  38  50  70 103 140 177 226 260 294
#     4  12  21  31  49  75  96 132 181 209 242 300
#     4  10  20  34  48  72 102 138 166 198 262 312
#     4  12  23  35  52  73 101 138 179 220 259 299
#     4  12  20  32  54  70  99 140 179 216 254 290
#     4  11  20  32  50  71 101 132 166 207 248 306
#
# _framework density 16.265288000000002
#
# number of rings (size 3 to 8) (size 9 to 14) (size 15 to 20)
#    0.000    0.444    6.667    5.333    0.000    0.000 
#    0.000    0.000    0.000    0.000    0.000    0.000 
#    0.000    3.556    0.000    2.889    0.000    0.000 
#
# Total GULP energy -100406.411822 kJ/mol
# GULP energy per Si atom -5578.133990 kJ/mol
# Density = 1.622827 g / cm^3
# Si number density = 16.265288 Si / 1000 Ang^3
#
#
#
# Elastic Constant Matrix: (Units=GPa)
#
#
# Indices 1 2 3 4 5 6 
#
# 1 77.5424 29.9470 7.5216 0.0000 0.0000 0.0000
# 2 29.9470 82.3319 -4.0694 0.0000 0.0000 0.0000
# 3 7.5216 -4.0694 77.5398 0.0000 0.0000 0.0000
# 4 0.0000 0.0000 0.0000 11.8209 0.0000 0.0000
# 5 0.0000 0.0000 0.0000 0.0000 75.1356 0.0000
# 6 0.0000 0.0000 0.0000 0.0000 0.0000 33.4888
#
#
#
# Elastic Compliance Matrix: (Units=1/GPa)
#
#
# Indices 1 2 3 4 5 6 
#
# 1 0.015243 -0.005632 -0.001774 0.000000 0.000000 0.000000
# 2 -0.005632 0.014259 0.001295 0.000000 0.000000 0.000000
# 3 -0.001774 0.001295 0.013137 0.000000 0.000000 0.000000
# 4 0.000000 0.000000 0.000000 0.084596 0.000000 0.000000
# 5 0.000000 0.000000 0.000000 0.000000 0.013309 0.000000
# 6 0.000000 0.000000 0.000000 0.000000 0.000000 0.029861
#
#
# Mechanical properties :
#
#
# Convention : Reuss Voigt Hill
#
# Bulk Modulus (GPa) = 32.87850 33.80136 33.33993
# Shear Modulus (GPa) = 25.93808 37.69006 31.81407
#
# Velocity S-wave (km/s) = 3.99769 4.81896 4.42741
# Velocity P-wave (km/s) = 6.44721 7.19650 6.83213
#
# Compressibility (1/GPa) = 0.03041501
#
# Stress axis : x y z
#
# Youngs Moduli (GPa) = 65.60186 70.13312 76.12283
#
# Poissons Ratio (x) = 0.39501 0.13506
# Poissons Ratio (y) = 0.36949 -0.09855
# Poissons Ratio (z) = 0.11639 -0.09080
#
# Static dielectric constant tensor:
#      x y z
#    x 1.568410 0.000000 0.000000 
#    y 0.000000 1.535720 0.000000 
#    z 0.000000 0.000000 1.520800 
# 
# From -- ./inp_files/1904.got.cif
#   From: 2010.05.17/outbox.cif.g08.bks.cpg/sg20_1_cif.got.tgz:1904.got - 2010.06.03 22:52:26.
