data_PCOD9317544
_publ_section_title
;
Structure prediction by ZEFSAII (Michael W. Deem and Ramdas Pophale) SiO2 
 PCOD9317544
Probable space group: C 2 2 21
;
_chemical_formula_sum "Si O2"
_cell_formula_units_Z 40
_cell_length_a 9.364999
_cell_length_b 12.368849
_cell_length_c 13.179826
_cell_angle_alpha 90.000000
_cell_angle_beta 90.000000
_cell_angle_gamma 90.000000
_cell_volume 1526.675372
_symmetry_space_group_name_H-M "C 2 2 21"
_symmetry_group_IT_number 20
_symmetry_cell_setting 'orthorhombic'
loop_
_space_group_symop_operation_xyz
x,y,z
-x,-y,1/2+z
x,-y,-z
-x,y,1/2-z
1/2+x,1/2+y,z
1/2-x,1/2-y,1/2+z
1/2+x,1/2-y,-z
1/2-x,1/2+y,1/2-z
loop_
_atom_site_type_symbol
_atom_site_label
_atom_site_fract_x
_atom_site_fract_y
_atom_site_fract_z
Si Si1 0.834207 0.617052 0.334435
Si Si2 0.174363 0.149106 0.905432
Si Si3 0.747759 0.188346 0.387819
Si Si4 0.517285 0.540090 0.367391
Si Si5 0.141157 0.385995 0.206902
O O1 0.879517 0.728179 0.387559
O O2 0.829422 0.646639 0.213651
O O3 0.676218 0.586015 0.376054
O O4 0.906589 0.500109 0.339838
O O5 0.257574 0.107626 0.805773
O O6 0.041331 0.068456 0.921307
O O7 0.288066 0.153047 0.998284
O O8 0.771922 0.315239 0.373103
O O9 0.904515 0.135337 0.381558
O O10 0.500000 0.508293 0.250000
O O11 0.000000 0.328910 0.250000
#
# Coordination Sequence:
#
# PCOD9317544 Si02
#       5
#     8   8   8   8   8
#     4  10  23  43  65  98 138 173 226 285 348 411
#     4  11  22  42  68  99 130 175 238 280 339 419
#     4  10  21  41  66  97 123 175 231 283 340 405
#     4  10  19  41  68  94 125 176 226 282 341 403
#     4  11  23  44  64  91 142 183 213 288 358 406
#
# _framework density 26.200724000000001
#
# number of rings (size 3 to 8) (size 9 to 14) (size 15 to 20)
#    0.000    1.600    4.000    3.600    0.000    1.600 
#   10.800    2.000    0.000    0.000    0.000    0.000 
#    0.000    0.000    0.000    0.000    0.000    0.000 
#
# Total GULP energy -111755.754818 kJ/mol
# GULP energy per Si atom -5587.787741 kJ/mol
# Density = 2.614109 g / cm^3
# Si number density = 26.200724 Si / 1000 Ang^3
#
#
#
# Elastic Constant Matrix: (Units=GPa)
#
#
# Indices 1 2 3 4 5 6 
#
# 1 58.9678 9.6074 -7.1618 0.0000 0.0000 0.0000
# 2 9.6074 192.2272 35.4348 0.0000 0.0000 0.0000
# 3 -7.1618 35.4348 86.6217 0.0000 0.0000 0.0000
# 4 0.0000 0.0000 0.0000 4.2520 0.0000 0.0000
# 5 0.0000 0.0000 0.0000 0.0000 16.7811 0.0000
# 6 0.0000 0.0000 0.0000 0.0000 0.0000 19.0809
#
#
#
# Elastic Compliance Matrix: (Units=1/GPa)
#
#
# Indices 1 2 3 4 5 6 
#
# 1 0.017394 -0.001227 0.001940 0.000000 0.000000 0.000000
# 2 -0.001227 0.005713 -0.002438 0.000000 0.000000 0.000000
# 3 0.001940 -0.002438 0.012702 0.000000 0.000000 0.000000
# 4 0.000000 0.000000 0.000000 0.235182 0.000000 0.000000
# 5 0.000000 0.000000 0.000000 0.000000 0.059591 0.000000
# 6 0.000000 0.000000 0.000000 0.000000 0.000000 0.052408
#
#
# Mechanical properties :
#
#
# Convention : Reuss Voigt Hill
#
# Bulk Modulus (GPa) = 30.90382 45.95305 38.42844
# Shear Modulus (GPa) = 12.58723 28.01856 20.30289
#
# Velocity S-wave (km/s) = 2.19422 3.27369 2.78672
# Velocity P-wave (km/s) = 4.27084 5.64502 5.00532
#
# Compressibility (1/GPa) = 0.03235846
#
# Stress axis : x y z
#
# Youngs Moduli (GPa) = 57.49136 175.03922 78.72547
#
# Poissons Ratio (x) = 0.21477 -0.15273
# Poissons Ratio (y) = 0.07054 0.19197
# Poissons Ratio (z) = -0.11153 0.42683
#
# Static dielectric constant tensor:
#      x y z
#    x 2.121010 0.000000 0.000000 
#    y 0.000000 2.033490 0.000000 
#    z 0.000000 0.000000 2.164020 
# 
# From -- ./inp_files/19671.got.cif
#   From: 2010.05.17/outbox.cif.g08.bks.cpg/sg20_10_cif.got.tgz:19671.got - 2010.06.03 22:52:26.
