data_PCOD9317010
_publ_section_title
;
Structure prediction by ZEFSAII (Michael W. Deem and Ramdas Pophale) SiO2 
 PCOD9317010
Probable space group: C 2 2 21
;
_chemical_formula_sum "Si O2"
_cell_formula_units_Z 64
_cell_length_a 18.536426
_cell_length_b 12.291527
_cell_length_c 16.356037
_cell_angle_alpha 90.000000
_cell_angle_beta 90.000000
_cell_angle_gamma 90.000000
_cell_volume 3726.575510
_symmetry_space_group_name_H-M "C 2 2 21"
_symmetry_group_IT_number 20
_symmetry_cell_setting 'orthorhombic'
loop_
_space_group_symop_operation_xyz
x,y,z
-x,-y,1/2+z
x,-y,-z
-x,y,1/2-z
1/2+x,1/2+y,z
1/2-x,1/2-y,1/2+z
1/2+x,1/2-y,-z
1/2-x,1/2+y,1/2-z
loop_
_atom_site_type_symbol
_atom_site_label
_atom_site_fract_x
_atom_site_fract_y
_atom_site_fract_z
Si Si1 0.472959 0.983730 0.120177
Si Si2 0.920335 0.709875 0.082585
Si Si3 0.928437 0.761575 0.908627
Si Si4 0.827906 0.706402 0.248757
Si Si5 0.044863 0.086204 0.164590
Si Si6 0.452644 0.663549 0.666681
Si Si7 0.387987 0.014695 0.708214
Si Si8 0.341035 0.256939 0.740164
O O1 0.462917 0.858770 0.097161
O O2 0.557196 0.006370 0.134278
O O3 0.434552 0.993177 0.208526
O O4 0.436930 0.081669 0.070810
O O5 0.866194 0.718159 0.159582
O O6 0.996124 0.767507 0.106630
O O7 0.893914 0.764251 0.998612
O O8 0.874140 0.769751 0.831851
O O9 0.991987 0.849221 0.896414
O O10 0.877693 0.778574 0.309349
O O11 0.832249 0.582576 0.281333
O O12 0.744615 0.735277 0.242919
O O13 0.117228 0.154091 0.184708
O O14 0.000000 0.085406 0.250000
O O15 0.058182 0.961406 0.140286
O O16 0.500000 0.661461 0.750000
O O17 0.360062 0.137076 0.706969
#
# Coordination Sequence:
#
# PCOD9317010 Si02
#       8
#     8   8   8   8   8   8   8   8
#     4   9  15  30  54  80 100 122 168 221 258 295
#     4  10  19  33  54  77 103 133 172 220 264 304
#     4  10  19  33  54  77 103 133 172 220 264 304
#     4  10  20  33  53  79 105 139 174 211 256 314
#     4   9  18  33  52  74  98 132 176 212 247 301
#     4   9  18  33  52  74  98 132 176 212 247 301
#     4   9  16  30  54  78  99 128 176 215 248 304
#     4  10  20  33  53  79 105 139 174 211 256 314
#
# _framework density 17.173945
#
# number of rings (size 3 to 8) (size 9 to 14) (size 15 to 20)
#    0.000    2.500    2.500    0.375    1.750    0.500 
#    0.000    1.250    0.000    0.000    0.000    0.000 
#    0.000    0.000    0.000    0.000    0.000    0.000 
#
# Total GULP energy -178141.531847 kJ/mol
# GULP energy per Si atom -5566.922870 kJ/mol
# Density = 1.713486 g / cm^3
# Si number density = 17.173945 Si / 1000 Ang^3
#
#
#
# Elastic Constant Matrix: (Units=GPa)
#
#
# Indices 1 2 3 4 5 6 
#
# 1 101.4217 34.9286 6.1194 0.0000 0.0000 0.0000
# 2 34.9286 110.5993 10.5093 0.0000 0.0000 0.0000
# 3 6.1194 10.5093 36.2759 0.0000 0.0000 0.0000
# 4 0.0000 0.0000 0.0000 13.5932 0.0000 0.0000
# 5 0.0000 0.0000 0.0000 0.0000 7.3829 0.0000
# 6 0.0000 0.0000 0.0000 0.0000 0.0000 13.7664
#
#
#
# Elastic Compliance Matrix: (Units=1/GPa)
#
#
# Indices 1 2 3 4 5 6 
#
# 1 0.011090 -0.003419 -0.000880 0.000000 0.000000 0.000000
# 2 -0.003419 0.010352 -0.002422 0.000000 0.000000 0.000000
# 3 -0.000880 -0.002422 0.028417 0.000000 0.000000 0.000000
# 4 0.000000 0.000000 0.000000 0.073566 0.000000 0.000000
# 5 0.000000 0.000000 0.000000 0.000000 0.135449 0.000000
# 6 0.000000 0.000000 0.000000 0.000000 0.000000 0.072641
#
#
# Mechanical properties :
#
#
# Convention : Reuss Voigt Hill
#
# Bulk Modulus (GPa) = 27.46056 39.04573 33.25314
# Shear Modulus (GPa) = 14.00185 20.06446 17.03316
#
# Velocity S-wave (km/s) = 2.85844 3.42176 3.15271
# Velocity P-wave (km/s) = 5.18831 6.19646 5.71466
#
# Compressibility (1/GPa) = 0.03641586
#
# Stress axis : x y z
#
# Youngs Moduli (GPa) = 90.16850 96.60424 35.19052
#
# Poissons Ratio (x) = 0.33027 0.03098
# Poissons Ratio (y) = 0.30827 0.08524
# Poissons Ratio (z) = 0.07938 0.23399
#
# Static dielectric constant tensor:
#      x y z
#    x 1.545440 0.000000 0.000000 
#    y 0.000000 1.594480 0.000000 
#    z 0.000000 0.000000 1.620040 
# 
# From -- ./inp_files/25540.got.cif
#   From: 2010.05.17/outbox.cif.g08.bks.cpg/sg20_13_cif.got.tgz:25540.got - 2010.06.03 22:52:26.
