data_PCOD9317034
_publ_section_title
;
Structure prediction by ZEFSAII (Michael W. Deem and Ramdas Pophale) SiO2 
 PCOD9317034
Probable space group: C 2 2 21
;
_chemical_formula_sum "Si O2"
_cell_formula_units_Z 28
_cell_length_a 10.935695
_cell_length_b 13.369606
_cell_length_c 7.633927
_cell_angle_alpha 90.000000
_cell_angle_beta 90.000000
_cell_angle_gamma 90.000000
_cell_volume 1116.125423
_symmetry_space_group_name_H-M "C 2 2 21"
_symmetry_group_IT_number 20
_symmetry_cell_setting 'orthorhombic'
loop_
_space_group_symop_operation_xyz
x,y,z
-x,-y,1/2+z
x,-y,-z
-x,y,1/2-z
1/2+x,1/2+y,z
1/2-x,1/2-y,1/2+z
1/2+x,1/2-y,-z
1/2-x,1/2+y,1/2-z
loop_
_atom_site_type_symbol
_atom_site_label
_atom_site_fract_x
_atom_site_fract_y
_atom_site_fract_z
Si Si1 0.125249 0.568104 0.169742
Si Si2 0.333748 0.307051 0.026687
Si Si3 0.500000 0.260929 0.750000
Si Si4 0.784226 0.624814 0.836207
O O1 0.181245 0.489248 0.309345
O O2 0.000000 0.612532 0.250000
O O3 0.088043 0.500000 0.000000
O O4 0.232947 0.362982 0.905769
O O5 0.460899 0.319362 0.922500
O O6 0.297474 0.188703 0.013204
O O7 0.334026 0.350808 0.220205
O O8 0.386376 0.187315 0.724014
#
# Coordination Sequence:
#
# PCOD9317034 Si02
#       4
#     8   8   4   8
#     4  10  19  33  56  82 104 138 181 226 263 316
#     4   9  19  33  58  76 106 142 175 219 271 313
#     4   8  18  36  54  70 116 132 172 222 266 308
#     4   9  18  35  56  75 107 140 176 221 267 308
#
# _framework density 25.086787000000001
#
# number of rings (size 3 to 8) (size 9 to 14) (size 15 to 20)
#    1.714    1.143    1.429    0.000    0.000    6.857 
#    0.000    0.000   22.000    0.000    0.000    0.000 
#    0.000    0.000    0.000    0.000    0.000    0.000 
#
# Total GULP energy -78000.659245 kJ/mol
# GULP energy per Si atom -5571.475660 kJ/mol
# Density = 2.502969 g / cm^3
# Si number density = 25.086787 Si / 1000 Ang^3
#
#
#
# Elastic Constant Matrix: (Units=GPa)
#
#
# Indices 1 2 3 4 5 6 
#
# 1 48.8796 15.6143 0.3014 0.0000 0.0000 0.0000
# 2 15.6143 84.2241 2.4143 0.0000 0.0000 0.0000
# 3 0.3014 2.4143 71.5125 0.0000 0.0000 0.0000
# 4 0.0000 0.0000 0.0000 37.7934 0.0000 0.0000
# 5 0.0000 0.0000 0.0000 0.0000 32.0525 0.0000
# 6 0.0000 0.0000 0.0000 0.0000 0.0000 35.5198
#
#
#
# Elastic Compliance Matrix: (Units=1/GPa)
#
#
# Indices 1 2 3 4 5 6 
#
# 1 0.021746 -0.004033 0.000045 0.000000 0.000000 0.000000
# 2 -0.004033 0.012632 -0.000409 0.000000 0.000000 0.000000
# 3 0.000045 -0.000409 0.013997 0.000000 0.000000 0.000000
# 4 0.000000 0.000000 0.000000 0.026460 0.000000 0.000000
# 5 0.000000 0.000000 0.000000 0.000000 0.031199 0.000000
# 6 0.000000 0.000000 0.000000 0.000000 0.000000 0.028153
#
#
# Mechanical properties :
#
#
# Convention : Reuss Voigt Hill
#
# Bulk Modulus (GPa) = 25.26499 26.80846 26.03673
# Shear Modulus (GPa) = 32.01497 33.49223 32.75360
#
# Velocity S-wave (km/s) = 3.57623 3.65780 3.61724
# Velocity P-wave (km/s) = 5.21013 5.34311 5.27704
#
# Compressibility (1/GPa) = 0.03958046
#
# Stress axis : x y z
#
# Youngs Moduli (GPa) = 45.98457 79.16107 71.44279
#
# Poissons Ratio (x) = 0.31924 -0.00318
# Poissons Ratio (y) = 0.18545 0.02926
# Poissons Ratio (z) = -0.00205 0.03242
#
# Static dielectric constant tensor:
#      x y z
#    x 2.040340 0.000000 0.000000 
#    y 0.000000 2.031510 0.000000 
#    z 0.000000 0.000000 2.161420 
# 
# From -- ./inp_files/12619.got.cif
#   From: 2010.05.17/outbox.cif.g08.bks.cpg/sg20_7_cif.got.tgz:12619.got - 2010.06.03 22:52:26.
