data_PCOD9317309
_publ_section_title
;
Structure prediction by ZEFSAII (Michael W. Deem and Ramdas Pophale) SiO2 
 PCOD9317309
Probable space group: C 2 2 21
;
_chemical_formula_sum "Si O2"
_cell_formula_units_Z 48
_cell_length_a 16.458181
_cell_length_b 13.867871
_cell_length_c 10.147045
_cell_angle_alpha 90.000000
_cell_angle_beta 90.000000
_cell_angle_gamma 90.000000
_cell_volume 2315.960851
_symmetry_space_group_name_H-M "C 2 2 21"
_symmetry_group_IT_number 20
_symmetry_cell_setting 'orthorhombic'
loop_
_space_group_symop_operation_xyz
x,y,z
-x,-y,1/2+z
x,-y,-z
-x,y,1/2-z
1/2+x,1/2+y,z
1/2-x,1/2-y,1/2+z
1/2+x,1/2-y,-z
1/2-x,1/2+y,1/2-z
loop_
_atom_site_type_symbol
_atom_site_label
_atom_site_fract_x
_atom_site_fract_y
_atom_site_fract_z
Si Si1 0.646022 0.468335 0.642138
Si Si2 0.000000 0.851905 0.750000
Si Si3 0.605444 0.971502 0.358949
Si Si4 0.500000 0.861061 0.750000
Si Si5 0.718446 0.280889 0.535072
Si Si6 0.969835 0.291723 0.026724
Si Si7 0.749474 0.142680 0.760239
O O1 0.610803 0.500000 0.500000
O O2 0.577915 0.417340 0.727082
O O3 0.711659 0.386116 0.603341
O O4 0.684046 0.561115 0.710887
O O5 0.988608 0.782608 0.624651
O O6 0.534585 0.897938 0.406560
O O7 0.666012 0.912977 0.267887
O O8 0.645620 0.000000 0.500000
O O9 0.573074 0.066147 0.286906
O O10 0.491143 0.799665 0.617212
O O11 0.624899 0.243170 0.517818
O O12 0.763371 0.208724 0.633058
O O13 0.755692 0.292957 0.391211
#
# Coordination Sequence:
#
# PCOD9317309 Si02
#       7
#     8   4   8   4   8   8   8
#     4   9  20  40  62  85 118 156 195 241 290 343
#     4  10  19  40  63  82 118 158 192 238 290 342
#     4   9  19  36  58  85 119 154 193 245 297 346
#     4  10  19  36  61  86 116 154 196 246 298 346
#     4   9  20  39  60  86 121 156 193 241 292 345
#     4   9  19  37  58  84 120 156 193 241 293 346
#     4  10  20  40  64  86 118 156 194 242 294 344
#
# _framework density 20.725739999999998
#
# number of rings (size 3 to 8) (size 9 to 14) (size 15 to 20)
#    0.000    2.667    0.000    0.500    0.000    4.000 
#    0.000   47.500    0.000    2.000    0.000    0.000 
#    0.000    0.000    0.000    0.000    0.000    0.000 
#
# Total GULP energy -134008.026065 kJ/mol
# GULP energy per Si atom -5583.667753 kJ/mol
# Density = 2.067857 g / cm^3
# Si number density = 20.725740 Si / 1000 Ang^3
#
#
#
# Elastic Constant Matrix: (Units=GPa)
#
#
# Indices 1 2 3 4 5 6 
#
# 1 31.1462 20.3887 64.4849 0.0000 0.0000 0.0000
# 2 20.3887 104.2436 89.3308 0.0000 0.0000 0.0000
# 3 64.4849 89.3308 186.4242 0.0000 0.0000 0.0000
# 4 0.0000 0.0000 0.0000 49.9398 0.0000 0.0000
# 5 0.0000 0.0000 0.0000 0.0000 26.1040 0.0000
# 6 0.0000 0.0000 0.0000 0.0000 0.0000 20.2031
#
#
#
# Elastic Compliance Matrix: (Units=1/GPa)
#
#
# Indices 1 2 3 4 5 6 
#
# 1 0.142000 0.024294 -0.060760 0.000000 0.000000 0.000000
# 2 0.024294 0.020433 -0.018195 0.000000 0.000000 0.000000
# 3 -0.060760 -0.018195 0.035100 0.000000 0.000000 0.000000
# 4 0.000000 0.000000 0.000000 0.020024 0.000000 0.000000
# 5 0.000000 0.000000 0.000000 0.000000 0.038308 0.000000
# 6 0.000000 0.000000 0.000000 0.000000 0.000000 0.049497
#
#
# Mechanical properties :
#
#
# Convention : Reuss Voigt Hill
#
# Bulk Modulus (GPa) = 11.33627 74.46920 42.90273
# Shear Modulus (GPa) = 11.25907 29.09002 20.17454
#
# Velocity S-wave (km/s) = 2.33328 3.75049 3.12333
# Velocity P-wave (km/s) = 3.56938 7.40025 5.80965
#
# Compressibility (1/GPa) = 0.08821245
#
# Stress axis : x y z
#
# Youngs Moduli (GPa) = 7.04226 48.94054 28.49036
#
# Poissons Ratio (x) = -1.18897 1.73106
# Poissons Ratio (y) = -0.17109 0.51837
# Poissons Ratio (z) = 0.42789 0.89045
#
# Static dielectric constant tensor:
#      x y z
#    x 1.737580 0.000000 0.000000 
#    y 0.000000 1.771550 0.000000 
#    z 0.000000 0.000000 1.743320 
# 
# From -- ./inp_files/9362.got.cif
#   From: 2010.05.17/outbox.cif.g08.bks.cpg/sg20_5_cif.got.tgz:9362.got - 2010.06.03 22:52:26.
