data_PCOD9317992
_publ_section_title
;
Structure prediction by ZEFSAII (Michael W. Deem and Ramdas Pophale) SiO2 
 PCOD9317992
Probable space group: C 2 2 21
;
_chemical_formula_sum "Si O2"
_cell_formula_units_Z 56
_cell_length_a 22.950444
_cell_length_b 7.920177
_cell_length_c 15.186568
_cell_angle_alpha 90.000000
_cell_angle_beta 90.000000
_cell_angle_gamma 90.000000
_cell_volume 2760.486441
_symmetry_space_group_name_H-M "C 2 2 21"
_symmetry_group_IT_number 20
_symmetry_cell_setting 'orthorhombic'
loop_
_space_group_symop_operation_xyz
x,y,z
-x,-y,1/2+z
x,-y,-z
-x,y,1/2-z
1/2+x,1/2+y,z
1/2-x,1/2-y,1/2+z
1/2+x,1/2-y,-z
1/2-x,1/2+y,1/2-z
loop_
_atom_site_type_symbol
_atom_site_label
_atom_site_fract_x
_atom_site_fract_y
_atom_site_fract_z
Si Si1 0.101797 0.000000 0.000000
Si Si2 0.561730 0.149661 0.570550
Si Si3 0.691962 0.540578 0.660071
Si Si4 0.314481 0.139448 0.837437
Si Si5 0.812109 0.141990 0.637998
Si Si6 0.681237 0.970921 0.144219
Si Si7 0.436681 0.154317 0.568171
Si Si8 0.104315 0.000000 0.500000
O O1 0.065630 0.831777 0.982107
O O2 0.142433 0.031414 0.915297
O O3 0.622432 0.121310 0.620432
O O4 0.498729 0.145509 0.618654
O O5 0.568799 0.335363 0.528514
O O6 0.559249 0.000000 0.500000
O O7 0.694652 0.339441 0.680869
O O8 0.681568 0.624322 0.755606
O O9 0.754460 0.596161 0.619460
O O10 0.644115 0.556282 0.583565
O O11 0.254450 0.093342 0.886330
O O12 0.314969 0.031866 0.749291
O O13 0.823272 0.336889 0.611710
O O14 0.623993 0.867673 0.119396
O O15 0.436354 0.000000 0.500000
#
# Coordination Sequence:
#
# PCOD9317992 Si02
#       8
#     4   8   8   8   8   8   8   4
#     4  12  23  38  66  88 121 166 198 248 314 358
#     4  10  23  39  59  86 114 158 202 245 294 355
#     4   9  20  37  59  93 123 157 197 252 308 366
#     4   9  20  38  58  86 120 155 199 248 305 358
#     4  10  21  36  60  94 123 156 202 249 311 366
#     4  10  20  37  59  87 126 157 195 256 302 359
#     4  11  23  40  58  84 120 156 203 245 291 358
#     4  10  21  40  66  86 121 158 200 250 312 352
#
# _framework density 20.286279
#
# number of rings (size 3 to 8) (size 9 to 14) (size 15 to 20)
#    0.000    2.000    1.429    1.286    4.000    2.857 
#    0.000    0.000    0.000    2.571    0.000    0.000 
#    0.000    0.000    0.000    0.000    0.000    0.000 
#
# Total GULP energy -156087.525464 kJ/mol
# GULP energy per Si atom -5574.554481 kJ/mol
# Density = 2.024011 g / cm^3
# Si number density = 20.286279 Si / 1000 Ang^3
#
#
#
# Elastic Constant Matrix: (Units=GPa)
#
#
# Indices 1 2 3 4 5 6 
#
# 1 159.7786 27.3491 34.0004 0.0000 0.0000 0.0000
# 2 27.3491 61.9887 1.5310 0.0000 0.0000 0.0000
# 3 34.0004 1.5310 34.9015 0.0000 0.0000 0.0000
# 4 0.0000 0.0000 0.0000 28.4780 0.0000 0.0000
# 5 0.0000 0.0000 0.0000 0.0000 30.2931 0.0000
# 6 0.0000 0.0000 0.0000 0.0000 0.0000 27.5830
#
#
#
# Elastic Compliance Matrix: (Units=1/GPa)
#
#
# Indices 1 2 3 4 5 6 
#
# 1 0.008631 -0.003604 -0.008250 0.000000 0.000000 0.000000
# 2 -0.003604 0.017655 0.002737 0.000000 0.000000 0.000000
# 3 -0.008250 0.002737 0.036569 0.000000 0.000000 0.000000
# 4 0.000000 0.000000 0.000000 0.035115 0.000000 0.000000
# 5 0.000000 0.000000 0.000000 0.000000 0.033011 0.000000
# 6 0.000000 0.000000 0.000000 0.000000 0.000000 0.036254
#
#
# Mechanical properties :
#
#
# Convention : Reuss Voigt Hill
#
# Bulk Modulus (GPa) = 22.41169 42.49220 32.45195
# Shear Modulus (GPa) = 24.95709 30.19003 27.57356
#
# Velocity S-wave (km/s) = 3.51129 3.86190 3.69076
# Velocity P-wave (km/s) = 5.24505 6.39355 5.84757
#
# Compressibility (1/GPa) = 0.04461956
#
# Stress axis : x y z
#
# Youngs Moduli (GPa) = 115.85825 56.64253 27.34531
#
# Poissons Ratio (x) = 0.20416 0.22561
# Poissons Ratio (y) = 0.41759 -0.07484
# Poissons Ratio (z) = 0.95586 -0.15502
#
# Static dielectric constant tensor:
#      x y z
#    x 1.776340 0.000000 0.000000 
#    y 0.000000 1.693480 0.000000 
#    z 0.000000 0.000000 1.710560 
# 
# From -- ./inp_files/21802.got.cif
#   From: 2010.05.17/outbox.cif.g08.bks.cpg/sg20_11_cif.got.tgz:21802.got - 2010.06.03 22:52:26.
