data_PCOD9317509
_publ_section_title
;
Structure prediction by ZEFSAII (Michael W. Deem and Ramdas Pophale) SiO2 
 PCOD9317509
Probable space group: C 2 2 21
;
_chemical_formula_sum "Si O2"
_cell_formula_units_Z 52
_cell_length_a 16.801302
_cell_length_b 8.336210
_cell_length_c 16.318155
_cell_angle_alpha 90.000000
_cell_angle_beta 90.000000
_cell_angle_gamma 90.000000
_cell_volume 2285.507437
_symmetry_space_group_name_H-M "C 2 2 21"
_symmetry_group_IT_number 20
_symmetry_cell_setting 'orthorhombic'
loop_
_space_group_symop_operation_xyz
x,y,z
-x,-y,1/2+z
x,-y,-z
-x,y,1/2-z
1/2+x,1/2+y,z
1/2-x,1/2-y,1/2+z
1/2+x,1/2-y,-z
1/2-x,1/2+y,1/2-z
loop_
_atom_site_type_symbol
_atom_site_label
_atom_site_fract_x
_atom_site_fract_y
_atom_site_fract_z
Si Si1 0.327584 0.540750 0.153156
Si Si2 0.282500 0.785321 0.548487
Si Si3 0.019355 0.500000 0.500000
Si Si4 0.264191 0.487513 0.667183
Si Si5 0.144245 0.712302 0.419027
Si Si6 0.472049 0.215994 0.844188
Si Si7 0.894835 0.848716 0.560204
O O1 0.255295 0.560463 0.089054
O O2 0.285669 0.505891 0.238815
O O3 0.371908 0.380875 0.123842
O O4 0.384125 0.699476 0.155780
O O5 0.282842 0.653502 0.621087
O O6 0.215557 0.723557 0.485270
O O7 0.367021 0.793244 0.502079
O O8 0.070047 0.653162 0.470199
O O9 0.001559 0.429959 0.406098
O O10 0.176798 0.420595 0.645211
O O11 0.326198 0.362075 0.627913
O O12 0.500000 0.187889 0.750000
O O13 0.525974 0.350543 0.888052
O O14 0.891246 0.000000 0.500000
#
# Coordination Sequence:
#
# PCOD9317509 Si02
#       7
#     8   8   4   8   8   8   8
#     4  12  23  37  72 102 129 177 239 291 340 430
#     4  10  20  40  63  95 135 173 225 275 345 410
#     4  12  26  46  70  90 142 196 228 294 348 428
#     4  10  19  40  62  98 138 169 215 289 347 405
#     4  11  21  40  67  97 129 177 230 282 351 404
#     4  12  26  48  67 100 143 185 238 295 359 424
#     4   9  21  40  67  92 134 179 215 279 356 411
#
# _framework density 22.75206
#
# number of rings (size 3 to 8) (size 9 to 14) (size 15 to 20)
#    0.000    1.231    4.615    2.308    2.154    0.000 
#    5.538    3.846    0.000    0.000    0.000    0.000 
#    0.000    0.000    0.000    0.000    0.000    0.000 
#
# Total GULP energy -144761.598573 kJ/mol
# GULP energy per Si atom -5567.753791 kJ/mol
# Density = 2.270028 g / cm^3
# Si number density = 22.752060 Si / 1000 Ang^3
#
#
#
# Elastic Constant Matrix: (Units=GPa)
#
#
# Indices 1 2 3 4 5 6 
#
# 1 28.7349 -18.4007 28.3270 0.0000 0.0000 0.0000
# 2 -18.4007 56.6314 28.6251 0.0000 0.0000 0.0000
# 3 28.3270 28.6251 165.9035 0.0000 0.0000 0.0000
# 4 0.0000 0.0000 0.0000 31.3703 0.0000 0.0000
# 5 0.0000 0.0000 0.0000 0.0000 31.7516 0.0000
# 6 0.0000 0.0000 0.0000 0.0000 0.0000 3.6917
#
#
#
# Elastic Compliance Matrix: (Units=1/GPa)
#
#
# Indices 1 2 3 4 5 6 
#
# 1 0.074590 0.033604 -0.018534 0.000000 0.000000 0.000000
# 2 0.033604 0.034484 -0.011688 0.000000 0.000000 0.000000
# 3 -0.018534 -0.011688 0.011209 0.000000 0.000000 0.000000
# 4 0.000000 0.000000 0.000000 0.031877 0.000000 0.000000
# 5 0.000000 0.000000 0.000000 0.000000 0.031494 0.000000
# 6 0.000000 0.000000 0.000000 0.000000 0.000000 0.270878
#
#
# Mechanical properties :
#
#
# Convention : Reuss Voigt Hill
#
# Bulk Modulus (GPa) = 7.87100 36.48585 22.17842
# Shear Modulus (GPa) = 10.20164 27.54396 18.87280
#
# Velocity S-wave (km/s) = 2.11980 3.48316 2.88323
# Velocity P-wave (km/s) = 3.07545 5.67870 4.56651
#
# Compressibility (1/GPa) = 0.12704862
#
# Stress axis : x y z
#
# Youngs Moduli (GPa) = 13.40655 28.99865 89.21606
#
# Poissons Ratio (x) = -0.97447 1.65352
# Poissons Ratio (y) = -0.45052 1.04273
# Poissons Ratio (z) = 0.24848 0.33893
#
# Static dielectric constant tensor:
#      x y z
#    x 1.927050 0.000000 0.000000 
#    y 0.000000 1.960610 0.000000 
#    z 0.000000 0.000000 1.847840 
# 
# From -- ./inp_files/21712.got.cif
#   From: 2010.05.17/outbox.cif.g08.bks.cpg/sg20_11_cif.got.tgz:21712.got - 2010.06.03 22:52:26.
