data_PCOD9317499
_publ_section_title
;
Structure prediction by ZEFSAII (Michael W. Deem and Ramdas Pophale) SiO2 
 PCOD9317499
Probable space group: C 2 2 21
;
_chemical_formula_sum "Si O2"
_cell_formula_units_Z 64
_cell_length_a 14.463058
_cell_length_b 12.336228
_cell_length_c 14.761060
_cell_angle_alpha 90.000000
_cell_angle_beta 90.000000
_cell_angle_gamma 90.000000
_cell_volume 2633.662141
_symmetry_space_group_name_H-M "C 2 2 21"
_symmetry_group_IT_number 20
_symmetry_cell_setting 'orthorhombic'
loop_
_space_group_symop_operation_xyz
x,y,z
-x,-y,1/2+z
x,-y,-z
-x,y,1/2-z
1/2+x,1/2+y,z
1/2-x,1/2-y,1/2+z
1/2+x,1/2-y,-z
1/2-x,1/2+y,1/2-z
loop_
_atom_site_type_symbol
_atom_site_label
_atom_site_fract_x
_atom_site_fract_y
_atom_site_fract_z
Si Si1 0.721384 0.780221 0.008212
Si Si2 0.995837 0.327128 0.497073
Si Si3 0.002987 0.901649 0.441365
Si Si4 0.363477 0.346389 0.197330
Si Si5 0.524772 0.997454 0.144993
Si Si6 0.709270 0.586786 0.891902
Si Si7 0.244763 0.460703 0.868363
Si Si8 0.770947 0.359822 0.825045
O O1 0.613027 0.801729 0.992162
O O2 0.759792 0.678045 0.949942
O O3 0.761049 0.884643 0.954680
O O4 0.721424 0.728766 0.109904
O O5 0.015963 0.411387 0.577637
O O6 0.008091 0.385313 0.401035
O O7 0.037627 0.209389 0.512188
O O8 0.038340 0.887747 0.338909
O O9 0.892894 0.920752 0.435670
O O10 0.039900 0.000000 0.500000
O O11 0.317873 0.369207 0.293542
O O12 0.300467 0.426950 0.135139
O O13 0.360818 0.215461 0.191319
O O14 0.500000 0.006236 0.250000
O O15 0.636136 0.007022 0.136147
O O16 0.763438 0.474088 0.878287
O O17 0.265012 0.392935 0.775191
#
# Coordination Sequence:
#
# PCOD9317499 Si02
#       8
#     8   8   8   8   8   8   8   8
#     4  10  19  39  67  86 128 177 218 267 331 406
#     4   9  21  40  66  99 124 174 228 264 338 410
#     4  11  24  41  66  98 134 174 227 276 335 409
#     4  11  24  40  64  96 134 168 220 281 335 394
#     4  10  21  41  70  96 131 174 223 285 330 404
#     4  10  21  43  65  94 128 181 223 263 340 413
#     4  10  23  40  61  98 129 173 226 271 344 401
#     4  11  22  37  64  95 128 171 224 273 325 404
#
# _framework density 24.300763
#
# number of rings (size 3 to 8) (size 9 to 14) (size 15 to 20)
#    0.000    1.750    1.250    3.000    3.500    1.000 
#    0.000   10.000    0.000    0.000    0.000    0.000 
#    0.000    0.000    0.000    0.000    0.000    0.000 
#
# Total GULP energy -178368.509500 kJ/mol
# GULP energy per Si atom -5574.015922 kJ/mol
# Density = 2.424545 g / cm^3
# Si number density = 24.300763 Si / 1000 Ang^3
#
#
#
# Elastic Constant Matrix: (Units=GPa)
#
#
# Indices 1 2 3 4 5 6 
#
# 1 24.2782 22.6579 12.6329 0.0000 0.0000 0.0000
# 2 22.6579 175.7563 63.3849 0.0000 0.0000 0.0000
# 3 12.6329 63.3849 155.3286 0.0000 0.0000 0.0000
# 4 0.0000 0.0000 0.0000 34.7057 0.0000 0.0000
# 5 0.0000 0.0000 0.0000 0.0000 20.7534 0.0000
# 6 0.0000 0.0000 0.0000 0.0000 0.0000 -2.8301
#
#
#
# Elastic Compliance Matrix: (Units=1/GPa)
#
#
# Indices 1 2 3 4 5 6 
#
# 1 0.047154 -0.005506 -0.001588 0.000000 0.000000 0.000000
# 2 -0.005506 0.007314 -0.002537 0.000000 0.000000 0.000000
# 3 -0.001588 -0.002537 0.007602 0.000000 0.000000 0.000000
# 4 0.000000 0.000000 0.000000 0.028814 0.000000 0.000000
# 5 0.000000 0.000000 0.000000 0.000000 0.048185 0.000000
# 6 0.000000 0.000000 0.000000 0.000000 0.000000 -0.353349
#
#
# Mechanical properties :
#
#
# Convention : Reuss Voigt Hill
#
# Bulk Modulus (GPa) = 23.35983 61.41273 42.38628
# Shear Modulus (GPa) = -27.66307 27.63830 -0.01239
#
# Velocity S-wave (km/s) = -3.37762 3.37611 -0.07147
# Velocity P-wave (km/s) = 2.36166 6.36587 4.18012
#
# Compressibility (1/GPa) = 0.04280853
#
# Stress axis : x y z
#
# Youngs Moduli (GPa) = 21.20693 136.71488 131.53744
#
# Poissons Ratio (x) = 0.75279 0.20890
# Poissons Ratio (y) = 0.11677 0.33371
# Poissons Ratio (z) = 0.03368 0.34685
#
# Static dielectric constant tensor:
#      x y z
#    x 2.048130 0.000000 0.000000 
#    y 0.000000 1.952510 0.000000 
#    z 0.000000 0.000000 2.034240 
# 
# From -- ./inp_files/21496.got.cif
#   From: 2010.05.17/outbox.cif.g08.bks.cpg/sg20_11_cif.got.tgz:21496.got - 2010.06.03 22:52:26.
