data_PCOD9317837
_publ_section_title
;
Structure prediction by ZEFSAII (Michael W. Deem and Ramdas Pophale) SiO2 
 PCOD9317837
Probable space group: C 2 2 21
;
_chemical_formula_sum "Si O2"
_cell_formula_units_Z 48
_cell_length_a 13.742693
_cell_length_b 12.854521
_cell_length_c 12.912426
_cell_angle_alpha 90.000000
_cell_angle_beta 90.000000
_cell_angle_gamma 90.000000
_cell_volume 2281.054116
_symmetry_space_group_name_H-M "C 2 2 21"
_symmetry_group_IT_number 20
_symmetry_cell_setting 'orthorhombic'
loop_
_space_group_symop_operation_xyz
x,y,z
-x,-y,1/2+z
x,-y,-z
-x,y,1/2-z
1/2+x,1/2+y,z
1/2-x,1/2-y,1/2+z
1/2+x,1/2-y,-z
1/2-x,1/2+y,1/2-z
loop_
_atom_site_type_symbol
_atom_site_label
_atom_site_fract_x
_atom_site_fract_y
_atom_site_fract_z
Si Si1 0.779705 0.297673 0.961796
Si Si2 0.846457 0.754608 0.356414
Si Si3 0.046688 0.000000 0.500000
Si Si4 0.003289 0.764587 0.524133
Si Si5 0.784711 0.907229 0.738214
Si Si6 0.818586 0.111627 0.832662
Si Si7 0.500000 0.693733 0.250000
O O1 0.753283 0.381408 0.876022
O O2 0.753661 0.188065 0.902925
O O3 0.722077 0.319071 0.065964
O O4 0.890715 0.273789 0.989882
O O5 0.933033 0.725233 0.433550
O O6 0.778872 0.661510 0.316989
O O7 0.874122 0.817334 0.252430
O O8 0.113243 0.956949 0.406983
O O9 0.992523 0.892344 0.527010
O O10 0.991651 0.739172 0.644924
O O11 0.898676 0.872998 0.751198
O O12 0.765201 0.025845 0.765732
#
# Coordination Sequence:
#
# PCOD9317837 Si02
#       7
#     8   8   4   8   8   8   4
#     4  10  22  39  58  92 122 161 207 259 314 378
#     4  11  23  38  62  92 122 167 206 259 314 383
#     4  10  20  36  56  94 124 148 194 256 340 380
#     4  11  23  36  62  87 127 158 203 262 325 374
#     4  11  22  38  60  90 125 162 214 250 321 379
#     4  10  22  38  62  89 129 162 200 264 321 382
#     4  12  20  36  64  88 124 164 198 262 316 396
#
# _framework density 21.042902999999999
#
# number of rings (size 3 to 8) (size 9 to 14) (size 15 to 20)
#    0.000    1.333    5.000    1.000    2.333    6.667 
#    0.000    0.000    0.000   14.000    0.000    0.000 
#    0.000    0.000    0.000    0.000    0.000    0.000 
#
# Total GULP energy -133762.765864 kJ/mol
# GULP energy per Si atom -5573.448578 kJ/mol
# Density = 2.099501 g / cm^3
# Si number density = 21.042903 Si / 1000 Ang^3
#
#
#
# Elastic Constant Matrix: (Units=GPa)
#
#
# Indices 1 2 3 4 5 6 
#
# 1 85.3441 2.3202 29.2482 0.0000 0.0000 0.0000
# 2 2.3202 42.4834 21.3974 0.0000 0.0000 0.0000
# 3 29.2482 21.3974 138.2247 0.0000 0.0000 0.0000
# 4 0.0000 0.0000 0.0000 20.4688 0.0000 0.0000
# 5 0.0000 0.0000 0.0000 0.0000 41.0633 0.0000
# 6 0.0000 0.0000 0.0000 0.0000 0.0000 10.5013
#
#
#
# Elastic Compliance Matrix: (Units=1/GPa)
#
#
# Indices 1 2 3 4 5 6 
#
# 1 0.012653 0.000713 -0.002788 0.000000 0.000000 0.000000
# 2 0.000713 0.025569 -0.004109 0.000000 0.000000 0.000000
# 3 -0.002788 -0.004109 0.008461 0.000000 0.000000 0.000000
# 4 0.000000 0.000000 0.000000 0.048855 0.000000 0.000000
# 5 0.000000 0.000000 0.000000 0.000000 0.024353 0.000000
# 6 0.000000 0.000000 0.000000 0.000000 0.000000 0.095226
#
#
# Mechanical properties :
#
#
# Convention : Reuss Voigt Hill
#
# Bulk Modulus (GPa) = 29.14128 41.33153 35.23641
# Shear Modulus (GPa) = 20.92728 28.61246 24.76987
#
# Velocity S-wave (km/s) = 3.15700 3.69144 3.43463
# Velocity P-wave (km/s) = 5.21224 6.15249 5.70178
#
# Compressibility (1/GPa) = 0.03431558
#
# Stress axis : x y z
#
# Youngs Moduli (GPa) = 79.03085 39.10947 118.19522
#
# Poissons Ratio (x) = -0.02789 0.32951
# Poissons Ratio (y) = -0.05636 0.48567
# Poissons Ratio (z) = 0.22032 0.16070
#
# Static dielectric constant tensor:
#      x y z
#    x 1.789220 0.000000 0.000000 
#    y 0.000000 1.756980 0.000000 
#    z 0.000000 0.000000 1.854760 
# 
# From -- ./inp_files/15082.got.cif
#   From: 2010.05.17/outbox.cif.g08.bks.cpg/sg20_8_cif.got.tgz:15082.got - 2010.06.03 22:52:26.
