data_PCOD9317757
_publ_section_title
;
Structure prediction by ZEFSAII (Michael W. Deem and Ramdas Pophale) SiO2 
 PCOD9317757
Probable space group: C 2 2 21
;
_chemical_formula_sum "Si O2"
_cell_formula_units_Z 60
_cell_length_a 29.259266
_cell_length_b 11.887172
_cell_length_c 8.635373
_cell_angle_alpha 90.000000
_cell_angle_beta 90.000000
_cell_angle_gamma 90.000000
_cell_volume 3003.468457
_symmetry_space_group_name_H-M "C 2 2 21"
_symmetry_group_IT_number 20
_symmetry_cell_setting 'orthorhombic'
loop_
_space_group_symop_operation_xyz
x,y,z
-x,-y,1/2+z
x,-y,-z
-x,y,1/2-z
1/2+x,1/2+y,z
1/2-x,1/2-y,1/2+z
1/2+x,1/2-y,-z
1/2-x,1/2+y,1/2-z
loop_
_atom_site_type_symbol
_atom_site_label
_atom_site_fract_x
_atom_site_fract_y
_atom_site_fract_z
Si Si1 0.144270 0.210838 0.340059
Si Si2 0.828212 0.586646 0.360616
Si Si3 0.621366 0.698474 0.998629
Si Si4 0.747088 0.730009 0.217862
Si Si5 0.601154 0.500000 0.500000
Si Si6 0.605767 0.109867 0.418359
Si Si7 0.718085 0.386106 0.070805
Si Si8 0.446043 0.677592 0.771406
O O1 0.196388 0.217975 0.284910
O O2 0.132652 0.312784 0.456060
O O3 0.132873 0.092646 0.418904
O O4 0.114803 0.209192 0.181458
O O5 0.819300 0.500000 0.500000
O O6 0.858350 0.683324 0.441451
O O7 0.782553 0.640499 0.288251
O O8 0.859682 0.558567 0.211227
O O9 0.663951 0.618041 0.954243
O O10 0.578584 0.666112 0.894922
O O11 0.767613 0.852089 0.258226
O O12 0.740675 0.709172 0.036894
O O13 0.571057 0.424810 0.381071
O O14 0.571883 0.202705 0.342258
O O15 0.584312 0.000000 0.500000
O O16 0.736203 0.500000 0.000000
O O17 0.500000 0.677572 0.750000
#
# Coordination Sequence:
#
# PCOD9317757 Si02
#       8
#     8   8   8   8   4   8   8   8
#     4  10  21  38  58  87 121 168 209 257 313 371
#     4  10  20  35  56  86 122 170 214 258 307 361
#     4   9  21  38  59  85 116 157 204 251 318 383
#     4  10  22  35  53  86 119 160 220 260 290 366
#     4  10  24  38  60  92 120 162 196 244 334 364
#     4  10  21  41  64  86 125 166 204 259 323 375
#     4  10  22  38  55  81 119 165 205 258 316 353
#     4  10  23  44  67  94 124 153 203 259 315 392
#
# _framework density 19.976904999999999
#
# number of rings (size 3 to 8) (size 9 to 14) (size 15 to 20)
#    0.000    2.133    0.000    1.600    4.667    7.467 
#    0.000    6.000    0.000    0.000    0.000    0.000 
#    0.000    0.000    0.000    0.000    0.000    0.000 
#
# Total GULP energy -167367.881683 kJ/mol
# GULP energy per Si atom -5578.929389 kJ/mol
# Density = 1.993144 g / cm^3
# Si number density = 19.976905 Si / 1000 Ang^3
#
#
#
# Elastic Constant Matrix: (Units=GPa)
#
#
# Indices 1 2 3 4 5 6 
#
# 1 40.2505 2.3671 23.8566 0.0000 0.0000 0.0000
# 2 2.3671 73.9197 13.4716 0.0000 0.0000 0.0000
# 3 23.8566 13.4716 88.7991 0.0000 0.0000 0.0000
# 4 0.0000 0.0000 0.0000 23.6743 0.0000 0.0000
# 5 0.0000 0.0000 0.0000 0.0000 24.7581 0.0000
# 6 0.0000 0.0000 0.0000 0.0000 0.0000 25.4016
#
#
#
# Elastic Compliance Matrix: (Units=1/GPa)
#
#
# Indices 1 2 3 4 5 6 
#
# 1 0.029569 0.000515 -0.008022 0.000000 0.000000 0.000000
# 2 0.000515 0.013922 -0.002250 0.000000 0.000000 0.000000
# 3 -0.008022 -0.002250 0.013758 0.000000 0.000000 0.000000
# 4 0.000000 0.000000 0.000000 0.042240 0.000000 0.000000
# 5 0.000000 0.000000 0.000000 0.000000 0.040391 0.000000
# 6 0.000000 0.000000 0.000000 0.000000 0.000000 0.039368
#
#
# Mechanical properties :
#
#
# Convention : Reuss Voigt Hill
#
# Bulk Modulus (GPa) = 26.50140 31.37331 28.93736
# Shear Modulus (GPa) = 23.65860 25.65173 24.65517
#
# Velocity S-wave (km/s) = 3.44510 3.58728 3.51691
# Velocity P-wave (km/s) = 5.39627 5.73559 5.56851
#
# Compressibility (1/GPa) = 0.03773385
#
# Stress axis : x y z
#
# Youngs Moduli (GPa) = 33.81943 71.82959 72.68510
#
# Poissons Ratio (x) = -0.03700 0.58308
# Poissons Ratio (y) = -0.01742 0.16357
# Poissons Ratio (z) = 0.27130 0.16165
#
# Static dielectric constant tensor:
#      x y z
#    x 1.659470 0.000000 0.000000 
#    y 0.000000 1.760950 0.000000 
#    z 0.000000 0.000000 1.769600 
# 
# From -- ./inp_files/11135.got.cif
#   From: 2010.05.17/outbox.cif.g08.bks.cpg/sg20_6_cif.got.tgz:11135.got - 2010.06.03 22:52:26.
