data_PCOD9317794
_publ_section_title
;
Structure prediction by ZEFSAII (Michael W. Deem and Ramdas Pophale) SiO2 
 PCOD9317794
Probable space group: C 2 2 21
;
_chemical_formula_sum "Si O2"
_cell_formula_units_Z 60
_cell_length_a 29.364712
_cell_length_b 8.205963
_cell_length_c 12.932696
_cell_angle_alpha 90.000000
_cell_angle_beta 90.000000
_cell_angle_gamma 90.000000
_cell_volume 3116.336664
_symmetry_space_group_name_H-M "C 2 2 21"
_symmetry_group_IT_number 20
_symmetry_cell_setting 'orthorhombic'
loop_
_space_group_symop_operation_xyz
x,y,z
-x,-y,1/2+z
x,-y,-z
-x,y,1/2-z
1/2+x,1/2+y,z
1/2-x,1/2-y,1/2+z
1/2+x,1/2-y,-z
1/2-x,1/2+y,1/2-z
loop_
_atom_site_type_symbol
_atom_site_label
_atom_site_fract_x
_atom_site_fract_y
_atom_site_fract_z
Si Si1 0.127084 0.892697 0.900557
Si Si2 0.057487 0.313748 0.971800
Si Si3 0.298249 0.720189 0.810903
Si Si4 0.090396 0.500000 0.500000
Si Si5 0.106243 0.794510 0.227537
Si Si6 0.200580 0.843565 0.746084
Si Si7 0.971764 0.326972 0.852433
Si Si8 0.341772 0.692709 0.023075
O O1 0.167932 0.799290 0.843053
O O2 0.111380 0.023492 0.815556
O O3 0.084830 0.786502 0.941781
O O4 0.143067 0.000000 0.000000
O O5 0.089111 0.306023 0.870575
O O6 0.007996 0.253131 0.933391
O O7 0.050830 0.500000 0.000000
O O8 0.346939 0.782090 0.768622
O O9 0.252156 0.795710 0.769760
O O10 0.298144 0.536940 0.769194
O O11 0.303807 0.723775 0.934532
O O12 0.056588 0.526975 0.403335
O O13 0.120373 0.664930 0.510995
O O14 0.067219 0.794467 0.313394
O O15 0.179430 0.785779 0.637157
O O16 0.000000 0.375924 0.750000
O O17 0.355774 0.500000 0.000000
#
# Coordination Sequence:
#
# PCOD9317794 Si02
#       8
#     8   8   8   4   8   8   8   8
#     4   9  20  40  63  87 123 164 202 253 328 379
#     4  10  20  35  62  89 124 151 207 265 305 377
#     4  10  21  39  61  87 126 162 209 267 319 385
#     4  12  22  42  74  88 130 184 210 268 348 378
#     4   9  19  39  62  80 123 168 200 255 322 379
#     4  10  23  38  62  93 126 161 218 266 313 392
#     4  10  21  38  64  90 124 163 213 268 318 388
#     4  10  24  43  61  94 131 168 222 273 322 394
#
# _framework density 19.253374000000001
#
# number of rings (size 3 to 8) (size 9 to 14) (size 15 to 20)
#    0.000    2.133    2.000    0.000    1.867    6.400 
#    0.000    4.667    0.000    0.000    0.000    0.000 
#    0.000    0.000    0.000    0.000    0.000    0.000 
#
# Total GULP energy -167040.796040 kJ/mol
# GULP energy per Si atom -5568.026535 kJ/mol
# Density = 1.920955 g / cm^3
# Si number density = 19.253374 Si / 1000 Ang^3
#
#
#
# Elastic Constant Matrix: (Units=GPa)
#
#
# Indices 1 2 3 4 5 6 
#
# 1 164.2226 47.7536 86.6635 0.0000 0.0000 0.0000
# 2 47.7536 33.2033 40.4980 0.0000 0.0000 0.0000
# 3 86.6635 40.4980 93.7244 0.0000 0.0000 0.0000
# 4 0.0000 0.0000 0.0000 20.2322 0.0000 0.0000
# 5 0.0000 0.0000 0.0000 0.0000 25.5538 0.0000
# 6 0.0000 0.0000 0.0000 0.0000 0.0000 21.0151
#
#
#
# Elastic Compliance Matrix: (Units=1/GPa)
#
#
# Indices 1 2 3 4 5 6 
#
# 1 0.012933 -0.008488 -0.008291 0.000000 0.000000 0.000000
# 2 -0.008488 0.069247 -0.022074 0.000000 0.000000 0.000000
# 3 -0.008291 -0.022074 0.027874 0.000000 0.000000 0.000000
# 4 0.000000 0.000000 0.000000 0.049426 0.000000 0.000000
# 5 0.000000 0.000000 0.000000 0.000000 0.039133 0.000000
# 6 0.000000 0.000000 0.000000 0.000000 0.000000 0.047585
#
#
# Mechanical properties :
#
#
# Convention : Reuss Voigt Hill
#
# Bulk Modulus (GPa) = 30.91192 71.22006 51.06599
# Shear Modulus (GPa) = 14.93942 21.10924 18.02433
#
# Velocity S-wave (km/s) = 2.78859 3.31477 3.06300
# Velocity P-wave (km/s) = 5.14378 7.19177 6.25220
#
# Compressibility (1/GPa) = 0.03234998
#
# Stress axis : x y z
#
# Youngs Moduli (GPa) = 77.32409 14.44096 35.87614
#
# Poissons Ratio (x) = 0.12257 0.29744
# Poissons Ratio (y) = 0.65629 0.79191
# Poissons Ratio (z) = 0.64108 0.31876
#
# Static dielectric constant tensor:
#      x y z
#    x 1.735320 0.000000 0.000000 
#    y 0.000000 1.696030 0.000000 
#    z 0.000000 0.000000 1.722890 
# 
# From -- ./inp_files/17212.got.cif
#   From: 2010.05.17/outbox.cif.g08.bks.cpg/sg20_9_cif.got.tgz:17212.got - 2010.06.03 22:52:26.
