data_PCOD9317639
_publ_section_title
;
Structure prediction by ZEFSAII (Michael W. Deem and Ramdas Pophale) SiO2 
 PCOD9317639
Probable space group: C 2 2 21
;
_chemical_formula_sum "Si O2"
_cell_formula_units_Z 52
_cell_length_a 27.774952
_cell_length_b 5.180934
_cell_length_c 19.176435
_cell_angle_alpha 90.000000
_cell_angle_beta 90.000000
_cell_angle_gamma 90.000000
_cell_volume 2759.492701
_symmetry_space_group_name_H-M "C 2 2 21"
_symmetry_group_IT_number 20
_symmetry_cell_setting 'orthorhombic'
loop_
_space_group_symop_operation_xyz
x,y,z
-x,-y,1/2+z
x,-y,-z
-x,y,1/2-z
1/2+x,1/2+y,z
1/2-x,1/2-y,1/2+z
1/2+x,1/2-y,-z
1/2-x,1/2+y,1/2-z
loop_
_atom_site_type_symbol
_atom_site_label
_atom_site_fract_x
_atom_site_fract_y
_atom_site_fract_z
Si Si1 0.054789 0.842444 0.127888
Si Si2 0.064837 0.500000 0.000000
Si Si3 0.812940 0.200820 0.765859
Si Si4 0.212564 0.305359 0.181216
Si Si5 0.522976 0.720983 0.326234
Si Si6 0.641961 0.622244 0.068681
Si Si7 0.424148 0.220069 0.212171
O O1 0.039652 0.660850 0.062650
O O2 0.056063 0.721957 0.206488
O O3 0.110320 0.920759 0.113728
O O4 0.020164 0.094743 0.128484
O O5 0.100492 0.308732 0.040391
O O6 0.808402 0.910637 0.735320
O O7 0.770085 0.230207 0.822259
O O8 0.866516 0.282975 0.786571
O O9 0.797448 0.406895 0.707334
O O10 0.182369 0.258524 0.112547
O O11 0.500000 0.736733 0.250000
O O12 0.561350 0.491639 0.321118
O O13 0.550454 0.992542 0.331958
O O14 0.664217 0.500000 0.000000
#
# Coordination Sequence:
#
# PCOD9317639 Si02
#       7
#     8   4   8   8   8   8   8
#     4  10  21  35  54  79 118 147 196 230 284 353
#     4  10  22  34  58  80 114 162 184 230 294 336
#     4  10  20  33  56  80 109 151 177 227 283 328
#     4  10  20  35  53  81 113 143 184 224 280 337
#     4  10  22  32  52  80 110 149 182 230 285 329
#     4  10  21  35  54  83 113 151 187 231 288 335
#     4  11  20  34  54  80 115 145 185 231 281 336
#
# _framework density 18.844044
#
# number of rings (size 3 to 8) (size 9 to 14) (size 15 to 20)
#    0.000    1.846    1.538    3.231   10.769    0.000 
#    0.000    0.000    0.000    0.000    2.000    0.000 
#    0.000    0.000    0.000    0.000    0.000    0.000 
#
# Total GULP energy -144886.343571 kJ/mol
# GULP energy per Si atom -5572.551676 kJ/mol
# Density = 1.880115 g / cm^3
# Si number density = 18.844044 Si / 1000 Ang^3
#
#
#
# Elastic Constant Matrix: (Units=GPa)
#
#
# Indices 1 2 3 4 5 6 
#
# 1 103.6875 2.3479 16.3113 0.0000 0.0000 0.0000
# 2 2.3479 73.1832 7.4717 0.0000 0.0000 0.0000
# 3 16.3113 7.4717 52.6180 0.0000 0.0000 0.0000
# 4 0.0000 0.0000 0.0000 25.1093 0.0000 0.0000
# 5 0.0000 0.0000 0.0000 0.0000 22.0362 0.0000
# 6 0.0000 0.0000 0.0000 0.0000 0.0000 12.5980
#
#
#
# Elastic Compliance Matrix: (Units=1/GPa)
#
#
# Indices 1 2 3 4 5 6 
#
# 1 0.010139 -0.000004 -0.003142 0.000000 0.000000 0.000000
# 2 -0.000004 0.013865 -0.001967 0.000000 0.000000 0.000000
# 3 -0.003142 -0.001967 0.020258 0.000000 0.000000 0.000000
# 4 0.000000 0.000000 0.000000 0.039826 0.000000 0.000000
# 5 0.000000 0.000000 0.000000 0.000000 0.045380 0.000000
# 6 0.000000 0.000000 0.000000 0.000000 0.000000 0.079378
#
#
# Mechanical properties :
#
#
# Convention : Reuss Voigt Hill
#
# Bulk Modulus (GPa) = 29.38240 31.30561 30.34401
# Shear Modulus (GPa) = 21.69956 25.50587 23.60271
#
# Velocity S-wave (km/s) = 3.39711 3.68302 3.54295
# Velocity P-wave (km/s) = 5.56897 5.89366 5.73361
#
# Compressibility (1/GPa) = 0.03403398
#
# Stress axis : x y z
#
# Youngs Moduli (GPa) = 98.63109 72.12221 49.36221
#
# Poissons Ratio (x) = 0.00032 0.15511
# Poissons Ratio (y) = 0.00044 0.09712
# Poissons Ratio (z) = 0.30993 0.14190
#
# Static dielectric constant tensor:
#      x y z
#    x 1.673980 0.000000 0.000000 
#    y 0.000000 1.741140 0.000000 
#    z 0.000000 0.000000 1.716570 
# 
# From -- ./inp_files/25674.got.cif
#   From: 2010.05.17/outbox.cif.g08.bks.cpg/sg20_13_cif.got.tgz:25674.got - 2010.06.03 22:52:26.
