data_PCOD9317362
_publ_section_title
;
Structure prediction by ZEFSAII (Michael W. Deem and Ramdas Pophale) SiO2 
 PCOD9317362
Probable space group: C 2 2 21
;
_chemical_formula_sum "Si O2"
_cell_formula_units_Z 60
_cell_length_a 15.710460
_cell_length_b 20.765615
_cell_length_c 10.623305
_cell_angle_alpha 90.000000
_cell_angle_beta 90.000000
_cell_angle_gamma 90.000000
_cell_volume 3465.719018
_symmetry_space_group_name_H-M "C 2 2 21"
_symmetry_group_IT_number 20
_symmetry_cell_setting 'orthorhombic'
loop_
_space_group_symop_operation_xyz
x,y,z
-x,-y,1/2+z
x,-y,-z
-x,y,1/2-z
1/2+x,1/2+y,z
1/2-x,1/2-y,1/2+z
1/2+x,1/2-y,-z
1/2-x,1/2+y,1/2-z
loop_
_atom_site_type_symbol
_atom_site_label
_atom_site_fract_x
_atom_site_fract_y
_atom_site_fract_z
Si Si1 0.588539 0.594420 0.685063
Si Si2 0.690800 0.110427 0.006121
Si Si3 0.460454 0.733165 0.924130
Si Si4 0.628823 0.219066 0.183938
Si Si5 0.180363 0.000000 0.500000
Si Si6 0.070878 0.320034 0.357981
Si Si7 0.481567 0.054928 0.600238
Si Si8 0.753913 0.831670 0.243633
O O1 0.500000 0.576723 0.750000
O O2 0.565214 0.660521 0.609819
O O3 0.622803 0.536233 0.601563
O O4 0.669330 0.617706 0.769622
O O5 0.757712 0.056640 0.050179
O O6 0.616449 0.074252 0.927640
O O7 0.735843 0.158462 0.905674
O O8 0.652184 0.152113 0.119231
O O9 0.417887 0.779555 0.818832
O O10 0.561372 0.744426 0.907349
O O11 0.428138 0.757020 0.057214
O O12 0.710422 0.263225 0.211296
O O13 0.162835 0.339302 0.307469
O O14 0.000000 0.310552 0.250000
O O15 0.034615 0.381175 0.432747
O O16 0.500000 0.040908 0.750000
O O17 0.503433 0.000000 0.500000
#
# Coordination Sequence:
#
# PCOD9317362 Si02
#       8
#     8   8   8   8   4   8   8   8
#     4  10  20  42  63  83 118 161 208 257 307 366
#     4  11  20  39  58  89 123 157 206 249 308 383
#     4  10  19  37  60  92 116 155 201 255 324 365
#     4  10  20  33  60  89 117 154 195 255 305 371
#     4  10  24  36  66  84 110 174 210 244 300 384
#     4  11  21  37  56  88 127 154 192 255 321 372
#     4  11  22  38  58  83 124 169 203 247 312 371
#     4  10  20  34  61  86 115 155 196 249 310 366
#
# _framework density 17.312425000000001
#
# number of rings (size 3 to 8) (size 9 to 14) (size 15 to 20)
#    0.000    1.600    7.333    0.000    5.600    1.067 
#    0.000    0.667    7.333    0.000    0.000    0.000 
#    0.000    0.000    0.000    0.000    0.000    0.000 
#
# Total GULP energy -167011.482054 kJ/mol
# GULP energy per Si atom -5567.049402 kJ/mol
# Density = 1.727302 g / cm^3
# Si number density = 17.312425 Si / 1000 Ang^3
#
#
#
# Elastic Constant Matrix: (Units=GPa)
#
#
# Indices 1 2 3 4 5 6 
#
# 1 131.8095 48.1028 37.8043 0.0000 0.0000 0.0000
# 2 48.1028 93.1788 54.4297 0.0000 0.0000 0.0000
# 3 37.8043 54.4297 62.7551 0.0000 0.0000 0.0000
# 4 0.0000 0.0000 0.0000 27.5887 0.0000 0.0000
# 5 0.0000 0.0000 0.0000 0.0000 18.1772 0.0000
# 6 0.0000 0.0000 0.0000 0.0000 0.0000 9.0011
#
#
#
# Elastic Compliance Matrix: (Units=1/GPa)
#
#
# Indices 1 2 3 4 5 6 
#
# 1 0.009621 -0.003205 -0.003016 0.000000 0.000000 0.000000
# 2 -0.003205 0.022821 -0.017863 0.000000 0.000000 0.000000
# 3 -0.003016 -0.017863 0.033245 0.000000 0.000000 0.000000
# 4 0.000000 0.000000 0.000000 0.036247 0.000000 0.000000
# 5 0.000000 0.000000 0.000000 0.000000 0.055014 0.000000
# 6 0.000000 0.000000 0.000000 0.000000 0.000000 0.111098
#
#
# Mechanical properties :
#
#
# Convention : Reuss Voigt Hill
#
# Bulk Modulus (GPa) = 57.07950 63.15744 60.11847
# Shear Modulus (GPa) = 15.52538 20.78051 18.15294
#
# Velocity S-wave (km/s) = 2.99787 3.46833 3.24165
# Velocity P-wave (km/s) = 6.71005 7.25253 6.98656
#
# Compressibility (1/GPa) = 0.01751942
#
# Stress axis : x y z
#
# Youngs Moduli (GPa) = 103.93444 43.81919 30.07989
#
# Poissons Ratio (x) = 0.14045 0.09072
# Poissons Ratio (y) = 0.33313 0.53731
# Poissons Ratio (z) = 0.31348 0.78273
#
# Static dielectric constant tensor:
#      x y z
#    x 1.665300 0.000000 0.000000 
#    y 0.000000 1.586890 0.000000 
#    z 0.000000 0.000000 1.606110 
# 
# From -- ./inp_files/15407.got.cif
#   From: 2010.05.17/outbox.cif.g08.bks.cpg/sg20_8_cif.got.tgz:15407.got - 2010.06.03 22:52:26.
