data_PCOD9317431
_publ_section_title
;
Structure prediction by ZEFSAII (Michael W. Deem and Ramdas Pophale) SiO2 
 PCOD9317431
Probable space group: C 2 2 21
;
_chemical_formula_sum "Si O2"
_cell_formula_units_Z 64
_cell_length_a 23.400348
_cell_length_b 9.131885
_cell_length_c 15.297354
_cell_angle_alpha 90.000000
_cell_angle_beta 90.000000
_cell_angle_gamma 90.000000
_cell_volume 3268.880668
_symmetry_space_group_name_H-M "C 2 2 21"
_symmetry_group_IT_number 20
_symmetry_cell_setting 'orthorhombic'
loop_
_space_group_symop_operation_xyz
x,y,z
-x,-y,1/2+z
x,-y,-z
-x,y,1/2-z
1/2+x,1/2+y,z
1/2-x,1/2-y,1/2+z
1/2+x,1/2-y,-z
1/2-x,1/2+y,1/2-z
loop_
_atom_site_type_symbol
_atom_site_label
_atom_site_fract_x
_atom_site_fract_y
_atom_site_fract_z
Si Si1 0.710088 0.327437 0.013043
Si Si2 0.730189 0.852146 0.152948
Si Si3 0.595756 0.233960 0.668400
Si Si4 0.406933 0.268554 0.409305
Si Si5 0.552591 0.485501 0.801147
Si Si6 0.900913 0.548843 0.669536
Si Si7 0.274125 0.680626 0.170407
Si Si8 0.512993 0.748444 0.062295
O O1 0.642323 0.294434 0.018956
O O2 0.733914 0.266172 0.103514
O O3 0.718773 0.500000 0.000000
O O4 0.739777 0.233866 0.936883
O O5 0.662633 0.890099 0.152984
O O6 0.739688 0.741480 0.233160
O O7 0.763420 0.006172 0.162656
O O8 0.576719 0.365158 0.734271
O O9 0.587875 0.090444 0.729373
O O10 0.661199 0.269955 0.648221
O O11 0.553102 0.226145 0.586500
O O12 0.403933 0.398550 0.339379
O O13 0.466422 0.264787 0.462978
O O14 0.399880 0.118613 0.357844
O O15 0.500000 0.559268 0.750000
O O16 0.529589 0.398195 0.885153
O O17 0.948278 0.627569 0.609287
#
# Coordination Sequence:
#
# PCOD9317431 Si02
#       8
#     8   8   8   8   8   8   8   8
#     4  12  25  41  64  97 134 169 223 285 338 387
#     4  11  23  42  64  98 133 174 225 278 331 401
#     4   9  22  41  63  85 128 177 211 256 338 408
#     4  12  22  34  65  97 123 157 217 285 324 376
#     4   9  20  37  56  87 125 163 209 260 318 388
#     4  10  20  36  60  92 124 158 213 271 328 375
#     4  11  24  41  68  93 133 182 223 270 341 407
#     4  10  19  38  61  88 123 165 207 259 328 390
#
# _framework density 19.578568000000001
#
# number of rings (size 3 to 8) (size 9 to 14) (size 15 to 20)
#    0.000    1.500    2.500    3.750    5.250    1.000 
#    0.000    6.250    0.000    0.000    0.000    0.000 
#    0.000    0.000    0.000    0.000    0.000    0.000 
#
# Total GULP energy -178638.280877 kJ/mol
# GULP energy per Si atom -5582.446277 kJ/mol
# Density = 1.953401 g / cm^3
# Si number density = 19.578568 Si / 1000 Ang^3
#
#
#
# Elastic Constant Matrix: (Units=GPa)
#
#
# Indices 1 2 3 4 5 6 
#
# 1 53.8384 5.4837 16.8944 0.0000 0.0000 0.0000
# 2 5.4837 123.1772 33.7068 0.0000 0.0000 0.0000
# 3 16.8944 33.7068 71.0931 0.0000 0.0000 0.0000
# 4 0.0000 0.0000 0.0000 23.2197 0.0000 0.0000
# 5 0.0000 0.0000 0.0000 0.0000 32.7210 0.0000
# 6 0.0000 0.0000 0.0000 0.0000 0.0000 15.4460
#
#
#
# Elastic Compliance Matrix: (Units=1/GPa)
#
#
# Indices 1 2 3 4 5 6 
#
# 1 0.020095 0.000474 -0.005000 0.000000 0.000000 0.000000
# 2 0.000474 0.009340 -0.004541 0.000000 0.000000 0.000000
# 3 -0.005000 -0.004541 0.017407 0.000000 0.000000 0.000000
# 4 0.000000 0.000000 0.000000 0.043067 0.000000 0.000000
# 5 0.000000 0.000000 0.000000 0.000000 0.030561 0.000000
# 6 0.000000 0.000000 0.000000 0.000000 0.000000 0.064742
#
#
# Mechanical properties :
#
#
# Convention : Reuss Voigt Hill
#
# Bulk Modulus (GPa) = 34.83382 40.03094 37.43238
# Shear Modulus (GPa) = 23.48354 27.07892 25.28123
#
# Velocity S-wave (km/s) = 3.46707 3.72303 3.59732
# Velocity P-wave (km/s) = 5.81875 6.24275 6.03447
#
# Compressibility (1/GPa) = 0.02870773
#
# Stress axis : x y z
#
# Youngs Moduli (GPa) = 49.76410 107.06790 57.44786
#
# Poissons Ratio (x) = -0.05071 0.28723
# Poissons Ratio (y) = -0.02357 0.26086
# Poissons Ratio (z) = 0.24881 0.48617
#
# Static dielectric constant tensor:
#      x y z
#    x 1.718200 0.000000 0.000000 
#    y 0.000000 1.683900 0.000000 
#    z 0.000000 0.000000 1.674610 
# 
# From -- ./inp_files/22064.got.cif
#   From: 2010.05.17/outbox.cif.g08.bks.cpg/sg20_12_cif.got.tgz:22064.got - 2010.06.03 22:52:26.
