data_PCOD9317270
_publ_section_title
;
Structure prediction by ZEFSAII (Michael W. Deem and Ramdas Pophale) SiO2 
 PCOD9317270
Probable space group: C 2 2 21
;
_chemical_formula_sum "Si O2"
_cell_formula_units_Z 60
_cell_length_a 8.356439
_cell_length_b 22.783711
_cell_length_c 14.681679
_cell_angle_alpha 90.000000
_cell_angle_beta 90.000000
_cell_angle_gamma 90.000000
_cell_volume 2795.255012
_symmetry_space_group_name_H-M "C 2 2 21"
_symmetry_group_IT_number 20
_symmetry_cell_setting 'orthorhombic'
loop_
_space_group_symop_operation_xyz
x,y,z
-x,-y,1/2+z
x,-y,-z
-x,y,1/2-z
1/2+x,1/2+y,z
1/2-x,1/2-y,1/2+z
1/2+x,1/2-y,-z
1/2-x,1/2+y,1/2-z
loop_
_atom_site_type_symbol
_atom_site_label
_atom_site_fract_x
_atom_site_fract_y
_atom_site_fract_z
Si Si1 0.922453 0.917329 0.652540
Si Si2 0.713146 0.166540 0.431386
Si Si3 0.432617 0.665426 0.595608
Si Si4 0.578094 0.785717 0.843612
Si Si5 0.160246 0.044126 0.813574
Si Si6 0.000000 0.501159 0.750000
Si Si7 0.800726 0.867305 0.969389
Si Si8 0.496338 0.057124 0.446057
O O1 0.806839 0.860741 0.654204
O O2 0.000000 0.922013 0.750000
O O3 0.054890 0.901012 0.579521
O O4 0.849281 0.981459 0.633867
O O5 0.837427 0.186704 0.505868
O O6 0.575027 0.211545 0.410446
O O7 0.623368 0.107821 0.462703
O O8 0.390929 0.716627 0.667186
O O9 0.362405 0.603097 0.628172
O O10 0.616060 0.657511 0.560997
O O11 0.500000 0.810465 0.750000
O O12 0.717063 0.821938 0.896527
O O13 0.335071 0.038357 0.764742
O O14 0.000000 0.045600 0.750000
O O15 0.977313 0.460222 0.660365
O O16 0.666317 0.915849 0.986023
O O17 0.541515 0.000000 0.500000
#
# Coordination Sequence:
#
# PCOD9317270 Si02
#       8
#     8   8   8   8   8   4   8   8
#     4  10  19  36  58  93 126 164 210 270 340 396
#     4  10  22  37  64  88 127 164 226 274 340 409
#     4  11  24  44  62  94 133 183 221 285 352 425
#     4  11  23  43  67  92 125 175 234 288 347 420
#     4  11  24  40  68  98 143 183 222 278 344 428
#     4  12  24  42  70 102 148 184 236 278 358 436
#     4  10  24  36  67  92 130 170 230 286 344 415
#     4  11  23  38  61 100 134 180 217 280 347 426
#
# _framework density 21.464946999999999
#
# number of rings (size 3 to 8) (size 9 to 14) (size 15 to 20)
#    0.000    1.333    1.333    4.400    7.467    1.067 
#    0.000    0.000    7.333    0.000    0.000    0.000 
#    0.000    0.000    0.000    0.000    0.000    0.000 
#
# Total GULP energy -167180.636417 kJ/mol
# GULP energy per Si atom -5572.687881 kJ/mol
# Density = 2.141609 g / cm^3
# Si number density = 21.464947 Si / 1000 Ang^3
#
#
#
# Elastic Constant Matrix: (Units=GPa)
#
#
# Indices 1 2 3 4 5 6 
#
# 1 107.8666 9.0570 11.4403 0.0000 0.0000 0.0000
# 2 9.0570 72.9202 8.1232 0.0000 0.0000 0.0000
# 3 11.4403 8.1232 34.9678 0.0000 0.0000 0.0000
# 4 0.0000 0.0000 0.0000 34.1673 0.0000 0.0000
# 5 0.0000 0.0000 0.0000 0.0000 32.9157 0.0000
# 6 0.0000 0.0000 0.0000 0.0000 0.0000 -28.5987
#
#
#
# Elastic Compliance Matrix: (Units=1/GPa)
#
#
# Indices 1 2 3 4 5 6 
#
# 1 0.009657 -0.000870 -0.002957 0.000000 0.000000 0.000000
# 2 -0.000870 0.014156 -0.003004 0.000000 0.000000 0.000000
# 3 -0.002957 -0.003004 0.030263 0.000000 0.000000 0.000000
# 4 0.000000 0.000000 0.000000 0.029268 0.000000 0.000000
# 5 0.000000 0.000000 0.000000 0.000000 0.030381 0.000000
# 6 0.000000 0.000000 0.000000 0.000000 0.000000 -0.034967
#
#
# Mechanical properties :
#
#
# Convention : Reuss Voigt Hill
#
# Bulk Modulus (GPa) = 24.74389 30.33284 27.53837
# Shear Modulus (GPa) = 47.21748 20.17246 33.69497
#
# Velocity S-wave (km/s) = 4.69524 3.06892 3.96633
# Velocity P-wave (km/s) = 6.39893 5.16911 5.81661
#
# Compressibility (1/GPa) = 0.04041401
#
# Stress axis : x y z
#
# Youngs Moduli (GPa) = 103.54722 70.63980 33.04345
#
# Poissons Ratio (x) = 0.06146 0.09773
# Poissons Ratio (y) = 0.09009 0.09926
# Poissons Ratio (z) = 0.30624 0.21220
#
# Static dielectric constant tensor:
#      x y z
#    x 1.769430 0.000000 0.000000 
#    y 0.000000 1.830030 0.000000 
#    z 0.000000 0.000000 1.903330 
# 
# From -- ./inp_files/19343.got.cif
#   From: 2010.05.17/outbox.cif.g08.bks.cpg/sg20_10_cif.got.tgz:19343.got - 2010.06.03 22:52:26.
