data_PCOD9317522
_publ_section_title
;
Structure prediction by ZEFSAII (Michael W. Deem and Ramdas Pophale) SiO2 
 PCOD9317522
Probable space group: C 2 2 21
;
_chemical_formula_sum "Si O2"
_cell_formula_units_Z 48
_cell_length_a 27.449996
_cell_length_b 8.467009
_cell_length_c 9.365134
_cell_angle_alpha 90.000000
_cell_angle_beta 90.000000
_cell_angle_gamma 90.000000
_cell_volume 2176.638480
_symmetry_space_group_name_H-M "C 2 2 21"
_symmetry_group_IT_number 20
_symmetry_cell_setting 'orthorhombic'
loop_
_space_group_symop_operation_xyz
x,y,z
-x,-y,1/2+z
x,-y,-z
-x,y,1/2-z
1/2+x,1/2+y,z
1/2-x,1/2-y,1/2+z
1/2+x,1/2-y,-z
1/2-x,1/2+y,1/2-z
loop_
_atom_site_type_symbol
_atom_site_label
_atom_site_fract_x
_atom_site_fract_y
_atom_site_fract_z
Si Si1 0.741425 0.369818 0.900148
Si Si2 0.908396 0.165821 0.761380
Si Si3 0.304532 0.574099 0.850605
Si Si4 0.568923 0.681509 0.176576
Si Si5 0.651234 0.815520 0.991218
Si Si6 0.471792 0.310007 0.982201
O O1 0.713424 0.459622 0.774093
O O2 0.778394 0.242643 0.839049
O O3 0.766723 0.500000 0.000000
O O4 0.700882 0.282714 0.997206
O O5 0.862546 0.097171 0.849232
O O6 0.881853 0.275690 0.646121
O O7 0.930374 0.010614 0.682890
O O8 0.947257 0.244177 0.869421
O O9 0.289493 0.500000 0.000000
O O10 0.557982 0.731741 0.338974
O O11 0.526504 0.733010 0.065910
O O12 0.618925 0.752901 0.122747
O O13 0.661130 0.000000 0.000000
O O14 0.470084 0.500000 0.000000
#
# Coordination Sequence:
#
# PCOD9317522 Si02
#       6
#     8   8   8   8   8   8
#     4  12  25  47  70 100 136 187 232 287 359 421
#     4  11  22  42  67 101 136 181 232 294 352 419
#     4  12  25  42  70 103 140 178 236 289 346 426
#     4  10  19  40  67  96 133 173 227 291 347 421
#     4  12  25  42  65  92 135 186 238 284 353 418
#     4   9  19  35  67 102 128 169 229 288 353 418
#
# _framework density 22.052351000000002
#
# number of rings (size 3 to 8) (size 9 to 14) (size 15 to 20)
#    0.000    1.000    3.333    4.500    2.333    2.000 
#    0.000    4.167    0.000    0.000    0.000    0.000 
#    0.000    0.000    0.000    0.000    0.000    0.000 
#
# Total GULP energy -134196.367187 kJ/mol
# GULP energy per Si atom -5591.515299 kJ/mol
# Density = 2.200216 g / cm^3
# Si number density = 22.052351 Si / 1000 Ang^3
#
#
#
# Elastic Constant Matrix: (Units=GPa)
#
#
# Indices 1 2 3 4 5 6 
#
# 1 91.0279 19.1097 32.7625 0.0000 0.0000 0.0000
# 2 19.1097 81.0653 44.9945 0.0000 0.0000 0.0000
# 3 32.7625 44.9945 105.9371 0.0000 0.0000 0.0000
# 4 0.0000 0.0000 0.0000 13.3376 0.0000 0.0000
# 5 0.0000 0.0000 0.0000 0.0000 23.7839 0.0000
# 6 0.0000 0.0000 0.0000 0.0000 0.0000 17.8709
#
#
#
# Elastic Compliance Matrix: (Units=1/GPa)
#
#
# Indices 1 2 3 4 5 6 
#
# 1 0.012429 -0.001042 -0.003401 0.000000 0.000000 0.000000
# 2 -0.001042 0.016228 -0.006570 0.000000 0.000000 0.000000
# 3 -0.003401 -0.006570 0.013282 0.000000 0.000000 0.000000
# 4 0.000000 0.000000 0.000000 0.074976 0.000000 0.000000
# 5 0.000000 0.000000 0.000000 0.000000 0.042045 0.000000
# 6 0.000000 0.000000 0.000000 0.000000 0.000000 0.055957
#
#
# Mechanical properties :
#
#
# Convention : Reuss Voigt Hill
#
# Bulk Modulus (GPa) = 50.22152 52.41816 51.31984
# Shear Modulus (GPa) = 20.52709 23.07607 21.80158
#
# Velocity S-wave (km/s) = 3.05427 3.23835 3.14766
# Velocity P-wave (km/s) = 5.93812 6.14850 6.04423
#
# Compressibility (1/GPa) = 0.01991178
#
# Stress axis : x y z
#
# Youngs Moduli (GPa) = 80.46016 61.62137 75.28995
#
# Poissons Ratio (x) = 0.06421 0.25607
# Poissons Ratio (y) = 0.08384 0.49468
# Poissons Ratio (z) = 0.27365 0.40487
#
# Static dielectric constant tensor:
#      x y z
#    x 1.796380 0.000000 0.000000 
#    y 0.000000 1.781870 0.000000 
#    z 0.000000 0.000000 1.850300 
# 
# From -- ./inp_files/11467.got.cif
#   From: 2010.05.17/outbox.cif.g08.bks.cpg/sg20_6_cif.got.tgz:11467.got - 2010.06.03 22:52:26.
