data_PCOD9317192
_publ_section_title
;
Structure prediction by ZEFSAII (Michael W. Deem and Ramdas Pophale) SiO2 
 PCOD9317192
Probable space group: C 2 2 21
;
_chemical_formula_sum "Si O2"
_cell_formula_units_Z 44
_cell_length_a 11.817525
_cell_length_b 21.910704
_cell_length_c 8.924795
_cell_angle_alpha 90.000000
_cell_angle_beta 90.000000
_cell_angle_gamma 90.000000
_cell_volume 2310.899778
_symmetry_space_group_name_H-M "C 2 2 21"
_symmetry_group_IT_number 20
_symmetry_cell_setting 'orthorhombic'
loop_
_space_group_symop_operation_xyz
x,y,z
-x,-y,1/2+z
x,-y,-z
-x,y,1/2-z
1/2+x,1/2+y,z
1/2-x,1/2-y,1/2+z
1/2+x,1/2-y,-z
1/2-x,1/2+y,1/2-z
loop_
_atom_site_type_symbol
_atom_site_label
_atom_site_fract_x
_atom_site_fract_y
_atom_site_fract_z
Si Si1 0.008137 0.250932 0.998933
Si Si2 0.000000 0.076926 0.250000
Si Si3 0.674047 0.269847 0.266378
Si Si4 0.500000 0.854293 0.250000
Si Si5 0.235875 0.609803 0.622352
Si Si6 0.165890 0.166571 0.167598
Si Si7 0.379854 0.500000 0.500000
O O1 0.092889 0.258278 0.859689
O O2 0.886883 0.238213 0.925570
O O3 0.016988 0.308081 0.109612
O O4 0.056185 0.190662 0.078284
O O5 0.885448 0.116417 0.223381
O O6 0.960734 0.037880 0.391025
O O7 0.699313 0.339588 0.223617
O O8 0.783987 0.227786 0.263743
O O9 0.389159 0.892132 0.196209
O O10 0.245914 0.638715 0.453293
O O11 0.301170 0.546031 0.598041
#
# Coordination Sequence:
#
# PCOD9317192 Si02
#       7
#     8   4   8   4   8   8   4
#     4  10  21  32  56  92 133 150 192 238 325 392
#     4  10  23  40  66  84 118 163 208 268 314 364
#     4  10  20  36  56  96 125 159 190 256 321 378
#     4  12  19  36  60  92 114 173 196 252 322 384
#     4  10  22  37  65  84 129 165 212 254 309 375
#     4  10  19  35  59  93 123 157 190 263 318 378
#     4  10  24  48  60  86 122 174 224 262 296 374
#
# _framework density 19.040203000000002
#
# number of rings (size 3 to 8) (size 9 to 14) (size 15 to 20)
#    0.000    1.818    3.636    0.545    0.000    4.364 
#    3.273    0.000    8.000    0.000    0.000    0.000 
#    0.000    0.000    0.000    0.000    0.000    0.000 
#
# Total GULP energy -122550.957979 kJ/mol
# GULP energy per Si atom -5570.498090 kJ/mol
# Density = 1.899687 g / cm^3
# Si number density = 19.040203 Si / 1000 Ang^3
#
#
#
# Elastic Constant Matrix: (Units=GPa)
#
#
# Indices 1 2 3 4 5 6 
#
# 1 115.2790 60.7010 59.7412 0.0000 0.0000 0.0000
# 2 60.7010 101.6729 39.0638 0.0000 0.0000 0.0000
# 3 59.7412 39.0638 80.8406 0.0000 0.0000 0.0000
# 4 0.0000 0.0000 0.0000 26.2131 0.0000 0.0000
# 5 0.0000 0.0000 0.0000 0.0000 28.5367 0.0000
# 6 0.0000 0.0000 0.0000 0.0000 0.0000 -12.0766
#
#
#
# Elastic Compliance Matrix: (Units=1/GPa)
#
#
# Indices 1 2 3 4 5 6 
#
# 1 0.016980 -0.006528 -0.009394 0.000000 0.000000 0.000000
# 2 -0.006528 0.014588 -0.002225 0.000000 0.000000 0.000000
# 3 -0.009394 -0.002225 0.020387 0.000000 0.000000 0.000000
# 4 0.000000 0.000000 0.000000 0.038149 0.000000 0.000000
# 5 0.000000 0.000000 0.000000 0.000000 0.035043 0.000000
# 6 0.000000 0.000000 0.000000 0.000000 0.000000 -0.082805
#
#
# Mechanical properties :
#
#
# Convention : Reuss Voigt Hill
#
# Bulk Modulus (GPa) = 63.85096 68.53383 66.19240
# Shear Modulus (GPa) = 59.62602 17.75374 38.68988
#
# Velocity S-wave (km/s) = 5.60213 3.05689 4.51267
# Velocity P-wave (km/s) = 8.68635 6.96648 7.87352
#
# Compressibility (1/GPa) = 0.01566147
#
# Stress axis : x y z
#
# Youngs Moduli (GPa) = 58.89156 68.55041 49.05086
#
# Poissons Ratio (x) = 0.44753 0.46077
# Poissons Ratio (y) = 0.38447 0.10912
# Poissons Ratio (z) = 0.55322 0.15250
#
# Static dielectric constant tensor:
#      x y z
#    x 1.724010 0.000000 0.000000 
#    y 0.000000 1.681220 0.000000 
#    z 0.000000 0.000000 1.712160 
# 
# From -- ./inp_files/7347.got.cif
#   From: 2010.05.17/outbox.cif.g08.bks.cpg/sg20_4_cif.got.tgz:7347.got - 2010.06.03 22:52:26.
