data_PCOD9317693
_publ_section_title
;
Structure prediction by ZEFSAII (Michael W. Deem and Ramdas Pophale) SiO2 
 PCOD9317693
Probable space group: C 2 2 21
;
_chemical_formula_sum "Si O2"
_cell_formula_units_Z 56
_cell_length_a 18.854551
_cell_length_b 8.083934
_cell_length_c 15.513624
_cell_angle_alpha 90.000000
_cell_angle_beta 90.000000
_cell_angle_gamma 90.000000
_cell_volume 2364.570217
_symmetry_space_group_name_H-M "C 2 2 21"
_symmetry_group_IT_number 20
_symmetry_cell_setting 'orthorhombic'
loop_
_space_group_symop_operation_xyz
x,y,z
-x,-y,1/2+z
x,-y,-z
-x,y,1/2-z
1/2+x,1/2+y,z
1/2-x,1/2-y,1/2+z
1/2+x,1/2-y,-z
1/2-x,1/2+y,1/2-z
loop_
_atom_site_type_symbol
_atom_site_label
_atom_site_fract_x
_atom_site_fract_y
_atom_site_fract_z
Si Si1 0.851524 0.081417 0.852923
Si Si2 0.939500 0.330290 0.956309
Si Si3 0.231720 0.684693 0.953592
Si Si4 0.584554 0.200646 0.995933
Si Si5 0.359721 0.261256 0.318915
Si Si6 0.199066 0.717975 0.621919
Si Si7 0.571404 0.020586 0.711638
O O1 0.893878 0.175143 0.927538
O O2 0.879744 0.113625 0.757548
O O3 0.840002 0.893062 0.872715
O O4 0.774560 0.167455 0.866109
O O5 0.961750 0.399804 0.861865
O O6 0.002462 0.263324 0.017144
O O7 0.911695 0.500000 0.000000
O O8 0.151521 0.742134 0.936914
O O9 0.272882 0.798683 0.022902
O O10 0.229295 0.500000 0.000000
O O11 0.606705 0.281223 0.087111
O O12 0.583301 0.000000 0.000000
O O13 0.274689 0.270937 0.329644
O O14 0.389196 0.086442 0.284814
O O15 0.139318 0.602944 0.664257
O O16 0.500000 0.107605 0.750000
#
# Coordination Sequence:
#
# PCOD9317693 Si02
#       7
#     8   8   8   8   8   8   8
#     4  10  20  34  56  87 115 149 197 242 294 350
#     4  10  20  35  57  86 110 151 194 250 287 355
#     4   8  16  32  54  77 105 143 189 229 276 350
#     4   9  17  32  55  80 106 144 195 233 281 350
#     4  10  20  36  58  83 114 150 200 242 285 351
#     4  10  20  35  55  83 114 157 187 239 299 354
#     4  11  21  36  55  83 118 149 196 243 293 348
#
# _framework density 23.682949000000001
#
# number of rings (size 3 to 8) (size 9 to 14) (size 15 to 20)
#    0.000    2.286    1.429    2.571    0.000    0.000 
#    2.571    0.000    0.000    0.000    0.000    9.000 
#    0.000    0.000    0.000    0.000    0.000    0.000 
#
# Total GULP energy -155920.431630 kJ/mol
# GULP energy per Si atom -5568.586844 kJ/mol
# Density = 2.362905 g / cm^3
# Si number density = 23.682949 Si / 1000 Ang^3
#
#
#
# Elastic Constant Matrix: (Units=GPa)
#
#
# Indices 1 2 3 4 5 6 
#
# 1 99.7083 9.0802 -21.8213 0.0000 0.0000 0.0000
# 2 9.0802 16.7977 -16.8395 0.0000 0.0000 0.0000
# 3 -21.8213 -16.8395 36.2425 0.0000 0.0000 0.0000
# 4 0.0000 0.0000 0.0000 12.4123 0.0000 0.0000
# 5 0.0000 0.0000 0.0000 0.0000 23.2836 0.0000
# 6 0.0000 0.0000 0.0000 0.0000 0.0000 24.3154
#
#
#
# Elastic Compliance Matrix: (Units=1/GPa)
#
#
# Indices 1 2 3 4 5 6 
#
# 1 0.011568 0.001365 0.007599 0.000000 0.000000 0.000000
# 2 0.001365 0.111601 0.052675 0.000000 0.000000 0.000000
# 3 0.007599 0.052675 0.056642 0.000000 0.000000 0.000000
# 4 0.000000 0.000000 0.000000 0.080565 0.000000 0.000000
# 5 0.000000 0.000000 0.000000 0.000000 0.042949 0.000000
# 6 0.000000 0.000000 0.000000 0.000000 0.000000 0.041126
#
#
# Mechanical properties :
#
#
# Convention : Reuss Voigt Hill
#
# Bulk Modulus (GPa) = 3.29936 10.39860 6.84898
# Shear Modulus (GPa) = 15.51821 24.15753 19.83787
#
# Velocity S-wave (km/s) = 2.56256 3.19727 2.89735
# Velocity P-wave (km/s) = 3.18618 4.24621 3.75381
#
# Compressibility (1/GPa) = 0.30308871
#
# Stress axis : x y z
#
# Youngs Moduli (GPa) = 86.44507 8.96053 17.65477
#
# Poissons Ratio (x) = -0.01223 -0.13416
# Poissons Ratio (y) = -0.11798 -0.92997
# Poissons Ratio (z) = -0.65691 -0.47200
#
# Static dielectric constant tensor:
#      x y z
#    x 2.040950 0.000000 0.000000 
#    y 0.000000 1.913870 0.000000 
#    z 0.000000 0.000000 1.930360 
# 
# From -- ./inp_files/21763.got.cif
#   From: 2010.05.17/outbox.cif.g08.bks.cpg/sg20_11_cif.got.tgz:21763.got - 2010.06.03 22:52:26.
