data_PCOD9317480
_publ_section_title
;
Structure prediction by ZEFSAII (Michael W. Deem and Ramdas Pophale) SiO2 
 PCOD9317480
Probable space group: C 2 2 21
;
_chemical_formula_sum "Si O2"
_cell_formula_units_Z 56
_cell_length_a 8.146686
_cell_length_b 22.144732
_cell_length_c 15.242003
_cell_angle_alpha 90.000000
_cell_angle_beta 90.000000
_cell_angle_gamma 90.000000
_cell_volume 2749.751509
_symmetry_space_group_name_H-M "C 2 2 21"
_symmetry_group_IT_number 20
_symmetry_cell_setting 'orthorhombic'
loop_
_space_group_symop_operation_xyz
x,y,z
-x,-y,1/2+z
x,-y,-z
-x,y,1/2-z
1/2+x,1/2+y,z
1/2-x,1/2-y,1/2+z
1/2+x,1/2-y,-z
1/2-x,1/2+y,1/2-z
loop_
_atom_site_type_symbol
_atom_site_label
_atom_site_fract_x
_atom_site_fract_y
_atom_site_fract_z
Si Si1 0.513017 0.178787 0.033400
Si Si2 0.762773 0.436556 0.524386
Si Si3 0.030057 0.782250 0.344475
Si Si4 0.076284 0.724830 0.845310
Si Si5 0.033598 0.097267 0.917458
Si Si6 0.033948 0.974397 0.847132
Si Si7 0.838547 0.854650 0.602286
O O1 0.631574 0.121866 0.046880
O O2 0.557400 0.242165 0.080390
O O3 0.346525 0.163677 0.083923
O O4 0.495647 0.191859 0.929458
O O5 0.850335 0.500000 0.500000
O O6 0.655885 0.418055 0.439094
O O7 0.629171 0.452891 0.599957
O O8 0.227479 0.787731 0.354072
O O9 0.954884 0.849390 0.348054
O O10 0.000000 0.753425 0.250000
O O11 0.063984 0.797311 0.860324
O O12 0.000000 0.709458 0.750000
O O13 0.109601 0.032158 0.896806
O O14 0.096763 0.125223 0.007507
O O15 0.000000 0.996873 0.750000
O O16 0.143923 0.914708 0.840402
#
# Coordination Sequence:
#
# PCOD9317480 Si02
#       7
#     8   8   8   8   8   8   8
#     4  11  23  41  62  89 127 158 202 257 314 366
#     4   9  20  38  64  82 116 165 202 245 310 360
#     4  11  24  37  63  94 121 162 207 251 309 369
#     4  11  24  40  61  91 125 162 205 257 315 366
#     4  10  19  39  61  87 120 160 203 247 296 363
#     4  10  21  38  61  89 121 163 211 253 295 361
#     4  10  22  37  62  89 118 163 205 249 306 364
#
# _framework density 20.365475
#
# number of rings (size 3 to 8) (size 9 to 14) (size 15 to 20)
#    0.000    1.714    2.857    2.143    2.000    5.714 
#    0.000    0.000    0.000    0.857    0.000    0.000 
#    0.000    0.000    0.000    0.000    0.000    0.000 
#
# Total GULP energy -156024.236440 kJ/mol
# GULP energy per Si atom -5572.294159 kJ/mol
# Density = 2.031912 g / cm^3
# Si number density = 20.365475 Si / 1000 Ang^3
#
#
#
# Elastic Constant Matrix: (Units=GPa)
#
#
# Indices 1 2 3 4 5 6 
#
# 1 21.2429 15.3591 -13.3006 0.0000 0.0000 0.0000
# 2 15.3591 119.4014 8.3685 0.0000 0.0000 0.0000
# 3 -13.3006 8.3685 81.2878 0.0000 0.0000 0.0000
# 4 0.0000 0.0000 0.0000 23.2093 0.0000 0.0000
# 5 0.0000 0.0000 0.0000 0.0000 16.1425 0.0000
# 6 0.0000 0.0000 0.0000 0.0000 0.0000 14.1139
#
#
#
# Elastic Compliance Matrix: (Units=1/GPa)
#
#
# Indices 1 2 3 4 5 6 
#
# 1 0.059859 -0.008447 0.010664 0.000000 0.000000 0.000000
# 2 -0.008447 0.009628 -0.002373 0.000000 0.000000 0.000000
# 3 0.010664 -0.002373 0.014291 0.000000 0.000000 0.000000
# 4 0.000000 0.000000 0.000000 0.043086 0.000000 0.000000
# 5 0.000000 0.000000 0.000000 0.000000 0.061948 0.000000
# 6 0.000000 0.000000 0.000000 0.000000 0.000000 0.070852
#
#
# Mechanical properties :
#
#
# Convention : Reuss Voigt Hill
#
# Bulk Modulus (GPa) = 11.98107 26.97623 19.47865
# Shear Modulus (GPa) = 17.37315 24.79345 21.08330
#
# Velocity S-wave (km/s) = 2.92390 3.49295 3.22102
# Velocity P-wave (km/s) = 4.15870 5.43529 4.83927
#
# Compressibility (1/GPa) = 0.08346498
#
# Stress axis : x y z
#
# Youngs Moduli (GPa) = 16.70589 103.86290 69.97313
#
# Poissons Ratio (x) = 0.87737 -0.74619
# Poissons Ratio (y) = 0.14112 0.16607
# Poissons Ratio (z) = -0.17815 0.24651
#
# Static dielectric constant tensor:
#      x y z
#    x 1.766050 0.000000 0.000000 
#    y 0.000000 1.852510 0.000000 
#    z 0.000000 0.000000 1.749920 
# 
# From -- ./inp_files/19209.got.cif
#   From: 2010.05.17/outbox.cif.g08.bks.cpg/sg20_10_cif.got.tgz:19209.got - 2010.06.03 22:52:26.
