data_PCOD9317422
_publ_section_title
;
Structure prediction by ZEFSAII (Michael W. Deem and Ramdas Pophale) SiO2 
 PCOD9317422
Probable space group: C 2 2 21
;
_chemical_formula_sum "Si O2"
_cell_formula_units_Z 52
_cell_length_a 6.558545
_cell_length_b 12.447423
_cell_length_c 25.325846
_cell_angle_alpha 90.000000
_cell_angle_beta 90.000000
_cell_angle_gamma 90.000000
_cell_volume 2067.525682
_symmetry_space_group_name_H-M "C 2 2 21"
_symmetry_group_IT_number 20
_symmetry_cell_setting 'orthorhombic'
loop_
_space_group_symop_operation_xyz
x,y,z
-x,-y,1/2+z
x,-y,-z
-x,y,1/2-z
1/2+x,1/2+y,z
1/2-x,1/2-y,1/2+z
1/2+x,1/2-y,-z
1/2-x,1/2+y,1/2-z
loop_
_atom_site_type_symbol
_atom_site_label
_atom_site_fract_x
_atom_site_fract_y
_atom_site_fract_z
Si Si1 0.787059 0.622320 0.793619
Si Si2 0.090497 0.698993 0.549142
Si Si3 0.512516 0.993384 0.381862
Si Si4 0.000000 0.967903 0.750000
Si Si5 0.384398 0.218723 0.372856
Si Si6 0.301056 0.220246 0.213723
Si Si7 0.178195 0.092650 0.039419
O O1 0.938692 0.541538 0.822491
O O2 0.570339 0.557719 0.793741
O O3 0.769529 0.726544 0.831097
O O4 0.805815 0.671484 0.735088
O O5 0.966017 0.611451 0.583338
O O6 0.314815 0.717977 0.575236
O O7 0.979549 0.812783 0.549903
O O8 0.133643 0.648214 0.492291
O O9 0.356566 0.091701 0.380898
O O10 0.719630 0.037471 0.409877
O O11 0.830490 0.880964 0.732002
O O12 0.608056 0.227460 0.345477
O O13 0.500000 0.211041 0.250000
O O14 0.098401 0.000000 0.000000
#
# Coordination Sequence:
#
# PCOD9317422 Si02
#       7
#     8   8   8   4   8   8   8
#     4  10  21  39  60  85 128 163 207 268 307 366
#     4  10  22  38  63  87 123 153 201 254 315 383
#     4  10  21  38  61  86 122 158 200 255 312 370
#     4  12  20  40  66  82 124 178 210 268 324 372
#     4  10  19  38  59  85 124 156 199 264 307 370
#     4  10  22  40  60  90 126 167 221 264 316 384
#     4  10  22  41  63  91 119 161 201 253 321 378
#
# _framework density 25.150836999999999
#
# number of rings (size 3 to 8) (size 9 to 14) (size 15 to 20)
#    0.000    1.846    3.846    0.923    0.000    4.923 
#    1.385    3.077    3.385    0.000    0.000    0.000 
#    0.000    0.000    0.000    0.000    0.000    0.000 
#
# Total GULP energy -144846.414529 kJ/mol
# GULP energy per Si atom -5571.015943 kJ/mol
# Density = 2.509359 g / cm^3
# Si number density = 25.150837 Si / 1000 Ang^3
#
#
#
# Elastic Constant Matrix: (Units=GPa)
#
#
# Indices 1 2 3 4 5 6 
#
# 1 28.9620 37.3542 11.7709 0.0000 0.0000 0.0000
# 2 37.3542 182.7480 47.8794 0.0000 0.0000 0.0000
# 3 11.7709 47.8794 65.0400 0.0000 0.0000 0.0000
# 4 0.0000 0.0000 0.0000 52.4767 0.0000 0.0000
# 5 0.0000 0.0000 0.0000 0.0000 16.2282 0.0000
# 6 0.0000 0.0000 0.0000 0.0000 0.0000 49.5641
#
#
#
# Elastic Compliance Matrix: (Units=1/GPa)
#
#
# Indices 1 2 3 4 5 6 
#
# 1 0.047055 -0.009152 -0.001779 0.000000 0.000000 0.000000
# 2 -0.009152 0.008560 -0.004645 0.000000 0.000000 0.000000
# 3 -0.001779 -0.004645 0.019116 0.000000 0.000000 0.000000
# 4 0.000000 0.000000 0.000000 0.019056 0.000000 0.000000
# 5 0.000000 0.000000 0.000000 0.000000 0.061621 0.000000
# 6 0.000000 0.000000 0.000000 0.000000 0.000000 0.020176
#
#
# Mechanical properties :
#
#
# Convention : Reuss Voigt Hill
#
# Bulk Modulus (GPa) = 22.94639 52.30657 37.62648
# Shear Modulus (GPa) = 22.59762 35.63682 29.11722
#
# Velocity S-wave (km/s) = 3.00072 3.76829 3.40620
# Velocity P-wave (km/s) = 4.59882 6.30679 5.51927
#
# Compressibility (1/GPa) = 0.04357983
#
# Stress axis : x y z
#
# Youngs Moduli (GPa) = 21.25170 116.82646 52.31114
#
# Poissons Ratio (x) = 1.06922 0.09304
# Poissons Ratio (y) = 0.19450 0.24298
# Poissons Ratio (z) = 0.03780 0.54265
#
# Static dielectric constant tensor:
#      x y z
#    x 2.049940 0.000000 0.000000 
#    y 0.000000 1.989720 0.000000 
#    z 0.000000 0.000000 2.107360 
# 
# From -- ./inp_files/30108.got.cif
#   From: 2010.05.17/outbox.cif.g08.bks.cpg/sg20_16_cif.got.tgz:30108.got - 2010.06.03 22:52:26.
