data_PCOD9317084
_publ_section_title
;
Structure prediction by ZEFSAII (Michael W. Deem and Ramdas Pophale) SiO2 
 PCOD9317084
Probable space group: C 2 2 21
;
_chemical_formula_sum "Si O2"
_cell_formula_units_Z 52
_cell_length_a 19.099015
_cell_length_b 16.967790
_cell_length_c 9.251633
_cell_angle_alpha 90.000000
_cell_angle_beta 90.000000
_cell_angle_gamma 90.000000
_cell_volume 2998.158904
_symmetry_space_group_name_H-M "C 2 2 21"
_symmetry_group_IT_number 20
_symmetry_cell_setting 'orthorhombic'
loop_
_space_group_symop_operation_xyz
x,y,z
-x,-y,1/2+z
x,-y,-z
-x,y,1/2-z
1/2+x,1/2+y,z
1/2-x,1/2-y,1/2+z
1/2+x,1/2-y,-z
1/2-x,1/2+y,1/2-z
loop_
_atom_site_type_symbol
_atom_site_label
_atom_site_fract_x
_atom_site_fract_y
_atom_site_fract_z
Si Si1 0.166892 0.687999 0.987886
Si Si2 0.359457 0.055878 0.311486
Si Si3 0.867315 0.315992 0.936173
Si Si4 0.228674 0.562595 0.620001
Si Si5 0.278487 0.296232 0.249518
Si Si6 0.518786 0.000000 0.000000
Si Si7 0.496707 0.828005 0.420697
O O1 0.177140 0.599566 0.052578
O O2 0.202788 0.744507 0.108037
O O3 0.202687 0.704016 0.832741
O O4 0.081887 0.692027 0.974137
O O5 0.377682 0.125539 0.199990
O O6 0.314781 0.990106 0.231700
O O7 0.430572 0.017804 0.366156
O O8 0.826357 0.241207 0.874128
O O9 0.820423 0.370466 0.043746
O O10 0.939334 0.285036 0.002841
O O11 0.253340 0.500000 0.500000
O O12 0.287020 0.613700 0.700864
O O13 0.482543 0.081159 0.960979
O O14 0.500000 0.818517 0.250000
#
# Coordination Sequence:
#
# PCOD9317084 Si02
#       7
#     8   8   8   8   8   4   8
#     4  10  22  36  58  81 119 154 194 234 288 342
#     4   9  19  33  50  81 113 151 191 230 267 344
#     4  10  21  34  54  79 118 154 192 230 281 344
#     4  10  19  34  56  82 116 153 194 239 282 334
#     4  11  20  37  57  80 114 158 194 242 282 333
#     4  10  20  28  48  74 114 158 182 218 260 334
#     4  11  23  34  51  80 116 156 193 225 278 346
#
# _framework density 17.343976999999999
#
# number of rings (size 3 to 8) (size 9 to 14) (size 15 to 20)
#    0.000    1.846    1.538    3.692    5.385    4.923 
#    0.000    0.000    0.000    0.000    0.000    0.000 
#   23.077    0.000    0.000    0.000    0.000    0.000 
#
# Total GULP energy -144829.679579 kJ/mol
# GULP energy per Si atom -5570.372291 kJ/mol
# Density = 1.730450 g / cm^3
# Si number density = 17.343977 Si / 1000 Ang^3
#
#
#
# Elastic Constant Matrix: (Units=GPa)
#
#
# Indices 1 2 3 4 5 6 
#
# 1 70.0800 45.0643 39.4276 0.0000 0.0000 0.0000
# 2 45.0643 76.6824 38.5893 0.0000 0.0000 0.0000
# 3 39.4276 38.5893 87.9530 0.0000 0.0000 0.0000
# 4 0.0000 0.0000 0.0000 30.3279 0.0000 0.0000
# 5 0.0000 0.0000 0.0000 0.0000 27.2371 0.0000
# 6 0.0000 0.0000 0.0000 0.0000 0.0000 24.3468
#
#
#
# Elastic Compliance Matrix: (Units=1/GPa)
#
#
# Indices 1 2 3 4 5 6 
#
# 1 0.025314 -0.011763 -0.006187 0.000000 0.000000 0.000000
# 2 -0.011763 0.022202 -0.004468 0.000000 0.000000 0.000000
# 3 -0.006187 -0.004468 0.016103 0.000000 0.000000 0.000000
# 4 0.000000 0.000000 0.000000 0.032973 0.000000 0.000000
# 5 0.000000 0.000000 0.000000 0.000000 0.036715 0.000000
# 6 0.000000 0.000000 0.000000 0.000000 0.000000 0.041073
#
#
# Mechanical properties :
#
#
# Convention : Reuss Voigt Hill
#
# Bulk Modulus (GPa) = 53.23679 53.43087 53.33383
# Shear Modulus (GPa) = 22.17512 23.82467 22.99990
#
# Velocity S-wave (km/s) = 3.57956 3.71031 3.64552
# Velocity P-wave (km/s) = 6.91705 7.01631 6.96686
#
# Compressibility (1/GPa) = 0.01878400
#
# Stress axis : x y z
#
# Youngs Moduli (GPa) = 39.50324 45.04070 62.09840
#
# Poissons Ratio (x) = 0.52982 0.38419
# Poissons Ratio (y) = 0.46468 0.27745
# Poissons Ratio (z) = 0.24440 0.20124
#
# Static dielectric constant tensor:
#      x y z
#    x 1.605160 0.000000 0.000000 
#    y 0.000000 1.638840 0.000000 
#    z 0.000000 0.000000 1.675400 
# 
# From -- ./inp_files/9519.got.cif
#   From: 2010.05.17/outbox.cif.g08.bks.cpg/sg20_5_cif.got.tgz:9519.got - 2010.06.03 22:52:26.
