data_PCOD9317406
_publ_section_title
;
Structure prediction by ZEFSAII (Michael W. Deem and Ramdas Pophale) SiO2 
 PCOD9317406
Probable space group: C 2 2 21
;
_chemical_formula_sum "Si O2"
_cell_formula_units_Z 56
_cell_length_a 16.772292
_cell_length_b 32.674134
_cell_length_c 4.940739
_cell_angle_alpha 90.000000
_cell_angle_beta 90.000000
_cell_angle_gamma 90.000000
_cell_volume 2707.624361
_symmetry_space_group_name_H-M "C 2 2 21"
_symmetry_group_IT_number 20
_symmetry_cell_setting 'orthorhombic'
loop_
_space_group_symop_operation_xyz
x,y,z
-x,-y,1/2+z
x,-y,-z
-x,y,1/2-z
1/2+x,1/2+y,z
1/2-x,1/2-y,1/2+z
1/2+x,1/2-y,-z
1/2-x,1/2+y,1/2-z
loop_
_atom_site_type_symbol
_atom_site_label
_atom_site_fract_x
_atom_site_fract_y
_atom_site_fract_z
Si Si1 0.214317 0.087768 0.116186
Si Si2 0.942622 0.863001 0.496423
Si Si3 0.940738 0.545650 0.500032
Si Si4 0.308667 0.112860 0.605550
Si Si5 0.212422 0.300560 0.926277
Si Si6 0.443707 0.500000 0.000000
Si Si7 0.165057 0.000000 0.000000
Si Si8 0.176314 0.790105 0.077165
O O1 0.128295 0.104703 0.032794
O O2 0.232764 0.103152 0.416246
O O3 0.214157 0.038880 0.101370
O O4 0.280210 0.106040 0.911713
O O5 0.898473 0.819358 0.462752
O O6 0.000000 0.861981 0.750000
O O7 0.000000 0.873448 0.250000
O O8 0.903867 0.500000 0.500000
O O9 0.875106 0.580364 0.523977
O O10 0.000000 0.547814 0.750000
O O11 0.000000 0.550558 0.250000
O O12 0.332228 0.158894 0.524246
O O13 0.163694 0.258454 0.956804
O O14 0.288215 0.296833 0.125748
O O15 0.252545 0.302347 0.630655
O O16 0.500000 0.479837 0.750000
O O17 0.383444 0.517322 0.767796
#
# Coordination Sequence:
#
# PCOD9317406 Si02
#       8
#     8   8   8   8   8   4   4   8
#     4  12  26  40  61  94 126 165 229 260 320 361
#     4  12  24  40  59  87 131 171 211 265 314 368
#     4  10  23  42  64  95 131 165 198 241 322 397
#     4  12  22  41  67  94 127 166 207 270 301 384
#     4  10  19  37  66  88 121 152 206 264 305 370
#     4   9  20  38  60  74 104 157 208 258 326 375
#     4  11  24  40  56  86 122 155 216 292 292 369
#     4  10  20  38  60  91 118 161 206 252 316 380
#
# _framework density 20.682334999999998
#
# number of rings (size 3 to 8) (size 9 to 14) (size 15 to 20)
#    0.000    1.143    2.857    3.429    2.000    3.429 
#    0.000    1.429    0.000    0.000    0.000    0.000 
#    0.000    0.000    0.000    0.000    0.000    0.000 
#
# Total GULP energy -156165.616355 kJ/mol
# GULP energy per Si atom -5577.343441 kJ/mol
# Density = 2.063526 g / cm^3
# Si number density = 20.682335 Si / 1000 Ang^3
#
#
#
# Elastic Constant Matrix: (Units=GPa)
#
#
# Indices 1 2 3 4 5 6 
#
# 1 46.8141 33.4159 -1.3732 0.0000 0.0000 0.0000
# 2 33.4159 142.0930 -13.2398 0.0000 0.0000 0.0000
# 3 -1.3732 -13.2398 91.8772 0.0000 0.0000 0.0000
# 4 0.0000 0.0000 0.0000 22.5988 0.0000 0.0000
# 5 0.0000 0.0000 0.0000 0.0000 -3.7574 0.0000
# 6 0.0000 0.0000 0.0000 0.0000 0.0000 36.8840
#
#
#
# Elastic Compliance Matrix: (Units=1/GPa)
#
#
# Indices 1 2 3 4 5 6 
#
# 1 0.025692 -0.006088 -0.000493 0.000000 0.000000 0.000000
# 2 -0.006088 0.008576 0.001145 0.000000 0.000000 0.000000
# 3 -0.000493 0.001145 0.011042 0.000000 0.000000 0.000000
# 4 0.000000 0.000000 0.000000 0.044250 0.000000 0.000000
# 5 0.000000 0.000000 0.000000 0.000000 -0.266140 0.000000
# 6 0.000000 0.000000 0.000000 0.000000 0.000000 0.027112
#
#
# Mechanical properties :
#
#
# Convention : Reuss Voigt Hill
#
# Bulk Modulus (GPa) = 29.03849 35.37668 32.20759
# Shear Modulus (GPa) = -39.33419 28.61050 -5.36184
#
# Velocity S-wave (km/s) = -4.36572 3.72335 -1.61186
# Velocity P-wave (km/s) = 3.36779 5.96878 3.48456
#
# Compressibility (1/GPa) = 0.03443705
#
# Stress axis : x y z
#
# Youngs Moduli (GPa) = 38.92230 116.60425 90.56576
#
# Poissons Ratio (x) = 0.70988 0.04468
# Poissons Ratio (y) = 0.23696 -0.10368
# Poissons Ratio (z) = 0.01920 -0.13349
#
# Static dielectric constant tensor:
#      x y z
#    x 1.722350 0.000000 0.000000 
#    y 0.000000 1.788150 0.000000 
#    z 0.000000 0.000000 1.725170 
# 
# From -- ./inp_files/2286.got.cif
#   From: 2010.05.17/outbox.cif.g08.bks.cpg/sg20_2_cif.got.tgz:2286.got - 2010.06.03 22:52:26.
