data_PCOD9317352
_publ_section_title
;
Structure prediction by ZEFSAII (Michael W. Deem and Ramdas Pophale) SiO2 
 PCOD9317352
Probable space group: C 2 2 21
;
_chemical_formula_sum "Si O2"
_cell_formula_units_Z 64
_cell_length_a 19.571616
_cell_length_b 18.466350
_cell_length_c 9.007015
_cell_angle_alpha 90.000000
_cell_angle_beta 90.000000
_cell_angle_gamma 90.000000
_cell_volume 3255.282136
_symmetry_space_group_name_H-M "C 2 2 21"
_symmetry_group_IT_number 20
_symmetry_cell_setting 'orthorhombic'
loop_
_space_group_symop_operation_xyz
x,y,z
-x,-y,1/2+z
x,-y,-z
-x,y,1/2-z
1/2+x,1/2+y,z
1/2-x,1/2-y,1/2+z
1/2+x,1/2-y,-z
1/2-x,1/2+y,1/2-z
loop_
_atom_site_type_symbol
_atom_site_label
_atom_site_fract_x
_atom_site_fract_y
_atom_site_fract_z
Si Si1 0.060591 0.444881 0.636299
Si Si2 0.823065 0.079737 0.995337
Si Si3 0.005115 0.324651 0.072372
Si Si4 0.891137 0.221897 0.087583
Si Si5 0.651596 0.192006 0.877344
Si Si6 0.790079 0.574218 0.262957
Si Si7 0.733962 0.199143 0.450724
Si Si8 0.256074 0.086508 0.787206
O O1 0.075897 0.500000 0.500000
O O2 0.128778 0.430655 0.733172
O O3 0.000000 0.467782 0.750000
O O4 0.034387 0.376210 0.541247
O O5 0.870851 0.139211 0.068804
O O6 0.749361 0.073227 0.079853
O O7 0.805746 0.098807 0.826410
O O8 0.854031 0.000000 0.000000
O O9 0.084425 0.323983 0.029770
O O10 0.000000 0.346329 0.250000
O O11 0.968354 0.246840 0.060785
O O12 0.872610 0.252498 0.249510
O O13 0.839869 0.266797 0.981524
O O14 0.713267 0.234583 0.953780
O O15 0.677386 0.119126 0.797081
O O16 0.766790 0.651022 0.196214
O O17 0.763650 0.499104 0.187277
O O18 0.750714 0.138898 0.573902
#
# Coordination Sequence:
#
# PCOD9317352 Si02
#       8
#     8   8   8   8   8   8   8   8
#     4  12  27  39  57  85 123 169 199 238 290 365
#     4  10  21  37  59  88 116 149 192 249 303 350
#     4  10  23  42  60  84 119 160 205 245 298 357
#     4  10  19  37  59  86 114 153 198 248 299 348
#     4  10  21  35  62  87 115 156 197 248 295 360
#     4  11  23  39  59  86 118 155 200 241 298 355
#     4  11  19  36  61  85 113 152 201 245 298 349
#     4  10  22  35  58  87 120 153 189 250 295 351
#
# _framework density 19.660353000000001
#
# number of rings (size 3 to 8) (size 9 to 14) (size 15 to 20)
#    0.000    1.500    3.750    1.500    7.000    0.500 
#    2.250    0.000    0.000    1.500    0.000    0.000 
#    0.000    0.000    0.000    0.000    0.000    0.000 
#
# Total GULP energy -178453.047939 kJ/mol
# GULP energy per Si atom -5576.657748 kJ/mol
# Density = 1.961561 g / cm^3
# Si number density = 19.660353 Si / 1000 Ang^3
#
#
#
# Elastic Constant Matrix: (Units=GPa)
#
#
# Indices 1 2 3 4 5 6 
#
# 1 60.1968 -0.1152 -1.7453 0.0000 0.0000 0.0000
# 2 -0.1152 86.0713 13.3280 0.0000 0.0000 0.0000
# 3 -1.7453 13.3280 42.2457 0.0000 0.0000 0.0000
# 4 0.0000 0.0000 0.0000 25.9645 0.0000 0.0000
# 5 0.0000 0.0000 0.0000 0.0000 16.4005 0.0000
# 6 0.0000 0.0000 0.0000 0.0000 0.0000 17.8679
#
#
#
# Elastic Compliance Matrix: (Units=1/GPa)
#
#
# Indices 1 2 3 4 5 6 
#
# 1 0.016633 -0.000088 0.000715 0.000000 0.000000 0.000000
# 2 -0.000088 0.012215 -0.003857 0.000000 0.000000 0.000000
# 3 0.000715 -0.003857 0.024918 0.000000 0.000000 0.000000
# 4 0.000000 0.000000 0.000000 0.038514 0.000000 0.000000
# 5 0.000000 0.000000 0.000000 0.000000 0.060974 0.000000
# 6 0.000000 0.000000 0.000000 0.000000 0.000000 0.055966
#
#
# Mechanical properties :
#
#
# Convention : Reuss Voigt Hill
#
# Bulk Modulus (GPa) = 21.13984 23.49429 22.31706
# Shear Modulus (GPa) = 21.60297 23.84967 22.72632
#
# Velocity S-wave (km/s) = 3.31842 3.48671 3.40361
# Velocity P-wave (km/s) = 5.04564 5.30901 5.17900
#
# Compressibility (1/GPa) = 0.04730406
#
# Stress axis : x y z
#
# Youngs Moduli (GPa) = 60.12233 81.86333 40.13228
#
# Poissons Ratio (x) = 0.00724 -0.02870
# Poissons Ratio (y) = 0.00532 0.15481
# Poissons Ratio (z) = -0.04299 0.31579
#
# Static dielectric constant tensor:
#      x y z
#    x 1.706070 0.000000 0.000000 
#    y 0.000000 1.693970 0.000000 
#    z 0.000000 0.000000 1.737830 
# 
# From -- ./inp_files/10345.got.cif
#   From: 2010.05.17/outbox.cif.g08.bks.cpg/sg20_6_cif.got.tgz:10345.got - 2010.06.03 22:52:26.
