data_PCOD9317665
_publ_section_title
;
Structure prediction by ZEFSAII (Michael W. Deem and Ramdas Pophale) SiO2 
 PCOD9317665
Probable space group: C 2 2 21
;
_chemical_formula_sum "Si O2"
_cell_formula_units_Z 48
_cell_length_a 24.032565
_cell_length_b 13.303164
_cell_length_c 8.185400
_cell_angle_alpha 90.000000
_cell_angle_beta 90.000000
_cell_angle_gamma 90.000000
_cell_volume 2616.947305
_symmetry_space_group_name_H-M "C 2 2 21"
_symmetry_group_IT_number 20
_symmetry_cell_setting 'orthorhombic'
loop_
_space_group_symop_operation_xyz
x,y,z
-x,-y,1/2+z
x,-y,-z
-x,y,1/2-z
1/2+x,1/2+y,z
1/2-x,1/2-y,1/2+z
1/2+x,1/2-y,-z
1/2-x,1/2+y,1/2-z
loop_
_atom_site_type_symbol
_atom_site_label
_atom_site_fract_x
_atom_site_fract_y
_atom_site_fract_z
Si Si1 0.914724 0.000000 0.000000
Si Si2 0.843766 0.177600 0.125549
Si Si3 0.596310 0.618810 0.040545
Si Si4 0.693285 0.348318 0.176599
Si Si5 0.243819 0.464368 0.826562
Si Si6 0.500000 0.429226 0.750000
Si Si7 0.206645 0.331073 0.570700
O O1 0.878323 0.898878 0.990193
O O2 0.953706 0.994958 0.841077
O O3 0.870734 0.160793 0.302033
O O4 0.782139 0.131518 0.133739
O O5 0.838177 0.291690 0.062546
O O6 0.532526 0.629776 0.104892
O O7 0.602520 0.500000 0.000000
O O8 0.630112 0.663003 0.887193
O O9 0.712658 0.453522 0.257091
O O10 0.705886 0.262158 0.305336
O O11 0.734853 0.340738 0.022486
O O12 0.201929 0.430104 0.683741
O O13 0.219518 0.500000 0.000000
#
# Coordination Sequence:
#
# PCOD9317665 Si02
#       7
#     4   8   8   8   8   4   8
#     4  10  20  34  52  72 106 148 180 230 270 328
#     4  11  20  33  48  72 105 140 191 227 268 319
#     4  11  20  34  51  74 103 148 189 224 270 324
#     4  12  20  34  53  74 110 152 191 227 280 321
#     4  12  21  35  51  75 106 149 196 229 270 327
#     4  10  22  32  50  80 102 138 202 220 266 334
#     4  12  22  33  50  80 104 145 202 231 262 338
#
# _framework density 18.341982000000002
#
# number of rings (size 3 to 8) (size 9 to 14) (size 15 to 20)
#    0.000    0.667    8.333    0.500    2.333    0.000 
#    0.000    0.000    0.000    0.000    0.000    0.000 
#    0.000    0.000    0.000  345.000    0.000    0.000 
#
# Total GULP energy -133633.153577 kJ/mol
# GULP energy per Si atom -5568.048066 kJ/mol
# Density = 1.830024 g / cm^3
# Si number density = 18.341982 Si / 1000 Ang^3
#
#
#
# Elastic Constant Matrix: (Units=GPa)
#
#
# Indices 1 2 3 4 5 6 
#
# 1 53.5992 14.1965 25.7856 0.0000 0.0000 0.0000
# 2 14.1965 31.4093 22.0704 0.0000 0.0000 0.0000
# 3 25.7856 22.0704 99.9607 0.0000 0.0000 0.0000
# 4 0.0000 0.0000 0.0000 42.7316 0.0000 0.0000
# 5 0.0000 0.0000 0.0000 0.0000 41.6903 0.0000
# 6 0.0000 0.0000 0.0000 0.0000 0.0000 18.6949
#
#
#
# Elastic Compliance Matrix: (Units=1/GPa)
#
#
# Indices 1 2 3 4 5 6 
#
# 1 0.022613 -0.007246 -0.004233 0.000000 0.000000 0.000000
# 2 -0.007246 0.040006 -0.006964 0.000000 0.000000 0.000000
# 3 -0.004233 -0.006964 0.012633 0.000000 0.000000 0.000000
# 4 0.000000 0.000000 0.000000 0.023402 0.000000 0.000000
# 5 0.000000 0.000000 0.000000 0.000000 0.023986 0.000000
# 6 0.000000 0.000000 0.000000 0.000000 0.000000 0.053491
#
#
# Mechanical properties :
#
#
# Convention : Reuss Voigt Hill
#
# Bulk Modulus (GPa) = 26.06467 34.34159 30.20313
# Shear Modulus (GPa) = 22.14289 28.81779 25.48034
#
# Velocity S-wave (km/s) = 3.47828 3.96806 3.73122
# Velocity P-wave (km/s) = 5.51113 6.30536 5.92157
#
# Compressibility (1/GPa) = 0.03836612
#
# Stress axis : x y z
#
# Youngs Moduli (GPa) = 44.22285 24.99620 79.15468
#
# Poissons Ratio (x) = 0.18112 0.33508
# Poissons Ratio (y) = 0.32044 0.55122
# Poissons Ratio (z) = 0.18721 0.17407
#
# Static dielectric constant tensor:
#      x y z
#    x 1.661750 0.000000 0.000000 
#    y 0.000000 1.656120 0.000000 
#    z 0.000000 0.000000 1.775180 
# 
# From -- ./inp_files/8815.got.cif
#   From: 2010.05.17/outbox.cif.g08.bks.cpg/sg20_5_cif.got.tgz:8815.got - 2010.06.03 22:52:26.
