data_PCOD9317952
_publ_section_title
;
Structure prediction by ZEFSAII (Michael W. Deem and Ramdas Pophale) SiO2 
 PCOD9317952
Probable space group: C 2 2 21
;
_chemical_formula_sum "Si O2"
_cell_formula_units_Z 60
_cell_length_a 12.319817
_cell_length_b 7.369018
_cell_length_c 28.880633
_cell_angle_alpha 90.000000
_cell_angle_beta 90.000000
_cell_angle_gamma 90.000000
_cell_volume 2621.926916
_symmetry_space_group_name_H-M "C 2 2 21"
_symmetry_group_IT_number 20
_symmetry_cell_setting 'orthorhombic'
loop_
_space_group_symop_operation_xyz
x,y,z
-x,-y,1/2+z
x,-y,-z
-x,y,1/2-z
1/2+x,1/2+y,z
1/2-x,1/2-y,1/2+z
1/2+x,1/2-y,-z
1/2-x,1/2+y,1/2-z
loop_
_atom_site_type_symbol
_atom_site_label
_atom_site_fract_x
_atom_site_fract_y
_atom_site_fract_z
Si Si1 0.373651 0.887729 0.900933
Si Si2 0.192690 0.590118 0.205674
Si Si3 0.437786 0.087449 0.637809
Si Si4 0.657806 0.315392 0.940104
Si Si5 0.253279 0.000000 0.500000
Si Si6 0.080567 0.134992 0.322671
Si Si7 0.571694 0.510773 0.428389
Si Si8 0.354247 0.730130 0.798381
O O1 0.466705 0.036477 0.897736
O O2 0.264406 0.934478 0.928801
O O3 0.420048 0.706658 0.924855
O O4 0.354975 0.837963 0.846512
O O5 0.111490 0.588385 0.162488
O O6 0.302716 0.702577 0.195329
O O7 0.242558 0.386518 0.205470
O O8 0.139373 0.647343 0.253313
O O9 0.352550 0.195574 0.607010
O O10 0.488534 0.214908 0.677746
O O11 0.546284 0.424008 0.944882
O O12 0.679151 0.168734 0.980077
O O13 0.170882 0.069474 0.460482
O O14 0.090998 0.083107 0.376654
O O15 0.060686 0.938514 0.299531
#
# Coordination Sequence:
#
# PCOD9317952 Si02
#       8
#     8   8   8   8   4   8   8   8
#     4  10  21  39  59  89 119 163 209 248 300 381
#     4  10  20  39  58  85 122 163 205 270 307 361
#     4  11  21  38  68  83 119 170 209 243 323 370
#     4  10  21  42  63  87 129 159 194 256 306 366
#     4  10  20  36  66  94 122 154 198 254 296 380
#     4   8  20  39  60  85 118 163 204 252 302 381
#     4   9  19  40  61  88 125 159 197 244 315 367
#     4   9  20  38  57  84 126 155 211 262 314 347
#
# _framework density 22.883932000000001
#
# number of rings (size 3 to 8) (size 9 to 14) (size 15 to 20)
#    0.800    1.600    1.333    0.800    1.867    3.733 
#    0.000    4.000    0.000    0.000    0.000    0.000 
#    0.000    0.000    0.000    0.000    0.000    0.000 
#
# Total GULP energy -167403.954233 kJ/mol
# GULP energy per Si atom -5580.131808 kJ/mol
# Density = 2.283185 g / cm^3
# Si number density = 22.883932 Si / 1000 Ang^3
#
#
#
# Elastic Constant Matrix: (Units=GPa)
#
#
# Indices 1 2 3 4 5 6 
#
# 1 62.8519 5.1504 13.1529 0.0000 0.0000 0.0000
# 2 5.1504 24.3278 4.0737 0.0000 0.0000 0.0000
# 3 13.1529 4.0737 49.9007 0.0000 0.0000 0.0000
# 4 0.0000 0.0000 0.0000 22.4509 0.0000 0.0000
# 5 0.0000 0.0000 0.0000 0.0000 28.6687 0.0000
# 6 0.0000 0.0000 0.0000 0.0000 0.0000 22.2188
#
#
#
# Elastic Compliance Matrix: (Units=1/GPa)
#
#
# Indices 1 2 3 4 5 6 
#
# 1 0.017038 -0.002895 -0.004255 0.000000 0.000000 0.000000
# 2 -0.002895 0.042167 -0.002679 0.000000 0.000000 0.000000
# 3 -0.004255 -0.002679 0.021380 0.000000 0.000000 0.000000
# 4 0.000000 0.000000 0.000000 0.044542 0.000000 0.000000
# 5 0.000000 0.000000 0.000000 0.000000 0.034881 0.000000
# 6 0.000000 0.000000 0.000000 0.000000 0.000000 0.045007
#
#
# Mechanical properties :
#
#
# Convention : Reuss Voigt Hill
#
# Bulk Modulus (GPa) = 16.41294 20.20382 18.30838
# Shear Modulus (GPa) = 20.40976 22.31457 21.36216
#
# Velocity S-wave (km/s) = 2.98968 3.12608 3.05864
# Velocity P-wave (km/s) = 4.37097 4.67737 4.52677
#
# Compressibility (1/GPa) = 0.06092752
#
# Stress axis : x y z
#
# Youngs Moduli (GPa) = 58.69241 23.71536 46.77272
#
# Poissons Ratio (x) = 0.06865 0.19900
# Poissons Ratio (y) = 0.16989 0.12532
# Poissons Ratio (z) = 0.24971 0.06354
#
# Static dielectric constant tensor:
#      x y z
#    x 1.884910 0.000000 0.000000 
#    y 0.000000 1.862670 0.000000 
#    z 0.000000 0.000000 1.843510 
# 
# From -- ./inp_files/31171.got.cif
#   From: 2010.05.17/outbox.cif.g08.bks.cpg/sg20_16_cif.got.tgz:31171.got - 2010.06.03 22:52:26.
