data_PCOD9317682
_publ_section_title
;
Structure prediction by ZEFSAII (Michael W. Deem and Ramdas Pophale) SiO2 
 PCOD9317682
Probable space group: C 2 2 21
;
_chemical_formula_sum "Si O2"
_cell_formula_units_Z 60
_cell_length_a 5.383849
_cell_length_b 18.090299
_cell_length_c 27.537969
_cell_angle_alpha 90.000000
_cell_angle_beta 90.000000
_cell_angle_gamma 90.000000
_cell_volume 2682.072557
_symmetry_space_group_name_H-M "C 2 2 21"
_symmetry_group_IT_number 20
_symmetry_cell_setting 'orthorhombic'
loop_
_space_group_symop_operation_xyz
x,y,z
-x,-y,1/2+z
x,-y,-z
-x,y,1/2-z
1/2+x,1/2+y,z
1/2-x,1/2-y,1/2+z
1/2+x,1/2-y,-z
1/2-x,1/2+y,1/2-z
loop_
_atom_site_type_symbol
_atom_site_label
_atom_site_fract_x
_atom_site_fract_y
_atom_site_fract_z
Si Si1 0.246313 0.898023 0.280230
Si Si2 0.430544 0.312689 0.349801
Si Si3 0.145557 0.186265 0.381406
Si Si4 0.348282 0.500000 0.000000
Si Si5 0.185879 0.312116 0.073881
Si Si6 0.538933 0.855889 0.974262
Si Si7 0.346740 0.560059 0.417250
Si Si8 0.037852 0.559495 0.634070
O O1 0.500000 0.883894 0.250000
O O2 0.339404 0.952418 0.323082
O O3 0.000000 0.921313 0.250000
O O4 0.149228 0.827512 0.311338
O O5 0.299309 0.233673 0.342020
O O6 0.535348 0.314016 0.405235
O O7 0.251937 0.384374 0.346356
O O8 0.330606 0.172259 0.426038
O O9 0.940235 0.246111 0.396619
O O10 0.009601 0.107208 0.379229
O O11 0.178517 0.429522 0.991660
O O12 0.511904 0.499401 0.950965
O O13 0.078554 0.390150 0.092061
O O14 0.100233 0.301764 0.018640
O O15 0.267387 0.882275 0.956963
O O16 0.139613 0.515560 0.388110
#
# Coordination Sequence:
#
# PCOD9317682 Si02
#       8
#     8   8   8   4   8   8   8   8
#     4  11  22  42  72 111 135 161 214 288 367 429
#     4  10  21  41  64  97 138 168 228 284 357 411
#     4  10  24  35  56  89 133 186 229 275 332 395
#     4  10  20  34  54  82 124 180 234 278 316 382
#     4  10  21  35  57  85 127 188 229 285 326 384
#     4  11  22  35  55  83 131 180 239 272 322 387
#     4  11  22  38  56  92 132 187 233 281 341 408
#     4  10  21  38  65  96 136 169 217 288 346 415
#
# _framework density 22.370760000000001
#
# number of rings (size 3 to 8) (size 9 to 14) (size 15 to 20)
#    0.000    1.600    1.333    3.600    3.733    5.333 
#    0.000    0.000    0.000    0.000    0.000   38.267 
#    0.000    0.000    0.000    0.000    0.000    0.000 
#
# Total GULP energy -167284.091812 kJ/mol
# GULP energy per Si atom -5576.136394 kJ/mol
# Density = 2.231984 g / cm^3
# Si number density = 22.370760 Si / 1000 Ang^3
#
#
#
# Elastic Constant Matrix: (Units=GPa)
#
#
# Indices 1 2 3 4 5 6 
#
# 1 84.0863 22.6798 28.8186 0.0000 0.0000 0.0000
# 2 22.6798 62.3066 28.8616 0.0000 0.0000 0.0000
# 3 28.8186 28.8616 61.7542 0.0000 0.0000 0.0000
# 4 0.0000 0.0000 0.0000 7.7880 0.0000 0.0000
# 5 0.0000 0.0000 0.0000 0.0000 42.8149 0.0000
# 6 0.0000 0.0000 0.0000 0.0000 0.0000 39.6882
#
#
#
# Elastic Compliance Matrix: (Units=1/GPa)
#
#
# Indices 1 2 3 4 5 6 
#
# 1 0.014514 -0.002739 -0.005493 0.000000 0.000000 0.000000
# 2 -0.002739 0.021001 -0.008537 0.000000 0.000000 0.000000
# 3 -0.005493 -0.008537 0.022747 0.000000 0.000000 0.000000
# 4 0.000000 0.000000 0.000000 0.128403 0.000000 0.000000
# 5 0.000000 0.000000 0.000000 0.000000 0.023356 0.000000
# 6 0.000000 0.000000 0.000000 0.000000 0.000000 0.025196
#
#
# Mechanical properties :
#
#
# Convention : Reuss Voigt Hill
#
# Bulk Modulus (GPa) = 40.44687 40.98525 40.71606
# Shear Modulus (GPa) = 18.05075 26.57734 22.31405
#
# Velocity S-wave (km/s) = 2.84366 3.45053 3.16169
# Velocity P-wave (km/s) = 5.37600 5.85112 5.61858
#
# Compressibility (1/GPa) = 0.02472379
#
# Stress axis : x y z
#
# Youngs Moduli (GPa) = 68.89968 47.61673 43.96250
#
# Poissons Ratio (x) = 0.13040 0.24150
# Poissons Ratio (y) = 0.18868 0.37531
# Poissons Ratio (z) = 0.37848 0.40651
#
# Static dielectric constant tensor:
#      x y z
#    x 1.972440 0.000000 0.000000 
#    y 0.000000 1.852790 0.000000 
#    z 0.000000 0.000000 1.902250 
# 
# From -- ./inp_files/30834.got.cif
#   From: 2010.05.17/outbox.cif.g08.bks.cpg/sg20_16_cif.got.tgz:30834.got - 2010.06.03 22:52:26.
