data_PCOD9317445
_publ_section_title
;
Structure prediction by ZEFSAII (Michael W. Deem and Ramdas Pophale) SiO2 
 PCOD9317445
Probable space group: C 2 2 21
;
_chemical_formula_sum "Si O2"
_cell_formula_units_Z 36
_cell_length_a 18.585137
_cell_length_b 12.186651
_cell_length_c 5.662597
_cell_angle_alpha 90.000000
_cell_angle_beta 90.000000
_cell_angle_gamma 90.000000
_cell_volume 1282.524870
_symmetry_space_group_name_H-M "C 2 2 21"
_symmetry_group_IT_number 20
_symmetry_cell_setting 'orthorhombic'
loop_
_space_group_symop_operation_xyz
x,y,z
-x,-y,1/2+z
x,-y,-z
-x,y,1/2-z
1/2+x,1/2+y,z
1/2-x,1/2-y,1/2+z
1/2+x,1/2-y,-z
1/2-x,1/2+y,1/2-z
loop_
_atom_site_type_symbol
_atom_site_label
_atom_site_fract_x
_atom_site_fract_y
_atom_site_fract_z
Si Si1 0.582204 0.097149 0.814671
Si Si2 0.275249 0.801460 0.741640
Si Si3 0.702634 0.000000 0.500000
Si Si4 0.086729 0.180516 0.731494
Si Si5 0.080120 0.135756 0.217240
O O1 0.500000 0.067118 0.750000
O O2 0.648663 0.079265 0.638953
O O3 0.576518 0.230399 0.820605
O O4 0.599001 0.000000 0.000000
O O5 0.253114 0.766230 0.474658
O O6 0.361706 0.785574 0.747157
O O7 0.255549 0.925259 0.812642
O O8 0.108123 0.126673 0.482706
O O9 0.000000 0.201598 0.750000
O O10 0.106899 0.107581 0.956279
O O11 0.000000 0.088971 0.250000
#
# Coordination Sequence:
#
# PCOD9317445 Si02
#       5
#     8   8   4   8   8
#     4  11  21  31  54  94 132 171 213 252 322 438
#     4  12  28  46  65  99 141 183 234 279 331 414
#     4  12  26  42  66  88 136 198 218 268 348 396
#     4  10  19  38  63  90 127 173 213 269 328 400
#     4   9  18  29  51  83 123 159 205 243 300 393
#
# _framework density 28.069631999999999
#
# number of rings (size 3 to 8) (size 9 to 14) (size 15 to 20)
#    0.000    1.333    3.333    2.667    3.111    1.778 
#    0.000    0.000    0.000    0.000    0.000    3.111 
#    0.000    1.778    0.000    0.000    0.000    0.000 
#
# Total GULP energy -100324.029088 kJ/mol
# GULP energy per Si atom -5573.557172 kJ/mol
# Density = 2.800574 g / cm^3
# Si number density = 28.069632 Si / 1000 Ang^3
#
#
#
# Elastic Constant Matrix: (Units=GPa)
#
#
# Indices 1 2 3 4 5 6 
#
# 1 111.4958 4.7748 23.8610 0.0000 0.0000 0.0000
# 2 4.7748 116.8777 25.7294 0.0000 0.0000 0.0000
# 3 23.8610 25.7294 252.4186 0.0000 0.0000 0.0000
# 4 0.0000 0.0000 0.0000 -18.5346 0.0000 0.0000
# 5 0.0000 0.0000 0.0000 0.0000 56.2328 0.0000
# 6 0.0000 0.0000 0.0000 0.0000 0.0000 11.8432
#
#
#
# Elastic Compliance Matrix: (Units=1/GPa)
#
#
# Indices 1 2 3 4 5 6 
#
# 1 0.009158 -0.000188 -0.000847 0.000000 0.000000 0.000000
# 2 -0.000188 0.008756 -0.000875 0.000000 0.000000 0.000000
# 3 -0.000847 -0.000875 0.004131 0.000000 0.000000 0.000000
# 4 0.000000 0.000000 0.000000 -0.053953 0.000000 0.000000
# 5 0.000000 0.000000 0.000000 0.000000 0.017783 0.000000
# 6 0.000000 0.000000 0.000000 0.000000 0.000000 0.084436
#
#
# Mechanical properties :
#
#
# Convention : Reuss Voigt Hill
#
# Bulk Modulus (GPa) = 54.86375 65.50248 60.18312
# Shear Modulus (GPa) = 62.33983 38.33675 50.33829
#
# Velocity S-wave (km/s) = 4.71775 3.69965 4.23937
# Velocity P-wave (km/s) = 7.01885 6.45261 6.74168
#
# Compressibility (1/GPa) = 0.01822697
#
# Stress axis : x y z
#
# Youngs Moduli (GPa) = 109.19223 114.20481 242.07994
#
# Poissons Ratio (x) = 0.02144 0.20494
# Poissons Ratio (y) = 0.02050 0.21177
# Poissons Ratio (z) = 0.09244 0.09990
#
# Static dielectric constant tensor:
#      x y z
#    x 2.133260 0.000000 0.000000 
#    y 0.000000 2.211440 0.000000 
#    z 0.000000 0.000000 2.341070 
# 
# From -- ./inp_files/3065.got.cif
#   From: 2010.05.17/outbox.cif.g08.bks.cpg/sg20_2_cif.got.tgz:3065.got - 2010.06.03 22:52:26.
