data_PCOD9317212
_publ_section_title
;
Structure prediction by ZEFSAII (Michael W. Deem and Ramdas Pophale) SiO2 
 PCOD9317212
Probable space group: C 2 2 21
;
_chemical_formula_sum "Si O2"
_cell_formula_units_Z 48
_cell_length_a 18.086566
_cell_length_b 9.571989
_cell_length_c 12.752094
_cell_angle_alpha 90.000000
_cell_angle_beta 90.000000
_cell_angle_gamma 90.000000
_cell_volume 2207.698760
_symmetry_space_group_name_H-M "C 2 2 21"
_symmetry_group_IT_number 20
_symmetry_cell_setting 'orthorhombic'
loop_
_space_group_symop_operation_xyz
x,y,z
-x,-y,1/2+z
x,-y,-z
-x,y,1/2-z
1/2+x,1/2+y,z
1/2-x,1/2-y,1/2+z
1/2+x,1/2-y,-z
1/2-x,1/2+y,1/2-z
loop_
_atom_site_type_symbol
_atom_site_label
_atom_site_fract_x
_atom_site_fract_y
_atom_site_fract_z
Si Si1 0.911245 0.002561 0.759335
Si Si2 0.587511 0.153205 0.043815
Si Si3 0.301685 0.257873 0.780114
Si Si4 0.666054 0.942023 0.742562
Si Si5 0.447111 0.774397 0.854261
Si Si6 0.688704 0.372038 0.066623
O O1 0.871286 0.859680 0.791425
O O2 0.000000 0.980755 0.750000
O O3 0.904091 0.128697 0.843734
O O4 0.868642 0.066215 0.656041
O O5 0.627935 0.127185 0.155655
O O6 0.505858 0.215275 0.053819
O O7 0.640395 0.268589 0.993765
O O8 0.583032 0.000000 0.000000
O O9 0.240964 0.355897 0.722798
O O10 0.257400 0.210611 0.884448
O O11 0.320961 0.104798 0.735634
O O12 0.607921 0.904812 0.651791
O O13 0.500000 0.778511 0.750000
O O14 0.716655 0.500000 0.000000
#
# Coordination Sequence:
#
# PCOD9317212 Si02
#       6
#     8   8   8   8   8   8
#     4  11  20  40  70  96 125 173 226 267 323 397
#     4  10  21  36  61  94 129 170 210 266 336 383
#     4  11  21  37  64  95 119 172 223 263 319 392
#     4  10  19  35  61  87 121 165 224 261 304 389
#     4   9  16  37  60  87 126 168 212 264 309 384
#     4  11  23  41  65  95 135 172 213 280 338 385
#
# _framework density 21.742097999999999
#
# number of rings (size 3 to 8) (size 9 to 14) (size 15 to 20)
#    0.000    1.667    8.333    0.000    2.333    2.000 
#    0.000    0.833    0.000    8.000    0.000    0.000 
#    0.000    0.000    0.000    0.000    0.000    0.000 
#
# Total GULP energy -133715.606787 kJ/mol
# GULP energy per Si atom -5571.483616 kJ/mol
# Density = 2.169261 g / cm^3
# Si number density = 21.742098 Si / 1000 Ang^3
#
#
#
# Elastic Constant Matrix: (Units=GPa)
#
#
# Indices 1 2 3 4 5 6 
#
# 1 109.1506 62.3886 14.0016 0.0000 0.0000 0.0000
# 2 62.3886 182.5382 17.9405 0.0000 0.0000 0.0000
# 3 14.0016 17.9405 6.4121 0.0000 0.0000 0.0000
# 4 0.0000 0.0000 0.0000 33.9530 0.0000 0.0000
# 5 0.0000 0.0000 0.0000 0.0000 7.3806 0.0000
# 6 0.0000 0.0000 0.0000 0.0000 0.0000 55.8932
#
#
#
# Elastic Compliance Matrix: (Units=1/GPa)
#
#
# Indices 1 2 3 4 5 6 
#
# 1 0.013422 -0.002354 -0.022721 0.000000 0.000000 0.000000
# 2 -0.002354 0.007969 -0.017156 0.000000 0.000000 0.000000
# 3 -0.022721 -0.017156 0.253568 0.000000 0.000000 0.000000
# 4 0.000000 0.000000 0.000000 0.029452 0.000000 0.000000
# 5 0.000000 0.000000 0.000000 0.000000 0.135491 0.000000
# 6 0.000000 0.000000 0.000000 0.000000 0.000000 0.017891
#
#
# Mechanical properties :
#
#
# Convention : Reuss Voigt Hill
#
# Bulk Modulus (GPa) = 5.24943 54.08472 29.66708
# Shear Modulus (GPa) = 8.25416 33.03005 20.64210
#
# Velocity S-wave (km/s) = 1.95055 3.90189 3.08459
# Velocity P-wave (km/s) = 2.73724 6.72527 5.13428
#
# Compressibility (1/GPa) = 0.19049677
#
# Stress axis : x y z
#
# Youngs Moduli (GPa) = 74.50498 125.48453 3.94371
#
# Poissons Ratio (x) = 0.29543 0.08961
# Poissons Ratio (y) = 0.17541 0.06766
# Poissons Ratio (z) = 1.69283 2.15280
#
# Static dielectric constant tensor:
#      x y z
#    x 1.837870 0.000000 0.000000 
#    y 0.000000 1.829520 0.000000 
#    z 0.000000 0.000000 1.894870 
# 
# From -- ./inp_files/21274.got.cif
#   From: 2010.05.17/outbox.cif.g08.bks.cpg/sg20_11_cif.got.tgz:21274.got - 2010.06.03 22:52:26.
