data_PCOD9317429
_publ_section_title
;
Structure prediction by ZEFSAII (Michael W. Deem and Ramdas Pophale) SiO2 
 PCOD9317429
Probable space group: C 2 2 21
;
_chemical_formula_sum "Si O2"
_cell_formula_units_Z 40
_cell_length_a 16.190818
_cell_length_b 9.808886
_cell_length_c 13.519779
_cell_angle_alpha 90.000000
_cell_angle_beta 90.000000
_cell_angle_gamma 90.000000
_cell_volume 2147.128668
_symmetry_space_group_name_H-M "C 2 2 21"
_symmetry_group_IT_number 20
_symmetry_cell_setting 'orthorhombic'
loop_
_space_group_symop_operation_xyz
x,y,z
-x,-y,1/2+z
x,-y,-z
-x,y,1/2-z
1/2+x,1/2+y,z
1/2-x,1/2-y,1/2+z
1/2+x,1/2-y,-z
1/2-x,1/2+y,1/2-z
loop_
_atom_site_type_symbol
_atom_site_label
_atom_site_fract_x
_atom_site_fract_y
_atom_site_fract_z
Si Si1 0.671650 0.128752 0.074062
Si Si2 0.692514 0.372289 0.942778
Si Si3 0.581146 0.796697 0.205561
Si Si4 0.166207 0.463159 0.705772
Si Si5 0.494716 0.942830 0.898453
O O1 0.695007 0.090935 0.186553
O O2 0.571872 0.155000 0.078624
O O3 0.714834 0.257403 0.023942
O O4 0.683318 0.000000 0.000000
O O5 0.631258 0.298279 0.866984
O O6 0.768327 0.428710 0.878052
O O7 0.654536 0.500000 0.000000
O O8 0.500000 0.726015 0.250000
O O9 0.642665 0.876526 0.280475
O O10 0.540805 0.926015 0.148481
O O11 0.078671 0.396343 0.672338
O O12 0.456881 0.000000 0.000000
#
# Coordination Sequence:
#
# PCOD9317429 Si02
#       5
#     8   8   8   8   8
#     4  10  19  38  61  82 122 166 197 243 308 361
#     4  12  24  36  60  96 127 152 198 264 313 346
#     4   9  19  40  63  81 119 168 198 240 301 368
#     4  10  21  35  62  90 119 154 213 247 285 359
#     4   9  15  35  65  87 104 159 214 239 274 367
#
# _framework density 18.629531
#
# number of rings (size 3 to 8) (size 9 to 14) (size 15 to 20)
#    0.000    2.000    6.000    2.400    2.800    0.000 
#    0.000    2.000    0.000    2.400    0.000    0.000 
#    0.000    0.000    0.000    0.000    0.000    0.000 
#
# Total GULP energy -111356.649475 kJ/mol
# GULP energy per Si atom -5567.832474 kJ/mol
# Density = 1.858713 g / cm^3
# Si number density = 18.629531 Si / 1000 Ang^3
#
#
#
# Elastic Constant Matrix: (Units=GPa)
#
#
# Indices 1 2 3 4 5 6 
#
# 1 74.4564 32.8473 36.2966 0.0000 0.0000 0.0000
# 2 32.8473 75.4027 31.2711 0.0000 0.0000 0.0000
# 3 36.2966 31.2711 94.9588 0.0000 0.0000 0.0000
# 4 0.0000 0.0000 0.0000 36.1636 0.0000 0.0000
# 5 0.0000 0.0000 0.0000 0.0000 32.2034 0.0000
# 6 0.0000 0.0000 0.0000 0.0000 0.0000 11.0935
#
#
#
# Elastic Compliance Matrix: (Units=1/GPa)
#
#
# Indices 1 2 3 4 5 6 
#
# 1 0.018561 -0.005957 -0.005133 0.000000 0.000000 0.000000
# 2 -0.005957 0.017272 -0.003411 0.000000 0.000000 0.000000
# 3 -0.005133 -0.003411 0.013616 0.000000 0.000000 0.000000
# 4 0.000000 0.000000 0.000000 0.027652 0.000000 0.000000
# 5 0.000000 0.000000 0.000000 0.000000 0.031053 0.000000
# 6 0.000000 0.000000 0.000000 0.000000 0.000000 0.090143
#
#
# Mechanical properties :
#
#
# Convention : Reuss Voigt Hill
#
# Bulk Modulus (GPa) = 48.90615 49.51643 49.21129
# Shear Modulus (GPa) = 21.35721 25.51897 23.43809
#
# Velocity S-wave (km/s) = 3.38955 3.70511 3.55084
# Velocity P-wave (km/s) = 6.45195 6.70381 6.57909
#
# Compressibility (1/GPa) = 0.02044733
#
# Stress axis : x y z
#
# Youngs Moduli (GPa) = 53.87686 57.89845 73.44239
#
# Poissons Ratio (x) = 0.34489 0.37698
# Poissons Ratio (y) = 0.32093 0.25050
# Poissons Ratio (z) = 0.27655 0.19748
#
# Static dielectric constant tensor:
#      x y z
#    x 1.698680 0.000000 0.000000 
#    y 0.000000 1.642480 0.000000 
#    z 0.000000 0.000000 1.744250 
# 
# From -- ./inp_files/18675.got.cif
#   From: 2010.05.17/outbox.cif.g08.bks.cpg/sg20_10_cif.got.tgz:18675.got - 2010.06.03 22:52:26.
