data_PCOD9317120
_publ_section_title
;
Structure prediction by ZEFSAII (Michael W. Deem and Ramdas Pophale) SiO2 
 PCOD9317120
Probable space group: C 2 2 21
;
_chemical_formula_sum "Si O2"
_cell_formula_units_Z 48
_cell_length_a 15.205768
_cell_length_b 9.771539
_cell_length_c 14.141587
_cell_angle_alpha 90.000000
_cell_angle_beta 90.000000
_cell_angle_gamma 90.000000
_cell_volume 2101.210099
_symmetry_space_group_name_H-M "C 2 2 21"
_symmetry_group_IT_number 20
_symmetry_cell_setting 'orthorhombic'
loop_
_space_group_symop_operation_xyz
x,y,z
-x,-y,1/2+z
x,-y,-z
-x,y,1/2-z
1/2+x,1/2+y,z
1/2-x,1/2-y,1/2+z
1/2+x,1/2-y,-z
1/2-x,1/2+y,1/2-z
loop_
_atom_site_type_symbol
_atom_site_label
_atom_site_fract_x
_atom_site_fract_y
_atom_site_fract_z
Si Si1 0.073697 0.762995 0.181462
Si Si2 0.213602 0.845146 0.469740
Si Si3 0.891344 0.924421 0.664368
Si Si4 0.263486 0.771538 0.254714
Si Si5 0.732941 0.920661 0.422576
Si Si6 0.994045 0.836386 0.989881
O O1 0.170534 0.718695 0.213129
O O2 0.000000 0.702569 0.250000
O O3 0.044571 0.754572 0.072170
O O4 0.075347 0.928738 0.198707
O O5 0.241131 0.821461 0.360848
O O6 0.255912 0.726503 0.533478
O O7 0.109396 0.820082 0.490774
O O8 0.233956 0.000000 0.500000
O O9 0.838478 0.842455 0.743232
O O10 0.814098 0.976091 0.593871
O O11 0.961236 0.824477 0.613299
O O12 0.296966 0.888763 0.183329
O O13 0.674533 0.000000 0.500000
O O14 0.008719 0.000000 0.000000
#
# Coordination Sequence:
#
# PCOD9317120 Si02
#       6
#     8   8   8   8   8   8
#     4  10  19  34  58  90 124 161 215 271 319 378
#     4  11  24  38  63 103 131 167 225 287 327 398
#     4  10  21  38  63  93 121 177 216 272 325 407
#     4  11  23  36  63  96 133 166 228 263 339 393
#     4  11  23  41  65  94 135 180 215 278 347 399
#     4   9  19  37  61  89 126 167 224 270 328 382
#
# _framework density 22.843979000000001
#
# number of rings (size 3 to 8) (size 9 to 14) (size 15 to 20)
#    0.000    1.667    3.333    2.500    4.667    0.000 
#    0.000    0.000    0.000   11.000    0.000    0.000 
#    0.000    0.000    0.000    0.000    0.000    0.000 
#
# Total GULP energy -133748.771194 kJ/mol
# GULP energy per Si atom -5572.865466 kJ/mol
# Density = 2.279198 g / cm^3
# Si number density = 22.843979 Si / 1000 Ang^3
#
#
#
# Elastic Constant Matrix: (Units=GPa)
#
#
# Indices 1 2 3 4 5 6 
#
# 1 39.4810 -0.6284 19.7009 0.0000 0.0000 0.0000
# 2 -0.6284 63.4371 27.7555 0.0000 0.0000 0.0000
# 3 19.7009 27.7555 94.2279 0.0000 0.0000 0.0000
# 4 0.0000 0.0000 0.0000 39.0729 0.0000 0.0000
# 5 0.0000 0.0000 0.0000 0.0000 25.3524 0.0000
# 6 0.0000 0.0000 0.0000 0.0000 0.0000 23.2226
#
#
#
# Elastic Compliance Matrix: (Units=1/GPa)
#
#
# Indices 1 2 3 4 5 6 
#
# 1 0.028890 0.003362 -0.007031 0.000000 0.000000 0.000000
# 2 0.003362 0.018487 -0.006148 0.000000 0.000000 0.000000
# 3 -0.007031 -0.006148 0.013894 0.000000 0.000000 0.000000
# 4 0.000000 0.000000 0.000000 0.025593 0.000000 0.000000
# 5 0.000000 0.000000 0.000000 0.000000 0.039444 0.000000
# 6 0.000000 0.000000 0.000000 0.000000 0.000000 0.043062
#
#
# Mechanical properties :
#
#
# Convention : Reuss Voigt Hill
#
# Bulk Modulus (GPa) = 24.01689 32.31133 28.16411
# Shear Modulus (GPa) = 24.64477 27.55077 26.09777
#
# Velocity S-wave (km/s) = 3.28812 3.47658 3.38366
# Velocity P-wave (km/s) = 4.99519 5.50368 5.25559
#
# Compressibility (1/GPa) = 0.04163737
#
# Stress axis : x y z
#
# Youngs Moduli (GPa) = 34.61351 54.09182 71.97549
#
# Poissons Ratio (x) = -0.18187 0.50604
# Poissons Ratio (y) = -0.11638 0.44254
# Poissons Ratio (z) = 0.24336 0.33258
#
# Static dielectric constant tensor:
#      x y z
#    x 1.941620 0.000000 0.000000 
#    y 0.000000 1.850860 0.000000 
#    z 0.000000 0.000000 2.055000 
# 
# From -- ./inp_files/20663.got.cif
#   From: 2010.05.17/outbox.cif.g08.bks.cpg/sg20_11_cif.got.tgz:20663.got - 2010.06.03 22:52:26.
