data_PCOD9317109
_publ_section_title
;
Structure prediction by ZEFSAII (Michael W. Deem and Ramdas Pophale) SiO2 
 PCOD9317109
Probable space group: C 2 2 21
;
_chemical_formula_sum "Si O2"
_cell_formula_units_Z 56
_cell_length_a 33.428219
_cell_length_b 5.262832
_cell_length_c 16.775799
_cell_angle_alpha 90.000000
_cell_angle_beta 90.000000
_cell_angle_gamma 90.000000
_cell_volume 2951.317679
_symmetry_space_group_name_H-M "C 2 2 21"
_symmetry_group_IT_number 20
_symmetry_cell_setting 'orthorhombic'
loop_
_space_group_symop_operation_xyz
x,y,z
-x,-y,1/2+z
x,-y,-z
-x,y,1/2-z
1/2+x,1/2+y,z
1/2-x,1/2-y,1/2+z
1/2+x,1/2-y,-z
1/2-x,1/2+y,1/2-z
loop_
_atom_site_type_symbol
_atom_site_label
_atom_site_fract_x
_atom_site_fract_y
_atom_site_fract_z
Si Si1 0.461842 0.249827 0.043695
Si Si2 0.166137 0.062044 0.676653
Si Si3 0.925397 0.831208 0.214020
Si Si4 0.449364 0.246751 0.524680
Si Si5 0.766607 0.018630 0.288964
Si Si6 0.042123 0.653151 0.790534
Si Si7 0.701924 0.939214 0.406781
O O1 0.450097 0.257742 0.134903
O O2 0.445997 0.500000 0.000000
O O3 0.509814 0.250414 0.028873
O O4 0.446012 0.000000 0.000000
O O5 0.119167 0.093935 0.688158
O O6 0.187783 0.020998 0.762368
O O7 0.181153 0.325922 0.638796
O O8 0.180917 0.824259 0.621705
O O9 0.929274 0.587192 0.272060
O O10 0.943663 0.085058 0.251237
O O11 0.427356 0.500000 0.500000
O O12 0.461527 0.216766 0.616154
O O13 0.425443 0.000000 0.500000
O O14 0.744141 0.810670 0.232023
O O15 0.747769 0.946754 0.374073
O O16 0.000000 0.586375 0.750000
O O17 0.699482 0.000000 0.500000
#
# Coordination Sequence:
#
# PCOD9317109 Si02
#       7
#     8   8   8   8   8   8   8
#     4  10  20  35  51  73 104 139 175 221 288 345
#     4  10  21  36  54  83 121 153 183 230 289 342
#     4  12  24  38  57  84 114 149 190 239 295 351
#     4  10  19  35  55  75  98 131 176 234 288 330
#     4   8  16  32  54  77 109 149 186 217 260 323
#     4  12  23  38  58  81 107 146 201 247 282 349
#     4  10  19  34  57  87 115 151 191 226 269 336
#
# _framework density 18.974575999999999
#
# number of rings (size 3 to 8) (size 9 to 14) (size 15 to 20)
#    0.000    1.714    0.000    6.857    0.000    1.714 
#    0.000    0.000    0.000    2.571    0.000    4.000 
#    0.000    0.000    0.000    0.000    0.000    0.000 
#
# Total GULP energy -156111.149107 kJ/mol
# GULP energy per Si atom -5575.398182 kJ/mol
# Density = 1.893139 g / cm^3
# Si number density = 18.974576 Si / 1000 Ang^3
#
#
#
# Elastic Constant Matrix: (Units=GPa)
#
#
# Indices 1 2 3 4 5 6 
#
# 1 39.6952 20.7329 39.1914 0.0000 0.0000 0.0000
# 2 20.7329 157.3024 29.8510 0.0000 0.0000 0.0000
# 3 39.1914 29.8510 74.6157 0.0000 0.0000 0.0000
# 4 0.0000 0.0000 0.0000 31.8024 0.0000 0.0000
# 5 0.0000 0.0000 0.0000 0.0000 4.4709 0.0000
# 6 0.0000 0.0000 0.0000 0.0000 0.0000 9.6991
#
#
#
# Elastic Compliance Matrix: (Units=1/GPa)
#
#
# Indices 1 2 3 4 5 6 
#
# 1 0.052814 -0.001836 -0.027006 0.000000 0.000000 0.000000
# 2 -0.001836 0.006943 -0.001813 0.000000 0.000000 0.000000
# 3 -0.027006 -0.001813 0.028312 0.000000 0.000000 0.000000
# 4 0.000000 0.000000 0.000000 0.031444 0.000000 0.000000
# 5 0.000000 0.000000 0.000000 0.000000 0.223667 0.000000
# 6 0.000000 0.000000 0.000000 0.000000 0.000000 0.103102
#
#
# Mechanical properties :
#
#
# Convention : Reuss Voigt Hill
#
# Bulk Modulus (GPa) = 37.37066 50.12935 43.75000
# Shear Modulus (GPa) = 9.68030 21.31701 15.49866
#
# Velocity S-wave (km/s) = 2.26115 3.35543 2.86109
# Velocity P-wave (km/s) = 5.15315 6.44115 5.83281
#
# Compressibility (1/GPa) = 0.02675896
#
# Stress axis : x y z
#
# Youngs Moduli (GPa) = 18.93442 144.02355 35.32074
#
# Poissons Ratio (x) = 0.26446 0.95386
# Poissons Ratio (y) = 0.03477 0.06405
# Poissons Ratio (z) = 0.51133 0.26116
#
# Static dielectric constant tensor:
#      x y z
#    x 1.663380 0.000000 0.000000 
#    y 0.000000 1.658180 0.000000 
#    z 0.000000 0.000000 1.624290 
# 
# From -- ./inp_files/17956.got.cif
#   From: 2010.05.17/outbox.cif.g08.bks.cpg/sg20_9_cif.got.tgz:17956.got - 2010.06.03 22:52:26.
