data_PCOD9317531
_publ_section_title
;
Structure prediction by ZEFSAII (Michael W. Deem and Ramdas Pophale) SiO2 
 PCOD9317531
Probable space group: C 2 2 21
;
_chemical_formula_sum "Si O2"
_cell_formula_units_Z 36
_cell_length_a 11.291787
_cell_length_b 9.982071
_cell_length_c 13.492561
_cell_angle_alpha 90.000000
_cell_angle_beta 90.000000
_cell_angle_gamma 90.000000
_cell_volume 1520.819674
_symmetry_space_group_name_H-M "C 2 2 21"
_symmetry_group_IT_number 20
_symmetry_cell_setting 'orthorhombic'
loop_
_space_group_symop_operation_xyz
x,y,z
-x,-y,1/2+z
x,-y,-z
-x,y,1/2-z
1/2+x,1/2+y,z
1/2-x,1/2-y,1/2+z
1/2+x,1/2-y,-z
1/2-x,1/2+y,1/2-z
loop_
_atom_site_type_symbol
_atom_site_label
_atom_site_fract_x
_atom_site_fract_y
_atom_site_fract_z
Si Si1 0.000000 0.816616 0.250000
Si Si2 0.367984 0.082263 0.738404
Si Si3 0.412778 0.340944 0.604706
Si Si4 0.682442 0.641111 0.886692
Si Si5 0.653561 0.485022 0.614910
O O1 0.893713 0.762380 0.315825
O O2 0.922971 0.895397 0.165432
O O3 0.500000 0.025064 0.750000
O O4 0.379725 0.219645 0.675320
O O5 0.313626 0.124278 0.844929
O O6 0.272102 0.991572 0.680225
O O7 0.352129 0.319333 0.497478
O O8 0.363390 0.488168 0.631134
O O9 0.554268 0.367323 0.609893
O O10 0.686815 0.500000 0.500000
#
# Coordination Sequence:
#
# PCOD9317531 Si02
#       5
#     4   8   8   8   8
#     4   8  14  32  66  94 118 166 228 272 320 398
#     4  11  26  39  65 108 140 181 234 286 362 424
#     4  10  20  43  74  96 136 188 226 298 340 404
#     4   9  19  41  66  97 139 179 237 283 344 419
#     4  10  19  40  71  96 135 181 235 282 345 413
#
# _framework density 23.671446
#
# number of rings (size 3 to 8) (size 9 to 14) (size 15 to 20)
#    0.000    2.222    4.444    0.000    9.333    1.778 
#    4.000    0.000   14.667    0.000    0.000    0.000 
#    0.000    0.000    0.000    0.000    0.000    0.000 
#
# Total GULP energy -100218.118080 kJ/mol
# GULP energy per Si atom -5567.673227 kJ/mol
# Density = 2.361757 g / cm^3
# Si number density = 23.671446 Si / 1000 Ang^3
#
#
#
# Elastic Constant Matrix: (Units=GPa)
#
#
# Indices 1 2 3 4 5 6 
#
# 1 184.1837 33.3844 54.5209 0.0000 0.0000 0.0000
# 2 33.3844 61.6207 42.0725 0.0000 0.0000 0.0000
# 3 54.5209 42.0725 110.0603 0.0000 0.0000 0.0000
# 4 0.0000 0.0000 0.0000 2.2960 0.0000 0.0000
# 5 0.0000 0.0000 0.0000 0.0000 25.4243 0.0000
# 6 0.0000 0.0000 0.0000 0.0000 0.0000 -671.7519
#
#
#
# Elastic Compliance Matrix: (Units=1/GPa)
#
#
# Indices 1 2 3 4 5 6 
#
# 1 0.006505 -0.001792 -0.002538 0.000000 0.000000 0.000000
# 2 -0.001792 0.022453 -0.007696 0.000000 0.000000 0.000000
# 3 -0.002538 -0.007696 0.013285 0.000000 0.000000 0.000000
# 4 0.000000 0.000000 0.000000 0.435544 0.000000 0.000000
# 5 0.000000 0.000000 0.000000 0.000000 0.039332 0.000000
# 6 0.000000 0.000000 0.000000 0.000000 0.000000 -0.001489
#
#
# Mechanical properties :
#
#
# Convention : Reuss Voigt Hill
#
# Bulk Modulus (GPa) = 54.96490 68.42448 61.69469
# Shear Modulus (GPa) = 9.16178 -113.74720 -52.29271
#
# Velocity S-wave (km/s) = 1.96947 -6.93951 -4.70521
# Velocity P-wave (km/s) = 5.33311 5.93636 1.84369
#
# Compressibility (1/GPa) = 0.01819343
#
# Stress axis : x y z
#
# Youngs Moduli (GPa) = 153.72077 44.53679 75.27416
#
# Poissons Ratio (x) = 0.07980 0.19102
# Poissons Ratio (y) = 0.27544 0.57928
# Poissons Ratio (z) = 0.39008 0.34274
#
# Static dielectric constant tensor:
#      x y z
#    x 1.966640 0.000000 0.000000 
#    y 0.000000 1.997070 0.000000 
#    z 0.000000 0.000000 1.960310 
# 
# From -- ./inp_files/19629.got.cif
#   From: 2010.05.17/outbox.cif.g08.bks.cpg/sg20_10_cif.got.tgz:19629.got - 2010.06.03 22:52:26.
