data_PCOD9317418
_publ_section_title
;
Structure prediction by ZEFSAII (Michael W. Deem and Ramdas Pophale) SiO2 
 PCOD9317418
Probable space group: C 2 2 21
;
_chemical_formula_sum "Si O2"
_cell_formula_units_Z 40
_cell_length_a 21.415872
_cell_length_b 9.373991
_cell_length_c 8.135592
_cell_angle_alpha 90.000000
_cell_angle_beta 90.000000
_cell_angle_gamma 90.000000
_cell_volume 1633.237922
_symmetry_space_group_name_H-M "C 2 2 21"
_symmetry_group_IT_number 20
_symmetry_cell_setting 'orthorhombic'
loop_
_space_group_symop_operation_xyz
x,y,z
-x,-y,1/2+z
x,-y,-z
-x,y,1/2-z
1/2+x,1/2+y,z
1/2-x,1/2-y,1/2+z
1/2+x,1/2-y,-z
1/2-x,1/2+y,1/2-z
loop_
_atom_site_type_symbol
_atom_site_label
_atom_site_fract_x
_atom_site_fract_y
_atom_site_fract_z
Si Si1 0.068050 0.485015 0.803292
Si Si2 0.344692 0.000000 0.000000
Si Si3 0.324984 0.500000 0.000000
Si Si4 0.384288 0.293664 0.384538
Si Si5 0.631019 0.375818 0.781435
Si Si6 0.270729 0.758958 0.820944
O O1 0.115622 0.539985 0.663301
O O2 0.072708 0.312276 0.783218
O O3 0.000000 0.535980 0.750000
O O4 0.081299 0.500000 0.000000
O O5 0.302063 0.131532 0.052506
O O6 0.372417 0.389301 0.912644
O O7 0.280464 0.597929 0.886925
O O8 0.380893 0.458150 0.331082
O O9 0.403518 0.290861 0.576365
O O10 0.314135 0.236436 0.343234
O O11 0.701679 0.316930 0.797855
#
# Coordination Sequence:
#
# PCOD9317418 Si02
#       6
#     8   4   4   8   8   8
#     4  11  23  43  68  96 124 168 222 288 344 394
#     4  10  22  40  64  95 134 169 220 270 334 396
#     4  10  22  34  58  89 126 181 226 256 304 380
#     4   9  21  37  58  90 124 169 215 265 318 387
#     4  10  19  38  58  89 134 171 211 254 320 389
#     4  10  20  37  60  93 135 177 211 266 313 394
#
# _framework density 24.491226999999999
#
# number of rings (size 3 to 8) (size 9 to 14) (size 15 to 20)
#    0.000    2.000    1.000    2.400    2.800    1.600 
#   16.200    0.000    0.000   26.400    0.000    0.000 
#    0.000    0.000    0.000    0.000    0.000    0.000 
#
# Total GULP energy -111429.917333 kJ/mol
# GULP energy per Si atom -5571.495867 kJ/mol
# Density = 2.443548 g / cm^3
# Si number density = 24.491227 Si / 1000 Ang^3
#
#
#
# Elastic Constant Matrix: (Units=GPa)
#
#
# Indices 1 2 3 4 5 6 
#
# 1 36.9796 -3.7740 1.9214 0.0000 0.0000 0.0000
# 2 -3.7740 89.2751 14.6399 0.0000 0.0000 0.0000
# 3 1.9214 14.6399 108.1917 0.0000 0.0000 0.0000
# 4 0.0000 0.0000 0.0000 54.7667 0.0000 0.0000
# 5 0.0000 0.0000 0.0000 0.0000 22.2525 0.0000
# 6 0.0000 0.0000 0.0000 0.0000 0.0000 242.1971
#
#
#
# Elastic Compliance Matrix: (Units=1/GPa)
#
#
# Indices 1 2 3 4 5 6 
#
# 1 0.027204 0.001257 -0.000653 0.000000 0.000000 0.000000
# 2 0.001257 0.011514 -0.001580 0.000000 0.000000 0.000000
# 3 -0.000653 -0.001580 0.009468 0.000000 0.000000 0.000000
# 4 0.000000 0.000000 0.000000 0.018259 0.000000 0.000000
# 5 0.000000 0.000000 0.000000 0.000000 0.044939 0.000000
# 6 0.000000 0.000000 0.000000 0.000000 0.000000 0.004129
#
#
# Mechanical properties :
#
#
# Convention : Reuss Voigt Hill
#
# Bulk Modulus (GPa) = 21.62942 28.89121 25.26032
# Shear Modulus (GPa) = 37.62882 78.62054 58.12468
#
# Velocity S-wave (km/s) = 3.92397 5.67197 4.87692
# Velocity P-wave (km/s) = 5.42040 7.39710 6.48451
#
# Compressibility (1/GPa) = 0.04623333
#
# Stress axis : x y z
#
# Youngs Moduli (GPa) = 36.75907 86.85368 105.61571
#
# Poissons Ratio (x) = -0.10919 0.06899
# Poissons Ratio (y) = -0.04621 0.16690
# Poissons Ratio (z) = 0.02401 0.13725
#
# Static dielectric constant tensor:
#      x y z
#    x 1.913770 0.000000 0.000000 
#    y 0.000000 2.028110 0.000000 
#    z 0.000000 0.000000 2.128030 
# 
# From -- ./inp_files/10523.got.cif
#   From: 2010.05.17/outbox.cif.g08.bks.cpg/sg20_6_cif.got.tgz:10523.got - 2010.06.03 22:52:26.
