data_PCOD9317328
_publ_section_title
;
Structure prediction by ZEFSAII (Michael W. Deem and Ramdas Pophale) SiO2 
 PCOD9317328
Probable space group: C 2 2 21
;
_chemical_formula_sum "Si O2"
_cell_formula_units_Z 60
_cell_length_a 8.666627
_cell_length_b 15.294941
_cell_length_c 20.039729
_cell_angle_alpha 90.000000
_cell_angle_beta 90.000000
_cell_angle_gamma 90.000000
_cell_volume 2656.377272
_symmetry_space_group_name_H-M "C 2 2 21"
_symmetry_group_IT_number 20
_symmetry_cell_setting 'orthorhombic'
loop_
_space_group_symop_operation_xyz
x,y,z
-x,-y,1/2+z
x,-y,-z
-x,y,1/2-z
1/2+x,1/2+y,z
1/2-x,1/2-y,1/2+z
1/2+x,1/2-y,-z
1/2-x,1/2+y,1/2-z
loop_
_atom_site_type_symbol
_atom_site_label
_atom_site_fract_x
_atom_site_fract_y
_atom_site_fract_z
Si Si1 0.627497 0.319278 0.096624
Si Si2 0.193472 0.500049 0.424153
Si Si3 0.775979 0.343872 0.532067
Si Si4 0.500000 0.333415 0.750000
Si Si5 0.169159 0.711399 0.225184
Si Si6 0.004412 0.907117 0.898321
Si Si7 0.399812 0.962395 0.652762
Si Si8 0.677782 0.414298 0.396733
O O1 0.718569 0.408201 0.084553
O O2 0.647427 0.250503 0.037028
O O3 0.696660 0.266283 0.158418
O O4 0.449789 0.340593 0.114267
O O5 0.129969 0.500000 0.500000
O O6 0.318666 0.578138 0.417221
O O7 0.072860 0.510620 0.364042
O O8 0.597548 0.341543 0.557461
O O9 0.856157 0.408472 0.585091
O O10 0.778386 0.384259 0.459189
O O11 0.664633 0.284286 0.761247
O O12 0.483750 0.386729 0.819683
O O13 0.138694 0.608858 0.208421
O O14 0.000000 0.741736 0.250000
O O15 0.924622 0.000504 0.914062
O O16 0.292622 0.047954 0.658851
#
# Coordination Sequence:
#
# PCOD9317328 Si02
#       8
#     8   8   8   4   8   8   8   8
#     4  10  23  41  58  98 134 169 221 268 337 410
#     4  11  22  39  65 101 134 170 220 281 340 410
#     4  10  19  38  63  90 131 165 214 266 338 404
#     4  12  20  42  74  90 130 182 230 282 334 390
#     4  11  24  46  68  94 132 179 233 280 335 408
#     4  10  19  36  63  92 122 169 227 261 331 399
#     4  10  20  40  63  96 123 167 227 272 325 412
#     4  10  19  37  62  90 127 171 202 273 335 393
#
# _framework density 22.587153000000001
#
# number of rings (size 3 to 8) (size 9 to 14) (size 15 to 20)
#    0.000    1.600    4.000    4.800    0.000    3.200 
#    7.200    2.667    0.000    0.000    0.000    0.000 
#    0.000    0.000    0.000    0.000    0.000    0.000 
#
# Total GULP energy -167272.306007 kJ/mol
# GULP energy per Si atom -5575.743534 kJ/mol
# Density = 2.253574 g / cm^3
# Si number density = 22.587153 Si / 1000 Ang^3
#
#
#
# Elastic Constant Matrix: (Units=GPa)
#
#
# Indices 1 2 3 4 5 6 
#
# 1 106.0207 19.4669 -6.8101 0.0000 0.0000 0.0000
# 2 19.4669 67.9987 12.6594 0.0000 0.0000 0.0000
# 3 -6.8101 12.6594 37.8722 0.0000 0.0000 0.0000
# 4 0.0000 0.0000 0.0000 20.6141 0.0000 0.0000
# 5 0.0000 0.0000 0.0000 0.0000 33.4218 0.0000
# 6 0.0000 0.0000 0.0000 0.0000 0.0000 35.7528
#
#
#
# Elastic Compliance Matrix: (Units=1/GPa)
#
#
# Indices 1 2 3 4 5 6 
#
# 1 0.010269 -0.003501 0.003017 0.000000 0.000000 0.000000
# 2 -0.003501 0.016876 -0.006271 0.000000 0.000000 0.000000
# 3 0.003017 -0.006271 0.029043 0.000000 0.000000 0.000000
# 4 0.000000 0.000000 0.000000 0.048510 0.000000 0.000000
# 5 0.000000 0.000000 0.000000 0.000000 0.029921 0.000000
# 6 0.000000 0.000000 0.000000 0.000000 0.000000 0.027970
#
#
# Mechanical properties :
#
#
# Convention : Reuss Voigt Hill
#
# Bulk Modulus (GPa) = 23.43151 29.16933 26.30042
# Shear Modulus (GPa) = 26.27083 30.39610 28.33346
#
# Velocity S-wave (km/s) = 3.41411 3.67239 3.54560
# Velocity P-wave (km/s) = 5.09292 5.56095 5.33207
#
# Compressibility (1/GPa) = 0.04267757
#
# Stress axis : x y z
#
# Youngs Moduli (GPa) = 97.38206 59.25570 34.43150
#
# Poissons Ratio (x) = 0.20748 -0.10388
# Poissons Ratio (y) = 0.34098 0.21591
# Poissons Ratio (z) = -0.29380 0.37157
#
# Static dielectric constant tensor:
#      x y z
#    x 1.930840 0.000000 0.000000 
#    y 0.000000 1.840530 0.000000 
#    z 0.000000 0.000000 1.865470 
# 
# From -- ./inp_files/28851.got.cif
#   From: 2010.05.17/outbox.cif.g08.bks.cpg/sg20_15_cif.got.tgz:28851.got - 2010.06.03 22:52:26.
