data_PCOD9317489
_publ_section_title
;
Structure prediction by ZEFSAII (Michael W. Deem and Ramdas Pophale) SiO2 
 PCOD9317489
Probable space group: C 2 2 21
;
_chemical_formula_sum "Si O2"
_cell_formula_units_Z 60
_cell_length_a 14.645982
_cell_length_b 8.334538
_cell_length_c 23.566344
_cell_angle_alpha 90.000000
_cell_angle_beta 90.000000
_cell_angle_gamma 90.000000
_cell_volume 2876.684544
_symmetry_space_group_name_H-M "C 2 2 21"
_symmetry_group_IT_number 20
_symmetry_cell_setting 'orthorhombic'
loop_
_space_group_symop_operation_xyz
x,y,z
-x,-y,1/2+z
x,-y,-z
-x,y,1/2-z
1/2+x,1/2+y,z
1/2-x,1/2-y,1/2+z
1/2+x,1/2-y,-z
1/2-x,1/2+y,1/2-z
loop_
_atom_site_type_symbol
_atom_site_label
_atom_site_fract_x
_atom_site_fract_y
_atom_site_fract_z
Si Si1 0.974899 0.944043 0.420487
Si Si2 0.979215 0.245856 0.808498
Si Si3 0.487446 0.250200 0.970807
Si Si4 0.838116 0.557274 0.316842
Si Si5 0.264316 0.226369 0.213384
Si Si6 0.281114 0.596942 0.398964
Si Si7 0.840192 0.500000 0.000000
Si Si8 0.336180 0.937522 0.437386
O O1 0.999966 0.847953 0.365255
O O2 0.965309 0.827763 0.474084
O O3 0.879812 0.030999 0.412360
O O4 0.040617 0.095004 0.433910
O O5 0.054730 0.392607 0.806198
O O6 0.000000 0.152742 0.750000
O O7 0.870256 0.266242 0.807161
O O8 0.558917 0.129130 0.941090
O O9 0.403274 0.154216 0.994687
O O10 0.800656 0.381831 0.296250
O O11 0.776026 0.676141 0.278926
O O12 0.827084 0.559876 0.384958
O O13 0.228687 0.093468 0.168837
O O14 0.214254 0.506498 0.441219
O O15 0.277677 0.782482 0.419289
O O16 0.313048 0.000000 0.500000
#
# Coordination Sequence:
#
# PCOD9317489 Si02
#       8
#     8   8   8   8   8   8   4   8
#     4  10  21  43  64  94 130 183 214 278 346 407
#     4  10  22  41  70  92 131 180 221 275 344 398
#     4  10  21  36  66  91 133 165 222 273 337 413
#     4  10  23  41  70  96 134 180 224 282 345 403
#     4  10  23  44  66  98 132 176 231 283 334 416
#     4  10  23  38  64  90 137 167 223 278 337 400
#     4  12  22  40  60 102 126 172 220 284 334 404
#     4  10  19  39  64  94 122 172 217 270 342 407
#
# _framework density 20.857344999999999
#
# number of rings (size 3 to 8) (size 9 to 14) (size 15 to 20)
#    0.000    1.867    0.667    3.200    5.600    0.000 
#    9.600    0.000   11.733    0.000    0.000    0.000 
#    0.000    0.000    0.000    0.000    0.000    0.000 
#
# Total GULP energy -167149.590972 kJ/mol
# GULP energy per Si atom -5571.653032 kJ/mol
# Density = 2.080987 g / cm^3
# Si number density = 20.857345 Si / 1000 Ang^3
#
#
#
# Elastic Constant Matrix: (Units=GPa)
#
#
# Indices 1 2 3 4 5 6 
#
# 1 38.9665 22.0839 14.0844 0.0000 0.0000 0.0000
# 2 22.0839 56.5207 41.9968 0.0000 0.0000 0.0000
# 3 14.0844 41.9968 145.7424 0.0000 0.0000 0.0000
# 4 0.0000 0.0000 0.0000 36.3492 0.0000 0.0000
# 5 0.0000 0.0000 0.0000 0.0000 26.0894 0.0000
# 6 0.0000 0.0000 0.0000 0.0000 0.0000 -11.1907
#
#
#
# Elastic Compliance Matrix: (Units=1/GPa)
#
#
# Indices 1 2 3 4 5 6 
#
# 1 0.033013 -0.013397 0.000670 0.000000 0.000000 0.000000
# 2 -0.013397 0.027949 -0.006759 0.000000 0.000000 0.000000
# 3 0.000670 -0.006759 0.008744 0.000000 0.000000 0.000000
# 4 0.000000 0.000000 0.000000 0.027511 0.000000 0.000000
# 5 0.000000 0.000000 0.000000 0.000000 0.038330 0.000000
# 6 0.000000 0.000000 0.000000 0.000000 0.000000 -0.089360
#
#
# Mechanical properties :
#
#
# Convention : Reuss Voigt Hill
#
# Bulk Modulus (GPa) = 32.53612 44.17333 38.35473
# Shear Modulus (GPa) = 52.40804 21.12055 36.76429
#
# Velocity S-wave (km/s) = 5.01811 3.18562 4.20295
# Velocity P-wave (km/s) = 7.01488 5.89539 6.47936
#
# Compressibility (1/GPa) = 0.03073507
#
# Stress axis : x y z
#
# Youngs Moduli (GPa) = 30.29064 35.77889 114.35923
#
# Poissons Ratio (x) = 0.47933 -0.07663
# Poissons Ratio (y) = 0.40580 0.77297
# Poissons Ratio (z) = -0.02030 0.24184
#
# Static dielectric constant tensor:
#      x y z
#    x 1.759720 0.000000 0.000000 
#    y 0.000000 1.689830 0.000000 
#    z 0.000000 0.000000 1.781570 
# 
# From -- ./inp_files/29315.got.cif
#   From: 2010.05.17/outbox.cif.g08.bks.cpg/sg20_15_cif.got.tgz:29315.got - 2010.06.03 22:52:26.
