data_PCOD9317327
_publ_section_title
;
Structure prediction by ZEFSAII (Michael W. Deem and Ramdas Pophale) SiO2 
 PCOD9317327
Probable space group: C 2 2 21
;
_chemical_formula_sum "Si O2"
_cell_formula_units_Z 36
_cell_length_a 14.933562
_cell_length_b 23.210784
_cell_length_c 5.100244
_cell_angle_alpha 90.000000
_cell_angle_beta 90.000000
_cell_angle_gamma 90.000000
_cell_volume 1767.844953
_symmetry_space_group_name_H-M "C 2 2 21"
_symmetry_group_IT_number 20
_symmetry_cell_setting 'orthorhombic'
loop_
_space_group_symop_operation_xyz
x,y,z
-x,-y,1/2+z
x,-y,-z
-x,y,1/2-z
1/2+x,1/2+y,z
1/2-x,1/2-y,1/2+z
1/2+x,1/2-y,-z
1/2-x,1/2+y,1/2-z
loop_
_atom_site_type_symbol
_atom_site_label
_atom_site_fract_x
_atom_site_fract_y
_atom_site_fract_z
Si Si1 0.450449 0.568202 0.501783
Si Si2 0.157543 0.370672 0.848179
Si Si3 0.500000 0.040023 0.250000
Si Si4 0.778651 0.875556 0.348001
Si Si5 0.691367 0.252759 0.043007
O O1 0.466640 0.500000 0.500000
O O2 0.500000 0.593014 0.250000
O O3 0.345705 0.577111 0.542995
O O4 0.500000 0.593785 0.750000
O O5 0.198933 0.369687 0.557484
O O6 0.131885 0.304275 0.919121
O O7 0.079734 0.417827 0.846616
O O8 0.234706 0.384852 0.064050
O O9 0.525577 0.000000 0.500000
O O10 0.835920 0.816145 0.364228
O O11 0.775779 0.242869 0.242509
#
# Coordination Sequence:
#
# PCOD9317327 Si02
#       5
#     8   8   4   8   8
#     4  10  21  36  53  80 119 147 178 234 285 338
#     4  10  21  38  59  83 115 152 195 247 296 342
#     4  12  26  42  58  84 126 162 208 262 298 346
#     4  10  19  36  63  85 112 152 198 233 295 365
#     4   8  16  32  56  82 108 140 181 241 290 341
#
# _framework density 20.363779000000001
#
# number of rings (size 3 to 8) (size 9 to 14) (size 15 to 20)
#    0.000    2.222    0.000    2.667    0.000    2.667 
#    2.000    0.000    2.444    0.000    0.000    0.000 
#    0.000    0.000    0.000    0.000    0.000    0.000 
#
# Total GULP energy -100215.258350 kJ/mol
# GULP energy per Si atom -5567.514353 kJ/mol
# Density = 2.031743 g / cm^3
# Si number density = 20.363779 Si / 1000 Ang^3
#
#
#
# Elastic Constant Matrix: (Units=GPa)
#
#
# Indices 1 2 3 4 5 6 
#
# 1 41.2086 30.5326 20.4313 0.0000 0.0000 0.0000
# 2 30.5326 62.0893 40.1144 0.0000 0.0000 0.0000
# 3 20.4313 40.1144 120.4335 0.0000 0.0000 0.0000
# 4 0.0000 0.0000 0.0000 481.8218 0.0000 0.0000
# 5 0.0000 0.0000 0.0000 0.0000 24.9653 0.0000
# 6 0.0000 0.0000 0.0000 0.0000 0.0000 23.6390
#
#
#
# Elastic Compliance Matrix: (Units=1/GPa)
#
#
# Indices 1 2 3 4 5 6 
#
# 1 0.038184 -0.018593 -0.000285 0.000000 0.000000 0.000000
# 2 -0.018593 0.029576 -0.006697 0.000000 0.000000 0.000000
# 3 -0.000285 -0.006697 0.010582 0.000000 0.000000 0.000000
# 4 0.000000 0.000000 0.000000 0.002075 0.000000 0.000000
# 5 0.000000 0.000000 0.000000 0.000000 0.040056 0.000000
# 6 0.000000 0.000000 0.000000 0.000000 0.000000 0.042303
#
#
# Mechanical properties :
#
#
# Convention : Reuss Voigt Hill
#
# Bulk Modulus (GPa) = 36.77483 45.09865 40.93674
# Shear Modulus (GPa) = 22.42249 114.92876 68.67563
#
# Velocity S-wave (km/s) = 3.32188 7.52066 5.81357
# Velocity P-wave (km/s) = 5.72812 9.87970 8.07526
#
# Compressibility (1/GPa) = 0.02719251
#
# Stress axis : x y z
#
# Youngs Moduli (GPa) = 26.18879 33.81141 94.49761
#
# Poissons Ratio (x) = 0.62866 0.02691
# Poissons Ratio (y) = 0.48693 0.63284
# Poissons Ratio (z) = 0.00746 0.22643
#
# Static dielectric constant tensor:
#      x y z
#    x 0.730250 0.000000 0.000000 
#    y 0.000000 1.810830 0.000000 
#    z 0.000000 0.000000 1.716860 
# 
# From -- ./inp_files/1200.got.cif
#   From: 2010.05.17/outbox.cif.g08.bks.cpg/sg20_1_cif.got.tgz:1200.got - 2010.06.03 22:52:26.
