data_PCOD9317964
_publ_section_title
;
Structure prediction by ZEFSAII (Michael W. Deem and Ramdas Pophale) SiO2 
 PCOD9317964
Probable space group: C 2 2 21
;
_chemical_formula_sum "Si O2"
_cell_formula_units_Z 52
_cell_length_a 11.742921
_cell_length_b 13.826775
_cell_length_c 12.098646
_cell_angle_alpha 90.000000
_cell_angle_beta 90.000000
_cell_angle_gamma 90.000000
_cell_volume 1964.417546
_symmetry_space_group_name_H-M "C 2 2 21"
_symmetry_group_IT_number 20
_symmetry_cell_setting 'orthorhombic'
loop_
_space_group_symop_operation_xyz
x,y,z
-x,-y,1/2+z
x,-y,-z
-x,y,1/2-z
1/2+x,1/2+y,z
1/2-x,1/2-y,1/2+z
1/2+x,1/2-y,-z
1/2-x,1/2+y,1/2-z
loop_
_atom_site_type_symbol
_atom_site_label
_atom_site_fract_x
_atom_site_fract_y
_atom_site_fract_z
Si Si1 0.771097 0.243322 0.411899
Si Si2 0.274428 0.984154 0.260258
Si Si3 0.829685 0.814223 0.803598
Si Si4 0.864520 0.825298 0.371200
Si Si5 0.396198 0.000000 0.500000
Si Si6 0.087951 0.116979 0.519857
Si Si7 0.561585 0.105684 0.363207
O O1 0.850081 0.250934 0.303933
O O2 0.830857 0.174168 0.499963
O O3 0.714442 0.344472 0.448166
O O4 0.656637 0.183342 0.387802
O O5 0.196479 0.900566 0.209566
O O6 0.192313 0.077426 0.263369
O O7 0.333739 0.987420 0.381407
O O8 0.373793 0.006851 0.171315
O O9 0.705919 0.772863 0.842873
O O10 0.918716 0.825791 0.902583
O O11 0.001939 0.849044 0.113310
O O12 0.478791 0.089485 0.466335
O O13 0.082622 0.000000 0.500000
O O14 0.500000 0.136016 0.250000
#
# Coordination Sequence:
#
# PCOD9317964 Si02
#       7
#     8   8   8   8   4   8   8
#     4  10  24  48  75 104 160 200 269 328 404 491
#     4  10  23  42  73 106 156 202 267 330 407 473
#     4  10  26  49  72 111 151 211 264 330 404 493
#     4  11  26  48  76 113 156 214 257 343 408 484
#     4  10  20  36  70 104 152 198 262 330 384 476
#     4  11  28  48  79 118 156 209 269 334 413 493
#     4   9  19  37  67 103 139 202 265 317 386 476
#
# _framework density 26.470953000000002
#
# number of rings (size 3 to 8) (size 9 to 14) (size 15 to 20)
#    0.000    1.846    0.000    0.923   14.000    1.846 
#    0.000    0.000    0.000    0.000    0.000    0.000 
#    0.000    0.000    0.000    0.000    0.000    0.000 
#
# Total GULP energy -145011.325422 kJ/mol
# GULP energy per Si atom -5577.358670 kJ/mol
# Density = 2.641070 g / cm^3
# Si number density = 26.470953 Si / 1000 Ang^3
#
#
#
# Elastic Constant Matrix: (Units=GPa)
#
#
# Indices 1 2 3 4 5 6 
#
# 1 73.7683 44.6770 24.6902 0.0000 0.0000 0.0000
# 2 44.6770 108.1809 35.1604 0.0000 0.0000 0.0000
# 3 24.6902 35.1604 122.9657 0.0000 0.0000 0.0000
# 4 0.0000 0.0000 0.0000 26.8913 0.0000 0.0000
# 5 0.0000 0.0000 0.0000 0.0000 49.2696 0.0000
# 6 0.0000 0.0000 0.0000 0.0000 0.0000 31.4560
#
#
#
# Elastic Compliance Matrix: (Units=1/GPa)
#
#
# Indices 1 2 3 4 5 6 
#
# 1 0.018386 -0.007048 -0.001676 0.000000 0.000000 0.000000
# 2 -0.007048 0.012893 -0.002271 0.000000 0.000000 0.000000
# 3 -0.001676 -0.002271 0.009118 0.000000 0.000000 0.000000
# 4 0.000000 0.000000 0.000000 0.037187 0.000000 0.000000
# 5 0.000000 0.000000 0.000000 0.000000 0.020296 0.000000
# 6 0.000000 0.000000 0.000000 0.000000 0.000000 0.031790
#
#
# Mechanical properties :
#
#
# Convention : Reuss Voigt Hill
#
# Bulk Modulus (GPa) = 54.33238 57.10778 55.72008
# Shear Modulus (GPa) = 31.68624 34.88253 33.28439
#
# Velocity S-wave (km/s) = 3.46355 3.63404 3.54982
# Velocity P-wave (km/s) = 6.04688 6.26330 6.15604
#
# Compressibility (1/GPa) = 0.01840523
#
# Stress axis : x y z
#
# Youngs Moduli (GPa) = 54.39018 77.56290 109.66846
#
# Poissons Ratio (x) = 0.54668 0.18384
# Poissons Ratio (y) = 0.38335 0.24909
# Poissons Ratio (z) = 0.09118 0.17617
#
# Static dielectric constant tensor:
#      x y z
#    x 2.082700 0.000000 0.000000 
#    y 0.000000 2.146890 0.000000 
#    z 0.000000 0.000000 2.295810 
# 
# From -- ./inp_files/15381.got.cif
#   From: 2010.05.17/outbox.cif.g08.bks.cpg/sg20_8_cif.got.tgz:15381.got - 2010.06.03 22:52:26.
