data_PCOD9317053
_publ_section_title
;
Structure prediction by ZEFSAII (Michael W. Deem and Ramdas Pophale) SiO2 
 PCOD9317053
Probable space group: C 2 2 21
;
_chemical_formula_sum "Si O2"
_cell_formula_units_Z 36
_cell_length_a 17.597156
_cell_length_b 5.287049
_cell_length_c 19.591160
_cell_angle_alpha 90.000000
_cell_angle_beta 90.000000
_cell_angle_gamma 90.000000
_cell_volume 1822.703263
_symmetry_space_group_name_H-M "C 2 2 21"
_symmetry_group_IT_number 20
_symmetry_cell_setting 'orthorhombic'
loop_
_space_group_symop_operation_xyz
x,y,z
-x,-y,1/2+z
x,-y,-z
-x,y,1/2-z
1/2+x,1/2+y,z
1/2-x,1/2-y,1/2+z
1/2+x,1/2-y,-z
1/2-x,1/2+y,1/2-z
loop_
_atom_site_type_symbol
_atom_site_label
_atom_site_fract_x
_atom_site_fract_y
_atom_site_fract_z
Si Si1 0.343501 0.247998 0.955809
Si Si2 0.767522 0.434869 0.850612
Si Si3 0.000000 0.637880 0.250000
Si Si4 0.903746 0.056499 0.842351
Si Si5 0.649432 0.191893 0.771179
O O1 0.406377 0.341380 0.900251
O O2 0.273632 0.150000 0.908250
O O3 0.327039 0.500000 0.000000
O O4 0.365401 0.000000 0.000000
O O5 0.690429 0.280053 0.840059
O O6 0.788757 0.552639 0.776927
O O7 0.838342 0.250006 0.865177
O O8 0.926452 0.474950 0.271117
O O9 0.977765 0.799036 0.182956
O O10 0.874613 0.934291 0.772393
#
# Coordination Sequence:
#
# PCOD9317053 Si02
#       5
#     8   8   4   8   8
#     4  11  22  38  60  94 132 168 221 269 312 378
#     4  10  19  33  62  92 133 163 207 265 326 376
#     4  10  22  34  58  98 146 162 206 258 346 392
#     4  10  20  37  58  93 137 164 206 267 326 383
#     4  10  19  34  57  95 134 164 199 264 328 391
#
# _framework density 19.750882000000001
#
# number of rings (size 3 to 8) (size 9 to 14) (size 15 to 20)
#    0.000    1.778    4.444    0.667    0.000    0.000 
#    0.000    0.000    0.000    0.000    0.000   63.778 
#    0.000    0.000    0.000    0.000    0.000    0.000 
#
# Total GULP energy -100257.067078 kJ/mol
# GULP energy per Si atom -5569.837060 kJ/mol
# Density = 1.970593 g / cm^3
# Si number density = 19.750882 Si / 1000 Ang^3
#
#
#
# Elastic Constant Matrix: (Units=GPa)
#
#
# Indices 1 2 3 4 5 6 
#
# 1 79.9353 40.2444 44.8058 0.0000 0.0000 0.0000
# 2 40.2444 116.2684 55.6346 0.0000 0.0000 0.0000
# 3 44.8058 55.6346 94.8681 0.0000 0.0000 0.0000
# 4 0.0000 0.0000 0.0000 39.6382 0.0000 0.0000
# 5 0.0000 0.0000 0.0000 0.0000 6.3887 0.0000
# 6 0.0000 0.0000 0.0000 0.0000 0.0000 18.4167
#
#
#
# Elastic Compliance Matrix: (Units=1/GPa)
#
#
# Indices 1 2 3 4 5 6 
#
# 1 0.017718 -0.002959 -0.006633 0.000000 0.000000 0.000000
# 2 -0.002959 0.012450 -0.005904 0.000000 0.000000 0.000000
# 3 -0.006633 -0.005904 0.017136 0.000000 0.000000 0.000000
# 4 0.000000 0.000000 0.000000 0.025228 0.000000 0.000000
# 5 0.000000 0.000000 0.000000 0.000000 0.156525 0.000000
# 6 0.000000 0.000000 0.000000 0.000000 0.000000 0.054299
#
#
# Mechanical properties :
#
#
# Convention : Reuss Voigt Hill
#
# Bulk Modulus (GPa) = 61.30214 63.60460 62.45337
# Shear Modulus (GPa) = 15.63558 22.91453 19.27505
#
# Velocity S-wave (km/s) = 2.81666 3.40983 3.12734
# Velocity P-wave (km/s) = 6.45625 6.91202 6.68802
#
# Compressibility (1/GPa) = 0.01631264
#
# Stress axis : x y z
#
# Youngs Moduli (GPa) = 56.44097 80.32208 58.35764
#
# Poissons Ratio (x) = 0.23766 0.38707
# Poissons Ratio (y) = 0.16700 0.34452
# Poissons Ratio (z) = 0.37436 0.47419
#
# Static dielectric constant tensor:
#      x y z
#    x 1.732220 0.000000 0.000000 
#    y 0.000000 1.821280 0.000000 
#    z 0.000000 0.000000 1.754830 
# 
# From -- ./inp_files/22703.got.cif
#   From: 2010.05.17/outbox.cif.g08.bks.cpg/sg20_12_cif.got.tgz:22703.got - 2010.06.03 22:52:26.
