data_PCOD9317523
_publ_section_title
;
Structure prediction by ZEFSAII (Michael W. Deem and Ramdas Pophale) SiO2 
 PCOD9317523
Probable space group: C 2 2 21
;
_chemical_formula_sum "Si O2"
_cell_formula_units_Z 44
_cell_length_a 13.980324
_cell_length_b 8.216693
_cell_length_c 16.123241
_cell_angle_alpha 90.000000
_cell_angle_beta 90.000000
_cell_angle_gamma 90.000000
_cell_volume 1852.109429
_symmetry_space_group_name_H-M "C 2 2 21"
_symmetry_group_IT_number 20
_symmetry_cell_setting 'orthorhombic'
loop_
_space_group_symop_operation_xyz
x,y,z
-x,-y,1/2+z
x,-y,-z
-x,y,1/2-z
1/2+x,1/2+y,z
1/2-x,1/2-y,1/2+z
1/2+x,1/2-y,-z
1/2-x,1/2+y,1/2-z
loop_
_atom_site_type_symbol
_atom_site_label
_atom_site_fract_x
_atom_site_fract_y
_atom_site_fract_z
Si Si1 0.648295 0.575099 0.901500
Si Si2 0.347444 0.588903 0.231593
Si Si3 0.064851 0.876567 0.395125
Si Si4 0.847083 0.432908 0.323900
Si Si5 0.000000 0.653030 0.250000
Si Si6 0.740080 0.240290 0.971413
O O1 0.627657 0.535874 0.806281
O O2 0.540736 0.612831 0.933882
O O3 0.706075 0.413153 0.930508
O O4 0.712754 0.724830 0.933425
O O5 0.408659 0.547456 0.149779
O O6 0.240284 0.537796 0.210795
O O7 0.355577 0.768808 0.268435
O O8 0.060988 0.754396 0.316721
O O9 0.151080 0.813824 0.453518
O O10 0.823317 0.384141 0.418064
O O11 0.938882 0.539175 0.309757
#
# Coordination Sequence:
#
# PCOD9317523 Si02
#       6
#     8   8   8   8   4   8
#     4  10  19  40  68  87 131 175 202 270 336 383
#     4  10  20  39  65  93 125 165 217 275 327 383
#     4  11  22  41  69  94 127 174 219 269 330 394
#     4  10  22  37  62  92 128 164 213 276 324 389
#     4  12  22  36  64 102 122 168 230 266 322 388
#     4   9  22  41  60  96 130 168 217 265 331 405
#
# _framework density 23.756695000000001
#
# number of rings (size 3 to 8) (size 9 to 14) (size 15 to 20)
#    0.000    1.818    1.818    3.273    5.091    0.000 
#    9.818    0.000    0.000    0.000    0.000    0.000 
#    0.000    0.000    0.000    0.000    0.000    0.000 
#
# Total GULP energy -122859.630137 kJ/mol
# GULP energy per Si atom -5584.528643 kJ/mol
# Density = 2.370262 g / cm^3
# Si number density = 23.756695 Si / 1000 Ang^3
#
#
#
# Elastic Constant Matrix: (Units=GPa)
#
#
# Indices 1 2 3 4 5 6 
#
# 1 99.8712 29.9702 37.8666 0.0000 0.0000 0.0000
# 2 29.9702 107.6872 41.7365 0.0000 0.0000 0.0000
# 3 37.8666 41.7365 55.5483 0.0000 0.0000 0.0000
# 4 0.0000 0.0000 0.0000 10.6275 0.0000 0.0000
# 5 0.0000 0.0000 0.0000 0.0000 19.0222 0.0000
# 6 0.0000 0.0000 0.0000 0.0000 0.0000 48.3405
#
#
#
# Elastic Compliance Matrix: (Units=1/GPa)
#
#
# Indices 1 2 3 4 5 6 
#
# 1 0.013508 -0.000269 -0.009007 0.000000 0.000000 0.000000
# 2 -0.000269 0.013107 -0.009665 0.000000 0.000000 0.000000
# 3 -0.009007 -0.009665 0.031404 0.000000 0.000000 0.000000
# 4 0.000000 0.000000 0.000000 0.094095 0.000000 0.000000
# 5 0.000000 0.000000 0.000000 0.000000 0.052570 0.000000
# 6 0.000000 0.000000 0.000000 0.000000 0.000000 0.020687
#
#
# Mechanical properties :
#
#
# Convention : Reuss Voigt Hill
#
# Bulk Modulus (GPa) = 49.65533 53.58370 51.61951
# Shear Modulus (GPa) = 18.52103 25.83359 22.17731
#
# Velocity S-wave (km/s) = 2.79518 3.30119 3.05867
# Velocity P-wave (km/s) = 5.60039 6.09382 5.85231
#
# Compressibility (1/GPa) = 0.02013882
#
# Stress axis : x y z
#
# Youngs Moduli (GPa) = 74.02779 76.29702 31.84355
#
# Poissons Ratio (x) = 0.02051 0.28680
# Poissons Ratio (y) = 0.01990 0.30775
# Poissons Ratio (z) = 0.66674 0.73738
#
# Static dielectric constant tensor:
#      x y z
#    x 1.897890 0.000000 0.000000 
#    y 0.000000 1.909660 0.000000 
#    z 0.000000 0.000000 1.808910 
# 
# From -- ./inp_files/24753.got.cif
#   From: 2010.05.17/outbox.cif.g08.bks.cpg/sg20_13_cif.got.tgz:24753.got - 2010.06.03 22:52:26.
