data_PCOD9317233
_publ_section_title
;
Structure prediction by ZEFSAII (Michael W. Deem and Ramdas Pophale) SiO2 
 PCOD9317233
Probable space group: C 2 2 21
;
_chemical_formula_sum "Si O2"
_cell_formula_units_Z 60
_cell_length_a 6.209088
_cell_length_b 16.251694
_cell_length_c 29.965984
_cell_angle_alpha 90.000000
_cell_angle_beta 90.000000
_cell_angle_gamma 90.000000
_cell_volume 3023.813453
_symmetry_space_group_name_H-M "C 2 2 21"
_symmetry_group_IT_number 20
_symmetry_cell_setting 'orthorhombic'
loop_
_space_group_symop_operation_xyz
x,y,z
-x,-y,1/2+z
x,-y,-z
-x,y,1/2-z
1/2+x,1/2+y,z
1/2-x,1/2-y,1/2+z
1/2+x,1/2-y,-z
1/2-x,1/2+y,1/2-z
loop_
_atom_site_type_symbol
_atom_site_label
_atom_site_fract_x
_atom_site_fract_y
_atom_site_fract_z
Si Si1 0.717523 0.678447 0.089051
Si Si2 0.106216 0.641662 0.036515
Si Si3 0.000000 0.785021 0.250000
Si Si4 0.620942 0.107049 0.706367
Si Si5 0.403886 0.797432 0.047905
Si Si6 0.754005 0.225790 0.830715
Si Si7 0.385899 0.611572 0.620905
Si Si8 0.028363 0.977738 0.550147
O O1 0.628631 0.759450 0.064367
O O2 0.669352 0.699866 0.139650
O O3 0.600737 0.599375 0.069782
O O4 0.966109 0.664441 0.079387
O O5 0.269938 0.718166 0.031080
O O6 0.231015 0.557413 0.043883
O O7 0.953154 0.642897 0.993274
O O8 0.185709 0.841635 0.228826
O O9 0.116764 0.737377 0.289082
O O10 0.500000 0.065117 0.750000
O O11 0.438647 0.167379 0.685828
O O12 0.744872 0.071596 0.661919
O O13 0.278080 0.838248 0.088897
O O14 0.929256 0.170312 0.857857
O O15 0.499446 0.548986 0.586404
O O16 0.954327 0.000000 0.500000
#
# Coordination Sequence:
#
# PCOD9317233 Si02
#       8
#     8   8   4   8   8   8   8   8
#     4  11  22  39  61  86 116 159 206 258 307 363
#     4  11  23  38  57  82 120 158 209 255 305 358
#     4   8  18  32  56 100 126 142 196 268 310 370
#     4   9  18  35  62  96 123 154 203 264 314 371
#     4  11  21  35  63  84 109 158 211 258 295 366
#     4  10  19  35  64  92 116 156 204 256 315 373
#     4  11  22  38  60  90 122 158 208 256 315 381
#     4  11  28  40  52  86 130 166 203 255 314 373
#
# _framework density 19.842495
#
# number of rings (size 3 to 8) (size 9 to 14) (size 15 to 20)
#    0.000    1.600    4.000    0.800    3.733    2.667 
#    0.000    0.000    1.467    0.000   27.733    0.000 
#    0.000    0.000    0.000    0.000    0.000    0.000 
#
# Total GULP energy -167112.773782 kJ/mol
# GULP energy per Si atom -5570.425793 kJ/mol
# Density = 1.979733 g / cm^3
# Si number density = 19.842495 Si / 1000 Ang^3
#
#
#
# Elastic Constant Matrix: (Units=GPa)
#
#
# Indices 1 2 3 4 5 6 
#
# 1 70.9572 22.5542 29.9300 0.0000 0.0000 0.0000
# 2 22.5542 54.4662 37.7295 0.0000 0.0000 0.0000
# 3 29.9300 37.7295 127.4869 0.0000 0.0000 0.0000
# 4 0.0000 0.0000 0.0000 20.9116 0.0000 0.0000
# 5 0.0000 0.0000 0.0000 0.0000 46.5575 0.0000
# 6 0.0000 0.0000 0.0000 0.0000 0.0000 20.2211
#
#
#
# Elastic Compliance Matrix: (Units=1/GPa)
#
#
# Indices 1 2 3 4 5 6 
#
# 1 0.016779 -0.005307 -0.002368 0.000000 0.000000 0.000000
# 2 -0.005307 0.024773 -0.006086 0.000000 0.000000 0.000000
# 3 -0.002368 -0.006086 0.010201 0.000000 0.000000 0.000000
# 4 0.000000 0.000000 0.000000 0.047820 0.000000 0.000000
# 5 0.000000 0.000000 0.000000 0.000000 0.021479 0.000000
# 6 0.000000 0.000000 0.000000 0.000000 0.000000 0.049453
#
#
# Mechanical properties :
#
#
# Convention : Reuss Voigt Hill
#
# Bulk Modulus (GPa) = 41.27053 48.14865 44.70959
# Shear Modulus (GPa) = 24.25940 28.38448 26.32194
#
# Velocity S-wave (km/s) = 3.50036 3.78628 3.64613
# Velocity P-wave (km/s) = 6.09762 6.59035 6.34876
#
# Compressibility (1/GPa) = 0.02423037
#
# Stress axis : x y z
#
# Youngs Moduli (GPa) = 59.59813 40.36594 98.02958
#
# Poissons Ratio (x) = 0.21424 0.23218
# Poissons Ratio (y) = 0.31631 0.59657
# Poissons Ratio (z) = 0.14116 0.24565
#
# Static dielectric constant tensor:
#      x y z
#    x 1.749240 0.000000 0.000000 
#    y 0.000000 1.677310 0.000000 
#    z 0.000000 0.000000 1.780440 
# 
# From -- ./inp_files/30822.got.cif
#   From: 2010.05.17/outbox.cif.g08.bks.cpg/sg20_16_cif.got.tgz:30822.got - 2010.06.03 22:52:26.
