data_PCOD9317983
_publ_section_title
;
Structure prediction by ZEFSAII (Michael W. Deem and Ramdas Pophale) SiO2 
 PCOD9317983
Probable space group: C 2 2 21
;
_chemical_formula_sum "Si O2"
_cell_formula_units_Z 60
_cell_length_a 10.319772
_cell_length_b 9.151677
_cell_length_c 30.964121
_cell_angle_alpha 90.000000
_cell_angle_beta 90.000000
_cell_angle_gamma 90.000000
_cell_volume 2924.351293
_symmetry_space_group_name_H-M "C 2 2 21"
_symmetry_group_IT_number 20
_symmetry_cell_setting 'orthorhombic'
loop_
_space_group_symop_operation_xyz
x,y,z
-x,-y,1/2+z
x,-y,-z
-x,y,1/2-z
1/2+x,1/2+y,z
1/2-x,1/2-y,1/2+z
1/2+x,1/2-y,-z
1/2-x,1/2+y,1/2-z
loop_
_atom_site_type_symbol
_atom_site_label
_atom_site_fract_x
_atom_site_fract_y
_atom_site_fract_z
Si Si1 0.021100 0.447686 0.563274
Si Si2 0.760420 0.619335 0.692480
Si Si3 0.736379 0.539818 0.217974
Si Si4 0.615506 0.810795 0.479739
Si Si5 0.513683 0.027181 0.337394
Si Si6 0.040643 0.000000 0.500000
Si Si7 0.868917 0.159745 0.570713
Si Si8 0.028224 0.137005 0.834255
O O1 0.119547 0.371265 0.528748
O O2 0.992413 0.604901 0.541471
O O3 0.060429 0.462456 0.613046
O O4 0.906025 0.330215 0.565041
O O5 0.751452 0.509091 0.732801
O O6 0.625645 0.603588 0.666234
O O7 0.890645 0.578917 0.666728
O O8 0.769441 0.785971 0.709933
O O9 0.865011 0.485923 0.192453
O O10 0.609236 0.460175 0.199055
O O11 0.615414 0.638435 0.481868
O O12 0.725351 0.858565 0.446541
O O13 0.466506 0.189863 0.323838
O O14 0.955104 0.066023 0.538208
O O15 0.905020 0.117172 0.619203
#
# Coordination Sequence:
#
# PCOD9317983 Si02
#       8
#     8   8   8   8   8   4   8   8
#     4   9  20  38  58  84 118 156 196 246 304 356
#     4  11  24  40  62  91 124 161 205 257 313 373
#     4  11  23  40  63  91 122 164 209 254 311 374
#     4  10  20  37  58  83 117 154 196 246 296 355
#     4  10  22  41  62  89 125 163 206 255 309 370
#     4  10  22  34  54  86 112 144 196 240 290 354
#     4  10  21  38  59  84 117 157 197 247 305 357
#     4  10  23  41  61  89 125 160 203 258 308 364
#
# _framework density 20.517372000000002
#
# number of rings (size 3 to 8) (size 9 to 14) (size 15 to 20)
#    0.000    1.867    0.000    3.200    0.000   10.667 
#    0.000   10.667    0.000    0.000    0.000    0.000 
#    0.000    0.000    0.000    0.000    0.000    0.000 
#
# Total GULP energy -167311.446274 kJ/mol
# GULP energy per Si atom -5577.048209 kJ/mol
# Density = 2.047067 g / cm^3
# Si number density = 20.517372 Si / 1000 Ang^3
#
#
#
# Elastic Constant Matrix: (Units=GPa)
#
#
# Indices 1 2 3 4 5 6 
#
# 1 82.5636 27.5729 25.7752 0.0000 0.0000 0.0000
# 2 27.5729 74.0824 18.8717 0.0000 0.0000 0.0000
# 3 25.7752 18.8717 75.4304 0.0000 0.0000 0.0000
# 4 0.0000 0.0000 0.0000 25.4408 0.0000 0.0000
# 5 0.0000 0.0000 0.0000 0.0000 28.4572 0.0000
# 6 0.0000 0.0000 0.0000 0.0000 0.0000 5.8268
#
#
#
# Elastic Compliance Matrix: (Units=1/GPa)
#
#
# Indices 1 2 3 4 5 6 
#
# 1 0.014854 -0.004524 -0.003944 0.000000 0.000000 0.000000
# 2 -0.004524 0.015795 -0.002406 0.000000 0.000000 0.000000
# 3 -0.003944 -0.002406 0.015207 0.000000 0.000000 0.000000
# 4 0.000000 0.000000 0.000000 0.039307 0.000000 0.000000
# 5 0.000000 0.000000 0.000000 0.000000 0.035140 0.000000
# 6 0.000000 0.000000 0.000000 0.000000 0.000000 0.171622
#
#
# Mechanical properties :
#
#
# Convention : Reuss Voigt Hill
#
# Bulk Modulus (GPa) = 41.47901 41.83510 41.65705
# Shear Modulus (GPa) = 15.54201 22.60206 19.07203
#
# Velocity S-wave (km/s) = 2.75527 3.32265 3.05217
# Velocity P-wave (km/s) = 5.51202 5.92911 5.72437
#
# Compressibility (1/GPa) = 0.02410858
#
# Stress axis : x y z
#
# Youngs Moduli (GPa) = 67.32248 63.31081 65.75994
#
# Poissons Ratio (x) = 0.28641 0.25935
# Poissons Ratio (y) = 0.30456 0.15821
# Poissons Ratio (z) = 0.26551 0.15232
#
# Static dielectric constant tensor:
#      x y z
#    x 1.741680 0.000000 0.000000 
#    y 0.000000 1.757160 0.000000 
#    z 0.000000 0.000000 3.144690 
# 
# From -- ./inp_files/31184.got.cif
#   From: 2010.05.17/outbox.cif.g08.bks.cpg/sg20_16_cif.got.tgz:31184.got - 2010.06.03 22:52:26.
