data_PCOD9317463
_publ_section_title
;
Structure prediction by ZEFSAII (Michael W. Deem and Ramdas Pophale) SiO2 
 PCOD9317463
Probable space group: C 2 2 21
;
_chemical_formula_sum "Si O2"
_cell_formula_units_Z 28
_cell_length_a 7.374774
_cell_length_b 29.370946
_cell_length_c 5.645235
_cell_angle_alpha 90.000000
_cell_angle_beta 90.000000
_cell_angle_gamma 90.000000
_cell_volume 1222.780984
_symmetry_space_group_name_H-M "C 2 2 21"
_symmetry_group_IT_number 20
_symmetry_cell_setting 'orthorhombic'
loop_
_space_group_symop_operation_xyz
x,y,z
-x,-y,1/2+z
x,-y,-z
-x,y,1/2-z
1/2+x,1/2+y,z
1/2-x,1/2-y,1/2+z
1/2+x,1/2-y,-z
1/2-x,1/2+y,1/2-z
loop_
_atom_site_type_symbol
_atom_site_label
_atom_site_fract_x
_atom_site_fract_y
_atom_site_fract_z
Si Si1 0.218696 0.588472 0.979758
Si Si2 0.808107 0.553765 0.011158
Si Si3 0.843865 0.815589 0.913880
Si Si4 0.500000 0.760567 0.750000
O O1 0.278770 0.568797 0.237664
O O2 0.265755 0.641499 0.946340
O O3 0.286563 0.564922 0.738866
O O4 0.001651 0.579782 0.996009
O O5 0.845417 0.500000 0.000000
O O6 0.672000 0.792345 0.791922
O O7 0.000000 0.835720 0.750000
O O8 0.944833 0.774240 0.044182
#
# Coordination Sequence:
#
# PCOD9317463 Si02
#       4
#     8   8   8   4
#     4  10  21  35  64 100 138 174 235 297 344 421
#     4  10  19  38  67 105 137 187 239 283 360 449
#     4  12  27  45  71 104 142 188 246 305 371 433
#     4  12  26  48  72 100 144 194 244 304 370 446
#
# _framework density 22.898623000000001
#
# number of rings (size 3 to 8) (size 9 to 14) (size 15 to 20)
#    0.000    1.143    2.857    6.000    4.000    4.571 
#    0.000    0.000    0.000    5.143    0.000    0.000 
#    0.000    0.000    0.000    0.000    0.000    0.000 
#
# Total GULP energy -78133.103989 kJ/mol
# GULP energy per Si atom -5580.935999 kJ/mol
# Density = 2.284650 g / cm^3
# Si number density = 22.898623 Si / 1000 Ang^3
#
#
#
# Elastic Constant Matrix: (Units=GPa)
#
#
# Indices 1 2 3 4 5 6 
#
# 1 113.1208 32.1589 16.5230 0.0000 0.0000 0.0000
# 2 32.1589 117.8672 14.9515 0.0000 0.0000 0.0000
# 3 16.5230 14.9515 161.5324 0.0000 0.0000 0.0000
# 4 0.0000 0.0000 0.0000 49.6451 0.0000 0.0000
# 5 0.0000 0.0000 0.0000 0.0000 3.4819 0.0000
# 6 0.0000 0.0000 0.0000 0.0000 0.0000 -35.6781
#
#
#
# Elastic Compliance Matrix: (Units=1/GPa)
#
#
# Indices 1 2 3 4 5 6 
#
# 1 0.009673 -0.002544 -0.000754 0.000000 0.000000 0.000000
# 2 -0.002544 0.009254 -0.000596 0.000000 0.000000 0.000000
# 3 -0.000754 -0.000596 0.006323 0.000000 0.000000 0.000000
# 4 0.000000 0.000000 0.000000 0.020143 0.000000 0.000000
# 5 0.000000 0.000000 0.000000 0.000000 0.287202 0.000000
# 6 0.000000 0.000000 0.000000 0.000000 0.000000 -0.028028
#
#
# Mechanical properties :
#
#
# Convention : Reuss Voigt Hill
#
# Bulk Modulus (GPa) = 57.26674 57.75413 57.51044
# Shear Modulus (GPa) = 15.71462 25.41558 20.56510
#
# Velocity S-wave (km/s) = 2.62252 3.33516 3.00007
# Velocity P-wave (km/s) = 5.85092 6.33304 6.09675
#
# Compressibility (1/GPa) = 0.01746214
#
# Stress axis : x y z
#
# Youngs Moduli (GPa) = 103.37657 108.06401 158.15190
#
# Poissons Ratio (x) = 0.27487 0.11925
# Poissons Ratio (y) = 0.26295 0.09431
# Poissons Ratio (z) = 0.07795 0.06444
#
# Static dielectric constant tensor:
#      x y z
#    x 1.810850 0.000000 0.000000 
#    y 0.000000 1.819060 0.000000 
#    z 0.000000 0.000000 1.980550 
# 
# From -- ./inp_files/464.got.cif
#   From: 2010.05.17/outbox.cif.g08.bks.cpg/sg20_1_cif.got.tgz:464.got - 2010.06.03 22:52:26.
