data_PCOD9317002
_publ_section_title
;
Structure prediction by ZEFSAII (Michael W. Deem and Ramdas Pophale) SiO2 
 PCOD9317002
Probable space group: C 2 2 21
;
_chemical_formula_sum "Si O2"
_cell_formula_units_Z 48
_cell_length_a 30.320960
_cell_length_b 5.156319
_cell_length_c 12.276040
_cell_angle_alpha 90.000000
_cell_angle_beta 90.000000
_cell_angle_gamma 90.000000
_cell_volume 1919.291853
_symmetry_space_group_name_H-M "C 2 2 21"
_symmetry_group_IT_number 20
_symmetry_cell_setting 'orthorhombic'
loop_
_space_group_symop_operation_xyz
x,y,z
-x,-y,1/2+z
x,-y,-z
-x,y,1/2-z
1/2+x,1/2+y,z
1/2-x,1/2-y,1/2+z
1/2+x,1/2-y,-z
1/2-x,1/2+y,1/2-z
loop_
_atom_site_type_symbol
_atom_site_label
_atom_site_fract_x
_atom_site_fract_y
_atom_site_fract_z
Si Si1 0.839498 0.704422 0.658688
Si Si2 0.252576 0.181610 0.175099
Si Si3 0.437725 0.250309 0.074523
Si Si4 0.531445 0.917921 0.870188
Si Si5 0.845346 0.202781 0.805534
Si Si6 0.569671 0.414973 0.885803
O O1 0.791512 0.755369 0.606923
O O2 0.843050 0.417621 0.708288
O O3 0.841838 0.913698 0.757082
O O4 0.882610 0.789029 0.591926
O O5 0.249584 0.392811 0.274642
O O6 0.300770 0.234088 0.126428
O O7 0.482341 0.190747 0.142395
O O8 0.390492 0.279485 0.130274
O O9 0.446048 0.500000 0.000000
O O10 0.433694 0.000000 0.000000
O O11 0.566573 0.699509 0.834792
O O12 0.543692 0.197037 0.819736
O O13 0.536296 0.000000 0.000000
O O14 0.548479 0.500000 0.000000
#
# Coordination Sequence:
#
# PCOD9317002 Si02
#       6
#     8   8   8   8   8   8
#     4  10  19  34  54  78 105 138 174 213 258 309
#     4   8  16  31  52  72  99 137 171 200 252 321
#     4  11  21  36  56  77 101 136 176 216 259 310
#     4   9  18  33  51  71 100 139 175 203 252 319
#     4  10  20  35  54  78 104 135 174 216 259 310
#     4  10  19  33  53  76 103 137 175 212 250 303
#
# _framework density 25.009225000000001
#
# number of rings (size 3 to 8) (size 9 to 14) (size 15 to 20)
#    0.000    2.333    0.000    4.500    0.000    0.000 
#    0.000    5.833    0.000    3.000    0.000    0.000 
#    0.000    0.000    0.000    0.000    0.000    0.000 
#
# Total GULP energy -133971.180843 kJ/mol
# GULP energy per Si atom -5582.132535 kJ/mol
# Density = 2.495230 g / cm^3
# Si number density = 25.009225 Si / 1000 Ang^3
#
#
#
# Elastic Constant Matrix: (Units=GPa)
#
#
# Indices 1 2 3 4 5 6 
#
# 1 220.1867 39.6380 28.0266 0.0000 0.0000 0.0000
# 2 39.6380 171.1777 12.2732 0.0000 0.0000 0.0000
# 3 28.0266 12.2732 25.2600 0.0000 0.0000 0.0000
# 4 0.0000 0.0000 0.0000 20.6963 0.0000 0.0000
# 5 0.0000 0.0000 0.0000 0.0000 21.9142 0.0000
# 6 0.0000 0.0000 0.0000 0.0000 0.0000 42.9362
#
#
#
# Elastic Compliance Matrix: (Units=1/GPa)
#
#
# Indices 1 2 3 4 5 6 
#
# 1 0.005406 -0.000851 -0.005584 0.000000 0.000000 0.000000
# 2 -0.000851 0.006187 -0.002061 0.000000 0.000000 0.000000
# 3 -0.005584 -0.002061 0.046786 0.000000 0.000000 0.000000
# 4 0.000000 0.000000 0.000000 0.048318 0.000000 0.000000
# 5 0.000000 0.000000 0.000000 0.000000 0.045633 0.000000
# 6 0.000000 0.000000 0.000000 0.000000 0.000000 0.023290
#
#
# Mechanical properties :
#
#
# Convention : Reuss Voigt Hill
#
# Bulk Modulus (GPa) = 24.16370 64.05555 44.10963
# Shear Modulus (GPa) = 24.22394 39.55510 31.88952
#
# Velocity S-wave (km/s) = 3.11561 3.98127 3.57474
# Velocity P-wave (km/s) = 4.75664 6.84123 5.89186
#
# Compressibility (1/GPa) = 0.04138439
#
# Stress axis : x y z
#
# Youngs Moduli (GPa) = 184.99227 161.63377 21.37410
#
# Poissons Ratio (x) = 0.13761 0.11935
# Poissons Ratio (y) = 0.15750 0.04406
# Poissons Ratio (z) = 1.03300 0.33320
#
# Static dielectric constant tensor:
#      x y z
#    x 2.072360 0.000000 0.000000 
#    y 0.000000 2.015700 0.000000 
#    z 0.000000 0.000000 2.120270 
# 
# From -- ./inp_files/22245.got.cif
#   From: 2010.05.17/outbox.cif.g08.bks.cpg/sg20_12_cif.got.tgz:22245.got - 2010.06.03 22:52:26.
