data_PCOD9317020
_publ_section_title
;
Structure prediction by ZEFSAII (Michael W. Deem and Ramdas Pophale) SiO2 
 PCOD9317020
Probable space group: C 2 2 21
;
_chemical_formula_sum "Si O2"
_cell_formula_units_Z 64
_cell_length_a 9.904432
_cell_length_b 25.366955
_cell_length_c 13.683567
_cell_angle_alpha 90.000000
_cell_angle_beta 90.000000
_cell_angle_gamma 90.000000
_cell_volume 3437.931634
_symmetry_space_group_name_H-M "C 2 2 21"
_symmetry_group_IT_number 20
_symmetry_cell_setting 'orthorhombic'
loop_
_space_group_symop_operation_xyz
x,y,z
-x,-y,1/2+z
x,-y,-z
-x,y,1/2-z
1/2+x,1/2+y,z
1/2-x,1/2-y,1/2+z
1/2+x,1/2-y,-z
1/2-x,1/2+y,1/2-z
loop_
_atom_site_type_symbol
_atom_site_label
_atom_site_fract_x
_atom_site_fract_y
_atom_site_fract_z
Si Si1 0.025533 0.637991 0.598524
Si Si2 0.750544 0.148481 0.119803
Si Si3 0.809636 0.439756 0.468339
Si Si4 0.306241 0.301710 0.695157
Si Si5 0.971499 0.702384 0.087976
Si Si6 0.922073 0.885695 0.156968
Si Si7 0.002773 0.814065 0.992547
Si Si8 0.192557 0.315862 0.230359
O O1 0.077380 0.665454 0.501417
O O2 0.133530 0.646356 0.684554
O O3 0.952256 0.582632 0.574818
O O4 0.898516 0.672880 0.635220
O O5 0.816388 0.151623 0.226352
O O6 0.605787 0.175735 0.128314
O O7 0.850568 0.180108 0.048332
O O8 0.725019 0.093680 0.065747
O O9 0.814861 0.500000 0.500000
O O10 0.690899 0.423864 0.391426
O O11 0.153645 0.294871 0.659263
O O12 0.399425 0.311818 0.601097
O O13 0.331772 0.245722 0.750319
O O14 0.012815 0.759448 0.049146
O O15 0.840478 0.835413 0.202020
O O16 0.000000 0.909204 0.250000
O O17 0.015597 0.862129 0.070128
#
# Coordination Sequence:
#
# PCOD9317020 Si02
#       8
#     8   8   8   8   8   8   8   8
#     4   9  19  34  57  83 110 152 201 251 285 357
#     4  10  23  37  54  84 118 152 205 245 299 364
#     4   9  20  44  68  81 107 156 206 264 319 353
#     4  12  22  31  55  85 125 172 191 234 292 362
#     4  11  20  33  50  79 120 163 196 232 292 354
#     4  10  22  36  56  89 119 154 203 247 297 365
#     4  11  21  35  52  83 120 167 200 229 289 366
#     4  10  19  33  54  83 122 156 194 230 293 356
#
# _framework density 18.615845
#
# number of rings (size 3 to 8) (size 9 to 14) (size 15 to 20)
#    0.000    1.750    2.500    3.000    5.250    0.000 
#    0.000    2.500   22.000    0.750    0.000    0.000 
#    0.000    0.000    0.000    0.000    0.000    0.000 
#
# Total GULP energy -178440.367889 kJ/mol
# GULP energy per Si atom -5576.261497 kJ/mol
# Density = 1.857347 g / cm^3
# Si number density = 18.615845 Si / 1000 Ang^3
#
#
#
# Elastic Constant Matrix: (Units=GPa)
#
#
# Indices 1 2 3 4 5 6 
#
# 1 50.6354 32.0587 30.3287 0.0000 0.0000 0.0000
# 2 32.0587 100.7394 46.6410 0.0000 0.0000 0.0000
# 3 30.3287 46.6410 109.4452 0.0000 0.0000 0.0000
# 4 0.0000 0.0000 0.0000 18.5751 0.0000 0.0000
# 5 0.0000 0.0000 0.0000 0.0000 22.4139 0.0000
# 6 0.0000 0.0000 0.0000 0.0000 0.0000 9.0098
#
#
#
# Elastic Compliance Matrix: (Units=1/GPa)
#
#
# Indices 1 2 3 4 5 6 
#
# 1 0.026523 -0.006276 -0.004675 0.000000 0.000000 0.000000
# 2 -0.006276 0.013852 -0.004164 0.000000 0.000000 0.000000
# 3 -0.004675 -0.004164 0.012207 0.000000 0.000000 0.000000
# 4 0.000000 0.000000 0.000000 0.053836 0.000000 0.000000
# 5 0.000000 0.000000 0.000000 0.000000 0.044615 0.000000
# 6 0.000000 0.000000 0.000000 0.000000 0.000000 0.110990
#
#
# Mechanical properties :
#
#
# Convention : Reuss Voigt Hill
#
# Bulk Modulus (GPa) = 44.73991 53.20854 48.97423
# Shear Modulus (GPa) = 16.68323 20.11921 18.40122
#
# Velocity S-wave (km/s) = 2.99688 3.29105 3.14741
# Velocity P-wave (km/s) = 6.00504 6.56398 6.29072
#
# Compressibility (1/GPa) = 0.02235141
#
# Stress axis : x y z
#
# Youngs Moduli (GPa) = 37.70345 72.19390 81.91991
#
# Poissons Ratio (x) = 0.45308 0.38300
# Poissons Ratio (y) = 0.23662 0.34110
# Poissons Ratio (z) = 0.17628 0.30060
#
# Static dielectric constant tensor:
#      x y z
#    x 1.683970 0.000000 0.000000 
#    y 0.000000 1.609710 0.000000 
#    z 0.000000 0.000000 1.734280 
# 
# From -- ./inp_files/19362.got.cif
#   From: 2010.05.17/outbox.cif.g08.bks.cpg/sg20_10_cif.got.tgz:19362.got - 2010.06.03 22:52:26.
