data_PCOD9317932
_publ_section_title
;
Structure prediction by ZEFSAII (Michael W. Deem and Ramdas Pophale) SiO2 
 PCOD9317932
Probable space group: C 2 2 21
;
_chemical_formula_sum "Si O2"
_cell_formula_units_Z 64
_cell_length_a 23.149240
_cell_length_b 15.257646
_cell_length_c 7.922945
_cell_angle_alpha 90.000000
_cell_angle_beta 90.000000
_cell_angle_gamma 90.000000
_cell_volume 2798.407223
_symmetry_space_group_name_H-M "C 2 2 21"
_symmetry_group_IT_number 20
_symmetry_cell_setting 'orthorhombic'
loop_
_space_group_symop_operation_xyz
x,y,z
-x,-y,1/2+z
x,-y,-z
-x,y,1/2-z
1/2+x,1/2+y,z
1/2-x,1/2-y,1/2+z
1/2+x,1/2-y,-z
1/2-x,1/2+y,1/2-z
loop_
_atom_site_type_symbol
_atom_site_label
_atom_site_fract_x
_atom_site_fract_y
_atom_site_fract_z
Si Si1 0.628235 0.824483 0.599155
Si Si2 0.750510 0.354363 0.865207
Si Si3 0.905480 0.401958 0.551295
Si Si4 0.473491 0.405652 0.566197
Si Si5 0.642629 0.553918 0.228543
Si Si6 0.340971 0.624527 0.893438
Si Si7 0.509218 0.778378 0.449154
Si Si8 0.284891 0.833884 0.472844
O O1 0.689963 0.858417 0.529715
O O2 0.610782 0.886620 0.753594
O O3 0.640925 0.722954 0.653516
O O4 0.572917 0.814650 0.481877
O O5 0.704980 0.431835 0.854678
O O6 0.771131 0.340304 0.672165
O O7 0.716841 0.267330 0.920999
O O8 0.919824 0.500000 0.500000
O O9 0.959908 0.340553 0.520269
O O10 0.847852 0.374171 0.447831
O O11 0.491397 0.500000 0.500000
O O12 0.500000 0.402486 0.750000
O O13 0.405119 0.407863 0.602858
O O14 0.497669 0.319241 0.476251
O O15 0.633182 0.452776 0.279914
O O16 0.642509 0.605023 0.409908
O O17 0.270759 0.620653 0.886173
O O18 0.500000 0.774190 0.250000
#
# Coordination Sequence:
#
# PCOD9317932 Si02
#       8
#     8   8   8   8   8   8   8   8
#     4  10  22  41  68  98 131 175 230 280 352 419
#     4   9  19  37  62  95 127 171 218 274 341 412
#     4  11  25  41  69  96 128 170 228 287 346 411
#     4  11  26  40  63  96 136 181 227 280 342 416
#     4  10  20  36  63  95 140 173 228 282 338 413
#     4   9  19  34  66  97 130 179 221 272 341 422
#     4  11  25  45  67  92 129 177 230 287 353 407
#     4   9  19  36  62  92 129 166 216 271 339 412
#
# _framework density 22.870152999999998
#
# number of rings (size 3 to 8) (size 9 to 14) (size 15 to 20)
#    0.000    2.000    0.000    2.625   10.500    3.000 
#    2.250    0.000    0.000    0.000    0.000    0.000 
#    0.000    0.000    0.000    0.000    0.000    0.000 
#
# Total GULP energy -178851.264771 kJ/mol
# GULP energy per Si atom -5589.102024 kJ/mol
# Density = 2.281810 g / cm^3
# Si number density = 22.870153 Si / 1000 Ang^3
#
#
#
# Elastic Constant Matrix: (Units=GPa)
#
#
# Indices 1 2 3 4 5 6 
#
# 1 87.9091 11.1800 13.2849 0.0000 0.0000 0.0000
# 2 11.1800 77.1009 27.8021 0.0000 0.0000 0.0000
# 3 13.2849 27.8021 29.6121 0.0000 0.0000 0.0000
# 4 0.0000 0.0000 0.0000 -34.4665 0.0000 0.0000
# 5 0.0000 0.0000 0.0000 0.0000 28.2845 0.0000
# 6 0.0000 0.0000 0.0000 0.0000 0.0000 -10.5976
#
#
#
# Elastic Compliance Matrix: (Units=1/GPa)
#
#
# Indices 1 2 3 4 5 6 
#
# 1 0.012208 0.000309 -0.005767 0.000000 0.000000 0.000000
# 2 0.000309 0.019616 -0.018556 0.000000 0.000000 0.000000
# 3 -0.005767 -0.018556 0.053779 0.000000 0.000000 0.000000
# 4 0.000000 0.000000 0.000000 -0.029014 0.000000 0.000000
# 5 0.000000 0.000000 0.000000 0.000000 0.035355 0.000000
# 6 0.000000 0.000000 0.000000 0.000000 0.000000 -0.094361
#
#
# Mechanical properties :
#
#
# Convention : Reuss Voigt Hill
#
# Bulk Modulus (GPa) = 26.61322 33.23955 29.92638
# Shear Modulus (GPa) = 86.00538 6.13442 46.06990
#
# Velocity S-wave (km/s) = 6.13902 1.63954 4.49309
# Velocity P-wave (km/s) = 7.86842 4.26025 6.32700
#
# Compressibility (1/GPa) = 0.03757532
#
# Stress axis : x y z
#
# Youngs Moduli (GPa) = 81.91633 50.97787 18.59459
#
# Poissons Ratio (x) = -0.01578 0.10724
# Poissons Ratio (y) = -0.02535 0.34504
# Poissons Ratio (z) = 0.47243 0.94595
#
# Static dielectric constant tensor:
#      x y z
#    x 1.937440 0.000000 0.000000 
#    y 0.000000 1.862400 0.000000 
#    z 0.000000 0.000000 1.907760 
# 
# From -- ./inp_files/10797.got.cif
#   From: 2010.05.17/outbox.cif.g08.bks.cpg/sg20_6_cif.got.tgz:10797.got - 2010.06.03 22:52:26.
