data_PCOD9317144
_publ_section_title
;
Structure prediction by ZEFSAII (Michael W. Deem and Ramdas Pophale) SiO2 
 PCOD9317144
Probable space group: C 2 2 21
;
_chemical_formula_sum "Si O2"
_cell_formula_units_Z 52
_cell_length_a 17.134580
_cell_length_b 8.156183
_cell_length_c 15.967039
_cell_angle_alpha 90.000000
_cell_angle_beta 90.000000
_cell_angle_gamma 90.000000
_cell_volume 2231.437931
_symmetry_space_group_name_H-M "C 2 2 21"
_symmetry_group_IT_number 20
_symmetry_cell_setting 'orthorhombic'
loop_
_space_group_symop_operation_xyz
x,y,z
-x,-y,1/2+z
x,-y,-z
-x,y,1/2-z
1/2+x,1/2+y,z
1/2-x,1/2-y,1/2+z
1/2+x,1/2-y,-z
1/2-x,1/2+y,1/2-z
loop_
_atom_site_type_symbol
_atom_site_label
_atom_site_fract_x
_atom_site_fract_y
_atom_site_fract_z
Si Si1 0.760499 0.628225 0.140204
Si Si2 0.354993 0.000000 0.000000
Si Si3 0.363384 0.362197 0.391749
Si Si4 0.413796 0.151111 0.246637
Si Si5 0.466402 0.757709 0.064029
Si Si6 0.644121 0.836437 0.055176
Si Si7 0.533338 0.576660 0.616909
O O1 0.707373 0.465820 0.144067
O O2 0.830511 0.606933 0.205857
O O3 0.702702 0.785647 0.130661
O O4 0.804163 0.627820 0.050606
O O5 0.409427 0.089664 0.933627
O O6 0.388841 0.201249 0.340123
O O7 0.349707 0.309804 0.486517
O O8 0.441724 0.467231 0.380980
O O9 0.500000 0.063150 0.250000
O O10 0.435877 0.312852 0.191390
O O11 0.553009 0.826165 0.080984
O O12 0.431770 0.604774 0.115399
O O13 0.462355 0.683158 0.968702
O O14 0.660710 0.000000 0.000000
#
# Coordination Sequence:
#
# PCOD9317144 Si02
#       7
#     8   4   8   8   8   8   8
#     4  12  23  42  63  95 127 169 211 265 320 376
#     4  12  22  36  60  96 128 158 210 272 310 356
#     4  10  21  41  63  89 130 166 203 267 324 374
#     4  10  23  41  66  90 127 173 214 253 324 389
#     4  10  19  34  62  92 123 159 213 261 312 363
#     4  11  22  38  67  97 127 164 218 264 320 379
#     4   9  18  37  63  87 118 169 208 251 311 385
#
# _framework density 23.303362
#
# number of rings (size 3 to 8) (size 9 to 14) (size 15 to 20)
#    0.000    1.538    5.385    0.000    0.000    2.462 
#    2.769    0.000    0.000    0.000    0.000    0.000 
#    0.000    0.000    0.000    0.000    0.000    0.000 
#
# Total GULP energy -144885.606162 kJ/mol
# GULP energy per Si atom -5572.523314 kJ/mol
# Density = 2.325032 g / cm^3
# Si number density = 23.303362 Si / 1000 Ang^3
#
#
#
# Elastic Constant Matrix: (Units=GPa)
#
#
# Indices 1 2 3 4 5 6 
#
# 1 127.9795 20.5621 6.5956 0.0000 0.0000 0.0000
# 2 20.5621 58.5183 -18.1497 0.0000 0.0000 0.0000
# 3 6.5956 -18.1497 37.0945 0.0000 0.0000 0.0000
# 4 0.0000 0.0000 0.0000 18.5075 0.0000 0.0000
# 5 0.0000 0.0000 0.0000 0.0000 32.5160 0.0000
# 6 0.0000 0.0000 0.0000 0.0000 0.0000 38.1455
#
#
#
# Elastic Compliance Matrix: (Units=1/GPa)
#
#
# Indices 1 2 3 4 5 6 
#
# 1 0.008665 -0.004153 -0.003573 0.000000 0.000000 0.000000
# 2 -0.004153 0.022136 0.011569 0.000000 0.000000 0.000000
# 3 -0.003573 0.011569 0.033254 0.000000 0.000000 0.000000
# 4 0.000000 0.000000 0.000000 0.054032 0.000000 0.000000
# 5 0.000000 0.000000 0.000000 0.000000 0.030754 0.000000
# 6 0.000000 0.000000 0.000000 0.000000 0.000000 0.026215
#
#
# Mechanical properties :
#
#
# Convention : Reuss Voigt Hill
#
# Bulk Modulus (GPa) = 13.93869 26.84539 20.39204
# Shear Modulus (GPa) = 26.13923 32.13943 29.13933
#
# Velocity S-wave (km/s) = 3.35280 3.71775 3.53998
# Velocity P-wave (km/s) = 4.58070 5.47484 5.04761
#
# Compressibility (1/GPa) = 0.07174274
#
# Stress axis : x y z
#
# Youngs Moduli (GPa) = 115.40570 45.17513 30.07160
#
# Poissons Ratio (x) = 0.18760 0.10743
# Poissons Ratio (y) = 0.47925 -0.34790
# Poissons Ratio (z) = 0.41230 -0.52264
#
# Static dielectric constant tensor:
#      x y z
#    x 1.911790 0.000000 0.000000 
#    y 0.000000 1.926080 0.000000 
#    z 0.000000 0.000000 1.930290 
# 
# From -- ./inp_files/25236.got.cif
#   From: 2010.05.17/outbox.cif.g08.bks.cpg/sg20_13_cif.got.tgz:25236.got - 2010.06.03 22:52:26.
