data_PCOD9317911
_publ_section_title
;
Structure prediction by ZEFSAII (Michael W. Deem and Ramdas Pophale) SiO2 
 PCOD9317911
Probable space group: C 2 2 21
;
_chemical_formula_sum "Si O2"
_cell_formula_units_Z 56
_cell_length_a 7.549488
_cell_length_b 21.274902
_cell_length_c 16.412717
_cell_angle_alpha 90.000000
_cell_angle_beta 90.000000
_cell_angle_gamma 90.000000
_cell_volume 2636.122261
_symmetry_space_group_name_H-M "C 2 2 21"
_symmetry_group_IT_number 20
_symmetry_cell_setting 'orthorhombic'
loop_
_space_group_symop_operation_xyz
x,y,z
-x,-y,1/2+z
x,-y,-z
-x,y,1/2-z
1/2+x,1/2+y,z
1/2-x,1/2-y,1/2+z
1/2+x,1/2-y,-z
1/2-x,1/2+y,1/2-z
loop_
_atom_site_type_symbol
_atom_site_label
_atom_site_fract_x
_atom_site_fract_y
_atom_site_fract_z
Si Si1 0.198021 0.876832 0.549933
Si Si2 0.421089 0.520080 0.405828
Si Si3 0.573605 0.612551 0.633125
Si Si4 0.139028 0.774314 0.684459
Si Si5 0.000000 0.315421 0.750000
Si Si6 0.719596 0.858074 0.297866
Si Si7 0.500000 0.028157 0.750000
Si Si8 0.472044 0.072116 0.128874
O O1 0.153211 0.873923 0.454964
O O2 0.168552 0.812659 0.601210
O O3 0.393712 0.907711 0.557886
O O4 0.059147 0.923053 0.594322
O O5 0.407875 0.500000 0.500000
O O6 0.511601 0.460830 0.359888
O O7 0.223470 0.543591 0.383498
O O8 0.698804 0.635519 0.706426
O O9 0.385895 0.646485 0.642574
O O10 0.330417 0.775613 0.727362
O O11 0.097422 0.700473 0.677416
O O12 0.000000 0.802397 0.750000
O O13 0.049517 0.363090 0.677845
O O14 0.617549 0.923949 0.302472
O O15 0.422764 0.979060 0.684430
#
# Coordination Sequence:
#
# PCOD9317911 Si02
#       8
#     8   8   8   8   4   8   4   8
#     4  10  23  42  63  97 131 171 213 274 336 389
#     4  10  20  36  61  91 127 163 203 265 333 391
#     4  10  22  42  63  92 134 172 217 274 337 391
#     4  11  22  42  66  91 127 173 225 270 323 391
#     4   9  20  36  60  90 124 157 208 270 316 383
#     4  11  22  40  65  89 127 177 223 270 316 394
#     4  11  20  36  60  98 124 165 228 264 322 391
#     4  10  20  36  61  94 126 161 209 267 329 394
#
# _framework density 21.243324999999999
#
# number of rings (size 3 to 8) (size 9 to 14) (size 15 to 20)
#    0.000    1.714    2.143    2.571    0.000    2.857 
#    5.143    0.000    3.143    0.000    0.000    0.000 
#    0.000    0.000    0.000    0.000    0.000    0.000 
#
# Total GULP energy -156039.088543 kJ/mol
# GULP energy per Si atom -5572.824591 kJ/mol
# Density = 2.119497 g / cm^3
# Si number density = 21.243325 Si / 1000 Ang^3
#
#
#
# Elastic Constant Matrix: (Units=GPa)
#
#
# Indices 1 2 3 4 5 6 
#
# 1 68.4519 8.6428 22.4450 0.0000 0.0000 0.0000
# 2 8.6428 88.3124 27.1219 0.0000 0.0000 0.0000
# 3 22.4450 27.1219 79.5199 0.0000 0.0000 0.0000
# 4 0.0000 0.0000 0.0000 20.0841 0.0000 0.0000
# 5 0.0000 0.0000 0.0000 0.0000 31.9670 0.0000
# 6 0.0000 0.0000 0.0000 0.0000 0.0000 31.7694
#
#
#
# Elastic Compliance Matrix: (Units=1/GPa)
#
#
# Indices 1 2 3 4 5 6 
#
# 1 0.016102 -0.000201 -0.004476 0.000000 0.000000 0.000000
# 2 -0.000201 0.012651 -0.004258 0.000000 0.000000 0.000000
# 3 -0.004476 -0.004258 0.015291 0.000000 0.000000 0.000000
# 4 0.000000 0.000000 0.000000 0.049791 0.000000 0.000000
# 5 0.000000 0.000000 0.000000 0.000000 0.031282 0.000000
# 6 0.000000 0.000000 0.000000 0.000000 0.000000 0.031477
#
#
# Mechanical properties :
#
#
# Convention : Reuss Voigt Hill
#
# Bulk Modulus (GPa) = 38.20719 39.18930 38.69824
# Shear Modulus (GPa) = 27.29423 28.63574 27.96498
#
# Velocity S-wave (km/s) = 3.58835 3.67548 3.63218
# Velocity P-wave (km/s) = 5.93236 6.04153 5.98719
#
# Compressibility (1/GPa) = 0.02617308
#
# Stress axis : x y z
#
# Youngs Moduli (GPa) = 62.10427 79.04620 65.39697
#
# Poissons Ratio (x) = 0.01590 0.29274
# Poissons Ratio (y) = 0.01249 0.27846
# Poissons Ratio (z) = 0.27800 0.33658
#
# Static dielectric constant tensor:
#      x y z
#    x 1.861730 0.000000 0.000000 
#    y 0.000000 1.789790 0.000000 
#    z 0.000000 0.000000 1.774350 
# 
# From -- ./inp_files/23882.got.cif
#   From: 2010.05.17/outbox.cif.g08.bks.cpg/sg20_12_cif.got.tgz:23882.got - 2010.06.03 22:52:26.
