data_PCOD9317581
_publ_section_title
;
Structure prediction by ZEFSAII (Michael W. Deem and Ramdas Pophale) SiO2 
 PCOD9317581
Probable space group: C 2 2 21
;
_chemical_formula_sum "Si O2"
_cell_formula_units_Z 48
_cell_length_a 10.182501
_cell_length_b 23.173704
_cell_length_c 9.310965
_cell_angle_alpha 90.000000
_cell_angle_beta 90.000000
_cell_angle_gamma 90.000000
_cell_volume 2197.073627
_symmetry_space_group_name_H-M "C 2 2 21"
_symmetry_group_IT_number 20
_symmetry_cell_setting 'orthorhombic'
loop_
_space_group_symop_operation_xyz
x,y,z
-x,-y,1/2+z
x,-y,-z
-x,y,1/2-z
1/2+x,1/2+y,z
1/2-x,1/2-y,1/2+z
1/2+x,1/2-y,-z
1/2-x,1/2+y,1/2-z
loop_
_atom_site_type_symbol
_atom_site_label
_atom_site_fract_x
_atom_site_fract_y
_atom_site_fract_z
Si Si1 0.500000 0.863874 0.250000
Si Si2 0.236861 0.361480 0.803707
Si Si3 0.500000 0.224423 0.250000
Si Si4 0.245591 0.319660 0.367065
Si Si5 0.838211 0.216128 0.951038
Si Si6 0.053261 0.564932 0.999492
Si Si7 0.264180 0.432569 0.529654
O O1 0.587361 0.827177 0.354950
O O2 0.415228 0.906010 0.347778
O O3 0.134460 0.402003 0.884219
O O4 0.300341 0.401304 0.680421
O O5 0.133082 0.313113 0.747756
O O6 0.331205 0.331222 0.921585
O O7 0.519277 0.262697 0.393775
O O8 0.249012 0.268247 0.482841
O O9 0.283282 0.305604 0.202912
O O10 0.301240 0.381856 0.416189
O O11 0.896412 0.566504 0.025895
O O12 0.096161 0.500000 0.000000
O O13 0.304342 0.500000 0.500000
#
# Coordination Sequence:
#
# PCOD9317581 Si02
#       7
#     4   8   4   8   8   8   8
#     4  10  20  33  50  82 124 155 198 238 302 364
#     4  12  21  38  58  88 125 175 208 257 319 380
#     4  12  22  41  58  86 128 171 208 280 300 370
#     4  11  21  37  54  88 118 165 199 250 305 380
#     4  12  24  37  62  84 127 168 218 254 317 374
#     4  10  20  29  53  83 125 168 194 238 306 395
#     4  10  21  35  59  89 130 167 198 247 329 402
#
# _framework density 21.847244
#
# number of rings (size 3 to 8) (size 9 to 14) (size 15 to 20)
#    0.000    1.000    6.667    1.000    7.000    0.000 
#    0.000    0.000    0.000    0.000    0.000    3.500 
#    0.000    5.333    0.000    0.000    0.000    0.000 
#
# Total GULP energy -133671.240914 kJ/mol
# GULP energy per Si atom -5569.635038 kJ/mol
# Density = 2.179752 g / cm^3
# Si number density = 21.847244 Si / 1000 Ang^3
#
#
#
# Elastic Constant Matrix: (Units=GPa)
#
#
# Indices 1 2 3 4 5 6 
#
# 1 19.2961 19.3161 19.9130 0.0000 0.0000 0.0000
# 2 19.3161 156.6002 91.8871 0.0000 0.0000 0.0000
# 3 19.9130 91.8871 166.5575 0.0000 0.0000 0.0000
# 4 0.0000 0.0000 0.0000 117.3707 0.0000 0.0000
# 5 0.0000 0.0000 0.0000 0.0000 38.6516 0.0000
# 6 0.0000 0.0000 0.0000 0.0000 0.0000 12.9272
#
#
#
# Elastic Compliance Matrix: (Units=1/GPa)
#
#
# Indices 1 2 3 4 5 6 
#
# 1 0.061500 -0.004837 -0.004684 0.000000 0.000000 0.000000
# 2 -0.004837 0.009823 -0.004841 0.000000 0.000000 0.000000
# 3 -0.004684 -0.004841 0.009234 0.000000 0.000000 0.000000
# 4 0.000000 0.000000 0.000000 0.008520 0.000000 0.000000
# 5 0.000000 0.000000 0.000000 0.000000 0.025872 0.000000
# 6 0.000000 0.000000 0.000000 0.000000 0.000000 0.077356
#
#
# Mechanical properties :
#
#
# Convention : Reuss Voigt Hill
#
# Bulk Modulus (GPa) = 19.29269 67.18733 43.24001
# Shear Modulus (GPa) = 20.98128 47.87907 34.43018
#
# Velocity S-wave (km/s) = 3.10233 4.68647 3.97413
# Velocity P-wave (km/s) = 4.65645 7.75267 6.39478
#
# Compressibility (1/GPa) = 0.05183310
#
# Stress axis : x y z
#
# Youngs Moduli (GPa) = 16.26012 101.80505 108.29009
#
# Poissons Ratio (x) = 0.49248 0.50723
# Poissons Ratio (y) = 0.07866 0.52420
# Poissons Ratio (z) = 0.07616 0.49281
#
# Static dielectric constant tensor:
#      x y z
#    x 1.870310 0.000000 0.000000 
#    y 0.000000 1.883380 0.000000 
#    z 0.000000 0.000000 1.882870 
# 
# From -- ./inp_files/7426.got.cif
#   From: 2010.05.17/outbox.cif.g08.bks.cpg/sg20_4_cif.got.tgz:7426.got - 2010.06.03 22:52:26.
