data_PCOD9317579
_publ_section_title
;
Structure prediction by ZEFSAII (Michael W. Deem and Ramdas Pophale) SiO2 
 PCOD9317579
Probable space group: C 2 2 21
;
_chemical_formula_sum "Si O2"
_cell_formula_units_Z 56
_cell_length_a 6.323389
_cell_length_b 23.828215
_cell_length_c 21.824110
_cell_angle_alpha 90.000000
_cell_angle_beta 90.000000
_cell_angle_gamma 90.000000
_cell_volume 3288.349359
_symmetry_space_group_name_H-M "C 2 2 21"
_symmetry_group_IT_number 20
_symmetry_cell_setting 'orthorhombic'
loop_
_space_group_symop_operation_xyz
x,y,z
-x,-y,1/2+z
x,-y,-z
-x,y,1/2-z
1/2+x,1/2+y,z
1/2-x,1/2-y,1/2+z
1/2+x,1/2-y,-z
1/2-x,1/2+y,1/2-z
loop_
_atom_site_type_symbol
_atom_site_label
_atom_site_fract_x
_atom_site_fract_y
_atom_site_fract_z
Si Si1 0.676264 0.774451 0.651946
Si Si2 0.012974 0.933650 0.049545
Si Si3 0.945268 0.772091 0.942198
Si Si4 0.728866 0.542546 0.425648
Si Si5 0.000000 0.203006 0.250000
Si Si6 0.588085 0.693142 0.923614
Si Si7 0.891347 0.500000 0.000000
Si Si8 0.291545 0.148613 0.352646
O O1 0.517944 0.724696 0.633598
O O2 0.528960 0.829542 0.660727
O O3 0.839218 0.780444 0.595482
O O4 0.825171 0.764065 0.710410
O O5 0.037434 0.872455 0.077295
O O6 0.870629 0.980521 0.083991
O O7 0.914810 0.931392 0.980528
O O8 0.242513 0.960346 0.039878
O O9 0.833509 0.712194 0.928862
O O10 0.781033 0.816637 0.913222
O O11 0.987044 0.782750 0.013270
O O12 0.753917 0.584067 0.369223
O O13 0.957541 0.534953 0.455863
O O14 0.864765 0.167217 0.201475
#
# Coordination Sequence:
#
# PCOD9317579 Si02
#       8
#     8   8   8   8   4   8   4   8
#     4  10  22  35  52  81 113 144 186 234 283 341
#     4   9  19  31  47  77 119 145 181 218 273 341
#     4  10  20  29  48  81 112 147 176 216 279 340
#     4   9  18  32  50  79 108 150 182 224 275 337
#     4  10  22  40  56  84 102 142 194 240 292 330
#     4  11  19  31  50  79 117 150 181 228 281 347
#     4   8  18  28  44  72 112 154 176 210 272 346
#     4  10  20  35  58  77 109 141 186 239 280 338
#
# _framework density 17.029820000000001
#
# number of rings (size 3 to 8) (size 9 to 14) (size 15 to 20)
#    0.000    2.571    2.857    0.429    2.000    3.429 
#    0.000    0.000    0.000    0.000   14.857    0.000 
#    0.000    0.000    0.000    0.000    0.000    0.000 
#
# Total GULP energy -155929.763391 kJ/mol
# GULP energy per Si atom -5568.920121 kJ/mol
# Density = 1.699106 g / cm^3
# Si number density = 17.029820 Si / 1000 Ang^3
#
#
#
# Elastic Constant Matrix: (Units=GPa)
#
#
# Indices 1 2 3 4 5 6 
#
# 1 82.7515 16.7460 18.2395 0.0000 0.0000 0.0000
# 2 16.7460 97.2015 18.5794 0.0000 0.0000 0.0000
# 3 18.2395 18.5794 63.0120 0.0000 0.0000 0.0000
# 4 0.0000 0.0000 0.0000 17.9819 0.0000 0.0000
# 5 0.0000 0.0000 0.0000 0.0000 23.6996 0.0000
# 6 0.0000 0.0000 0.0000 0.0000 0.0000 5.1052
#
#
#
# Elastic Compliance Matrix: (Units=1/GPa)
#
#
# Indices 1 2 3 4 5 6 
#
# 1 0.013147 -0.001629 -0.003325 0.000000 0.000000 0.000000
# 2 -0.001629 0.011104 -0.002803 0.000000 0.000000 0.000000
# 3 -0.003325 -0.002803 0.017659 0.000000 0.000000 0.000000
# 4 0.000000 0.000000 0.000000 0.055611 0.000000 0.000000
# 5 0.000000 0.000000 0.000000 0.000000 0.042195 0.000000
# 6 0.000000 0.000000 0.000000 0.000000 0.000000 0.195878
#
#
# Mechanical properties :
#
#
# Convention : Reuss Voigt Hill
#
# Bulk Modulus (GPa) = 37.88439 38.89940 38.39189
# Shear Modulus (GPa) = 13.89248 21.98402 17.93825
#
# Velocity S-wave (km/s) = 2.85927 3.59683 3.24905
# Velocity P-wave (km/s) = 5.76149 6.33570 6.05541
#
# Compressibility (1/GPa) = 0.02639610
#
# Stress axis : x y z
#
# Youngs Moduli (GPa) = 76.06292 90.05519 56.62893
#
# Poissons Ratio (x) = 0.14674 0.18830
# Poissons Ratio (y) = 0.12394 0.15870
# Poissons Ratio (z) = 0.25292 0.25238
#
# Static dielectric constant tensor:
#      x y z
#    x 1.619020 0.000000 0.000000 
#    y 0.000000 1.596670 0.000000 
#    z 0.000000 0.000000 1.574510 
# 
# From -- ./inp_files/28436.got.cif
#   From: 2010.05.17/outbox.cif.g08.bks.cpg/sg20_15_cif.got.tgz:28436.got - 2010.06.03 22:52:26.
