data_PCOD9317490
_publ_section_title
;
Structure prediction by ZEFSAII (Michael W. Deem and Ramdas Pophale) SiO2 
 PCOD9317490
Probable space group: C 2 2 21
;
_chemical_formula_sum "Si O2"
_cell_formula_units_Z 48
_cell_length_a 21.905653
_cell_length_b 8.853675
_cell_length_c 12.791656
_cell_angle_alpha 90.000000
_cell_angle_beta 90.000000
_cell_angle_gamma 90.000000
_cell_volume 2480.884532
_symmetry_space_group_name_H-M "C 2 2 21"
_symmetry_group_IT_number 20
_symmetry_cell_setting 'orthorhombic'
loop_
_space_group_symop_operation_xyz
x,y,z
-x,-y,1/2+z
x,-y,-z
-x,y,1/2-z
1/2+x,1/2+y,z
1/2-x,1/2-y,1/2+z
1/2+x,1/2-y,-z
1/2-x,1/2+y,1/2-z
loop_
_atom_site_type_symbol
_atom_site_label
_atom_site_fract_x
_atom_site_fract_y
_atom_site_fract_z
Si Si1 0.813859 0.228620 0.808613
Si Si2 0.418078 0.588688 0.388128
Si Si3 0.938240 0.770819 0.304621
Si Si4 0.370005 0.320119 0.979160
Si Si5 0.188295 0.872684 0.739520
Si Si6 0.996197 0.322090 0.488514
O O1 0.876496 0.278100 0.751415
O O2 0.754919 0.309831 0.763592
O O3 0.806988 0.050493 0.785500
O O4 0.825029 0.246149 0.932485
O O5 0.413152 0.500000 0.500000
O O6 0.438336 0.453484 0.310715
O O7 0.354308 0.645121 0.341421
O O8 0.464928 0.728263 0.394169
O O9 0.946881 0.712256 0.420997
O O10 0.000000 0.718275 0.250000
O O11 0.344336 0.298961 0.862178
O O12 0.437279 0.253456 0.999059
O O13 0.374571 0.500000 0.000000
O O14 0.005184 0.500000 0.500000
#
# Coordination Sequence:
#
# PCOD9317490 Si02
#       6
#     8   8   8   8   8   8
#     4  10  22  39  63  87 121 159 204 254 306 363
#     4   9  21  38  63  88 119 162 206 244 299 373
#     4  10  19  39  65  85 115 164 206 246 297 372
#     4  10  21  40  62  85 118 163 212 246 299 380
#     4  10  23  39  60  92 119 162 204 248 308 367
#     4  11  23  37  58  95 126 156 198 266 320 351
#
# _framework density 19.347939
#
# number of rings (size 3 to 8) (size 9 to 14) (size 15 to 20)
#    0.000    2.000    1.667    1.500    4.667    6.667 
#    3.000    1.667    0.000    0.000    0.000    0.000 
#    0.000    0.000    0.000    0.000    0.000    0.000 
#
# Total GULP energy -133725.644478 kJ/mol
# GULP energy per Si atom -5571.901853 kJ/mol
# Density = 1.930390 g / cm^3
# Si number density = 19.347939 Si / 1000 Ang^3
#
#
#
# Elastic Constant Matrix: (Units=GPa)
#
#
# Indices 1 2 3 4 5 6 
#
# 1 116.2087 33.4654 44.9276 0.0000 0.0000 0.0000
# 2 33.4654 34.6500 13.9791 0.0000 0.0000 0.0000
# 3 44.9276 13.9791 56.8612 0.0000 0.0000 0.0000
# 4 0.0000 0.0000 0.0000 9.1262 0.0000 0.0000
# 5 0.0000 0.0000 0.0000 0.0000 31.9401 0.0000
# 6 0.0000 0.0000 0.0000 0.0000 0.0000 37.2370
#
#
#
# Elastic Compliance Matrix: (Units=1/GPa)
#
#
# Indices 1 2 3 4 5 6 
#
# 1 0.015478 -0.011118 -0.009497 0.000000 0.000000 0.000000
# 2 -0.011118 0.040023 -0.001055 0.000000 0.000000 0.000000
# 3 -0.009497 -0.001055 0.025350 0.000000 0.000000 0.000000
# 4 0.000000 0.000000 0.000000 0.109575 0.000000 0.000000
# 5 0.000000 0.000000 0.000000 0.000000 0.031309 0.000000
# 6 0.000000 0.000000 0.000000 0.000000 0.000000 0.026855
#
#
# Mechanical properties :
#
#
# Convention : Reuss Voigt Hill
#
# Bulk Modulus (GPa) = 26.65789 43.60712 35.13250
# Shear Modulus (GPa) = 16.42396 23.35050 19.88723
#
# Velocity S-wave (km/s) = 2.91670 3.47778 3.20952
# Velocity P-wave (km/s) = 5.01507 6.22205 5.65088
#
# Compressibility (1/GPa) = 0.03751234
#
# Stress axis : x y z
#
# Youngs Moduli (GPa) = 64.60604 24.98533 39.44836
#
# Poissons Ratio (x) = 0.27779 0.37463
# Poissons Ratio (y) = 0.71829 0.04162
# Poissons Ratio (z) = 0.61354 0.02636
#
# Static dielectric constant tensor:
#      x y z
#    x 1.646350 0.000000 0.000000 
#    y 0.000000 1.704550 0.000000 
#    z 0.000000 0.000000 1.804620 
# 
# From -- ./inp_files/16633.got.cif
#   From: 2010.05.17/outbox.cif.g08.bks.cpg/sg20_9_cif.got.tgz:16633.got - 2010.06.03 22:52:26.
