data_PCOD9317923
_publ_section_title
;
Structure prediction by ZEFSAII (Michael W. Deem and Ramdas Pophale) SiO2 
 PCOD9317923
Probable space group: C 2 2 21
;
_chemical_formula_sum "Si O2"
_cell_formula_units_Z 64
_cell_length_a 14.632738
_cell_length_b 11.565441
_cell_length_c 17.346300
_cell_angle_alpha 90.000000
_cell_angle_beta 90.000000
_cell_angle_gamma 90.000000
_cell_volume 2935.584914
_symmetry_space_group_name_H-M "C 2 2 21"
_symmetry_group_IT_number 20
_symmetry_cell_setting 'orthorhombic'
loop_
_space_group_symop_operation_xyz
x,y,z
-x,-y,1/2+z
x,-y,-z
-x,y,1/2-z
1/2+x,1/2+y,z
1/2-x,1/2-y,1/2+z
1/2+x,1/2-y,-z
1/2-x,1/2+y,1/2-z
loop_
_atom_site_type_symbol
_atom_site_label
_atom_site_fract_x
_atom_site_fract_y
_atom_site_fract_z
Si Si1 0.138125 0.107174 0.704333
Si Si2 0.974730 0.260345 0.405901
Si Si3 0.094351 0.354523 0.779916
Si Si4 0.872259 0.764483 0.436842
Si Si5 0.179432 0.331430 0.380873
Si Si6 0.505986 0.490034 0.085901
Si Si7 0.743836 0.453428 0.813222
Si Si8 0.679143 0.796036 0.195604
O O1 0.107410 0.230891 0.736712
O O2 0.064194 0.060226 0.646884
O O3 0.237970 0.124477 0.667514
O O4 0.159652 0.021649 0.774785
O O5 0.915106 0.276789 0.483040
O O6 0.920220 0.322057 0.336772
O O7 0.079004 0.303185 0.411402
O O8 0.974905 0.122090 0.391279
O O9 0.094209 0.320286 0.868943
O O10 0.179267 0.429854 0.751825
O O11 0.000000 0.406275 0.750000
O O12 0.762688 0.771759 0.426722
O O13 0.913388 0.894750 0.424002
O O14 0.207127 0.466675 0.376155
O O15 0.182564 0.294077 0.289401
O O16 0.464493 0.500000 0.000000
O O17 0.708008 0.329291 0.836865
#
# Coordination Sequence:
#
# PCOD9317923 Si02
#       8
#     8   8   8   8   8   8   8   8
#     4  10  20  36  62  92 126 159 221 262 318 379
#     4  11  25  38  66  98 131 170 209 273 337 388
#     4  11  21  38  66  93 125 175 223 270 312 396
#     4  11  22  43  62  94 137 166 218 273 333 388
#     4  11  22  42  66  95 135 168 222 277 319 396
#     4  10  22  38  62  97 126 166 213 269 326 384
#     4  10  20  37  65  92 127 168 214 268 325 371
#     4  10  21  39  62  97 125 173 215 262 326 390
#
# _framework density 21.801447
#
# number of rings (size 3 to 8) (size 9 to 14) (size 15 to 20)
#    0.000    1.500    5.000    1.875    0.000    4.000 
#    0.000    0.000    0.000    3.000    0.000    0.000 
#    0.000    0.000    0.000    0.000    0.000    0.000 
#
# Total GULP energy -178739.062898 kJ/mol
# GULP energy per Si atom -5585.595716 kJ/mol
# Density = 2.175183 g / cm^3
# Si number density = 21.801447 Si / 1000 Ang^3
#
#
#
# Elastic Constant Matrix: (Units=GPa)
#
#
# Indices 1 2 3 4 5 6 
#
# 1 155.9535 7.8021 60.3093 0.0000 0.0000 0.0000
# 2 7.8021 26.7613 5.0552 0.0000 0.0000 0.0000
# 3 60.3093 5.0552 83.0116 0.0000 0.0000 0.0000
# 4 0.0000 0.0000 0.0000 21.5538 0.0000 0.0000
# 5 0.0000 0.0000 0.0000 0.0000 33.0208 0.0000
# 6 0.0000 0.0000 0.0000 0.0000 0.0000 23.7792
#
#
#
# Elastic Compliance Matrix: (Units=1/GPa)
#
#
# Indices 1 2 3 4 5 6 
#
# 1 0.008969 -0.001400 -0.006431 0.000000 0.000000 0.000000
# 2 -0.001400 0.038021 -0.001298 0.000000 0.000000 0.000000
# 3 -0.006431 -0.001298 0.016798 0.000000 0.000000 0.000000
# 4 0.000000 0.000000 0.000000 0.046395 0.000000 0.000000
# 5 0.000000 0.000000 0.000000 0.000000 0.030284 0.000000
# 6 0.000000 0.000000 0.000000 0.000000 0.000000 0.042054
#
#
# Mechanical properties :
#
#
# Convention : Reuss Voigt Hill
#
# Bulk Modulus (GPa) = 21.96387 45.78438 33.87413
# Shear Modulus (GPa) = 23.15290 28.50810 25.83050
#
# Velocity S-wave (km/s) = 3.26235 3.62003 3.44584
# Velocity P-wave (km/s) = 4.92818 6.20637 5.60384
#
# Compressibility (1/GPa) = 0.04552931
#
# Stress axis : x y z
#
# Youngs Moduli (GPa) = 111.49308 26.30135 59.53164
#
# Poissons Ratio (x) = 0.03682 0.38285
# Poissons Ratio (y) = 0.15610 0.07728
# Poissons Ratio (z) = 0.71701 0.03414
#
# Static dielectric constant tensor:
#      x y z
#    x 1.824450 0.000000 0.000000 
#    y 0.000000 1.832590 0.000000 
#    z 0.000000 0.000000 1.815250 
# 
# From -- ./inp_files/24972.got.cif
#   From: 2010.05.17/outbox.cif.g08.bks.cpg/sg20_13_cif.got.tgz:24972.got - 2010.06.03 22:52:26.
