data_PCOD9317957
_publ_section_title
;
Structure prediction by ZEFSAII (Michael W. Deem and Ramdas Pophale) SiO2 
 PCOD9317957
Probable space group: C 2 2 21
;
_chemical_formula_sum "Si O2"
_cell_formula_units_Z 64
_cell_length_a 11.223790
_cell_length_b 18.756441
_cell_length_c 14.891577
_cell_angle_alpha 90.000000
_cell_angle_beta 90.000000
_cell_angle_gamma 90.000000
_cell_volume 3134.950292
_symmetry_space_group_name_H-M "C 2 2 21"
_symmetry_group_IT_number 20
_symmetry_cell_setting 'orthorhombic'
loop_
_space_group_symop_operation_xyz
x,y,z
-x,-y,1/2+z
x,-y,-z
-x,y,1/2-z
1/2+x,1/2+y,z
1/2-x,1/2-y,1/2+z
1/2+x,1/2-y,-z
1/2-x,1/2+y,1/2-z
loop_
_atom_site_type_symbol
_atom_site_label
_atom_site_fract_x
_atom_site_fract_y
_atom_site_fract_z
Si Si1 0.524249 0.422351 0.022359
Si Si2 0.782282 0.826878 0.397678
Si Si3 0.641650 0.087048 0.266643
Si Si4 0.262358 0.823442 0.608946
Si Si5 0.993137 0.823603 0.646868
Si Si6 0.781324 0.132845 0.912689
Si Si7 0.235126 0.710457 0.396744
Si Si8 0.141767 0.578574 0.740786
O O1 0.609486 0.380736 0.089019
O O2 0.391903 0.417331 0.062070
O O3 0.567644 0.500000 0.000000
O O4 0.525186 0.384522 0.925920
O O5 0.830118 0.749366 0.367219
O O6 0.733615 0.811429 0.498538
O O7 0.690745 0.865139 0.331652
O O8 0.500000 0.092151 0.250000
O O9 0.708411 0.113794 0.177005
O O10 0.682783 0.144500 0.340936
O O11 0.669595 0.003945 0.285351
O O12 0.124964 0.797313 0.621288
O O13 0.283206 0.849997 0.507752
O O14 0.000000 0.846264 0.750000
O O15 0.873832 0.777077 0.633643
O O16 0.824919 0.212382 0.883773
O O17 0.702667 0.097971 0.835678
O O18 0.000000 0.585014 0.750000
#
# Coordination Sequence:
#
# PCOD9317957 Si02
#       8
#     8   8   8   8   8   8   8   8
#     4  10  24  41  64  98 125 163 211 266 326 390
#     4  10  24  42  66  93 131 161 218 263 319 378
#     4  11  25  41  63  91 128 168 214 258 323 390
#     4  10  22  41  66  94 125 171 207 271 316 377
#     4  10  20  36  67  93 121 164 216 257 319 379
#     4  10  24  42  66  93 131 161 218 263 319 378
#     4  10  22  41  66  94 125 171 207 271 316 377
#     4  11  27  43  63  95 128 176 218 260 321 390
#
# _framework density 20.414995999999999
#
# number of rings (size 3 to 8) (size 9 to 14) (size 15 to 20)
#    0.000    1.750    1.250    0.750   10.500    1.500 
#    0.000    2.500    0.000    0.000    0.000    0.000 
#    0.000    0.000    0.000    0.000    0.000    0.000 
#
# Total GULP energy -178547.819071 kJ/mol
# GULP energy per Si atom -5579.619346 kJ/mol
# Density = 2.036853 g / cm^3
# Si number density = 20.414996 Si / 1000 Ang^3
#
#
#
# Elastic Constant Matrix: (Units=GPa)
#
#
# Indices 1 2 3 4 5 6 
#
# 1 42.8191 -2.2427 11.1729 0.0000 0.0000 0.0000
# 2 -2.2427 37.6164 -9.5969 0.0000 0.0000 0.0000
# 3 11.1729 -9.5969 80.7762 0.0000 0.0000 0.0000
# 4 0.0000 0.0000 0.0000 21.5139 0.0000 0.0000
# 5 0.0000 0.0000 0.0000 0.0000 14.4479 0.0000
# 6 0.0000 0.0000 0.0000 0.0000 0.0000 24.6155
#
#
#
# Elastic Compliance Matrix: (Units=1/GPa)
#
#
# Indices 1 2 3 4 5 6 
#
# 1 0.024242 0.000608 -0.003281 0.000000 0.000000 0.000000
# 2 0.000608 0.027430 0.003175 0.000000 0.000000 0.000000
# 3 -0.003281 0.003175 0.013211 0.000000 0.000000 0.000000
# 4 0.000000 0.000000 0.000000 0.046482 0.000000 0.000000
# 5 0.000000 0.000000 0.000000 0.000000 0.069214 0.000000
# 6 0.000000 0.000000 0.000000 0.000000 0.000000 0.040625
#
#
# Mechanical properties :
#
#
# Convention : Reuss Voigt Hill
#
# Bulk Modulus (GPa) = 15.17732 17.76426 16.47079
# Shear Modulus (GPa) = 20.64736 22.90737 21.77737
#
# Velocity S-wave (km/s) = 3.18367 3.35339 3.26963
# Velocity P-wave (km/s) = 4.57875 4.86971 4.72647
#
# Compressibility (1/GPa) = 0.06588776
#
# Stress axis : x y z
#
# Youngs Moduli (GPa) = 41.25072 36.45593 75.69514
#
# Poissons Ratio (x) = -0.02218 0.24835
# Poissons Ratio (y) = -0.02509 -0.24032
# Poissons Ratio (z) = 0.13534 -0.11574
#
# Static dielectric constant tensor:
#      x y z
#    x 1.794790 0.000000 0.000000 
#    y 0.000000 1.752990 0.000000 
#    z 0.000000 0.000000 1.710280 
# 
# From -- ./inp_files/20271.got.cif
#   From: 2010.05.17/outbox.cif.g08.bks.cpg/sg20_11_cif.got.tgz:20271.got - 2010.06.03 22:52:26.
