data_PCOD9317361
_publ_section_title
;
Structure prediction by ZEFSAII (Michael W. Deem and Ramdas Pophale) SiO2 
 PCOD9317361
Probable space group: C 2 2 21
;
_chemical_formula_sum "Si O2"
_cell_formula_units_Z 48
_cell_length_a 16.813823
_cell_length_b 8.868160
_cell_length_c 13.393980
_cell_angle_alpha 90.000000
_cell_angle_beta 90.000000
_cell_angle_gamma 90.000000
_cell_volume 1997.145184
_symmetry_space_group_name_H-M "C 2 2 21"
_symmetry_group_IT_number 20
_symmetry_cell_setting 'orthorhombic'
loop_
_space_group_symop_operation_xyz
x,y,z
-x,-y,1/2+z
x,-y,-z
-x,y,1/2-z
1/2+x,1/2+y,z
1/2-x,1/2-y,1/2+z
1/2+x,1/2-y,-z
1/2-x,1/2+y,1/2-z
loop_
_atom_site_type_symbol
_atom_site_label
_atom_site_fract_x
_atom_site_fract_y
_atom_site_fract_z
Si Si1 0.805839 0.644078 0.573805
Si Si2 0.517505 0.878210 0.092344
Si Si3 0.099827 0.890673 0.594833
Si Si4 0.871563 0.462484 0.881881
Si Si5 0.650845 0.651570 0.705902
Si Si6 0.743611 0.680489 0.892421
O O1 0.802736 0.500000 0.500000
O O2 0.892248 0.648673 0.623508
O O3 0.736144 0.626698 0.652886
O O4 0.790027 0.789429 0.503067
O O5 0.475130 0.716825 0.073156
O O6 0.448614 0.952715 0.159638
O O7 0.525222 0.000000 0.000000
O O8 0.179093 0.789694 0.610097
O O9 0.111148 0.000000 0.500000
O O10 0.098384 0.003206 0.689575
O O11 0.883799 0.290528 0.856078
O O12 0.784422 0.524524 0.855748
O O13 0.870970 0.500000 0.000000
O O14 0.671492 0.706996 0.816579
#
# Coordination Sequence:
#
# PCOD9317361 Si02
#       6
#     8   8   8   8   8   8
#     4  11  21  41  64  95 121 167 217 273 317 376
#     4   9  21  37  65  88 122 165 214 257 323 383
#     4  11  19  40  65  89 123 173 212 255 327 384
#     4  10  19  37  60  87 121 168 208 253 323 380
#     4  12  21  36  69  93 126 167 213 268 315 380
#     4  11  21  36  64  99 120 161 223 267 308 380
#
# _framework density 24.034307999999999
#
# number of rings (size 3 to 8) (size 9 to 14) (size 15 to 20)
#    0.000    1.333    5.000    3.000    0.000    0.000 
#    3.000    3.333    7.333    4.000    0.000    0.000 
#    0.000    0.000    0.000    0.000    0.000    0.000 
#
# Total GULP energy -133938.523767 kJ/mol
# GULP energy per Si atom -5580.771824 kJ/mol
# Density = 2.397961 g / cm^3
# Si number density = 24.034308 Si / 1000 Ang^3
#
#
#
# Elastic Constant Matrix: (Units=GPa)
#
#
# Indices 1 2 3 4 5 6 
#
# 1 103.9123 29.6678 7.5708 0.0000 0.0000 0.0000
# 2 29.6678 111.1705 6.2806 0.0000 0.0000 0.0000
# 3 7.5708 6.2806 78.2042 0.0000 0.0000 0.0000
# 4 0.0000 0.0000 0.0000 9.0747 0.0000 0.0000
# 5 0.0000 0.0000 0.0000 0.0000 9.2309 0.0000
# 6 0.0000 0.0000 0.0000 0.0000 0.0000 -12.0867
#
#
#
# Elastic Compliance Matrix: (Units=1/GPa)
#
#
# Indices 1 2 3 4 5 6 
#
# 1 0.010466 -0.002748 -0.000792 0.000000 0.000000 0.000000
# 2 -0.002748 0.009758 -0.000518 0.000000 0.000000 0.000000
# 3 -0.000792 -0.000518 0.012905 0.000000 0.000000 0.000000
# 4 0.000000 0.000000 0.000000 0.110196 0.000000 0.000000
# 5 0.000000 0.000000 0.000000 0.000000 0.108331 0.000000
# 6 0.000000 0.000000 0.000000 0.000000 0.000000 -0.082736
#
#
# Mechanical properties :
#
#
# Convention : Reuss Voigt Hill
#
# Bulk Modulus (GPa) = 39.98013 42.25839 41.11926
# Shear Modulus (GPa) = 26.97235 17.89498 22.43367
#
# Velocity S-wave (km/s) = 3.35363 2.73162 3.05848
# Velocity P-wave (km/s) = 5.62730 5.25069 5.44225
#
# Compressibility (1/GPa) = 0.02501243
#
# Stress axis : x y z
#
# Youngs Moduli (GPa) = 95.54852 102.48155 77.48744
#
# Poissons Ratio (x) = 0.28164 0.06141
# Poissons Ratio (y) = 0.26259 0.04011
# Poissons Ratio (z) = 0.07572 0.05305
#
# Static dielectric constant tensor:
#      x y z
#    x 1.927180 0.000000 0.000000 
#    y 0.000000 2.051740 0.000000 
#    z 0.000000 0.000000 2.162420 
# 
# From -- ./inp_files/21282.got.cif
#   From: 2010.05.17/outbox.cif.g08.bks.cpg/sg20_11_cif.got.tgz:21282.got - 2010.06.03 22:52:26.
