data_PCOD9317080
_publ_section_title
;
Structure prediction by ZEFSAII (Michael W. Deem and Ramdas Pophale) SiO2 
 PCOD9317080
Probable space group: C 2 2 21
;
_chemical_formula_sum "Si O2"
_cell_formula_units_Z 48
_cell_length_a 8.489614
_cell_length_b 29.122679
_cell_length_c 10.232300
_cell_angle_alpha 90.000000
_cell_angle_beta 90.000000
_cell_angle_gamma 90.000000
_cell_volume 2529.836956
_symmetry_space_group_name_H-M "C 2 2 21"
_symmetry_group_IT_number 20
_symmetry_cell_setting 'orthorhombic'
loop_
_space_group_symop_operation_xyz
x,y,z
-x,-y,1/2+z
x,-y,-z
-x,y,1/2-z
1/2+x,1/2+y,z
1/2-x,1/2-y,1/2+z
1/2+x,1/2-y,-z
1/2-x,1/2+y,1/2-z
loop_
_atom_site_type_symbol
_atom_site_label
_atom_site_fract_x
_atom_site_fract_y
_atom_site_fract_z
Si Si1 0.131375 0.095334 0.640495
Si Si2 0.615070 0.278856 0.870978
Si Si3 0.639286 0.567535 0.349514
Si Si4 0.636504 0.015357 0.854372
Si Si5 0.819508 0.343963 0.714712
Si Si6 0.831117 0.196572 0.954658
O O1 0.080502 0.078093 0.495949
O O2 0.293499 0.066736 0.658460
O O3 0.158391 0.150061 0.629458
O O4 0.000000 0.085760 0.750000
O O5 0.500000 0.267556 0.750000
O O6 0.709132 0.324576 0.829906
O O7 0.739751 0.238347 0.888949
O O8 0.503712 0.288137 0.995206
O O9 0.500000 0.575466 0.250000
O O10 0.712678 0.517477 0.333914
O O11 0.776970 0.603687 0.317063
O O12 0.500000 0.007819 0.750000
O O13 0.581690 0.000000 0.000000
O O14 0.766953 0.316564 0.585253
O O15 0.000000 0.337651 0.750000
#
# Coordination Sequence:
#
# PCOD9317080 Si02
#       6
#     8   8   8   8   8   8
#     4  10  22  38  56  84 118 150 187 239 298 352
#     4  10  21  36  55  81 111 149 198 243 290 352
#     4  10  20  38  61  84 112 150 196 240 285 351
#     4  10  22  39  59  86 119 152 193 242 291 350
#     4  10  19  34  56  81 109 144 192 244 292 348
#     4  10  21  37  55  80 115 151 191 242 298 355
#
# _framework density 18.973554
#
# number of rings (size 3 to 8) (size 9 to 14) (size 15 to 20)
#    0.000    2.000    0.000    4.500    0.000    5.333 
#    0.000    6.667    0.000    0.000    0.000    0.000 
#    0.000    0.000    0.000    0.000    0.000    0.000 
#
# Total GULP energy -133934.228019 kJ/mol
# GULP energy per Si atom -5580.592834 kJ/mol
# Density = 1.893037 g / cm^3
# Si number density = 18.973554 Si / 1000 Ang^3
#
#
#
# Elastic Constant Matrix: (Units=GPa)
#
#
# Indices 1 2 3 4 5 6 
#
# 1 89.7715 20.0293 63.4741 0.0000 0.0000 0.0000
# 2 20.0293 95.3068 27.2620 0.0000 0.0000 0.0000
# 3 63.4741 27.2620 67.4873 0.0000 0.0000 0.0000
# 4 0.0000 0.0000 0.0000 13.0676 0.0000 0.0000
# 5 0.0000 0.0000 0.0000 0.0000 30.7062 0.0000
# 6 0.0000 0.0000 0.0000 0.0000 0.0000 10.6949
#
#
#
# Elastic Compliance Matrix: (Units=1/GPa)
#
#
# Indices 1 2 3 4 5 6 
#
# 1 0.033672 0.002242 -0.032575 0.000000 0.000000 0.000000
# 2 0.002242 0.012012 -0.006961 0.000000 0.000000 0.000000
# 3 -0.032575 -0.006961 0.048267 0.000000 0.000000 0.000000
# 4 0.000000 0.000000 0.000000 0.076525 0.000000 0.000000
# 5 0.000000 0.000000 0.000000 0.000000 0.032567 0.000000
# 6 0.000000 0.000000 0.000000 0.000000 0.000000 0.093502
#
#
# Mechanical properties :
#
#
# Convention : Reuss Voigt Hill
#
# Bulk Modulus (GPa) = 51.64438 52.67739 52.16089
# Shear Modulus (GPa) = 13.24192 20.34710 16.79451
#
# Velocity S-wave (km/s) = 2.64467 3.27829 2.97838
# Velocity P-wave (km/s) = 6.05012 6.49257 6.27525
#
# Compressibility (1/GPa) = 0.01936319
#
# Stress axis : x y z
#
# Youngs Moduli (GPa) = 29.69833 83.24699 20.71789
#
# Poissons Ratio (x) = -0.18660 0.67489
# Poissons Ratio (y) = -0.06657 0.14421
# Poissons Ratio (z) = 0.96743 0.57947
#
# Static dielectric constant tensor:
#      x y z
#    x 1.619820 0.000000 0.000000 
#    y 0.000000 1.665930 0.000000 
#    z 0.000000 0.000000 1.670900 
# 
# From -- ./inp_files/6485.got.cif
#   From: 2010.05.17/outbox.cif.g08.bks.cpg/sg20_4_cif.got.tgz:6485.got - 2010.06.03 22:52:26.
