data_PCOD9317508
_publ_section_title
;
Structure prediction by ZEFSAII (Michael W. Deem and Ramdas Pophale) SiO2 
 PCOD9317508
Probable space group: C 2 2 21
;
_chemical_formula_sum "Si O2"
_cell_formula_units_Z 56
_cell_length_a 23.188372
_cell_length_b 11.328227
_cell_length_c 10.907767
_cell_angle_alpha 90.000000
_cell_angle_beta 90.000000
_cell_angle_gamma 90.000000
_cell_volume 2865.286505
_symmetry_space_group_name_H-M "C 2 2 21"
_symmetry_group_IT_number 20
_symmetry_cell_setting 'orthorhombic'
loop_
_space_group_symop_operation_xyz
x,y,z
-x,-y,1/2+z
x,-y,-z
-x,y,1/2-z
1/2+x,1/2+y,z
1/2-x,1/2-y,1/2+z
1/2+x,1/2-y,-z
1/2-x,1/2+y,1/2-z
loop_
_atom_site_type_symbol
_atom_site_label
_atom_site_fract_x
_atom_site_fract_y
_atom_site_fract_z
Si Si1 0.773810 0.131854 0.951799
Si Si2 0.120900 0.054111 0.700097
Si Si3 0.369571 0.279113 0.868278
Si Si4 0.000000 0.574908 0.250000
Si Si5 0.566505 0.000000 0.000000
Si Si6 0.045378 0.244438 0.574705
Si Si7 0.072611 0.123492 0.960280
Si Si8 0.353546 0.206208 0.601560
O O1 0.816933 0.105591 0.838819
O O2 0.714018 0.194118 0.923936
O O3 0.812136 0.204643 0.049639
O O4 0.760766 0.000000 0.000000
O O5 0.075029 0.123400 0.616944
O O6 0.104493 0.093793 0.834931
O O7 0.117047 0.914932 0.672134
O O8 0.362073 0.202326 0.747248
O O9 0.420106 0.224814 0.952087
O O10 0.047224 0.659703 0.316724
O O11 0.971197 0.513867 0.372294
O O12 0.609650 0.108166 0.970714
O O13 0.978652 0.217026 0.551828
O O14 0.119520 0.171287 0.054796
O O15 0.045262 0.000000 0.000000
#
# Coordination Sequence:
#
# PCOD9317508 Si02
#       8
#     8   8   8   4   4   8   8   8
#     4   9  21  41  63  85 126 172 216 263 323 392
#     4  10  19  40  62  92 129 164 208 264 333 391
#     4  10  23  39  65  98 127 169 216 278 333 395
#     4  12  26  46  66  94 130 178 228 274 318 398
#     4  12  28  46  66  92 134 186 228 274 324 396
#     4  11  21  41  65  93 126 169 209 264 341 391
#     4  12  22  36  62  99 131 161 208 269 327 397
#     4  12  24  42  63  95 130 176 224 271 332 386
#
# _framework density 19.544294000000001
#
# number of rings (size 3 to 8) (size 9 to 14) (size 15 to 20)
#    0.000    1.143    5.000    2.143    4.000    0.571 
#    0.000    0.000    0.000    0.000    0.000    0.000 
#    0.000    0.000    0.000    0.000    0.000    0.000 
#
# Total GULP energy -156143.254717 kJ/mol
# GULP energy per Si atom -5576.544811 kJ/mol
# Density = 1.949981 g / cm^3
# Si number density = 19.544294 Si / 1000 Ang^3
#
#
#
# Elastic Constant Matrix: (Units=GPa)
#
#
# Indices 1 2 3 4 5 6 
#
# 1 113.7632 29.0212 57.6663 0.0000 0.0000 0.0000
# 2 29.0212 20.6636 9.7548 0.0000 0.0000 0.0000
# 3 57.6663 9.7548 141.7149 0.0000 0.0000 0.0000
# 4 0.0000 0.0000 0.0000 27.3395 0.0000 0.0000
# 5 0.0000 0.0000 0.0000 0.0000 20.3362 0.0000
# 6 0.0000 0.0000 0.0000 0.0000 0.0000 -1.3902
#
#
#
# Elastic Compliance Matrix: (Units=1/GPa)
#
#
# Indices 1 2 3 4 5 6 
#
# 1 0.016976 -0.021273 -0.005444 0.000000 0.000000 0.000000
# 2 -0.021273 0.076676 0.003378 0.000000 0.000000 0.000000
# 3 -0.005444 0.003378 0.009039 0.000000 0.000000 0.000000
# 4 0.000000 0.000000 0.000000 0.036577 0.000000 0.000000
# 5 0.000000 0.000000 0.000000 0.000000 0.049173 0.000000
# 6 0.000000 0.000000 0.000000 0.000000 0.000000 -0.719312
#
#
# Mechanical properties :
#
#
# Convention : Reuss Voigt Hill
#
# Bulk Modulus (GPa) = 17.85227 52.11403 34.98315
# Shear Modulus (GPa) = -10.74063 21.23705 5.24821
#
# Velocity S-wave (km/s) = -2.34680 3.29995 1.64046
# Velocity P-wave (km/s) = 1.34566 6.42200 4.63966
#
# Compressibility (1/GPa) = 0.05601528
#
# Stress axis : x y z
#
# Youngs Moduli (GPa) = 58.90591 13.04189 110.63182
#
# Poissons Ratio (x) = 0.27743 0.60224
# Poissons Ratio (y) = 1.25308 -0.37374
# Poissons Ratio (z) = 0.32066 -0.04406
#
# Static dielectric constant tensor:
#      x y z
#    x 1.662800 0.000000 0.000000 
#    y 0.000000 1.744360 0.000000 
#    z 0.000000 0.000000 1.742830 
# 
# From -- ./inp_files/16770.got.cif
#   From: 2010.05.17/outbox.cif.g08.bks.cpg/sg20_9_cif.got.tgz:16770.got - 2010.06.03 22:52:26.
