data_PCOD9317740
_publ_section_title
;
Structure prediction by ZEFSAII (Michael W. Deem and Ramdas Pophale) SiO2 
 PCOD9317740
Probable space group: C 2 2 21
;
_chemical_formula_sum "Si O2"
_cell_formula_units_Z 60
_cell_length_a 8.914704
_cell_length_b 22.449058
_cell_length_c 14.806157
_cell_angle_alpha 90.000000
_cell_angle_beta 90.000000
_cell_angle_gamma 90.000000
_cell_volume 2963.107446
_symmetry_space_group_name_H-M "C 2 2 21"
_symmetry_group_IT_number 20
_symmetry_cell_setting 'orthorhombic'
loop_
_space_group_symop_operation_xyz
x,y,z
-x,-y,1/2+z
x,-y,-z
-x,y,1/2-z
1/2+x,1/2+y,z
1/2-x,1/2-y,1/2+z
1/2+x,1/2-y,-z
1/2-x,1/2+y,1/2-z
loop_
_atom_site_type_symbol
_atom_site_label
_atom_site_fract_x
_atom_site_fract_y
_atom_site_fract_z
Si Si1 0.896838 0.314562 0.024418
Si Si2 0.995343 0.219190 0.356222
Si Si3 0.173679 0.084761 0.907363
Si Si4 0.906409 0.580010 0.488038
Si Si5 0.000000 0.152896 0.750000
Si Si6 0.542921 0.996114 0.356704
Si Si7 0.084029 0.887185 0.525424
Si Si8 0.178366 0.220300 0.608846
O O1 0.882900 0.264130 0.101246
O O2 0.764916 0.361514 0.043868
O O3 0.907094 0.276617 0.933227
O O4 0.042467 0.355680 0.021855
O O5 0.015176 0.153018 0.395178
O O6 0.000000 0.217951 0.250000
O O7 0.843609 0.252227 0.386724
O O8 0.295451 0.034674 0.878118
O O9 0.090624 0.111489 0.819839
O O10 0.040244 0.071678 0.977909
O O11 0.737651 0.579254 0.451769
O O12 0.020981 0.558958 0.408671
O O13 0.927937 0.541284 0.579300
O O14 0.879732 0.196243 0.796583
O O15 0.500000 0.995886 0.250000
O O16 0.137625 0.836003 0.454494
#
# Coordination Sequence:
#
# PCOD9317740 Si02
#       8
#     8   8   8   8   4   8   8   8
#     4  10  20  37  61  83 132 174 203 240 309 387
#     4  11  21  34  59  95 134 170 214 248 299 383
#     4  10  21  38  65  91 124 164 210 269 316 371
#     4  10  22  44  66  90 121 173 208 272 336 379
#     4  10  22  32  60  98 128 156 208 258 314 356
#     4  10  24  44  69  93 120 159 234 276 331 387
#     4  10  21  39  63  90 132 167 205 257 326 386
#     4  10  20  35  54  94 130 168 202 245 302 390
#
# _framework density 20.249013000000001
#
# number of rings (size 3 to 8) (size 9 to 14) (size 15 to 20)
#    0.000    1.867    2.667    0.800    3.733    3.200 
#    3.600    5.333    0.000    0.000    0.000    0.000 
#    0.000    0.000    0.000    0.000    0.000    0.000 
#
# Total GULP energy -167034.883453 kJ/mol
# GULP energy per Si atom -5567.829448 kJ/mol
# Density = 2.020293 g / cm^3
# Si number density = 20.249013 Si / 1000 Ang^3
#
#
#
# Elastic Constant Matrix: (Units=GPa)
#
#
# Indices 1 2 3 4 5 6 
#
# 1 80.6635 23.4413 11.7171 0.0000 0.0000 0.0000
# 2 23.4413 57.0705 39.2255 0.0000 0.0000 0.0000
# 3 11.7171 39.2255 92.0043 0.0000 0.0000 0.0000
# 4 0.0000 0.0000 0.0000 26.0755 0.0000 0.0000
# 5 0.0000 0.0000 0.0000 0.0000 19.7982 0.0000
# 6 0.0000 0.0000 0.0000 0.0000 0.0000 24.4839
#
#
#
# Elastic Compliance Matrix: (Units=1/GPa)
#
#
# Indices 1 2 3 4 5 6 
#
# 1 0.014137 -0.006463 0.000955 0.000000 0.000000 0.000000
# 2 -0.006463 0.027740 -0.011004 0.000000 0.000000 0.000000
# 3 0.000955 -0.011004 0.015439 0.000000 0.000000 0.000000
# 4 0.000000 0.000000 0.000000 0.038350 0.000000 0.000000
# 5 0.000000 0.000000 0.000000 0.000000 0.050510 0.000000
# 6 0.000000 0.000000 0.000000 0.000000 0.000000 0.040843
#
#
# Mechanical properties :
#
#
# Convention : Reuss Voigt Hill
#
# Bulk Modulus (GPa) = 41.16553 42.05625 41.61089
# Shear Modulus (GPa) = 21.91652 24.42849 23.17250
#
# Velocity S-wave (km/s) = 3.29348 3.47710 3.38653
# Velocity P-wave (km/s) = 5.90224 6.07741 5.99047
#
# Compressibility (1/GPa) = 0.02429217
#
# Stress axis : x y z
#
# Youngs Moduli (GPa) = 70.73825 36.04934 64.77215
#
# Poissons Ratio (x) = 0.23299 -0.06186
# Poissons Ratio (y) = 0.45718 0.71273
# Poissons Ratio (z) = -0.06756 0.39667
#
# Static dielectric constant tensor:
#      x y z
#    x 1.777340 0.000000 0.000000 
#    y 0.000000 1.750830 0.000000 
#    z 0.000000 0.000000 1.718430 
# 
# From -- ./inp_files/19338.got.cif
#   From: 2010.05.17/outbox.cif.g08.bks.cpg/sg20_10_cif.got.tgz:19338.got - 2010.06.03 22:52:26.
