data_PCOD9317980
_publ_section_title
;
Structure prediction by ZEFSAII (Michael W. Deem and Ramdas Pophale) SiO2 
 PCOD9317980
Probable space group: C 2 2 21
;
_chemical_formula_sum "Si O2"
_cell_formula_units_Z 64
_cell_length_a 10.946494
_cell_length_b 8.763445
_cell_length_c 29.798311
_cell_angle_alpha 90.000000
_cell_angle_beta 90.000000
_cell_angle_gamma 90.000000
_cell_volume 2858.522120
_symmetry_space_group_name_H-M "C 2 2 21"
_symmetry_group_IT_number 20
_symmetry_cell_setting 'orthorhombic'
loop_
_space_group_symop_operation_xyz
x,y,z
-x,-y,1/2+z
x,-y,-z
-x,y,1/2-z
1/2+x,1/2+y,z
1/2-x,1/2-y,1/2+z
1/2+x,1/2-y,-z
1/2-x,1/2+y,1/2-z
loop_
_atom_site_type_symbol
_atom_site_label
_atom_site_fract_x
_atom_site_fract_y
_atom_site_fract_z
Si Si1 0.846527 0.247678 0.294878
Si Si2 0.313050 0.553822 0.744167
Si Si3 0.401280 0.662008 0.475707
Si Si4 0.073868 0.053529 0.124897
Si Si5 0.420177 0.243857 0.332558
Si Si6 0.326753 0.328438 0.981351
Si Si7 0.078032 0.455857 0.319162
Si Si8 0.319267 0.695720 0.124674
O O1 0.726184 0.349070 0.287099
O O2 0.843408 0.138339 0.338400
O O3 0.962535 0.356425 0.302209
O O4 0.857156 0.121014 0.254816
O O5 0.400150 0.657279 0.712659
O O6 0.181736 0.542296 0.718685
O O7 0.398888 0.500000 0.500000
O O8 0.398960 0.624964 0.423030
O O9 0.534461 0.736146 0.486073
O O10 0.282234 0.750046 0.491815
O O11 0.934379 0.092158 0.136521
O O12 0.079487 0.871800 0.128512
O O13 0.295796 0.155154 0.344679
O O14 0.527193 0.122724 0.330001
O O15 0.296710 0.321510 0.928253
O O16 0.333371 0.500000 0.000000
O O17 0.136764 0.366109 0.361298
#
# Coordination Sequence:
#
# PCOD9317980 Si02
#       8
#     8   8   8   8   8   8   8   8
#     4  10  20  37  58  82 117 156 195 246 299 358
#     4  10  21  37  56  85 119 153 199 245 298 360
#     4  10  21  41  63  90 128 164 208 266 318 375
#     4   9  20  38  60  88 122 161 204 252 311 372
#     4  10  20  37  61  88 118 156 199 247 304 365
#     4  10  22  39  60  89 123 164 210 256 312 379
#     4  10  21  37  59  85 116 152 197 250 300 359
#     4   9  20  38  57  85 119 152 198 250 300 362
#
# _framework density 22.389192999999999
#
# number of rings (size 3 to 8) (size 9 to 14) (size 15 to 20)
#    0.000    2.250    0.000    1.875    0.000    4.500 
#    0.000   22.500    0.000    0.000    0.000    0.000 
#    0.000    0.000    0.000    0.000    0.000    0.000 
#
# Total GULP energy -178865.364842 kJ/mol
# GULP energy per Si atom -5589.542651 kJ/mol
# Density = 2.233823 g / cm^3
# Si number density = 22.389193 Si / 1000 Ang^3
#
#
#
# Elastic Constant Matrix: (Units=GPa)
#
#
# Indices 1 2 3 4 5 6 
#
# 1 103.0600 57.5384 45.4020 0.0000 0.0000 0.0000
# 2 57.5384 98.0676 27.2626 0.0000 0.0000 0.0000
# 3 45.4020 27.2626 66.4644 0.0000 0.0000 0.0000
# 4 0.0000 0.0000 0.0000 20.4855 0.0000 0.0000
# 5 0.0000 0.0000 0.0000 0.0000 39.7696 0.0000
# 6 0.0000 0.0000 0.0000 0.0000 0.0000 43.1713
#
#
#
# Elastic Compliance Matrix: (Units=1/GPa)
#
#
# Indices 1 2 3 4 5 6 
#
# 1 0.018310 -0.008201 -0.009144 0.000000 0.000000 0.000000
# 2 -0.008201 0.015183 -0.000626 0.000000 0.000000 0.000000
# 3 -0.009144 -0.000626 0.021548 0.000000 0.000000 0.000000
# 4 0.000000 0.000000 0.000000 0.048815 0.000000 0.000000
# 5 0.000000 0.000000 0.000000 0.000000 0.025145 0.000000
# 6 0.000000 0.000000 0.000000 0.000000 0.000000 0.023164
#
#
# Mechanical properties :
#
#
# Convention : Reuss Voigt Hill
#
# Bulk Modulus (GPa) = 52.35468 58.66646 55.51057
# Shear Modulus (GPa) = 25.71079 29.84454 27.77766
#
# Velocity S-wave (km/s) = 3.39242 3.65497 3.52614
# Velocity P-wave (km/s) = 6.22731 6.63865 6.43626
#
# Compressibility (1/GPa) = 0.01910049
#
# Stress axis : x y z
#
# Youngs Moduli (GPa) = 54.61587 65.86500 46.40746
#
# Poissons Ratio (x) = 0.54015 0.42433
# Poissons Ratio (y) = 0.44789 0.02903
# Poissons Ratio (z) = 0.49938 0.04121
#
# Static dielectric constant tensor:
#      x y z
#    x 1.855810 0.000000 0.000000 
#    y 0.000000 1.852430 0.000000 
#    z 0.000000 0.000000 1.857290 
# 
# From -- ./inp_files/31205.got.cif
#   From: 2010.05.17/outbox.cif.g08.bks.cpg/sg20_16_cif.got.tgz:31205.got - 2010.06.03 22:52:26.
