data_PCOD9317238
_publ_section_title
;
Structure prediction by ZEFSAII (Michael W. Deem and Ramdas Pophale) SiO2 
 PCOD9317238
Probable space group: C 2 2 21
;
_chemical_formula_sum "Si O2"
_cell_formula_units_Z 24
_cell_length_a 5.418797
_cell_length_b 24.629045
_cell_length_c 7.674908
_cell_angle_alpha 90.000000
_cell_angle_beta 90.000000
_cell_angle_gamma 90.000000
_cell_volume 1024.291650
_symmetry_space_group_name_H-M "C 2 2 21"
_symmetry_group_IT_number 20
_symmetry_cell_setting 'orthorhombic'
loop_
_space_group_symop_operation_xyz
x,y,z
-x,-y,1/2+z
x,-y,-z
-x,y,1/2-z
1/2+x,1/2+y,z
1/2-x,1/2-y,1/2+z
1/2+x,1/2-y,-z
1/2-x,1/2+y,1/2-z
loop_
_atom_site_type_symbol
_atom_site_label
_atom_site_fract_x
_atom_site_fract_y
_atom_site_fract_z
Si Si1 0.136951 0.733723 0.419860
Si Si2 0.238270 0.392927 0.565982
Si Si3 0.237644 0.063132 0.461333
O O1 0.402467 0.761537 0.449590
O O2 0.202299 0.670447 0.397987
O O3 0.000000 0.756527 0.250000
O O4 0.250609 0.423554 0.753493
O O5 0.496835 0.405018 0.474620
O O6 0.998894 0.415737 0.469479
O O7 0.208189 0.000000 0.500000
#
# Coordination Sequence:
#
# PCOD9317238 Si02
#       3
#     8   8   8
#     4  12  25  44  76 104 141 195 241 292 365 424
#     4  10  21  39  64  93 131 176 222 289 351 404
#     4  10  19  35  67  92 122 174 227 268 351 414
#
# _framework density 23.430824000000001
#
# number of rings (size 3 to 8) (size 9 to 14) (size 15 to 20)
#    0.000    1.333    3.333    4.000    4.667    0.000 
#    0.000    0.000   73.333    0.000    0.000    0.000 
#    0.000    0.000    0.000    0.000    0.000    0.000 
#
# Total GULP energy -66995.082260 kJ/mol
# GULP energy per Si atom -5582.923522 kJ/mol
# Density = 2.337749 g / cm^3
# Si number density = 23.430824 Si / 1000 Ang^3
#
#
#
# Elastic Constant Matrix: (Units=GPa)
#
#
# Indices 1 2 3 4 5 6 
#
# 1 243.4599 32.8360 19.6277 0.0000 0.0000 0.0000
# 2 32.8360 93.0395 20.3968 0.0000 0.0000 0.0000
# 3 19.6277 20.3968 62.1046 0.0000 0.0000 0.0000
# 4 0.0000 0.0000 0.0000 41.7873 0.0000 0.0000
# 5 0.0000 0.0000 0.0000 0.0000 7.5830 0.0000
# 6 0.0000 0.0000 0.0000 0.0000 0.0000 59.1918
#
#
#
# Elastic Compliance Matrix: (Units=1/GPa)
#
#
# Indices 1 2 3 4 5 6 
#
# 1 0.004363 -0.001334 -0.000941 0.000000 0.000000 0.000000
# 2 -0.001334 0.011990 -0.003516 0.000000 0.000000 0.000000
# 3 -0.000941 -0.003516 0.017554 0.000000 0.000000 0.000000
# 4 0.000000 0.000000 0.000000 0.023931 0.000000 0.000000
# 5 0.000000 0.000000 0.000000 0.000000 0.131874 0.000000
# 6 0.000000 0.000000 0.000000 0.000000 0.000000 0.016894
#
#
# Mechanical properties :
#
#
# Convention : Reuss Voigt Hill
#
# Bulk Modulus (GPa) = 44.79224 60.48056 52.63640
# Shear Modulus (GPa) = 22.16023 43.42865 32.79444
#
# Velocity S-wave (km/s) = 3.07868 4.30988 3.74522
# Velocity P-wave (km/s) = 5.63879 7.11584 6.41994
#
# Compressibility (1/GPa) = 0.02232530
#
# Stress axis : x y z
#
# Youngs Moduli (GPa) = 229.19074 83.40538 56.96684
#
# Poissons Ratio (x) = 0.11123 0.05360
# Poissons Ratio (y) = 0.30565 0.20031
# Poissons Ratio (z) = 0.21566 0.29327
#
# Static dielectric constant tensor:
#      x y z
#    x 2.073960 0.000000 0.000000 
#    y 0.000000 1.811360 0.000000 
#    z 0.000000 0.000000 1.865560 
# 
# From -- ./inp_files/4972.got.cif
#   From: 2010.05.17/outbox.cif.g08.bks.cpg/sg20_3_cif.got.tgz:4972.got - 2010.06.03 22:52:26.
