data_PCOD9317087
_publ_section_title
;
Structure prediction by ZEFSAII (Michael W. Deem and Ramdas Pophale) SiO2 
 PCOD9317087
Probable space group: C 2 2 21
;
_chemical_formula_sum "Si O2"
_cell_formula_units_Z 48
_cell_length_a 16.359052
_cell_length_b 14.049141
_cell_length_c 9.214163
_cell_angle_alpha 90.000000
_cell_angle_beta 90.000000
_cell_angle_gamma 90.000000
_cell_volume 2117.696870
_symmetry_space_group_name_H-M "C 2 2 21"
_symmetry_group_IT_number 20
_symmetry_cell_setting 'orthorhombic'
loop_
_space_group_symop_operation_xyz
x,y,z
-x,-y,1/2+z
x,-y,-z
-x,y,1/2-z
1/2+x,1/2+y,z
1/2-x,1/2-y,1/2+z
1/2+x,1/2-y,-z
1/2-x,1/2+y,1/2-z
loop_
_atom_site_type_symbol
_atom_site_label
_atom_site_fract_x
_atom_site_fract_y
_atom_site_fract_z
Si Si1 0.500000 0.494565 0.750000
Si Si2 0.000000 0.634679 0.250000
Si Si3 0.169244 0.757413 0.849200
Si Si4 0.142495 0.909181 0.068610
Si Si5 0.419859 0.676406 0.084661
Si Si6 0.346493 0.272207 0.193453
Si Si7 0.972558 0.369385 0.412060
O O1 0.437978 0.554338 0.651067
O O2 0.549462 0.421580 0.648862
O O3 0.083904 0.697651 0.257337
O O4 0.991241 0.592875 0.420343
O O5 0.153187 0.784238 0.683713
O O6 0.264976 0.768847 0.877630
O O7 0.123408 0.659560 0.893443
O O8 0.123116 0.839911 0.937299
O O9 0.186507 0.840808 0.181152
O O10 0.186594 0.000000 0.000000
O O11 0.480330 0.767398 0.087276
O O12 0.391358 0.662416 0.922499
O O13 0.000000 0.411607 0.250000
#
# Coordination Sequence:
#
# PCOD9317087 Si02
#       7
#     4   4   8   8   8   8   8
#     4  12  23  36  60  88 132 167 206 252 329 426
#     4  10  19  34  56  84 114 167 218 260 319 388
#     4  11  20  39  53  83 124 175 211 269 308 382
#     4  12  24  36  58  88 125 170 211 255 321 397
#     4  10  20  35  53  84 123 169 203 249 315 390
#     4  11  24  35  58  82 126 170 223 258 319 387
#     4   9  17  32  53  76 117 163 207 254 311 381
#
# _framework density 22.666135000000001
#
# number of rings (size 3 to 8) (size 9 to 14) (size 15 to 20)
#    0.000    1.333    5.833    1.500    7.000    0.000 
#    0.000    0.000    0.000    0.000    0.000    0.000 
#   17.500    0.000    0.000    0.000    0.000    0.000 
#
# Total GULP energy -133640.992586 kJ/mol
# GULP energy per Si atom -5568.374691 kJ/mol
# Density = 2.261455 g / cm^3
# Si number density = 22.666135 Si / 1000 Ang^3
#
#
#
# Elastic Constant Matrix: (Units=GPa)
#
#
# Indices 1 2 3 4 5 6 
#
# 1 90.7472 12.2038 24.1396 0.0000 0.0000 0.0000
# 2 12.2038 22.3992 42.4515 0.0000 0.0000 0.0000
# 3 24.1396 42.4515 172.4954 0.0000 0.0000 0.0000
# 4 0.0000 0.0000 0.0000 51.7759 0.0000 0.0000
# 5 0.0000 0.0000 0.0000 0.0000 19.0625 0.0000
# 6 0.0000 0.0000 0.0000 0.0000 0.0000 15.0273
#
#
#
# Elastic Compliance Matrix: (Units=1/GPa)
#
#
# Indices 1 2 3 4 5 6 
#
# 1 0.011892 -0.006232 -0.000131 0.000000 0.000000 0.000000
# 2 -0.006232 0.086935 -0.020523 0.000000 0.000000 0.000000
# 3 -0.000131 -0.020523 0.010866 0.000000 0.000000 0.000000
# 4 0.000000 0.000000 0.000000 0.019314 0.000000 0.000000
# 5 0.000000 0.000000 0.000000 0.000000 0.052459 0.000000
# 6 0.000000 0.000000 0.000000 0.000000 0.000000 0.066545
#
#
# Mechanical properties :
#
#
# Convention : Reuss Voigt Hill
#
# Bulk Modulus (GPa) = 17.88169 49.24795 33.56482
# Shear Modulus (GPa) = 15.60435 30.96295 23.28365
#
# Velocity S-wave (km/s) = 2.62667 3.70001 3.20854
# Velocity P-wave (km/s) = 4.13588 6.32678 5.34479
#
# Compressibility (1/GPa) = 0.05592312
#
# Stress axis : x y z
#
# Youngs Moduli (GPa) = 84.08706 11.50286 92.02831
#
# Poissons Ratio (x) = 0.07168 0.01202
# Poissons Ratio (y) = 0.52402 1.88867
# Poissons Ratio (z) = 0.01098 0.23607
#
# Static dielectric constant tensor:
#      x y z
#    x 1.837780 0.000000 0.000000 
#    y 0.000000 1.909920 0.000000 
#    z 0.000000 0.000000 2.031410 
# 
# From -- ./inp_files/8474.got.cif
#   From: 2010.05.17/outbox.cif.g08.bks.cpg/sg20_5_cif.got.tgz:8474.got - 2010.06.03 22:52:26.
