data_PCOD9317148
_publ_section_title
;
Structure prediction by ZEFSAII (Michael W. Deem and Ramdas Pophale) SiO2 
 PCOD9317148
Probable space group: C 2 2 21
;
_chemical_formula_sum "Si O2"
_cell_formula_units_Z 44
_cell_length_a 15.052776
_cell_length_b 9.399984
_cell_length_c 11.958102
_cell_angle_alpha 90.000000
_cell_angle_beta 90.000000
_cell_angle_gamma 90.000000
_cell_volume 1692.021849
_symmetry_space_group_name_H-M "C 2 2 21"
_symmetry_group_IT_number 20
_symmetry_cell_setting 'orthorhombic'
loop_
_space_group_symop_operation_xyz
x,y,z
-x,-y,1/2+z
x,-y,-z
-x,y,1/2-z
1/2+x,1/2+y,z
1/2-x,1/2-y,1/2+z
1/2+x,1/2-y,-z
1/2-x,1/2+y,1/2-z
loop_
_atom_site_type_symbol
_atom_site_label
_atom_site_fract_x
_atom_site_fract_y
_atom_site_fract_z
Si Si1 0.190651 0.213301 0.498843
Si Si2 0.048243 0.428088 0.396083
Si Si3 0.000000 0.191482 0.250000
Si Si4 0.689562 0.557850 0.278679
Si Si5 0.125154 0.699567 0.273519
Si Si6 0.356507 0.370049 0.422468
O O1 0.133841 0.342048 0.441960
O O2 0.192379 0.082939 0.412633
O O3 0.140298 0.198344 0.618253
O O4 0.290910 0.276856 0.500523
O O5 0.001475 0.500000 0.500000
O O6 0.079704 0.552671 0.313252
O O7 0.988329 0.302795 0.349920
O O8 0.911569 0.103784 0.242916
O O9 0.773661 0.656310 0.251638
O O10 0.699281 0.440170 0.180840
O O11 0.084287 0.768542 0.159683
O O12 0.392809 0.500000 0.500000
#
# Coordination Sequence:
#
# PCOD9317148 Si02
#       6
#     8   8   4   8   8   8
#     4   9  17  34  61  85 116 157 211 255 295 364
#     4   9  17  37  60  85 117 164 208 254 300 373
#     4  10  22  38  58  84 130 160 196 254 326 372
#     4  10  20  35  59  87 121 163 203 251 317 371
#     4  10  19  34  63  88 115 166 215 249 307 365
#     4  11  19  34  57  89 124 156 200 265 307 357
#
# _framework density 26.004393
#
# number of rings (size 3 to 8) (size 9 to 14) (size 15 to 20)
#    0.000    2.182    3.636    0.545    0.000    0.727 
#    3.273    0.909    8.000    0.000    0.000    0.000 
#    0.000    0.000    0.000    0.000    0.000    0.000 
#
# Total GULP energy -122550.578760 kJ/mol
# GULP energy per Si atom -5570.480853 kJ/mol
# Density = 2.594521 g / cm^3
# Si number density = 26.004393 Si / 1000 Ang^3
#
#
#
# Elastic Constant Matrix: (Units=GPa)
#
#
# Indices 1 2 3 4 5 6 
#
# 1 65.4713 14.1682 29.0130 0.0000 0.0000 0.0000
# 2 14.1682 57.7244 32.9136 0.0000 0.0000 0.0000
# 3 29.0130 32.9136 148.5198 0.0000 0.0000 0.0000
# 4 0.0000 0.0000 0.0000 60.1078 0.0000 0.0000
# 5 0.0000 0.0000 0.0000 0.0000 20.8939 0.0000
# 6 0.0000 0.0000 0.0000 0.0000 0.0000 -19.5289
#
#
#
# Elastic Compliance Matrix: (Units=1/GPa)
#
#
# Indices 1 2 3 4 5 6 
#
# 1 0.017060 -0.002618 -0.002753 0.000000 0.000000 0.000000
# 2 -0.002618 0.020231 -0.003972 0.000000 0.000000 0.000000
# 3 -0.002753 -0.003972 0.008151 0.000000 0.000000 0.000000
# 4 0.000000 0.000000 0.000000 0.016637 0.000000 0.000000
# 5 0.000000 0.000000 0.000000 0.000000 0.047861 0.000000
# 6 0.000000 0.000000 0.000000 0.000000 0.000000 -0.051206
#
#
# Mechanical properties :
#
#
# Convention : Reuss Voigt Hill
#
# Bulk Modulus (GPa) = 37.37287 47.10057 42.23672
# Shear Modulus (GPa) = 57.91218 25.33593 41.62405
#
# Velocity S-wave (km/s) = 4.72425 3.12475 4.00516
# Velocity P-wave (km/s) = 6.64537 5.58307 6.13725
#
# Compressibility (1/GPa) = 0.02675738
#
# Stress axis : x y z
#
# Youngs Moduli (GPa) = 58.61622 49.42902 122.68358
#
# Poissons Ratio (x) = 0.12940 0.33769
# Poissons Ratio (y) = 0.15345 0.48730
# Poissons Ratio (z) = 0.16134 0.19633
#
# Static dielectric constant tensor:
#      x y z
#    x 1.950470 0.000000 0.000000 
#    y 0.000000 2.191290 0.000000 
#    z 0.000000 0.000000 2.212860 
# 
# From -- ./inp_files/15654.got.cif
#   From: 2010.05.17/outbox.cif.g08.bks.cpg/sg20_8_cif.got.tgz:15654.got - 2010.06.03 22:52:26.
