data_PCOD9317815
_publ_section_title
;
Structure prediction by ZEFSAII (Michael W. Deem and Ramdas Pophale) SiO2 
 PCOD9317815
Probable space group: C 2 2 21
;
_chemical_formula_sum "Si O2"
_cell_formula_units_Z 52
_cell_length_a 18.651220
_cell_length_b 15.446552
_cell_length_c 9.166183
_cell_angle_alpha 90.000000
_cell_angle_beta 90.000000
_cell_angle_gamma 90.000000
_cell_volume 2640.750187
_symmetry_space_group_name_H-M "C 2 2 21"
_symmetry_group_IT_number 20
_symmetry_cell_setting 'orthorhombic'
loop_
_space_group_symop_operation_xyz
x,y,z
-x,-y,1/2+z
x,-y,-z
-x,y,1/2-z
1/2+x,1/2+y,z
1/2-x,1/2-y,1/2+z
1/2+x,1/2-y,-z
1/2-x,1/2+y,1/2-z
loop_
_atom_site_type_symbol
_atom_site_label
_atom_site_fract_x
_atom_site_fract_y
_atom_site_fract_z
Si Si1 0.432808 0.000000 0.000000
Si Si2 0.381123 0.250388 0.662013
Si Si3 0.000000 0.119008 0.250000
Si Si4 0.046587 0.000000 0.000000
Si Si5 0.110579 0.274689 0.668514
Si Si6 0.028386 0.339370 0.936870
Si Si7 0.159746 0.134331 0.885875
Si Si8 0.679481 0.129094 0.599035
O O1 0.484763 0.072173 0.066344
O O2 0.379317 0.947376 0.106608
O O3 0.430257 0.320577 0.742825
O O4 0.433928 0.179966 0.588628
O O5 0.345606 0.300256 0.525198
O O6 0.331722 0.200389 0.775225
O O7 0.998725 0.058848 0.391735
O O8 0.099055 0.062731 0.908437
O O9 0.086591 0.331577 0.809137
O O10 0.143301 0.189110 0.739907
O O11 0.161769 0.323702 0.555355
O O12 0.032991 0.265670 0.588724
O O13 0.239577 0.096781 0.889341
#
# Coordination Sequence:
#
# PCOD9317815 Si02
#       8
#     4   8   4   4   8   8   8   8
#     4  10  21  32  54  80 113 136 170 220 262 316
#     4  10  21  36  57  78 107 138 176 223 257 311
#     4  10  20  36  54  80 104 132 178 224 274 304
#     4  10  23  36  56  78 105 138 170 228 272 306
#     4   9  19  33  55  75 102 139 176 214 253 310
#     4   9  19  35  52  82 108 137 173 216 272 303
#     4  10  21  39  53  76 109 141 178 212 260 322
#     4  11  21  34  55  81 106 145 176 209 258 313
#
# _framework density 19.691374
#
# number of rings (size 3 to 8) (size 9 to 14) (size 15 to 20)
#    0.000    2.154    0.000    3.231    0.000   11.077 
#    0.000    0.000    0.000    0.000    0.000   21.538 
#    0.000    0.000    0.000    0.000    0.000    0.000 
#
# Total GULP energy -145051.693152 kJ/mol
# GULP energy per Si atom -5578.911275 kJ/mol
# Density = 1.964656 g / cm^3
# Si number density = 19.691374 Si / 1000 Ang^3
#
#
#
# Elastic Constant Matrix: (Units=GPa)
#
#
# Indices 1 2 3 4 5 6 
#
# 1 50.2600 7.6998 21.8253 0.0000 0.0000 0.0000
# 2 7.6998 64.0929 21.4043 0.0000 0.0000 0.0000
# 3 21.8253 21.4043 66.5143 0.0000 0.0000 0.0000
# 4 0.0000 0.0000 0.0000 18.7465 0.0000 0.0000
# 5 0.0000 0.0000 0.0000 0.0000 15.2779 0.0000
# 6 0.0000 0.0000 0.0000 0.0000 0.0000 11.9001
#
#
#
# Elastic Compliance Matrix: (Units=1/GPa)
#
#
# Indices 1 2 3 4 5 6 
#
# 1 0.023207 -0.000274 -0.007527 0.000000 0.000000 0.000000
# 2 -0.000274 0.017484 -0.005536 0.000000 0.000000 0.000000
# 3 -0.007527 -0.005536 0.019286 0.000000 0.000000 0.000000
# 4 0.000000 0.000000 0.000000 0.053343 0.000000 0.000000
# 5 0.000000 0.000000 0.000000 0.000000 0.065454 0.000000
# 6 0.000000 0.000000 0.000000 0.000000 0.000000 0.084033
#
#
# Mechanical properties :
#
#
# Convention : Reuss Voigt Hill
#
# Bulk Modulus (GPa) = 30.02812 31.41400 30.72106
# Shear Modulus (GPa) = 16.63436 17.84742 17.24089
#
# Velocity S-wave (km/s) = 2.90962 3.01384 2.96219
# Velocity P-wave (km/s) = 5.15464 5.30083 5.22825
#
# Compressibility (1/GPa) = 0.03330212
#
# Stress axis : x y z
#
# Youngs Moduli (GPa) = 43.09043 57.19442 51.85203
#
# Poissons Ratio (x) = 0.01570 0.39027
# Poissons Ratio (y) = 0.01182 0.28707
# Poissons Ratio (z) = 0.32432 0.31665
#
# Static dielectric constant tensor:
#      x y z
#    x 1.692960 0.000000 0.000000 
#    y 0.000000 1.709660 0.000000 
#    z 0.000000 0.000000 1.711350 
# 
# From -- ./inp_files/10167.got.cif
#   From: 2010.05.17/outbox.cif.g08.bks.cpg/sg20_6_cif.got.tgz:10167.got - 2010.06.03 22:52:26.
