data_PCOD9317978
_publ_section_title
;
Structure prediction by ZEFSAII (Michael W. Deem and Ramdas Pophale) SiO2 
 PCOD9317978
Probable space group: C 2 2 21
;
_chemical_formula_sum "Si O2"
_cell_formula_units_Z 52
_cell_length_a 23.547414
_cell_length_b 14.509500
_cell_length_c 8.334178
_cell_angle_alpha 90.000000
_cell_angle_beta 90.000000
_cell_angle_gamma 90.000000
_cell_volume 2847.465285
_symmetry_space_group_name_H-M "C 2 2 21"
_symmetry_group_IT_number 20
_symmetry_cell_setting 'orthorhombic'
loop_
_space_group_symop_operation_xyz
x,y,z
-x,-y,1/2+z
x,-y,-z
-x,y,1/2-z
1/2+x,1/2+y,z
1/2-x,1/2-y,1/2+z
1/2+x,1/2-y,-z
1/2-x,1/2+y,1/2-z
loop_
_atom_site_type_symbol
_atom_site_label
_atom_site_fract_x
_atom_site_fract_y
_atom_site_fract_z
Si Si1 0.618560 0.848758 0.388540
Si Si2 0.693724 0.000000 0.500000
Si Si3 0.284784 0.277197 0.863681
Si Si4 0.730947 0.487938 0.686952
Si Si5 0.435430 0.216177 0.194717
Si Si6 0.436165 0.011836 0.312150
Si Si7 0.678302 0.322623 0.275676
O O1 0.657405 0.907456 0.510716
O O2 0.661435 0.780360 0.298349
O O3 0.571936 0.798881 0.501061
O O4 0.595836 0.928848 0.274884
O O5 0.726677 0.008589 0.667280
O O6 0.283762 0.380497 0.795507
O O7 0.225517 0.223208 0.840599
O O8 0.299538 0.288631 0.050822
O O9 0.751180 0.500000 0.500000
O O10 0.683171 0.566353 0.714816
O O11 0.500000 0.239029 0.250000
O O12 0.385689 0.286581 0.246015
O O13 0.420847 0.116718 0.270672
O O14 0.500000 0.002751 0.250000
O O15 0.432329 0.000000 0.500000
#
# Coordination Sequence:
#
# PCOD9317978 Si02
#       7
#     8   4   8   8   8   8   8
#     4  11  21  37  56  84 118 155 187 240 306 346
#     4  12  20  38  58  84 126 154 182 248 290 360
#     4  10  21  35  56  84 117 149 190 239 296 359
#     4  10  22  38  57  85 121 154 195 234 296 358
#     4  10  20  37  58  80 111 154 198 237 294 357
#     4  11  22  36  55  80 113 151 194 243 289 357
#     4  10  21  36  55  85 115 150 193 241 295 359
#
# _framework density 18.261856000000002
#
# number of rings (size 3 to 8) (size 9 to 14) (size 15 to 20)
#    0.000    1.538    3.077    3.692    0.000    1.846 
#    0.000    0.000    0.000    0.923    6.000    0.000 
#    0.000    0.000    0.000    0.000    0.000    0.000 
#
# Total GULP energy -144856.942544 kJ/mol
# GULP energy per Si atom -5571.420867 kJ/mol
# Density = 1.822029 g / cm^3
# Si number density = 18.261856 Si / 1000 Ang^3
#
#
#
# Elastic Constant Matrix: (Units=GPa)
#
#
# Indices 1 2 3 4 5 6 
#
# 1 105.9292 45.1940 54.7495 0.0000 0.0000 0.0000
# 2 45.1940 99.4501 17.2824 0.0000 0.0000 0.0000
# 3 54.7495 17.2824 60.6581 0.0000 0.0000 0.0000
# 4 0.0000 0.0000 0.0000 14.3451 0.0000 0.0000
# 5 0.0000 0.0000 0.0000 0.0000 17.6190 0.0000
# 6 0.0000 0.0000 0.0000 0.0000 0.0000 33.6033
#
#
#
# Elastic Compliance Matrix: (Units=1/GPa)
#
#
# Indices 1 2 3 4 5 6 
#
# 1 0.021165 -0.006627 -0.017216 0.000000 0.000000 0.000000
# 2 -0.006627 0.012654 0.002376 0.000000 0.000000 0.000000
# 3 -0.017216 0.002376 0.031348 0.000000 0.000000 0.000000
# 4 0.000000 0.000000 0.000000 0.069710 0.000000 0.000000
# 5 0.000000 0.000000 0.000000 0.000000 0.056757 0.000000
# 6 0.000000 0.000000 0.000000 0.000000 0.000000 0.029759
#
#
# Mechanical properties :
#
#
# Convention : Reuss Voigt Hill
#
# Bulk Modulus (GPa) = 44.97611 55.60989 50.29300
# Shear Modulus (GPa) = 18.40011 23.03425 20.71718
#
# Velocity S-wave (km/s) = 3.17767 3.55538 3.37181
# Velocity P-wave (km/s) = 6.17619 6.88271 6.53900
#
# Compressibility (1/GPa) = 0.02223403
#
# Stress axis : x y z
#
# Youngs Moduli (GPa) = 47.24676 79.02744 31.90023
#
# Poissons Ratio (x) = 0.52369 0.54919
# Poissons Ratio (y) = 0.31309 -0.07579
# Poissons Ratio (z) = 0.81339 -0.18776
#
# Static dielectric constant tensor:
#      x y z
#    x 1.670840 0.000000 0.000000 
#    y 0.000000 1.686850 0.000000 
#    z 0.000000 0.000000 1.692930 
# 
# From -- ./inp_files/10131.got.cif
#   From: 2010.05.17/outbox.cif.g08.bks.cpg/sg20_6_cif.got.tgz:10131.got - 2010.06.03 22:52:26.
