data_PCOD9317430
_publ_section_title
;
Structure prediction by ZEFSAII (Michael W. Deem and Ramdas Pophale) SiO2 
 PCOD9317430
Probable space group: C 2 2 21
;
_chemical_formula_sum "Si O2"
_cell_formula_units_Z 48
_cell_length_a 21.036254
_cell_length_b 16.987716
_cell_length_c 7.162104
_cell_angle_alpha 90.000000
_cell_angle_beta 90.000000
_cell_angle_gamma 90.000000
_cell_volume 2559.434507
_symmetry_space_group_name_H-M "C 2 2 21"
_symmetry_group_IT_number 20
_symmetry_cell_setting 'orthorhombic'
loop_
_space_group_symop_operation_xyz
x,y,z
-x,-y,1/2+z
x,-y,-z
-x,y,1/2-z
1/2+x,1/2+y,z
1/2-x,1/2-y,1/2+z
1/2+x,1/2-y,-z
1/2-x,1/2+y,1/2-z
loop_
_atom_site_type_symbol
_atom_site_label
_atom_site_fract_x
_atom_site_fract_y
_atom_site_fract_z
Si Si1 0.674794 0.942345 0.227732
Si Si2 0.928424 0.332671 0.187647
Si Si3 0.693474 0.586215 0.519689
Si Si4 0.689026 0.724374 0.791862
Si Si5 0.825858 0.788756 0.725211
Si Si6 0.146744 0.390771 0.625113
O O1 0.614144 0.888631 0.177452
O O2 0.735603 0.928466 0.100393
O O3 0.689344 0.913538 0.441934
O O4 0.652697 0.967159 0.753994
O O5 0.889020 0.251298 0.191584
O O6 0.000000 0.324897 0.250000
O O7 0.919397 0.374062 0.984932
O O8 0.663331 0.500000 0.500000
O O9 0.667096 0.652635 0.660666
O O10 0.690510 0.628386 0.319843
O O11 0.734617 0.765780 0.276009
O O12 0.665080 0.809425 0.721494
O O13 0.670040 0.708901 0.003499
#
# Coordination Sequence:
#
# PCOD9317430 Si02
#       6
#     8   8   8   8   8   8
#     4   9  18  36  57  86 127 168 204 252 306 377
#     4  10  19  38  61  86 125 171 212 253 289 362
#     4  12  23  36  60  92 121 155 198 259 323 377
#     4  12  20  38  59  86 126 153 199 259 325 380
#     4  12  22  36  59  89 118 162 201 253 321 380
#     4   9  19  37  61  85 125 170 206 253 314 376
#
# _framework density 18.754141000000001
#
# number of rings (size 3 to 8) (size 9 to 14) (size 15 to 20)
#    1.000    0.333    5.000    2.000    0.000    2.000 
#    0.000    5.833    0.000    0.000    4.333    0.000 
#    0.000    0.000    0.000    0.000    0.000    0.000 
#
# Total GULP energy -133733.449541 kJ/mol
# GULP energy per Si atom -5572.227064 kJ/mol
# Density = 1.871146 g / cm^3
# Si number density = 18.754141 Si / 1000 Ang^3
#
#
#
# Elastic Constant Matrix: (Units=GPa)
#
#
# Indices 1 2 3 4 5 6 
#
# 1 68.2593 20.6063 19.2169 0.0000 0.0000 0.0000
# 2 20.6063 164.0127 57.1614 0.0000 0.0000 0.0000
# 3 19.2169 57.1614 97.5772 0.0000 0.0000 0.0000
# 4 0.0000 0.0000 0.0000 37.3114 0.0000 0.0000
# 5 0.0000 0.0000 0.0000 0.0000 17.3953 0.0000
# 6 0.0000 0.0000 0.0000 0.0000 0.0000 11.1925
#
#
#
# Elastic Compliance Matrix: (Units=1/GPa)
#
#
# Indices 1 2 3 4 5 6 
#
# 1 0.015673 -0.001123 -0.002429 0.000000 0.000000 0.000000
# 2 -0.001123 0.007742 -0.004314 0.000000 0.000000 0.000000
# 3 -0.002429 -0.004314 0.013254 0.000000 0.000000 0.000000
# 4 0.000000 0.000000 0.000000 0.026801 0.000000 0.000000
# 5 0.000000 0.000000 0.000000 0.000000 0.057487 0.000000
# 6 0.000000 0.000000 0.000000 0.000000 0.000000 0.089346
#
#
# Mechanical properties :
#
#
# Convention : Reuss Voigt Hill
#
# Bulk Modulus (GPa) = 47.76218 58.20205 52.98211
# Shear Modulus (GPa) = 21.45812 28.70416 25.08114
#
# Velocity S-wave (km/s) = 3.38624 3.91647 3.66097
# Velocity P-wave (km/s) = 6.38840 7.18006 6.79577
#
# Compressibility (1/GPa) = 0.02093707
#
# Stress axis : x y z
#
# Youngs Moduli (GPa) = 63.80507 129.17152 75.44980
#
# Poissons Ratio (x) = 0.14500 0.18327
# Poissons Ratio (y) = 0.07162 0.32549
# Poissons Ratio (z) = 0.15498 0.55725
#
# Static dielectric constant tensor:
#      x y z
#    x 1.626540 0.000000 0.000000 
#    y 0.000000 1.713660 0.000000 
#    z 0.000000 0.000000 1.754020 
# 
# From -- ./inp_files/4251.got.cif
#   From: 2010.05.17/outbox.cif.g08.bks.cpg/sg20_3_cif.got.tgz:4251.got - 2010.06.03 22:52:26.
