data_PCOD9317136
_publ_section_title
;
Structure prediction by ZEFSAII (Michael W. Deem and Ramdas Pophale) SiO2 
 PCOD9317136
Probable space group: C 2 2 21
;
_chemical_formula_sum "Si O2"
_cell_formula_units_Z 56
_cell_length_a 12.399071
_cell_length_b 20.800360
_cell_length_c 10.259988
_cell_angle_alpha 90.000000
_cell_angle_beta 90.000000
_cell_angle_gamma 90.000000
_cell_volume 2646.103646
_symmetry_space_group_name_H-M "C 2 2 21"
_symmetry_group_IT_number 20
_symmetry_cell_setting 'orthorhombic'
loop_
_space_group_symop_operation_xyz
x,y,z
-x,-y,1/2+z
x,-y,-z
-x,y,1/2-z
1/2+x,1/2+y,z
1/2-x,1/2-y,1/2+z
1/2+x,1/2-y,-z
1/2-x,1/2+y,1/2-z
loop_
_atom_site_type_symbol
_atom_site_label
_atom_site_fract_x
_atom_site_fract_y
_atom_site_fract_z
Si Si1 0.366998 0.616963 0.975214
Si Si2 0.652384 0.088856 0.841431
Si Si3 0.252348 0.637258 0.396931
Si Si4 0.213723 0.976797 0.696731
Si Si5 0.907499 0.062621 0.591664
Si Si6 0.929830 0.355001 0.089358
Si Si7 0.612771 0.714362 0.299363
O O1 0.347264 0.559143 0.079825
O O2 0.364557 0.679423 0.065393
O O3 0.263664 0.622324 0.882537
O O4 0.479992 0.601589 0.905852
O O5 0.623482 0.094773 0.689390
O O6 0.553539 0.121970 0.917736
O O7 0.682647 0.014337 0.857589
O O8 0.252343 0.578363 0.296380
O O9 0.326441 0.611926 0.517271
O O10 0.134846 0.648960 0.455866
O O11 0.302845 0.696421 0.314425
O O12 0.141447 0.028199 0.778778
O O13 0.922525 0.000000 0.500000
O O14 0.908704 0.288099 0.165216
O O15 0.500000 0.684877 0.250000
#
# Coordination Sequence:
#
# PCOD9317136 Si02
#       7
#     8   8   8   8   8   8   8
#     4  11  24  40  64 101 129 174 218 269 340 394
#     4  11  23  42  62  93 134 175 213 270 322 393
#     4  10  22  42  67  95 125 174 213 271 335 390
#     4  10  22  42  62 101 133 171 215 269 343 399
#     4  10  19  34  61  93 130 159 203 269 324 393
#     4  11  25  44  64  94 130 176 229 265 323 397
#     4  11  22  42  70  92 128 171 218 276 332 389
#
# _framework density 21.163191999999999
#
# number of rings (size 3 to 8) (size 9 to 14) (size 15 to 20)
#    0.000    1.429    4.286    1.286    2.000    2.857 
#   10.286    2.143    0.000    1.714    0.000    0.000 
#    0.000    0.000    0.000    0.000    0.000    0.000 
#
# Total GULP energy -156161.811630 kJ/mol
# GULP energy per Si atom -5577.207558 kJ/mol
# Density = 2.111502 g / cm^3
# Si number density = 21.163192 Si / 1000 Ang^3
#
#
#
# Elastic Constant Matrix: (Units=GPa)
#
#
# Indices 1 2 3 4 5 6 
#
# 1 129.4045 27.6573 24.2928 0.0000 0.0000 0.0000
# 2 27.6573 68.8434 12.5029 0.0000 0.0000 0.0000
# 3 24.2928 12.5029 39.4265 0.0000 0.0000 0.0000
# 4 0.0000 0.0000 0.0000 28.7921 0.0000 0.0000
# 5 0.0000 0.0000 0.0000 0.0000 35.7818 0.0000
# 6 0.0000 0.0000 0.0000 0.0000 0.0000 24.2950
#
#
#
# Elastic Compliance Matrix: (Units=1/GPa)
#
#
# Indices 1 2 3 4 5 6 
#
# 1 0.009234 -0.002840 -0.004789 0.000000 0.000000 0.000000
# 2 -0.002840 0.016287 -0.003415 0.000000 0.000000 0.000000
# 3 -0.004789 -0.003415 0.029397 0.000000 0.000000 0.000000
# 4 0.000000 0.000000 0.000000 0.034732 0.000000 0.000000
# 5 0.000000 0.000000 0.000000 0.000000 0.027947 0.000000
# 6 0.000000 0.000000 0.000000 0.000000 0.000000 0.041161
#
#
# Mechanical properties :
#
#
# Convention : Reuss Voigt Hill
#
# Bulk Modulus (GPa) = 30.45961 40.73113 35.59537
# Shear Modulus (GPa) = 26.07041 29.32187 27.69614
#
# Velocity S-wave (km/s) = 3.51362 3.72629 3.62151
# Velocity P-wave (km/s) = 5.55739 6.14830 5.86030
#
# Compressibility (1/GPa) = 0.03283037
#
# Stress axis : x y z
#
# Youngs Moduli (GPa) = 108.29959 61.39929 34.01676
#
# Poissons Ratio (x) = 0.17436 0.16290
# Poissons Ratio (y) = 0.30755 0.11617
# Poissons Ratio (z) = 0.51862 0.20968
#
# Static dielectric constant tensor:
#      x y z
#    x 1.788660 0.000000 0.000000 
#    y 0.000000 1.793430 0.000000 
#    z 0.000000 0.000000 1.818900 
# 
# From -- ./inp_files/14316.got.cif
#   From: 2010.05.17/outbox.cif.g08.bks.cpg/sg20_8_cif.got.tgz:14316.got - 2010.06.03 22:52:26.
