data_PCOD9317125
_publ_section_title
;
Structure prediction by ZEFSAII (Michael W. Deem and Ramdas Pophale) SiO2 
 PCOD9317125
Probable space group: C 2 2 21
;
_chemical_formula_sum "Si O2"
_cell_formula_units_Z 40
_cell_length_a 13.315544
_cell_length_b 8.041664
_cell_length_c 15.400784
_cell_angle_alpha 90.000000
_cell_angle_beta 90.000000
_cell_angle_gamma 90.000000
_cell_volume 1649.102565
_symmetry_space_group_name_H-M "C 2 2 21"
_symmetry_group_IT_number 20
_symmetry_cell_setting 'orthorhombic'
loop_
_space_group_symop_operation_xyz
x,y,z
-x,-y,1/2+z
x,-y,-z
-x,y,1/2-z
1/2+x,1/2+y,z
1/2-x,1/2-y,1/2+z
1/2+x,1/2-y,-z
1/2-x,1/2+y,1/2-z
loop_
_atom_site_type_symbol
_atom_site_label
_atom_site_fract_x
_atom_site_fract_y
_atom_site_fract_z
Si Si1 0.218003 0.584201 0.823268
Si Si2 0.447696 0.125713 0.419432
Si Si3 0.699598 0.685292 0.018505
Si Si4 0.582940 0.917732 0.324120
Si Si5 0.627608 0.394217 0.574879
O O1 0.136633 0.445442 0.853857
O O2 0.191019 0.601249 0.722057
O O3 0.326069 0.510712 0.849518
O O4 0.194765 0.747851 0.882150
O O5 0.401730 0.289511 0.461813
O O6 0.447463 0.000000 0.500000
O O7 0.553729 0.091238 0.371564
O O8 0.778249 0.813314 0.976179
O O9 0.735942 0.500000 0.000000
O O10 0.500000 0.892456 0.250000
O O11 0.569916 0.762764 0.388025
O O12 0.575985 0.500000 0.500000
#
# Coordination Sequence:
#
# PCOD9317125 Si02
#       5
#     8   8   8   8   8
#     4   8  17  34  56  81 113 147 189 242 286 336
#     4   8  16  33  54  76 108 148 182 223 284 342
#     4   9  17  33  60  88 112 150 196 238 288 348
#     4  10  19  34  59  85 116 155 189 239 299 343
#     4   9  19  36  57  84 116 152 197 240 285 351
#
# _framework density 24.255616
#
# number of rings (size 3 to 8) (size 9 to 14) (size 15 to 20)
#    0.000    3.200    0.000    2.400    0.000    2.400 
#    0.000   11.000    0.000   42.000    0.000    0.000 
#    0.000    0.000    0.000    0.000    0.000    0.000 
#
# Total GULP energy -111524.193964 kJ/mol
# GULP energy per Si atom -5576.209698 kJ/mol
# Density = 2.420041 g / cm^3
# Si number density = 24.255616 Si / 1000 Ang^3
#
#
#
# Elastic Constant Matrix: (Units=GPa)
#
#
# Indices 1 2 3 4 5 6 
#
# 1 48.4012 18.7468 13.1522 0.0000 0.0000 0.0000
# 2 18.7468 81.1040 -1.9904 0.0000 0.0000 0.0000
# 3 13.1522 -1.9904 37.2046 0.0000 0.0000 0.0000
# 4 0.0000 0.0000 0.0000 28.7141 0.0000 0.0000
# 5 0.0000 0.0000 0.0000 0.0000 15.5686 0.0000
# 6 0.0000 0.0000 0.0000 0.0000 0.0000 30.6982
#
#
#
# Elastic Compliance Matrix: (Units=1/GPa)
#
#
# Indices 1 2 3 4 5 6 
#
# 1 0.025588 -0.006145 -0.009374 0.000000 0.000000 0.000000
# 2 -0.006145 0.013822 0.002912 0.000000 0.000000 0.000000
# 3 -0.009374 0.002912 0.030348 0.000000 0.000000 0.000000
# 4 0.000000 0.000000 0.000000 0.034826 0.000000 0.000000
# 5 0.000000 0.000000 0.000000 0.000000 0.064232 0.000000
# 6 0.000000 0.000000 0.000000 0.000000 0.000000 0.032575
#
#
# Mechanical properties :
#
#
# Convention : Reuss Voigt Hill
#
# Bulk Modulus (GPa) = 22.45021 25.16966 23.80994
# Shear Modulus (GPa) = 20.70799 24.11627 22.41213
#
# Velocity S-wave (km/s) = 2.92505 3.15660 3.04303
# Velocity P-wave (km/s) = 4.54793 4.86671 4.71002
#
# Compressibility (1/GPa) = 0.04454301
#
# Stress axis : x y z
#
# Youngs Moduli (GPa) = 39.08103 72.35054 32.95106
#
# Poissons Ratio (x) = 0.44456 0.30889
# Poissons Ratio (y) = 0.24014 -0.09594
# Poissons Ratio (z) = 0.36636 -0.21066
#
# Static dielectric constant tensor:
#      x y z
#    x 2.027670 0.000000 0.000000 
#    y 0.000000 1.916260 0.000000 
#    z 0.000000 0.000000 2.039990 
# 
# From -- ./inp_files/18679.got.cif
#   From: 2010.05.17/outbox.cif.g08.bks.cpg/sg20_10_cif.got.tgz:18679.got - 2010.06.03 22:52:26.
