data_PCOD9317293
_publ_section_title
;
Structure prediction by ZEFSAII (Michael W. Deem and Ramdas Pophale) SiO2 
 PCOD9317293
Probable space group: C 2 2 21
;
_chemical_formula_sum "Si O2"
_cell_formula_units_Z 48
_cell_length_a 23.343299
_cell_length_b 7.600830
_cell_length_c 12.137508
_cell_angle_alpha 90.000000
_cell_angle_beta 90.000000
_cell_angle_gamma 90.000000
_cell_volume 2153.539199
_symmetry_space_group_name_H-M "C 2 2 21"
_symmetry_group_IT_number 20
_symmetry_cell_setting 'orthorhombic'
loop_
_space_group_symop_operation_xyz
x,y,z
-x,-y,1/2+z
x,-y,-z
-x,y,1/2-z
1/2+x,1/2+y,z
1/2-x,1/2-y,1/2+z
1/2+x,1/2-y,-z
1/2-x,1/2+y,1/2-z
loop_
_atom_site_type_symbol
_atom_site_label
_atom_site_fract_x
_atom_site_fract_y
_atom_site_fract_z
Si Si1 0.414324 0.382263 0.906233
Si Si2 0.357274 0.916154 0.390868
Si Si3 0.154115 0.664777 0.433902
Si Si4 0.720278 0.206744 0.207448
Si Si5 0.665462 0.428687 0.793208
Si Si6 0.443194 0.022752 0.808998
O O1 0.387430 0.462376 0.792709
O O2 0.450547 0.211124 0.869351
O O3 0.444973 0.500000 0.000000
O O4 0.360205 0.312627 0.978106
O O5 0.347913 0.707179 0.391536
O O6 0.398521 0.941310 0.287975
O O7 0.383113 0.000000 0.500000
O O8 0.303019 0.041515 0.362589
O O9 0.178502 0.500000 0.500000
O O10 0.193853 0.702184 0.330971
O O11 0.091326 0.607382 0.388102
O O12 0.695679 0.392844 0.166907
O O13 0.787507 0.182452 0.223176
O O14 0.500000 0.956609 0.750000
#
# Coordination Sequence:
#
# PCOD9317293 Si02
#       6
#     8   8   8   8   8   8
#     4  10  19  36  60  85 116 151 190 244 299 354
#     4  10  23  40  57  84 120 162 199 243 302 359
#     4   9  19  35  58  86 113 148 199 241 295 355
#     4  11  21  37  56  85 122 163 201 247 292 350
#     4  11  22  36  58  85 125 159 203 248 290 346
#     4   9  20  39  64  86 113 146 193 252 300 358
#
# _framework density 22.288891
#
# number of rings (size 3 to 8) (size 9 to 14) (size 15 to 20)
#    0.000    2.000    3.333    1.000    0.000    4.667 
#    0.000    0.833    7.333    0.000    0.000    0.000 
#    0.000    0.000    0.000    0.000    0.000    0.000 
#
# Total GULP energy -133850.682748 kJ/mol
# GULP energy per Si atom -5577.111781 kJ/mol
# Density = 2.223816 g / cm^3
# Si number density = 22.288891 Si / 1000 Ang^3
#
#
#
# Elastic Constant Matrix: (Units=GPa)
#
#
# Indices 1 2 3 4 5 6 
#
# 1 41.8188 -3.1412 -1.3268 0.0000 0.0000 0.0000
# 2 -3.1412 96.0949 29.6419 0.0000 0.0000 0.0000
# 3 -1.3268 29.6419 83.7427 0.0000 0.0000 0.0000
# 4 0.0000 0.0000 0.0000 23.9433 0.0000 0.0000
# 5 0.0000 0.0000 0.0000 0.0000 13.0063 0.0000
# 6 0.0000 0.0000 0.0000 0.0000 0.0000 7.9020
#
#
#
# Elastic Compliance Matrix: (Units=1/GPa)
#
#
# Indices 1 2 3 4 5 6 
#
# 1 0.023973 0.000748 0.000115 0.000000 0.000000 0.000000
# 2 0.000748 0.011705 -0.004131 0.000000 0.000000 0.000000
# 3 0.000115 -0.004131 0.013406 0.000000 0.000000 0.000000
# 4 0.000000 0.000000 0.000000 0.041765 0.000000 0.000000
# 5 0.000000 0.000000 0.000000 0.000000 0.076886 0.000000
# 6 0.000000 0.000000 0.000000 0.000000 0.000000 0.126550
#
#
# Mechanical properties :
#
#
# Convention : Reuss Voigt Hill
#
# Bulk Modulus (GPa) = 23.50351 30.22268 26.86309
# Shear Modulus (GPa) = 15.87285 22.06916 18.97100
#
# Velocity S-wave (km/s) = 2.67149 3.15007 2.92060
# Velocity P-wave (km/s) = 4.48148 5.17876 4.84268
#
# Compressibility (1/GPa) = 0.04254684
#
# Stress axis : x y z
#
# Youngs Moduli (GPa) = 41.71437 85.43202 74.59619
#
# Poissons Ratio (x) = -0.06392 -0.00858
# Poissons Ratio (y) = -0.03121 0.30818
# Poissons Ratio (z) = -0.00480 0.35295
#
# Static dielectric constant tensor:
#      x y z
#    x 1.839530 0.000000 0.000000 
#    y 0.000000 1.959140 0.000000 
#    z 0.000000 0.000000 1.949300 
# 
# From -- ./inp_files/13080.got.cif
#   From: 2010.05.17/outbox.cif.g08.bks.cpg/sg20_7_cif.got.tgz:13080.got - 2010.06.03 22:52:26.
