data_PCOD9317410
_publ_section_title
;
Structure prediction by ZEFSAII (Michael W. Deem and Ramdas Pophale) SiO2 
 PCOD9317410
Probable space group: C 2 2 21
;
_chemical_formula_sum "Si O2"
_cell_formula_units_Z 64
_cell_length_a 18.521374
_cell_length_b 9.386675
_cell_length_c 17.516598
_cell_angle_alpha 90.000000
_cell_angle_beta 90.000000
_cell_angle_gamma 90.000000
_cell_volume 3045.332701
_symmetry_space_group_name_H-M "C 2 2 21"
_symmetry_group_IT_number 20
_symmetry_cell_setting 'orthorhombic'
loop_
_space_group_symop_operation_xyz
x,y,z
-x,-y,1/2+z
x,-y,-z
-x,y,1/2-z
1/2+x,1/2+y,z
1/2-x,1/2-y,1/2+z
1/2+x,1/2-y,-z
1/2-x,1/2+y,1/2-z
loop_
_atom_site_type_symbol
_atom_site_label
_atom_site_fract_x
_atom_site_fract_y
_atom_site_fract_z
Si Si1 0.715855 0.527191 0.837882
Si Si2 0.147292 0.661168 0.581574
Si Si3 0.364259 0.711065 0.916748
Si Si4 0.586025 0.565935 0.347152
Si Si5 0.426472 0.408064 0.671135
Si Si6 0.903041 0.577173 0.702229
Si Si7 0.537081 0.044669 0.363420
Si Si8 0.748409 0.774198 0.212848
O O1 0.783773 0.567476 0.891760
O O2 0.641075 0.473361 0.874849
O O3 0.727125 0.391271 0.781215
O O4 0.708970 0.667247 0.785529
O O5 0.155432 0.735966 0.500474
O O6 0.127670 0.784978 0.642340
O O7 0.076637 0.562484 0.579082
O O8 0.378874 0.546179 0.903484
O O9 0.297189 0.735433 0.861351
O O10 0.433044 0.800372 0.884678
O O11 0.581836 0.527284 0.257034
O O12 0.502085 0.567700 0.368817
O O13 0.429881 0.238674 0.688086
O O14 0.926054 0.507709 0.783080
O O15 0.817647 0.613438 0.700730
O O16 0.951366 0.481662 0.644277
#
# Coordination Sequence:
#
# PCOD9317410 Si02
#       8
#     8   8   8   8   8   8   8   8
#     4  11  22  38  65  95 126 164 213 274 316 380
#     4  12  22  42  63  86 129 178 210 250 329 392
#     4  12  26  37  60  97 129 168 215 264 316 387
#     4  11  21  41  62  92 126 166 210 268 321 382
#     4  10  19  37  67  94 119 154 218 265 318 365
#     4  10  19  37  68  92 121 161 208 266 322 376
#     4  11  20  39  62  93 121 167 212 257 317 388
#     4  11  21  39  61  99 125 162 216 269 320 373
#
# _framework density 21.015764999999998
#
# number of rings (size 3 to 8) (size 9 to 14) (size 15 to 20)
#    0.000    1.000    6.250    2.250    0.000    2.000 
#    2.250    1.250    2.750    1.500    0.000    0.000 
#    0.000    0.000    0.000    0.000    0.000    0.000 
#
# Total GULP energy -178249.933354 kJ/mol
# GULP energy per Si atom -5570.310417 kJ/mol
# Density = 2.096793 g / cm^3
# Si number density = 21.015765 Si / 1000 Ang^3
#
#
#
# Elastic Constant Matrix: (Units=GPa)
#
#
# Indices 1 2 3 4 5 6 
#
# 1 87.0744 31.7152 2.1662 0.0000 0.0000 0.0000
# 2 31.7152 73.4220 1.3282 0.0000 0.0000 0.0000
# 3 2.1662 1.3282 51.2460 0.0000 0.0000 0.0000
# 4 0.0000 0.0000 0.0000 25.3426 0.0000 0.0000
# 5 0.0000 0.0000 0.0000 0.0000 3.9596 0.0000
# 6 0.0000 0.0000 0.0000 0.0000 0.0000 12.4604
#
#
#
# Elastic Compliance Matrix: (Units=1/GPa)
#
#
# Indices 1 2 3 4 5 6 
#
# 1 0.013638 -0.005883 -0.000424 0.000000 0.000000 0.000000
# 2 -0.005883 0.016164 -0.000170 0.000000 0.000000 0.000000
# 3 -0.000424 -0.000170 0.019536 0.000000 0.000000 0.000000
# 4 0.000000 0.000000 0.000000 0.039459 0.000000 0.000000
# 5 0.000000 0.000000 0.000000 0.000000 0.252548 0.000000
# 6 0.000000 0.000000 0.000000 0.000000 0.000000 0.080254
#
#
# Mechanical properties :
#
#
# Convention : Reuss Voigt Hill
#
# Bulk Modulus (GPa) = 27.48530 31.35131 29.41830
# Shear Modulus (GPa) = 11.19363 20.12138 15.65751
#
# Velocity S-wave (km/s) = 2.31038 3.09761 2.73250
# Velocity P-wave (km/s) = 4.49711 5.26726 4.89734
#
# Compressibility (1/GPa) = 0.03638308
#
# Stress axis : x y z
#
# Youngs Moduli (GPa) = 73.32528 61.86468 51.18743
#
# Poissons Ratio (x) = 0.36397 0.02170
# Poissons Ratio (y) = 0.43140 0.00872
# Poissons Ratio (z) = 0.03109 0.01053
#
# Static dielectric constant tensor:
#      x y z
#    x 1.896790 0.000000 0.000000 
#    y 0.000000 1.798970 0.000000 
#    z 0.000000 0.000000 1.794750 
# 
# From -- ./inp_files/25529.got.cif
#   From: 2010.05.17/outbox.cif.g08.bks.cpg/sg20_13_cif.got.tgz:25529.got - 2010.06.03 22:52:26.
