data_PCOD9317068
_publ_section_title
;
Structure prediction by ZEFSAII (Michael W. Deem and Ramdas Pophale) SiO2 
 PCOD9317068
Probable space group: C 2 2 21
;
_chemical_formula_sum "Si O2"
_cell_formula_units_Z 48
_cell_length_a 9.344713
_cell_length_b 16.218331
_cell_length_c 16.579261
_cell_angle_alpha 90.000000
_cell_angle_beta 90.000000
_cell_angle_gamma 90.000000
_cell_volume 2512.680653
_symmetry_space_group_name_H-M "C 2 2 21"
_symmetry_group_IT_number 20
_symmetry_cell_setting 'orthorhombic'
loop_
_space_group_symop_operation_xyz
x,y,z
-x,-y,1/2+z
x,-y,-z
-x,y,1/2-z
1/2+x,1/2+y,z
1/2-x,1/2-y,1/2+z
1/2+x,1/2-y,-z
1/2-x,1/2+y,1/2-z
loop_
_atom_site_type_symbol
_atom_site_label
_atom_site_fract_x
_atom_site_fract_y
_atom_site_fract_z
Si Si1 0.433417 0.673792 0.584696
Si Si2 0.722527 0.508837 0.903883
Si Si3 0.765626 0.320689 0.648886
Si Si4 0.995691 0.564109 0.154666
Si Si5 0.673629 0.769902 0.667684
Si Si6 0.554951 0.344328 0.894618
O O1 0.351970 0.594100 0.618808
O O2 0.324260 0.751051 0.588702
O O3 0.574307 0.696207 0.636527
O O4 0.468968 0.657964 0.490992
O O5 0.890513 0.503883 0.881624
O O6 0.631502 0.430916 0.870896
O O7 0.715752 0.500000 0.000000
O O8 0.814927 0.285656 0.736531
O O9 0.597038 0.331973 0.646704
O O10 0.844320 0.408211 0.631462
O O11 0.909985 0.648873 0.136287
O O12 0.000000 0.549570 0.250000
O O13 0.831532 0.774296 0.630893
#
# Coordination Sequence:
#
# PCOD9317068 Si02
#       6
#     8   8   8   8   8   8
#     4  10  19  34  54  78 108 140 173 220 271 314
#     4   9  19  35  54  77 108 139 174 221 272 319
#     4  10  19  34  55  78 103 137 180 222 263 316
#     4   8  16  33  54  73  99 138 176 208 258 323
#     4   9  18  34  54  76 104 138 176 218 260 312
#     4  10  19  34  56  80 104 140 182 217 263 326
#
# _framework density 19.103104999999999
#
# number of rings (size 3 to 8) (size 9 to 14) (size 15 to 20)
#    0.000    2.667    0.000    3.000    0.000    1.333 
#    0.000   15.833    0.000    0.000    0.000    0.000 
#    0.000    0.000    0.000    0.000    0.000    0.000 
#
# Total GULP energy -133639.457985 kJ/mol
# GULP energy per Si atom -5568.310749 kJ/mol
# Density = 1.905963 g / cm^3
# Si number density = 19.103105 Si / 1000 Ang^3
#
#
#
# Elastic Constant Matrix: (Units=GPa)
#
#
# Indices 1 2 3 4 5 6 
#
# 1 156.6717 42.3774 20.7488 0.0000 0.0000 0.0000
# 2 42.3774 65.1489 10.9765 0.0000 0.0000 0.0000
# 3 20.7488 10.9765 25.8494 0.0000 0.0000 0.0000
# 4 0.0000 0.0000 0.0000 11.2411 0.0000 0.0000
# 5 0.0000 0.0000 0.0000 0.0000 33.1699 0.0000
# 6 0.0000 0.0000 0.0000 0.0000 0.0000 34.8815
#
#
#
# Elastic Compliance Matrix: (Units=1/GPa)
#
#
# Indices 1 2 3 4 5 6 
#
# 1 0.008238 -0.004572 -0.004671 0.000000 0.000000 0.000000
# 2 -0.004572 0.019069 -0.004428 0.000000 0.000000 0.000000
# 3 -0.004671 -0.004428 0.044315 0.000000 0.000000 0.000000
# 4 0.000000 0.000000 0.000000 0.088959 0.000000 0.000000
# 5 0.000000 0.000000 0.000000 0.000000 0.030148 0.000000
# 6 0.000000 0.000000 0.000000 0.000000 0.000000 0.028668
#
#
# Mechanical properties :
#
#
# Convention : Reuss Voigt Hill
#
# Bulk Modulus (GPa) = 22.58300 43.98617 33.28459
# Shear Modulus (GPa) = 19.12049 27.42965 23.27507
#
# Velocity S-wave (km/s) = 3.16715 3.79340 3.49433
# Velocity P-wave (km/s) = 5.02213 6.50094 5.80878
#
# Compressibility (1/GPa) = 0.04428109
#
# Stress axis : x y z
#
# Youngs Moduli (GPa) = 121.38968 52.44086 22.56557
#
# Poissons Ratio (x) = 0.23973 0.10541
# Poissons Ratio (y) = 0.55493 0.09992
# Poissons Ratio (z) = 0.56704 0.23220
#
# Static dielectric constant tensor:
#      x y z
#    x 1.705480 0.000000 0.000000 
#    y 0.000000 1.697350 0.000000 
#    z 0.000000 0.000000 1.685440 
# 
# From -- ./inp_files/18919.got.cif
#   From: 2010.05.17/outbox.cif.g08.bks.cpg/sg20_10_cif.got.tgz:18919.got - 2010.06.03 22:52:26.
