data_PCOD9317858
_publ_section_title
;
Structure prediction by ZEFSAII (Michael W. Deem and Ramdas Pophale) SiO2 
 PCOD9317858
Probable space group: C 2 2 21
;
_chemical_formula_sum "Si O2"
_cell_formula_units_Z 40
_cell_length_a 14.652655
_cell_length_b 14.064203
_cell_length_c 8.964719
_cell_angle_alpha 90.000000
_cell_angle_beta 90.000000
_cell_angle_gamma 90.000000
_cell_volume 1847.430595
_symmetry_space_group_name_H-M "C 2 2 21"
_symmetry_group_IT_number 20
_symmetry_cell_setting 'orthorhombic'
loop_
_space_group_symop_operation_xyz
x,y,z
-x,-y,1/2+z
x,-y,-z
-x,y,1/2-z
1/2+x,1/2+y,z
1/2-x,1/2-y,1/2+z
1/2+x,1/2-y,-z
1/2-x,1/2+y,1/2-z
loop_
_atom_site_type_symbol
_atom_site_label
_atom_site_fract_x
_atom_site_fract_y
_atom_site_fract_z
Si Si1 0.680767 0.857103 0.694950
Si Si2 0.709457 0.527943 0.834541
Si Si3 0.069964 0.072684 0.379446
Si Si4 0.473682 0.275743 0.089832
Si Si5 0.818671 0.773422 0.455382
O O1 0.695882 0.969517 0.675629
O O2 0.583571 0.817039 0.638020
O O3 0.758149 0.803641 0.595689
O O4 0.696356 0.823143 0.864140
O O5 0.705006 0.641185 0.837699
O O6 0.650807 0.481987 0.703333
O O7 0.673539 0.500000 0.000000
O O8 0.000000 0.097282 0.250000
O O9 0.028896 0.000000 0.500000
O O10 0.500000 0.323292 0.250000
O O11 0.427255 0.270063 0.487411
O O12 0.410277 0.335657 0.979575
#
# Coordination Sequence:
#
# PCOD9317858 Si02
#       5
#     8   8   8   8   8
#     4  10  20  36  58  84 116 158 198 244 298 356
#     4  10  21  36  56  83 120 156 195 244 299 352
#     4  12  20  30  50  82 117 152 191 244 299 356
#     4  10  21  36  56  83 120 156 195 244 299 352
#     4  10  20  38  58  84 119 158 199 248 299 356
#
# _framework density 21.651693000000002
#
# number of rings (size 3 to 8) (size 9 to 14) (size 15 to 20)
#    0.000    1.600    0.000    8.400    0.000    0.000 
#    0.000    0.000    0.000   21.600    0.000    0.000 
#    0.000    0.000    0.000    0.000    0.000    0.000 
#
# Total GULP energy -111487.600074 kJ/mol
# GULP energy per Si atom -5574.380004 kJ/mol
# Density = 2.160241 g / cm^3
# Si number density = 21.651693 Si / 1000 Ang^3
#
#
#
# Elastic Constant Matrix: (Units=GPa)
#
#
# Indices 1 2 3 4 5 6 
#
# 1 76.3880 11.3887 9.0799 0.0000 0.0000 0.0000
# 2 11.3887 60.5222 -3.4328 0.0000 0.0000 0.0000
# 3 9.0799 -3.4328 76.5837 0.0000 0.0000 0.0000
# 4 0.0000 0.0000 0.0000 33.7243 0.0000 0.0000
# 5 0.0000 0.0000 0.0000 0.0000 32.2491 0.0000
# 6 0.0000 0.0000 0.0000 0.0000 0.0000 1.0888
#
#
#
# Elastic Compliance Matrix: (Units=1/GPa)
#
#
# Indices 1 2 3 4 5 6 
#
# 1 0.013697 -0.002676 -0.001744 0.000000 0.000000 0.000000
# 2 -0.002676 0.017088 0.001083 0.000000 0.000000 0.000000
# 3 -0.001744 0.001083 0.013313 0.000000 0.000000 0.000000
# 4 0.000000 0.000000 0.000000 0.029652 0.000000 0.000000
# 5 0.000000 0.000000 0.000000 0.000000 0.031009 0.000000
# 6 0.000000 0.000000 0.000000 0.000000 0.000000 0.918455
#
#
# Mechanical properties :
#
#
# Convention : Reuss Voigt Hill
#
# Bulk Modulus (GPa) = 26.72076 27.50727 27.11402
# Shear Modulus (GPa) = 4.79680 26.50964 15.65322
#
# Velocity S-wave (km/s) = 1.49005 3.50289 2.69170
# Velocity P-wave (km/s) = 3.91514 5.39373 4.71278
#
# Compressibility (1/GPa) = 0.03742408
#
# Stress axis : x y z
#
# Youngs Moduli (GPa) = 73.00666 58.52083 75.11498
#
# Poissons Ratio (x) = 0.15663 0.13100
# Poissons Ratio (y) = 0.19540 -0.08137
# Poissons Ratio (z) = 0.12732 -0.06339
#
# Static dielectric constant tensor:
#      x y z
#    x 1.828570 0.000000 0.000000 
#    y 0.000000 1.841920 0.000000 
#    z 0.000000 0.000000 1.823590 
# 
# From -- ./inp_files/8531.got.cif
#   From: 2010.05.17/outbox.cif.g08.bks.cpg/sg20_5_cif.got.tgz:8531.got - 2010.06.03 22:52:26.
