data_PCOD9317789
_publ_section_title
;
Structure prediction by ZEFSAII (Michael W. Deem and Ramdas Pophale) SiO2 
 PCOD9317789
Probable space group: C 2 2 21
;
_chemical_formula_sum "Si O2"
_cell_formula_units_Z 48
_cell_length_a 18.245315
_cell_length_b 11.434363
_cell_length_c 11.651906
_cell_angle_alpha 90.000000
_cell_angle_beta 90.000000
_cell_angle_gamma 90.000000
_cell_volume 2430.862049
_symmetry_space_group_name_H-M "C 2 2 21"
_symmetry_group_IT_number 20
_symmetry_cell_setting 'orthorhombic'
loop_
_space_group_symop_operation_xyz
x,y,z
-x,-y,1/2+z
x,-y,-z
-x,y,1/2-z
1/2+x,1/2+y,z
1/2-x,1/2-y,1/2+z
1/2+x,1/2-y,-z
1/2-x,1/2+y,1/2-z
loop_
_atom_site_type_symbol
_atom_site_label
_atom_site_fract_x
_atom_site_fract_y
_atom_site_fract_z
Si Si1 0.006213 0.173629 0.560983
Si Si2 0.987432 0.562639 0.380245
Si Si3 0.795000 0.952549 0.693109
Si Si4 0.169742 0.830815 0.030850
Si Si5 0.558651 0.571951 0.337099
Si Si6 0.312343 0.074827 0.392750
O O1 0.055135 0.153001 0.448446
O O2 0.015520 0.302086 0.614783
O O3 0.919541 0.165017 0.528838
O O4 0.028582 0.058686 0.633067
O O5 0.013880 0.500000 0.500000
O O6 0.899565 0.560280 0.388763
O O7 0.000000 0.515567 0.250000
O O8 0.799893 0.852277 0.596680
O O9 0.863166 0.938349 0.778951
O O10 0.723965 0.955866 0.772107
O O11 0.805835 0.068166 0.617475
O O12 0.198853 0.710001 0.079099
O O13 0.500000 0.624452 0.250000
O O14 0.282850 0.000000 0.500000
#
# Coordination Sequence:
#
# PCOD9317789 Si02
#       6
#     8   8   8   8   8   8
#     4  10  20  35  60  98 124 156 203 260 320 362
#     4  10  23  47  67  88 124 171 218 263 307 374
#     4  11  22  39  62  93 127 164 207 252 319 382
#     4  10  21  41  63  85 129 167 200 264 315 368
#     4  11  18  33  61  98 126 152 200 259 314 378
#     4  10  25  43  62  88 127 170 208 254 318 372
#
# _framework density 19.746081
#
# number of rings (size 3 to 8) (size 9 to 14) (size 15 to 20)
#    0.000    1.667    3.333    1.500    7.000    0.667 
#    9.000    0.000    0.000    0.000    0.000    0.000 
#    0.000    0.000    0.000    0.000    0.000    0.000 
#
# Total GULP energy -133847.370691 kJ/mol
# GULP energy per Si atom -5576.973779 kJ/mol
# Density = 1.970114 g / cm^3
# Si number density = 19.746081 Si / 1000 Ang^3
#
#
#
# Elastic Constant Matrix: (Units=GPa)
#
#
# Indices 1 2 3 4 5 6 
#
# 1 20.7840 13.7234 14.3230 0.0000 0.0000 0.0000
# 2 13.7234 48.5799 33.1142 0.0000 0.0000 0.0000
# 3 14.3230 33.1142 140.5004 0.0000 0.0000 0.0000
# 4 0.0000 0.0000 0.0000 13.0917 0.0000 0.0000
# 5 0.0000 0.0000 0.0000 0.0000 33.0411 0.0000
# 6 0.0000 0.0000 0.0000 0.0000 0.0000-1234.1881
#
#
#
# Elastic Compliance Matrix: (Units=1/GPa)
#
#
# Indices 1 2 3 4 5 6 
#
# 1 0.059888 -0.015198 -0.002523 0.000000 0.000000 0.000000
# 2 -0.015198 0.028381 -0.005140 0.000000 0.000000 0.000000
# 3 -0.002523 -0.005140 0.008586 0.000000 0.000000 0.000000
# 4 0.000000 0.000000 0.000000 0.076384 0.000000 0.000000
# 5 0.000000 0.000000 0.000000 0.000000 0.030265 0.000000
# 6 0.000000 0.000000 0.000000 0.000000 0.000000 -0.000810
#
#
# Mechanical properties :
#
#
# Convention : Reuss Voigt Hill
#
# Bulk Modulus (GPa) = 19.55664 36.90950 28.23307
# Shear Modulus (GPa) = 18.83518 -227.69748 -104.43115
#
# Velocity S-wave (km/s) = 3.09183 -10.75003 -7.28024
# Velocity P-wave (km/s) = 4.76145 11.63406 7.50600
#
# Compressibility (1/GPa) = 0.05113353
#
# Stress axis : x y z
#
# Youngs Moduli (GPa) = 16.69790 35.23428 116.46820
#
# Poissons Ratio (x) = 0.53549 0.29387
# Poissons Ratio (y) = 0.25377 0.59863
# Poissons Ratio (z) = 0.04213 0.18110
#
# Static dielectric constant tensor:
#      x y z
#    x 1.678070 0.000000 0.000000 
#    y 0.000000 1.696180 0.000000 
#    z 0.000000 0.000000 29.820130 
# 
# From -- ./inp_files/16278.got.cif
#   From: 2010.05.17/outbox.cif.g08.bks.cpg/sg20_9_cif.got.tgz:16278.got - 2010.06.03 22:52:26.
