data_PCOD9317260
_publ_section_title
;
Structure prediction by ZEFSAII (Michael W. Deem and Ramdas Pophale) SiO2 
 PCOD9317260
Probable space group: C 2 2 21
;
_chemical_formula_sum "Si O2"
_cell_formula_units_Z 56
_cell_length_a 12.050351
_cell_length_b 15.157176
_cell_length_c 14.948189
_cell_angle_alpha 90.000000
_cell_angle_beta 90.000000
_cell_angle_gamma 90.000000
_cell_volume 2730.276122
_symmetry_space_group_name_H-M "C 2 2 21"
_symmetry_group_IT_number 20
_symmetry_cell_setting 'orthorhombic'
loop_
_space_group_symop_operation_xyz
x,y,z
-x,-y,1/2+z
x,-y,-z
-x,y,1/2-z
1/2+x,1/2+y,z
1/2-x,1/2-y,1/2+z
1/2+x,1/2-y,-z
1/2-x,1/2+y,1/2-z
loop_
_atom_site_type_symbol
_atom_site_label
_atom_site_fract_x
_atom_site_fract_y
_atom_site_fract_z
Si Si1 0.785596 0.057596 0.083719
Si Si2 0.292216 0.259292 0.113106
Si Si3 0.114212 0.323895 0.980198
Si Si4 0.871076 0.012822 0.734665
Si Si5 0.809400 0.915315 0.558059
Si Si6 0.539196 0.316965 0.514119
Si Si7 0.380563 0.280553 0.294586
O O1 0.658592 0.085397 0.062874
O O2 0.866416 0.144057 0.079561
O O3 0.804615 0.005984 0.174653
O O4 0.826547 0.000000 0.000000
O O5 0.277860 0.164359 0.065591
O O6 0.293155 0.248692 0.219156
O O7 0.194206 0.312545 0.065631
O O8 0.400967 0.314029 0.082566
O O9 0.132024 0.260630 0.892735
O O10 0.000348 0.285040 0.020637
O O11 0.866907 0.114171 0.703457
O O12 0.000000 0.992034 0.750000
O O13 0.827362 0.950458 0.657423
O O14 0.928424 0.875532 0.524845
O O15 0.777644 0.000000 0.500000
O O16 0.500000 0.256668 0.250000
#
# Coordination Sequence:
#
# PCOD9317260 Si02
#       7
#     8   8   8   8   8   8   8
#     4  11  22  36  59  87 121 148 194 248 293 343
#     4  10  21  36  57  86 117 153 192 237 289 353
#     4  10  21  36  57  86 117 153 192 237 289 353
#     4  11  21  32  56  89 115 149 190 248 300 335
#     4  11  22  36  59  87 121 148 194 248 293 343
#     4  10  19  36  57  82 115 152 188 228 289 350
#     4  11  21  36  62  87 115 157 200 238 294 361
#
# _framework density 20.510746000000001
#
# number of rings (size 3 to 8) (size 9 to 14) (size 15 to 20)
#    0.000    1.429    2.857    4.714    4.000    0.000 
#    0.000    0.714    0.000    0.000    0.000    2.000 
#    0.000    0.000    0.000    0.000    0.000    0.000 
#
# Total GULP energy -155901.764684 kJ/mol
# GULP energy per Si atom -5567.920167 kJ/mol
# Density = 2.046406 g / cm^3
# Si number density = 20.510746 Si / 1000 Ang^3
#
#
#
# Elastic Constant Matrix: (Units=GPa)
#
#
# Indices 1 2 3 4 5 6 
#
# 1 42.4850 20.1968 13.1580 0.0000 0.0000 0.0000
# 2 20.1968 64.6700 19.2131 0.0000 0.0000 0.0000
# 3 13.1580 19.2131 94.8161 0.0000 0.0000 0.0000
# 4 0.0000 0.0000 0.0000 40.4601 0.0000 0.0000
# 5 0.0000 0.0000 0.0000 0.0000 22.3770 0.0000
# 6 0.0000 0.0000 0.0000 0.0000 0.0000 21.5601
#
#
#
# Elastic Compliance Matrix: (Units=1/GPa)
#
#
# Indices 1 2 3 4 5 6 
#
# 1 0.028088 -0.008102 -0.002256 0.000000 0.000000 0.000000
# 2 -0.008102 0.018791 -0.002683 0.000000 0.000000 0.000000
# 3 -0.002256 -0.002683 0.011404 0.000000 0.000000 0.000000
# 4 0.000000 0.000000 0.000000 0.024716 0.000000 0.000000
# 5 0.000000 0.000000 0.000000 0.000000 0.044689 0.000000
# 6 0.000000 0.000000 0.000000 0.000000 0.000000 0.046382
#
#
# Mechanical properties :
#
#
# Convention : Reuss Voigt Hill
#
# Bulk Modulus (GPa) = 31.05629 34.12299 32.58964
# Shear Modulus (GPa) = 23.70969 26.83965 25.27467
#
# Velocity S-wave (km/s) = 3.40364 3.62133 3.51417
# Velocity P-wave (km/s) = 5.53359 5.84450 5.69117
#
# Compressibility (1/GPa) = 0.03219960
#
# Stress axis : x y z
#
# Youngs Moduli (GPa) = 35.60245 53.21821 87.69188
#
# Poissons Ratio (x) = 0.43116 0.19785
# Poissons Ratio (y) = 0.28844 0.23531
# Poissons Ratio (z) = 0.08032 0.14280
#
# Static dielectric constant tensor:
#      x y z
#    x 1.794090 0.000000 0.000000 
#    y 0.000000 1.784820 0.000000 
#    z 0.000000 0.000000 1.726050 
# 
# From -- ./inp_files/20033.got.cif
#   From: 2010.05.17/outbox.cif.g08.bks.cpg/sg20_11_cif.got.tgz:20033.got - 2010.06.03 22:52:26.
