data_PCOD9317060
_publ_section_title
;
Structure prediction by ZEFSAII (Michael W. Deem and Ramdas Pophale) SiO2 
 PCOD9317060
Probable space group: C 2 2 21
;
_chemical_formula_sum "Si O2"
_cell_formula_units_Z 52
_cell_length_a 26.426061
_cell_length_b 11.899174
_cell_length_c 8.231850
_cell_angle_alpha 90.000000
_cell_angle_beta 90.000000
_cell_angle_gamma 90.000000
_cell_volume 2588.491222
_symmetry_space_group_name_H-M "C 2 2 21"
_symmetry_group_IT_number 20
_symmetry_cell_setting 'orthorhombic'
loop_
_space_group_symop_operation_xyz
x,y,z
-x,-y,1/2+z
x,-y,-z
-x,y,1/2-z
1/2+x,1/2+y,z
1/2-x,1/2-y,1/2+z
1/2+x,1/2-y,-z
1/2-x,1/2+y,1/2-z
loop_
_atom_site_type_symbol
_atom_site_label
_atom_site_fract_x
_atom_site_fract_y
_atom_site_fract_z
Si Si1 0.056640 0.568991 0.677172
Si Si2 0.692852 0.278108 0.376403
Si Si3 0.878933 0.795793 0.819053
Si Si4 0.807348 0.335276 0.402428
Si Si5 0.382853 0.000000 0.500000
Si Si6 0.159762 0.995249 0.193881
Si Si7 0.728708 0.036158 0.314515
O O1 0.060546 0.500000 0.500000
O O2 0.077833 0.698809 0.668721
O O3 0.087122 0.515229 0.830687
O O4 0.000000 0.570219 0.750000
O O5 0.652864 0.280737 0.518828
O O6 0.749749 0.305961 0.444065
O O7 0.670598 0.366410 0.246649
O O8 0.701392 0.154095 0.310988
O O9 0.840854 0.761678 0.673784
O O10 0.883676 0.930173 0.783019
O O11 0.845761 0.394650 0.522553
O O12 0.799158 0.432621 0.268132
O O13 0.214314 0.044893 0.251684
O O14 0.152757 0.000000 0.000000
O O15 0.734710 0.000000 0.500000
#
# Coordination Sequence:
#
# PCOD9317060 Si02
#       7
#     8   8   8   8   4   8   8
#     4  11  25  50  75 105 137 173 228 308 372 421
#     4  11  22  35  60  86 142 190 230 277 331 401
#     4  11  23  40  62  95 131 176 229 285 348 414
#     4  10  22  33  56  89 135 182 221 273 329 415
#     4  10  24  38  66  98 138 180 228 272 354 412
#     4  10  23  39  55  86 133 190 238 276 326 406
#     4  10  19  34  52  84 129 187 241 281 324 394
#
# _framework density 20.088922
#
# number of rings (size 3 to 8) (size 9 to 14) (size 15 to 20)
#    0.000    1.538    3.846    0.462    8.615    2.462 
#    0.000    0.000    0.000    1.846    0.000    0.000 
#    0.000    0.000    0.000    0.000    0.000    0.000 
#
# Total GULP energy -144776.544598 kJ/mol
# GULP energy per Si atom -5568.328638 kJ/mol
# Density = 2.004320 g / cm^3
# Si number density = 20.088922 Si / 1000 Ang^3
#
#
#
# Elastic Constant Matrix: (Units=GPa)
#
#
# Indices 1 2 3 4 5 6 
#
# 1 71.9768 5.4761 34.9102 0.0000 0.0000 0.0000
# 2 5.4761 85.0252 6.5277 0.0000 0.0000 0.0000
# 3 34.9102 6.5277 80.3740 0.0000 0.0000 0.0000
# 4 0.0000 0.0000 0.0000 36.4420 0.0000 0.0000
# 5 0.0000 0.0000 0.0000 0.0000 24.2408 0.0000
# 6 0.0000 0.0000 0.0000 0.0000 0.0000 27.4028
#
#
#
# Elastic Compliance Matrix: (Units=1/GPa)
#
#
# Indices 1 2 3 4 5 6 
#
# 1 0.017627 -0.000551 -0.007611 0.000000 0.000000 0.000000
# 2 -0.000551 0.011852 -0.000723 0.000000 0.000000 0.000000
# 3 -0.007611 -0.000723 0.015807 0.000000 0.000000 0.000000
# 4 0.000000 0.000000 0.000000 0.027441 0.000000 0.000000
# 5 0.000000 0.000000 0.000000 0.000000 0.041253 0.000000
# 6 0.000000 0.000000 0.000000 0.000000 0.000000 0.036493
#
#
# Mechanical properties :
#
#
# Convention : Reuss Voigt Hill
#
# Bulk Modulus (GPa) = 36.34461 36.80046 36.57254
# Shear Modulus (GPa) = 28.18250 30.31458 29.24854
#
# Velocity S-wave (km/s) = 3.74958 3.88882 3.81984
# Velocity P-wave (km/s) = 6.07264 6.20665 6.14001
#
# Compressibility (1/GPa) = 0.02751440
#
# Stress axis : x y z
#
# Youngs Moduli (GPa) = 56.73114 84.37226 63.26471
#
# Poissons Ratio (x) = 0.04648 0.48154
# Poissons Ratio (y) = 0.03125 0.04576
# Poissons Ratio (z) = 0.43181 0.06103
#
# Static dielectric constant tensor:
#      x y z
#    x 1.735360 0.000000 0.000000 
#    y 0.000000 2.013740 0.000000 
#    z 0.000000 0.000000 2.013060 
# 
# From -- ./inp_files/11083.got.cif
#   From: 2010.05.17/outbox.cif.g08.bks.cpg/sg20_6_cif.got.tgz:11083.got - 2010.06.03 22:52:26.
