data_PCOD9317606
_publ_section_title
;
Structure prediction by ZEFSAII (Michael W. Deem and Ramdas Pophale) SiO2 
 PCOD9317606
Probable space group: C 2 2 21
;
_chemical_formula_sum "Si O2"
_cell_formula_units_Z 56
_cell_length_a 15.494731
_cell_length_b 33.032403
_cell_length_c 5.494805
_cell_angle_alpha 90.000000
_cell_angle_beta 90.000000
_cell_angle_gamma 90.000000
_cell_volume 2812.396146
_symmetry_space_group_name_H-M "C 2 2 21"
_symmetry_group_IT_number 20
_symmetry_cell_setting 'orthorhombic'
loop_
_space_group_symop_operation_xyz
x,y,z
-x,-y,1/2+z
x,-y,-z
-x,y,1/2-z
1/2+x,1/2+y,z
1/2-x,1/2-y,1/2+z
1/2+x,1/2-y,-z
1/2-x,1/2+y,1/2-z
loop_
_atom_site_type_symbol
_atom_site_label
_atom_site_fract_x
_atom_site_fract_y
_atom_site_fract_z
Si Si1 0.109980 0.077023 0.764190
Si Si2 0.500000 0.714472 0.750000
Si Si3 0.137975 0.260207 0.007809
Si Si4 0.880364 0.000000 0.500000
Si Si5 0.577245 0.648254 0.441640
Si Si6 0.268735 0.379726 0.643186
Si Si7 0.753455 0.960033 0.894391
Si Si8 0.302753 0.798642 0.994295
O O1 0.060931 0.105417 0.574618
O O2 0.190124 0.058451 0.612005
O O3 0.069350 0.038203 0.895850
O O4 0.155419 0.104652 0.966080
O O5 0.545553 0.740222 0.958559
O O6 0.570194 0.684899 0.629590
O O7 0.210931 0.225007 0.006078
O O8 0.154434 0.286408 0.763206
O O9 0.148593 0.283480 0.262799
O O10 0.819876 0.979783 0.703328
O O11 0.500000 0.654066 0.250000
O O12 0.674245 0.644512 0.342413
O O13 0.220833 0.419268 0.756080
O O14 0.211035 0.346829 0.508501
O O15 0.703540 0.000000 0.000000
#
# Coordination Sequence:
#
# PCOD9317606 Si02
#       8
#     8   4   8   4   8   8   8   8
#     4   9  17  30  47  77  93 136 174 237 282 348
#     4  12  26  40  58  82 106 150 194 258 304 362
#     4  10  24  38  59  78 117 143 196 243 312 347
#     4   8  14  28  46  72  94 130 176 216 288 340
#     4  11  22  32  52  78  99 133 188 252 304 352
#     4  10  20  32  55  78 105 139 189 236 296 349
#     4   8  15  27  48  76 103 133 178 223 283 345
#     4  10  22  39  56  85 110 151 185 252 296 361
#
# _framework density 19.911847000000002
#
# number of rings (size 3 to 8) (size 9 to 14) (size 15 to 20)
#    0.000    2.286    0.000    2.571   12.000    0.000 
#    0.000    0.000    0.000    0.000  551.571    0.000 
#    0.000    0.000    0.000    0.000   16.286    4.429 
#
# Total GULP energy -156121.943672 kJ/mol
# GULP energy per Si atom -5575.783703 kJ/mol
# Density = 1.986653 g / cm^3
# Si number density = 19.911847 Si / 1000 Ang^3
#
#
#
# Elastic Constant Matrix: (Units=GPa)
#
#
# Indices 1 2 3 4 5 6 
#
# 1 16.9615 31.2484 14.9773 0.0000 0.0000 0.0000
# 2 31.2484 150.4178 55.6194 0.0000 0.0000 0.0000
# 3 14.9773 55.6194 95.9063 0.0000 0.0000 0.0000
# 4 0.0000 0.0000 0.0000 38.4294 0.0000 0.0000
# 5 0.0000 0.0000 0.0000 0.0000 24.6521 0.0000
# 6 0.0000 0.0000 0.0000 0.0000 0.0000 14.2562
#
#
#
# Elastic Compliance Matrix: (Units=1/GPa)
#
#
# Indices 1 2 3 4 5 6 
#
# 1 0.096952 -0.018513 -0.004405 0.000000 0.000000 0.000000
# 2 -0.018513 0.011998 -0.004067 0.000000 0.000000 0.000000
# 3 -0.004405 -0.004067 0.013473 0.000000 0.000000 0.000000
# 4 0.000000 0.000000 0.000000 0.026022 0.000000 0.000000
# 5 0.000000 0.000000 0.000000 0.000000 0.040565 0.000000
# 6 0.000000 0.000000 0.000000 0.000000 0.000000 0.070145
#
#
# Mechanical properties :
#
#
# Convention : Reuss Voigt Hill
#
# Bulk Modulus (GPa) = 14.60810 51.88621 33.24715
# Shear Modulus (GPa) = 14.88357 26.23024 20.55690
#
# Velocity S-wave (km/s) = 2.73696 3.63343 3.21658
# Velocity P-wave (km/s) = 4.16416 6.61188 5.52527
#
# Compressibility (1/GPa) = 0.06845517
#
# Stress axis : x y z
#
# Youngs Moduli (GPa) = 10.31435 83.34819 74.22115
#
# Poissons Ratio (x) = 1.54299 0.32691
# Poissons Ratio (y) = 0.19095 0.30185
# Poissons Ratio (z) = 0.04543 0.33897
#
# Static dielectric constant tensor:
#      x y z
#    x 1.712230 0.000000 0.000000 
#    y 0.000000 1.541760 0.000000 
#    z 0.000000 0.000000 1.736610 
# 
# From -- ./inp_files/2254.got.cif
#   From: 2010.05.17/outbox.cif.g08.bks.cpg/sg20_2_cif.got.tgz:2254.got - 2010.06.03 22:52:26.
