data_PCOD9317670
_publ_section_title
;
Structure prediction by ZEFSAII (Michael W. Deem and Ramdas Pophale) SiO2 
 PCOD9317670
Probable space group: C 2 2 21
;
_chemical_formula_sum "Si O2"
_cell_formula_units_Z 48
_cell_length_a 7.598515
_cell_length_b 32.609532
_cell_length_c 6.720699
_cell_angle_alpha 90.000000
_cell_angle_beta 90.000000
_cell_angle_gamma 90.000000
_cell_volume 1665.281802
_symmetry_space_group_name_H-M "C 2 2 21"
_symmetry_group_IT_number 20
_symmetry_cell_setting 'orthorhombic'
loop_
_space_group_symop_operation_xyz
x,y,z
-x,-y,1/2+z
x,-y,-z
-x,y,1/2-z
1/2+x,1/2+y,z
1/2-x,1/2-y,1/2+z
1/2+x,1/2-y,-z
1/2-x,1/2+y,1/2-z
loop_
_atom_site_type_symbol
_atom_site_label
_atom_site_fract_x
_atom_site_fract_y
_atom_site_fract_z
Si Si1 0.291355 0.424896 0.718691
Si Si2 0.257280 0.314202 0.048825
Si Si3 0.435919 0.231669 0.021376
Si Si4 0.197260 0.161606 0.146047
Si Si5 0.792350 0.513080 0.727511
Si Si6 0.698761 0.100012 0.833070
O O1 0.500000 0.427175 0.750000
O O2 0.264168 0.384855 0.579302
O O3 0.239385 0.470633 0.655608
O O4 0.197869 0.414389 0.931421
O O5 0.394513 0.279291 0.986159
O O6 0.296977 0.355417 0.170249
O O7 0.188032 0.333210 0.844333
O O8 0.099182 0.284675 0.106008
O O9 0.500000 0.234709 0.250000
O O10 0.272259 0.199187 0.014406
O O11 0.000000 0.159960 0.250000
O O12 0.744875 0.500000 0.500000
O O13 0.715102 0.558654 0.759021
O O14 0.000000 0.520151 0.750000
O O15 0.500000 0.107239 0.750000
#
# Coordination Sequence:
#
# PCOD9317670 Si02
#       6
#     8   8   8   8   8   8
#     4   9  18  34  58  85 114 151 197 252 308 364
#     4  10  20  34  53  77 109 148 192 241 300 362
#     4  10  21  34  52  79 108 145 193 241 292 354
#     4   9  18  33  52  76 105 138 185 240 291 353
#     4   9  18  34  56  82 113 150 198 248 300 368
#     4   9  19  35  56  83 117 158 202 250 308 375
#
# _framework density 28.823954000000001
#
# number of rings (size 3 to 8) (size 9 to 14) (size 15 to 20)
#    0.000    2.667    0.000    1.000    0.000    8.000 
#    0.000    3.333    0.000   14.000    0.000    0.000 
#    0.000    0.000    0.000    0.000    0.000    0.000 
#
# Total GULP energy -133809.071794 kJ/mol
# GULP energy per Si atom -5575.377991 kJ/mol
# Density = 2.875835 g / cm^3
# Si number density = 28.823954 Si / 1000 Ang^3
#
#
#
# Elastic Constant Matrix: (Units=GPa)
#
#
# Indices 1 2 3 4 5 6 
#
# 1 106.9335 40.4623 -5.8084 0.0000 0.0000 0.0000
# 2 40.4623 394.0773 36.4160 0.0000 0.0000 0.0000
# 3 -5.8084 36.4160 67.7279 0.0000 0.0000 0.0000
# 4 0.0000 0.0000 0.0000 58.1867 0.0000 0.0000
# 5 0.0000 0.0000 0.0000 0.0000 26.4623 0.0000
# 6 0.0000 0.0000 0.0000 0.0000 0.0000 5.2298
#
#
#
# Elastic Compliance Matrix: (Units=1/GPa)
#
#
# Indices 1 2 3 4 5 6 
#
# 1 0.009866 -0.001148 0.001463 0.000000 0.000000 0.000000
# 2 -0.001148 0.002804 -0.001606 0.000000 0.000000 0.000000
# 3 0.001463 -0.001606 0.015754 0.000000 0.000000 0.000000
# 4 0.000000 0.000000 0.000000 0.017186 0.000000 0.000000
# 5 0.000000 0.000000 0.000000 0.000000 0.037790 0.000000
# 6 0.000000 0.000000 0.000000 0.000000 0.000000 0.191212
#
#
# Mechanical properties :
#
#
# Convention : Reuss Voigt Hill
#
# Bulk Modulus (GPa) = 38.69698 78.98651 58.84175
# Shear Modulus (GPa) = 17.49437 51.15369 34.32403
#
# Velocity S-wave (km/s) = 2.46629 4.21728 3.45456
# Velocity P-wave (km/s) = 4.64376 7.15378 6.03080
#
# Compressibility (1/GPa) = 0.02584181
#
# Stress axis : x y z
#
# Youngs Moduli (GPa) = 101.36275 356.64886 63.47590
#
# Poissons Ratio (x) = 0.40950 -0.09289
# Poissons Ratio (y) = 0.11638 0.10195
# Poissons Ratio (z) = -0.14834 0.57280
#
# Static dielectric constant tensor:
#      x y z
#    x 2.285430 0.000000 0.000000 
#    y 0.000000 2.291060 0.000000 
#    z 0.000000 0.000000 2.441310 
# 
# From -- ./inp_files/6540.got.cif
#   From: 2010.05.17/outbox.cif.g08.bks.cpg/sg20_4_cif.got.tgz:6540.got - 2010.06.03 22:52:26.
