data_PCOD9317042
_publ_section_title
;
Structure prediction by ZEFSAII (Michael W. Deem and Ramdas Pophale) SiO2 
 PCOD9317042
Probable space group: C 2 2 21
;
_chemical_formula_sum "Si O2"
_cell_formula_units_Z 40
_cell_length_a 18.545186
_cell_length_b 16.468075
_cell_length_c 6.047117
_cell_angle_alpha 90.000000
_cell_angle_beta 90.000000
_cell_angle_gamma 90.000000
_cell_volume 1846.810781
_symmetry_space_group_name_H-M "C 2 2 21"
_symmetry_group_IT_number 20
_symmetry_cell_setting 'orthorhombic'
loop_
_space_group_symop_operation_xyz
x,y,z
-x,-y,1/2+z
x,-y,-z
-x,y,1/2-z
1/2+x,1/2+y,z
1/2-x,1/2-y,1/2+z
1/2+x,1/2-y,-z
1/2-x,1/2+y,1/2-z
loop_
_atom_site_type_symbol
_atom_site_label
_atom_site_fract_x
_atom_site_fract_y
_atom_site_fract_z
Si Si1 0.576792 0.210539 0.513625
Si Si2 0.837260 0.799924 0.605955
Si Si3 0.299173 0.843901 0.678928
Si Si4 0.500000 0.924579 0.250000
Si Si5 0.874679 0.500000 0.500000
Si Si6 0.516037 0.626661 0.988100
O O1 0.619907 0.238619 0.732102
O O2 0.636223 0.179624 0.344265
O O3 0.521081 0.137627 0.555582
O O4 0.531688 0.291378 0.463588
O O5 0.779204 0.858331 0.718431
O O6 0.790861 0.738943 0.458216
O O7 0.899589 0.850564 0.487621
O O8 0.326542 0.921874 0.547875
O O9 0.430153 0.977099 0.304372
O O10 0.500000 0.600583 0.250000
O O11 0.500000 0.582078 0.750000
#
# Coordination Sequence:
#
# PCOD9317042 Si02
#       6
#     8   8   8   4   4   8
#     4  11  20  35  60  83 121 165 226 272 318 384
#     4  11  21  36  58  84 121 176 222 278 325 393
#     4  12  23  38  57  87 127 181 222 273 333 411
#     4  12  22  40  58  90 128 182 218 266 328 416
#     4  12  26  38  58  90 136 180 224 268 346 418
#     4  10  19  33  57  89 120 158 215 283 323 375
#
# _framework density 21.65896
#
# number of rings (size 3 to 8) (size 9 to 14) (size 15 to 20)
#    0.000    0.800    9.000    1.200    0.000    0.000 
#    0.000    0.000    0.000    0.000    0.000    0.000 
#    0.000   86.400    3.400    0.000    0.000    0.000 
#
# Total GULP energy -111535.257892 kJ/mol
# GULP energy per Si atom -5576.762895 kJ/mol
# Density = 2.160966 g / cm^3
# Si number density = 21.658960 Si / 1000 Ang^3
#
#
#
# Elastic Constant Matrix: (Units=GPa)
#
#
# Indices 1 2 3 4 5 6 
#
# 1 131.2805 26.5349 21.7973 0.0000 0.0000 0.0000
# 2 26.5349 65.5471 17.0304 0.0000 0.0000 0.0000
# 3 21.7973 17.0304 88.3119 0.0000 0.0000 0.0000
# 4 0.0000 0.0000 0.0000 -41.9679 0.0000 0.0000
# 5 0.0000 0.0000 0.0000 0.0000 38.3502 0.0000
# 6 0.0000 0.0000 0.0000 0.0000 0.0000 15.2675
#
#
#
# Elastic Compliance Matrix: (Units=1/GPa)
#
#
# Indices 1 2 3 4 5 6 
#
# 1 0.008482 -0.003042 -0.001507 0.000000 0.000000 0.000000
# 2 -0.003042 0.017152 -0.002557 0.000000 0.000000 0.000000
# 3 -0.001507 -0.002557 0.012189 0.000000 0.000000 0.000000
# 4 0.000000 0.000000 0.000000 -0.023828 0.000000 0.000000
# 5 0.000000 0.000000 0.000000 0.000000 0.026075 0.000000
# 6 0.000000 0.000000 0.000000 0.000000 0.000000 0.065499
#
#
# Mechanical properties :
#
#
# Convention : Reuss Voigt Hill
#
# Bulk Modulus (GPa) = 42.35324 46.20718 44.28021
# Shear Modulus (GPa) = 39.16903 16.98176 28.07539
#
# Velocity S-wave (km/s) = 4.25719 2.80313 3.60425
# Velocity P-wave (km/s) = 6.61529 5.64420 6.14894
#
# Compressibility (1/GPa) = 0.02361094
#
# Stress axis : x y z
#
# Youngs Moduli (GPa) = 117.89100 58.30185 82.04450
#
# Poissons Ratio (x) = 0.17737 0.12364
# Poissons Ratio (y) = 0.35866 0.20977
# Poissons Ratio (z) = 0.17766 0.14906
#
# Static dielectric constant tensor:
#      x y z
#    x 1.864400 0.000000 0.000000 
#    y 0.000000 1.743450 0.000000 
#    z 0.000000 0.000000 1.981870 
# 
# From -- ./inp_files/2501.got.cif
#   From: 2010.05.17/outbox.cif.g08.bks.cpg/sg20_2_cif.got.tgz:2501.got - 2010.06.03 22:52:26.
