data_PCOD9317562
_publ_section_title
;
Structure prediction by ZEFSAII (Michael W. Deem and Ramdas Pophale) SiO2 
 PCOD9317562
Probable space group: C 2 2 21
;
_chemical_formula_sum "Si O2"
_cell_formula_units_Z 40
_cell_length_a 23.424018
_cell_length_b 7.727513
_cell_length_c 11.330445
_cell_angle_alpha 90.000000
_cell_angle_beta 90.000000
_cell_angle_gamma 90.000000
_cell_volume 2050.917092
_symmetry_space_group_name_H-M "C 2 2 21"
_symmetry_group_IT_number 20
_symmetry_cell_setting 'orthorhombic'
loop_
_space_group_symop_operation_xyz
x,y,z
-x,-y,1/2+z
x,-y,-z
-x,y,1/2-z
1/2+x,1/2+y,z
1/2-x,1/2-y,1/2+z
1/2+x,1/2-y,-z
1/2-x,1/2+y,1/2-z
loop_
_atom_site_type_symbol
_atom_site_label
_atom_site_fract_x
_atom_site_fract_y
_atom_site_fract_z
Si Si1 0.863630 0.541314 0.361589
Si Si2 0.640520 0.801840 0.477501
Si Si3 0.869634 0.118537 0.768198
Si Si4 0.768634 0.064964 0.136344
Si Si5 0.433314 0.741732 0.227683
O O1 0.866466 0.500000 0.500000
O O2 0.886127 0.729295 0.321165
O O3 0.796865 0.561940 0.325434
O O4 0.897297 0.386217 0.298683
O O5 0.631577 0.697569 0.598967
O O6 0.690209 0.728336 0.390983
O O7 0.581822 0.782193 0.407411
O O8 0.653563 0.000000 0.500000
O O9 0.804630 0.044934 0.767915
O O10 0.909827 0.952439 0.751069
O O11 0.765683 0.000000 0.000000
O O12 0.500000 0.754702 0.250000
#
# Coordination Sequence:
#
# PCOD9317562 Si02
#       5
#     8   8   8   8   8
#     4  11  24  43  61 100 135 166 210 262 332 388
#     4  10  19  42  71  99 121 171 223 263 316 388
#     4  10  22  41  67  95 126 172 216 264 320 386
#     4   8  19  37  62  96 131 156 206 262 316 388
#     4  11  25  44  65  93 127 172 222 268 318 372
#
# _framework density 19.503468999999999
#
# number of rings (size 3 to 8) (size 9 to 14) (size 15 to 20)
#    0.000    2.000    2.000    1.800    5.600    2.400 
#   14.400    0.000    0.000    0.000    0.000    0.000 
#    0.000    0.000    0.000    0.000    0.000    0.000 
#
# Total GULP energy -111350.018540 kJ/mol
# GULP energy per Si atom -5567.500927 kJ/mol
# Density = 1.945908 g / cm^3
# Si number density = 19.503469 Si / 1000 Ang^3
#
#
#
# Elastic Constant Matrix: (Units=GPa)
#
#
# Indices 1 2 3 4 5 6 
#
# 1 136.4411 68.8175 30.7084 0.0000 0.0000 0.0000
# 2 68.8175 174.7611 47.2725 0.0000 0.0000 0.0000
# 3 30.7084 47.2725 48.7846 0.0000 0.0000 0.0000
# 4 0.0000 0.0000 0.0000 20.5150 0.0000 0.0000
# 5 0.0000 0.0000 0.0000 0.0000 17.1091 0.0000
# 6 0.0000 0.0000 0.0000 0.0000 0.0000 7.4211
#
#
#
# Elastic Compliance Matrix: (Units=1/GPa)
#
#
# Indices 1 2 3 4 5 6 
#
# 1 0.009499 -0.002877 -0.003191 0.000000 0.000000 0.000000
# 2 -0.002877 0.008626 -0.006548 0.000000 0.000000 0.000000
# 3 -0.003191 -0.006548 0.028852 0.000000 0.000000 0.000000
# 4 0.000000 0.000000 0.000000 0.048745 0.000000 0.000000
# 5 0.000000 0.000000 0.000000 0.000000 0.058448 0.000000
# 6 0.000000 0.000000 0.000000 0.000000 0.000000 0.134752
#
#
# Mechanical properties :
#
#
# Convention : Reuss Voigt Hill
#
# Bulk Modulus (GPa) = 45.98855 72.62042 59.30449
# Shear Modulus (GPa) = 15.55687 23.22159 19.38923
#
# Velocity S-wave (km/s) = 2.82733 3.45431 3.15642
# Velocity P-wave (km/s) = 5.85570 7.29555 6.61492
#
# Compressibility (1/GPa) = 0.02174454
#
# Stress axis : x y z
#
# Youngs Moduli (GPa) = 105.27925 115.92556 34.65995
#
# Poissons Ratio (x) = 0.33354 0.11060
# Poissons Ratio (y) = 0.30291 0.22695
# Poissons Ratio (z) = 0.33595 0.75905
#
# Static dielectric constant tensor:
#      x y z
#    x 1.698810 0.000000 0.000000 
#    y 0.000000 1.738720 0.000000 
#    z 0.000000 0.000000 1.691150 
# 
# From -- ./inp_files/16160.got.cif
#   From: 2010.05.17/outbox.cif.g08.bks.cpg/sg20_9_cif.got.tgz:16160.got - 2010.06.03 22:52:26.
