data_PCOD9317556
_publ_section_title
;
Structure prediction by ZEFSAII (Michael W. Deem and Ramdas Pophale) SiO2 
 PCOD9317556
Probable space group: C 2 2 21
;
_chemical_formula_sum "Si O2"
_cell_formula_units_Z 56
_cell_length_a 13.350246
_cell_length_b 14.922135
_cell_length_c 14.161928
_cell_angle_alpha 90.000000
_cell_angle_beta 90.000000
_cell_angle_gamma 90.000000
_cell_volume 2821.256776
_symmetry_space_group_name_H-M "C 2 2 21"
_symmetry_group_IT_number 20
_symmetry_cell_setting 'orthorhombic'
loop_
_space_group_symop_operation_xyz
x,y,z
-x,-y,1/2+z
x,-y,-z
-x,y,1/2-z
1/2+x,1/2+y,z
1/2-x,1/2-y,1/2+z
1/2+x,1/2-y,-z
1/2-x,1/2+y,1/2-z
loop_
_atom_site_type_symbol
_atom_site_label
_atom_site_fract_x
_atom_site_fract_y
_atom_site_fract_z
Si Si1 0.171607 0.962391 0.753410
Si Si2 0.500000 0.814935 0.250000
Si Si3 0.213354 0.631706 0.716932
Si Si4 0.500000 0.579706 0.750000
Si Si5 0.727457 0.183158 0.115885
Si Si6 0.027364 0.220968 0.904049
Si Si7 0.793874 0.213151 0.910831
Si Si8 0.900309 0.176654 0.394800
O O1 0.231623 0.892045 0.688110
O O2 0.107794 0.910534 0.831989
O O3 0.242397 0.034645 0.804044
O O4 0.085766 0.020324 0.701418
O O5 0.406179 0.872663 0.218455
O O6 0.458114 0.750858 0.332576
O O7 0.237189 0.718828 0.653173
O O8 0.256087 0.655673 0.821485
O O9 0.549432 0.646675 0.824955
O O10 0.606800 0.197513 0.107542
O O11 0.774534 0.167236 0.012343
O O12 0.909060 0.241620 0.897523
O O13 0.047636 0.175658 0.004776
O O14 0.714952 0.294453 0.910853
#
# Coordination Sequence:
#
# PCOD9317556 Si02
#       8
#     8   4   8   4   8   8   8   8
#     4  12  24  42  63 100 129 169 215 266 324 388
#     4  10  19  42  67  88 128 182 207 264 317 388
#     4  11  22  43  60  97 134 161 220 268 314 389
#     4  12  25  40  67 100 130 164 215 272 323 378
#     4  11  23  42  66  91 132 173 209 269 326 385
#     4  11  22  43  66  97 129 169 212 272 327 375
#     4  10  21  41  66  94 129 169 212 270 320 386
#     4  10  23  40  68  95 127 172 222 255 328 386
#
# _framework density 19.849309000000002
#
# number of rings (size 3 to 8) (size 9 to 14) (size 15 to 20)
#    0.000    1.143    5.714    1.286    2.000    1.143 
#    2.571    0.000    0.000    0.000    0.000    0.000 
#    0.000    0.000    0.000    0.000    0.000    0.000 
#
# Total GULP energy -156178.191225 kJ/mol
# GULP energy per Si atom -5577.792544 kJ/mol
# Density = 1.980413 g / cm^3
# Si number density = 19.849309 Si / 1000 Ang^3
#
#
#
# Elastic Constant Matrix: (Units=GPa)
#
#
# Indices 1 2 3 4 5 6 
#
# 1 152.2941 10.7212 3.3917 0.0000 0.0000 0.0000
# 2 10.7212 38.4329 3.9178 0.0000 0.0000 0.0000
# 3 3.3917 3.9178 86.2388 0.0000 0.0000 0.0000
# 4 0.0000 0.0000 0.0000 0.6083 0.0000 0.0000
# 5 0.0000 0.0000 0.0000 0.0000 27.6054 0.0000
# 6 0.0000 0.0000 0.0000 0.0000 0.0000 20.3169
#
#
#
# Elastic Compliance Matrix: (Units=1/GPa)
#
#
# Indices 1 2 3 4 5 6 
#
# 1 0.006701 -0.001851 -0.000179 0.000000 0.000000 0.000000
# 2 -0.001851 0.026652 -0.001138 0.000000 0.000000 0.000000
# 3 -0.000179 -0.001138 0.011654 0.000000 0.000000 0.000000
# 4 0.000000 0.000000 0.000000 1.643809 0.000000 0.000000
# 5 0.000000 0.000000 0.000000 0.000000 0.036225 0.000000
# 6 0.000000 0.000000 0.000000 0.000000 0.000000 0.049220
#
#
# Mechanical properties :
#
#
# Convention : Reuss Voigt Hill
#
# Bulk Modulus (GPa) = 25.85979 34.78079 30.32029
# Shear Modulus (GPa) = 2.78786 26.96846 14.87816
#
# Velocity S-wave (km/s) = 1.18641 3.69000 2.74077
# Velocity P-wave (km/s) = 3.86434 5.97622 5.03231
#
# Compressibility (1/GPa) = 0.03867007
#
# Stress axis : x y z
#
# Youngs Moduli (GPa) = 149.24173 37.52108 85.80399
#
# Poissons Ratio (x) = 0.06945 0.01540
# Poissons Ratio (y) = 0.27623 0.09764
# Poissons Ratio (z) = 0.02678 0.04270
#
# Static dielectric constant tensor:
#      x y z
#    x 1.749340 0.000000 0.000000 
#    y 0.000000 1.712880 0.000000 
#    z 0.000000 0.000000 1.814410 
# 
# From -- ./inp_files/20899.got.cif
#   From: 2010.05.17/outbox.cif.g08.bks.cpg/sg20_11_cif.got.tgz:20899.got - 2010.06.03 22:52:26.
