data_PCOD9317099
_publ_section_title
;
Structure prediction by ZEFSAII (Michael W. Deem and Ramdas Pophale) SiO2 
 PCOD9317099
Probable space group: C 2 2 21
;
_chemical_formula_sum "Si O2"
_cell_formula_units_Z 48
_cell_length_a 7.569059
_cell_length_b 16.556206
_cell_length_c 18.397689
_cell_angle_alpha 90.000000
_cell_angle_beta 90.000000
_cell_angle_gamma 90.000000
_cell_volume 2305.504558
_symmetry_space_group_name_H-M "C 2 2 21"
_symmetry_group_IT_number 20
_symmetry_cell_setting 'orthorhombic'
loop_
_space_group_symop_operation_xyz
x,y,z
-x,-y,1/2+z
x,-y,-z
-x,y,1/2-z
1/2+x,1/2+y,z
1/2-x,1/2-y,1/2+z
1/2+x,1/2-y,-z
1/2-x,1/2+y,1/2-z
loop_
_atom_site_type_symbol
_atom_site_label
_atom_site_fract_x
_atom_site_fract_y
_atom_site_fract_z
Si Si1 0.399468 0.500000 0.000000
Si Si2 0.196987 0.542235 0.852401
Si Si3 0.360968 0.325889 0.981389
Si Si4 0.597962 0.791486 0.106329
Si Si5 0.221285 0.844519 0.797669
Si Si6 0.000000 0.006777 0.250000
Si Si7 0.097770 0.365747 0.851729
O O1 0.281210 0.521857 0.930659
O O2 0.477833 0.409731 0.983744
O O3 0.074183 0.619938 0.859705
O O4 0.362286 0.545525 0.796729
O O5 0.094305 0.461068 0.833987
O O6 0.462049 0.248997 0.949527
O O7 0.200983 0.346086 0.925414
O O8 0.277294 0.304394 0.059110
O O9 0.607007 0.727516 0.170993
O O10 0.395182 0.842232 0.847580
O O11 0.291088 0.830542 0.715944
O O12 0.114244 0.929126 0.798233
#
# Coordination Sequence:
#
# PCOD9317099 Si02
#       7
#     4   8   8   8   8   4   8
#     4   8  16  34  58  74 104 144 178 220 280 334
#     4   9  19  35  56  80 108 146 187 232 280 335
#     4  10  20  36  56  81 112 147 185 233 283 336
#     4  11  21  35  56  83 112 144 187 238 283 323
#     4  10  19  34  57  80 109 147 188 235 283 337
#     4  10  20  38  58  80 112 154 192 226 278 340
#     4   9  19  37  55  77 109 148 188 227 284 346
#
# _framework density 20.819737
#
# number of rings (size 3 to 8) (size 9 to 14) (size 15 to 20)
#    0.000    2.333    0.000    4.000    0.000    1.333 
#    0.000   16.667    0.000    4.000    0.000    0.000 
#    0.000    0.000    0.000    0.000    0.000    0.000 
#
# Total GULP energy -133652.641284 kJ/mol
# GULP energy per Si atom -5568.860053 kJ/mol
# Density = 2.077235 g / cm^3
# Si number density = 20.819737 Si / 1000 Ang^3
#
#
#
# Elastic Constant Matrix: (Units=GPa)
#
#
# Indices 1 2 3 4 5 6 
#
# 1 40.8604 31.3846 -3.5905 0.0000 0.0000 0.0000
# 2 31.3846 91.7768 31.4450 0.0000 0.0000 0.0000
# 3 -3.5905 31.4450 62.5080 0.0000 0.0000 0.0000
# 4 0.0000 0.0000 0.0000 31.4921 0.0000 0.0000
# 5 0.0000 0.0000 0.0000 0.0000 27.7251 0.0000
# 6 0.0000 0.0000 0.0000 0.0000 0.0000 44.0848
#
#
#
# Elastic Compliance Matrix: (Units=1/GPa)
#
#
# Indices 1 2 3 4 5 6 
#
# 1 0.038239 -0.016709 0.010602 0.000000 0.000000 0.000000
# 2 -0.016709 0.020466 -0.011256 0.000000 0.000000 0.000000
# 3 0.010602 -0.011256 0.022269 0.000000 0.000000 0.000000
# 4 0.000000 0.000000 0.000000 0.031754 0.000000 0.000000
# 5 0.000000 0.000000 0.000000 0.000000 0.036068 0.000000
# 6 0.000000 0.000000 0.000000 0.000000 0.000000 0.022684
#
#
# Mechanical properties :
#
#
# Convention : Reuss Voigt Hill
#
# Bulk Modulus (GPa) = 21.62170 34.84704 28.23437
# Shear Modulus (GPa) = 22.56089 29.72081 26.14085
#
# Velocity S-wave (km/s) = 3.29542 3.78237 3.54726
# Velocity P-wave (km/s) = 4.98874 5.98740 5.51074
#
# Compressibility (1/GPa) = 0.04624983
#
# Stress axis : x y z
#
# Youngs Moduli (GPa) = 26.15103 48.86064 44.90530
#
# Poissons Ratio (x) = 0.81642 -0.47609
# Poissons Ratio (y) = 0.43696 0.50543
# Poissons Ratio (z) = -0.27726 0.54995
#
# Static dielectric constant tensor:
#      x y z
#    x 1.760830 0.000000 0.000000 
#    y 0.000000 1.815360 0.000000 
#    z 0.000000 0.000000 1.765300 
# 
# From -- ./inp_files/23501.got.cif
#   From: 2010.05.17/outbox.cif.g08.bks.cpg/sg20_12_cif.got.tgz:23501.got - 2010.06.03 22:52:26.
