data_PCOD9317473
_publ_section_title
;
Structure prediction by ZEFSAII (Michael W. Deem and Ramdas Pophale) SiO2 
 PCOD9317473
Probable space group: C 2 2 21
;
_chemical_formula_sum "Si O2"
_cell_formula_units_Z 60
_cell_length_a 8.934660
_cell_length_b 23.450633
_cell_length_c 11.627086
_cell_angle_alpha 90.000000
_cell_angle_beta 90.000000
_cell_angle_gamma 90.000000
_cell_volume 2436.146970
_symmetry_space_group_name_H-M "C 2 2 21"
_symmetry_group_IT_number 20
_symmetry_cell_setting 'orthorhombic'
loop_
_space_group_symop_operation_xyz
x,y,z
-x,-y,1/2+z
x,-y,-z
-x,y,1/2-z
1/2+x,1/2+y,z
1/2-x,1/2-y,1/2+z
1/2+x,1/2-y,-z
1/2-x,1/2+y,1/2-z
loop_
_atom_site_type_symbol
_atom_site_label
_atom_site_fract_x
_atom_site_fract_y
_atom_site_fract_z
Si Si1 0.042582 0.071254 0.622935
Si Si2 0.747612 0.088903 0.069359
Si Si3 0.339437 0.216453 0.510538
Si Si4 0.702609 0.404826 0.937664
Si Si5 0.500000 0.390932 0.750000
Si Si6 0.461947 0.021883 0.131003
Si Si7 0.855611 0.806436 0.204813
Si Si8 0.165365 0.312943 0.406937
O O1 0.193830 0.058688 0.549733
O O2 0.064485 0.138980 0.645221
O O3 0.000000 0.047114 0.750000
O O4 0.906714 0.066971 0.532583
O O5 0.882768 0.080644 0.160564
O O6 0.596432 0.067046 0.125789
O O7 0.713982 0.155344 0.039608
O O8 0.227530 0.231523 0.613636
O O9 0.296070 0.266154 0.424033
O O10 0.504001 0.212664 0.565065
O O11 0.610306 0.365686 0.847021
O O12 0.796970 0.450935 0.867720
O O13 0.814114 0.365738 0.008976
O O14 0.500000 0.988109 0.250000
O O15 0.468815 0.000000 0.000000
O O16 0.718308 0.832160 0.280366
O O17 0.000000 0.773570 0.250000
#
# Coordination Sequence:
#
# PCOD9317473 Si02
#       8
#     8   8   8   8   4   8   8   8
#     4   9  18  36  67  98 135 182 230 282 354 420
#     4  10  22  43  70  99 139 189 231 295 362 431
#     4  11  25  38  61  99 140 188 246 289 359 428
#     4  11  22  43  73  98 140 191 230 294 364 432
#     4  10  22  40  74  94 136 180 228 280 358 432
#     4  12  27  52  77 112 147 187 248 311 377 452
#     4  10  19  39  57  88 141 175 237 301 334 417
#     4  12  23  39  62  98 142 190 245 292 358 432
#
# _framework density 24.629055999999999
#
# number of rings (size 3 to 8) (size 9 to 14) (size 15 to 20)
#    0.000    1.333    5.333    1.200    3.733    2.133 
#    0.000    4.000    2.933    0.000    0.000    0.000 
#    0.000    0.000    0.000    0.000    0.000    0.000 
#
# Total GULP energy -167073.408754 kJ/mol
# GULP energy per Si atom -5569.113625 kJ/mol
# Density = 2.457300 g / cm^3
# Si number density = 24.629056 Si / 1000 Ang^3
#
#
#
# Elastic Constant Matrix: (Units=GPa)
#
#
# Indices 1 2 3 4 5 6 
#
# 1 137.0201 2.4061 46.5296 0.0000 0.0000 0.0000
# 2 2.4061 28.8415 3.4055 0.0000 0.0000 0.0000
# 3 46.5296 3.4055 131.5678 0.0000 0.0000 0.0000
# 4 0.0000 0.0000 0.0000 -48.0568 0.0000 0.0000
# 5 0.0000 0.0000 0.0000 0.0000 57.2911 0.0000
# 6 0.0000 0.0000 0.0000 0.0000 0.0000 15.6454
#
#
#
# Elastic Compliance Matrix: (Units=1/GPa)
#
#
# Indices 1 2 3 4 5 6 
#
# 1 0.008298 -0.000347 -0.002926 0.000000 0.000000 0.000000
# 2 -0.000347 0.034793 -0.000778 0.000000 0.000000 0.000000
# 3 -0.002926 -0.000778 0.008655 0.000000 0.000000 0.000000
# 4 0.000000 0.000000 0.000000 -0.020809 0.000000 0.000000
# 5 0.000000 0.000000 0.000000 0.000000 0.017455 0.000000
# 6 0.000000 0.000000 0.000000 0.000000 0.000000 0.063916
#
#
# Mechanical properties :
#
#
# Convention : Reuss Voigt Hill
#
# Bulk Modulus (GPa) = 22.91178 44.67908 33.79543
# Shear Modulus (GPa) = 37.04862 21.31514 29.18188
#
# Velocity S-wave (km/s) = 3.88269 2.94504 3.44591
# Velocity P-wave (km/s) = 5.42433 5.45385 5.43911
#
# Compressibility (1/GPa) = 0.04364567
#
# Stress axis : x y z
#
# Youngs Moduli (GPa) = 120.51449 28.74134 115.53452
#
# Poissons Ratio (x) = 0.00997 0.33800
# Poissons Ratio (y) = 0.04180 0.08988
# Poissons Ratio (z) = 0.35257 0.02236
#
# Static dielectric constant tensor:
#      x y z
#    x 2.025920 0.000000 0.000000 
#    y 0.000000 1.953950 0.000000 
#    z 0.000000 0.000000 2.154100 
# 
# From -- ./inp_files/13346.got.cif
#   From: 2010.05.17/outbox.cif.g08.bks.cpg/sg20_7_cif.got.tgz:13346.got - 2010.06.03 22:52:26.
