data_PCOD9317094
_publ_section_title
;
Structure prediction by ZEFSAII (Michael W. Deem and Ramdas Pophale) SiO2 
 PCOD9317094
Probable space group: C 2 2 21
;
_chemical_formula_sum "Si O2"
_cell_formula_units_Z 52
_cell_length_a 20.194597
_cell_length_b 8.055433
_cell_length_c 14.656861
_cell_angle_alpha 90.000000
_cell_angle_beta 90.000000
_cell_angle_gamma 90.000000
_cell_volume 2384.322790
_symmetry_space_group_name_H-M "C 2 2 21"
_symmetry_group_IT_number 20
_symmetry_cell_setting 'orthorhombic'
loop_
_space_group_symop_operation_xyz
x,y,z
-x,-y,1/2+z
x,-y,-z
-x,y,1/2-z
1/2+x,1/2+y,z
1/2-x,1/2-y,1/2+z
1/2+x,1/2-y,-z
1/2-x,1/2+y,1/2-z
loop_
_atom_site_type_symbol
_atom_site_label
_atom_site_fract_x
_atom_site_fract_y
_atom_site_fract_z
Si Si1 0.822113 0.200868 0.487283
Si Si2 0.967628 0.172336 0.554961
Si Si3 0.000000 0.025037 0.750000
Si Si4 0.106645 0.735474 0.463465
Si Si5 0.243148 0.731905 0.169051
Si Si6 0.281021 0.887077 0.848354
Si Si7 0.123204 0.082020 0.354997
O O1 0.899771 0.232546 0.507418
O O2 0.785040 0.297874 0.568300
O O3 0.779970 0.218277 0.394113
O O4 0.817283 0.000000 0.500000
O O5 0.968527 0.125066 0.663133
O O6 0.028875 0.297157 0.545494
O O7 0.984588 0.000000 0.500000
O O8 0.060550 0.918093 0.710901
O O9 0.159141 0.614018 0.419828
O O10 0.119012 0.778374 0.567754
O O11 0.120024 0.905679 0.406235
O O12 0.195583 0.693251 0.253382
O O13 0.306646 0.618335 0.189702
O O14 0.261252 0.924313 0.168885
#
# Coordination Sequence:
#
# PCOD9317094 Si02
#       7
#     8   8   4   8   8   8   8
#     4   9  21  36  56  87 119 151 196 245 294 348
#     4  10  19  34  56  90 120 148 200 248 294 343
#     4  10  20  32  60  90 118 154 200 252 290 352
#     4  10  19  37  58  90 115 154 198 252 296 356
#     4  11  23  38  60  89 117 161 199 249 299 353
#     4  11  23  39  59  90 122 157 203 246 300 357
#     4  10  20  35  60  89 117 153 200 248 300 349
#
# _framework density 21.809128999999999
#
# number of rings (size 3 to 8) (size 9 to 14) (size 15 to 20)
#    0.000    1.846    4.615    0.923   10.769    0.000 
#    0.000    0.000    3.385    0.000    8.000    0.000 
#    0.000    0.000    0.000    0.000    0.000    0.000 
#
# Total GULP energy -145019.798604 kJ/mol
# GULP energy per Si atom -5577.684562 kJ/mol
# Density = 2.175949 g / cm^3
# Si number density = 21.809129 Si / 1000 Ang^3
#
#
#
# Elastic Constant Matrix: (Units=GPa)
#
#
# Indices 1 2 3 4 5 6 
#
# 1 112.0319 13.7482 10.9152 0.0000 0.0000 0.0000
# 2 13.7482 36.4010 10.8165 0.0000 0.0000 0.0000
# 3 10.9152 10.8165 87.6778 0.0000 0.0000 0.0000
# 4 0.0000 0.0000 0.0000 25.2822 0.0000 0.0000
# 5 0.0000 0.0000 0.0000 0.0000 41.7226 0.0000
# 6 0.0000 0.0000 0.0000 0.0000 0.0000 15.6156
#
#
#
# Elastic Compliance Matrix: (Units=1/GPa)
#
#
# Indices 1 2 3 4 5 6 
#
# 1 0.009408 -0.003327 -0.000761 0.000000 0.000000 0.000000
# 2 -0.003327 0.029694 -0.003249 0.000000 0.000000 0.000000
# 3 -0.000761 -0.003249 0.011901 0.000000 0.000000 0.000000
# 4 0.000000 0.000000 0.000000 0.039554 0.000000 0.000000
# 5 0.000000 0.000000 0.000000 0.000000 0.023968 0.000000
# 6 0.000000 0.000000 0.000000 0.000000 0.000000 0.064038
#
#
# Mechanical properties :
#
#
# Convention : Reuss Voigt Hill
#
# Bulk Modulus (GPa) = 27.52628 34.11897 30.82262
# Shear Modulus (GPa) = 24.34903 29.89948 27.12426
#
# Velocity S-wave (km/s) = 3.34497 3.70667 3.53045
# Velocity P-wave (km/s) = 5.25046 5.83074 5.54819
#
# Compressibility (1/GPa) = 0.03632892
#
# Stress axis : x y z
#
# Youngs Moduli (GPa) = 106.28713 33.67695 84.02710
#
# Poissons Ratio (x) = 0.11206 0.06393
# Poissons Ratio (y) = 0.35366 0.27300
# Poissons Ratio (z) = 0.08086 0.10942
#
# Static dielectric constant tensor:
#      x y z
#    x 1.877170 0.000000 0.000000 
#    y 0.000000 1.786540 0.000000 
#    z 0.000000 0.000000 1.834990 
# 
# From -- ./inp_files/21697.got.cif
#   From: 2010.05.17/outbox.cif.g08.bks.cpg/sg20_11_cif.got.tgz:21697.got - 2010.06.03 22:52:26.
