data_PCOD9317425
_publ_section_title
;
Structure prediction by ZEFSAII (Michael W. Deem and Ramdas Pophale) SiO2 
 PCOD9317425
Probable space group: C 2 2 21
;
_chemical_formula_sum "Si O2"
_cell_formula_units_Z 64
_cell_length_a 7.710739
_cell_length_b 12.333599
_cell_length_c 27.933690
_cell_angle_alpha 90.000000
_cell_angle_beta 90.000000
_cell_angle_gamma 90.000000
_cell_volume 2656.526401
_symmetry_space_group_name_H-M "C 2 2 21"
_symmetry_group_IT_number 20
_symmetry_cell_setting 'orthorhombic'
loop_
_space_group_symop_operation_xyz
x,y,z
-x,-y,1/2+z
x,-y,-z
-x,y,1/2-z
1/2+x,1/2+y,z
1/2-x,1/2-y,1/2+z
1/2+x,1/2-y,-z
1/2-x,1/2+y,1/2-z
loop_
_atom_site_type_symbol
_atom_site_label
_atom_site_fract_x
_atom_site_fract_y
_atom_site_fract_z
Si Si1 0.844618 0.821212 0.366864
Si Si2 0.870779 0.977542 0.695102
Si Si3 0.010108 0.408112 0.646526
Si Si4 0.324196 0.789811 0.435298
Si Si5 0.829850 0.445096 0.282376
Si Si6 0.353956 0.975457 0.553637
Si Si7 0.458170 0.255269 0.664804
Si Si8 0.786236 0.737140 0.963464
O O1 0.920310 0.924962 0.340222
O O2 0.955916 0.716409 0.353327
O O3 0.645001 0.799864 0.348009
O O4 0.834170 0.824419 0.424820
O O5 0.825269 0.024384 0.747380
O O6 0.686116 0.935460 0.673380
O O7 0.985262 0.870353 0.689626
O O8 0.858379 0.475302 0.673250
O O9 0.002665 0.450926 0.592136
O O10 0.257510 0.913459 0.430705
O O11 0.348518 0.733975 0.384346
O O12 0.239074 0.728145 0.479696
O O13 0.522109 0.800268 0.452477
O O14 0.846441 0.323364 0.301490
O O15 0.000000 0.459109 0.250000
O O16 0.414804 0.000000 0.500000
O O17 0.240751 0.865090 0.550086
#
# Coordination Sequence:
#
# PCOD9317425 Si02
#       8
#     8   8   8   8   8   8   8   8
#     4  10  21  42  62  89 129 160 204 252 307 361
#     4  11  24  40  62  90 123 158 208 252 309 364
#     4  10  19  39  63  86 120 162 197 254 305 355
#     4  10  19  38  59  92 126 158 211 247 303 369
#     4  10  20  39  65  86 118 162 197 257 312 353
#     4   9  17  33  61  85 115 161 200 240 302 355
#     4  11  22  41  66  90 124 166 204 257 311 368
#     4   9  20  35  61  91 123 165 201 249 301 366
#
# _framework density 24.091611
#
# number of rings (size 3 to 8) (size 9 to 14) (size 15 to 20)
#    0.000    2.000    3.750    0.750    1.750    3.000 
#    2.250   10.625    0.000    0.000    0.000    0.000 
#    0.000    0.000    0.000    0.000    0.000    0.000 
#
# Total GULP energy -178925.317406 kJ/mol
# GULP energy per Si atom -5591.416169 kJ/mol
# Density = 2.403678 g / cm^3
# Si number density = 24.091611 Si / 1000 Ang^3
#
#
#
# Elastic Constant Matrix: (Units=GPa)
#
#
# Indices 1 2 3 4 5 6 
#
# 1 48.8262 16.2304 -5.2795 0.0000 0.0000 0.0000
# 2 16.2304 82.5141 34.7473 0.0000 0.0000 0.0000
# 3 -5.2795 34.7473 74.6856 0.0000 0.0000 0.0000
# 4 0.0000 0.0000 0.0000 41.3929 0.0000 0.0000
# 5 0.0000 0.0000 0.0000 0.0000 17.2046 0.0000
# 6 0.0000 0.0000 0.0000 0.0000 0.0000 22.0175
#
#
#
# Elastic Compliance Matrix: (Units=1/GPa)
#
#
# Indices 1 2 3 4 5 6 
#
# 1 0.023154 -0.006521 0.004671 0.000000 0.000000 0.000000
# 2 -0.006521 0.016909 -0.008328 0.000000 0.000000 0.000000
# 3 0.004671 -0.008328 0.017594 0.000000 0.000000 0.000000
# 4 0.000000 0.000000 0.000000 0.024159 0.000000 0.000000
# 5 0.000000 0.000000 0.000000 0.000000 0.058124 0.000000
# 6 0.000000 0.000000 0.000000 0.000000 0.000000 0.045418
#
#
# Mechanical properties :
#
#
# Convention : Reuss Voigt Hill
#
# Bulk Modulus (GPa) = 26.80966 33.04691 29.92828
# Shear Modulus (GPa) = 22.92031 26.81150 24.86591
#
# Velocity S-wave (km/s) = 3.08779 3.33963 3.21618
# Velocity P-wave (km/s) = 4.88518 5.34956 5.12264
#
# Compressibility (1/GPa) = 0.03729999
#
# Stress axis : x y z
#
# Youngs Moduli (GPa) = 43.18994 59.14114 56.83730
#
# Poissons Ratio (x) = 0.38567 -0.26547
# Poissons Ratio (y) = 0.28165 0.47332
# Poissons Ratio (z) = -0.20173 0.49251
#
# Static dielectric constant tensor:
#      x y z
#    x 1.996920 0.000000 0.000000 
#    y 0.000000 1.935370 0.000000 
#    z 0.000000 0.000000 1.977020 
# 
# From -- ./inp_files/31090.got.cif
#   From: 2010.05.17/outbox.cif.g08.bks.cpg/sg20_16_cif.got.tgz:31090.got - 2010.06.03 22:52:26.
