data_PCOD9317518
_publ_section_title
;
Structure prediction by ZEFSAII (Michael W. Deem and Ramdas Pophale) SiO2 
 PCOD9317518
Probable space group: C 2 2 21
;
_chemical_formula_sum "Si O2"
_cell_formula_units_Z 56
_cell_length_a 6.229420
_cell_length_b 29.896867
_cell_length_c 13.642399
_cell_angle_alpha 90.000000
_cell_angle_beta 90.000000
_cell_angle_gamma 90.000000
_cell_volume 2540.762316
_symmetry_space_group_name_H-M "C 2 2 21"
_symmetry_group_IT_number 20
_symmetry_cell_setting 'orthorhombic'
loop_
_space_group_symop_operation_xyz
x,y,z
-x,-y,1/2+z
x,-y,-z
-x,y,1/2-z
1/2+x,1/2+y,z
1/2-x,1/2-y,1/2+z
1/2+x,1/2-y,-z
1/2-x,1/2+y,1/2-z
loop_
_atom_site_type_symbol
_atom_site_label
_atom_site_fract_x
_atom_site_fract_y
_atom_site_fract_z
Si Si1 0.329855 0.891183 0.490262
Si Si2 0.935516 0.470339 0.357702
Si Si3 0.078149 0.804853 0.447081
Si Si4 0.843842 0.727314 0.379561
Si Si5 0.610148 0.553289 0.356256
Si Si6 0.804335 0.000000 0.500000
Si Si7 0.500000 0.324153 0.750000
Si Si8 0.708885 0.845542 0.581567
O O1 0.307512 0.932972 0.418060
O O2 0.235257 0.847426 0.435910
O O3 0.208015 0.902703 0.591886
O O4 0.574338 0.883413 0.525676
O O5 0.148498 0.478117 0.420323
O O6 0.000000 0.454875 0.250000
O O7 0.800635 0.516213 0.349849
O O8 0.218015 0.771908 0.516346
O O9 0.968238 0.773934 0.365084
O O10 0.878812 0.824882 0.506946
O O11 0.663593 0.708967 0.306553
O O12 0.025543 0.689565 0.387517
O O13 0.500000 0.556261 0.250000
O O14 0.446385 0.533929 0.436900
O O15 0.348790 0.353374 0.678844
#
# Coordination Sequence:
#
# PCOD9317518 Si02
#       8
#     8   8   8   8   8   4   4   8
#     4  11  25  43  69 109 148 180 235 298 362 415
#     4  12  25  46  77 101 139 190 237 291 359 435
#     4  10  21  39  70  93 130 189 224 285 348 416
#     4  10  19  40  66  92 129 177 242 276 349 414
#     4  12  25  46  73 110 138 186 237 289 362 438
#     4  12  22  44  76  96 136 180 232 288 350 430
#     4  10  22  38  66  96 132 186 240 294 342 426
#     4  10  22  42  65  97 135 185 224 292 358 411
#
# _framework density 22.040627000000001
#
# number of rings (size 3 to 8) (size 9 to 14) (size 15 to 20)
#    0.000    1.143    5.714    0.429    2.000    0.000 
#   14.143    1.429    9.429    0.000    0.000    0.000 
#    0.000    0.000    0.000    0.000    0.000    0.000 
#
# Total GULP energy -156413.564792 kJ/mol
# GULP energy per Si atom -5586.198743 kJ/mol
# Density = 2.199046 g / cm^3
# Si number density = 22.040627 Si / 1000 Ang^3
#
#
#
# Elastic Constant Matrix: (Units=GPa)
#
#
# Indices 1 2 3 4 5 6 
#
# 1 114.3507 25.1834 39.8657 0.0000 0.0000 0.0000
# 2 25.1834 78.6888 18.5202 0.0000 0.0000 0.0000
# 3 39.8657 18.5202 106.7221 0.0000 0.0000 0.0000
# 4 0.0000 0.0000 0.0000 17.9704 0.0000 0.0000
# 5 0.0000 0.0000 0.0000 0.0000 39.8819 0.0000
# 6 0.0000 0.0000 0.0000 0.0000 0.0000 41.7195
#
#
#
# Elastic Compliance Matrix: (Units=1/GPa)
#
#
# Indices 1 2 3 4 5 6 
#
# 1 0.010522 -0.002546 -0.003489 0.000000 0.000000 0.000000
# 2 -0.002546 0.013866 -0.001455 0.000000 0.000000 0.000000
# 3 -0.003489 -0.001455 0.010926 0.000000 0.000000 0.000000
# 4 0.000000 0.000000 0.000000 0.055647 0.000000 0.000000
# 5 0.000000 0.000000 0.000000 0.000000 0.025074 0.000000
# 6 0.000000 0.000000 0.000000 0.000000 0.000000 0.023970
#
#
# Mechanical properties :
#
#
# Convention : Reuss Voigt Hill
#
# Bulk Modulus (GPa) = 49.17982 51.87781 50.52882
# Shear Modulus (GPa) = 30.90965 34.32720 32.61842
#
# Velocity S-wave (km/s) = 3.74892 3.95074 3.85115
# Velocity P-wave (km/s) = 6.41100 6.66330 6.53836
#
# Compressibility (1/GPa) = 0.02033354
#
# Stress axis : x y z
#
# Youngs Moduli (GPa) = 95.03875 72.12051 91.52667
#
# Poissons Ratio (x) = 0.18365 0.31930
# Poissons Ratio (y) = 0.24200 0.13317
# Poissons Ratio (z) = 0.33155 0.10494
#
# Static dielectric constant tensor:
#      x y z
#    x 1.815650 0.000000 0.000000 
#    y 0.000000 1.841070 0.000000 
#    z 0.000000 0.000000 1.829760 
# 
# From -- ./inp_files/17998.got.cif
#   From: 2010.05.17/outbox.cif.g08.bks.cpg/sg20_9_cif.got.tgz:17998.got - 2010.06.03 22:52:26.
