data_PCOD9317389
_publ_section_title
;
Structure prediction by ZEFSAII (Michael W. Deem and Ramdas Pophale) SiO2 
 PCOD9317389
Probable space group: C 2 2 21
;
_chemical_formula_sum "Si O2"
_cell_formula_units_Z 60
_cell_length_a 10.115136
_cell_length_b 15.041845
_cell_length_c 20.631079
_cell_angle_alpha 90.000000
_cell_angle_beta 90.000000
_cell_angle_gamma 90.000000
_cell_volume 3139.025021
_symmetry_space_group_name_H-M "C 2 2 21"
_symmetry_group_IT_number 20
_symmetry_cell_setting 'orthorhombic'
loop_
_space_group_symop_operation_xyz
x,y,z
-x,-y,1/2+z
x,-y,-z
-x,y,1/2-z
1/2+x,1/2+y,z
1/2-x,1/2-y,1/2+z
1/2+x,1/2-y,-z
1/2-x,1/2+y,1/2-z
loop_
_atom_site_type_symbol
_atom_site_label
_atom_site_fract_x
_atom_site_fract_y
_atom_site_fract_z
Si Si1 0.250770 0.226407 0.386836
Si Si2 0.247081 0.176986 0.146379
Si Si3 0.368262 0.000000 0.000000
Si Si4 0.662272 0.307249 0.246969
Si Si5 0.513833 0.322007 0.956392
Si Si6 0.140373 0.917934 0.068211
Si Si7 0.504110 0.162732 0.443690
Si Si8 0.119035 0.001101 0.798389
O O1 0.278437 0.249777 0.312342
O O2 0.110996 0.186124 0.408293
O O3 0.290286 0.321630 0.419764
O O4 0.360998 0.159335 0.412670
O O5 0.269154 0.263661 0.190822
O O6 0.388026 0.163697 0.112588
O O7 0.141076 0.192458 0.089041
O O8 0.200173 0.088564 0.185489
O O9 0.459860 0.917759 0.989006
O O10 0.265452 0.017913 0.942413
O O11 0.500000 0.299245 0.250000
O O12 0.689784 0.412133 0.233829
O O13 0.551498 0.404365 0.003901
O O14 0.485864 0.247821 0.010422
O O15 0.070680 0.955858 0.132528
O O16 0.000000 0.977999 0.750000
#
# Coordination Sequence:
#
# PCOD9317389 Si02
#       8
#     8   8   4   8   8   8   8   8
#     4  10  21  38  60  92 128 165 212 272 324 391
#     4  12  23  41  72  95 132 181 224 273 341 408
#     4  12  18  38  62  94 120 176 216 268 332 412
#     4  10  22  42  68  92 129 181 223 272 337 405
#     4  11  22  37  65 101 127 165 222 275 331 399
#     4  10  19  37  63  90 127 171 215 265 338 398
#     4  11  21  39  64  93 126 172 218 268 336 403
#     4  10  23  41  64 101 131 175 231 276 325 412
#
# _framework density 19.114215000000002
#
# number of rings (size 3 to 8) (size 9 to 14) (size 15 to 20)
#    0.000    1.333    5.333    0.800    3.733    0.000 
#    0.000    3.333    5.867    0.000    0.000    0.000 
#    0.000    0.000    0.000    0.000    0.000    0.000 
#
# Total GULP energy -167094.926580 kJ/mol
# GULP energy per Si atom -5569.830886 kJ/mol
# Density = 1.907071 g / cm^3
# Si number density = 19.114215 Si / 1000 Ang^3
#
#
#
# Elastic Constant Matrix: (Units=GPa)
#
#
# Indices 1 2 3 4 5 6 
#
# 1 52.5020 7.9096 9.2188 0.0000 0.0000 0.0000
# 2 7.9096 93.9322 21.6275 0.0000 0.0000 0.0000
# 3 9.2188 21.6275 66.6630 0.0000 0.0000 0.0000
# 4 0.0000 0.0000 0.0000 30.1877 0.0000 0.0000
# 5 0.0000 0.0000 0.0000 0.0000 36.0921 0.0000
# 6 0.0000 0.0000 0.0000 0.0000 0.0000 22.9634
#
#
#
# Elastic Compliance Matrix: (Units=1/GPa)
#
#
# Indices 1 2 3 4 5 6 
#
# 1 0.019628 -0.001111 -0.002354 0.000000 0.000000 0.000000
# 2 -0.001111 0.011568 -0.003599 0.000000 0.000000 0.000000
# 3 -0.002354 -0.003599 0.016494 0.000000 0.000000 0.000000
# 4 0.000000 0.000000 0.000000 0.033126 0.000000 0.000000
# 5 0.000000 0.000000 0.000000 0.000000 0.027707 0.000000
# 6 0.000000 0.000000 0.000000 0.000000 0.000000 0.043548
#
#
# Mechanical properties :
#
#
# Convention : Reuss Voigt Hill
#
# Bulk Modulus (GPa) = 29.79596 32.28990 31.04293
# Shear Modulus (GPa) = 28.18711 29.47139 28.82925
#
# Velocity S-wave (km/s) = 3.84431 3.93091 3.88785
# Velocity P-wave (km/s) = 5.94366 6.12638 6.03571
#
# Compressibility (1/GPa) = 0.03356159
#
# Stress axis : x y z
#
# Youngs Moduli (GPa) = 50.94878 86.44323 60.62764
#
# Poissons Ratio (x) = 0.09602 0.14271
# Poissons Ratio (y) = 0.05659 0.21823
# Poissons Ratio (z) = 0.11993 0.31115
#
# Static dielectric constant tensor:
#      x y z
#    x 1.631300 0.000000 0.000000 
#    y 0.000000 1.634030 0.000000 
#    z 0.000000 0.000000 1.679760 
# 
# From -- ./inp_files/27327.got.cif
#   From: 2010.05.17/outbox.cif.g08.bks.cpg/sg20_14_cif.got.tgz:27327.got - 2010.06.03 22:52:26.
