data_PCOD9317915
_publ_section_title
;
Structure prediction by ZEFSAII (Michael W. Deem and Ramdas Pophale) SiO2 
 PCOD9317915
Probable space group: C 2 2 21
;
_chemical_formula_sum "Si O2"
_cell_formula_units_Z 48
_cell_length_a 8.762871
_cell_length_b 10.856491
_cell_length_c 20.298598
_cell_angle_alpha 90.000000
_cell_angle_beta 90.000000
_cell_angle_gamma 90.000000
_cell_volume 1931.087434
_symmetry_space_group_name_H-M "C 2 2 21"
_symmetry_group_IT_number 20
_symmetry_cell_setting 'orthorhombic'
loop_
_space_group_symop_operation_xyz
x,y,z
-x,-y,1/2+z
x,-y,-z
-x,y,1/2-z
1/2+x,1/2+y,z
1/2-x,1/2-y,1/2+z
1/2+x,1/2-y,-z
1/2-x,1/2+y,1/2-z
loop_
_atom_site_type_symbol
_atom_site_label
_atom_site_fract_x
_atom_site_fract_y
_atom_site_fract_z
Si Si1 0.010130 0.292901 0.859522
Si Si2 0.760650 0.216581 0.538471
Si Si3 0.211424 0.304231 0.106068
Si Si4 0.422878 0.465638 0.929282
Si Si5 0.075694 0.436363 0.361449
Si Si6 0.615349 0.553504 0.806570
O O1 0.834938 0.258796 0.847991
O O2 0.018072 0.437554 0.862428
O O3 0.073807 0.242381 0.929331
O O4 0.102135 0.202827 0.812374
O O5 0.787177 0.223284 0.460650
O O6 0.658793 0.334092 0.562224
O O7 0.673886 0.101517 0.572817
O O8 0.289502 0.433548 0.084380
O O9 0.052148 0.330881 0.140853
O O10 0.543669 0.485841 0.870853
O O11 0.493301 0.500000 0.000000
O O12 0.202955 0.459750 0.305582
O O13 0.500000 0.513434 0.750000
#
# Coordination Sequence:
#
# PCOD9317915 Si02
#       6
#     8   8   8   8   8   8
#     4  10  22  42  60  92 129 174 220 278 331 406
#     4  10  20  36  61  96 137 170 211 271 336 406
#     4  10  20  36  62  94 133 172 216 267 333 407
#     4   9  19  40  66  96 135 175 218 285 345 409
#     4  11  23  40  64  97 126 178 226 274 341 406
#     4  10  24  48  65  94 135 177 235 295 348 415
#
# _framework density 24.856462000000001
#
# number of rings (size 3 to 8) (size 9 to 14) (size 15 to 20)
#    0.000    2.000    1.667    1.000    2.333    3.333 
#    9.000    3.333    0.000    1.000    0.000    0.000 
#    0.000    0.000    0.000    0.000    0.000    0.000 
#
# Total GULP energy -134011.440166 kJ/mol
# GULP energy per Si atom -5583.810007 kJ/mol
# Density = 2.479989 g / cm^3
# Si number density = 24.856462 Si / 1000 Ang^3
#
#
#
# Elastic Constant Matrix: (Units=GPa)
#
#
# Indices 1 2 3 4 5 6 
#
# 1 100.5253 4.8953 -1.7758 0.0000 0.0000 0.0000
# 2 4.8953 100.2867 11.9444 0.0000 0.0000 0.0000
# 3 -1.7758 11.9444 43.2678 0.0000 0.0000 0.0000
# 4 0.0000 0.0000 0.0000 4.8023 0.0000 0.0000
# 5 0.0000 0.0000 0.0000 0.0000 20.4620 0.0000
# 6 0.0000 0.0000 0.0000 0.0000 0.0000 22.9761
#
#
#
# Elastic Compliance Matrix: (Units=1/GPa)
#
#
# Indices 1 2 3 4 5 6 
#
# 1 0.009985 -0.000554 0.000563 0.000000 0.000000 0.000000
# 2 -0.000554 0.010341 -0.002878 0.000000 0.000000 0.000000
# 3 0.000563 -0.002878 0.023929 0.000000 0.000000 0.000000
# 4 0.000000 0.000000 0.000000 0.208235 0.000000 0.000000
# 5 0.000000 0.000000 0.000000 0.000000 0.048871 0.000000
# 6 0.000000 0.000000 0.000000 0.000000 0.000000 0.043524
#
#
# Mechanical properties :
#
#
# Convention : Reuss Voigt Hill
#
# Bulk Modulus (GPa) = 25.96254 30.46750 28.21502
# Shear Modulus (GPa) = 13.75659 24.91580 19.33619
#
# Velocity S-wave (km/s) = 2.35509 3.16948 2.79214
# Velocity P-wave (km/s) = 4.22645 5.06736 4.66589
#
# Compressibility (1/GPa) = 0.03851703
#
# Stress axis : x y z
#
# Youngs Moduli (GPa) = 100.15338 96.70058 41.78973
#
# Poissons Ratio (x) = 0.05361 -0.02352
# Poissons Ratio (y) = 0.05553 0.12025
# Poissons Ratio (z) = -0.05637 0.27826
#
# Static dielectric constant tensor:
#      x y z
#    x 2.019900 0.000000 0.000000 
#    y 0.000000 2.065700 0.000000 
#    z 0.000000 0.000000 2.066020 
# 
# From -- ./inp_files/28715.got.cif
#   From: 2010.05.17/outbox.cif.g08.bks.cpg/sg20_15_cif.got.tgz:28715.got - 2010.06.03 22:52:26.
