data_PCOD9317311
_publ_section_title
;
Structure prediction by ZEFSAII (Michael W. Deem and Ramdas Pophale) SiO2 
 PCOD9317311
Probable space group: C 2 2 21
;
_chemical_formula_sum "Si O2"
_cell_formula_units_Z 52
_cell_length_a 16.117677
_cell_length_b 8.461238
_cell_length_c 20.188045
_cell_angle_alpha 90.000000
_cell_angle_beta 90.000000
_cell_angle_gamma 90.000000
_cell_volume 2753.154753
_symmetry_space_group_name_H-M "C 2 2 21"
_symmetry_group_IT_number 20
_symmetry_cell_setting 'orthorhombic'
loop_
_space_group_symop_operation_xyz
x,y,z
-x,-y,1/2+z
x,-y,-z
-x,y,1/2-z
1/2+x,1/2+y,z
1/2-x,1/2-y,1/2+z
1/2+x,1/2-y,-z
1/2-x,1/2+y,1/2-z
loop_
_atom_site_type_symbol
_atom_site_label
_atom_site_fract_x
_atom_site_fract_y
_atom_site_fract_z
Si Si1 0.251136 0.000000 0.000000
Si Si2 0.026645 0.624299 0.175470
Si Si3 0.263591 0.520216 0.922286
Si Si4 0.312771 0.295484 0.384728
Si Si5 0.141884 0.693997 0.391946
Si Si6 0.346057 0.866947 0.315129
Si Si7 0.762094 0.934045 0.715977
O O1 0.193986 0.111254 0.954089
O O2 0.311057 0.900370 0.950610
O O3 0.101121 0.720058 0.139849
O O4 0.064709 0.448584 0.185320
O O5 0.000000 0.679551 0.250000
O O6 0.949582 0.636517 0.125614
O O7 0.254004 0.345401 0.892704
O O8 0.346227 0.620339 0.907314
O O9 0.190112 0.627423 0.889871
O O10 0.252240 0.500000 0.000000
O O11 0.289567 0.420543 0.328914
O O12 0.191580 0.659287 0.324352
O O13 0.334657 0.696853 0.280786
O O14 0.283085 0.986794 0.277645
#
# Coordination Sequence:
#
# PCOD9317311 Si02
#       7
#     4   8   8   8   8   8   8
#     4  10  20  42  60  88 116 166 212 252 300 386
#     4  11  22  41  59  91 128 159 195 266 322 363
#     4  10  19  36  61  90 113 164 211 253 294 378
#     4  10  22  39  64  89 124 159 215 258 305 373
#     4  10  21  38  62  87 124 158 208 257 316 364
#     4  10  20  36  63  86 119 156 209 253 311 369
#     4  10  20  38  64  91 111 166 212 255 300 379
#
# _framework density 18.887423999999999
#
# number of rings (size 3 to 8) (size 9 to 14) (size 15 to 20)
#    0.000    1.846    3.077    1.846    2.154    0.000 
#    6.923    3.846    0.000    0.000    0.000    0.000 
#    0.000    0.000    0.000    0.000    0.000    0.000 
#
# Total GULP energy -144789.113895 kJ/mol
# GULP energy per Si atom -5568.812073 kJ/mol
# Density = 1.884444 g / cm^3
# Si number density = 18.887424 Si / 1000 Ang^3
#
#
#
# Elastic Constant Matrix: (Units=GPa)
#
#
# Indices 1 2 3 4 5 6 
#
# 1 92.1184 41.6087 34.3971 0.0000 0.0000 0.0000
# 2 41.6087 117.6973 35.0805 0.0000 0.0000 0.0000
# 3 34.3971 35.0805 100.8973 0.0000 0.0000 0.0000
# 4 0.0000 0.0000 0.0000 29.4509 0.0000 0.0000
# 5 0.0000 0.0000 0.0000 0.0000 26.3079 0.0000
# 6 0.0000 0.0000 0.0000 0.0000 0.0000 12.5187
#
#
#
# Elastic Compliance Matrix: (Units=1/GPa)
#
#
# Indices 1 2 3 4 5 6 
#
# 1 0.013877 -0.003900 -0.003375 0.000000 0.000000 0.000000
# 2 -0.003900 0.010575 -0.002347 0.000000 0.000000 0.000000
# 3 -0.003375 -0.002347 0.011878 0.000000 0.000000 0.000000
# 4 0.000000 0.000000 0.000000 0.033955 0.000000 0.000000
# 5 0.000000 0.000000 0.000000 0.000000 0.038011 0.000000
# 6 0.000000 0.000000 0.000000 0.000000 0.000000 0.079881
#
#
# Mechanical properties :
#
#
# Convention : Reuss Voigt Hill
#
# Bulk Modulus (GPa) = 58.52900 59.20951 58.86926
# Shear Modulus (GPa) = 23.46137 26.96394 25.21265
#
# Velocity S-wave (km/s) = 3.52827 3.78248 3.65758
# Velocity P-wave (km/s) = 6.90318 7.10583 7.00524
#
# Compressibility (1/GPa) = 0.01708555
#
# Stress axis : x y z
#
# Youngs Moduli (GPa) = 72.05951 94.56539 84.19148
#
# Poissons Ratio (x) = 0.36881 0.28415
# Poissons Ratio (y) = 0.28104 0.19761
# Poissons Ratio (z) = 0.24320 0.22195
#
# Static dielectric constant tensor:
#      x y z
#    x 1.657740 0.000000 0.000000 
#    y 0.000000 1.718060 0.000000 
#    z 0.000000 0.000000 1.713260 
# 
# From -- ./inp_files/25212.got.cif
#   From: 2010.05.17/outbox.cif.g08.bks.cpg/sg20_13_cif.got.tgz:25212.got - 2010.06.03 22:52:26.
