data_PCOD9317875
_publ_section_title
;
Structure prediction by ZEFSAII (Michael W. Deem and Ramdas Pophale) SiO2 
 PCOD9317875
Probable space group: C 2 2 21
;
_chemical_formula_sum "Si O2"
_cell_formula_units_Z 60
_cell_length_a 21.839786
_cell_length_b 17.397471
_cell_length_c 7.933657
_cell_angle_alpha 90.000000
_cell_angle_beta 90.000000
_cell_angle_gamma 90.000000
_cell_volume 3014.448859
_symmetry_space_group_name_H-M "C 2 2 21"
_symmetry_group_IT_number 20
_symmetry_cell_setting 'orthorhombic'
loop_
_space_group_symop_operation_xyz
x,y,z
-x,-y,1/2+z
x,-y,-z
-x,y,1/2-z
1/2+x,1/2+y,z
1/2-x,1/2-y,1/2+z
1/2+x,1/2-y,-z
1/2-x,1/2+y,1/2-z
loop_
_atom_site_type_symbol
_atom_site_label
_atom_site_fract_x
_atom_site_fract_y
_atom_site_fract_z
Si Si1 0.132518 0.000000 0.000000
Si Si2 0.701695 0.822065 0.030603
Si Si3 0.410315 0.915649 0.585290
Si Si4 0.717511 0.646397 0.043117
Si Si5 0.655408 0.167958 0.590217
Si Si6 0.938562 0.950478 0.834675
Si Si7 0.828535 0.159877 0.075308
Si Si8 0.539121 0.088906 0.466395
O O1 0.174155 0.076929 0.984611
O O2 0.093660 0.007450 0.173850
O O3 0.706924 0.732973 0.969875
O O4 0.675190 0.824911 0.217387
O O5 0.652483 0.869333 0.925012
O O6 0.769555 0.858848 0.037947
O O7 0.433243 0.912905 0.777841
O O8 0.471289 0.876954 0.502704
O O9 0.400723 0.000000 0.500000
O O10 0.702643 0.657486 0.239792
O O11 0.788383 0.628143 0.007347
O O12 0.650169 0.255077 0.524679
O O13 0.591687 0.125256 0.577579
O O14 0.887194 0.893534 0.908657
O O15 0.000000 0.915680 0.750000
O O16 0.956220 0.000000 0.000000
O O17 0.529733 0.000000 0.500000
#
# Coordination Sequence:
#
# PCOD9317875 Si02
#       8
#     4   8   8   8   8   8   8   8
#     4  10  22  42  64  94 120 162 214 258 326 374
#     4  10  20  37  60  88 120 155 199 250 314 358
#     4  10  21  38  57  82 119 156 198 244 289 358
#     4   9  20  38  61  84 121 156 199 253 305 369
#     4  10  20  36  59  90 120 158 193 247 304 367
#     4  11  23  43  66  90 123 166 210 269 320 381
#     4   9  21  40  59  87 120 157 197 254 307 369
#     4  10  21  37  57  82 116 157 196 239 292 355
#
# _framework density 19.904136000000001
#
# number of rings (size 3 to 8) (size 9 to 14) (size 15 to 20)
#    0.000    2.133    0.667    1.600    2.800    3.200 
#    9.600    0.000    0.000    0.000    0.000    0.000 
#    0.000    0.000    0.000    0.000    0.000    0.000 
#
# Total GULP energy -167107.252493 kJ/mol
# GULP energy per Si atom -5570.241750 kJ/mol
# Density = 1.985883 g / cm^3
# Si number density = 19.904136 Si / 1000 Ang^3
#
#
#
# Elastic Constant Matrix: (Units=GPa)
#
#
# Indices 1 2 3 4 5 6 
#
# 1 114.7425 41.2960 18.0722 0.0000 0.0000 0.0000
# 2 41.2960 44.9303 11.1963 0.0000 0.0000 0.0000
# 3 18.0722 11.1963 38.8925 0.0000 0.0000 0.0000
# 4 0.0000 0.0000 0.0000 20.7731 0.0000 0.0000
# 5 0.0000 0.0000 0.0000 0.0000 222.4021 0.0000
# 6 0.0000 0.0000 0.0000 0.0000 0.0000 15.2527
#
#
#
# Elastic Compliance Matrix: (Units=1/GPa)
#
#
# Indices 1 2 3 4 5 6 
#
# 1 0.013314 -0.011522 -0.002870 0.000000 0.000000 0.000000
# 2 -0.011522 0.033948 -0.004419 0.000000 0.000000 0.000000
# 3 -0.002870 -0.004419 0.028317 0.000000 0.000000 0.000000
# 4 0.000000 0.000000 0.000000 0.048139 0.000000 0.000000
# 5 0.000000 0.000000 0.000000 0.000000 0.004496 0.000000
# 6 0.000000 0.000000 0.000000 0.000000 0.000000 0.065562
#
#
# Mechanical properties :
#
#
# Convention : Reuss Voigt Hill
#
# Bulk Modulus (GPa) = 26.34480 37.74380 32.04430
# Shear Modulus (GPa) = 20.48755 60.21894 40.35325
#
# Velocity S-wave (km/s) = 3.21177 5.50638 4.50753
# Velocity P-wave (km/s) = 5.19793 7.70914 6.57455
#
# Compressibility (1/GPa) = 0.03795816
#
# Stress axis : x y z
#
# Youngs Moduli (GPa) = 75.10955 29.45706 35.31386
#
# Poissons Ratio (x) = 0.33940 0.10134
# Poissons Ratio (y) = 0.86540 0.15605
# Poissons Ratio (z) = 0.21554 0.13017
#
# Static dielectric constant tensor:
#      x y z
#    x 1.733690 0.000000 0.000000 
#    y 0.000000 1.680780 0.000000 
#    z 0.000000 0.000000 1.752990 
# 
# From -- ./inp_files/9574.got.cif
#   From: 2010.05.17/outbox.cif.g08.bks.cpg/sg20_5_cif.got.tgz:9574.got - 2010.06.03 22:52:26.
