data_PCOD9317116
_publ_section_title
;
Structure prediction by ZEFSAII (Michael W. Deem and Ramdas Pophale) SiO2 
 PCOD9317116
Probable space group: C 2 2 21
;
_chemical_formula_sum "Si O2"
_cell_formula_units_Z 64
_cell_length_a 11.505926
_cell_length_b 16.926608
_cell_length_c 15.934126
_cell_angle_alpha 90.000000
_cell_angle_beta 90.000000
_cell_angle_gamma 90.000000
_cell_volume 3103.271409
_symmetry_space_group_name_H-M "C 2 2 21"
_symmetry_group_IT_number 20
_symmetry_cell_setting 'orthorhombic'
loop_
_space_group_symop_operation_xyz
x,y,z
-x,-y,1/2+z
x,-y,-z
-x,y,1/2-z
1/2+x,1/2+y,z
1/2-x,1/2-y,1/2+z
1/2+x,1/2-y,-z
1/2-x,1/2+y,1/2-z
loop_
_atom_site_type_symbol
_atom_site_label
_atom_site_fract_x
_atom_site_fract_y
_atom_site_fract_z
Si Si1 0.966433 0.356797 0.650496
Si Si2 0.208247 0.237851 0.805089
Si Si3 0.460864 0.379408 0.384493
Si Si4 0.865772 0.188857 0.441525
Si Si5 0.341224 0.269267 0.114851
Si Si6 0.702327 0.481493 0.901232
Si Si7 0.536728 0.196792 0.652170
Si Si8 0.457263 0.976957 0.153702
O O1 0.840265 0.317539 0.652814
O O2 0.000000 0.358011 0.750000
O O3 0.056413 0.296003 0.608034
O O4 0.982827 0.444746 0.616542
O O5 0.106079 0.173516 0.816369
O O6 0.220166 0.244432 0.704990
O O7 0.325624 0.209681 0.847111
O O8 0.410498 0.346499 0.471849
O O9 0.595486 0.354124 0.385457
O O10 0.411943 0.467825 0.376449
O O11 0.757912 0.248753 0.451213
O O12 0.820501 0.111477 0.391675
O O13 0.968197 0.236296 0.396985
O O14 0.818420 0.508467 0.852781
O O15 0.725140 0.500000 0.000000
O O16 0.500000 0.199589 0.750000
O O17 0.513190 0.108797 0.617028
O O18 0.500000 0.973078 0.250000
#
# Coordination Sequence:
#
# PCOD9317116 Si02
#       8
#     8   8   8   8   8   8   8   8
#     4   8  16  31  56  82 104 145 188 230 273 330
#     4  10  19  37  59  83 117 150 195 238 290 348
#     4  10  22  37  61  85 112 156 200 238 289 349
#     4  11  23  37  60  87 118 153 194 246 296 351
#     4  10  19  36  61  85 112 150 198 239 283 351
#     4  10  21  39  58  83 118 160 197 237 291 356
#     4  11  22  36  56  87 122 151 187 247 304 341
#     4  10  19  34  58  85 115 150 194 243 282 338
#
# _framework density 20.623398000000002
#
# number of rings (size 3 to 8) (size 9 to 14) (size 15 to 20)
#    0.000    2.000    3.750    1.125    1.750    0.000 
#    0.000    2.500    2.750    0.000    0.000    0.000 
#    0.000    0.000    0.000    0.000    0.000    0.000 
#
# Total GULP energy -178537.398974 kJ/mol
# GULP energy per Si atom -5579.293718 kJ/mol
# Density = 2.057646 g / cm^3
# Si number density = 20.623398 Si / 1000 Ang^3
#
#
#
# Elastic Constant Matrix: (Units=GPa)
#
#
# Indices 1 2 3 4 5 6 
#
# 1 80.5971 28.3359 6.7224 0.0000 0.0000 0.0000
# 2 28.3359 101.0484 12.7694 0.0000 0.0000 0.0000
# 3 6.7224 12.7694 33.9321 0.0000 0.0000 0.0000
# 4 0.0000 0.0000 0.0000 16.2549 0.0000 0.0000
# 5 0.0000 0.0000 0.0000 0.0000 15.2735 0.0000
# 6 0.0000 0.0000 0.0000 0.0000 0.0000 30.0610
#
#
#
# Elastic Compliance Matrix: (Units=1/GPa)
#
#
# Indices 1 2 3 4 5 6 
#
# 1 0.013823 -0.003706 -0.001344 0.000000 0.000000 0.000000
# 2 -0.003706 0.011384 -0.003550 0.000000 0.000000 0.000000
# 3 -0.001344 -0.003550 0.031073 0.000000 0.000000 0.000000
# 4 0.000000 0.000000 0.000000 0.061520 0.000000 0.000000
# 5 0.000000 0.000000 0.000000 0.000000 0.065473 0.000000
# 6 0.000000 0.000000 0.000000 0.000000 0.000000 0.033266
#
#
# Mechanical properties :
#
#
# Convention : Reuss Voigt Hill
#
# Bulk Modulus (GPa) = 25.58869 34.58145 30.08507
# Shear Modulus (GPa) = 20.26227 23.50120 21.88174
#
# Velocity S-wave (km/s) = 3.13787 3.37937 3.26086
# Velocity P-wave (km/s) = 5.05597 5.65962 5.36629
#
# Compressibility (1/GPa) = 0.03907976
#
# Stress axis : x y z
#
# Youngs Moduli (GPa) = 72.34578 87.84139 32.18257
#
# Poissons Ratio (x) = 0.32557 0.04324
# Poissons Ratio (y) = 0.26813 0.11424
# Poissons Ratio (z) = 0.09721 0.31182
#
# Static dielectric constant tensor:
#      x y z
#    x 1.747340 0.000000 0.000000 
#    y 0.000000 1.770250 0.000000 
#    z 0.000000 0.000000 1.788300 
# 
# From -- ./inp_files/24521.got.cif
#   From: 2010.05.17/outbox.cif.g08.bks.cpg/sg20_13_cif.got.tgz:24521.got - 2010.06.03 22:52:26.
