data_PCOD9317528
_publ_section_title
;
Structure prediction by ZEFSAII (Michael W. Deem and Ramdas Pophale) SiO2 
 PCOD9317528
Probable space group: C 2 2 21
;
_chemical_formula_sum "Si O2"
_cell_formula_units_Z 48
_cell_length_a 8.175853
_cell_length_b 31.979974
_cell_length_c 8.431736
_cell_angle_alpha 90.000000
_cell_angle_beta 90.000000
_cell_angle_gamma 90.000000
_cell_volume 2204.591765
_symmetry_space_group_name_H-M "C 2 2 21"
_symmetry_group_IT_number 20
_symmetry_cell_setting 'orthorhombic'
loop_
_space_group_symop_operation_xyz
x,y,z
-x,-y,1/2+z
x,-y,-z
-x,y,1/2-z
1/2+x,1/2+y,z
1/2-x,1/2-y,1/2+z
1/2+x,1/2-y,-z
1/2-x,1/2+y,1/2-z
loop_
_atom_site_type_symbol
_atom_site_label
_atom_site_fract_x
_atom_site_fract_y
_atom_site_fract_z
Si Si1 0.950128 0.880608 0.422871
Si Si2 0.764386 0.544166 0.985640
Si Si3 0.310894 0.128531 0.456469
Si Si4 0.500000 0.912463 0.250000
Si Si5 0.260136 0.705373 0.654708
Si Si6 0.403069 0.784872 0.494889
Si Si7 0.000000 0.564486 0.250000
O O1 0.849616 0.915849 0.514665
O O2 0.843726 0.839062 0.385949
O O3 0.000000 0.898260 0.250000
O O4 0.119169 0.871172 0.509671
O O5 0.860604 0.558593 0.827498
O O6 0.672918 0.500000 0.000000
O O7 0.906128 0.539397 0.116416
O O8 0.414336 0.116468 0.616264
O O9 0.361284 0.174564 0.401993
O O10 0.367176 0.093975 0.333323
O O11 0.372880 0.742337 0.587998
O O12 0.216434 0.711176 0.840387
O O13 0.086907 0.710501 0.566873
#
# Coordination Sequence:
#
# PCOD9317528 Si02
#       7
#     8   8   8   4   8   8   4
#     4  12  23  43  70  96 131 183 220 270 332 409
#     4  11  23  43  67 100 131 172 226 277 339 400
#     4  11  22  42  67  96 132 174 220 262 334 393
#     4  10  19  40  70  90 132 180 218 262 331 408
#     4  11  24  40  65  95 131 169 226 266 332 389
#     4  11  23  40  63  96 130 175 217 278 316 395
#     4  10  25  44  66 100 134 172 216 288 331 390
#
# _framework density 21.772738
#
# number of rings (size 3 to 8) (size 9 to 14) (size 15 to 20)
#    0.000    1.000    3.333    4.500    0.000    3.333 
#    3.000    0.833    0.000    0.000    0.000    0.000 
#    0.000    0.000    0.000    0.000    0.000    0.000 
#
# Total GULP energy -134227.119296 kJ/mol
# GULP energy per Si atom -5592.796637 kJ/mol
# Density = 2.172318 g / cm^3
# Si number density = 21.772738 Si / 1000 Ang^3
#
#
#
# Elastic Constant Matrix: (Units=GPa)
#
#
# Indices 1 2 3 4 5 6 
#
# 1 102.5424 26.0083 18.3167 0.0000 0.0000 0.0000
# 2 26.0083 127.9946 13.9178 0.0000 0.0000 0.0000
# 3 18.3167 13.9178 42.8389 0.0000 0.0000 0.0000
# 4 0.0000 0.0000 0.0000 14.5302 0.0000 0.0000
# 5 0.0000 0.0000 0.0000 0.0000 31.2145 0.0000
# 6 0.0000 0.0000 0.0000 0.0000 0.0000 24.7728
#
#
#
# Elastic Compliance Matrix: (Units=1/GPa)
#
#
# Indices 1 2 3 4 5 6 
#
# 1 0.010935 -0.001776 -0.004098 0.000000 0.000000 0.000000
# 2 -0.001776 0.008387 -0.001966 0.000000 0.000000 0.000000
# 3 -0.004098 -0.001966 0.025734 0.000000 0.000000 0.000000
# 4 0.000000 0.000000 0.000000 0.068822 0.000000 0.000000
# 5 0.000000 0.000000 0.000000 0.000000 0.032036 0.000000
# 6 0.000000 0.000000 0.000000 0.000000 0.000000 0.040367
#
#
# Mechanical properties :
#
#
# Convention : Reuss Voigt Hill
#
# Bulk Modulus (GPa) = 34.04117 43.31796 38.67956
# Shear Modulus (GPa) = 23.61235 28.44571 26.02903
#
# Velocity S-wave (km/s) = 3.29673 3.61845 3.46133
# Velocity P-wave (km/s) = 5.49181 6.11525 5.81190
#
# Compressibility (1/GPa) = 0.02937619
#
# Stress axis : x y z
#
# Youngs Moduli (GPa) = 91.45248 119.22523 38.85890
#
# Poissons Ratio (x) = 0.21178 0.15925
# Poissons Ratio (y) = 0.16244 0.07638
# Poissons Ratio (z) = 0.37480 0.23434
#
# Static dielectric constant tensor:
#      x y z
#    x 1.800940 0.000000 0.000000 
#    y 0.000000 1.790330 0.000000 
#    z 0.000000 0.000000 1.801280 
# 
# From -- ./inp_files/6570.got.cif
#   From: 2010.05.17/outbox.cif.g08.bks.cpg/sg20_4_cif.got.tgz:6570.got - 2010.06.03 22:52:26.
