data_PCOD9317472
_publ_section_title
;
Structure prediction by ZEFSAII (Michael W. Deem and Ramdas Pophale) SiO2 
 PCOD9317472
Probable space group: C 2 2 21
;
_chemical_formula_sum "Si O2"
_cell_formula_units_Z 52
_cell_length_a 8.998505
_cell_length_b 11.236769
_cell_length_c 22.677053
_cell_angle_alpha 90.000000
_cell_angle_beta 90.000000
_cell_angle_gamma 90.000000
_cell_volume 2292.970304
_symmetry_space_group_name_H-M "C 2 2 21"
_symmetry_group_IT_number 20
_symmetry_cell_setting 'orthorhombic'
loop_
_space_group_symop_operation_xyz
x,y,z
-x,-y,1/2+z
x,-y,-z
-x,y,1/2-z
1/2+x,1/2+y,z
1/2-x,1/2-y,1/2+z
1/2+x,1/2-y,-z
1/2-x,1/2+y,1/2-z
loop_
_atom_site_type_symbol
_atom_site_label
_atom_site_fract_x
_atom_site_fract_y
_atom_site_fract_z
Si Si1 0.447142 0.686220 0.685676
Si Si2 0.797873 0.802587 0.891748
Si Si3 0.500000 0.778168 0.250000
Si Si4 0.007225 0.602823 0.876022
Si Si5 0.472026 0.896048 0.547336
Si Si6 0.410383 0.587692 0.334763
Si Si7 0.295125 0.250609 0.096268
O O1 0.500000 0.719953 0.750000
O O2 0.315398 0.765900 0.660116
O O3 0.397447 0.547818 0.684230
O O4 0.588062 0.700176 0.643453
O O5 0.881022 0.680440 0.907494
O O6 0.695740 0.849268 0.944755
O O7 0.926735 0.886285 0.864140
O O8 0.515350 0.862919 0.307170
O O9 0.389846 0.679863 0.279972
O O10 0.000664 0.465682 0.890756
O O11 0.162716 0.652519 0.903127
O O12 0.594310 0.792011 0.544317
O O13 0.486565 0.000000 0.500000
O O14 0.293991 0.633053 0.382867
#
# Coordination Sequence:
#
# PCOD9317472 Si02
#       7
#     8   8   4   8   8   8   8
#     4  11  21  30  55  85 119 152 185 230 286 347
#     4   9  22  39  55  87 115 150 201 239 289 357
#     4   8  18  34  58  84 116 152 188 230 288 362
#     4  10  21  41  59  85 121 158 193 244 301 356
#     4  11  23  42  62  86 119 156 205 259 301 343
#     4  10  19  39  57  81 126 153 192 232 290 364
#     4   9  22  39  55  87 115 150 201 239 289 357
#
# _framework density 22.678007000000001
#
# number of rings (size 3 to 8) (size 9 to 14) (size 15 to 20)
#    0.000    2.462    0.769    1.846    8.615    1.231 
#    5.538    3.077    0.000    0.000    0.000    0.000 
#    0.000    0.000    0.000    0.000    0.000    0.000 
#
# Total GULP energy -144906.880947 kJ/mol
# GULP energy per Si atom -5573.341575 kJ/mol
# Density = 2.262639 g / cm^3
# Si number density = 22.678007 Si / 1000 Ang^3
#
#
#
# Elastic Constant Matrix: (Units=GPa)
#
#
# Indices 1 2 3 4 5 6 
#
# 1 120.6900 19.1528 9.1420 0.0000 0.0000 0.0000
# 2 19.1528 57.0083 14.5229 0.0000 0.0000 0.0000
# 3 9.1420 14.5229 55.8419 0.0000 0.0000 0.0000
# 4 0.0000 0.0000 0.0000 31.1702 0.0000 0.0000
# 5 0.0000 0.0000 0.0000 0.0000 5.8319 0.0000
# 6 0.0000 0.0000 0.0000 0.0000 0.0000 3.1808
#
#
#
# Elastic Compliance Matrix: (Units=1/GPa)
#
#
# Indices 1 2 3 4 5 6 
#
# 1 0.008779 -0.002767 -0.000718 0.000000 0.000000 0.000000
# 2 -0.002767 0.019658 -0.004660 0.000000 0.000000 0.000000
# 3 -0.000718 -0.004660 0.019237 0.000000 0.000000 0.000000
# 4 0.000000 0.000000 0.000000 0.032082 0.000000 0.000000
# 5 0.000000 0.000000 0.000000 0.000000 0.171470 0.000000
# 6 0.000000 0.000000 0.000000 0.000000 0.000000 0.314390
#
#
# Mechanical properties :
#
#
# Convention : Reuss Voigt Hill
#
# Bulk Modulus (GPa) = 31.86113 35.46395 33.66254
# Shear Modulus (GPa) = 8.44074 20.75141 14.59607
#
# Velocity S-wave (km/s) = 1.93134 3.02825 2.53972
# Velocity P-wave (km/s) = 4.36501 5.28196 4.84522
#
# Compressibility (1/GPa) = 0.03138620
#
# Stress axis : x y z
#
# Youngs Moduli (GPa) = 113.90677 50.87038 51.98312
#
# Poissons Ratio (x) = 0.14074 0.03731
# Poissons Ratio (y) = 0.31514 0.24222
# Poissons Ratio (z) = 0.08175 0.23703
#
# Static dielectric constant tensor:
#      x y z
#    x 1.917310 0.000000 0.000000 
#    y 0.000000 1.819580 0.000000 
#    z 0.000000 0.000000 1.921990 
# 
# From -- ./inp_files/30123.got.cif
#   From: 2010.05.17/outbox.cif.g08.bks.cpg/sg20_16_cif.got.tgz:30123.got - 2010.06.03 22:52:26.
