data_PCOD9317835
_publ_section_title
;
Structure prediction by ZEFSAII (Michael W. Deem and Ramdas Pophale) SiO2 
 PCOD9317835
Probable space group: C 2 2 21
;
_chemical_formula_sum "Si O2"
_cell_formula_units_Z 60
_cell_length_a 5.567232
_cell_length_b 22.201384
_cell_length_c 21.882539
_cell_angle_alpha 90.000000
_cell_angle_beta 90.000000
_cell_angle_gamma 90.000000
_cell_volume 2704.687410
_symmetry_space_group_name_H-M "C 2 2 21"
_symmetry_group_IT_number 20
_symmetry_cell_setting 'orthorhombic'
loop_
_space_group_symop_operation_xyz
x,y,z
-x,-y,1/2+z
x,-y,-z
-x,y,1/2-z
1/2+x,1/2+y,z
1/2-x,1/2-y,1/2+z
1/2+x,1/2-y,-z
1/2-x,1/2+y,1/2-z
loop_
_atom_site_type_symbol
_atom_site_label
_atom_site_fract_x
_atom_site_fract_y
_atom_site_fract_z
Si Si1 0.679312 0.322983 0.896087
Si Si2 0.749515 0.839620 0.228737
Si Si3 0.906220 0.113726 0.003149
Si Si4 0.924564 0.208454 0.897954
Si Si5 0.753669 0.500000 0.000000
Si Si6 0.204409 0.776396 0.686130
Si Si7 0.259011 0.914000 0.714980
Si Si8 0.963275 0.432214 0.588692
O O1 0.788926 0.264757 0.928082
O O2 0.561744 0.296063 0.835276
O O3 0.859583 0.378723 0.889016
O O4 0.468981 0.348336 0.936800
O O5 0.500000 0.870190 0.250000
O O6 0.779857 0.823231 0.157884
O O7 0.737588 0.775640 0.264374
O O8 0.000000 0.869683 0.250000
O O9 0.951231 0.156663 0.946703
O O10 0.647976 0.089441 0.023563
O O11 0.083228 0.057840 0.996790
O O12 0.153777 0.243494 0.869304
O O13 0.897545 0.509354 0.063903
O O14 0.294450 0.841669 0.706915
O O15 0.500000 0.936295 0.750000
O O16 0.278801 0.940499 0.645269
O O17 0.000000 0.924035 0.750000
#
# Coordination Sequence:
#
# PCOD9317835 Si02
#       8
#     8   8   8   8   4   8   8   8
#     4  11  21  35  60  96 151 183 227 290 361 452
#     4  10  20  36  56  86 137 190 229 259 334 438
#     4  11  25  42  70 100 136 193 245 313 364 442
#     4  11  23  36  59 101 142 187 232 290 359 441
#     4  10  26  50  76  92 138 196 264 314 374 438
#     4  11  21  36  57  95 146 195 221 263 358 456
#     4  12  24  37  68 109 150 188 230 298 372 443
#     4  11  24  45  67 108 136 191 250 309 371 447
#
# _framework density 22.183709
#
# number of rings (size 3 to 8) (size 9 to 14) (size 15 to 20)
#    0.000    1.067    4.000    2.800    5.600    1.067 
#    0.000    0.000    0.000    0.000   20.800    0.000 
#    0.000    0.000    0.000    0.000    0.000    0.000 
#
# Total GULP energy -167165.177963 kJ/mol
# GULP energy per Si atom -5572.172599 kJ/mol
# Density = 2.213322 g / cm^3
# Si number density = 22.183709 Si / 1000 Ang^3
#
#
#
# Elastic Constant Matrix: (Units=GPa)
#
#
# Indices 1 2 3 4 5 6 
#
# 1 112.8427 9.0760 37.2401 0.0000 0.0000 0.0000
# 2 9.0760 29.7852 32.0417 0.0000 0.0000 0.0000
# 3 37.2401 32.0417 81.8871 0.0000 0.0000 0.0000
# 4 0.0000 0.0000 0.0000 12.4175 0.0000 0.0000
# 5 0.0000 0.0000 0.0000 0.0000 24.8856 0.0000
# 6 0.0000 0.0000 0.0000 0.0000 0.0000 3.7524
#
#
#
# Elastic Compliance Matrix: (Units=1/GPa)
#
#
# Indices 1 2 3 4 5 6 
#
# 1 0.010621 0.003384 -0.006154 0.000000 0.000000 0.000000
# 2 0.003384 0.059057 -0.024648 0.000000 0.000000 0.000000
# 3 -0.006154 -0.024648 0.024655 0.000000 0.000000 0.000000
# 4 0.000000 0.000000 0.000000 0.080532 0.000000 0.000000
# 5 0.000000 0.000000 0.000000 0.000000 0.040184 0.000000
# 6 0.000000 0.000000 0.000000 0.000000 0.000000 0.266498
#
#
# Mechanical properties :
#
#
# Convention : Reuss Voigt Hill
#
# Bulk Modulus (GPa) = 25.31787 42.35895 33.83841
# Shear Modulus (GPa) = 9.09838 17.95491 13.52665
#
# Velocity S-wave (km/s) = 2.02738 2.84804 2.47200
# Velocity P-wave (km/s) = 4.11315 5.47276 4.84093
#
# Compressibility (1/GPa) = 0.03949779
#
# Stress axis : x y z
#
# Youngs Moduli (GPa) = 94.15579 16.93270 40.55963
#
# Poissons Ratio (x) = -0.05730 0.24961
# Poissons Ratio (y) = -0.31863 0.99970
# Poissons Ratio (z) = 0.57945 0.41735
#
# Static dielectric constant tensor:
#      x y z
#    x 2.063490 0.000000 0.000000 
#    y 0.000000 1.748010 0.000000 
#    z 0.000000 0.000000 1.857370 
# 
# From -- ./inp_files/26230.got.cif
#   From: 2010.05.17/outbox.cif.g08.bks.cpg/sg20_14_cif.got.tgz:26230.got - 2010.06.03 22:52:26.
