data_PCOD9317207
_publ_section_title
;
Structure prediction by ZEFSAII (Michael W. Deem and Ramdas Pophale) SiO2 
 PCOD9317207
Probable space group: C 2 2 21
;
_chemical_formula_sum "Si O2"
_cell_formula_units_Z 48
_cell_length_a 9.180239
_cell_length_b 23.934705
_cell_length_c 9.944576
_cell_angle_alpha 90.000000
_cell_angle_beta 90.000000
_cell_angle_gamma 90.000000
_cell_volume 2185.085012
_symmetry_space_group_name_H-M "C 2 2 21"
_symmetry_group_IT_number 20
_symmetry_cell_setting 'orthorhombic'
loop_
_space_group_symop_operation_xyz
x,y,z
-x,-y,1/2+z
x,-y,-z
-x,y,1/2-z
1/2+x,1/2+y,z
1/2-x,1/2-y,1/2+z
1/2+x,1/2-y,-z
1/2-x,1/2+y,1/2-z
loop_
_atom_site_type_symbol
_atom_site_label
_atom_site_fract_x
_atom_site_fract_y
_atom_site_fract_z
Si Si1 0.079899 0.194172 0.616076
Si Si2 0.841527 0.033284 0.191191
Si Si3 0.278444 0.850952 0.774298
Si Si4 0.255446 0.579009 0.901703
Si Si5 0.875440 0.761615 0.601119
Si Si6 0.019398 0.346484 0.989422
O O1 0.150445 0.133171 0.640015
O O2 0.215938 0.233537 0.577365
O O3 0.000000 0.214985 0.750000
O O4 0.953341 0.197973 0.505973
O O5 0.777691 0.086173 0.268401
O O6 0.000000 0.022285 0.250000
O O7 0.756975 0.974409 0.194827
O O8 0.831821 0.056388 0.038246
O O9 0.158019 0.802329 0.775016
O O10 0.366425 0.849514 0.914640
O O11 0.374751 0.839472 0.641629
O O12 0.093298 0.600867 0.936844
O O13 0.972877 0.705821 0.590349
#
# Coordination Sequence:
#
# PCOD9317207 Si02
#       6
#     8   8   8   8   8   8
#     4  11  22  38  59  89 127 168 205 268 328 384
#     4  10  19  35  60  93 115 162 214 266 315 382
#     4  10  19  35  61  87 126 162 209 255 326 383
#     4   9  20  36  61  86 123 159 217 263 319 375
#     4  11  20  34  60  91 124 167 206 256 327 396
#     4   9  19  36  57  89 125 168 201 257 325 395
#
# _framework density 21.967110000000002
#
# number of rings (size 3 to 8) (size 9 to 14) (size 15 to 20)
#    0.000    2.000    1.667    2.500    0.000    0.000 
#    0.000    5.833    0.000   46.000    0.000    0.000 
#    0.000    0.000    0.000    0.000    0.000    0.000 
#
# Total GULP energy -133754.707822 kJ/mol
# GULP energy per Si atom -5573.112826 kJ/mol
# Density = 2.191711 g / cm^3
# Si number density = 21.967110 Si / 1000 Ang^3
#
#
#
# Elastic Constant Matrix: (Units=GPa)
#
#
# Indices 1 2 3 4 5 6 
#
# 1 60.5379 39.3568 18.7616 0.0000 0.0000 0.0000
# 2 39.3568 184.2561 25.5992 0.0000 0.0000 0.0000
# 3 18.7616 25.5992 31.7164 0.0000 0.0000 0.0000
# 4 0.0000 0.0000 0.0000 28.1513 0.0000 0.0000
# 5 0.0000 0.0000 0.0000 0.0000 27.3244 0.0000
# 6 0.0000 0.0000 0.0000 0.0000 0.0000 20.5704
#
#
#
# Elastic Compliance Matrix: (Units=1/GPa)
#
#
# Indices 1 2 3 4 5 6 
#
# 1 0.021808 -0.003228 -0.010295 0.000000 0.000000 0.000000
# 2 -0.003228 0.006590 -0.003410 0.000000 0.000000 0.000000
# 3 -0.010295 -0.003410 0.040372 0.000000 0.000000 0.000000
# 4 0.000000 0.000000 0.000000 0.035522 0.000000 0.000000
# 5 0.000000 0.000000 0.000000 0.000000 0.036597 0.000000
# 6 0.000000 0.000000 0.000000 0.000000 0.000000 0.048614
#
#
# Mechanical properties :
#
#
# Convention : Reuss Voigt Hill
#
# Bulk Modulus (GPa) = 28.64972 49.32731 38.98851
# Shear Modulus (GPa) = 21.27632 28.06206 24.66919
#
# Velocity S-wave (km/s) = 3.11554 3.57803 3.35476
# Velocity P-wave (km/s) = 5.10024 6.29075 5.72652
#
# Compressibility (1/GPa) = 0.03490435
#
# Stress axis : x y z
#
# Youngs Moduli (GPa) = 45.85562 151.73516 24.76986
#
# Poissons Ratio (x) = 0.48977 0.25500
# Poissons Ratio (y) = 0.14801 0.08446
# Poissons Ratio (z) = 0.47208 0.51741
#
# Static dielectric constant tensor:
#      x y z
#    x 1.839240 0.000000 0.000000 
#    y 0.000000 1.841580 0.000000 
#    z 0.000000 0.000000 1.869370 
# 
# From -- ./inp_files/13070.got.cif
#   From: 2010.05.17/outbox.cif.g08.bks.cpg/sg20_7_cif.got.tgz:13070.got - 2010.06.03 22:52:26.
