data_PCOD9317827
_publ_section_title
;
Structure prediction by ZEFSAII (Michael W. Deem and Ramdas Pophale) SiO2 
 PCOD9317827
Probable space group: C 2 2 21
;
_chemical_formula_sum "Si O2"
_cell_formula_units_Z 60
_cell_length_a 23.054030
_cell_length_b 9.347220
_cell_length_c 13.548358
_cell_angle_alpha 90.000000
_cell_angle_beta 90.000000
_cell_angle_gamma 90.000000
_cell_volume 2919.550437
_symmetry_space_group_name_H-M "C 2 2 21"
_symmetry_group_IT_number 20
_symmetry_cell_setting 'orthorhombic'
loop_
_space_group_symop_operation_xyz
x,y,z
-x,-y,1/2+z
x,-y,-z
-x,y,1/2-z
1/2+x,1/2+y,z
1/2-x,1/2-y,1/2+z
1/2+x,1/2-y,-z
1/2-x,1/2+y,1/2-z
loop_
_atom_site_type_symbol
_atom_site_label
_atom_site_fract_x
_atom_site_fract_y
_atom_site_fract_z
Si Si1 0.912137 0.024259 0.737208
Si Si2 0.917269 0.743041 0.834083
Si Si3 0.976838 0.861465 0.563242
Si Si4 0.885487 0.655175 0.448882
Si Si5 0.820735 0.519939 0.883435
Si Si6 0.500000 0.949755 0.250000
Si Si7 0.306610 0.601597 0.595212
Si Si8 0.586398 0.836783 0.718213
O O1 0.897640 0.902504 0.814186
O O2 0.955641 0.943987 0.662503
O O3 0.856694 0.063740 0.672044
O O4 0.930228 0.171267 0.789157
O O5 0.863478 0.649856 0.863095
O O6 0.969607 0.757476 0.911806
O O7 0.946666 0.661929 0.739441
O O8 0.927453 0.767434 0.507525
O O9 0.994431 0.000000 0.500000
O O10 0.883282 0.500000 0.500000
O O11 0.823379 0.737462 0.439244
O O12 0.907833 0.635199 0.336240
O O13 0.755439 0.565811 0.856704
O O14 0.853062 0.385536 0.831334
O O15 0.819281 0.500000 0.000000
O O16 0.465740 0.061695 0.179514
O O17 0.312628 0.500000 0.500000
#
# Coordination Sequence:
#
# PCOD9317827 Si02
#       8
#     8   8   8   8   8   4   8   8
#     4  11  21  39  64  99 126 169 223 270 338 401
#     4  11  24  38  63  91 135 170 213 272 343 411
#     4  12  21  39  63  97 135 176 210 277 348 406
#     4  11  22  37  66 104 126 164 230 280 338 402
#     4  10  25  46  62  87 131 181 226 278 353 393
#     4  10  20  36  56  82 124 168 194 254 324 396
#     4  10  20  43  68  87 129 180 222 288 330 397
#     4  10  23  38  61  93 126 169 218 270 330 410
#
# _framework density 20.551109
#
# number of rings (size 3 to 8) (size 9 to 14) (size 15 to 20)
#    0.000    1.333    5.333    0.800    3.733    5.867 
#    0.000    6.000    0.000    0.000    0.000    0.000 
#    0.000    0.000    0.000    0.000    0.000    0.000 
#
# Total GULP energy -167117.455969 kJ/mol
# GULP energy per Si atom -5570.581866 kJ/mol
# Density = 2.050433 g / cm^3
# Si number density = 20.551109 Si / 1000 Ang^3
#
#
#
# Elastic Constant Matrix: (Units=GPa)
#
#
# Indices 1 2 3 4 5 6 
#
# 1 90.6893 28.8800 8.5508 0.0000 0.0000 0.0000
# 2 28.8800 151.7059 16.9575 0.0000 0.0000 0.0000
# 3 8.5508 16.9575 42.0963 0.0000 0.0000 0.0000
# 4 0.0000 0.0000 0.0000 34.1760 0.0000 0.0000
# 5 0.0000 0.0000 0.0000 0.0000 28.2711 0.0000
# 6 0.0000 0.0000 0.0000 0.0000 0.0000 16.9903
#
#
#
# Elastic Compliance Matrix: (Units=1/GPa)
#
#
# Indices 1 2 3 4 5 6 
#
# 1 0.011836 -0.002078 -0.001567 0.000000 0.000000 0.000000
# 2 -0.002078 0.007267 -0.002505 0.000000 0.000000 0.000000
# 3 -0.001567 -0.002505 0.025083 0.000000 0.000000 0.000000
# 4 0.000000 0.000000 0.000000 0.029260 0.000000 0.000000
# 5 0.000000 0.000000 0.000000 0.000000 0.035372 0.000000
# 6 0.000000 0.000000 0.000000 0.000000 0.000000 0.058857
#
#
# Mechanical properties :
#
#
# Convention : Reuss Voigt Hill
#
# Bulk Modulus (GPa) = 31.36269 43.69646 37.52958
# Shear Modulus (GPa) = 26.23229 31.22769 28.72999
#
# Velocity S-wave (km/s) = 3.57661 3.90232 3.74301
# Velocity P-wave (km/s) = 5.68772 6.45079 6.08123
#
# Compressibility (1/GPa) = 0.03188502
#
# Stress axis : x y z
#
# Youngs Moduli (GPa) = 84.48676 137.60175 39.86821
#
# Poissons Ratio (x) = 0.28594 0.06248
# Poissons Ratio (y) = 0.17557 0.09989
# Poissons Ratio (z) = 0.13240 0.34475
#
# Static dielectric constant tensor:
#      x y z
#    x 1.764530 0.000000 0.000000 
#    y 0.000000 1.839310 0.000000 
#    z 0.000000 0.000000 1.969110 
# 
# From -- ./inp_files/21994.got.cif
#   From: 2010.05.17/outbox.cif.g08.bks.cpg/sg20_11_cif.got.tgz:21994.got - 2010.06.03 22:52:26.
