data_PCOD9317029
_publ_section_title
;
Structure prediction by ZEFSAII (Michael W. Deem and Ramdas Pophale) SiO2 
 PCOD9317029
Probable space group: C 2 2 21
;
_chemical_formula_sum "Si O2"
_cell_formula_units_Z 64
_cell_length_a 8.184380
_cell_length_b 16.442498
_cell_length_c 23.347349
_cell_angle_alpha 90.000000
_cell_angle_beta 90.000000
_cell_angle_gamma 90.000000
_cell_volume 3141.891320
_symmetry_space_group_name_H-M "C 2 2 21"
_symmetry_group_IT_number 20
_symmetry_cell_setting 'orthorhombic'
loop_
_space_group_symop_operation_xyz
x,y,z
-x,-y,1/2+z
x,-y,-z
-x,y,1/2-z
1/2+x,1/2+y,z
1/2-x,1/2-y,1/2+z
1/2+x,1/2-y,-z
1/2-x,1/2+y,1/2-z
loop_
_atom_site_type_symbol
_atom_site_label
_atom_site_fract_x
_atom_site_fract_y
_atom_site_fract_z
Si Si1 0.695538 0.554639 0.756732
Si Si2 0.103128 0.856243 0.138173
Si Si3 0.654388 0.243750 0.922744
Si Si4 0.220668 0.248051 0.453112
Si Si5 0.683859 0.366779 0.734701
Si Si6 0.837000 0.604572 0.381950
Si Si7 0.241982 0.924334 0.372112
Si Si8 0.887799 0.700293 0.172278
O O1 0.500000 0.565179 0.750000
O O2 0.724460 0.604161 0.814935
O O3 0.720613 0.457637 0.758888
O O4 0.773850 0.582983 0.696762
O O5 0.198517 0.819959 0.084214
O O6 0.955907 0.917804 0.121732
O O7 0.001479 0.779475 0.163942
O O8 0.467349 0.261169 0.936163
O O9 0.678961 0.149719 0.905684
O O10 0.733201 0.291322 0.869811
O O11 0.757796 0.261786 0.979767
O O12 0.313971 0.165226 0.434703
O O13 0.500000 0.344260 0.750000
O O14 0.705632 0.370411 0.666865
O O15 0.815210 0.309339 0.764767
O O16 0.808320 0.510444 0.393199
O O17 0.006219 0.624554 0.349977
#
# Coordination Sequence:
#
# PCOD9317029 Si02
#       8
#     8   8   8   8   8   8   8   8
#     4   8  16  32  55  81 113 146 177 216 271 334
#     4   9  19  36  59  83 113 151 185 226 282 343
#     4  11  23  40  58  80 110 146 192 242 286 336
#     4  11  23  40  59  81 110 148 191 238 287 339
#     4  10  19  33  55  85 116 147 185 231 279 336
#     4  10  21  37  58  84 114 151 186 226 285 344
#     4   9  19  36  58  85 114 147 185 227 277 336
#     4  10  21  36  57  83 114 150 189 234 282 338
#
# _framework density 20.369897000000002
#
# number of rings (size 3 to 8) (size 9 to 14) (size 15 to 20)
#    0.000    2.250    0.000    4.125    0.000   10.500 
#    0.000    3.125    0.000    8.250    0.000    0.000 
#    0.000    0.000    0.000    0.000    0.000    0.000 
#
# Total GULP energy -178694.240887 kJ/mol
# GULP energy per Si atom -5584.195028 kJ/mol
# Density = 2.032353 g / cm^3
# Si number density = 20.369897 Si / 1000 Ang^3
#
#
#
# Elastic Constant Matrix: (Units=GPa)
#
#
# Indices 1 2 3 4 5 6 
#
# 1 60.5854 3.6582 -8.9333 0.0000 0.0000 0.0000
# 2 3.6582 34.0353 10.3075 0.0000 0.0000 0.0000
# 3 -8.9333 10.3075 40.3921 0.0000 0.0000 0.0000
# 4 0.0000 0.0000 0.0000 20.6445 0.0000 0.0000
# 5 0.0000 0.0000 0.0000 0.0000 29.4008 0.0000
# 6 0.0000 0.0000 0.0000 0.0000 0.0000 29.6173
#
#
#
# Elastic Compliance Matrix: (Units=1/GPa)
#
#
# Indices 1 2 3 4 5 6 
#
# 1 0.017395 -0.003289 0.004687 0.000000 0.000000 0.000000
# 2 -0.003289 0.032464 -0.009012 0.000000 0.000000 0.000000
# 3 0.004687 -0.009012 0.028093 0.000000 0.000000 0.000000
# 4 0.000000 0.000000 0.000000 0.048439 0.000000 0.000000
# 5 0.000000 0.000000 0.000000 0.000000 0.034013 0.000000
# 6 0.000000 0.000000 0.000000 0.000000 0.000000 0.033764
#
#
# Mechanical properties :
#
#
# Convention : Reuss Voigt Hill
#
# Bulk Modulus (GPa) = 15.94279 16.11972 16.03126
# Shear Modulus (GPa) = 21.71033 24.59788 23.15410
#
# Velocity S-wave (km/s) = 3.26821 3.47877 3.37513
# Velocity P-wave (km/s) = 4.69949 4.90576 4.80373
#
# Compressibility (1/GPa) = 0.06272428
#
# Stress axis : x y z
#
# Youngs Moduli (GPa) = 57.48699 30.80336 35.59544
#
# Poissons Ratio (x) = 0.10131 -0.16682
# Poissons Ratio (y) = 0.18907 0.32078
# Poissons Ratio (z) = -0.26941 0.27759
#
# Static dielectric constant tensor:
#      x y z
#    x 1.729630 0.000000 0.000000 
#    y 0.000000 1.743070 0.000000 
#    z 0.000000 0.000000 1.736090 
# 
# From -- ./inp_files/26889.got.cif
#   From: 2010.05.17/outbox.cif.g08.bks.cpg/sg20_14_cif.got.tgz:26889.got - 2010.06.03 22:52:26.
