data_PCOD9317267
_publ_section_title
;
Structure prediction by ZEFSAII (Michael W. Deem and Ramdas Pophale) SiO2 
 PCOD9317267
Probable space group: C 2 2 21
;
_chemical_formula_sum "Si O2"
_cell_formula_units_Z 56
_cell_length_a 5.183879
_cell_length_b 22.340040
_cell_length_c 25.456492
_cell_angle_alpha 90.000000
_cell_angle_beta 90.000000
_cell_angle_gamma 90.000000
_cell_volume 2948.067060
_symmetry_space_group_name_H-M "C 2 2 21"
_symmetry_group_IT_number 20
_symmetry_cell_setting 'orthorhombic'
loop_
_space_group_symop_operation_xyz
x,y,z
-x,-y,1/2+z
x,-y,-z
-x,y,1/2-z
1/2+x,1/2+y,z
1/2-x,1/2-y,1/2+z
1/2+x,1/2-y,-z
1/2-x,1/2+y,1/2-z
loop_
_atom_site_type_symbol
_atom_site_label
_atom_site_fract_x
_atom_site_fract_y
_atom_site_fract_z
Si Si1 0.061431 0.747732 0.874627
Si Si2 0.672876 0.927165 0.445676
Si Si3 0.684207 0.330171 0.545580
Si Si4 0.754587 0.716959 0.284985
Si Si5 0.053455 0.350821 0.636662
Si Si6 0.821717 0.858433 0.074319
Si Si7 0.290690 0.436350 0.565596
O O1 0.221558 0.803890 0.851964
O O2 0.235204 0.690264 0.883512
O O3 0.967665 0.773592 0.930653
O O4 0.829238 0.739740 0.833241
O O5 0.389036 0.912232 0.424260
O O6 0.653697 0.922969 0.509320
O O7 0.884076 0.880261 0.424558
O O8 0.794491 0.992127 0.433926
O O9 0.710745 0.329687 0.483720
O O10 0.541592 0.393345 0.560610
O O11 0.937584 0.328754 0.581039
O O12 0.500000 0.709333 0.250000
O O13 0.000000 0.736554 0.250000
O O14 0.850336 0.657559 0.316707
O O15 0.155858 0.414928 0.619323
#
# Coordination Sequence:
#
# PCOD9317267 Si02
#       7
#     8   8   8   8   8   8   8
#     4  10  23  35  58  85 122 148 191 236 296 354
#     4  10  22  34  54  77 119 168 200 229 255 332
#     4   9  20  32  53  80 117 161 189 229 278 333
#     4  11  22  40  60  85 116 142 189 248 312 359
#     4  10  19  36  58  85 116 148 189 241 291 351
#     4  11  23  35  51  83 121 160 199 224 271 336
#     4   9  19  35  52  80 116 161 204 228 273 318
#
# _framework density 18.995498999999999
#
# number of rings (size 3 to 8) (size 9 to 14) (size 15 to 20)
#    0.000    2.000    2.857    0.000    8.000    1.143 
#    0.000    0.000    0.000    0.000    0.000    1.000 
#   21.429    0.000    0.000    0.000    0.000    0.000 
#
# Total GULP energy -155885.987508 kJ/mol
# GULP energy per Si atom -5567.356697 kJ/mol
# Density = 1.895226 g / cm^3
# Si number density = 18.995499 Si / 1000 Ang^3
#
#
#
# Elastic Constant Matrix: (Units=GPa)
#
#
# Indices 1 2 3 4 5 6 
#
# 1 70.0228 7.3875 21.8669 0.0000 0.0000 0.0000
# 2 7.3875 56.3012 24.7427 0.0000 0.0000 0.0000
# 3 21.8669 24.7427 57.6533 0.0000 0.0000 0.0000
# 4 0.0000 0.0000 0.0000 8.1849 0.0000 0.0000
# 5 0.0000 0.0000 0.0000 0.0000 30.7162 0.0000
# 6 0.0000 0.0000 0.0000 0.0000 0.0000 10.9035
#
#
#
# Elastic Compliance Matrix: (Units=1/GPa)
#
#
# Indices 1 2 3 4 5 6 
#
# 1 0.016223 0.000709 -0.006457 0.000000 0.000000 0.000000
# 2 0.000709 0.021921 -0.009677 0.000000 0.000000 0.000000
# 3 -0.006457 -0.009677 0.023947 0.000000 0.000000 0.000000
# 4 0.000000 0.000000 0.000000 0.122176 0.000000 0.000000
# 5 0.000000 0.000000 0.000000 0.000000 0.032556 0.000000
# 6 0.000000 0.000000 0.000000 0.000000 0.000000 0.091713
#
#
# Mechanical properties :
#
#
# Convention : Reuss Voigt Hill
#
# Bulk Modulus (GPa) = 32.00899 32.44125 32.22512
# Shear Modulus (GPa) = 14.29385 18.62626 16.46006
#
# Velocity S-wave (km/s) = 2.74612 3.13479 2.94687
# Velocity P-wave (km/s) = 5.19060 5.49709 5.34604
#
# Compressibility (1/GPa) = 0.03124122
#
# Stress axis : x y z
#
# Youngs Moduli (GPa) = 61.64175 45.61794 41.75861
#
# Poissons Ratio (x) = -0.03235 0.26965
# Poissons Ratio (y) = -0.04372 0.40409
# Poissons Ratio (z) = 0.39804 0.44143
#
# Static dielectric constant tensor:
#      x y z
#    x 1.766140 0.000000 0.000000 
#    y 0.000000 1.667450 0.000000 
#    z 0.000000 0.000000 1.699070 
# 
# From -- ./inp_files/29957.got.cif
#   From: 2010.05.17/outbox.cif.g08.bks.cpg/sg20_15_cif.got.tgz:29957.got - 2010.06.03 22:52:26.
