data_PCOD9317877
_publ_section_title
;
Structure prediction by ZEFSAII (Michael W. Deem and Ramdas Pophale) SiO2 
 PCOD9317877
Probable space group: C 2 2 21
;
_chemical_formula_sum "Si O2"
_cell_formula_units_Z 56
_cell_length_a 14.736059
_cell_length_b 20.531288
_cell_length_c 9.109006
_cell_angle_alpha 90.000000
_cell_angle_beta 90.000000
_cell_angle_gamma 90.000000
_cell_volume 2755.932237
_symmetry_space_group_name_H-M "C 2 2 21"
_symmetry_group_IT_number 20
_symmetry_cell_setting 'orthorhombic'
loop_
_space_group_symop_operation_xyz
x,y,z
-x,-y,1/2+z
x,-y,-z
-x,y,1/2-z
1/2+x,1/2+y,z
1/2-x,1/2-y,1/2+z
1/2+x,1/2-y,-z
1/2-x,1/2+y,1/2-z
loop_
_atom_site_type_symbol
_atom_site_label
_atom_site_fract_x
_atom_site_fract_y
_atom_site_fract_z
Si Si1 0.277865 0.255553 0.689654
Si Si2 0.094112 0.493999 0.326833
Si Si3 0.591645 0.159694 0.662429
Si Si4 0.164400 0.302131 0.925468
Si Si5 0.026517 0.250236 0.574672
Si Si6 0.732583 0.941562 0.885023
Si Si7 0.590792 0.643058 0.338645
O O1 0.320527 0.192867 0.767378
O O2 0.186107 0.280208 0.761832
O O3 0.261051 0.233083 0.525382
O O4 0.350493 0.311075 0.729291
O O5 0.085856 0.500000 0.500000
O O6 0.102137 0.416489 0.308602
O O7 0.180362 0.531799 0.259156
O O8 0.000000 0.516300 0.250000
O O9 0.500000 0.179787 0.750000
O O10 0.579273 0.186871 0.496505
O O11 0.173697 0.379035 0.937028
O O12 0.073939 0.269827 0.980596
O O13 0.062110 0.186645 0.482905
O O14 0.000000 0.242210 0.750000
O O15 0.835671 0.913978 0.871399
O O16 0.729247 0.000000 0.000000
O O17 0.500000 0.623270 0.250000
#
# Coordination Sequence:
#
# PCOD9317877 Si02
#       7
#     8   8   8   8   8   8   8
#     4  10  20  36  59  95 123 168 211 276 354 397
#     4  11  26  42  65  95 135 182 227 274 344 425
#     4  10  20  39  60  81 127 171 208 265 339 411
#     4  11  23  36  65  94 136 168 216 287 347 418
#     4  11  23  37  66 105 129 168 224 283 356 419
#     4  11  26  44  67  99 139 187 236 285 345 423
#     4  10  21  47  69  90 138 186 230 289 349 411
#
# _framework density 20.319803
#
# number of rings (size 3 to 8) (size 9 to 14) (size 15 to 20)
#    0.000    1.429    2.857    2.143   12.000    1.143 
#    0.000    1.429    0.000    0.000    0.000    0.000 
#    0.000    0.000    0.000    0.000    0.000    0.000 
#
# Total GULP energy -155935.128231 kJ/mol
# GULP energy per Si atom -5569.111723 kJ/mol
# Density = 2.027355 g / cm^3
# Si number density = 20.319803 Si / 1000 Ang^3
#
#
#
# Elastic Constant Matrix: (Units=GPa)
#
#
# Indices 1 2 3 4 5 6 
#
# 1 111.9725 32.9980 31.0528 0.0000 0.0000 0.0000
# 2 32.9980 76.6699 33.7657 0.0000 0.0000 0.0000
# 3 31.0528 33.7657 129.3557 0.0000 0.0000 0.0000
# 4 0.0000 0.0000 0.0000 25.7189 0.0000 0.0000
# 5 0.0000 0.0000 0.0000 0.0000 21.3756 0.0000
# 6 0.0000 0.0000 0.0000 0.0000 0.0000 13.7255
#
#
#
# Elastic Compliance Matrix: (Units=1/GPa)
#
#
# Indices 1 2 3 4 5 6 
#
# 1 0.010484 -0.003846 -0.001513 0.000000 0.000000 0.000000
# 2 -0.003846 0.016148 -0.003292 0.000000 0.000000 0.000000
# 3 -0.001513 -0.003292 0.008953 0.000000 0.000000 0.000000
# 4 0.000000 0.000000 0.000000 0.038882 0.000000 0.000000
# 5 0.000000 0.000000 0.000000 0.000000 0.046782 0.000000
# 6 0.000000 0.000000 0.000000 0.000000 0.000000 0.072857
#
#
# Mechanical properties :
#
#
# Convention : Reuss Voigt Hill
#
# Bulk Modulus (GPa) = 54.69377 57.07012 55.88195
# Shear Modulus (GPa) = 22.98836 26.84278 24.91557
#
# Velocity S-wave (km/s) = 3.36717 3.63852 3.50547
# Velocity P-wave (km/s) = 6.48784 6.76747 6.62913
#
# Compressibility (1/GPa) = 0.01828362
#
# Stress axis : x y z
#
# Youngs Moduli (GPa) = 95.38659 61.92762 111.69371
#
# Poissons Ratio (x) = 0.23816 0.16897
# Poissons Ratio (y) = 0.36684 0.36768
# Poissons Ratio (z) = 0.14430 0.20386
#
# Static dielectric constant tensor:
#      x y z
#    x 1.833610 0.000000 0.000000 
#    y 0.000000 1.728420 0.000000 
#    z 0.000000 0.000000 2.080270 
# 
# From -- ./inp_files/8707.got.cif
#   From: 2010.05.17/outbox.cif.g08.bks.cpg/sg20_5_cif.got.tgz:8707.got - 2010.06.03 22:52:26.
