data_PCOD9317586
_publ_section_title
;
Structure prediction by ZEFSAII (Michael W. Deem and Ramdas Pophale) SiO2 
 PCOD9317586
Probable space group: C 2 2 21
;
_chemical_formula_sum "Si O2"
_cell_formula_units_Z 60
_cell_length_a 31.115511
_cell_length_b 13.992994
_cell_length_c 8.000040
_cell_angle_alpha 90.000000
_cell_angle_beta 90.000000
_cell_angle_gamma 90.000000
_cell_volume 3483.210686
_symmetry_space_group_name_H-M "C 2 2 21"
_symmetry_group_IT_number 20
_symmetry_cell_setting 'orthorhombic'
loop_
_space_group_symop_operation_xyz
x,y,z
-x,-y,1/2+z
x,-y,-z
-x,y,1/2-z
1/2+x,1/2+y,z
1/2-x,1/2-y,1/2+z
1/2+x,1/2-y,-z
1/2-x,1/2+y,1/2-z
loop_
_atom_site_type_symbol
_atom_site_label
_atom_site_fract_x
_atom_site_fract_y
_atom_site_fract_z
Si Si1 0.769427 0.910090 0.260382
Si Si2 0.254734 0.375562 0.656240
Si Si3 0.026084 0.393778 0.078557
Si Si4 0.171179 0.738689 0.237333
Si Si5 0.808533 0.301120 0.357595
Si Si6 0.000000 0.649868 0.250000
Si Si7 0.611645 0.911254 0.267895
Si Si8 0.596329 0.883929 0.652298
O O1 0.757957 0.884265 0.454381
O O2 0.811590 0.845821 0.223570
O O3 0.731989 0.872225 0.139573
O O4 0.768116 0.024269 0.262182
O O5 0.207321 0.335001 0.693229
O O6 0.288228 0.295198 0.716288
O O7 0.075999 0.387557 0.128940
O O8 0.000000 0.386516 0.250000
O O9 0.017643 0.500000 0.000000
O O10 0.010245 0.316884 0.940744
O O11 0.124353 0.708415 0.301674
O O12 0.173169 0.723514 0.038716
O O13 0.845774 0.350672 0.254338
O O14 0.047800 0.607731 0.281943
O O15 0.593830 0.892343 0.453039
O O16 0.620567 0.024628 0.268698
#
# Coordination Sequence:
#
# PCOD9317586 Si02
#       8
#     8   8   8   8   8   4   8   8
#     4   9  18  34  52  67  95 132 166 202 253 302
#     4   9  18  34  52  67  96 132 164 203 251 302
#     4  12  20  32  49  70  98 136 175 210 250 299
#     4  10  20  32  48  73  98 127 165 209 249 299
#     4  10  20  31  46  74  99 124 166 208 249 297
#     4  12  22  34  50  70 102 136 174 210 250 306
#     4  11  22  32  47  69 101 136 167 204 246 299
#     4  11  22  33  48  68 100 136 170 202 250 301
#
# _framework density 17.225487999999999
#
# number of rings (size 3 to 8) (size 9 to 14) (size 15 to 20)
#    0.000    1.600    3.333    2.400    0.000    4.800 
#    0.000    0.000    0.000    0.000    0.000    0.000 
#    2.000    0.533    0.000    0.000    0.000    0.000 
#
# Total GULP energy -167099.198301 kJ/mol
# GULP energy per Si atom -5569.973277 kJ/mol
# Density = 1.718628 g / cm^3
# Si number density = 17.225488 Si / 1000 Ang^3
#
#
#
# Elastic Constant Matrix: (Units=GPa)
#
#
# Indices 1 2 3 4 5 6 
#
# 1 80.7920 31.6348 15.3436 0.0000 0.0000 0.0000
# 2 31.6348 72.0186 4.0696 0.0000 0.0000 0.0000
# 3 15.3436 4.0696 53.6045 0.0000 0.0000 0.0000
# 4 0.0000 0.0000 0.0000 13.7075 0.0000 0.0000
# 5 0.0000 0.0000 0.0000 0.0000 35.2040 0.0000
# 6 0.0000 0.0000 0.0000 0.0000 0.0000 12.6911
#
#
#
# Elastic Compliance Matrix: (Units=1/GPa)
#
#
# Indices 1 2 3 4 5 6 
#
# 1 0.015760 -0.006696 -0.004003 0.000000 0.000000 0.000000
# 2 -0.006696 0.016790 0.000642 0.000000 0.000000 0.000000
# 3 -0.004003 0.000642 0.019752 0.000000 0.000000 0.000000
# 4 0.000000 0.000000 0.000000 0.072953 0.000000 0.000000
# 5 0.000000 0.000000 0.000000 0.000000 0.028406 0.000000
# 6 0.000000 0.000000 0.000000 0.000000 0.000000 0.078795
#
#
# Mechanical properties :
#
#
# Convention : Reuss Voigt Hill
#
# Bulk Modulus (GPa) = 31.06720 34.27902 32.67311
# Shear Modulus (GPa) = 18.98978 22.67833 20.83406
#
# Velocity S-wave (km/s) = 3.32388 3.63238 3.48155
# Velocity P-wave (km/s) = 5.72762 6.12663 5.93048
#
# Compressibility (1/GPa) = 0.03218829
#
# Stress axis : x y z
#
# Youngs Moduli (GPa) = 63.45326 59.55765 50.62752
#
# Poissons Ratio (x) = 0.39882 0.20264
# Poissons Ratio (y) = 0.42491 -0.03250
# Poissons Ratio (z) = 0.25398 -0.03824
#
# Static dielectric constant tensor:
#      x y z
#    x 1.580050 0.000000 0.000000 
#    y 0.000000 1.599560 0.000000 
#    z 0.000000 0.000000 1.659530 
# 
# From -- ./inp_files/11197.got.cif
#   From: 2010.05.17/outbox.cif.g08.bks.cpg/sg20_6_cif.got.tgz:11197.got - 2010.06.03 22:52:26.
