data_PCOD9317421
_publ_section_title
;
Structure prediction by ZEFSAII (Michael W. Deem and Ramdas Pophale) SiO2 
 PCOD9317421
Probable space group: C 2 2 21
;
_chemical_formula_sum "Si O2"
_cell_formula_units_Z 28
_cell_length_a 6.238366
_cell_length_b 13.142038
_cell_length_c 16.998145
_cell_angle_alpha 90.000000
_cell_angle_beta 90.000000
_cell_angle_gamma 90.000000
_cell_volume 1393.590250
_symmetry_space_group_name_H-M "C 2 2 21"
_symmetry_group_IT_number 20
_symmetry_cell_setting 'orthorhombic'
loop_
_space_group_symop_operation_xyz
x,y,z
-x,-y,1/2+z
x,-y,-z
-x,y,1/2-z
1/2+x,1/2+y,z
1/2-x,1/2-y,1/2+z
1/2+x,1/2-y,-z
1/2-x,1/2+y,1/2-z
loop_
_atom_site_type_symbol
_atom_site_label
_atom_site_fract_x
_atom_site_fract_y
_atom_site_fract_z
Si Si1 0.591647 0.601114 0.539163
Si Si2 0.000000 0.274359 0.750000
Si Si3 0.761611 0.732650 0.396430
Si Si4 0.122086 0.362021 0.176939
O O1 0.499234 0.500000 0.500000
O O2 0.710151 0.663041 0.470428
O O3 0.411046 0.674249 0.575002
O O4 0.762356 0.575776 0.607984
O O5 0.889245 0.324766 0.673990
O O6 0.810938 0.203722 0.783710
O O7 0.544810 0.783369 0.362883
O O8 0.000000 0.415178 0.250000
#
# Coordination Sequence:
#
# PCOD9317421 Si02
#       4
#     8   4   8   8
#     4  11  22  36  60  90 118 155 203 244 294 354
#     4   8  18  34  64  84 112 162 192 238 306 348
#     4  10  19  38  59  84 122 153 195 251 294 349
#     4   9  18  37  63  83 120 162 191 244 300 343
#
# _framework density 20.091989999999999
#
# number of rings (size 3 to 8) (size 9 to 14) (size 15 to 20)
#    0.000    2.286    2.857    0.000    0.000    1.143 
#    2.571    0.000   50.286    0.000    0.000    0.000 
#    0.000    0.000    0.000    0.000    0.000    0.000 
#
# Total GULP energy -78005.157254 kJ/mol
# GULP energy per Si atom -5571.796947 kJ/mol
# Density = 2.004626 g / cm^3
# Si number density = 20.091990 Si / 1000 Ang^3
#
#
#
# Elastic Constant Matrix: (Units=GPa)
#
#
# Indices 1 2 3 4 5 6 
#
# 1 99.9017 16.9348 52.7657 0.0000 0.0000 0.0000
# 2 16.9348 45.6224 26.8079 0.0000 0.0000 0.0000
# 3 52.7657 26.8079 134.6967 0.0000 0.0000 0.0000
# 4 0.0000 0.0000 0.0000 8.3032 0.0000 0.0000
# 5 0.0000 0.0000 0.0000 0.0000 44.8136 0.0000
# 6 0.0000 0.0000 0.0000 0.0000 0.0000 9.3532
#
#
#
# Elastic Compliance Matrix: (Units=1/GPa)
#
#
# Indices 1 2 3 4 5 6 
#
# 1 0.012787 -0.002042 -0.004603 0.000000 0.000000 0.000000
# 2 -0.002042 0.025148 -0.004205 0.000000 0.000000 0.000000
# 3 -0.004603 -0.004205 0.010064 0.000000 0.000000 0.000000
# 4 0.000000 0.000000 0.000000 0.120435 0.000000 0.000000
# 5 0.000000 0.000000 0.000000 0.000000 0.022315 0.000000
# 6 0.000000 0.000000 0.000000 0.000000 0.000000 0.106916
#
#
# Mechanical properties :
#
#
# Convention : Reuss Voigt Hill
#
# Bulk Modulus (GPa) = 38.02357 52.58194 45.30276
# Shear Modulus (GPa) = 15.23783 24.74149 19.98966
#
# Velocity S-wave (km/s) = 2.75690 3.51295 3.15764
# Velocity P-wave (km/s) = 5.39443 6.53314 5.99090
#
# Compressibility (1/GPa) = 0.02629948
#
# Stress axis : x y z
#
# Youngs Moduli (GPa) = 78.20414 39.76463 99.36308
#
# Poissons Ratio (x) = 0.08119 0.45735
# Poissons Ratio (y) = 0.15968 0.41784
# Poissons Ratio (z) = 0.35996 0.16722
#
# Static dielectric constant tensor:
#      x y z
#    x 1.700600 0.000000 0.000000 
#    y 0.000000 1.639770 0.000000 
#    z 0.000000 0.000000 1.770950 
# 
# From -- ./inp_files/21005.got.cif
#   From: 2010.05.17/outbox.cif.g08.bks.cpg/sg20_11_cif.got.tgz:21005.got - 2010.06.03 22:52:26.
