data_PCOD9317886
_publ_section_title
;
Structure prediction by ZEFSAII (Michael W. Deem and Ramdas Pophale) SiO2 
 PCOD9317886
Probable space group: C 2 2 21
;
_chemical_formula_sum "Si O2"
_cell_formula_units_Z 64
_cell_length_a 11.709106
_cell_length_b 16.812426
_cell_length_c 16.936756
_cell_angle_alpha 90.000000
_cell_angle_beta 90.000000
_cell_angle_gamma 90.000000
_cell_volume 3334.144011
_symmetry_space_group_name_H-M "C 2 2 21"
_symmetry_group_IT_number 20
_symmetry_cell_setting 'orthorhombic'
loop_
_space_group_symop_operation_xyz
x,y,z
-x,-y,1/2+z
x,-y,-z
-x,y,1/2-z
1/2+x,1/2+y,z
1/2-x,1/2-y,1/2+z
1/2+x,1/2-y,-z
1/2-x,1/2+y,1/2-z
loop_
_atom_site_type_symbol
_atom_site_label
_atom_site_fract_x
_atom_site_fract_y
_atom_site_fract_z
Si Si1 0.423582 0.450200 0.826500
Si Si2 0.525496 0.908543 0.662676
Si Si3 0.823734 0.446344 0.137203
Si Si4 0.439385 0.323932 0.963424
Si Si5 0.076353 0.937888 0.069915
Si Si6 0.024721 0.355975 0.492346
Si Si7 0.815700 0.471911 0.306825
Si Si8 0.770244 0.411205 0.467995
O O1 0.500000 0.441067 0.750000
O O2 0.439183 0.373733 0.882400
O O3 0.476600 0.523352 0.877220
O O4 0.293781 0.469230 0.800958
O O5 0.500000 0.872642 0.750000
O O6 0.538961 0.851814 0.587522
O O7 0.639432 0.961780 0.650768
O O8 0.422686 0.975108 0.661860
O O9 0.691843 0.430204 0.119078
O O10 0.894800 0.411273 0.063273
O O11 0.846321 0.422198 0.228344
O O12 0.461842 0.231265 0.956303
O O13 0.530660 0.360624 0.024971
O O14 0.316021 0.346589 0.998922
O O15 0.102385 0.000000 0.000000
O O16 0.899039 0.392620 0.490383
O O17 0.774962 0.412887 0.374351
O O18 0.737776 0.500000 0.500000
#
# Coordination Sequence:
#
# PCOD9317886 Si02
#       8
#     8   8   8   8   8   8   8   8
#     4  11  20  40  63  89 122 165 219 271 317 382
#     4  10  21  39  63  92 118 160 219 269 308 378
#     4  11  22  37  64  93 124 159 213 273 325 379
#     4  11  25  39  62  94 131 171 214 261 339 402
#     4  10  20  36  60  87 117 160 207 257 313 393
#     4  12  24  40  62  94 132 170 203 269 335 391
#     4  11  20  38  68  93 112 160 235 268 297 377
#     4  12  20  42  71  87 118 176 229 258 304 394
#
# _framework density 19.195330999999999
#
# number of rings (size 3 to 8) (size 9 to 14) (size 15 to 20)
#    0.000    1.000    6.250    1.500    1.750    0.000 
#    2.250    1.875    0.000    0.000    0.000    0.000 
#    0.000    0.000    0.000    0.000    0.000    0.000 
#
# Total GULP energy -178227.233803 kJ/mol
# GULP energy per Si atom -5569.601056 kJ/mol
# Density = 1.915164 g / cm^3
# Si number density = 19.195331 Si / 1000 Ang^3
#
#
#
# Elastic Constant Matrix: (Units=GPa)
#
#
# Indices 1 2 3 4 5 6 
#
# 1 61.4509 1.1108 -4.2495 0.0000 0.0000 0.0000
# 2 1.1108 29.2482 13.7291 0.0000 0.0000 0.0000
# 3 -4.2495 13.7291 116.9387 0.0000 0.0000 0.0000
# 4 0.0000 0.0000 0.0000 12.6529 0.0000 0.0000
# 5 0.0000 0.0000 0.0000 0.0000 68.0496 0.0000
# 6 0.0000 0.0000 0.0000 0.0000 0.0000 13.2306
#
#
#
# Elastic Compliance Matrix: (Units=1/GPa)
#
#
# Indices 1 2 3 4 5 6 
#
# 1 0.016339 -0.000952 0.000705 0.000000 0.000000 0.000000
# 2 -0.000952 0.036240 -0.004289 0.000000 0.000000 0.000000
# 3 0.000705 -0.004289 0.009081 0.000000 0.000000 0.000000
# 4 0.000000 0.000000 0.000000 0.079033 0.000000 0.000000
# 5 0.000000 0.000000 0.000000 0.000000 0.014695 0.000000
# 6 0.000000 0.000000 0.000000 0.000000 0.000000 0.075582
#
#
# Mechanical properties :
#
#
# Convention : Reuss Voigt Hill
#
# Bulk Modulus (GPa) = 19.01551 25.42427 22.21989
# Shear Modulus (GPa) = 19.41216 31.92314 25.66765
#
# Velocity S-wave (km/s) = 3.18354 4.08250 3.66072
# Velocity P-wave (km/s) = 4.84160 5.95787 5.42850
#
# Compressibility (1/GPa) = 0.05258865
#
# Stress axis : x y z
#
# Youngs Moduli (GPa) = 61.20274 27.59403 110.12361
#
# Poissons Ratio (x) = 0.02626 -0.07769
# Poissons Ratio (y) = 0.05824 0.47235
# Poissons Ratio (z) = -0.04318 0.11836
#
# Static dielectric constant tensor:
#      x y z
#    x 1.715790 0.000000 0.000000 
#    y 0.000000 1.642390 0.000000 
#    z 0.000000 0.000000 1.800460 
# 
# From -- ./inp_files/24548.got.cif
#   From: 2010.05.17/outbox.cif.g08.bks.cpg/sg20_13_cif.got.tgz:24548.got - 2010.06.03 22:52:26.
