data_PCOD9317776
_publ_section_title
;
Structure prediction by ZEFSAII (Michael W. Deem and Ramdas Pophale) SiO2 
 PCOD9317776
Probable space group: C 2 2 21
;
_chemical_formula_sum "Si O2"
_cell_formula_units_Z 40
_cell_length_a 5.094585
_cell_length_b 15.272574
_cell_length_c 24.033372
_cell_angle_alpha 90.000000
_cell_angle_beta 90.000000
_cell_angle_gamma 90.000000
_cell_volume 1869.974823
_symmetry_space_group_name_H-M "C 2 2 21"
_symmetry_group_IT_number 20
_symmetry_cell_setting 'orthorhombic'
loop_
_space_group_symop_operation_xyz
x,y,z
-x,-y,1/2+z
x,-y,-z
-x,y,1/2-z
1/2+x,1/2+y,z
1/2-x,1/2-y,1/2+z
1/2+x,1/2-y,-z
1/2-x,1/2+y,1/2-z
loop_
_atom_site_type_symbol
_atom_site_label
_atom_site_fract_x
_atom_site_fract_y
_atom_site_fract_z
Si Si1 0.450224 0.011623 0.689852
Si Si2 0.795806 0.602298 0.916767
Si Si3 0.992024 0.785243 0.920780
Si Si4 0.291570 0.629759 0.971626
Si Si5 0.557338 0.393704 0.810159
O O1 0.500000 0.056624 0.750000
O O2 0.562865 0.066368 0.638166
O O3 0.648339 0.929761 0.691493
O O4 0.154783 0.974053 0.684891
O O5 0.505496 0.577338 0.935388
O O6 0.783667 0.707580 0.911581
O O7 0.006913 0.586607 0.965756
O O8 0.231208 0.727323 0.946063
O O9 0.037354 0.832129 0.862979
O O10 0.897578 0.853263 0.967153
O O11 0.500000 0.351833 0.750000
#
# Coordination Sequence:
#
# PCOD9317776 Si02
#       5
#     8   8   8   8   8
#     4  10  22  41  58  81 120 156 186 243 293 336
#     4  10  20  36  60  82 115 146 199 222 288 345
#     4  10  21  37  64  81 121 145 194 234 286 339
#     4  10  20  35  59  88 111 153 180 243 286 332
#     4  10  23  39  60  84 114 153 194 235 293 337
#
# _framework density 21.39066
#
# number of rings (size 3 to 8) (size 9 to 14) (size 15 to 20)
#    1.200    0.800    2.000    1.200    2.800    0.800 
#    0.000    6.000    0.000    0.000    0.000    0.000 
#    0.000    0.000    0.000    0.000    0.000    0.000 
#
# Total GULP energy -111401.706124 kJ/mol
# GULP energy per Si atom -5570.085306 kJ/mol
# Density = 2.134197 g / cm^3
# Si number density = 21.390660 Si / 1000 Ang^3
#
#
#
# Elastic Constant Matrix: (Units=GPa)
#
#
# Indices 1 2 3 4 5 6 
#
# 1 71.3803 -0.7937 6.8142 0.0000 0.0000 0.0000
# 2 -0.7937 25.3727 33.7225 0.0000 0.0000 0.0000
# 3 6.8142 33.7225 144.2820 0.0000 0.0000 0.0000
# 4 0.0000 0.0000 0.0000 46.0849 0.0000 0.0000
# 5 0.0000 0.0000 0.0000 0.0000 21.4203 0.0000
# 6 0.0000 0.0000 0.0000 0.0000 0.0000 -1.1187
#
#
#
# Elastic Compliance Matrix: (Units=1/GPa)
#
#
# Indices 1 2 3 4 5 6 
#
# 1 0.014138 0.001929 -0.001119 0.000000 0.000000 0.000000
# 2 0.001929 0.057436 -0.013515 0.000000 0.000000 0.000000
# 3 -0.001119 -0.013515 0.010143 0.000000 0.000000 0.000000
# 4 0.000000 0.000000 0.000000 0.021699 0.000000 0.000000
# 5 0.000000 0.000000 0.000000 0.000000 0.046685 0.000000
# 6 0.000000 0.000000 0.000000 0.000000 0.000000 -0.893867
#
#
# Mechanical properties :
#
#
# Convention : Reuss Voigt Hill
#
# Bulk Modulus (GPa) = 17.76007 35.61344 26.68675
# Shear Modulus (GPa) = -7.14706 26.69675 9.77485
#
# Velocity S-wave (km/s) = -1.82988 3.53662 2.14000
# Velocity P-wave (km/s) = 1.96370 5.77599 4.31383
#
# Compressibility (1/GPa) = 0.05630610
#
# Stress axis : x y z
#
# Youngs Moduli (GPa) = 70.73290 17.41070 98.59405
#
# Poissons Ratio (x) = -0.03358 0.11028
# Poissons Ratio (y) = -0.13643 1.33254
# Poissons Ratio (z) = 0.07912 0.23531
#
# Static dielectric constant tensor:
#      x y z
#    x 1.795090 0.000000 0.000000 
#    y 0.000000 1.802990 0.000000 
#    z 0.000000 0.000000 1.835500 
# 
# From -- ./inp_files/26006.got.cif
#   From: 2010.05.17/outbox.cif.g08.bks.cpg/sg20_14_cif.got.tgz:26006.got - 2010.06.03 22:52:26.
