data_PCOD9317332
_publ_section_title
;
Structure prediction by ZEFSAII (Michael W. Deem and Ramdas Pophale) SiO2 
 PCOD9317332
Probable space group: C 2 2 21
;
_chemical_formula_sum "Si O2"
_cell_formula_units_Z 52
_cell_length_a 21.609663
_cell_length_b 15.621307
_cell_length_c 7.816646
_cell_angle_alpha 90.000000
_cell_angle_beta 90.000000
_cell_angle_gamma 90.000000
_cell_volume 2638.674413
_symmetry_space_group_name_H-M "C 2 2 21"
_symmetry_group_IT_number 20
_symmetry_cell_setting 'orthorhombic'
loop_
_space_group_symop_operation_xyz
x,y,z
-x,-y,1/2+z
x,-y,-z
-x,y,1/2-z
1/2+x,1/2+y,z
1/2-x,1/2-y,1/2+z
1/2+x,1/2-y,-z
1/2-x,1/2+y,1/2-z
loop_
_atom_site_type_symbol
_atom_site_label
_atom_site_fract_x
_atom_site_fract_y
_atom_site_fract_z
Si Si1 0.174231 0.708365 0.964473
Si Si2 0.949930 0.201154 0.508428
Si Si3 0.500000 0.166024 0.250000
Si Si4 0.684630 0.000000 0.500000
Si Si5 0.613545 0.449361 0.182718
Si Si6 0.737279 0.637832 0.831347
Si Si7 0.000000 0.935583 0.750000
Si Si8 0.882836 0.443410 0.666189
O O1 0.106795 0.748940 0.915176
O O2 0.215947 0.674194 0.810108
O O3 0.207363 0.782907 0.069734
O O4 0.162166 0.628963 0.090390
O O5 0.917813 0.143356 0.654490
O O6 0.985105 0.129385 0.402144
O O7 0.994578 0.271879 0.587066
O O8 0.559251 0.106645 0.242877
O O9 0.726812 0.082686 0.527326
O O10 0.646703 0.006404 0.323982
O O11 0.682659 0.424424 0.243708
O O12 0.561558 0.506688 0.277389
O O13 0.621220 0.500000 0.000000
O O14 0.899810 0.500000 0.500000
#
# Coordination Sequence:
#
# PCOD9317332 Si02
#       8
#     8   8   4   4   8   8   4   8
#     4  10  22  42  65  92 135 170 223 277 325 403
#     4   9  20  38  61  88 129 168 212 273 326 393
#     4  10  23  42  65  88 130 170 208 276 341 381
#     4  12  24  40  72  96 132 174 220 270 344 390
#     4   9  18  35  62  89 128 169 212 271 325 395
#     4  11  21  40  66  95 130 181 219 270 339 399
#     4  10  19  36  63  96 126 166 224 268 329 401
#     4  11  24  45  67  99 130 168 225 284 324 405
#
# _framework density 19.706863999999999
#
# number of rings (size 3 to 8) (size 9 to 14) (size 15 to 20)
#    0.000    1.846    2.308    1.385    1.077    1.231 
#    0.000    4.615   10.154    0.000    0.000    0.000 
#    0.000    0.000    0.000    0.000    0.000    0.000 
#
# Total GULP energy -144931.473821 kJ/mol
# GULP energy per Si atom -5574.287455 kJ/mol
# Density = 1.966201 g / cm^3
# Si number density = 19.706864 Si / 1000 Ang^3
#
#
#
# Elastic Constant Matrix: (Units=GPa)
#
#
# Indices 1 2 3 4 5 6 
#
# 1 104.1201 54.3825 62.4113 0.0000 0.0000 0.0000
# 2 54.3825 104.2186 32.3096 0.0000 0.0000 0.0000
# 3 62.4113 32.3096 60.8243 0.0000 0.0000 0.0000
# 4 0.0000 0.0000 0.0000 38.8337 0.0000 0.0000
# 5 0.0000 0.0000 0.0000 0.0000 27.7719 0.0000
# 6 0.0000 0.0000 0.0000 0.0000 0.0000 161.7533
#
#
#
# Elastic Compliance Matrix: (Units=1/GPa)
#
#
# Indices 1 2 3 4 5 6 
#
# 1 0.028651 -0.006987 -0.025687 0.000000 0.000000 0.000000
# 2 -0.006987 0.013191 0.000162 0.000000 0.000000 0.000000
# 3 -0.025687 0.000162 0.042712 0.000000 0.000000 0.000000
# 4 0.000000 0.000000 0.000000 0.025751 0.000000 0.000000
# 5 0.000000 0.000000 0.000000 0.000000 0.036008 0.000000
# 6 0.000000 0.000000 0.000000 0.000000 0.000000 0.006182
#
#
# Mechanical properties :
#
#
# Convention : Reuss Voigt Hill
#
# Bulk Modulus (GPa) = 51.20262 63.04109 57.12186
# Shear Modulus (GPa) = 22.31880 53.67576 37.99728
#
# Velocity S-wave (km/s) = 3.36897 5.22458 4.39580
# Velocity P-wave (km/s) = 6.41653 8.27368 7.40357
#
# Compressibility (1/GPa) = 0.01953025
#
# Stress axis : x y z
#
# Youngs Moduli (GPa) = 34.90323 75.81077 23.41287
#
# Poissons Ratio (x) = 0.52968 0.60140
# Poissons Ratio (y) = 0.24387 -0.00380
# Poissons Ratio (z) = 0.89655 -0.01231
#
# Static dielectric constant tensor:
#      x y z
#    x 1.767330 0.000000 0.000000 
#    y 0.000000 1.691350 0.000000 
#    z 0.000000 0.000000 1.634840 
# 
# From -- ./inp_files/10171.got.cif
#   From: 2010.05.17/outbox.cif.g08.bks.cpg/sg20_6_cif.got.tgz:10171.got - 2010.06.03 22:52:26.
