data_PCOD9317305
_publ_section_title
;
Structure prediction by ZEFSAII (Michael W. Deem and Ramdas Pophale) SiO2 
 PCOD9317305
Probable space group: C 2 2 21
;
_chemical_formula_sum "Si O2"
_cell_formula_units_Z 64
_cell_length_a 17.916744
_cell_length_b 20.634683
_cell_length_c 8.522483
_cell_angle_alpha 90.000000
_cell_angle_beta 90.000000
_cell_angle_gamma 90.000000
_cell_volume 3150.815937
_symmetry_space_group_name_H-M "C 2 2 21"
_symmetry_group_IT_number 20
_symmetry_cell_setting 'orthorhombic'
loop_
_space_group_symop_operation_xyz
x,y,z
-x,-y,1/2+z
x,-y,-z
-x,y,1/2-z
1/2+x,1/2+y,z
1/2-x,1/2-y,1/2+z
1/2+x,1/2-y,-z
1/2-x,1/2+y,1/2-z
loop_
_atom_site_type_symbol
_atom_site_label
_atom_site_fract_x
_atom_site_fract_y
_atom_site_fract_z
Si Si1 0.242993 0.306540 0.492544
Si Si2 0.425414 0.772082 0.690220
Si Si3 0.107974 0.242042 0.147193
Si Si4 0.701266 0.426758 0.538978
Si Si5 0.581455 0.010688 0.683721
Si Si6 0.175497 0.612629 0.252928
Si Si7 0.687732 0.125923 0.783559
Si Si8 0.119477 0.799499 0.510404
O O1 0.316022 0.295437 0.595458
O O2 0.187460 0.357155 0.575535
O O3 0.251175 0.339000 0.323306
O O4 0.198769 0.239175 0.475762
O O5 0.500000 0.808038 0.750000
O O6 0.436813 0.740347 0.518432
O O7 0.357946 0.823068 0.670018
O O8 0.409837 0.724708 0.839659
O O9 0.130940 0.316460 0.176564
O O10 0.081832 0.218038 0.319911
O O11 0.680348 0.500000 0.500000
O O12 0.743839 0.415060 0.703004
O O13 0.768745 0.405697 0.425872
O O14 0.635541 0.375618 0.514443
O O15 0.500000 0.025316 0.750000
O O16 0.639277 0.068368 0.712117
O O17 0.574194 0.000000 0.500000
O O18 0.616846 0.945362 0.757016
#
# Coordination Sequence:
#
# PCOD9317305 Si02
#       8
#     8   8   8   8   8   8   8   8
#     4  10  19  36  61  83 114 152 194 264 314 352
#     4  11  24  40  62  90 121 164 208 252 299 369
#     4  11  21  38  63  88 123 156 199 262 320 355
#     4  12  21  34  61  91 121 152 192 251 313 371
#     4  12  27  41  54  78 126 183 218 244 279 353
#     4  11  21  38  56  83 122 158 203 247 301 346
#     4  11  22  36  56  84 116 162 211 245 298 361
#     4  10  22  38  59  93 117 153 201 253 319 364
#
# _framework density 20.312197999999999
#
# number of rings (size 3 to 8) (size 9 to 14) (size 15 to 20)
#    0.000    1.000    6.250    1.125    5.250    1.500 
#    0.000    0.000    0.000    0.000    3.250    0.000 
#    0.000    0.000    0.000    0.000    0.000    0.000 
#
# Total GULP energy -178374.779510 kJ/mol
# GULP energy per Si atom -5574.211860 kJ/mol
# Density = 2.026597 g / cm^3
# Si number density = 20.312198 Si / 1000 Ang^3
#
#
#
# Elastic Constant Matrix: (Units=GPa)
#
#
# Indices 1 2 3 4 5 6 
#
# 1 30.2599 12.6167 20.8594 0.0000 0.0000 0.0000
# 2 12.6167 126.4406 39.0172 0.0000 0.0000 0.0000
# 3 20.8594 39.0172 116.0482 0.0000 0.0000 0.0000
# 4 0.0000 0.0000 0.0000 13.1984 0.0000 0.0000
# 5 0.0000 0.0000 0.0000 0.0000 31.5091 0.0000
# 6 0.0000 0.0000 0.0000 0.0000 0.0000 -4.2996
#
#
#
# Elastic Compliance Matrix: (Units=1/GPa)
#
#
# Indices 1 2 3 4 5 6 
#
# 1 0.038119 -0.001885 -0.006218 0.000000 0.000000 0.000000
# 2 -0.001885 0.008918 -0.002659 0.000000 0.000000 0.000000
# 3 -0.006218 -0.002659 0.010629 0.000000 0.000000 0.000000
# 4 0.000000 0.000000 0.000000 0.075767 0.000000 0.000000
# 5 0.000000 0.000000 0.000000 0.000000 0.031737 0.000000
# 6 0.000000 0.000000 0.000000 0.000000 0.000000 -0.232581
#
#
# Mechanical properties :
#
#
# Convention : Reuss Voigt Hill
#
# Bulk Modulus (GPa) = 27.66946 46.41504 37.04225
# Shear Modulus (GPa) = -147.75331 21.43196 -63.16068
#
# Velocity S-wave (km/s) = -8.53810 3.25180 -5.58233
# Velocity P-wave (km/s) = 9.14041 6.08271 4.82430
#
# Compressibility (1/GPa) = 0.03614093
#
# Stress axis : x y z
#
# Youngs Moduli (GPa) = 26.23345 112.13803 94.08276
#
# Poissons Ratio (x) = 0.21137 0.58502
# Poissons Ratio (y) = 0.04945 0.25021
# Poissons Ratio (z) = 0.16312 0.29822
#
# Static dielectric constant tensor:
#      x y z
#    x 1.737980 0.000000 0.000000 
#    y 0.000000 1.691620 0.000000 
#    z 0.000000 0.000000 1.829930 
# 
# From -- ./inp_files/10341.got.cif
#   From: 2010.05.17/outbox.cif.g08.bks.cpg/sg20_6_cif.got.tgz:10341.got - 2010.06.03 22:52:26.
