data_PCOD9317585
_publ_section_title
;
Structure prediction by ZEFSAII (Michael W. Deem and Ramdas Pophale) SiO2 
 PCOD9317585
Probable space group: C 2 2 21
;
_chemical_formula_sum "Si O2"
_cell_formula_units_Z 64
_cell_length_a 25.896581
_cell_length_b 18.285148
_cell_length_c 7.902125
_cell_angle_alpha 90.000000
_cell_angle_beta 90.000000
_cell_angle_gamma 90.000000
_cell_volume 3741.836485
_symmetry_space_group_name_H-M "C 2 2 21"
_symmetry_group_IT_number 20
_symmetry_cell_setting 'orthorhombic'
loop_
_space_group_symop_operation_xyz
x,y,z
-x,-y,1/2+z
x,-y,-z
-x,y,1/2-z
1/2+x,1/2+y,z
1/2-x,1/2-y,1/2+z
1/2+x,1/2-y,-z
1/2-x,1/2+y,1/2-z
loop_
_atom_site_type_symbol
_atom_site_label
_atom_site_fract_x
_atom_site_fract_y
_atom_site_fract_z
Si Si1 0.817908 0.852612 0.372418
Si Si2 0.361448 0.573103 0.312613
Si Si3 0.119557 0.840078 0.462738
Si Si4 0.942622 0.960829 0.180906
Si Si5 0.209249 0.561067 0.641719
Si Si6 0.259043 0.455460 0.857960
Si Si7 0.176040 0.706739 0.545859
Si Si8 0.731131 0.793817 0.818072
O O1 0.858271 0.882756 0.511104
O O2 0.836074 0.856924 0.176983
O O3 0.764146 0.896827 0.378409
O O4 0.805585 0.766740 0.404107
O O5 0.401042 0.505244 0.296259
O O6 0.301681 0.550089 0.288733
O O7 0.372995 0.621542 0.144932
O O8 0.071994 0.877256 0.365227
O O9 0.125924 0.754166 0.499082
O O10 0.000000 0.967165 0.250000
O O11 0.939947 0.000000 0.000000
O O12 0.201080 0.500000 0.500000
O O13 0.214383 0.512201 0.808432
O O14 0.169201 0.627297 0.626530
O O15 0.238262 0.374650 0.893662
O O16 0.289454 0.500000 0.000000
O O17 0.212501 0.756337 0.667002
O O18 0.208751 0.697017 0.370976
#
# Coordination Sequence:
#
# PCOD9317585 Si02
#       8
#     8   8   8   8   8   8   8   8
#     4  10  21  32  51  67  95 135 174 202 249 284
#     4  11  20  34  50  71  96 127 172 215 245 303
#     4  10  21  34  50  71  91 127 168 209 251 301
#     4  10  23  37  53  76  98 127 168 214 267 305
#     4  11  19  30  42  66  92 130 169 205 243 279
#     4  12  21  29  46  68  99 129 174 215 242 286
#     4  10  20  32  46  63  94 126 171 210 249 287
#     4  10  20  31  44  68  92 133 173 210 241 287
#
# _framework density 17.103899999999999
#
# number of rings (size 3 to 8) (size 9 to 14) (size 15 to 20)
#    0.000    1.500    3.750    3.375    5.250    0.000 
#    0.000    0.000    0.000    0.000    0.000    0.000 
#    0.000    0.000    0.000    9.000    0.000    1.000 
#
# Total GULP energy -178194.574867 kJ/mol
# GULP energy per Si atom -5568.580465 kJ/mol
# Density = 1.706497 g / cm^3
# Si number density = 17.103900 Si / 1000 Ang^3
#
#
#
# Elastic Constant Matrix: (Units=GPa)
#
#
# Indices 1 2 3 4 5 6 
#
# 1 30.3420 26.3445 4.1012 0.0000 0.0000 0.0000
# 2 26.3445 145.7058 26.3218 0.0000 0.0000 0.0000
# 3 4.1012 26.3218 62.4399 0.0000 0.0000 0.0000
# 4 0.0000 0.0000 0.0000 27.5756 0.0000 0.0000
# 5 0.0000 0.0000 0.0000 0.0000 18.8568 0.0000
# 6 0.0000 0.0000 0.0000 0.0000 0.0000 16.7176
#
#
#
# Elastic Compliance Matrix: (Units=1/GPa)
#
#
# Indices 1 2 3 4 5 6 
#
# 1 0.039106 -0.007151 0.000446 0.000000 0.000000 0.000000
# 2 -0.007151 0.008737 -0.003213 0.000000 0.000000 0.000000
# 3 0.000446 -0.003213 0.017341 0.000000 0.000000 0.000000
# 4 0.000000 0.000000 0.000000 0.036264 0.000000 0.000000
# 5 0.000000 0.000000 0.000000 0.000000 0.053031 0.000000
# 6 0.000000 0.000000 0.000000 0.000000 0.000000 0.059817
#
#
# Mechanical properties :
#
#
# Convention : Reuss Voigt Hill
#
# Bulk Modulus (GPa) = 22.05229 39.11363 30.58296
# Shear Modulus (GPa) = 20.06030 24.74469 22.40250
#
# Velocity S-wave (km/s) = 3.42840 3.80771 3.62303
# Velocity P-wave (km/s) = 5.34725 6.49996 5.95158
#
# Compressibility (1/GPa) = 0.04534676
#
# Stress axis : x y z
#
# Youngs Moduli (GPa) = 25.57127 114.46087 57.66791
#
# Poissons Ratio (x) = 0.81854 -0.02572
# Poissons Ratio (y) = 0.18287 0.18530
# Poissons Ratio (z) = -0.01141 0.36779
#
# Static dielectric constant tensor:
#      x y z
#    x 1.558740 0.000000 0.000000 
#    y 0.000000 1.652270 0.000000 
#    z 0.000000 0.000000 1.751930 
# 
# From -- ./inp_files/11210.got.cif
#   From: 2010.05.17/outbox.cif.g08.bks.cpg/sg20_6_cif.got.tgz:11210.got - 2010.06.03 22:52:26.
