data_PCOD9317638
_publ_section_title
;
Structure prediction by ZEFSAII (Michael W. Deem and Ramdas Pophale) SiO2 
 PCOD9317638
Probable space group: C 2 2 21
;
_chemical_formula_sum "Si O2"
_cell_formula_units_Z 64
_cell_length_a 5.355351
_cell_length_b 26.757710
_cell_length_c 25.637661
_cell_angle_alpha 90.000000
_cell_angle_beta 90.000000
_cell_angle_gamma 90.000000
_cell_volume 3673.798088
_symmetry_space_group_name_H-M "C 2 2 21"
_symmetry_group_IT_number 20
_symmetry_cell_setting 'orthorhombic'
loop_
_space_group_symop_operation_xyz
x,y,z
-x,-y,1/2+z
x,-y,-z
-x,y,1/2-z
1/2+x,1/2+y,z
1/2-x,1/2-y,1/2+z
1/2+x,1/2-y,-z
1/2-x,1/2+y,1/2-z
loop_
_atom_site_type_symbol
_atom_site_label
_atom_site_fract_x
_atom_site_fract_y
_atom_site_fract_z
Si Si1 0.248770 0.685183 0.094958
Si Si2 0.802810 0.769893 0.474288
Si Si3 0.872750 0.998271 0.893794
Si Si4 0.423603 0.129136 0.011125
Si Si5 0.519468 0.871096 0.807903
Si Si6 0.247977 0.523661 0.217665
Si Si7 0.869215 0.105818 0.389071
Si Si8 0.870708 0.468528 0.050762
O O1 0.234041 0.743603 0.082008
O O2 0.145195 0.657849 0.042203
O O3 0.104096 0.666699 0.146628
O O4 0.517462 0.661124 0.104648
O O5 0.582744 0.743049 0.507865
O O6 0.744405 0.827732 0.484521
O O7 0.125752 0.026716 0.912123
O O8 0.791797 0.008021 0.834408
O O9 0.625272 0.008252 0.926824
O O10 0.939063 0.939270 0.895413
O O11 0.304274 0.101080 0.060684
O O12 0.452243 0.086798 0.967788
O O13 0.500000 0.848186 0.750000
O O14 0.274175 0.895967 0.834178
O O15 0.700116 0.918298 0.798419
O O16 0.500000 0.520259 0.250000
O O17 0.000000 0.509332 0.250000
O O18 0.794353 0.500000 0.000000
#
# Coordination Sequence:
#
# PCOD9317638 Si02
#       8
#     8   8   8   8   8   8   8   8
#     4  10  20  33  56  75 111 146 181 222 278 329
#     4  10  20  35  56  78 106 143 187 221 267 324
#     4  12  23  36  53  80 110 146 188 219 272 341
#     4  10  22  36  51  80 111 153 189 230 269 324
#     4  10  21  32  51  80 112 146 177 223 275 338
#     4  11  22  37  56  78 108 144 184 232 279 327
#     4  11  19  35  52  75 114 151 179 221 270 326
#     4  12  24  34  52  77 115 153 185 222 273 327
#
# _framework density 17.420663999999999
#
# number of rings (size 3 to 8) (size 9 to 14) (size 15 to 20)
#    0.000    1.250    3.750    4.125    1.750    0.000 
#    0.000    0.000    0.000    0.000    0.000    2.625 
#    3.750    0.000    0.000    0.000    0.000    0.000 
#
# Total GULP energy -178208.490693 kJ/mol
# GULP energy per Si atom -5569.015334 kJ/mol
# Density = 1.738101 g / cm^3
# Si number density = 17.420664 Si / 1000 Ang^3
#
#
#
# Elastic Constant Matrix: (Units=GPa)
#
#
# Indices 1 2 3 4 5 6 
#
# 1 92.9349 11.1941 44.5477 0.0000 0.0000 0.0000
# 2 11.1941 52.1468 38.5441 0.0000 0.0000 0.0000
# 3 44.5477 38.5441 107.8329 0.0000 0.0000 0.0000
# 4 0.0000 0.0000 0.0000 23.8347 0.0000 0.0000
# 5 0.0000 0.0000 0.0000 0.0000 35.9278 0.0000
# 6 0.0000 0.0000 0.0000 0.0000 0.0000 19.9339
#
#
#
# Elastic Compliance Matrix: (Units=1/GPa)
#
#
# Indices 1 2 3 4 5 6 
#
# 1 0.013523 0.001667 -0.006182 0.000000 0.000000 0.000000
# 2 0.001667 0.026268 -0.010078 0.000000 0.000000 0.000000
# 3 -0.006182 -0.010078 0.015430 0.000000 0.000000 0.000000
# 4 0.000000 0.000000 0.000000 0.041956 0.000000 0.000000
# 5 0.000000 0.000000 0.000000 0.000000 0.027834 0.000000
# 6 0.000000 0.000000 0.000000 0.000000 0.000000 0.050166
#
#
# Mechanical properties :
#
#
# Convention : Reuss Voigt Hill
#
# Bulk Modulus (GPa) = 38.41155 49.05404 43.73280
# Shear Modulus (GPa) = 23.46973 26.51452 24.99212
#
# Velocity S-wave (km/s) = 3.67445 3.90553 3.79175
# Velocity P-wave (km/s) = 6.33241 6.96830 6.65795
#
# Compressibility (1/GPa) = 0.02603383
#
# Stress axis : x y z
#
# Youngs Moduli (GPa) = 73.94851 38.06939 64.80929
#
# Poissons Ratio (x) = -0.06345 0.40067
# Poissons Ratio (y) = -0.12325 0.65314
# Poissons Ratio (z) = 0.45717 0.38366
#
# Static dielectric constant tensor:
#      x y z
#    x 1.682720 0.000000 0.000000 
#    y 0.000000 1.608390 0.000000 
#    z 0.000000 0.000000 1.639140 
# 
# From -- ./inp_files/28539.got.cif
#   From: 2010.05.17/outbox.cif.g08.bks.cpg/sg20_15_cif.got.tgz:28539.got - 2010.06.03 22:52:26.
