data_PCOD9317654
_publ_section_title
;
Structure prediction by ZEFSAII (Michael W. Deem and Ramdas Pophale) SiO2 
 PCOD9317654
Probable space group: C 2 2 21
;
_chemical_formula_sum "Si O2"
_cell_formula_units_Z 44
_cell_length_a 17.378428
_cell_length_b 32.622965
_cell_length_c 4.908645
_cell_angle_alpha 90.000000
_cell_angle_beta 90.000000
_cell_angle_gamma 90.000000
_cell_volume 2782.886818
_symmetry_space_group_name_H-M "C 2 2 21"
_symmetry_group_IT_number 20
_symmetry_cell_setting 'orthorhombic'
loop_
_space_group_symop_operation_xyz
x,y,z
-x,-y,1/2+z
x,-y,-z
-x,y,1/2-z
1/2+x,1/2+y,z
1/2-x,1/2-y,1/2+z
1/2+x,1/2-y,-z
1/2-x,1/2+y,1/2-z
loop_
_atom_site_type_symbol
_atom_site_label
_atom_site_fract_x
_atom_site_fract_y
_atom_site_fract_z
Si Si1 0.360009 0.632625 0.687964
Si Si2 0.000000 0.751700 0.750000
Si Si3 0.944700 0.000000 0.000000
Si Si4 0.592070 0.585711 0.291381
Si Si5 0.342190 0.222502 0.594606
Si Si6 0.253275 0.805814 0.913956
Si Si7 0.500000 0.307452 0.250000
O O1 0.373224 0.592777 0.504257
O O2 0.287108 0.655594 0.557102
O O3 0.431253 0.663806 0.646138
O O4 0.368992 0.618035 0.000085
O O5 0.933889 0.726221 0.595040
O O6 0.030758 0.780714 0.504883
O O7 0.899270 0.039863 0.097311
O O8 0.000000 0.987313 0.250000
O O9 0.500000 0.592589 0.250000
O O10 0.292114 0.195149 0.384206
O O11 0.308284 0.268580 0.568716
O O12 0.322541 0.207319 0.893489
#
# Coordination Sequence:
#
# PCOD9317654 Si02
#       7
#     8   4   4   8   8   8   4
#     4  12  21  32  48  68  95 122 160 205 254 284
#     4  12  22  34  52  68  89 126 166 208 253 290
#     4  10  20  34  46  64  94 124 156 200 240 284
#     4  11  20  32  47  68  91 124 161 200 243 288
#     4  10  21  34  47  64  89 123 155 198 249 294
#     4  10  21  34  46  65  93 121 154 198 254 291
#     4  12  22  30  46  74  93 116 160 218 247 284
#
# _framework density 15.810919
#
# number of rings (size 3 to 8) (size 9 to 14) (size 15 to 20)
#    0.000    1.091    3.636    5.455    5.091    0.000 
#    0.000    0.000    0.000    0.000    0.000    0.000 
#    0.000    0.000    0.000    0.000    0.000   50.909 
#
# Total GULP energy -122599.695044 kJ/mol
# GULP energy per Si atom -5572.713411 kJ/mol
# Density = 1.577493 g / cm^3
# Si number density = 15.810919 Si / 1000 Ang^3
#
#
#
# Elastic Constant Matrix: (Units=GPa)
#
#
# Indices 1 2 3 4 5 6 
#
# 1 54.3384 17.0344 2.2152 0.0000 0.0000 0.0000
# 2 17.0344 41.5783 2.4163 0.0000 0.0000 0.0000
# 3 2.2152 2.4163 69.7134 0.0000 0.0000 0.0000
# 4 0.0000 0.0000 0.0000 24.1057 0.0000 0.0000
# 5 0.0000 0.0000 0.0000 0.0000 18.5313 0.0000
# 6 0.0000 0.0000 0.0000 0.0000 0.0000 11.3834
#
#
#
# Elastic Compliance Matrix: (Units=1/GPa)
#
#
# Indices 1 2 3 4 5 6 
#
# 1 0.021125 -0.008633 -0.000372 0.000000 0.000000 0.000000
# 2 -0.008633 0.027628 -0.000683 0.000000 0.000000 0.000000
# 3 -0.000372 -0.000683 0.014380 0.000000 0.000000 0.000000
# 4 0.000000 0.000000 0.000000 0.041484 0.000000 0.000000
# 5 0.000000 0.000000 0.000000 0.000000 0.053963 0.000000
# 6 0.000000 0.000000 0.000000 0.000000 0.000000 0.087848
#
#
# Mechanical properties :
#
#
# Convention : Reuss Voigt Hill
#
# Bulk Modulus (GPa) = 22.85421 23.21798 23.03610
# Shear Modulus (GPa) = 17.83242 20.40170 19.11706
#
# Velocity S-wave (km/s) = 3.36200 3.59605 3.48099
# Velocity P-wave (km/s) = 5.43662 5.65321 5.54597
#
# Compressibility (1/GPa) = 0.04375561
#
# Stress axis : x y z
#
# Youngs Moduli (GPa) = 47.33796 36.19569 69.54126
#
# Poissons Ratio (x) = 0.31248 0.02587
# Poissons Ratio (y) = 0.40867 0.04751
# Poissons Ratio (z) = 0.01761 0.02473
#
# Static dielectric constant tensor:
#      x y z
#    x 1.546050 0.000000 0.000000 
#    y 0.000000 1.541710 0.000000 
#    z 0.000000 0.000000 1.577750 
# 
# From -- ./inp_files/2172.got.cif
#   From: 2010.05.17/outbox.cif.g08.bks.cpg/sg20_2_cif.got.tgz:2172.got - 2010.06.03 22:52:26.
