data_PCOD9317351
_publ_section_title
;
Structure prediction by ZEFSAII (Michael W. Deem and Ramdas Pophale) SiO2 
 PCOD9317351
Probable space group: C 2 2 21
;
_chemical_formula_sum "Si O2"
_cell_formula_units_Z 60
_cell_length_a 17.395350
_cell_length_b 13.349622
_cell_length_c 12.374640
_cell_angle_alpha 90.000000
_cell_angle_beta 90.000000
_cell_angle_gamma 90.000000
_cell_volume 2873.655570
_symmetry_space_group_name_H-M "C 2 2 21"
_symmetry_group_IT_number 20
_symmetry_cell_setting 'orthorhombic'
loop_
_space_group_symop_operation_xyz
x,y,z
-x,-y,1/2+z
x,-y,-z
-x,y,1/2-z
1/2+x,1/2+y,z
1/2-x,1/2-y,1/2+z
1/2+x,1/2-y,-z
1/2-x,1/2+y,1/2-z
loop_
_atom_site_type_symbol
_atom_site_label
_atom_site_fract_x
_atom_site_fract_y
_atom_site_fract_z
Si Si1 0.197007 0.111315 0.735225
Si Si2 0.638000 0.291172 0.054239
Si Si3 0.448629 0.000000 0.000000
Si Si4 0.753418 0.311861 0.855427
Si Si5 0.512783 0.401079 0.927228
Si Si6 0.945607 0.618378 0.341129
Si Si7 0.123141 0.904565 0.718943
Si Si8 0.847845 0.487727 0.188962
O O1 0.158726 0.131761 0.851280
O O2 0.196556 0.213523 0.668026
O O3 0.157738 0.012700 0.686861
O O4 0.285312 0.083995 0.759516
O O5 0.622283 0.186094 0.112162
O O6 0.704023 0.295917 0.963986
O O7 0.557727 0.320849 0.998923
O O8 0.500917 0.078033 0.064114
O O9 0.395390 0.946144 0.088599
O O10 0.691819 0.332766 0.758608
O O11 0.803867 0.412819 0.855587
O O12 0.569640 0.420549 0.825226
O O13 0.432224 0.367518 0.875918
O O14 0.503680 0.500000 0.000000
O O15 0.907003 0.525620 0.279079
O O16 0.000000 0.670114 0.250000
#
# Coordination Sequence:
#
# PCOD9317351 Si02
#       8
#     8   8   4   8   8   8   8   8
#     4  11  21  39  64  85 122 166 199 252 319 359
#     4  11  22  38  63  89 121 166 204 246 319 369
#     4  10  22  40  62  86 116 164 202 246 310 352
#     4  10  22  39  61  90 121 160 206 254 306 374
#     4  10  19  37  59  85 120 156 199 248 304 368
#     4  10  23  41  62  90 123 158 209 259 299 373
#     4   9  21  38  59  89 120 157 208 254 296 372
#     4  10  21  41  63  87 124 158 208 258 296 373
#
# _framework density 20.879328999999998
#
# number of rings (size 3 to 8) (size 9 to 14) (size 15 to 20)
#    0.000    1.867    2.667    0.800    1.867    2.133 
#    2.400    0.000    0.000    0.000    0.000    0.000 
#    0.000    0.000    0.000    0.000    0.000    0.000 
#
# Total GULP energy -167532.744753 kJ/mol
# GULP energy per Si atom -5584.424825 kJ/mol
# Density = 2.083181 g / cm^3
# Si number density = 20.879329 Si / 1000 Ang^3
#
#
#
# Elastic Constant Matrix: (Units=GPa)
#
#
# Indices 1 2 3 4 5 6 
#
# 1 72.3817 -1.1776 22.6455 0.0000 0.0000 0.0000
# 2 -1.1776 42.5631 8.1845 0.0000 0.0000 0.0000
# 3 22.6455 8.1845 68.2689 0.0000 0.0000 0.0000
# 4 0.0000 0.0000 0.0000 17.3947 0.0000 0.0000
# 5 0.0000 0.0000 0.0000 0.0000 25.5538 0.0000
# 6 0.0000 0.0000 0.0000 0.0000 0.0000 23.7993
#
#
#
# Elastic Compliance Matrix: (Units=1/GPa)
#
#
# Indices 1 2 3 4 5 6 
#
# 1 0.015503 0.001451 -0.005316 0.000000 0.000000 0.000000
# 2 0.001451 0.024185 -0.003381 0.000000 0.000000 0.000000
# 3 -0.005316 -0.003381 0.016817 0.000000 0.000000 0.000000
# 4 0.000000 0.000000 0.000000 0.057489 0.000000 0.000000
# 5 0.000000 0.000000 0.000000 0.000000 0.039133 0.000000
# 6 0.000000 0.000000 0.000000 0.000000 0.000000 0.042018
#
#
# Mechanical properties :
#
#
# Convention : Reuss Voigt Hill
#
# Bulk Modulus (GPa) = 23.80265 26.94653 25.37459
# Shear Modulus (GPa) = 22.35737 23.58698 22.97217
#
# Velocity S-wave (km/s) = 3.27584 3.36472 3.32058
# Velocity P-wave (km/s) = 5.07277 5.29424 5.18469
#
# Compressibility (1/GPa) = 0.04201214
#
# Stress axis : x y z
#
# Youngs Moduli (GPa) = 64.50559 41.34837 59.46450
#
# Poissons Ratio (x) = -0.06000 0.31613
# Poissons Ratio (y) = -0.09361 0.20104
# Poissons Ratio (z) = 0.34293 0.13979
#
# Static dielectric constant tensor:
#      x y z
#    x 1.762530 0.000000 0.000000 
#    y 0.000000 1.719800 0.000000 
#    z 0.000000 0.000000 1.749360 
# 
# From -- ./inp_files/15864.got.cif
#   From: 2010.05.17/outbox.cif.g08.bks.cpg/sg20_8_cif.got.tgz:15864.got - 2010.06.03 22:52:26.
