data_PCOD9317433
_publ_section_title
;
Structure prediction by ZEFSAII (Michael W. Deem and Ramdas Pophale) SiO2 
 PCOD9317433
Probable space group: C 2 2 21
;
_chemical_formula_sum "Si O2"
_cell_formula_units_Z 40
_cell_length_a 5.112519
_cell_length_b 26.152581
_cell_length_c 13.642263
_cell_angle_alpha 90.000000
_cell_angle_beta 90.000000
_cell_angle_gamma 90.000000
_cell_volume 1824.046513
_symmetry_space_group_name_H-M "C 2 2 21"
_symmetry_group_IT_number 20
_symmetry_cell_setting 'orthorhombic'
loop_
_space_group_symop_operation_xyz
x,y,z
-x,-y,1/2+z
x,-y,-z
-x,y,1/2-z
1/2+x,1/2+y,z
1/2-x,1/2-y,1/2+z
1/2+x,1/2-y,-z
1/2-x,1/2+y,1/2-z
loop_
_atom_site_type_symbol
_atom_site_label
_atom_site_fract_x
_atom_site_fract_y
_atom_site_fract_z
Si Si1 0.684478 0.793153 0.394007
Si Si2 0.689093 0.766831 0.626458
Si Si3 0.031529 0.500000 0.500000
Si Si4 0.217221 0.102528 0.961385
Si Si5 0.000000 0.150277 0.250000
Si Si6 0.205975 0.407938 0.916180
O O1 0.698472 0.781266 0.510995
O O2 0.394982 0.779386 0.360508
O O3 0.749437 0.852917 0.382318
O O4 0.899629 0.754029 0.351362
O O5 0.813647 0.813200 0.686333
O O6 0.854202 0.531686 0.423668
O O7 0.202608 0.456761 0.444439
O O8 0.432680 0.114836 0.046302
O O9 0.927248 0.104434 0.003660
O O10 0.183707 0.114904 0.317171
#
# Coordination Sequence:
#
# PCOD9317433 Si02
#       6
#     8   8   4   8   4   8
#     4  10  20  38  56  87 122 177 209 245 310 394
#     4  10  23  34  58  87 132 162 210 255 322 386
#     4   8  22  36  62  96 124 160 220 264 318 390
#     4  10  19  38  61  90 125 164 216 261 304 389
#     4  12  24  40  62 106 138 156 214 286 348 366
#     4  10  22  35  62  94 134 160 203 278 328 382
#
# _framework density 21.929264
#
# number of rings (size 3 to 8) (size 9 to 14) (size 15 to 20)
#    1.200    0.800    2.000    1.800    5.600    3.200 
#    0.000    0.000    0.000    0.000   10.400    0.000 
#    0.000    0.000    0.000    0.000    0.000    0.000 
#
# Total GULP energy -111571.144365 kJ/mol
# GULP energy per Si atom -5578.557218 kJ/mol
# Density = 2.187935 g / cm^3
# Si number density = 21.929264 Si / 1000 Ang^3
#
#
#
# Elastic Constant Matrix: (Units=GPa)
#
#
# Indices 1 2 3 4 5 6 
#
# 1 73.7367 23.8427 -7.0117 0.0000 0.0000 0.0000
# 2 23.8427 124.0350 16.2203 0.0000 0.0000 0.0000
# 3 -7.0117 16.2203 36.9885 0.0000 0.0000 0.0000
# 4 0.0000 0.0000 0.0000 30.5843 0.0000 0.0000
# 5 0.0000 0.0000 0.0000 0.0000 25.2263 0.0000
# 6 0.0000 0.0000 0.0000 0.0000 0.0000 22.6844
#
#
#
# Elastic Compliance Matrix: (Units=1/GPa)
#
#
# Indices 1 2 3 4 5 6 
#
# 1 0.015103 -0.003477 0.004388 0.000000 0.000000 0.000000
# 2 -0.003477 0.009353 -0.004761 0.000000 0.000000 0.000000
# 3 0.004388 -0.004761 0.029955 0.000000 0.000000 0.000000
# 4 0.000000 0.000000 0.000000 0.032697 0.000000 0.000000
# 5 0.000000 0.000000 0.000000 0.000000 0.039641 0.000000
# 6 0.000000 0.000000 0.000000 0.000000 0.000000 0.044083
#
#
# Mechanical properties :
#
#
# Convention : Reuss Voigt Hill
#
# Bulk Modulus (GPa) = 21.40801 33.42920 27.41860
# Shear Modulus (GPa) = 25.75958 29.14626 27.45292
#
# Velocity S-wave (km/s) = 3.43106 3.64964 3.54204
# Velocity P-wave (km/s) = 5.04774 5.74779 5.40910
#
# Compressibility (1/GPa) = 0.04671149
#
# Stress axis : x y z
#
# Youngs Moduli (GPa) = 66.21062 106.91542 33.38355
#
# Poissons Ratio (x) = 0.37175 -0.14648
# Poissons Ratio (y) = 0.23022 0.15893
# Poissons Ratio (z) = -0.29052 0.50899
#
# Static dielectric constant tensor:
#      x y z
#    x 1.782010 0.000000 0.000000 
#    y 0.000000 1.857600 0.000000 
#    z 0.000000 0.000000 1.836680 
# 
# From -- ./inp_files/17870.got.cif
#   From: 2010.05.17/outbox.cif.g08.bks.cpg/sg20_9_cif.got.tgz:17870.got - 2010.06.03 22:52:26.
