data_PCOD9317765
_publ_section_title
;
Structure prediction by ZEFSAII (Michael W. Deem and Ramdas Pophale) SiO2 
 PCOD9317765
Probable space group: C 2 2 21
;
_chemical_formula_sum "Si O2"
_cell_formula_units_Z 52
_cell_length_a 16.087595
_cell_length_b 8.681834
_cell_length_c 20.808122
_cell_angle_alpha 90.000000
_cell_angle_beta 90.000000
_cell_angle_gamma 90.000000
_cell_volume 2906.266847
_symmetry_space_group_name_H-M "C 2 2 21"
_symmetry_group_IT_number 20
_symmetry_cell_setting 'orthorhombic'
loop_
_space_group_symop_operation_xyz
x,y,z
-x,-y,1/2+z
x,-y,-z
-x,y,1/2-z
1/2+x,1/2+y,z
1/2-x,1/2-y,1/2+z
1/2+x,1/2-y,-z
1/2-x,1/2+y,1/2-z
loop_
_atom_site_type_symbol
_atom_site_label
_atom_site_fract_x
_atom_site_fract_y
_atom_site_fract_z
Si Si1 0.433688 0.084140 0.203835
Si Si2 0.134613 0.985437 0.624290
Si Si3 0.320803 0.335541 0.463417
Si Si4 0.164562 0.850630 0.242455
Si Si5 0.814512 0.354550 0.145137
Si Si6 0.247565 0.500000 0.000000
Si Si7 0.964766 0.140265 0.638080
O O1 0.500000 0.000171 0.250000
O O2 0.366122 0.175352 0.247000
O O3 0.486995 0.213304 0.167187
O O4 0.383460 0.982637 0.154550
O O5 0.141158 0.808221 0.642158
O O6 0.166509 0.076671 0.687170
O O7 0.193482 0.012856 0.562912
O O8 0.038807 0.031847 0.613982
O O9 0.332976 0.500000 0.500000
O O10 0.241320 0.367971 0.418106
O O11 0.302229 0.165473 0.495144
O O12 0.400865 0.316019 0.417635
O O13 0.250301 0.859580 0.204687
O O14 0.092340 0.923212 0.196859
#
# Coordination Sequence:
#
# PCOD9317765 Si02
#       7
#     8   8   8   8   8   4   8
#     4   9  18  33  55  84 115 150 182 236 295 344
#     4  10  20  36  60  84 120 151 192 246 295 346
#     4  10  23  42  60  82 115 156 198 238 289 355
#     4   9  18  35  59  80 116 157 186 238 299 349
#     4  10  20  35  57  90 113 145 198 237 288 352
#     4  10  24  42  58  86 118 156 202 242 288 358
#     4   9  20  38  57  81 118 149 193 241 296 347
#
# _framework density 17.892371000000001
#
# number of rings (size 3 to 8) (size 9 to 14) (size 15 to 20)
#    0.000    2.462    0.000    2.308    5.385    2.462 
#    2.769    0.000    0.000    0.000    0.000    0.000 
#    0.000    0.000    0.000    0.000    0.000    0.000 
#
# Total GULP energy -144741.904501 kJ/mol
# GULP energy per Si atom -5566.996327 kJ/mol
# Density = 1.785165 g / cm^3
# Si number density = 17.892371 Si / 1000 Ang^3
#
#
#
# Elastic Constant Matrix: (Units=GPa)
#
#
# Indices 1 2 3 4 5 6 
#
# 1 92.4024 38.5545 29.2921 0.0000 0.0000 0.0000
# 2 38.5545 55.8696 30.2355 0.0000 0.0000 0.0000
# 3 29.2921 30.2355 71.5875 0.0000 0.0000 0.0000
# 4 0.0000 0.0000 0.0000 53.7664 0.0000 0.0000
# 5 0.0000 0.0000 0.0000 0.0000 20.0184 0.0000
# 6 0.0000 0.0000 0.0000 0.0000 0.0000 65.7752
#
#
#
# Elastic Compliance Matrix: (Units=1/GPa)
#
#
# Indices 1 2 3 4 5 6 
#
# 1 0.015501 -0.009417 -0.002365 0.000000 0.000000 0.000000
# 2 -0.009417 0.028923 -0.008363 0.000000 0.000000 0.000000
# 3 -0.002365 -0.008363 0.018469 0.000000 0.000000 0.000000
# 4 0.000000 0.000000 0.000000 0.018599 0.000000 0.000000
# 5 0.000000 0.000000 0.000000 0.000000 0.049954 0.000000
# 6 0.000000 0.000000 0.000000 0.000000 0.000000 0.015203
#
#
# Mechanical properties :
#
#
# Convention : Reuss Voigt Hill
#
# Bulk Modulus (GPa) = 44.24195 46.22486 45.23340
# Shear Modulus (GPa) = 25.71043 36.03051 30.87047
#
# Velocity S-wave (km/s) = 3.79482 4.49234 4.15823
# Velocity P-wave (km/s) = 6.63184 7.26630 6.95631
#
# Compressibility (1/GPa) = 0.02260298
#
# Stress axis : x y z
#
# Youngs Moduli (GPa) = 64.51082 34.57470 54.14531
#
# Poissons Ratio (x) = 0.32559 0.12808
# Poissons Ratio (y) = 0.60750 0.45279
# Poissons Ratio (z) = 0.15260 0.28913
#
# Static dielectric constant tensor:
#      x y z
#    x 1.600750 0.000000 0.000000 
#    y 0.000000 1.634970 0.000000 
#    z 0.000000 0.000000 1.617920 
# 
# From -- ./inp_files/27523.got.cif
#   From: 2010.05.17/outbox.cif.g08.bks.cpg/sg20_14_cif.got.tgz:27523.got - 2010.06.03 22:52:26.
