data_PCOD9317646
_publ_section_title
;
Structure prediction by ZEFSAII (Michael W. Deem and Ramdas Pophale) SiO2 
 PCOD9317646
Probable space group: C 2 2 21
;
_chemical_formula_sum "Si O2"
_cell_formula_units_Z 60
_cell_length_a 6.551108
_cell_length_b 19.439244
_cell_length_c 26.719861
_cell_angle_alpha 90.000000
_cell_angle_beta 90.000000
_cell_angle_gamma 90.000000
_cell_volume 3402.736540
_symmetry_space_group_name_H-M "C 2 2 21"
_symmetry_group_IT_number 20
_symmetry_cell_setting 'orthorhombic'
loop_
_space_group_symop_operation_xyz
x,y,z
-x,-y,1/2+z
x,-y,-z
-x,y,1/2-z
1/2+x,1/2+y,z
1/2-x,1/2-y,1/2+z
1/2+x,1/2-y,-z
1/2-x,1/2+y,1/2-z
loop_
_atom_site_type_symbol
_atom_site_label
_atom_site_fract_x
_atom_site_fract_y
_atom_site_fract_z
Si Si1 0.577875 0.526390 0.377502
Si Si2 0.623906 0.062546 0.203984
Si Si3 0.232326 0.756855 0.426955
Si Si4 0.086408 0.322084 0.477854
Si Si5 0.000000 0.149282 0.250000
Si Si6 0.720430 0.071118 0.019888
Si Si7 0.526689 0.389668 0.067813
Si Si8 0.757889 0.857018 0.657456
O O1 0.757088 0.517053 0.336534
O O2 0.688610 0.560939 0.425366
O O3 0.486488 0.453365 0.394388
O O4 0.401086 0.578416 0.358918
O O5 0.500000 0.028480 0.250000
O O6 0.456867 0.112205 0.177464
O O7 0.811120 0.105146 0.228161
O O8 0.180245 0.731753 0.483262
O O9 0.459634 0.785464 0.434178
O O10 0.222538 0.694650 0.388244
O O11 0.085165 0.820348 0.413300
O O12 0.252159 0.369338 0.451320
O O13 0.938971 0.368526 0.512016
O O14 0.112523 0.181563 0.201580
O O15 0.902654 0.086637 0.981384
O O16 0.624183 0.000000 0.000000
#
# Coordination Sequence:
#
# PCOD9317646 Si02
#       8
#     8   8   8   8   4   8   8   8
#     4  10  20  34  55  82 113 141 189 238 285 341
#     4   9  18  35  59  88 110 137 178 237 297 345
#     4  11  22  34  53  78 112 155 194 228 280 340
#     4  11  21  34  51  72 112 154 191 227 275 330
#     4   8  18  36  54  88 112 130 180 246 284 344
#     4   9  20  34  51  77 109 143 187 227 272 328
#     4  10  22  36  48  75 115 150 187 236 274 332
#     4  10  20  33  60  85 108 144 188 237 295 342
#
# _framework density 17.632866
#
# number of rings (size 3 to 8) (size 9 to 14) (size 15 to 20)
#    0.000    2.133    1.333    1.600    1.867    8.000 
#    0.000    0.000    1.467    0.000   27.733    0.000 
#    0.000    0.000    0.000    0.000    0.000    0.000 
#
# Total GULP energy -167139.007905 kJ/mol
# GULP energy per Si atom -5571.300264 kJ/mol
# Density = 1.759273 g / cm^3
# Si number density = 17.632866 Si / 1000 Ang^3
#
#
#
# Elastic Constant Matrix: (Units=GPa)
#
#
# Indices 1 2 3 4 5 6 
#
# 1 83.5576 44.2434 36.2128 0.0000 0.0000 0.0000
# 2 44.2434 77.0502 38.0399 0.0000 0.0000 0.0000
# 3 36.2128 38.0399 68.5248 0.0000 0.0000 0.0000
# 4 0.0000 0.0000 0.0000 12.0300 0.0000 0.0000
# 5 0.0000 0.0000 0.0000 0.0000 13.0817 0.0000
# 6 0.0000 0.0000 0.0000 0.0000 0.0000 -22.6565
#
#
#
# Elastic Compliance Matrix: (Units=1/GPa)
#
#
# Indices 1 2 3 4 5 6 
#
# 1 0.018518 -0.007992 -0.005349 0.000000 0.000000 0.000000
# 2 -0.007992 0.021328 -0.007616 0.000000 0.000000 0.000000
# 3 -0.005349 -0.007616 0.021648 0.000000 0.000000 0.000000
# 4 0.000000 0.000000 0.000000 0.083125 0.000000 0.000000
# 5 0.000000 0.000000 0.000000 0.000000 0.076443 0.000000
# 6 0.000000 0.000000 0.000000 0.000000 0.000000 -0.044138
#
#
# Mechanical properties :
#
#
# Convention : Reuss Voigt Hill
#
# Bulk Modulus (GPa) = 51.07623 51.79165 51.43394
# Shear Modulus (GPa) = 22.18609 7.86681 15.02645
#
# Velocity S-wave (km/s) = 3.55099 2.11451 2.92239
# Velocity P-wave (km/s) = 6.77068 5.94958 6.37337
#
# Compressibility (1/GPa) = 0.01957858
#
# Stress axis : x y z
#
# Youngs Moduli (GPa) = 54.00128 46.88688 46.19356
#
# Poissons Ratio (x) = 0.37474 0.24711
# Poissons Ratio (y) = 0.43160 0.35181
# Poissons Ratio (z) = 0.28887 0.35709
#
# Static dielectric constant tensor:
#      x y z
#    x 1.618950 0.000000 0.000000 
#    y 0.000000 1.597700 0.000000 
#    z 0.000000 0.000000 1.628860 
# 
# From -- ./inp_files/28456.got.cif
#   From: 2010.05.17/outbox.cif.g08.bks.cpg/sg20_15_cif.got.tgz:28456.got - 2010.06.03 22:52:26.
