data_PCOD9317105
_publ_section_title
;
Structure prediction by ZEFSAII (Michael W. Deem and Ramdas Pophale) SiO2 
 PCOD9317105
Probable space group: C 2 2 21
;
_chemical_formula_sum "Si O2"
_cell_formula_units_Z 56
_cell_length_a 29.093371
_cell_length_b 6.995496
_cell_length_c 13.928526
_cell_angle_alpha 90.000000
_cell_angle_beta 90.000000
_cell_angle_gamma 90.000000
_cell_volume 2834.769275
_symmetry_space_group_name_H-M "C 2 2 21"
_symmetry_group_IT_number 20
_symmetry_cell_setting 'orthorhombic'
loop_
_space_group_symop_operation_xyz
x,y,z
-x,-y,1/2+z
x,-y,-z
-x,y,1/2-z
1/2+x,1/2+y,z
1/2-x,1/2-y,1/2+z
1/2+x,1/2-y,-z
1/2-x,1/2+y,1/2-z
loop_
_atom_site_type_symbol
_atom_site_label
_atom_site_fract_x
_atom_site_fract_y
_atom_site_fract_z
Si Si1 0.197906 0.806317 0.744017
Si Si2 0.990102 0.150924 0.083684
Si Si3 0.598136 0.309656 0.694103
Si Si4 0.279125 0.042324 0.388256
Si Si5 0.041354 0.552921 0.827165
Si Si6 0.837610 0.903885 0.401570
Si Si7 0.064881 0.110038 0.824019
O O1 0.151636 0.773215 0.681549
O O2 0.239035 0.849924 0.671031
O O3 0.208754 0.638625 0.820656
O O4 0.185025 0.985906 0.811957
O O5 0.939457 0.222706 0.112216
O O6 0.022454 0.338288 0.078762
O O7 0.020557 0.020400 0.156311
O O8 0.985263 0.000000 0.000000
O O9 0.583515 0.172819 0.783050
O O10 0.586664 0.528330 0.725541
O O11 0.322451 0.184713 0.396044
O O12 0.266181 0.000000 0.500000
O O13 0.052073 0.330631 0.829896
O O14 0.000000 0.578223 0.750000
O O15 0.892621 0.923402 0.395725
O O16 0.821058 0.000000 0.500000
#
# Coordination Sequence:
#
# PCOD9317105 Si02
#       7
#     8   8   8   8   8   8   8
#     4  11  23  41  63  94 125 166 213 265 329 390
#     4  10  20  34  51  81 120 155 194 251 297 359
#     4   9  20  36  57  80 115 157 203 245 304 373
#     4  12  24  41  68  94 129 169 211 273 335 387
#     4   9  17  33  55  78 109 154 201 241 296 364
#     4  11  22  39  61  92 129 159 209 265 322 393
#     4  10  19  34  57  84 113 156 202 250 304 365
#
# _framework density 19.754695000000002
#
# number of rings (size 3 to 8) (size 9 to 14) (size 15 to 20)
#    0.000    1.714    2.857    3.429    0.000    1.143 
#    2.571    0.000    0.000    0.000    3.714    0.000 
#    0.000    0.000    0.000    0.000    0.000    0.000 
#
# Total GULP energy -155935.314587 kJ/mol
# GULP energy per Si atom -5569.118378 kJ/mol
# Density = 1.970973 g / cm^3
# Si number density = 19.754695 Si / 1000 Ang^3
#
#
#
# Elastic Constant Matrix: (Units=GPa)
#
#
# Indices 1 2 3 4 5 6 
#
# 1 96.0686 16.1799 23.7483 0.0000 0.0000 0.0000
# 2 16.1799 114.3255 16.1435 0.0000 0.0000 0.0000
# 3 23.7483 16.1435 56.7144 0.0000 0.0000 0.0000
# 4 0.0000 0.0000 0.0000 25.0395 0.0000 0.0000
# 5 0.0000 0.0000 0.0000 0.0000 16.1985 0.0000
# 6 0.0000 0.0000 0.0000 0.0000 0.0000 27.5299
#
#
#
# Elastic Compliance Matrix: (Units=1/GPa)
#
#
# Indices 1 2 3 4 5 6 
#
# 1 0.011721 -0.001006 -0.004622 0.000000 0.000000 0.000000
# 2 -0.001006 0.009200 -0.002197 0.000000 0.000000 0.000000
# 3 -0.004622 -0.002197 0.020193 0.000000 0.000000 0.000000
# 4 0.000000 0.000000 0.000000 0.039937 0.000000 0.000000
# 5 0.000000 0.000000 0.000000 0.000000 0.061734 0.000000
# 6 0.000000 0.000000 0.000000 0.000000 0.000000 0.036324
#
#
# Mechanical properties :
#
#
# Convention : Reuss Voigt Hill
#
# Bulk Modulus (GPa) = 39.27208 42.13909 40.70558
# Shear Modulus (GPa) = 24.60060 27.82269 26.21164
#
# Velocity S-wave (km/s) = 3.53271 3.75695 3.64656
# Velocity P-wave (km/s) = 6.04675 6.34011 6.19517
#
# Compressibility (1/GPa) = 0.02546338
#
# Stress axis : x y z
#
# Youngs Moduli (GPa) = 85.31567 108.69993 49.52236
#
# Poissons Ratio (x) = 0.10938 0.22887
# Poissons Ratio (y) = 0.08585 0.10882
# Poissons Ratio (z) = 0.39430 0.23885
#
# Static dielectric constant tensor:
#      x y z
#    x 1.697630 0.000000 0.000000 
#    y 0.000000 1.723090 0.000000 
#    z 0.000000 0.000000 1.760890 
# 
# From -- ./inp_files/22280.got.cif
#   From: 2010.05.17/outbox.cif.g08.bks.cpg/sg20_12_cif.got.tgz:22280.got - 2010.06.03 22:52:26.
