data_PCOD9317600
_publ_section_title
;
Structure prediction by ZEFSAII (Michael W. Deem and Ramdas Pophale) SiO2 
 PCOD9317600
Probable space group: C 2 2 21
;
_chemical_formula_sum "Si O2"
_cell_formula_units_Z 56
_cell_length_a 22.119307
_cell_length_b 16.449762
_cell_length_c 8.670630
_cell_angle_alpha 90.000000
_cell_angle_beta 90.000000
_cell_angle_gamma 90.000000
_cell_volume 3154.872331
_symmetry_space_group_name_H-M "C 2 2 21"
_symmetry_group_IT_number 20
_symmetry_cell_setting 'orthorhombic'
loop_
_space_group_symop_operation_xyz
x,y,z
-x,-y,1/2+z
x,-y,-z
-x,y,1/2-z
1/2+x,1/2+y,z
1/2-x,1/2-y,1/2+z
1/2+x,1/2-y,-z
1/2-x,1/2+y,1/2-z
loop_
_atom_site_type_symbol
_atom_site_label
_atom_site_fract_x
_atom_site_fract_y
_atom_site_fract_z
Si Si1 0.395982 0.324539 0.464192
Si Si2 0.744229 0.033893 0.163161
Si Si3 0.073069 0.000000 0.500000
Si Si4 0.228874 0.084117 0.909952
Si Si5 0.178949 0.313107 0.872163
Si Si6 0.793986 0.260531 0.972882
Si Si7 0.140674 0.139172 0.309545
Si Si8 0.500000 0.601883 0.750000
O O1 0.337361 0.375234 0.401109
O O2 0.380127 0.229810 0.439157
O O3 0.394204 0.342981 0.648964
O O4 0.453326 0.349032 0.360561
O O5 0.685003 0.090393 0.151519
O O6 0.794793 0.096532 0.229208
O O7 0.741897 0.951012 0.256231
O O8 0.764628 0.000000 0.000000
O O9 0.108641 0.071576 0.413219
O O10 0.035598 0.044718 0.632132
O O11 0.275290 0.149279 0.976305
O O12 0.221786 0.000000 0.000000
O O13 0.190593 0.268546 0.707079
O O14 0.232825 0.290051 0.991398
O O15 0.843444 0.216909 0.082663
#
# Coordination Sequence:
#
# PCOD9317600 Si02
#       8
#     8   8   4   8   8   8   8   4
#     4  11  24  38  54  75 113 151 192 238 283 325
#     4  11  21  29  52  83 116 148 182 217 274 346
#     4  12  24  38  58  80 104 146 190 240 278 332
#     4  11  19  34  53  79 114 153 181 225 273 336
#     4  10  20  34  49  77 111 150 184 225 277 334
#     4  10  20  32  52  78 113 151 183 218 277 348
#     4  11  22  37  55  81 112 153 184 229 286 342
#     4  12  26  40  58  78 106 142 202 242 280 324
#
# _framework density 17.750321
#
# number of rings (size 3 to 8) (size 9 to 14) (size 15 to 20)
#    0.000    1.143    3.571    5.143   11.000    0.000 
#    0.000    0.000    0.000    0.000    0.000    0.000 
#    8.571    0.000    0.000    0.000    0.000    0.000 
#
# Total GULP energy -155995.119368 kJ/mol
# GULP energy per Si atom -5571.254263 kJ/mol
# Density = 1.770992 g / cm^3
# Si number density = 17.750321 Si / 1000 Ang^3
#
#
#
# Elastic Constant Matrix: (Units=GPa)
#
#
# Indices 1 2 3 4 5 6 
#
# 1 63.0791 35.1149 33.6700 0.0000 0.0000 0.0000
# 2 35.1149 65.4596 43.0408 0.0000 0.0000 0.0000
# 3 33.6700 43.0408 100.4541 0.0000 0.0000 0.0000
# 4 0.0000 0.0000 0.0000 36.6129 0.0000 0.0000
# 5 0.0000 0.0000 0.0000 0.0000 25.6290 0.0000
# 6 0.0000 0.0000 0.0000 0.0000 0.0000 -0.4552
#
#
#
# Elastic Compliance Matrix: (Units=1/GPa)
#
#
# Indices 1 2 3 4 5 6 
#
# 1 0.023424 -0.010307 -0.003435 0.000000 0.000000 0.000000
# 2 -0.010307 0.025804 -0.007601 0.000000 0.000000 0.000000
# 3 -0.003435 -0.007601 0.014363 0.000000 0.000000 0.000000
# 4 0.000000 0.000000 0.000000 0.027313 0.000000 0.000000
# 5 0.000000 0.000000 0.000000 0.000000 0.039018 0.000000
# 6 0.000000 0.000000 0.000000 0.000000 0.000000 -2.196983
#
#
# Mechanical properties :
#
#
# Convention : Reuss Voigt Hill
#
# Bulk Modulus (GPa) = 47.83713 50.29378 49.06546
# Shear Modulus (GPa) = -2.47843 20.16849 8.84503
#
# Velocity S-wave (km/s) = -1.18292 3.37446 2.23469
# Velocity P-wave (km/s) = 5.01426 6.60138 5.86178
#
# Compressibility (1/GPa) = 0.02090426
#
# Stress axis : x y z
#
# Youngs Moduli (GPa) = 42.69047 38.75440 69.62329
#
# Poissons Ratio (x) = 0.39944 0.23917
# Poissons Ratio (y) = 0.44001 0.52922
# Poissons Ratio (z) = 0.14665 0.29458
#
# Static dielectric constant tensor:
#      x y z
#    x 1.615010 0.000000 0.000000 
#    y 0.000000 1.642250 0.000000 
#    z 0.000000 0.000000 1.779310 
# 
# From -- ./inp_files/10238.got.cif
#   From: 2010.05.17/outbox.cif.g08.bks.cpg/sg20_6_cif.got.tgz:10238.got - 2010.06.03 22:52:26.
