data_PCOD9317641
_publ_section_title
;
Structure prediction by ZEFSAII (Michael W. Deem and Ramdas Pophale) SiO2 
 PCOD9317641
Probable space group: C 2 2 21
;
_chemical_formula_sum "Si O2"
_cell_formula_units_Z 64
_cell_length_a 11.821673
_cell_length_b 17.314111
_cell_length_c 13.333210
_cell_angle_alpha 90.000000
_cell_angle_beta 90.000000
_cell_angle_gamma 90.000000
_cell_volume 2729.064870
_symmetry_space_group_name_H-M "C 2 2 21"
_symmetry_group_IT_number 20
_symmetry_cell_setting 'orthorhombic'
loop_
_space_group_symop_operation_xyz
x,y,z
-x,-y,1/2+z
x,-y,-z
-x,y,1/2-z
1/2+x,1/2+y,z
1/2-x,1/2-y,1/2+z
1/2+x,1/2-y,-z
1/2-x,1/2+y,1/2-z
loop_
_atom_site_type_symbol
_atom_site_label
_atom_site_fract_x
_atom_site_fract_y
_atom_site_fract_z
Si Si1 0.753655 0.502738 0.879073
Si Si2 0.435853 0.131602 0.873793
Si Si3 0.687017 0.914226 0.122275
Si Si4 0.925546 0.128228 0.649515
Si Si5 0.173685 0.585502 0.122214
Si Si6 0.867169 0.201784 0.905199
Si Si7 0.271802 0.745312 0.119866
Si Si8 0.420157 0.130727 0.117932
O O1 0.849930 0.563669 0.847482
O O2 0.635540 0.544832 0.851398
O O3 0.811002 0.420246 0.853140
O O4 0.748866 0.500000 0.000000
O O5 0.562899 0.112116 0.845753
O O6 0.383540 0.212660 0.839352
O O7 0.431035 0.131875 0.996163
O O8 0.780091 0.852432 0.153666
O O9 0.715565 0.001285 0.154508
O O10 0.683337 0.914935 0.999912
O O11 0.830594 0.193923 0.631545
O O12 0.000000 0.136696 0.750000
O O13 0.023861 0.149100 0.568230
O O14 0.239192 0.661117 0.158717
O O15 0.041193 0.595197 0.148278
O O16 0.907316 0.280091 0.851682
O O17 0.799154 0.230993 0.002433
#
# Coordination Sequence:
#
# PCOD9317641 Si02
#       8
#     8   8   8   8   8   8   8   8
#     4   9  17  33  57  85 110 158 216 252 295 384
#     4   8  14  25  47  79 109 137 185 253 292 343
#     4   9  16  26  46  79 116 143 180 247 309 340
#     4  11  23  40  61  91 131 166 204 269 342 380
#     4   9  14  26  47  78 112 141 186 246 296 338
#     4  10  20  33  56  86 117 157 206 254 304 383
#     4   9  18  32  56  84 113 153 209 250 303 370
#     4   9  14  27  51  78 105 140 201 247 283 353
#
# _framework density 23.451257999999999
#
# number of rings (size 3 to 8) (size 9 to 14) (size 15 to 20)
#    0.000    2.750    2.500    0.750    1.750    0.000 
#    4.500    0.000    2.750    3.000    0.000    0.000 
#    0.000    0.000    0.000    0.000    0.000    0.000 
#
# Total GULP energy -178743.611307 kJ/mol
# GULP energy per Si atom -5585.737853 kJ/mol
# Density = 2.339788 g / cm^3
# Si number density = 23.451258 Si / 1000 Ang^3
#
#
#
# Elastic Constant Matrix: (Units=GPa)
#
#
# Indices 1 2 3 4 5 6 
#
# 1 128.1054 70.4383 13.7803 0.0000 0.0000 0.0000
# 2 70.4383 161.6178 12.4292 0.0000 0.0000 0.0000
# 3 13.7803 12.4292 76.3205 0.0000 0.0000 0.0000
# 4 0.0000 0.0000 0.0000 24.5253 0.0000 0.0000
# 5 0.0000 0.0000 0.0000 0.0000 32.1179 0.0000
# 6 0.0000 0.0000 0.0000 0.0000 0.0000 54.1886
#
#
#
# Elastic Compliance Matrix: (Units=1/GPa)
#
#
# Indices 1 2 3 4 5 6 
#
# 1 0.010365 -0.004429 -0.001150 0.000000 0.000000 0.000000
# 2 -0.004429 0.008158 -0.000529 0.000000 0.000000 0.000000
# 3 -0.001150 -0.000529 0.013396 0.000000 0.000000 0.000000
# 4 0.000000 0.000000 0.000000 0.040774 0.000000 0.000000
# 5 0.000000 0.000000 0.000000 0.000000 0.031135 0.000000
# 6 0.000000 0.000000 0.000000 0.000000 0.000000 0.018454
#
#
# Mechanical properties :
#
#
# Convention : Reuss Voigt Hill
#
# Bulk Modulus (GPa) = 50.75206 62.14883 56.45045
# Shear Modulus (GPa) = 35.44398 40.12608 37.78503
#
# Velocity S-wave (km/s) = 3.89188 4.14096 4.01835
# Velocity P-wave (km/s) = 6.47179 7.03009 6.75671
#
# Compressibility (1/GPa) = 0.01970363
#
# Stress axis : x y z
#
# Youngs Moduli (GPa) = 96.47800 122.57299 74.64661
#
# Poissons Ratio (x) = 0.54287 0.08586
# Poissons Ratio (y) = 0.42730 0.03948
# Poissons Ratio (z) = 0.11097 0.06484
#
# Static dielectric constant tensor:
#      x y z
#    x 1.855540 0.000000 0.000000 
#    y 0.000000 1.873420 0.000000 
#    z 0.000000 0.000000 2.036270 
# 
# From -- ./inp_files/20263.got.cif
#   From: 2010.05.17/outbox.cif.g08.bks.cpg/sg20_11_cif.got.tgz:20263.got - 2010.06.03 22:52:26.
