data_PCOD9317317
_publ_section_title
;
Structure prediction by ZEFSAII (Michael W. Deem and Ramdas Pophale) SiO2 
 PCOD9317317
Probable space group: C 2 2 21
;
_chemical_formula_sum "Si O2"
_cell_formula_units_Z 48
_cell_length_a 13.304008
_cell_length_b 28.023521
_cell_length_c 5.266884
_cell_angle_alpha 90.000000
_cell_angle_beta 90.000000
_cell_angle_gamma 90.000000
_cell_volume 1963.626805
_symmetry_space_group_name_H-M "C 2 2 21"
_symmetry_group_IT_number 20
_symmetry_cell_setting 'orthorhombic'
loop_
_space_group_symop_operation_xyz
x,y,z
-x,-y,1/2+z
x,-y,-z
-x,y,1/2-z
1/2+x,1/2+y,z
1/2-x,1/2-y,1/2+z
1/2+x,1/2-y,-z
1/2-x,1/2+y,1/2-z
loop_
_atom_site_type_symbol
_atom_site_label
_atom_site_fract_x
_atom_site_fract_y
_atom_site_fract_z
Si Si1 0.282821 0.325097 0.349711
Si Si2 0.000000 0.628048 0.250000
Si Si3 0.790569 0.404627 0.869569
Si Si4 0.639549 0.282478 0.639060
Si Si5 0.315579 0.500000 0.500000
Si Si6 0.898076 0.880125 0.009974
Si Si7 0.500000 0.460496 0.750000
Si Si8 0.000000 0.306293 0.250000
O O1 0.194802 0.359573 0.438885
O O2 0.315512 0.294955 0.589025
O O3 0.283891 0.293087 0.096834
O O4 0.362552 0.367816 0.291359
O O5 0.979912 0.661997 0.498206
O O6 0.098425 0.594182 0.256521
O O7 0.752963 0.453094 0.001438
O O8 0.703255 0.391347 0.660422
O O9 0.566980 0.327021 0.568296
O O10 0.586232 0.231789 0.656335
O O11 0.399269 0.490803 0.716889
O O12 0.973627 0.922585 0.968647
#
# Coordination Sequence:
#
# PCOD9317317 Si02
#       8
#     8   4   8   8   4   8   4   4
#     4   9  19  37  71  97 147 190 221 294 373 447
#     4  12  30  46  79  91 154 197 273 328 388 394
#     4  10  23  49  67 106 142 205 245 327 373 450
#     4   9  19  38  66 103 144 190 226 296 353 446
#     4  10  24  42  74 112 158 180 270 302 384 490
#     4   8  19  37  66 101 154 190 230 284 382 462
#     4  10  19  36  62 121 146 203 222 306 389 466
#     4  12  25  46  69 116 136 200 271 314 349 470
#
# _framework density 24.444564
#
# number of rings (size 3 to 8) (size 9 to 14) (size 15 to 20)
#    1.000    1.333    0.000    1.500    4.667    0.000 
#    6.000   10.833    0.000    0.000    0.000    0.000 
#    0.000    0.000    0.000    0.000    0.000    0.000 
#
# Total GULP energy -133635.718615 kJ/mol
# GULP energy per Si atom -5568.154942 kJ/mol
# Density = 2.438893 g / cm^3
# Si number density = 24.444564 Si / 1000 Ang^3
#
#
#
# Elastic Constant Matrix: (Units=GPa)
#
#
# Indices 1 2 3 4 5 6 
#
# 1 117.3482 65.2096 26.0584 0.0000 0.0000 0.0000
# 2 65.2096 180.5515 45.3726 0.0000 0.0000 0.0000
# 3 26.0584 45.3726 133.8914 0.0000 0.0000 0.0000
# 4 0.0000 0.0000 0.0000 165.2815 0.0000 0.0000
# 5 0.0000 0.0000 0.0000 0.0000 -4.9351 0.0000
# 6 0.0000 0.0000 0.0000 0.0000 0.0000 27.8355
#
#
#
# Elastic Compliance Matrix: (Units=1/GPa)
#
#
# Indices 1 2 3 4 5 6 
#
# 1 0.010749 -0.003669 -0.000849 0.000000 0.000000 0.000000
# 2 -0.003669 0.007306 -0.001762 0.000000 0.000000 0.000000
# 3 -0.000849 -0.001762 0.008231 0.000000 0.000000 0.000000
# 4 0.000000 0.000000 0.000000 0.006050 0.000000 0.000000
# 5 0.000000 0.000000 0.000000 0.000000 -0.202630 0.000000
# 6 0.000000 0.000000 0.000000 0.000000 0.000000 0.035925
#
#
# Mechanical properties :
#
#
# Convention : Reuss Voigt Hill
#
# Bulk Modulus (GPa) = 72.84748 78.34138 75.59443
# Shear Modulus (GPa) = -42.65019 57.31307 7.33144
#
# Velocity S-wave (km/s) = -4.18158 4.84737 1.73370
# Velocity P-wave (km/s) = 2.55962 7.96540 5.91605
#
# Compressibility (1/GPa) = 0.01372731
#
# Stress axis : x y z
#
# Youngs Moduli (GPa) = 93.03294 136.86538 121.49211
#
# Poissons Ratio (x) = 0.50214 0.10311
# Poissons Ratio (y) = 0.34133 0.21406
# Poissons Ratio (z) = 0.07896 0.24115
#
# Static dielectric constant tensor:
#      x y z
#    x 2.139570 0.000000 0.000000 
#    y 0.000000 1.952320 0.000000 
#    z 0.000000 0.000000 2.143610 
# 
# From -- ./inp_files/2120.got.cif
#   From: 2010.05.17/outbox.cif.g08.bks.cpg/sg20_2_cif.got.tgz:2120.got - 2010.06.03 22:52:26.
