data_PCOD9317316
_publ_section_title
;
Structure prediction by ZEFSAII (Michael W. Deem and Ramdas Pophale) SiO2 
 PCOD9317316
Probable space group: C 2 2 21
;
_chemical_formula_sum "Si O2"
_cell_formula_units_Z 44
_cell_length_a 15.439871
_cell_length_b 25.852075
_cell_length_c 5.130068
_cell_angle_alpha 90.000000
_cell_angle_beta 90.000000
_cell_angle_gamma 90.000000
_cell_volume 2047.680509
_symmetry_space_group_name_H-M "C 2 2 21"
_symmetry_group_IT_number 20
_symmetry_cell_setting 'orthorhombic'
loop_
_space_group_symop_operation_xyz
x,y,z
-x,-y,1/2+z
x,-y,-z
-x,y,1/2-z
1/2+x,1/2+y,z
1/2-x,1/2-y,1/2+z
1/2+x,1/2-y,-z
1/2-x,1/2+y,1/2-z
loop_
_atom_site_type_symbol
_atom_site_label
_atom_site_fract_x
_atom_site_fract_y
_atom_site_fract_z
Si Si1 0.912527 0.885746 0.068132
Si Si2 0.219827 0.610873 0.911421
Si Si3 0.500000 0.938591 0.750000
Si Si4 0.000000 0.196377 0.250000
Si Si5 0.500000 0.234469 0.250000
Si Si6 0.381178 0.856500 0.929937
Si Si7 0.150134 0.500000 0.000000
Si Si8 0.058202 0.000000 0.500000
O O1 0.817338 0.875809 0.176279
O O2 0.000000 0.883159 0.250000
O O3 0.926618 0.843393 0.845306
O O4 0.899835 0.944108 0.958243
O O5 0.161106 0.642242 0.710754
O O6 0.203448 0.548524 0.887390
O O7 0.186565 0.625072 0.203816
O O8 0.460668 0.897669 0.953335
O O9 0.581808 0.974295 0.803692
O O10 0.976483 0.230681 0.500191
O O11 0.577803 0.197393 0.341322
O O12 0.000000 0.007965 0.750000
#
# Coordination Sequence:
#
# PCOD9317316 Si02
#       8
#     8   8   4   4   4   8   4   4
#     4  11  25  45  69  97 134 179 223 276 334 404
#     4  11  24  39  66  98 143 167 225 266 336 384
#     4   9  18  34  65  92 141 174 220 239 334 388
#     4  12  24  44  74  96 122 176 232 286 326 416
#     4  11  24  46  75  96 129 172 228 275 354 400
#     4  10  23  42  65 100 131 178 210 280 325 412
#     4  10  19  36  62 105 138 182 212 267 310 410
#     4  10  21  38  64  93 124 170 218 261 322 398
#
# _framework density 21.487729000000002
#
# number of rings (size 3 to 8) (size 9 to 14) (size 15 to 20)
#    0.000    1.455    1.818    2.727    2.545    7.273 
#    0.000    5.455    0.000    0.000    0.000    0.000 
#    0.000    0.000    0.000    0.000    0.000    0.000 
#
# Total GULP energy -122578.435822 kJ/mol
# GULP energy per Si atom -5571.747083 kJ/mol
# Density = 2.143882 g / cm^3
# Si number density = 21.487729 Si / 1000 Ang^3
#
#
#
# Elastic Constant Matrix: (Units=GPa)
#
#
# Indices 1 2 3 4 5 6 
#
# 1 115.2298 29.1930 20.7426 0.0000 0.0000 0.0000
# 2 29.1930 136.0881 36.6271 0.0000 0.0000 0.0000
# 3 20.7426 36.6271 95.5178 0.0000 0.0000 0.0000
# 4 0.0000 0.0000 0.0000 16.6326 0.0000 0.0000
# 5 0.0000 0.0000 0.0000 0.0000 23.7049 0.0000
# 6 0.0000 0.0000 0.0000 0.0000 0.0000 3225.0040
#
#
#
# Elastic Compliance Matrix: (Units=1/GPa)
#
#
# Indices 1 2 3 4 5 6 
#
# 1 0.009343 -0.001626 -0.001405 0.000000 0.000000 0.000000
# 2 -0.001626 0.008477 -0.002897 0.000000 0.000000 0.000000
# 3 -0.001405 -0.002897 0.011886 0.000000 0.000000 0.000000
# 4 0.000000 0.000000 0.000000 0.060123 0.000000 0.000000
# 5 0.000000 0.000000 0.000000 0.000000 0.042185 0.000000
# 6 0.000000 0.000000 0.000000 0.000000 0.000000 0.000310
#
#
# Mechanical properties :
#
#
# Convention : Reuss Voigt Hill
#
# Bulk Modulus (GPa) = 56.02931 57.77346 56.90139
# Shear Modulus (GPa) = 33.30425 670.41983 351.86204
#
# Velocity S-wave (km/s) = 3.94117 17.68272 12.81038
# Velocity P-wave (km/s) = 6.84413 21.06774 15.66352
#
# Compressibility (1/GPa) = 0.01784780
#
# Stress axis : x y z
#
# Youngs Moduli (GPa) = 107.02917 117.96907 84.13613
#
# Poissons Ratio (x) = 0.19182 0.11825
# Poissons Ratio (y) = 0.17403 0.24378
# Poissons Ratio (z) = 0.15043 0.34180
#
# Static dielectric constant tensor:
#      x y z
#    x 1.812290 0.000000 0.000000 
#    y 0.000000 1.830880 0.000000 
#    z 0.000000 0.000000 -2.401130 
# 
# From -- ./inp_files/2004.got.cif
#   From: 2010.05.17/outbox.cif.g08.bks.cpg/sg20_2_cif.got.tgz:2004.got - 2010.06.03 22:52:26.
