data_PCOD9317754
_publ_section_title
;
Structure prediction by ZEFSAII (Michael W. Deem and Ramdas Pophale) SiO2 
 PCOD9317754
Probable space group: C 2 2 21
;
_chemical_formula_sum "Si O2"
_cell_formula_units_Z 64
_cell_length_a 24.183481
_cell_length_b 9.394540
_cell_length_c 14.394310
_cell_angle_alpha 90.000000
_cell_angle_beta 90.000000
_cell_angle_gamma 90.000000
_cell_volume 3270.281860
_symmetry_space_group_name_H-M "C 2 2 21"
_symmetry_group_IT_number 20
_symmetry_cell_setting 'orthorhombic'
loop_
_space_group_symop_operation_xyz
x,y,z
-x,-y,1/2+z
x,-y,-z
-x,y,1/2-z
1/2+x,1/2+y,z
1/2-x,1/2-y,1/2+z
1/2+x,1/2-y,-z
1/2-x,1/2+y,1/2-z
loop_
_atom_site_type_symbol
_atom_site_label
_atom_site_fract_x
_atom_site_fract_y
_atom_site_fract_z
Si Si1 0.439853 0.978513 0.610507
Si Si2 0.064237 0.732759 0.749387
Si Si3 0.564539 0.020970 0.390038
Si Si4 0.231895 0.479595 0.782977
Si Si5 0.840263 0.735221 0.372855
Si Si6 0.213278 0.727648 0.923598
Si Si7 0.682628 0.086523 0.403831
Si Si8 0.153658 0.043746 0.205024
O O1 0.427524 0.126857 0.662702
O O2 0.502560 0.933558 0.638417
O O3 0.437728 0.000000 0.500000
O O4 0.393760 0.864437 0.636354
O O5 0.075197 0.628953 0.661901
O O6 0.102251 0.870520 0.754132
O O7 0.000000 0.773361 0.750000
O O8 0.561027 0.000000 0.500000
O O9 0.619137 0.115949 0.374071
O O10 0.206990 0.324423 0.804343
O O11 0.210073 0.585896 0.861527
O O12 0.209466 0.508435 0.678949
O O13 0.297743 0.478982 0.779855
O O14 0.813436 0.718317 0.474977
O O15 0.856482 0.894446 0.345375
O O16 0.276859 0.781153 0.922324
O O17 0.180331 0.850558 0.870349
O O18 0.681458 0.000000 0.500000
#
# Coordination Sequence:
#
# PCOD9317754 Si02
#       8
#     8   8   8   8   8   8   8   8
#     4  10  20  36  60  87 114 149 198 246 292 347
#     4  10  21  39  61  86 118 157 198 245 301 357
#     4   9  19  35  58  86 112 148 194 240 287 352
#     4  11  23  38  56  82 115 152 194 242 293 353
#     4  12  23  37  58  87 117 152 195 246 299 355
#     4  11  22  37  58  85 118 155 194 243 298 356
#     4  10  20  35  56  83 114 148 190 236 290 351
#     4  11  22  37  57  84 119 155 194 242 300 357
#
# _framework density 19.570179
#
# number of rings (size 3 to 8) (size 9 to 14) (size 15 to 20)
#    0.000    1.500    0.000    7.500    0.000    3.000 
#    0.000    4.375    0.000    0.000    0.000   15.750 
#    0.000    0.000    0.000    0.000    0.000    0.000 
#
# Total GULP energy -178674.191706 kJ/mol
# GULP energy per Si atom -5583.568491 kJ/mol
# Density = 1.952564 g / cm^3
# Si number density = 19.570179 Si / 1000 Ang^3
#
#
#
# Elastic Constant Matrix: (Units=GPa)
#
#
# Indices 1 2 3 4 5 6 
#
# 1 149.6614 58.6084 24.0139 0.0000 0.0000 0.0000
# 2 58.6084 102.7276 39.6650 0.0000 0.0000 0.0000
# 3 24.0139 39.6650 111.2542 0.0000 0.0000 0.0000
# 4 0.0000 0.0000 0.0000 23.1974 0.0000 0.0000
# 5 0.0000 0.0000 0.0000 0.0000 27.7634 0.0000
# 6 0.0000 0.0000 0.0000 0.0000 0.0000 44.7068
#
#
#
# Elastic Compliance Matrix: (Units=1/GPa)
#
#
# Indices 1 2 3 4 5 6 
#
# 1 0.008606 -0.004862 -0.000124 0.000000 0.000000 0.000000
# 2 -0.004862 0.014035 -0.003954 0.000000 0.000000 0.000000
# 3 -0.000124 -0.003954 0.010425 0.000000 0.000000 0.000000
# 4 0.000000 0.000000 0.000000 0.043108 0.000000 0.000000
# 5 0.000000 0.000000 0.000000 0.000000 0.036019 0.000000
# 6 0.000000 0.000000 0.000000 0.000000 0.000000 0.022368
#
#
# Mechanical properties :
#
#
# Convention : Reuss Voigt Hill
#
# Bulk Modulus (GPa) = 65.85432 67.57974 66.71703
# Shear Modulus (GPa) = 31.74541 35.22391 33.48466
#
# Velocity S-wave (km/s) = 4.03194 4.24710 4.14092
# Velocity P-wave (km/s) = 7.44304 7.65881 7.55169
#
# Compressibility (1/GPa) = 0.01518503
#
# Stress axis : x y z
#
# Youngs Moduli (GPa) = 116.20400 71.24993 95.92233
#
# Poissons Ratio (x) = 0.34640 0.01191
# Poissons Ratio (y) = 0.56495 0.37932
# Poissons Ratio (z) = 0.01443 0.28176
#
# Static dielectric constant tensor:
#      x y z
#    x 1.748970 0.000000 0.000000 
#    y 0.000000 1.659510 0.000000 
#    z 0.000000 0.000000 1.709050 
# 
# From -- ./inp_files/19373.got.cif
#   From: 2010.05.17/outbox.cif.g08.bks.cpg/sg20_10_cif.got.tgz:19373.got - 2010.06.03 22:52:26.
