data_PCOD9317791
_publ_section_title
;
Structure prediction by ZEFSAII (Michael W. Deem and Ramdas Pophale) SiO2 
 PCOD9317791
Probable space group: C 2 2 21
;
_chemical_formula_sum "Si O2"
_cell_formula_units_Z 60
_cell_length_a 7.280184
_cell_length_b 15.677392
_cell_length_c 23.020282
_cell_angle_alpha 90.000000
_cell_angle_beta 90.000000
_cell_angle_gamma 90.000000
_cell_volume 2627.403735
_symmetry_space_group_name_H-M "C 2 2 21"
_symmetry_group_IT_number 20
_symmetry_cell_setting 'orthorhombic'
loop_
_space_group_symop_operation_xyz
x,y,z
-x,-y,1/2+z
x,-y,-z
-x,y,1/2-z
1/2+x,1/2+y,z
1/2-x,1/2-y,1/2+z
1/2+x,1/2-y,-z
1/2-x,1/2+y,1/2-z
loop_
_atom_site_type_symbol
_atom_site_label
_atom_site_fract_x
_atom_site_fract_y
_atom_site_fract_z
Si Si1 0.839852 0.810711 0.877904
Si Si2 0.221418 0.321789 0.649398
Si Si3 0.837868 0.775469 0.489037
Si Si4 0.281894 0.773645 0.240260
Si Si5 0.922647 0.996027 0.876006
Si Si6 0.000000 0.926866 0.250000
Si Si7 0.809360 0.834504 0.073356
Si Si8 0.715336 0.941635 0.554351
O O1 0.764812 0.763464 0.934091
O O2 0.757408 0.760203 0.824260
O O3 0.060912 0.816238 0.867658
O O4 0.801972 0.911040 0.878428
O O5 0.216475 0.303447 0.717545
O O6 0.147375 0.234040 0.622863
O O7 0.139309 0.405033 0.617227
O O8 0.859347 0.697849 0.534686
O O9 0.734611 0.849601 0.523667
O O10 0.020538 0.822893 0.469644
O O11 0.500000 0.787165 0.250000
O O12 0.172465 0.861439 0.249183
O O13 0.802215 0.073942 0.899303
O O14 0.989725 0.018049 0.810003
O O15 0.095335 0.984970 0.921118
O O16 0.644820 0.000000 0.500000
#
# Coordination Sequence:
#
# PCOD9317791 Si02
#       8
#     8   8   8   8   8   4   8   8
#     4  10  23  39  65  93 128 173 228 265 344 402
#     4   9  20  38  62  89 128 171 211 276 330 396
#     4  11  22  37  64  90 126 176 213 273 336 417
#     4  10  22  42  67  97 135 182 225 278 337 416
#     4  11  23  38  68  99 124 175 229 280 330 414
#     4  12  24  42  76  98 134 182 236 276 348 406
#     4  11  20  38  63  91 128 165 223 267 340 400
#     4  10  20  35  61  93 123 165 224 272 328 401
#
# _framework density 22.83623
#
# number of rings (size 3 to 8) (size 9 to 14) (size 15 to 20)
#    0.000    1.600    2.667    3.200    4.667    0.000 
#    0.000    0.000   27.867    0.000    0.000    0.000 
#    0.000    0.000    0.000    0.000    0.000    0.000 
#
# Total GULP energy -167216.230260 kJ/mol
# GULP energy per Si atom -5573.874342 kJ/mol
# Density = 2.278425 g / cm^3
# Si number density = 22.836230 Si / 1000 Ang^3
#
#
#
# Elastic Constant Matrix: (Units=GPa)
#
#
# Indices 1 2 3 4 5 6 
#
# 1 61.4374 14.4353 16.9772 0.0000 0.0000 0.0000
# 2 14.4353 104.5238 42.3023 0.0000 0.0000 0.0000
# 3 16.9772 42.3023 158.1476 0.0000 0.0000 0.0000
# 4 0.0000 0.0000 0.0000 48.0776 0.0000 0.0000
# 5 0.0000 0.0000 0.0000 0.0000 23.5695 0.0000
# 6 0.0000 0.0000 0.0000 0.0000 0.0000 23.3105
#
#
#
# Elastic Compliance Matrix: (Units=1/GPa)
#
#
# Indices 1 2 3 4 5 6 
#
# 1 0.017075 -0.001813 -0.001348 0.000000 0.000000 0.000000
# 2 -0.001813 0.010921 -0.002727 0.000000 0.000000 0.000000
# 3 -0.001348 -0.002727 0.007197 0.000000 0.000000 0.000000
# 4 0.000000 0.000000 0.000000 0.020800 0.000000 0.000000
# 5 0.000000 0.000000 0.000000 0.000000 0.042428 0.000000
# 6 0.000000 0.000000 0.000000 0.000000 0.000000 0.042899
#
#
# Mechanical properties :
#
#
# Convention : Reuss Voigt Hill
#
# Bulk Modulus (GPa) = 42.70093 52.39316 47.54704
# Shear Modulus (GPa) = 31.07499 35.68444 33.37971
#
# Velocity S-wave (km/s) = 3.69287 3.95729 3.82737
# Velocity P-wave (km/s) = 6.07638 6.62367 6.35592
#
# Compressibility (1/GPa) = 0.02341869
#
# Stress axis : x y z
#
# Youngs Moduli (GPa) = 58.56463 91.56640 138.94144
#
# Poissons Ratio (x) = 0.16597 0.18732
# Poissons Ratio (y) = 0.10615 0.37884
# Poissons Ratio (z) = 0.07896 0.24967
#
# Static dielectric constant tensor:
#      x y z
#    x 2.023250 0.000000 0.000000 
#    y 0.000000 1.848860 0.000000 
#    z 0.000000 0.000000 1.905360 
# 
# From -- ./inp_files/28862.got.cif
#   From: 2010.05.17/outbox.cif.g08.bks.cpg/sg20_15_cif.got.tgz:28862.got - 2010.06.03 22:52:26.
