data_PCOD9317637
_publ_section_title
;
Structure prediction by ZEFSAII (Michael W. Deem and Ramdas Pophale) SiO2 
 PCOD9317637
Probable space group: C 2 2 21
;
_chemical_formula_sum "Si O2"
_cell_formula_units_Z 52
_cell_length_a 11.759487
_cell_length_b 26.357480
_cell_length_c 9.493632
_cell_angle_alpha 90.000000
_cell_angle_beta 90.000000
_cell_angle_gamma 90.000000
_cell_volume 2942.555448
_symmetry_space_group_name_H-M "C 2 2 21"
_symmetry_group_IT_number 20
_symmetry_cell_setting 'orthorhombic'
loop_
_space_group_symop_operation_xyz
x,y,z
-x,-y,1/2+z
x,-y,-z
-x,y,1/2-z
1/2+x,1/2+y,z
1/2-x,1/2-y,1/2+z
1/2+x,1/2-y,-z
1/2-x,1/2+y,1/2-z
loop_
_atom_site_type_symbol
_atom_site_label
_atom_site_fract_x
_atom_site_fract_y
_atom_site_fract_z
Si Si1 0.868230 0.144474 0.565873
Si Si2 0.276482 0.839601 0.338394
Si Si3 0.478596 0.460811 0.398772
Si Si4 0.768179 0.942482 0.988589
Si Si5 0.587946 0.297513 0.534316
Si Si6 0.868376 0.887981 0.748489
Si Si7 0.500000 0.214219 0.750000
O O1 0.776046 0.159884 0.680618
O O2 0.915183 0.091286 0.623995
O O3 0.832666 0.130194 0.406357
O O4 0.974122 0.183076 0.546590
O O5 0.275829 0.895366 0.415125
O O6 0.193773 0.801734 0.427262
O O7 0.402763 0.818635 0.324260
O O8 0.416231 0.500000 0.500000
O O9 0.500000 0.485522 0.250000
O O10 0.599983 0.447546 0.464838
O O11 0.780261 0.924972 0.826172
O O12 0.719400 0.000000 0.000000
O O13 0.619951 0.339453 0.650881
O O14 0.557647 0.248618 0.627167
O O15 0.000000 0.907005 0.750000
#
# Coordination Sequence:
#
# PCOD9317637 Si02
#       7
#     8   8   8   8   8   8   4
#     4  11  18  35  56  84 125 154 195 249 308 365
#     4  11  24  40  61  88 120 159 206 257 299 380
#     4  11  20  27  48  85 122 155 193 244 319 374
#     4  10  20  33  55  84 124 165 196 248 316 359
#     4  10  20  39  57  85 117 160 195 251 312 355
#     4   9  16  30  53  81 121 151 186 240 308 368
#     4  12  26  40  66  90 120 166 214 244 312 372
#
# _framework density 17.671714999999999
#
# number of rings (size 3 to 8) (size 9 to 14) (size 15 to 20)
#    0.000    1.538    8.462    0.462    6.462    0.000 
#    0.000    0.000    0.000    2.769    0.000    0.000 
#    0.000    0.000    0.000    0.000    0.000    0.000 
#
# Total GULP energy -144792.316017 kJ/mol
# GULP energy per Si atom -5568.935231 kJ/mol
# Density = 1.763149 g / cm^3
# Si number density = 17.671715 Si / 1000 Ang^3
#
#
#
# Elastic Constant Matrix: (Units=GPa)
#
#
# Indices 1 2 3 4 5 6 
#
# 1 59.3925 50.1301 33.4691 0.0000 0.0000 0.0000
# 2 50.1301 88.0787 29.8165 0.0000 0.0000 0.0000
# 3 33.4691 29.8165 118.9037 0.0000 0.0000 0.0000
# 4 0.0000 0.0000 0.0000 70.2627 0.0000 0.0000
# 5 0.0000 0.0000 0.0000 0.0000 12.2222 0.0000
# 6 0.0000 0.0000 0.0000 0.0000 0.0000 -12.7382
#
#
#
# Elastic Compliance Matrix: (Units=1/GPa)
#
#
# Indices 1 2 3 4 5 6 
#
# 1 0.035262 -0.018259 -0.005347 0.000000 0.000000 0.000000
# 2 -0.018259 0.021862 -0.000342 0.000000 0.000000 0.000000
# 3 -0.005347 -0.000342 0.010001 0.000000 0.000000 0.000000
# 4 0.000000 0.000000 0.000000 0.014232 0.000000 0.000000
# 5 0.000000 0.000000 0.000000 0.000000 0.081819 0.000000
# 6 0.000000 0.000000 0.000000 0.000000 0.000000 -0.078504
#
#
# Mechanical properties :
#
#
# Convention : Reuss Voigt Hill
#
# Bulk Modulus (GPa) = 52.00875 54.80071 53.40473
# Shear Modulus (GPa) = 35.97697 24.14663 30.06180
#
# Velocity S-wave (km/s) = 4.51694 3.70050 4.12894
# Velocity P-wave (km/s) = 7.52981 7.02396 7.28128
#
# Compressibility (1/GPa) = 0.01922754
#
# Stress axis : x y z
#
# Youngs Moduli (GPa) = 28.35917 45.74204 99.98937
#
# Poissons Ratio (x) = 0.83522 0.53463
# Poissons Ratio (y) = 0.51782 0.03424
# Poissons Ratio (z) = 0.15163 0.01566
#
# Static dielectric constant tensor:
#      x y z
#    x 1.516230 0.000000 0.000000 
#    y 0.000000 1.661740 0.000000 
#    z 0.000000 0.000000 1.673340 
# 
# From -- ./inp_files/7509.got.cif
#   From: 2010.05.17/outbox.cif.g08.bks.cpg/sg20_4_cif.got.tgz:7509.got - 2010.06.03 22:52:26.
