data_PCOD9317707
_publ_section_title
;
Structure prediction by ZEFSAII (Michael W. Deem and Ramdas Pophale) SiO2 
 PCOD9317707
Probable space group: C 2 2 21
;
_chemical_formula_sum "Si O2"
_cell_formula_units_Z 40
_cell_length_a 29.781825
_cell_length_b 13.213724
_cell_length_c 5.010951
_cell_angle_alpha 90.000000
_cell_angle_beta 90.000000
_cell_angle_gamma 90.000000
_cell_volume 1971.953613
_symmetry_space_group_name_H-M "C 2 2 21"
_symmetry_group_IT_number 20
_symmetry_cell_setting 'orthorhombic'
loop_
_space_group_symop_operation_xyz
x,y,z
-x,-y,1/2+z
x,-y,-z
-x,y,1/2-z
1/2+x,1/2+y,z
1/2-x,1/2-y,1/2+z
1/2+x,1/2-y,-z
1/2-x,1/2+y,1/2-z
loop_
_atom_site_type_symbol
_atom_site_label
_atom_site_fract_x
_atom_site_fract_y
_atom_site_fract_z
Si Si1 0.226586 0.208104 0.761553
Si Si2 0.930547 0.255244 0.384724
Si Si3 0.377096 0.284577 0.109036
Si Si4 0.500000 0.574710 0.250000
Si Si5 0.642501 0.500000 0.500000
Si Si6 0.296585 0.500000 0.500000
Si Si7 0.500000 0.070825 0.750000
O O1 0.253879 0.219254 0.488734
O O2 0.174294 0.229252 0.697845
O O3 0.229638 0.095330 0.883427
O O4 0.912419 0.259151 0.683539
O O5 0.959728 0.153255 0.327450
O O6 0.959960 0.353172 0.324400
O O7 0.888345 0.252943 0.184966
O O8 0.384403 0.405539 0.107668
O O9 0.508968 0.500000 0.500000
O O10 0.672849 0.536070 0.250079
O O11 0.511096 0.000000 0.500000
#
# Coordination Sequence:
#
# PCOD9317707 Si02
#       7
#     8   8   8   4   4   4   4
#     4  11  22  39  64  88 126 170 207 261 311 360
#     4  11  24  40  64  96 126 161 212 258 300 384
#     4  11  22  38  63  95 131 161 214 246 313 375
#     4  11  24  39  56  94 140 165 184 235 314 378
#     4  10  20  34  58  92 125 172 194 248 293 390
#     4  10  20  38  58  90 117 160 228 242 299 390
#     4  11  24  47  74  88 116 171 220 273 322 360
#
# _framework density 20.284452000000002
#
# number of rings (size 3 to 8) (size 9 to 14) (size 15 to 20)
#    0.000    1.200    0.000    8.400    4.200    3.200 
#    0.000    0.000   22.000    0.000    0.000    0.000 
#    0.000    0.000    0.000    0.000    0.000    0.000 
#
# Total GULP energy -111805.438238 kJ/mol
# GULP energy per Si atom -5590.271912 kJ/mol
# Density = 2.023828 g / cm^3
# Si number density = 20.284452 Si / 1000 Ang^3
#
#
#
# Elastic Constant Matrix: (Units=GPa)
#
#
# Indices 1 2 3 4 5 6 
#
# 1 59.9048 24.2171 -1.9470 0.0000 0.0000 0.0000
# 2 24.2171 88.2561 6.4732 0.0000 0.0000 0.0000
# 3 -1.9470 6.4732 73.7232 0.0000 0.0000 0.0000
# 4 0.0000 0.0000 0.0000 40.1433 0.0000 0.0000
# 5 0.0000 0.0000 0.0000 0.0000 39.1944 0.0000
# 6 0.0000 0.0000 0.0000 0.0000 0.0000 11.8430
#
#
#
# Elastic Compliance Matrix: (Units=1/GPa)
#
#
# Indices 1 2 3 4 5 6 
#
# 1 0.018843 -0.005241 0.000958 0.000000 0.000000 0.000000
# 2 -0.005241 0.012862 -0.001268 0.000000 0.000000 0.000000
# 3 0.000958 -0.001268 0.013701 0.000000 0.000000 0.000000
# 4 0.000000 0.000000 0.000000 0.024911 0.000000 0.000000
# 5 0.000000 0.000000 0.000000 0.000000 0.025514 0.000000
# 6 0.000000 0.000000 0.000000 0.000000 0.000000 0.084438
#
#
# Mechanical properties :
#
#
# Convention : Reuss Voigt Hill
#
# Bulk Modulus (GPa) = 29.15091 31.04116 30.09604
# Shear Modulus (GPa) = 24.65436 31.11220 27.88328
#
# Velocity S-wave (km/s) = 3.49009 3.92062 3.71160
# Velocity P-wave (km/s) = 5.53563 5.98591 5.76517
#
# Compressibility (1/GPa) = 0.03430425
#
# Stress axis : x y z
#
# Youngs Moduli (GPa) = 53.07053 77.75055 72.98814
#
# Poissons Ratio (x) = 0.40746 -0.06991
# Poissons Ratio (y) = 0.27812 0.09253
# Poissons Ratio (z) = -0.05083 0.09856
#
# Static dielectric constant tensor:
#      x y z
#    x 1.728890 0.000000 0.000000 
#    y 0.000000 1.709730 0.000000 
#    z 0.000000 0.000000 1.746760 
# 
# From -- ./inp_files/4139.got.cif
#   From: 2010.05.17/outbox.cif.g08.bks.cpg/sg20_3_cif.got.tgz:4139.got - 2010.06.03 22:52:26.
