data_PCOD9317548
_publ_section_title
;
Structure prediction by ZEFSAII (Michael W. Deem and Ramdas Pophale) SiO2 
 PCOD9317548
Probable space group: C 2 2 21
;
_chemical_formula_sum "Si O2"
_cell_formula_units_Z 48
_cell_length_a 22.662395
_cell_length_b 8.757004
_cell_length_c 10.674337
_cell_angle_alpha 90.000000
_cell_angle_beta 90.000000
_cell_angle_gamma 90.000000
_cell_volume 2118.372173
_symmetry_space_group_name_H-M "C 2 2 21"
_symmetry_group_IT_number 20
_symmetry_cell_setting 'orthorhombic'
loop_
_space_group_symop_operation_xyz
x,y,z
-x,-y,1/2+z
x,-y,-z
-x,y,1/2-z
1/2+x,1/2+y,z
1/2-x,1/2-y,1/2+z
1/2+x,1/2-y,-z
1/2-x,1/2+y,1/2-z
loop_
_atom_site_type_symbol
_atom_site_label
_atom_site_fract_x
_atom_site_fract_y
_atom_site_fract_z
Si Si1 0.591498 0.834931 0.057502
Si Si2 0.814495 0.417615 0.865284
Si Si3 0.873328 0.916579 0.130286
Si Si4 0.475927 0.234872 0.060318
Si Si5 0.180011 0.913959 0.866643
Si Si6 0.432042 0.923495 0.181432
O O1 0.649274 0.743681 0.094549
O O2 0.553519 0.857666 0.183717
O O3 0.545326 0.750092 0.965118
O O4 0.603961 0.000000 0.000000
O O5 0.839787 0.246396 0.867816
O O6 0.747484 0.408721 0.818898
O O7 0.863960 0.521065 0.799316
O O8 0.811912 0.500000 0.000000
O O9 0.942736 0.874098 0.124475
O O10 0.856727 0.008913 0.254614
O O11 0.857739 0.000000 0.000000
O O12 0.463760 0.079104 0.136940
O O13 0.440623 0.197316 0.930408
O O14 0.179413 0.000000 0.000000
#
# Coordination Sequence:
#
# PCOD9317548 Si02
#       6
#     8   8   8   8   8   8
#     4  12  26  42  71 105 145 188 251 304 363 438
#     4  10  22  45  75 100 147 189 252 301 359 453
#     4  11  24  45  75 104 140 197 245 297 384 443
#     4  10  21  42  72  99 131 188 244 302 350 439
#     4  11  29  46  64 111 157 189 232 315 385 432
#     4  10  19  41  70 105 126 178 251 303 341 425
#
# _framework density 22.658909000000001
#
# number of rings (size 3 to 8) (size 9 to 14) (size 15 to 20)
#    0.000    1.333    5.000    1.500    7.000    2.667 
#    0.000    1.667    0.000    0.000    0.000    0.000 
#    0.000    0.000    0.000    0.000    0.000    0.000 
#
# Total GULP energy -134116.517874 kJ/mol
# GULP energy per Si atom -5588.188245 kJ/mol
# Density = 2.260734 g / cm^3
# Si number density = 22.658909 Si / 1000 Ang^3
#
#
#
# Elastic Constant Matrix: (Units=GPa)
#
#
# Indices 1 2 3 4 5 6 
#
# 1 123.7021 33.8315 21.6503 0.0000 0.0000 0.0000
# 2 33.8315 61.3969 17.3844 0.0000 0.0000 0.0000
# 3 21.6503 17.3844 88.1927 0.0000 0.0000 0.0000
# 4 0.0000 0.0000 0.0000 26.7480 0.0000 0.0000
# 5 0.0000 0.0000 0.0000 0.0000 26.7366 0.0000
# 6 0.0000 0.0000 0.0000 0.0000 0.0000 13.0848
#
#
#
# Elastic Compliance Matrix: (Units=1/GPa)
#
#
# Indices 1 2 3 4 5 6 
#
# 1 0.009680 -0.004936 -0.001403 0.000000 0.000000 0.000000
# 2 -0.004936 0.019768 -0.002685 0.000000 0.000000 0.000000
# 3 -0.001403 -0.002685 0.012212 0.000000 0.000000 0.000000
# 4 0.000000 0.000000 0.000000 0.037386 0.000000 0.000000
# 5 0.000000 0.000000 0.000000 0.000000 0.037402 0.000000
# 6 0.000000 0.000000 0.000000 0.000000 0.000000 0.076425
#
#
# Mechanical properties :
#
#
# Convention : Reuss Voigt Hill
#
# Bulk Modulus (GPa) = 42.35291 46.55823 44.45557
# Shear Modulus (GPa) = 22.85280 26.67558 24.76419
#
# Velocity S-wave (km/s) = 3.17922 3.43485 3.30951
# Velocity P-wave (km/s) = 5.67527 6.02686 5.85370
#
# Compressibility (1/GPa) = 0.02361113
#
# Stress axis : x y z
#
# Youngs Moduli (GPa) = 103.31014 50.58743 81.88344
#
# Poissons Ratio (x) = 0.24972 0.11490
# Poissons Ratio (y) = 0.50998 0.21984
# Poissons Ratio (z) = 0.14496 0.13581
#
# Static dielectric constant tensor:
#      x y z
#    x 1.941240 0.000000 0.000000 
#    y 0.000000 1.814590 0.000000 
#    z 0.000000 0.000000 1.856050 
# 
# From -- ./inp_files/16660.got.cif
#   From: 2010.05.17/outbox.cif.g08.bks.cpg/sg20_9_cif.got.tgz:16660.got - 2010.06.03 22:52:26.
