data_PCOD9317689
_publ_section_title
;
Structure prediction by ZEFSAII (Michael W. Deem and Ramdas Pophale) SiO2 
 PCOD9317689
Probable space group: C 2 2 21
;
_chemical_formula_sum "Si O2"
_cell_formula_units_Z 48
_cell_length_a 7.108203
_cell_length_b 14.264548
_cell_length_c 20.417237
_cell_angle_alpha 90.000000
_cell_angle_beta 90.000000
_cell_angle_gamma 90.000000
_cell_volume 2070.211930
_symmetry_space_group_name_H-M "C 2 2 21"
_symmetry_group_IT_number 20
_symmetry_cell_setting 'orthorhombic'
loop_
_space_group_symop_operation_xyz
x,y,z
-x,-y,1/2+z
x,-y,-z
-x,y,1/2-z
1/2+x,1/2+y,z
1/2-x,1/2-y,1/2+z
1/2+x,1/2-y,-z
1/2-x,1/2+y,1/2-z
loop_
_atom_site_type_symbol
_atom_site_label
_atom_site_fract_x
_atom_site_fract_y
_atom_site_fract_z
Si Si1 0.500000 0.014779 0.250000
Si Si2 0.272222 0.811056 0.801761
Si Si3 0.332313 0.297468 0.836970
Si Si4 0.349787 0.682247 0.917608
Si Si5 0.437152 0.000000 0.000000
Si Si6 0.205718 0.495234 0.125527
Si Si7 0.415063 0.803447 0.038752
O O1 0.642196 0.085643 0.288619
O O2 0.602761 0.958099 0.191976
O O3 0.269073 0.765852 0.729474
O O4 0.377663 0.754076 0.858062
O O5 0.054601 0.809703 0.822971
O O6 0.269105 0.401586 0.855054
O O7 0.301461 0.230690 0.898473
O O8 0.373361 0.574922 0.895284
O O9 0.125850 0.679968 0.935117
O O10 0.433196 0.723756 0.983860
O O11 0.336241 0.900280 0.009106
O O12 0.565645 0.009843 0.064593
#
# Coordination Sequence:
#
# PCOD9317689 Si02
#       7
#     4   8   8   8   4   8   8
#     4  10  20  36  58  82 110 146 184 228 270 324
#     4   9  19  35  55  78 110 145 183 225 272 324
#     4   9  18  35  56  79 109 146 180 224 277 328
#     4  10  21  37  56  82 112 145 184 227 274 327
#     4  10  20  34  56  82 106 140 188 230 274 328
#     4  10  20  35  58  82 110 145 184 228 277 329
#     4  10  20  35  56  78 109 145 183 229 274 326
#
# _framework density 23.186032000000001
#
# number of rings (size 3 to 8) (size 9 to 14) (size 15 to 20)
#    0.000    2.333    0.000    3.000    0.000    5.333 
#    0.000   10.000    0.000    1.000    0.000    0.000 
#    0.000    0.000    0.000    0.000    0.000    0.000 
#
# Total GULP energy -134049.463403 kJ/mol
# GULP energy per Si atom -5585.394308 kJ/mol
# Density = 2.313326 g / cm^3
# Si number density = 23.186032 Si / 1000 Ang^3
#
#
#
# Elastic Constant Matrix: (Units=GPa)
#
#
# Indices 1 2 3 4 5 6 
#
# 1 36.5602 -0.6041 15.9561 0.0000 0.0000 0.0000
# 2 -0.6041 91.5798 56.8940 0.0000 0.0000 0.0000
# 3 15.9561 56.8940 162.7788 0.0000 0.0000 0.0000
# 4 0.0000 0.0000 0.0000 42.0087 0.0000 0.0000
# 5 0.0000 0.0000 0.0000 0.0000 33.1779 0.0000
# 6 0.0000 0.0000 0.0000 0.0000 0.0000 8.2910
#
#
#
# Elastic Compliance Matrix: (Units=1/GPa)
#
#
# Indices 1 2 3 4 5 6 
#
# 1 0.029016 0.002502 -0.003719 0.000000 0.000000 0.000000
# 2 0.002502 0.014164 -0.005196 0.000000 0.000000 0.000000
# 3 -0.003719 -0.005196 0.008324 0.000000 0.000000 0.000000
# 4 0.000000 0.000000 0.000000 0.023805 0.000000 0.000000
# 5 0.000000 0.000000 0.000000 0.000000 0.030141 0.000000
# 6 0.000000 0.000000 0.000000 0.000000 0.000000 0.120613
#
#
# Mechanical properties :
#
#
# Convention : Reuss Voigt Hill
#
# Bulk Modulus (GPa) = 25.85414 48.37900 37.11657
# Shear Modulus (GPa) = 19.85857 31.27371 25.56614
#
# Velocity S-wave (km/s) = 2.92976 3.67661 3.32422
# Velocity P-wave (km/s) = 4.75601 6.23972 5.54769
#
# Compressibility (1/GPa) = 0.03867853
#
# Stress axis : x y z
#
# Youngs Moduli (GPa) = 34.46323 70.60271 120.13739
#
# Poissons Ratio (x) = -0.17662 0.44675
# Poissons Ratio (y) = -0.08621 0.62420
# Poissons Ratio (z) = 0.12816 0.36683
#
# Static dielectric constant tensor:
#      x y z
#    x 1.943740 0.000000 0.000000 
#    y 0.000000 1.934750 0.000000 
#    z 0.000000 0.000000 1.924790 
# 
# From -- ./inp_files/23496.got.cif
#   From: 2010.05.17/outbox.cif.g08.bks.cpg/sg20_12_cif.got.tgz:23496.got - 2010.06.03 22:52:26.
