data_PCOD9317122
_publ_section_title
;
Structure prediction by ZEFSAII (Michael W. Deem and Ramdas Pophale) SiO2 
 PCOD9317122
Probable space group: C 2 2 21
;
_chemical_formula_sum "Si O2"
_cell_formula_units_Z 64
_cell_length_a 20.222907
_cell_length_b 18.786276
_cell_length_c 9.035119
_cell_angle_alpha 90.000000
_cell_angle_beta 90.000000
_cell_angle_gamma 90.000000
_cell_volume 3432.560180
_symmetry_space_group_name_H-M "C 2 2 21"
_symmetry_group_IT_number 20
_symmetry_cell_setting 'orthorhombic'
loop_
_space_group_symop_operation_xyz
x,y,z
-x,-y,1/2+z
x,-y,-z
-x,y,1/2-z
1/2+x,1/2+y,z
1/2-x,1/2-y,1/2+z
1/2+x,1/2-y,-z
1/2-x,1/2+y,1/2-z
loop_
_atom_site_type_symbol
_atom_site_label
_atom_site_fract_x
_atom_site_fract_y
_atom_site_fract_z
Si Si1 0.340546 0.792091 0.173806
Si Si2 0.434049 0.026457 0.166777
Si Si3 0.621233 0.714363 0.851048
Si Si4 0.258222 0.173982 0.387605
Si Si5 0.934765 0.690750 0.097935
Si Si6 0.454398 0.754058 0.383627
Si Si7 0.724694 0.616791 0.715278
Si Si8 0.701050 0.018193 0.171254
O O1 0.301913 0.717038 0.186575
O O2 0.397102 0.797318 0.298384
O O3 0.285275 0.851427 0.190986
O O4 0.373918 0.798423 0.014409
O O5 0.500000 0.001090 0.250000
O O6 0.434058 0.112348 0.165529
O O7 0.365749 0.002039 0.240282
O O8 0.436530 0.000000 0.000000
O O9 0.679428 0.772176 0.886548
O O10 0.575453 0.751562 0.726956
O O11 0.657343 0.645947 0.783574
O O12 0.581568 0.701406 0.002276
O O13 0.235701 0.151428 0.552697
O O14 0.279675 0.100576 0.311605
O O15 0.998660 0.700466 0.992499
O O16 0.500000 0.724522 0.250000
O O17 0.737827 0.533061 0.710545
O O18 0.686241 0.000000 0.000000
#
# Coordination Sequence:
#
# PCOD9317122 Si02
#       8
#     8   8   8   8   8   8   8   8
#     4  10  20  36  55  85 114 149 194 244 296 340
#     4  12  25  39  54  79 118 166 202 236 284 343
#     4  11  19  36  59  84 114 150 196 248 290 346
#     4  10  19  34  59  82 115 155 191 244 295 344
#     4  11  22  36  59  82 115 152 198 242 285 346
#     4  10  22  36  56  84 115 149 192 246 289 344
#     4  10  20  34  59  84 115 150 194 243 296 340
#     4  10  22  39  57  83 117 156 197 234 289 358
#
# _framework density 18.644976
#
# number of rings (size 3 to 8) (size 9 to 14) (size 15 to 20)
#    0.000    1.500    3.750    2.250    0.000    2.500 
#    2.250    0.000    0.000    0.000    0.000    8.750 
#    0.000    0.000    0.000    0.000    0.000    0.000 
#
# Total GULP energy -178611.827367 kJ/mol
# GULP energy per Si atom -5581.619605 kJ/mol
# Density = 1.860254 g / cm^3
# Si number density = 18.644976 Si / 1000 Ang^3
#
#
#
# Elastic Constant Matrix: (Units=GPa)
#
#
# Indices 1 2 3 4 5 6 
#
# 1 63.9563 18.7721 23.7678 0.0000 0.0000 0.0000
# 2 18.7721 62.4467 8.5541 0.0000 0.0000 0.0000
# 3 23.7678 8.5541 81.7092 0.0000 0.0000 0.0000
# 4 0.0000 0.0000 0.0000 14.9696 0.0000 0.0000
# 5 0.0000 0.0000 0.0000 0.0000 44.4829 0.0000
# 6 0.0000 0.0000 0.0000 0.0000 0.0000 24.7589
#
#
#
# Elastic Compliance Matrix: (Units=1/GPa)
#
#
# Indices 1 2 3 4 5 6 
#
# 1 0.018963 -0.005017 -0.004991 0.000000 0.000000 0.000000
# 2 -0.005017 0.017574 -0.000381 0.000000 0.000000 0.000000
# 3 -0.004991 -0.000381 0.013730 0.000000 0.000000 0.000000
# 4 0.000000 0.000000 0.000000 0.066802 0.000000 0.000000
# 5 0.000000 0.000000 0.000000 0.000000 0.022481 0.000000
# 6 0.000000 0.000000 0.000000 0.000000 0.000000 0.040389
#
#
# Mechanical properties :
#
#
# Convention : Reuss Voigt Hill
#
# Bulk Modulus (GPa) = 33.90896 34.47779 34.19338
# Shear Modulus (GPa) = 23.74789 27.31017 25.52903
#
# Velocity S-wave (km/s) = 3.57275 3.83135 3.70431
# Velocity P-wave (km/s) = 5.93679 6.17286 6.05598
#
# Compressibility (1/GPa) = 0.02949073
#
# Stress axis : x y z
#
# Youngs Moduli (GPa) = 52.73471 56.90264 72.83274
#
# Poissons Ratio (x) = 0.28547 0.36349
# Poissons Ratio (y) = 0.26456 0.02771
# Poissons Ratio (z) = 0.26319 0.02165
#
# Static dielectric constant tensor:
#      x y z
#    x 1.665610 0.000000 0.000000 
#    y 0.000000 1.633110 0.000000 
#    z 0.000000 0.000000 1.650230 
# 
# From -- ./inp_files/10366.got.cif
#   From: 2010.05.17/outbox.cif.g08.bks.cpg/sg20_6_cif.got.tgz:10366.got - 2010.06.03 22:52:26.
