data_PCOD9317203
_publ_section_title
;
Structure prediction by ZEFSAII (Michael W. Deem and Ramdas Pophale) SiO2 
 PCOD9317203
Probable space group: C 2 2 21
;
_chemical_formula_sum "Si O2"
_cell_formula_units_Z 60
_cell_length_a 6.462639
_cell_length_b 16.945385
_cell_length_c 29.354507
_cell_angle_alpha 90.000000
_cell_angle_beta 90.000000
_cell_angle_gamma 90.000000
_cell_volume 3214.668010
_symmetry_space_group_name_H-M "C 2 2 21"
_symmetry_group_IT_number 20
_symmetry_cell_setting 'orthorhombic'
loop_
_space_group_symop_operation_xyz
x,y,z
-x,-y,1/2+z
x,-y,-z
-x,y,1/2-z
1/2+x,1/2+y,z
1/2-x,1/2-y,1/2+z
1/2+x,1/2-y,-z
1/2-x,1/2+y,1/2-z
loop_
_atom_site_type_symbol
_atom_site_label
_atom_site_fract_x
_atom_site_fract_y
_atom_site_fract_z
Si Si1 0.000000 0.535754 0.250000
Si Si2 0.289098 0.452198 0.953308
Si Si3 0.123375 0.852350 0.912372
Si Si4 0.979823 0.707270 0.463191
Si Si5 0.877281 0.937007 0.206719
Si Si6 0.611590 0.209101 0.567679
Si Si7 0.755185 0.458451 0.830638
Si Si8 0.899666 0.431691 0.377247
O O1 0.183899 0.482063 0.229735
O O2 0.114411 0.581255 0.289990
O O3 0.518415 0.419398 0.943608
O O4 0.150199 0.373596 0.957990
O O5 0.213742 0.506588 0.911297
O O6 0.277233 0.500000 0.000000
O O7 0.309841 0.809018 0.937139
O O8 0.953941 0.785423 0.903347
O O9 0.197050 0.894778 0.867520
O O10 0.856287 0.781020 0.441438
O O11 0.021991 0.719253 0.516545
O O12 0.764602 0.900876 0.161327
O O13 0.000000 0.896178 0.250000
O O14 0.049518 0.997559 0.187172
O O15 0.510736 0.134625 0.592040
O O16 0.913213 0.522143 0.852218
#
# Coordination Sequence:
#
# PCOD9317203 Si02
#       8
#     4   8   8   8   8   8   8   8
#     4   8  18  32  60  92 118 144 188 252 306 366
#     4  11  22  35  58  86 117 154 210 258 292 351
#     4  11  23  38  56  82 120 162 198 245 299 358
#     4  11  22  40  53  80 121 163 199 247 298 350
#     4   9  18  36  60  93 120 147 189 253 312 361
#     4  11  24  37  57  80 119 163 202 243 299 356
#     4  10  19  35  60  90 115 150 197 250 301 360
#     4  11  21  36  59  91 114 152 207 250 297 365
#
# _framework density 18.664446999999999
#
# number of rings (size 3 to 8) (size 9 to 14) (size 15 to 20)
#    0.000    1.600    5.333    0.000    0.000    2.667 
#    0.000    0.000    1.467    0.000   27.733    0.000 
#    0.000    0.000    0.000    0.000    0.000    0.000 
#
# Total GULP energy -167082.468401 kJ/mol
# GULP energy per Si atom -5569.415613 kJ/mol
# Density = 1.862197 g / cm^3
# Si number density = 18.664447 Si / 1000 Ang^3
#
#
#
# Elastic Constant Matrix: (Units=GPa)
#
#
# Indices 1 2 3 4 5 6 
#
# 1 108.8469 14.3883 39.3017 0.0000 0.0000 0.0000
# 2 14.3883 33.1131 2.3623 0.0000 0.0000 0.0000
# 3 39.3017 2.3623 68.6728 0.0000 0.0000 0.0000
# 4 0.0000 0.0000 0.0000 12.5394 0.0000 0.0000
# 5 0.0000 0.0000 0.0000 0.0000 29.1504 0.0000
# 6 0.0000 0.0000 0.0000 0.0000 0.0000 22.2847
#
#
#
# Elastic Compliance Matrix: (Units=1/GPa)
#
#
# Indices 1 2 3 4 5 6 
#
# 1 0.012314 -0.004860 -0.006880 0.000000 0.000000 0.000000
# 2 -0.004860 0.032192 0.001674 0.000000 0.000000 0.000000
# 3 -0.006880 0.001674 0.018442 0.000000 0.000000 0.000000
# 4 0.000000 0.000000 0.000000 0.079748 0.000000 0.000000
# 5 0.000000 0.000000 0.000000 0.000000 0.034305 0.000000
# 6 0.000000 0.000000 0.000000 0.000000 0.000000 0.044874
#
#
# Mechanical properties :
#
#
# Convention : Reuss Voigt Hill
#
# Bulk Modulus (GPa) = 23.35608 35.85972 29.60790
# Shear Modulus (GPa) = 19.51007 23.10029 21.30518
#
# Velocity S-wave (km/s) = 3.23663 3.52186 3.38225
# Velocity P-wave (km/s) = 5.14864 5.98269 5.58127
#
# Compressibility (1/GPa) = 0.04281541
#
# Stress axis : x y z
#
# Youngs Moduli (GPa) = 81.20947 31.06382 54.22493
#
# Poissons Ratio (x) = 0.15096 0.37307
# Poissons Ratio (y) = 0.39466 -0.09077
# Poissons Ratio (z) = 0.55873 -0.05200
#
# Static dielectric constant tensor:
#      x y z
#    x 1.713200 0.000000 0.000000 
#    y 0.000000 1.616930 0.000000 
#    z 0.000000 0.000000 1.700540 
# 
# From -- ./inp_files/30500.got.cif
#   From: 2010.05.17/outbox.cif.g08.bks.cpg/sg20_16_cif.got.tgz:30500.got - 2010.06.03 22:52:26.
