data_PCOD9317863
_publ_section_title
;
Structure prediction by ZEFSAII (Michael W. Deem and Ramdas Pophale) SiO2 
 PCOD9317863
Probable space group: C 2 2 21
;
_chemical_formula_sum "Si O2"
_cell_formula_units_Z 48
_cell_length_a 11.576833
_cell_length_b 24.207000
_cell_length_c 8.372197
_cell_angle_alpha 90.000000
_cell_angle_beta 90.000000
_cell_angle_gamma 90.000000
_cell_volume 2346.227806
_symmetry_space_group_name_H-M "C 2 2 21"
_symmetry_group_IT_number 20
_symmetry_cell_setting 'orthorhombic'
loop_
_space_group_symop_operation_xyz
x,y,z
-x,-y,1/2+z
x,-y,-z
-x,y,1/2-z
1/2+x,1/2+y,z
1/2-x,1/2-y,1/2+z
1/2+x,1/2-y,-z
1/2-x,1/2+y,1/2-z
loop_
_atom_site_type_symbol
_atom_site_label
_atom_site_fract_x
_atom_site_fract_y
_atom_site_fract_z
Si Si1 0.273135 0.135334 0.295056
Si Si2 0.423753 0.673211 0.405133
Si Si3 0.624631 0.486489 0.311147
Si Si4 0.377352 0.976954 0.681378
Si Si5 0.365639 0.635835 0.882192
Si Si6 0.629429 0.256932 0.185120
O O1 0.174002 0.131938 0.159526
O O2 0.371102 0.089198 0.290519
O O3 0.216770 0.126118 0.467837
O O4 0.308605 0.199285 0.288471
O O5 0.500000 0.688920 0.250000
O O6 0.510752 0.647944 0.535558
O O7 0.371384 0.725243 0.499643
O O8 0.622864 0.500000 0.500000
O O9 0.500000 0.508193 0.250000
O O10 0.750056 0.506647 0.249400
O O11 0.628350 0.420667 0.286453
O O12 0.500000 0.997394 0.750000
O O13 0.375045 0.000000 0.500000
O O14 0.327021 0.689284 0.782150
O O15 0.500000 0.248776 0.250000
#
# Coordination Sequence:
#
# PCOD9317863 Si02
#       6
#     8   8   8   8   8   8
#     4  11  20  38  63  86 122 169 216 255 316 394
#     4   9  20  34  59  90 121 159 201 269 325 372
#     4  11  23  40  68  99 125 168 217 270 323 379
#     4  11  25  47  63  91 132 178 214 270 319 382
#     4  10  20  39  61  88 135 151 209 275 326 370
#     4  10  20  36  58  89 124 164 207 264 322 379
#
# _framework density 20.458371
#
# number of rings (size 3 to 8) (size 9 to 14) (size 15 to 20)
#    0.000    1.667    3.333    3.000    2.333    0.667 
#    3.000    0.833    0.000    0.000    0.000    0.000 
#    0.000    0.000    0.000    0.000    0.000    0.000 
#
# Total GULP energy -133746.225531 kJ/mol
# GULP energy per Si atom -5572.759397 kJ/mol
# Density = 2.041181 g / cm^3
# Si number density = 20.458371 Si / 1000 Ang^3
#
#
#
# Elastic Constant Matrix: (Units=GPa)
#
#
# Indices 1 2 3 4 5 6 
#
# 1 132.7113 34.2964 34.4928 0.0000 0.0000 0.0000
# 2 34.2964 105.8040 26.1939 0.0000 0.0000 0.0000
# 3 34.4928 26.1939 64.0188 0.0000 0.0000 0.0000
# 4 0.0000 0.0000 0.0000 19.5909 0.0000 0.0000
# 5 0.0000 0.0000 0.0000 0.0000 27.3553 0.0000
# 6 0.0000 0.0000 0.0000 0.0000 0.0000 41.3850
#
#
#
# Elastic Compliance Matrix: (Units=1/GPa)
#
#
# Indices 1 2 3 4 5 6 
#
# 1 0.009104 -0.001932 -0.004114 0.000000 0.000000 0.000000
# 2 -0.001932 0.010927 -0.003430 0.000000 0.000000 0.000000
# 3 -0.004114 -0.003430 0.019241 0.000000 0.000000 0.000000
# 4 0.000000 0.000000 0.000000 0.051044 0.000000 0.000000
# 5 0.000000 0.000000 0.000000 0.000000 0.036556 0.000000
# 6 0.000000 0.000000 0.000000 0.000000 0.000000 0.024163
#
#
# Mechanical properties :
#
#
# Convention : Reuss Voigt Hill
#
# Bulk Modulus (GPa) = 49.21679 54.72226 51.96953
# Shear Modulus (GPa) = 28.28683 31.50297 29.89490
#
# Velocity S-wave (km/s) = 3.72244 3.92836 3.82678
# Velocity P-wave (km/s) = 6.52569 6.88347 6.70697
#
# Compressibility (1/GPa) = 0.02031827
#
# Stress axis : x y z
#
# Youngs Moduli (GPa) = 109.84269 91.51707 51.97357
#
# Poissons Ratio (x) = 0.17685 0.21384
# Poissons Ratio (y) = 0.21226 0.17825
# Poissons Ratio (z) = 0.45194 0.31387
#
# Static dielectric constant tensor:
#      x y z
#    x 1.779780 0.000000 0.000000 
#    y 0.000000 1.794100 0.000000 
#    z 0.000000 0.000000 1.738980 
# 
# From -- ./inp_files/7416.got.cif
#   From: 2010.05.17/outbox.cif.g08.bks.cpg/sg20_4_cif.got.tgz:7416.got - 2010.06.03 22:52:26.
