data_PCOD9317112
_publ_section_title
;
Structure prediction by ZEFSAII (Michael W. Deem and Ramdas Pophale) SiO2 
 PCOD9317112
Probable space group: C 2 2 21
;
_chemical_formula_sum "Si O2"
_cell_formula_units_Z 36
_cell_length_a 26.557192
_cell_length_b 12.801046
_cell_length_c 5.178489
_cell_angle_alpha 90.000000
_cell_angle_beta 90.000000
_cell_angle_gamma 90.000000
_cell_volume 1760.478273
_symmetry_space_group_name_H-M "C 2 2 21"
_symmetry_group_IT_number 20
_symmetry_cell_setting 'orthorhombic'
loop_
_space_group_symop_operation_xyz
x,y,z
-x,-y,1/2+z
x,-y,-z
-x,y,1/2-z
1/2+x,1/2+y,z
1/2-x,1/2-y,1/2+z
1/2+x,1/2-y,-z
1/2-x,1/2+y,1/2-z
loop_
_atom_site_type_symbol
_atom_site_label
_atom_site_fract_x
_atom_site_fract_y
_atom_site_fract_z
Si Si1 0.642099 0.713369 0.442735
Si Si2 0.728233 0.595580 0.194429
Si Si3 0.964676 0.731918 0.999971
Si Si4 0.035135 0.500000 0.500000
Si Si5 0.309197 0.795633 0.539430
O O1 0.677199 0.615405 0.358205
O O2 0.582878 0.693112 0.461188
O O3 0.658861 0.757436 0.717483
O O4 0.655969 0.795985 0.213913
O O5 0.776126 0.605779 0.380401
O O6 0.726981 0.500000 0.000000
O O7 0.730046 0.701357 0.021085
O O8 0.940324 0.614319 0.018665
O O9 0.000000 0.748542 0.250000
O O10 0.000000 0.736217 0.750000
O O11 0.000000 0.494744 0.250000
#
# Coordination Sequence:
#
# PCOD9317112 Si02
#       5
#     8   8   8   4   8
#     4  10  20  37  56  86 120 152 205 251 305 371
#     4  10  21  39  64  85 124 166 206 256 318 378
#     4  10  19  34  58  82 115 160 199 250 310 366
#     4   8  16  30  50  74 104 144 192 226 284 360
#     4  10  20  39  56  87 121 152 205 254 296 381
#
# _framework density 20.448988
#
# number of rings (size 3 to 8) (size 9 to 14) (size 15 to 20)
#    1.333    0.889    2.222    1.333    0.000    0.889 
#    2.000    0.000    0.000    0.000    5.778    0.000 
#    0.000    0.000    0.000    0.000    0.000    0.000 
#
# Total GULP energy -100224.732510 kJ/mol
# GULP energy per Si atom -5568.040695 kJ/mol
# Density = 2.040244 g / cm^3
# Si number density = 20.448988 Si / 1000 Ang^3
#
#
#
# Elastic Constant Matrix: (Units=GPa)
#
#
# Indices 1 2 3 4 5 6 
#
# 1 102.4348 13.2875 46.6606 0.0000 0.0000 0.0000
# 2 13.2875 47.1484 16.9219 0.0000 0.0000 0.0000
# 3 46.6606 16.9219 157.9509 0.0000 0.0000 0.0000
# 4 0.0000 0.0000 0.0000 19.1491 0.0000 0.0000
# 5 0.0000 0.0000 0.0000 0.0000 29.0157 0.0000
# 6 0.0000 0.0000 0.0000 0.0000 0.0000 6.1061
#
#
#
# Elastic Compliance Matrix: (Units=1/GPa)
#
#
# Indices 1 2 3 4 5 6 
#
# 1 0.011476 -0.002098 -0.003165 0.000000 0.000000 0.000000
# 2 -0.002098 0.022441 -0.001784 0.000000 0.000000 0.000000
# 3 -0.003165 -0.001784 0.007457 0.000000 0.000000 0.000000
# 4 0.000000 0.000000 0.000000 0.052222 0.000000 0.000000
# 5 0.000000 0.000000 0.000000 0.000000 0.034464 0.000000
# 6 0.000000 0.000000 0.000000 0.000000 0.000000 0.163770
#
#
# Mechanical properties :
#
#
# Convention : Reuss Voigt Hill
#
# Bulk Modulus (GPa) = 36.65827 51.25268 43.95547
# Shear Modulus (GPa) = 15.87202 26.23178 21.05190
#
# Velocity S-wave (km/s) = 2.78902 3.58549 3.21204
# Velocity P-wave (km/s) = 5.32326 6.50070 5.94122
#
# Compressibility (1/GPa) = 0.02727898
#
# Stress axis : x y z
#
# Youngs Moduli (GPa) = 87.13527 44.56057 134.09547
#
# Poissons Ratio (x) = 0.09350 0.42448
# Poissons Ratio (y) = 0.18283 0.23928
# Poissons Ratio (z) = 0.27583 0.07951
#
# Static dielectric constant tensor:
#      x y z
#    x 1.726840 0.000000 0.000000 
#    y 0.000000 1.806190 0.000000 
#    z 0.000000 0.000000 1.743710 
# 
# From -- ./inp_files/4051.got.cif
#   From: 2010.05.17/outbox.cif.g08.bks.cpg/sg20_3_cif.got.tgz:4051.got - 2010.06.03 22:52:26.
