data_PCOD9317799
_publ_section_title
;
Structure prediction by ZEFSAII (Michael W. Deem and Ramdas Pophale) SiO2 
 PCOD9317799
Probable space group: C 2 2 21
;
_chemical_formula_sum "Si O2"
_cell_formula_units_Z 40
_cell_length_a 12.325020
_cell_length_b 7.316955
_cell_length_c 15.564153
_cell_angle_alpha 90.000000
_cell_angle_beta 90.000000
_cell_angle_gamma 90.000000
_cell_volume 1403.600480
_symmetry_space_group_name_H-M "C 2 2 21"
_symmetry_group_IT_number 20
_symmetry_cell_setting 'orthorhombic'
loop_
_space_group_symop_operation_xyz
x,y,z
-x,-y,1/2+z
x,-y,-z
-x,y,1/2-z
1/2+x,1/2+y,z
1/2-x,1/2-y,1/2+z
1/2+x,1/2-y,-z
1/2-x,1/2+y,1/2-z
loop_
_atom_site_type_symbol
_atom_site_label
_atom_site_fract_x
_atom_site_fract_y
_atom_site_fract_z
Si Si1 0.126965 0.627176 0.680159
Si Si2 0.299968 0.877020 0.372807
Si Si3 0.272899 0.729134 0.542781
Si Si4 0.947389 0.035691 0.840425
Si Si5 0.955949 0.660695 0.057297
O O1 0.140781 0.636738 0.782118
O O2 0.242817 0.613693 0.628780
O O3 0.063984 0.452365 0.645212
O O4 0.071161 0.819257 0.653537
O O5 0.331915 0.733947 0.448652
O O6 0.172430 0.875199 0.346354
O O7 0.303602 0.078665 0.414330
O O8 0.151484 0.712249 0.498346
O O9 0.010331 0.148307 0.915061
O O10 0.000000 0.072902 0.750000
O O11 0.004931 0.500000 0.000000
#
# Coordination Sequence:
#
# PCOD9317799 Si02
#       5
#     8   8   8   8   8
#     4  10  20  35  64  91 120 163 211 255 317 373
#     4   9  18  34  60  90 119 164 203 256 307 371
#     4   8  17  32  54  90 118 153 211 254 287 375
#     4  10  22  37  59  93 125 156 207 266 314 375
#     4   9  19  37  62  92 115 168 220 254 295 391
#
# _framework density 28.498138000000001
#
# number of rings (size 3 to 8) (size 9 to 14) (size 15 to 20)
#    0.000    2.800    0.000    1.200   11.200    3.200 
#    0.000    0.000    0.000   26.400   10.400    0.000 
#    0.000    0.000    0.000    0.000    0.000    0.000 
#
# Total GULP energy -111517.082126 kJ/mol
# GULP energy per Si atom -5575.854106 kJ/mol
# Density = 2.843328 g / cm^3
# Si number density = 28.498138 Si / 1000 Ang^3
#
#
#
# Elastic Constant Matrix: (Units=GPa)
#
#
# Indices 1 2 3 4 5 6 
#
# 1 52.0953 31.1845 30.6751 0.0000 0.0000 0.0000
# 2 31.1845 184.2250 77.2429 0.0000 0.0000 0.0000
# 3 30.6751 77.2429 264.4337 0.0000 0.0000 0.0000
# 4 0.0000 0.0000 0.0000 61.1020 0.0000 0.0000
# 5 0.0000 0.0000 0.0000 0.0000 -2.3325 0.0000
# 6 0.0000 0.0000 0.0000 0.0000 0.0000 9.7162
#
#
#
# Elastic Compliance Matrix: (Units=1/GPa)
#
#
# Indices 1 2 3 4 5 6 
#
# 1 0.021987 -0.003023 -0.001668 0.000000 0.000000 0.000000
# 2 -0.003023 0.006601 -0.001578 0.000000 0.000000 0.000000
# 3 -0.001668 -0.001578 0.004436 0.000000 0.000000 0.000000
# 4 0.000000 0.000000 0.000000 0.016366 0.000000 0.000000
# 5 0.000000 0.000000 0.000000 0.000000 -0.428729 0.000000
# 6 0.000000 0.000000 0.000000 0.000000 0.000000 0.102920
#
#
# Mechanical properties :
#
#
# Convention : Reuss Voigt Hill
#
# Bulk Modulus (GPa) = 48.80818 86.55100 67.67959
# Shear Modulus (GPa) = -19.45122 37.80727 9.17802
#
# Velocity S-wave (km/s) = -2.61539 3.64628 1.79654
# Velocity P-wave (km/s) = 2.83613 6.94002 5.30130
#
# Compressibility (1/GPa) = 0.02048837
#
# Stress axis : x y z
#
# Youngs Moduli (GPa) = 45.48171 151.48585 225.43054
#
# Poissons Ratio (x) = 0.45788 0.37593
# Poissons Ratio (y) = 0.13747 0.35565
# Poissons Ratio (z) = 0.07585 0.23899
#
# Static dielectric constant tensor:
#      x y z
#    x 2.779440 0.000000 0.000000 
#    y 0.000000 2.541300 0.000000 
#    z 0.000000 0.000000 2.211160 
# 
# From -- ./inp_files/21143.got.cif
#   From: 2010.05.17/outbox.cif.g08.bks.cpg/sg20_11_cif.got.tgz:21143.got - 2010.06.03 22:52:26.
