data_PCOD9317792
_publ_section_title
;
Structure prediction by ZEFSAII (Michael W. Deem and Ramdas Pophale) SiO2 
 PCOD9317792
Probable space group: C 2 2 21
;
_chemical_formula_sum "Si O2"
_cell_formula_units_Z 48
_cell_length_a 12.404758
_cell_length_b 19.325636
_cell_length_c 9.023503
_cell_angle_alpha 90.000000
_cell_angle_beta 90.000000
_cell_angle_gamma 90.000000
_cell_volume 2163.202910
_symmetry_space_group_name_H-M "C 2 2 21"
_symmetry_group_IT_number 20
_symmetry_cell_setting 'orthorhombic'
loop_
_space_group_symop_operation_xyz
x,y,z
-x,-y,1/2+z
x,-y,-z
-x,y,1/2-z
1/2+x,1/2+y,z
1/2-x,1/2-y,1/2+z
1/2+x,1/2-y,-z
1/2-x,1/2+y,1/2-z
loop_
_atom_site_type_symbol
_atom_site_label
_atom_site_fract_x
_atom_site_fract_y
_atom_site_fract_z
Si Si1 0.305258 0.220818 0.394436
Si Si2 0.603444 0.360232 0.074624
Si Si3 0.260417 0.401809 0.708510
Si Si4 0.746291 0.056626 0.758116
Si Si5 0.127410 0.303618 0.237274
Si Si6 0.397475 0.426020 0.980150
O O1 0.378778 0.286076 0.351935
O O2 0.315816 0.152611 0.293797
O O3 0.187687 0.251220 0.349280
O O4 0.329075 0.208601 0.568640
O O5 0.641854 0.421825 0.179938
O O6 0.689088 0.369784 0.939748
O O7 0.480918 0.369059 0.030218
O O8 0.213861 0.480106 0.704994
O O9 0.363604 0.412800 0.813813
O O10 0.661824 0.117413 0.724592
O O11 0.785934 0.065773 0.927756
O O12 0.000000 0.294539 0.250000
O O13 0.453656 0.500000 0.000000
#
# Coordination Sequence:
#
# PCOD9317792 Si02
#       6
#     8   8   8   8   8   8
#     4  11  24  41  67  98 132 176 224 278 339 398
#     4  11  22  36  61  97 135 172 217 280 344 404
#     4  11  21  38  65  90 133 175 219 273 336 388
#     4  10  22  40  65  91 130 171 224 282 329 395
#     4  11  25  46  70  96 135 184 224 274 345 403
#     4  10  20  35  62 100 128 167 215 276 349 400
#
# _framework density 22.189319999999999
#
# number of rings (size 3 to 8) (size 9 to 14) (size 15 to 20)
#    0.000    1.333    3.333    2.500    2.333    2.667 
#    0.000    0.833   14.667    0.000    0.000    0.000 
#    0.000    0.000    0.000    0.000    0.000    0.000 
#
# Total GULP energy -133909.735289 kJ/mol
# GULP energy per Si atom -5579.572304 kJ/mol
# Density = 2.213882 g / cm^3
# Si number density = 22.189320 Si / 1000 Ang^3
#
#
#
# Elastic Constant Matrix: (Units=GPa)
#
#
# Indices 1 2 3 4 5 6 
#
# 1 62.6629 21.3863 18.6877 0.0000 0.0000 0.0000
# 2 21.3863 157.7768 12.7703 0.0000 0.0000 0.0000
# 3 18.6877 12.7703 89.4588 0.0000 0.0000 0.0000
# 4 0.0000 0.0000 0.0000 30.3487 0.0000 0.0000
# 5 0.0000 0.0000 0.0000 0.0000 21.3242 0.0000
# 6 0.0000 0.0000 0.0000 0.0000 0.0000 15.2024
#
#
#
# Elastic Compliance Matrix: (Units=1/GPa)
#
#
# Indices 1 2 3 4 5 6 
#
# 1 0.017695 -0.002124 -0.003393 0.000000 0.000000 0.000000
# 2 -0.002124 0.006667 -0.000508 0.000000 0.000000 0.000000
# 3 -0.003393 -0.000508 0.011960 0.000000 0.000000 0.000000
# 4 0.000000 0.000000 0.000000 0.032950 0.000000 0.000000
# 5 0.000000 0.000000 0.000000 0.000000 0.046895 0.000000
# 6 0.000000 0.000000 0.000000 0.000000 0.000000 0.065779
#
#
# Mechanical properties :
#
#
# Convention : Reuss Voigt Hill
#
# Bulk Modulus (GPa) = 41.20053 46.17634 43.68843
# Shear Modulus (GPa) = 24.74174 30.51200 27.62687
#
# Velocity S-wave (km/s) = 3.34283 3.71222 3.53236
# Velocity P-wave (km/s) = 5.78855 6.26334 6.03062
#
# Compressibility (1/GPa) = 0.02427153
#
# Stress axis : x y z
#
# Youngs Moduli (GPa) = 56.51234 149.99072 83.61414
#
# Poissons Ratio (x) = 0.31857 0.28373
# Poissons Ratio (y) = 0.12003 0.04248
# Poissons Ratio (z) = 0.19176 0.07620
#
# Static dielectric constant tensor:
#      x y z
#    x 1.773880 0.000000 0.000000 
#    y 0.000000 1.912320 0.000000 
#    z 0.000000 0.000000 1.886060 
# 
# From -- ./inp_files/8395.got.cif
#   From: 2010.05.17/outbox.cif.g08.bks.cpg/sg20_5_cif.got.tgz:8395.got - 2010.06.03 22:52:26.
