data_PCOD9317891
_publ_section_title
;
Structure prediction by ZEFSAII (Michael W. Deem and Ramdas Pophale) SiO2 
 PCOD9317891
Probable space group: C 2 2 21
;
_chemical_formula_sum "Si O2"
_cell_formula_units_Z 48
_cell_length_a 34.118462
_cell_length_b 7.700365
_cell_length_c 8.613407
_cell_angle_alpha 90.000000
_cell_angle_beta 90.000000
_cell_angle_gamma 90.000000
_cell_volume 2262.954000
_symmetry_space_group_name_H-M "C 2 2 21"
_symmetry_group_IT_number 20
_symmetry_cell_setting 'orthorhombic'
loop_
_space_group_symop_operation_xyz
x,y,z
-x,-y,1/2+z
x,-y,-z
-x,y,1/2-z
1/2+x,1/2+y,z
1/2-x,1/2-y,1/2+z
1/2+x,1/2-y,-z
1/2-x,1/2+y,1/2-z
loop_
_atom_site_type_symbol
_atom_site_label
_atom_site_fract_x
_atom_site_fract_y
_atom_site_fract_z
Si Si1 0.456319 0.985518 0.686586
Si Si2 0.810929 0.356562 0.208725
Si Si3 0.102396 0.817383 0.197334
Si Si4 0.176882 0.170219 0.603428
Si Si5 0.894050 0.228156 0.326667
Si Si6 0.762516 0.968297 0.683380
O O1 0.500000 0.993045 0.750000
O O2 0.429449 0.150559 0.730854
O O3 0.458059 0.000000 0.500000
O O4 0.434305 0.807081 0.736039
O O5 0.854432 0.323448 0.270315
O O6 0.782862 0.520827 0.237567
O O7 0.784204 0.209571 0.285865
O O8 0.811820 0.307852 0.027328
O O9 0.140202 0.765256 0.296885
O O10 0.099597 0.026488 0.221508
O O11 0.108731 0.782431 0.014047
O O12 0.210966 0.100473 0.715448
O O13 0.165174 0.000000 0.500000
O O14 0.765118 0.000000 0.500000
#
# Coordination Sequence:
#
# PCOD9317891 Si02
#       6
#     8   8   8   8   8   8
#     4  10  24  43  64 100 128 156 203 247 304 379
#     4  11  23  38  58  89 119 158 215 256 305 358
#     4  10  20  41  68  87 125 166 203 250 308 366
#     4  10  20  36  60  88 119 158 218 260 293 372
#     4  10  21  41  68  89 122 169 204 248 309 371
#     4  11  22  38  56  81 123 163 203 256 309 353
#
# _framework density 21.211213000000001
#
# number of rings (size 3 to 8) (size 9 to 14) (size 15 to 20)
#    0.000    1.667    3.333    2.000    0.000    4.667 
#    0.000    9.167    0.000    0.000    0.000    0.000 
#    0.000    0.000    0.000    0.000    0.000    0.000 
#
# Total GULP energy -133992.937280 kJ/mol
# GULP energy per Si atom -5583.039053 kJ/mol
# Density = 2.116294 g / cm^3
# Si number density = 21.211213 Si / 1000 Ang^3
#
#
#
# Elastic Constant Matrix: (Units=GPa)
#
#
# Indices 1 2 3 4 5 6 
#
# 1 186.5626 45.4635 47.6995 0.0000 0.0000 0.0000
# 2 45.4635 72.7294 28.2503 0.0000 0.0000 0.0000
# 3 47.6995 28.2503 49.6157 0.0000 0.0000 0.0000
# 4 0.0000 0.0000 0.0000 16.5083 0.0000 0.0000
# 5 0.0000 0.0000 0.0000 0.0000 126.5227 0.0000
# 6 0.0000 0.0000 0.0000 0.0000 0.0000 41.6175
#
#
#
# Elastic Compliance Matrix: (Units=1/GPa)
#
#
# Indices 1 2 3 4 5 6 
#
# 1 0.007419 -0.002397 -0.005767 0.000000 0.000000 0.000000
# 2 -0.002397 0.018429 -0.008188 0.000000 0.000000 0.000000
# 3 -0.005767 -0.008188 0.030362 0.000000 0.000000 0.000000
# 4 0.000000 0.000000 0.000000 0.060576 0.000000 0.000000
# 5 0.000000 0.000000 0.000000 0.000000 0.007904 0.000000
# 6 0.000000 0.000000 0.000000 0.000000 0.000000 0.024028
#
#
# Mechanical properties :
#
#
# Convention : Reuss Voigt Hill
#
# Bulk Modulus (GPa) = 42.54680 61.30380 51.92530
# Shear Modulus (GPa) = 26.41902 49.42934 37.92418
#
# Velocity S-wave (km/s) = 3.53302 4.83260 4.23298
# Velocity P-wave (km/s) = 6.06178 7.75261 6.95874
#
# Compressibility (1/GPa) = 0.02350353
#
# Stress axis : x y z
#
# Youngs Moduli (GPa) = 134.79032 54.26306 32.93614
#
# Poissons Ratio (x) = 0.13009 0.18996
# Poissons Ratio (y) = 0.32314 0.26969
# Poissons Ratio (z) = 0.77739 0.44432
#
# Static dielectric constant tensor:
#      x y z
#    x 1.732190 0.000000 0.000000 
#    y 0.000000 1.650340 0.000000 
#    z 0.000000 0.000000 1.720980 
# 
# From -- ./inp_files/11448.got.cif
#   From: 2010.05.17/outbox.cif.g08.bks.cpg/sg20_6_cif.got.tgz:11448.got - 2010.06.03 22:52:26.
