data_PCOD9317231
_publ_section_title
;
Structure prediction by ZEFSAII (Michael W. Deem and Ramdas Pophale) SiO2 
 PCOD9317231
Probable space group: C 2 2 21
;
_chemical_formula_sum "Si O2"
_cell_formula_units_Z 64
_cell_length_a 35.895215
_cell_length_b 18.530160
_cell_length_c 5.021269
_cell_angle_alpha 90.000000
_cell_angle_beta 90.000000
_cell_angle_gamma 90.000000
_cell_volume 3339.867335
_symmetry_space_group_name_H-M "C 2 2 21"
_symmetry_group_IT_number 20
_symmetry_cell_setting 'orthorhombic'
loop_
_space_group_symop_operation_xyz
x,y,z
-x,-y,1/2+z
x,-y,-z
-x,y,1/2-z
1/2+x,1/2+y,z
1/2-x,1/2-y,1/2+z
1/2+x,1/2-y,-z
1/2-x,1/2+y,1/2-z
loop_
_atom_site_type_symbol
_atom_site_label
_atom_site_fract_x
_atom_site_fract_y
_atom_site_fract_z
Si Si1 0.975293 0.234579 0.518764
Si Si2 0.109721 0.269948 0.985549
Si Si3 0.354094 0.075858 0.419227
Si Si4 0.772417 0.268808 0.047941
Si Si5 0.461698 0.582463 0.412089
Si Si6 0.881356 0.053140 0.244343
Si Si7 0.147980 0.197496 0.484271
Si Si8 0.697402 0.925245 0.423609
O O1 0.934692 0.267745 0.487691
O O2 0.966041 0.151088 0.602210
O O3 0.000000 0.268272 0.750000
O O4 0.000000 0.235245 0.250000
O O5 0.122553 0.351571 0.934257
O O6 0.125137 0.215198 0.755495
O O7 0.129031 0.246242 0.258451
O O8 0.319129 0.079127 0.626188
O O9 0.373127 0.000000 0.500000
O O10 0.337613 0.073253 0.123912
O O11 0.760233 0.253987 0.349170
O O12 0.809871 0.224904 0.978664
O O13 0.779979 0.353528 0.017529
O O14 0.459320 0.500000 0.500000
O O15 0.500000 0.584000 0.250000
O O16 0.421184 0.593208 0.282366
O O17 0.854095 0.116364 0.137660
O O18 0.872798 0.000000 0.500000
O O19 0.886766 0.000000 0.000000
O O20 0.717784 0.000000 0.500000
#
# Coordination Sequence:
#
# PCOD9317231 Si02
#       8
#     8   8   8   8   8   8   8   8
#     4  11  24  37  55  85 122 160 204 253 313 366
#     4  12  21  39  65  90 123 159 206 257 307 370
#     4  10  19  35  63  96 123 148 195 254 308 362
#     4  12  24  41  64  95 127 161 202 256 310 384
#     4  10  20  33  53  80 115 154 204 262 315 351
#     4  11  24  40  59  85 120 168 218 259 307 367
#     4  12  24  41  65  91 118 164 212 260 311 367
#     4  10  20  38  61  92 125 154 192 252 310 360
#
# _framework density 19.162436
#
# number of rings (size 3 to 8) (size 9 to 14) (size 15 to 20)
#    0.000    1.000    3.750    3.750    3.500    0.000 
#    0.000    1.875    0.000    0.750    0.000    0.000 
#    0.000    0.000    0.000    0.000    0.000    0.000 
#
# Total GULP energy -178442.787848 kJ/mol
# GULP energy per Si atom -5576.337120 kJ/mol
# Density = 1.911882 g / cm^3
# Si number density = 19.162436 Si / 1000 Ang^3
#
#
#
# Elastic Constant Matrix: (Units=GPa)
#
#
# Indices 1 2 3 4 5 6 
#
# 1 65.2071 19.1567 6.3266 0.0000 0.0000 0.0000
# 2 19.1567 100.3714 -10.5913 0.0000 0.0000 0.0000
# 3 6.3266 -10.5913 74.0720 0.0000 0.0000 0.0000
# 4 0.0000 0.0000 0.0000 18.3554 0.0000 0.0000
# 5 0.0000 0.0000 0.0000 0.0000 25.6416 0.0000
# 6 0.0000 0.0000 0.0000 0.0000 0.0000 252.8586
#
#
#
# Elastic Compliance Matrix: (Units=1/GPa)
#
#
# Indices 1 2 3 4 5 6 
#
# 1 0.016503 -0.003349 -0.001888 0.000000 0.000000 0.000000
# 2 -0.003349 0.010795 0.001830 0.000000 0.000000 0.000000
# 3 -0.001888 0.001830 0.013923 0.000000 0.000000 0.000000
# 4 0.000000 0.000000 0.000000 0.054480 0.000000 0.000000
# 5 0.000000 0.000000 0.000000 0.000000 0.038999 0.000000
# 6 0.000000 0.000000 0.000000 0.000000 0.000000 0.003955
#
#
# Mechanical properties :
#
#
# Convention : Reuss Voigt Hill
#
# Bulk Modulus (GPa) = 29.06481 29.93717 29.50099
# Shear Modulus (GPa) = 31.85949 74.35503 53.10726
#
# Velocity S-wave (km/s) = 4.08192 6.23592 5.27014
# Velocity P-wave (km/s) = 6.11692 8.21619 7.24301
#
# Compressibility (1/GPa) = 0.03440587
#
# Stress axis : x y z
#
# Youngs Moduli (GPa) = 60.59560 92.63347 71.82217
#
# Poissons Ratio (x) = 0.31023 0.13563
# Poissons Ratio (y) = 0.20293 -0.13141
# Poissons Ratio (z) = 0.11443 -0.16948
#
# Static dielectric constant tensor:
#      x y z
#    x 1.680110 0.000000 0.000000 
#    y 0.000000 1.739690 0.000000 
#    z 0.000000 0.000000 1.561230 
# 
# From -- ./inp_files/4808.got.cif
#   From: 2010.05.17/outbox.cif.g08.bks.cpg/sg20_3_cif.got.tgz:4808.got - 2010.06.03 22:52:26.
