data_PCOD9317565
_publ_section_title
;
Structure prediction by ZEFSAII (Michael W. Deem and Ramdas Pophale) SiO2 
 PCOD9317565
Probable space group: C 2 2 21
;
_chemical_formula_sum "Si O2"
_cell_formula_units_Z 48
_cell_length_a 11.932614
_cell_length_b 19.227183
_cell_length_c 8.821239
_cell_angle_alpha 90.000000
_cell_angle_beta 90.000000
_cell_angle_gamma 90.000000
_cell_volume 2023.861742
_symmetry_space_group_name_H-M "C 2 2 21"
_symmetry_group_IT_number 20
_symmetry_cell_setting 'orthorhombic'
loop_
_space_group_symop_operation_xyz
x,y,z
-x,-y,1/2+z
x,-y,-z
-x,y,1/2-z
1/2+x,1/2+y,z
1/2-x,1/2-y,1/2+z
1/2+x,1/2-y,-z
1/2-x,1/2+y,1/2-z
loop_
_atom_site_type_symbol
_atom_site_label
_atom_site_fract_x
_atom_site_fract_y
_atom_site_fract_z
Si Si1 0.881030 0.789476 0.018654
Si Si2 0.145872 0.940850 0.395546
Si Si3 0.310540 0.820060 0.727124
Si Si4 0.000000 0.278793 0.250000
Si Si5 0.761811 0.532493 0.163853
Si Si6 0.391675 0.118111 0.548740
Si Si7 0.500000 0.018083 0.750000
O O1 0.908326 0.865084 0.090531
O O2 0.851488 0.736023 0.152223
O O3 0.775447 0.793046 0.902061
O O4 0.973972 0.764213 0.900201
O O5 0.272827 0.921335 0.452847
O O6 0.092361 0.000000 0.500000
O O7 0.169388 0.983631 0.243937
O O8 0.249285 0.884729 0.812840
O O9 0.408118 0.847209 0.613559
O O10 0.897853 0.327642 0.310071
O O11 0.883470 0.520273 0.239341
O O12 0.768964 0.500000 0.000000
O O13 0.488536 0.065931 0.599687
#
# Coordination Sequence:
#
# PCOD9317565 Si02
#       7
#     8   8   8   4   8   8   4
#     4  11  24  41  66  91 135 175 225 267 324 385
#     4  10  19  43  64  90 124 176 211 270 318 389
#     4  11  24  41  66  95 133 182 216 262 324 410
#     4  11  24  42  62  98 131 174 216 284 319 386
#     4  11  24  35  61  97 131 172 222 259 325 394
#     4   9  20  39  61  92 140 164 211 261 331 394
#     4   9  22  34  60  96 143 176 202 264 331 400
#
# _framework density 23.717034999999999
#
# number of rings (size 3 to 8) (size 9 to 14) (size 15 to 20)
#    0.000    1.667    3.333    2.000   11.667    0.667 
#    0.000    0.000    0.000    3.000    0.000    0.000 
#    0.000    0.000    0.000    0.000    0.000    0.000 
#
# Total GULP energy -133889.206297 kJ/mol
# GULP energy per Si atom -5578.716929 kJ/mol
# Density = 2.366305 g / cm^3
# Si number density = 23.717035 Si / 1000 Ang^3
#
#
#
# Elastic Constant Matrix: (Units=GPa)
#
#
# Indices 1 2 3 4 5 6 
#
# 1 5.3609 -4.1566 0.6548 0.0000 0.0000 0.0000
# 2 -4.1566 162.9762 77.8866 0.0000 0.0000 0.0000
# 3 0.6548 77.8866 133.1664 0.0000 0.0000 0.0000
# 4 0.0000 0.0000 0.0000 48.7285 0.0000 0.0000
# 5 0.0000 0.0000 0.0000 0.0000 33.0141 0.0000
# 6 0.0000 0.0000 0.0000 0.0000 0.0000 9.7819
#
#
#
# Elastic Compliance Matrix: (Units=1/GPa)
#
#
# Indices 1 2 3 4 5 6 
#
# 1 0.192971 0.007460 -0.005312 0.000000 0.000000 0.000000
# 2 0.007460 0.008805 -0.005186 0.000000 0.000000 0.000000
# 3 -0.005312 -0.005186 0.010569 0.000000 0.000000 0.000000
# 4 0.000000 0.000000 0.000000 0.020522 0.000000 0.000000
# 5 0.000000 0.000000 0.000000 0.000000 0.030290 0.000000
# 6 0.000000 0.000000 0.000000 0.000000 0.000000 0.102230
#
#
# Mechanical properties :
#
#
# Convention : Reuss Voigt Hill
#
# Bulk Modulus (GPa) = 4.84807 50.03033 27.43920
# Shear Modulus (GPa) = 11.35798 33.44613 22.40206
#
# Velocity S-wave (km/s) = 2.19074 3.75936 3.07670
# Velocity P-wave (km/s) = 2.90649 6.32330 4.92097
#
# Compressibility (1/GPa) = 0.20626772
#
# Stress axis : x y z
#
# Youngs Moduli (GPa) = 5.18213 113.57529 94.61668
#
# Poissons Ratio (x) = -0.84731 0.50263
# Poissons Ratio (y) = -0.03866 0.49072
# Poissons Ratio (z) = 0.02753 0.58905
#
# Static dielectric constant tensor:
#      x y z
#    x 1.939770 0.000000 0.000000 
#    y 0.000000 2.054350 0.000000 
#    z 0.000000 0.000000 1.965320 
# 
# From -- ./inp_files/8481.got.cif
#   From: 2010.05.17/outbox.cif.g08.bks.cpg/sg20_5_cif.got.tgz:8481.got - 2010.06.03 22:52:26.
