data_PCOD9317184
_publ_section_title
;
Structure prediction by ZEFSAII (Michael W. Deem and Ramdas Pophale) SiO2 
 PCOD9317184
Probable space group: C 2 2 21
;
_chemical_formula_sum "Si O2"
_cell_formula_units_Z 60
_cell_length_a 10.962860
_cell_length_b 34.513401
_cell_length_c 7.917264
_cell_angle_alpha 90.000000
_cell_angle_beta 90.000000
_cell_angle_gamma 90.000000
_cell_volume 2995.620211
_symmetry_space_group_name_H-M "C 2 2 21"
_symmetry_group_IT_number 20
_symmetry_cell_setting 'orthorhombic'
loop_
_space_group_symop_operation_xyz
x,y,z
-x,-y,1/2+z
x,-y,-z
-x,y,1/2-z
1/2+x,1/2+y,z
1/2-x,1/2-y,1/2+z
1/2+x,1/2-y,-z
1/2-x,1/2+y,1/2-z
loop_
_atom_site_type_symbol
_atom_site_label
_atom_site_fract_x
_atom_site_fract_y
_atom_site_fract_z
Si Si1 0.353849 0.071623 0.757231
Si Si2 0.073715 0.140564 0.499174
Si Si3 0.316461 0.634985 0.624591
Si Si4 0.811826 0.702855 0.070128
Si Si5 0.715061 0.093243 0.125891
Si Si6 0.000000 0.649967 0.250000
Si Si7 0.116049 0.775919 0.646718
Si Si8 0.638867 0.012485 0.198327
O O1 0.500000 0.075253 0.750000
O O2 0.286970 0.101948 0.878436
O O3 0.309517 0.081628 0.568748
O O4 0.323401 0.026729 0.794788
O O5 0.137789 0.139893 0.683062
O O6 0.158300 0.116108 0.373594
O O7 0.070285 0.184853 0.441225
O O8 0.937660 0.124728 0.520525
O O9 0.263009 0.674880 0.554554
O O10 0.932386 0.678637 0.119759
O O11 0.727733 0.711927 0.232202
O O12 0.842764 0.743270 0.982896
O O13 0.606686 0.122099 0.180174
O O14 0.711662 0.052241 0.222028
O O15 0.000000 0.760269 0.750000
O O16 0.500000 0.021265 0.250000
O O17 0.639971 0.000000 0.000000
#
# Coordination Sequence:
#
# PCOD9317184 Si02
#       8
#     8   8   8   8   8   4   8   8
#     4   9  18  33  58  93 127 157 205 258 315 372
#     4  10  21  41  64  90 118 170 210 254 304 381
#     4  10  21  40  65  90 120 165 212 252 313 373
#     4  12  27  41  64  90 123 158 204 268 312 382
#     4  10  19  35  58  91 123 161 205 252 313 374
#     4  12  24  36  60  92 122 156 206 256 316 372
#     4  12  26  44  64  89 123 160 209 253 322 374
#     4   9  17  31  55  90 126 163 195 255 319 368
#
# _framework density 20.029240999999999
#
# number of rings (size 3 to 8) (size 9 to 14) (size 15 to 20)
#    0.000    1.600    3.333    1.600    1.867    3.733 
#    0.000    0.000    0.000    0.000   52.000    0.000 
#    0.000    0.000    0.000    0.000    0.000    0.000 
#
# Total GULP energy -167579.707247 kJ/mol
# GULP energy per Si atom -5585.990242 kJ/mol
# Density = 1.998365 g / cm^3
# Si number density = 20.029241 Si / 1000 Ang^3
#
#
#
# Elastic Constant Matrix: (Units=GPa)
#
#
# Indices 1 2 3 4 5 6 
#
# 1 91.9679 50.5018 22.3790 0.0000 0.0000 0.0000
# 2 50.5018 137.9266 29.6011 0.0000 0.0000 0.0000
# 3 22.3790 29.6011 40.3132 0.0000 0.0000 0.0000
# 4 0.0000 0.0000 0.0000 26.7525 0.0000 0.0000
# 5 0.0000 0.0000 0.0000 0.0000 33.5578 0.0000
# 6 0.0000 0.0000 0.0000 0.0000 0.0000 21.0153
#
#
#
# Elastic Compliance Matrix: (Units=1/GPa)
#
#
# Indices 1 2 3 4 5 6 
#
# 1 0.014377 -0.004216 -0.004886 0.000000 0.000000 0.000000
# 2 -0.004216 0.009843 -0.004887 0.000000 0.000000 0.000000
# 3 -0.004886 -0.004887 0.031106 0.000000 0.000000 0.000000
# 4 0.000000 0.000000 0.000000 0.037380 0.000000 0.000000
# 5 0.000000 0.000000 0.000000 0.000000 0.029799 0.000000
# 6 0.000000 0.000000 0.000000 0.000000 0.000000 0.047584
#
#
# Mechanical properties :
#
#
# Convention : Reuss Voigt Hill
#
# Bulk Modulus (GPa) = 36.56384 52.79686 44.68035
# Shear Modulus (GPa) = 24.13330 27.44684 25.79007
#
# Velocity S-wave (km/s) = 3.47494 3.70582 3.59224
# Velocity P-wave (km/s) = 5.86474 6.68790 6.28980
#
# Compressibility (1/GPa) = 0.02734942
#
# Stress axis : x y z
#
# Youngs Moduli (GPa) = 69.55483 101.59900 32.14777
#
# Poissons Ratio (x) = 0.42831 0.15706
# Poissons Ratio (y) = 0.29322 0.15711
# Poissons Ratio (z) = 0.33982 0.49651
#
# Static dielectric constant tensor:
#      x y z
#    x 1.691300 0.000000 0.000000 
#    y 0.000000 1.693720 0.000000 
#    z 0.000000 0.000000 1.752990 
# 
# From -- ./inp_files/7628.got.cif
#   From: 2010.05.17/outbox.cif.g08.bks.cpg/sg20_4_cif.got.tgz:7628.got - 2010.06.03 22:52:26.
