data_PCOD9317813
_publ_section_title
;
Structure prediction by ZEFSAII (Michael W. Deem and Ramdas Pophale) SiO2 
 PCOD9317813
Probable space group: C 2 2 21
;
_chemical_formula_sum "Si O2"
_cell_formula_units_Z 48
_cell_length_a 12.905331
_cell_length_b 9.724658
_cell_length_c 16.860353
_cell_angle_alpha 90.000000
_cell_angle_beta 90.000000
_cell_angle_gamma 90.000000
_cell_volume 2115.973127
_symmetry_space_group_name_H-M "C 2 2 21"
_symmetry_group_IT_number 20
_symmetry_cell_setting 'orthorhombic'
loop_
_space_group_symop_operation_xyz
x,y,z
-x,-y,1/2+z
x,-y,-z
-x,y,1/2-z
1/2+x,1/2+y,z
1/2-x,1/2-y,1/2+z
1/2+x,1/2-y,-z
1/2-x,1/2+y,1/2-z
loop_
_atom_site_type_symbol
_atom_site_label
_atom_site_fract_x
_atom_site_fract_y
_atom_site_fract_z
Si Si1 0.363912 0.000000 0.000000
Si Si2 0.552653 0.698426 0.497889
Si Si3 0.974386 0.765730 0.667339
Si Si4 0.216257 0.582113 0.833357
Si Si5 0.551032 0.689864 0.668262
Si Si6 0.126708 0.502631 0.329083
Si Si7 0.255480 0.500000 0.000000
O O1 0.432397 0.862313 0.000026
O O2 0.311201 0.001776 0.912986
O O3 0.498849 0.661982 0.415393
O O4 0.502173 0.658174 0.581916
O O5 0.666729 0.630004 0.495209
O O6 0.048647 0.628450 0.670542
O O7 0.000000 0.839707 0.750000
O O8 0.856897 0.715239 0.667345
O O9 0.335293 0.623634 0.833808
O O10 0.190575 0.503382 0.752273
O O11 0.194239 0.507454 0.917356
O O12 0.500000 0.648207 0.750000
O O13 0.564977 0.854993 0.671311
#
# Coordination Sequence:
#
# PCOD9317813 Si02
#       7
#     4   8   8   8   8   8   4
#     4   8  16  33  58  81 108 142 180 223 268 325
#     4   9  19  37  57  78 108 147 184 226 275 324
#     4   9  18  35  57  82 108 140 186 231 272 325
#     4  10  21  34  54  83 109 143 186 226 273 330
#     4  10  20  36  54  77 111 146 182 224 274 329
#     4   9  18  34  56  80 106 139 183 231 272 318
#     4  10  22  37  54  81 116 148 186 231 278 329
#
# _framework density 22.684598000000001
#
# number of rings (size 3 to 8) (size 9 to 14) (size 15 to 20)
#    0.000    2.667    0.000    1.500    0.000    9.333 
#    0.000   13.333    0.000    5.000    0.000    0.000 
#    0.000    0.000    0.000    0.000    0.000    0.000 
#
# Total GULP energy -133837.092933 kJ/mol
# GULP energy per Si atom -5576.545539 kJ/mol
# Density = 2.263297 g / cm^3
# Si number density = 22.684598 Si / 1000 Ang^3
#
#
#
# Elastic Constant Matrix: (Units=GPa)
#
#
# Indices 1 2 3 4 5 6 
#
# 1 34.9395 -5.1462 52.8156 0.0000 0.0000 0.0000
# 2 -5.1462 96.3434 18.7740 0.0000 0.0000 0.0000
# 3 52.8156 18.7740 323.8728 0.0000 0.0000 0.0000
# 4 0.0000 0.0000 0.0000-1717.2635 0.0000 0.0000
# 5 0.0000 0.0000 0.0000 0.0000 37.6605 0.0000
# 6 0.0000 0.0000 0.0000 0.0000 0.0000 3.6456
#
#
#
# Elastic Compliance Matrix: (Units=1/GPa)
#
#
# Indices 1 2 3 4 5 6 
#
# 1 0.039033 0.003363 -0.006560 0.000000 0.000000 0.000000
# 2 0.003363 0.010788 -0.001174 0.000000 0.000000 0.000000
# 3 -0.006560 -0.001174 0.004225 0.000000 0.000000 0.000000
# 4 0.000000 0.000000 0.000000 -0.000582 0.000000 0.000000
# 5 0.000000 0.000000 0.000000 0.000000 0.026553 0.000000
# 6 0.000000 0.000000 0.000000 0.000000 0.000000 0.274302
#
#
# Mechanical properties :
#
#
# Convention : Reuss Voigt Hill
#
# Bulk Modulus (GPa) = 22.07269 65.33808 43.70538
# Shear Modulus (GPa) = 13.22182 -309.27732 -148.02775
#
# Velocity S-wave (km/s) = 2.41686 -11.68905 -8.08680
# Velocity P-wave (km/s) = 4.18804 12.38197 8.23935
#
# Compressibility (1/GPa) = 0.04530485
#
# Stress axis : x y z
#
# Youngs Moduli (GPa) = 25.61936 92.69624 236.65873
#
# Poissons Ratio (x) = -0.31177 1.55255
# Poissons Ratio (y) = -0.08617 0.27780
# Poissons Ratio (z) = 0.16807 0.10881
#
# Static dielectric constant tensor:
#      x y z
#    x 1.939860 0.000000 0.000000 
#    y 0.000000 1.842250 0.000000 
#    z 0.000000 0.000000 1.954810 
# 
# From -- ./inp_files/24283.got.cif
#   From: 2010.05.17/outbox.cif.g08.bks.cpg/sg20_13_cif.got.tgz:24283.got - 2010.06.03 22:52:26.
