data_PCOD9317191
_publ_section_title
;
Structure prediction by ZEFSAII (Michael W. Deem and Ramdas Pophale) SiO2 
 PCOD9317191
Probable space group: C 2 2 21
;
_chemical_formula_sum "Si O2"
_cell_formula_units_Z 44
_cell_length_a 11.332274
_cell_length_b 14.629393
_cell_length_c 13.689087
_cell_angle_alpha 90.000000
_cell_angle_beta 90.000000
_cell_angle_gamma 90.000000
_cell_volume 2269.435568
_symmetry_space_group_name_H-M "C 2 2 21"
_symmetry_group_IT_number 20
_symmetry_cell_setting 'orthorhombic'
loop_
_space_group_symop_operation_xyz
x,y,z
-x,-y,1/2+z
x,-y,-z
-x,y,1/2-z
1/2+x,1/2+y,z
1/2-x,1/2-y,1/2+z
1/2+x,1/2-y,-z
1/2-x,1/2+y,1/2-z
loop_
_atom_site_type_symbol
_atom_site_label
_atom_site_fract_x
_atom_site_fract_y
_atom_site_fract_z
Si Si1 0.500000 0.297237 0.750000
Si Si2 0.643927 0.446122 0.849674
Si Si3 0.655089 0.000000 0.500000
Si Si4 0.057821 0.000000 0.500000
Si Si5 0.401275 0.319450 0.100522
Si Si6 0.893924 0.683457 0.922336
Si Si7 0.157985 0.848183 0.193858
O O1 0.610456 0.363242 0.778487
O O2 0.474281 0.233684 0.842979
O O3 0.757382 0.449043 0.921942
O O4 0.653459 0.541998 0.792460
O O5 0.530133 0.454826 0.920626
O O6 0.579244 0.921859 0.447891
O O7 0.126216 0.917230 0.449297
O O8 0.535955 0.324582 0.140029
O O9 0.329339 0.304602 0.199684
O O10 0.391228 0.242267 0.020253
O O11 0.764224 0.678145 0.875436
#
# Coordination Sequence:
#
# PCOD9317191 Si02
#       7
#     4   8   4   4   8   8   8
#     4  12  22  34  62 100 110 148 204 272 286 342
#     4   9  17  34  60  83 121 144 195 238 310 348
#     4   9  22  42  56  77 120 182 187 232 306 373
#     4   9  14  30  56  91 110 148 175 258 300 333
#     4  10  19  35  59  85 124 153 196 242 303 360
#     4  11  24  36  62  86 124 158 206 242 298 353
#     4   9  21  37  57  90 121 159 189 244 304 364
#
# _framework density 19.388079000000001
#
# number of rings (size 3 to 8) (size 9 to 14) (size 15 to 20)
#    0.000    2.182    1.818    3.273    2.545    0.000 
#    0.000    1.818    0.000    2.182    0.000    0.000 
#    0.000    0.000    0.000    0.000    0.000    0.000 
#
# Total GULP energy -122727.919011 kJ/mol
# GULP energy per Si atom -5578.541773 kJ/mol
# Density = 1.934395 g / cm^3
# Si number density = 19.388079 Si / 1000 Ang^3
#
#
#
# Elastic Constant Matrix: (Units=GPa)
#
#
# Indices 1 2 3 4 5 6 
#
# 1 18.0197 32.2918 14.2212 0.0000 0.0000 0.0000
# 2 32.2918 119.3729 69.5418 0.0000 0.0000 0.0000
# 3 14.2212 69.5418 130.7435 0.0000 0.0000 0.0000
# 4 0.0000 0.0000 0.0000 30.9749 0.0000 0.0000
# 5 0.0000 0.0000 0.0000 0.0000 13.8428 0.0000
# 6 0.0000 0.0000 0.0000 0.0000 0.0000 7.0817
#
#
#
# Elastic Compliance Matrix: (Units=1/GPa)
#
#
# Indices 1 2 3 4 5 6 
#
# 1 0.110487 -0.033163 0.005621 0.000000 0.000000 0.000000
# 2 -0.033163 0.022092 -0.008143 0.000000 0.000000 0.000000
# 3 0.005621 -0.008143 0.011369 0.000000 0.000000 0.000000
# 4 0.000000 0.000000 0.000000 0.032284 0.000000 0.000000
# 5 0.000000 0.000000 0.000000 0.000000 0.072240 0.000000
# 6 0.000000 0.000000 0.000000 0.000000 0.000000 0.141209
#
#
# Mechanical properties :
#
#
# Convention : Reuss Voigt Hill
#
# Bulk Modulus (GPa) = 13.77835 55.58286 34.68060
# Shear Modulus (GPa) = 10.30412 20.51865 15.41139
#
# Velocity S-wave (km/s) = 2.30786 3.25670 2.82244
# Velocity P-wave (km/s) = 3.77142 6.54769 5.34303
#
# Compressibility (1/GPa) = 0.07257765
#
# Stress axis : x y z
#
# Youngs Moduli (GPa) = 9.05085 45.26514 87.96146
#
# Poissons Ratio (x) = 1.50111 -0.49445
# Poissons Ratio (y) = 0.30015 0.71631
# Poissons Ratio (z) = -0.05088 0.36862
#
# Static dielectric constant tensor:
#      x y z
#    x 1.670030 0.000000 0.000000 
#    y 0.000000 1.703120 0.000000 
#    z 0.000000 0.000000 1.699720 
# 
# From -- ./inp_files/14996.got.cif
#   From: 2010.05.17/outbox.cif.g08.bks.cpg/sg20_8_cif.got.tgz:14996.got - 2010.06.03 22:52:26.
