data_PCOD9317822
_publ_section_title
;
Structure prediction by ZEFSAII (Michael W. Deem and Ramdas Pophale) SiO2 
 PCOD9317822
Probable space group: C 2 2 21
;
_chemical_formula_sum "Si O2"
_cell_formula_units_Z 60
_cell_length_a 8.037572
_cell_length_b 12.809945
_cell_length_c 22.548869
_cell_angle_alpha 90.000000
_cell_angle_beta 90.000000
_cell_angle_gamma 90.000000
_cell_volume 2321.650837
_symmetry_space_group_name_H-M "C 2 2 21"
_symmetry_group_IT_number 20
_symmetry_cell_setting 'orthorhombic'
loop_
_space_group_symop_operation_xyz
x,y,z
-x,-y,1/2+z
x,-y,-z
-x,y,1/2-z
1/2+x,1/2+y,z
1/2-x,1/2-y,1/2+z
1/2+x,1/2-y,-z
1/2-x,1/2+y,1/2-z
loop_
_atom_site_type_symbol
_atom_site_label
_atom_site_fract_x
_atom_site_fract_y
_atom_site_fract_z
Si Si1 0.688925 0.082082 0.770887
Si Si2 0.237118 0.307680 0.570259
Si Si3 0.337138 0.638656 0.598607
Si Si4 0.282343 0.500000 0.500000
Si Si5 0.871598 0.268107 0.704114
Si Si6 0.312347 0.548278 0.133901
Si Si7 0.201221 0.952755 0.831584
Si Si8 0.623054 0.684744 0.467546
O O1 0.500000 0.082994 0.750000
O O2 0.720692 0.053757 0.839707
O O3 0.774929 0.985206 0.735658
O O4 0.768965 0.188365 0.746040
O O5 0.179511 0.412487 0.534540
O O6 0.228736 0.347805 0.638161
O O7 0.433139 0.299124 0.554003
O O8 0.146781 0.212621 0.537233
O O9 0.396146 0.562045 0.546416
O O10 0.440024 0.693874 0.650714
O O11 0.224489 0.554958 0.634933
O O12 0.231263 0.725347 0.565023
O O13 0.770252 0.353807 0.668184
O O14 0.000000 0.317201 0.750000
O O15 0.505626 0.544239 0.153158
O O16 0.309399 0.580000 0.064441
#
# Coordination Sequence:
#
# PCOD9317822 Si02
#       8
#     8   8   8   4   8   8   8   8
#     4  11  22  34  52  80 110 144 187 234 283 340
#     4   9  17  31  53  78 104 138 179 224 276 332
#     4   8  15  30  53  78 102 138 181 218 267 332
#     4   8  14  28  52  74  98 136 174 208 256 324
#     4  10  20  36  56  79 110 145 183 231 285 343
#     4  10  20  36  57  80 108 147 190 233 284 341
#     4   9  18  34  56  75 104 146 186 230 284 338
#     4   9  18  31  53  80 108 140 181 227 275 334
#
# _framework density 25.843679999999999
#
# number of rings (size 3 to 8) (size 9 to 14) (size 15 to 20)
#    0.000    2.667    0.000    2.400    0.000    2.133 
#    0.000    1.333    0.000   30.400    0.000    0.000 
#    0.000    0.000    0.000    0.000    0.000    0.000 
#
# Total GULP energy -167297.683166 kJ/mol
# GULP energy per Si atom -5576.589439 kJ/mol
# Density = 2.578486 g / cm^3
# Si number density = 25.843680 Si / 1000 Ang^3
#
#
#
# Elastic Constant Matrix: (Units=GPa)
#
#
# Indices 1 2 3 4 5 6 
#
# 1 47.6410 5.6718 0.1926 0.0000 0.0000 0.0000
# 2 5.6718 38.3754 9.3976 0.0000 0.0000 0.0000
# 3 0.1926 9.3976 82.0427 0.0000 0.0000 0.0000
# 4 0.0000 0.0000 0.0000 47.5900 0.0000 0.0000
# 5 0.0000 0.0000 0.0000 0.0000 29.3465 0.0000
# 6 0.0000 0.0000 0.0000 0.0000 0.0000 40.1554
#
#
#
# Elastic Compliance Matrix: (Units=1/GPa)
#
#
# Indices 1 2 3 4 5 6 
#
# 1 0.021374 -0.003238 0.000321 0.000000 0.000000 0.000000
# 2 -0.003238 0.027301 -0.003120 0.000000 0.000000 0.000000
# 3 0.000321 -0.003120 0.012545 0.000000 0.000000 0.000000
# 4 0.000000 0.000000 0.000000 0.021013 0.000000 0.000000
# 5 0.000000 0.000000 0.000000 0.000000 0.034076 0.000000
# 6 0.000000 0.000000 0.000000 0.000000 0.000000 0.024903
#
#
# Mechanical properties :
#
#
# Convention : Reuss Voigt Hill
#
# Bulk Modulus (GPa) = 20.34686 22.06476 21.20581
# Shear Modulus (GPa) = 29.46936 33.60488 31.53712
#
# Velocity S-wave (km/s) = 3.38049 3.60990 3.49707
# Velocity P-wave (km/s) = 4.80906 5.09229 4.95270
#
# Compressibility (1/GPa) = 0.04914763
#
# Stress axis : x y z
#
# Youngs Moduli (GPa) = 46.78474 36.62900 79.71080
#
# Poissons Ratio (x) = 0.11859 -0.02556
# Poissons Ratio (y) = 0.15147 0.24866
# Poissons Ratio (z) = -0.01500 0.11427
#
# Static dielectric constant tensor:
#      x y z
#    x 2.012820 0.000000 0.000000 
#    y 0.000000 2.098870 0.000000 
#    z 0.000000 0.000000 2.150300 
# 
# From -- ./inp_files/28840.got.cif
#   From: 2010.05.17/outbox.cif.g08.bks.cpg/sg20_15_cif.got.tgz:28840.got - 2010.06.03 22:52:26.
