data_PCOD9317742
_publ_section_title
;
Structure prediction by ZEFSAII (Michael W. Deem and Ramdas Pophale) SiO2 
 PCOD9317742
Probable space group: C 2 2 21
;
_chemical_formula_sum "Si O2"
_cell_formula_units_Z 52
_cell_length_a 8.872283
_cell_length_b 11.240483
_cell_length_c 24.985140
_cell_angle_alpha 90.000000
_cell_angle_beta 90.000000
_cell_angle_gamma 90.000000
_cell_volume 2491.736687
_symmetry_space_group_name_H-M "C 2 2 21"
_symmetry_group_IT_number 20
_symmetry_cell_setting 'orthorhombic'
loop_
_space_group_symop_operation_xyz
x,y,z
-x,-y,1/2+z
x,-y,-z
-x,y,1/2-z
1/2+x,1/2+y,z
1/2-x,1/2-y,1/2+z
1/2+x,1/2-y,-z
1/2-x,1/2+y,1/2-z
loop_
_atom_site_type_symbol
_atom_site_label
_atom_site_fract_x
_atom_site_fract_y
_atom_site_fract_z
Si Si1 0.117427 0.546003 0.151946
Si Si2 0.968512 0.932224 0.425860
Si Si3 0.982700 0.703702 0.500220
Si Si4 0.196794 0.143035 0.444923
Si Si5 0.171218 0.181069 0.658497
Si Si6 0.000000 0.305584 0.750000
Si Si7 0.825645 0.585370 0.090065
O O1 0.203111 0.631425 0.108867
O O2 0.207722 0.424033 0.159275
O O3 0.088834 0.613784 0.207199
O O4 0.954525 0.524343 0.125646
O O5 0.096007 0.025860 0.442335
O O6 0.815015 0.002691 0.419792
O O7 0.958286 0.827678 0.468709
O O8 0.024431 0.872574 0.371091
O O9 0.079831 0.746341 0.551054
O O10 0.093227 0.623059 0.464841
O O11 0.814988 0.649000 0.495152
O O12 0.117864 0.228103 0.715782
O O13 0.219385 0.293570 0.621751
#
# Coordination Sequence:
#
# PCOD9317742 Si02
#       7
#     8   8   8   8   8   4   8
#     4   9  20  38  59  86 118 152 198 249 295 351
#     4  10  20  36  57  81 112 150 190 234 286 347
#     4  10  20  35  55  81 115 151 187 235 287 344
#     4  10  20  36  57  83 114 151 193 235 290 356
#     4   9  20  37  58  82 114 150 186 239 292 341
#     4  10  20  38  60  84 118 154 196 248 302 346
#     4   9  19  36  58  86 116 149 191 235 287 350
#
# _framework density 20.868977999999998
#
# number of rings (size 3 to 8) (size 9 to 14) (size 15 to 20)
#    0.000    2.462    0.000    2.308    0.000    3.692 
#    0.000    9.231    0.000    0.000    0.000    0.000 
#    0.000    0.000    0.000    0.000    0.000    0.000 
#
# Total GULP energy -145307.960892 kJ/mol
# GULP energy per Si atom -5588.767727 kJ/mol
# Density = 2.082148 g / cm^3
# Si number density = 20.868978 Si / 1000 Ang^3
#
#
#
# Elastic Constant Matrix: (Units=GPa)
#
#
# Indices 1 2 3 4 5 6 
#
# 1 145.4245 79.6321 47.3848 0.0000 0.0000 0.0000
# 2 79.6321 111.7310 42.2254 0.0000 0.0000 0.0000
# 3 47.3848 42.2254 75.5820 0.0000 0.0000 0.0000
# 4 0.0000 0.0000 0.0000 20.5207 0.0000 0.0000
# 5 0.0000 0.0000 0.0000 0.0000 18.6820 0.0000
# 6 0.0000 0.0000 0.0000 0.0000 0.0000 55.2748
#
#
#
# Elastic Compliance Matrix: (Units=1/GPa)
#
#
# Indices 1 2 3 4 5 6 
#
# 1 0.011954 -0.007210 -0.003466 0.000000 0.000000 0.000000
# 2 -0.007210 0.015694 -0.004248 0.000000 0.000000 0.000000
# 3 -0.003466 -0.004248 0.017777 0.000000 0.000000 0.000000
# 4 0.000000 0.000000 0.000000 0.048731 0.000000 0.000000
# 5 0.000000 0.000000 0.000000 0.000000 0.053527 0.000000
# 6 0.000000 0.000000 0.000000 0.000000 0.000000 0.018091
#
#
# Mechanical properties :
#
#
# Convention : Reuss Voigt Hill
#
# Bulk Modulus (GPa) = 64.19709 74.58022 69.38865
# Shear Modulus (GPa) = 24.89864 29.79519 27.34692
#
# Velocity S-wave (km/s) = 3.45787 3.78263 3.62389
# Velocity P-wave (km/s) = 6.83895 7.40896 7.12965
#
# Compressibility (1/GPa) = 0.01557703
#
# Stress axis : x y z
#
# Youngs Moduli (GPa) = 83.65573 63.71987 56.25269
#
# Poissons Ratio (x) = 0.45939 0.19500
# Poissons Ratio (y) = 0.60312 0.23894
# Poissons Ratio (z) = 0.28999 0.27066
#
# Static dielectric constant tensor:
#      x y z
#    x 1.769390 0.000000 0.000000 
#    y 0.000000 1.760920 0.000000 
#    z 0.000000 0.000000 1.764750 
# 
# From -- ./inp_files/30103.got.cif
#   From: 2010.05.17/outbox.cif.g08.bks.cpg/sg20_16_cif.got.tgz:30103.got - 2010.06.03 22:52:26.
