data_PCOD9317726
_publ_section_title
;
Structure prediction by ZEFSAII (Michael W. Deem and Ramdas Pophale) SiO2 
 PCOD9317726
Probable space group: C 2 2 21
;
_chemical_formula_sum "Si O2"
_cell_formula_units_Z 60
_cell_length_a 11.526664
_cell_length_b 10.664748
_cell_length_c 21.065000
_cell_angle_alpha 90.000000
_cell_angle_beta 90.000000
_cell_angle_gamma 90.000000
_cell_volume 2589.498686
_symmetry_space_group_name_H-M "C 2 2 21"
_symmetry_group_IT_number 20
_symmetry_cell_setting 'orthorhombic'
loop_
_space_group_symop_operation_xyz
x,y,z
-x,-y,1/2+z
x,-y,-z
-x,y,1/2-z
1/2+x,1/2+y,z
1/2-x,1/2-y,1/2+z
1/2+x,1/2-y,-z
1/2-x,1/2+y,1/2-z
loop_
_atom_site_type_symbol
_atom_site_label
_atom_site_fract_x
_atom_site_fract_y
_atom_site_fract_z
Si Si1 0.367582 0.465114 0.843985
Si Si2 0.304632 0.206255 0.027777
Si Si3 0.690907 0.871865 0.938141
Si Si4 0.170271 0.837955 0.158312
Si Si5 0.525941 0.000000 0.500000
Si Si6 0.291958 0.291576 0.735010
Si Si7 0.392225 0.382960 0.616475
Si Si8 0.419988 0.247700 0.163512
O O1 0.252379 0.451943 0.884538
O O2 0.356057 0.391896 0.778445
O O3 0.470343 0.404202 0.886344
O O4 0.386883 0.607573 0.827040
O O5 0.183013 0.147401 0.054211
O O6 0.382652 0.220612 0.091289
O O7 0.269044 0.341742 0.999846
O O8 0.383947 0.113407 0.984543
O O9 0.693527 0.731571 0.908209
O O10 0.568102 0.934497 0.953357
O O11 0.264051 0.816164 0.213426
O O12 0.055654 0.756616 0.177049
O O13 0.148952 0.982838 0.144655
O O14 0.364539 0.277784 0.670165
O O15 0.166088 0.331848 0.707198
#
# Coordination Sequence:
#
# PCOD9317726 Si02
#       8
#     8   8   8   8   4   8   8   8
#     4  10  22  40  66  93 129 173 228 276 338 415
#     4  11  24  41  66  96 132 179 220 281 337 397
#     4  11  24  41  66  96 132 179 220 281 337 397
#     4  10  20  39  62  90 126 169 219 269 337 402
#     4  12  24  44  66  96 140 168 232 274 340 398
#     4  10  20  34  62  94 124 163 211 276 340 402
#     4  10  22  40  66  93 129 173 228 276 338 415
#     4  10  20  39  62  90 126 169 219 269 337 402
#
# _framework density 23.170507000000001
#
# number of rings (size 3 to 8) (size 9 to 14) (size 15 to 20)
#    0.000    1.600    1.333    3.200    1.867    2.133 
#    0.000    3.333    2.933    6.400    0.000    0.000 
#    0.000    0.000    0.000    0.000    0.000    0.000 
#
# Total GULP energy -167167.888514 kJ/mol
# GULP energy per Si atom -5572.262950 kJ/mol
# Density = 2.311777 g / cm^3
# Si number density = 23.170507 Si / 1000 Ang^3
#
#
#
# Elastic Constant Matrix: (Units=GPa)
#
#
# Indices 1 2 3 4 5 6 
#
# 1 100.5210 15.9007 17.9942 0.0000 0.0000 0.0000
# 2 15.9007 24.6203 8.0818 0.0000 0.0000 0.0000
# 3 17.9942 8.0818 58.0483 0.0000 0.0000 0.0000
# 4 0.0000 0.0000 0.0000 16.7785 0.0000 0.0000
# 5 0.0000 0.0000 0.0000 0.0000 26.2223 0.0000
# 6 0.0000 0.0000 0.0000 0.0000 0.0000 -11.5295
#
#
#
# Elastic Compliance Matrix: (Units=1/GPa)
#
#
# Indices 1 2 3 4 5 6 
#
# 1 0.011454 -0.006530 -0.002641 0.000000 0.000000 0.000000
# 2 -0.006530 0.046285 -0.004420 0.000000 0.000000 0.000000
# 3 -0.002641 -0.004420 0.018661 0.000000 0.000000 0.000000
# 4 0.000000 0.000000 0.000000 0.059600 0.000000 0.000000
# 5 0.000000 0.000000 0.000000 0.000000 0.038135 0.000000
# 6 0.000000 0.000000 0.000000 0.000000 0.000000 -0.086734
#
#
# Mechanical properties :
#
#
# Convention : Reuss Voigt Hill
#
# Bulk Modulus (GPa) = 20.31805 29.68257 25.00031
# Shear Modulus (GPa) = 38.17060 15.70846 26.93953
#
# Velocity S-wave (km/s) = 4.06319 2.60657 3.41349
# Velocity P-wave (km/s) = 5.54984 4.67945 5.13313
#
# Compressibility (1/GPa) = 0.04921732
#
# Stress axis : x y z
#
# Youngs Moduli (GPa) = 87.30584 21.60520 53.58723
#
# Poissons Ratio (x) = 0.14109 0.14154
# Poissons Ratio (y) = 0.57014 0.23684
# Poissons Ratio (z) = 0.23061 0.09549
#
# Static dielectric constant tensor:
#      x y z
#    x 1.926570 0.000000 0.000000 
#    y 0.000000 1.859730 0.000000 
#    z 0.000000 0.000000 2.022180 
# 
# From -- ./inp_files/27263.got.cif
#   From: 2010.05.17/outbox.cif.g08.bks.cpg/sg20_14_cif.got.tgz:27263.got - 2010.06.03 22:52:26.
