data_PCOD9317281
_publ_section_title
;
Structure prediction by ZEFSAII (Michael W. Deem and Ramdas Pophale) SiO2 
 PCOD9317281
Probable space group: C 2 2 21
;
_chemical_formula_sum "Si O2"
_cell_formula_units_Z 56
_cell_length_a 15.972464
_cell_length_b 9.640867
_cell_length_c 19.628155
_cell_angle_alpha 90.000000
_cell_angle_beta 90.000000
_cell_angle_gamma 90.000000
_cell_volume 3022.508205
_symmetry_space_group_name_H-M "C 2 2 21"
_symmetry_group_IT_number 20
_symmetry_cell_setting 'orthorhombic'
loop_
_space_group_symop_operation_xyz
x,y,z
-x,-y,1/2+z
x,-y,-z
-x,y,1/2-z
1/2+x,1/2+y,z
1/2-x,1/2-y,1/2+z
1/2+x,1/2-y,-z
1/2-x,1/2+y,1/2-z
loop_
_atom_site_type_symbol
_atom_site_label
_atom_site_fract_x
_atom_site_fract_y
_atom_site_fract_z
Si Si1 0.305121 0.927428 0.287736
Si Si2 0.942206 0.031251 0.419440
Si Si3 0.719179 0.771180 0.821201
Si Si4 0.404416 0.039798 0.159600
Si Si5 0.472400 0.791840 0.330020
Si Si6 0.751934 0.024989 0.580264
Si Si7 0.023543 0.798080 0.177841
O O1 0.250927 0.812519 0.246405
O O2 0.359820 0.002593 0.229873
O O3 0.376572 0.848415 0.330536
O O4 0.259984 0.063299 0.320784
O O5 0.843767 0.027484 0.397885
O O6 0.986474 0.904137 0.382730
O O7 0.946605 0.000000 0.500000
O O8 0.978383 0.167540 0.383731
O O9 0.753254 0.679808 0.885624
O O10 0.618904 0.754983 0.823222
O O11 0.465594 0.911977 0.144848
O O12 0.327861 0.055938 0.108536
O O13 0.461366 0.171777 0.168574
O O14 0.500000 0.760565 0.250000
O O15 0.750634 0.000000 0.500000
O O16 0.000000 0.866016 0.250000
#
# Coordination Sequence:
#
# PCOD9317281 Si02
#       7
#     8   8   8   8   8   8   8
#     4  10  20  34  57  92 121 147 195 241 301 354
#     4  10  23  39  56  82 117 156 195 240 296 359
#     4  10  20  34  59  88 119 153 192 244 297 359
#     4  10  19  36  59  86 112 150 190 243 295 352
#     4  10  20  37  60  89 121 148 194 252 299 348
#     4   9  21  39  59  79 115 161 200 234 295 365
#     4  11  19  35  60  86 114 149 195 241 291 351
#
# _framework density 18.527659
#
# number of rings (size 3 to 8) (size 9 to 14) (size 15 to 20)
#    0.000    2.000    2.857    0.857    6.000    1.143 
#    2.571    0.000    0.000    0.000    0.000    0.000 
#    0.000    0.000    0.000    0.000    0.000    0.000 
#
# Total GULP energy -155909.270098 kJ/mol
# GULP energy per Si atom -5568.188218 kJ/mol
# Density = 1.848549 g / cm^3
# Si number density = 18.527659 Si / 1000 Ang^3
#
#
#
# Elastic Constant Matrix: (Units=GPa)
#
#
# Indices 1 2 3 4 5 6 
#
# 1 48.5987 12.7616 13.9625 0.0000 0.0000 0.0000
# 2 12.7616 75.2799 32.7447 0.0000 0.0000 0.0000
# 3 13.9625 32.7447 62.8762 0.0000 0.0000 0.0000
# 4 0.0000 0.0000 0.0000 10.5319 0.0000 0.0000
# 5 0.0000 0.0000 0.0000 0.0000 20.6525 0.0000
# 6 0.0000 0.0000 0.0000 0.0000 0.0000 28.2699
#
#
#
# Elastic Compliance Matrix: (Units=1/GPa)
#
#
# Indices 1 2 3 4 5 6 
#
# 1 0.022232 -0.002096 -0.003845 0.000000 0.000000 0.000000
# 2 -0.002096 0.017372 -0.008581 0.000000 0.000000 0.000000
# 3 -0.003845 -0.008581 0.021227 0.000000 0.000000 0.000000
# 4 0.000000 0.000000 0.000000 0.094949 0.000000 0.000000
# 5 0.000000 0.000000 0.000000 0.000000 0.048420 0.000000
# 6 0.000000 0.000000 0.000000 0.000000 0.000000 0.035373
#
#
# Mechanical properties :
#
#
# Convention : Reuss Voigt Hill
#
# Bulk Modulus (GPa) = 31.46123 33.96582 32.71353
# Shear Modulus (GPa) = 17.90739 20.37660 19.14200
#
# Velocity S-wave (km/s) = 3.11227 3.31991 3.21776
# Velocity P-wave (km/s) = 5.47106 5.75048 5.61251
#
# Compressibility (1/GPa) = 0.03178515
#
# Stress axis : x y z
#
# Youngs Moduli (GPa) = 44.98050 57.56460 47.10940
#
# Poissons Ratio (x) = 0.12067 0.18115
# Poissons Ratio (y) = 0.09429 0.40426
# Poissons Ratio (z) = 0.17296 0.49398
#
# Static dielectric constant tensor:
#      x y z
#    x 1.675450 0.000000 0.000000 
#    y 0.000000 1.704210 0.000000 
#    z 0.000000 0.000000 1.792310 
# 
# From -- ./inp_files/27582.got.cif
#   From: 2010.05.17/outbox.cif.g08.bks.cpg/sg20_14_cif.got.tgz:27582.got - 2010.06.03 22:52:26.
