data_PCOD9317852
_publ_section_title
;
Structure prediction by ZEFSAII (Michael W. Deem and Ramdas Pophale) SiO2 
 PCOD9317852
Probable space group: C 2 2 21
;
_chemical_formula_sum "Si O2"
_cell_formula_units_Z 64
_cell_length_a 9.119492
_cell_length_b 23.069804
_cell_length_c 16.202867
_cell_angle_alpha 90.000000
_cell_angle_beta 90.000000
_cell_angle_gamma 90.000000
_cell_volume 3408.838440
_symmetry_space_group_name_H-M "C 2 2 21"
_symmetry_group_IT_number 20
_symmetry_cell_setting 'orthorhombic'
loop_
_space_group_symop_operation_xyz
x,y,z
-x,-y,1/2+z
x,-y,-z
-x,y,1/2-z
1/2+x,1/2+y,z
1/2-x,1/2-y,1/2+z
1/2+x,1/2-y,-z
1/2-x,1/2+y,1/2-z
loop_
_atom_site_type_symbol
_atom_site_label
_atom_site_fract_x
_atom_site_fract_y
_atom_site_fract_z
Si Si1 0.175512 0.356449 0.250000
Si Si2 0.677816 0.989730 0.250000
Si Si3 0.331365 0.331364 0.934199
Si Si4 0.167972 0.778486 0.118310
Si Si5 0.332028 0.278486 0.118310
Si Si6 0.177259 0.544766 0.425793
Si Si7 0.677258 0.955234 0.925793
Si Si8 0.668635 0.331364 0.934199
O O1 0.225893 0.422974 0.250000
O O2 0.237750 0.322445 0.328018
O O3 0.237750 0.322445 0.171982
O O4 0.000000 0.355550 0.250000
O O5 0.500000 0.989738 0.250000
O O6 0.721522 0.019880 0.335872
O O7 0.721522 0.019880 0.164128
O O8 0.240795 0.284932 0.880723
O O9 0.254002 0.393480 0.937556
O O10 0.500000 0.336381 0.906209
O O11 0.332759 0.303446 0.025539
O O12 1.000000 0.775750 0.146847
O O13 0.167240 0.803446 0.025539
O O14 0.259204 0.215068 0.119277
O O15 0.213926 0.500000 0.500000
O O16 0.254003 0.606520 0.437556
O O17 0.000000 0.551805 0.426932
O O18 0.713926 0.000000 0.000000
#
# Coordination Sequence:
#
# PCOD9317852 Si02
#       8
#     8   8   8   8   8   8   8   8
#     4  11  21  36  59  84 111 142 184 233 278 331
#     4   9  20  36  55  82 111 144 188 231 276 341
#     4  10  21  37  57  82 111 145 188 234 281 335
#     4  10  21  37  57  81 111 146 183 228 283 340
#     4  10  21  37  57  81 111 146 183 228 283 340
#     4  10  20  36  58  81 111 152 191 231 285 344
#     4  10  20  36  58  81 111 152 191 231 285 344
#     4  10  21  37  57  82 111 145 188 234 281 335
#
# _framework density 18.774723000000002
#
# number of rings (size 3 to 8) (size 9 to 14) (size 15 to 20)
#    0.000    2.000    0.000    3.375    0.000    6.500 
#    0.000    6.875    0.000    0.000    0.000    0.000 
#    0.000    0.000    0.000    0.000    0.000    0.000 
#
# Total GULP energy -178648.190623 kJ/mol
# GULP energy per Si atom -5582.755957 kJ/mol
# Density = 1.873199 g / cm^3
# Si number density = 18.774723 Si / 1000 Ang^3
#
#
#
# Elastic Constant Matrix: (Units=GPa)
#
#
# Indices 1 2 3 4 5 6 
#
# 1 96.7699 71.5150 30.6128 0.0000 0.0000 0.0000
# 2 71.5150 183.5060 42.0883 0.0000 0.0000 0.0000
# 3 30.6128 42.0883 70.9311 0.0000 0.0000 0.0000
# 4 0.0000 0.0000 0.0000 20.3742 0.0000 0.0000
# 5 0.0000 0.0000 0.0000 0.0000 21.7129 0.0000
# 6 0.0000 0.0000 0.0000 0.0000 0.0000 33.0664
#
#
#
# Elastic Compliance Matrix: (Units=1/GPa)
#
#
# Indices 1 2 3 4 5 6 
#
# 1 0.015243 -0.005130 -0.003535 0.000000 0.000000 0.000000
# 2 -0.005130 0.008034 -0.002553 0.000000 0.000000 0.000000
# 3 -0.003535 -0.002553 0.017139 0.000000 0.000000 0.000000
# 4 0.000000 0.000000 0.000000 0.049082 0.000000 0.000000
# 5 0.000000 0.000000 0.000000 0.000000 0.046056 0.000000
# 6 0.000000 0.000000 0.000000 0.000000 0.000000 0.030242
#
#
# Mechanical properties :
#
#
# Convention : Reuss Voigt Hill
#
# Bulk Modulus (GPa) = 55.61653 71.07103 63.34378
# Shear Modulus (GPa) = 25.74338 28.83007 27.28673
#
# Velocity S-wave (km/s) = 3.70695 3.92290 3.81645
# Velocity P-wave (km/s) = 6.92888 7.64563 7.29606
#
# Compressibility (1/GPa) = 0.01798026
#
# Stress axis : x y z
#
# Youngs Moduli (GPa) = 65.60398 124.46886 58.34697
#
# Poissons Ratio (x) = 0.63848 0.20625
# Poissons Ratio (y) = 0.33653 0.14898
# Poissons Ratio (z) = 0.23190 0.31781
#
# Static dielectric constant tensor:
#      x y z
#    x 1.634120 0.000000 0.000000 
#    y 0.000000 1.605110 0.000000 
#    z 0.000000 0.000000 1.674450 
# 
# From -- ./inp_files/23933.got.cif
#   From: 2010.05.17/outbox.cif.g08.bks.cpg/sg20_12_cif.got.tgz:23933.got - 2010.06.03 22:52:26.
