data_PCOD9317432
_publ_section_title
;
Structure prediction by ZEFSAII (Michael W. Deem and Ramdas Pophale) SiO2 
 PCOD9317432
Probable space group: C 2 2 21
;
_chemical_formula_sum "Si O2"
_cell_formula_units_Z 56
_cell_length_a 5.287049
_cell_length_b 30.820732
_cell_length_c 16.430972
_cell_angle_alpha 90.000000
_cell_angle_beta 90.000000
_cell_angle_gamma 90.000000
_cell_volume 2677.438723
_symmetry_space_group_name_H-M "C 2 2 21"
_symmetry_group_IT_number 20
_symmetry_cell_setting 'orthorhombic'
loop_
_space_group_symop_operation_xyz
x,y,z
-x,-y,1/2+z
x,-y,-z
-x,y,1/2-z
1/2+x,1/2+y,z
1/2-x,1/2-y,1/2+z
1/2+x,1/2-y,-z
1/2-x,1/2+y,1/2-z
loop_
_atom_site_type_symbol
_atom_site_label
_atom_site_fract_x
_atom_site_fract_y
_atom_site_fract_z
Si Si1 0.635170 0.484795 0.593650
Si Si2 0.508973 0.120685 0.917592
Si Si3 0.634754 0.979739 0.409406
Si Si4 0.993821 0.106090 0.157714
Si Si5 0.501177 0.662433 0.846430
Si Si6 0.924757 0.749324 0.055034
Si Si7 0.003216 0.346742 0.896948
O O1 0.668314 0.500000 0.500000
O O2 0.406939 0.512790 0.630436
O O3 0.558465 0.434794 0.599445
O O4 0.908064 0.493701 0.632126
O O5 0.446253 0.069818 0.916760
O O6 0.773710 0.130818 0.874002
O O7 0.272443 0.144940 0.876127
O O8 0.529852 0.138380 0.009283
O O9 0.668803 0.000000 0.500000
O O10 0.760008 0.138959 0.147209
O O11 0.000000 0.089717 0.250000
O O12 0.257728 0.128768 0.137065
O O13 0.500000 0.666870 0.750000
O O14 0.446935 0.708360 0.889385
O O15 0.960089 0.704649 0.103842
O O16 0.654084 0.748687 0.010093
#
# Coordination Sequence:
#
# PCOD9317432 Si02
#       7
#     8   8   8   8   8   8   8
#     4  10  19  38  61  89 129 172 228 271 331 402
#     4  12  23  43  73  98 132 178 232 284 325 418
#     4  10  20  36  62  95 121 163 229 275 323 380
#     4  12  26  42  63 102 144 180 225 292 350 396
#     4  12  26  45  68 103 143 179 220 286 350 391
#     4  12  23  46  70 104 135 175 233 279 327 413
#     4  12  23  42  73  97 132 179 233 273 338 416
#
# _framework density 20.915512
#
# number of rings (size 3 to 8) (size 9 to 14) (size 15 to 20)
#    0.000    0.571    2.857    7.714    0.000    1.143 
#    0.000    4.286    0.000    0.000    0.000    0.000 
#    0.000    0.000    0.000    0.000    0.000    0.000 
#
# Total GULP energy -156657.838515 kJ/mol
# GULP energy per Si atom -5594.922804 kJ/mol
# Density = 2.086791 g / cm^3
# Si number density = 20.915512 Si / 1000 Ang^3
#
#
#
# Elastic Constant Matrix: (Units=GPa)
#
#
# Indices 1 2 3 4 5 6 
#
# 1 100.9563 -43.0425 11.2882 0.0000 0.0000 0.0000
# 2 -43.0425 76.2215 2.1382 0.0000 0.0000 0.0000
# 3 11.2882 2.1382 66.9713 0.0000 0.0000 0.0000
# 4 0.0000 0.0000 0.0000 13.9211 0.0000 0.0000
# 5 0.0000 0.0000 0.0000 0.0000 9.6046 0.0000
# 6 0.0000 0.0000 0.0000 0.0000 0.0000 32.0083
#
#
#
# Elastic Compliance Matrix: (Units=1/GPa)
#
#
# Indices 1 2 3 4 5 6 
#
# 1 0.013456 0.007669 -0.002513 0.000000 0.000000 0.000000
# 2 0.007669 0.017502 -0.001851 0.000000 0.000000 0.000000
# 3 -0.002513 -0.001851 0.015414 0.000000 0.000000 0.000000
# 4 0.000000 0.000000 0.000000 0.071834 0.000000 0.000000
# 5 0.000000 0.000000 0.000000 0.000000 0.104116 0.000000
# 6 0.000000 0.000000 0.000000 0.000000 0.000000 0.031242
#
#
# Mechanical properties :
#
#
# Convention : Reuss Voigt Hill
#
# Bulk Modulus (GPa) = 18.87424 20.54633 19.71028
# Shear Modulus (GPa) = 18.89532 29.35782 24.12657
#
# Velocity S-wave (km/s) = 3.00894 3.75058 3.40004
# Velocity P-wave (km/s) = 4.59514 5.34795 4.98577
#
# Compressibility (1/GPa) = 0.05298228
#
# Stress axis : x y z
#
# Youngs Moduli (GPa) = 74.31653 57.13515 64.87426
#
# Poissons Ratio (x) = -0.43818 0.16302
# Poissons Ratio (y) = -0.56994 0.12011
# Poissons Ratio (z) = 0.18675 0.10578
#
# Static dielectric constant tensor:
#      x y z
#    x 1.798560 0.000000 0.000000 
#    y 0.000000 1.735360 0.000000 
#    z 0.000000 0.000000 1.670530 
# 
# From -- ./inp_files/17958.got.cif
#   From: 2010.05.17/outbox.cif.g08.bks.cpg/sg20_9_cif.got.tgz:17958.got - 2010.06.03 22:52:26.
