data_PCOD9317335
_publ_section_title
;
Structure prediction by ZEFSAII (Michael W. Deem and Ramdas Pophale) SiO2 
 PCOD9317335
Probable space group: C 2 2 21
;
_chemical_formula_sum "Si O2"
_cell_formula_units_Z 48
_cell_length_a 6.885600
_cell_length_b 17.083011
_cell_length_c 14.367505
_cell_angle_alpha 90.000000
_cell_angle_beta 90.000000
_cell_angle_gamma 90.000000
_cell_volume 1690.003358
_symmetry_space_group_name_H-M "C 2 2 21"
_symmetry_group_IT_number 20
_symmetry_cell_setting 'orthorhombic'
loop_
_space_group_symop_operation_xyz
x,y,z
-x,-y,1/2+z
x,-y,-z
-x,y,1/2-z
1/2+x,1/2+y,z
1/2-x,1/2-y,1/2+z
1/2+x,1/2-y,-z
1/2-x,1/2+y,1/2-z
loop_
_atom_site_type_symbol
_atom_site_label
_atom_site_fract_x
_atom_site_fract_y
_atom_site_fract_z
Si Si1 0.813357 0.750730 0.296175
Si Si2 0.781535 0.108236 0.608982
Si Si3 0.731694 0.882861 0.923346
Si Si4 0.233439 0.470447 0.749034
Si Si5 0.844743 0.316222 0.392408
Si Si6 0.264450 0.139141 0.085678
O O1 0.905229 0.816860 0.361586
O O2 0.697962 0.691554 0.361921
O O3 0.709121 0.798311 0.214471
O O4 0.000000 0.709752 0.250000
O O5 0.804174 0.042822 0.687134
O O6 0.560851 0.145277 0.611072
O O7 0.813520 0.089046 0.501274
O O8 0.496967 0.872163 0.918522
O O9 0.785332 0.955939 0.857297
O O10 0.764489 0.872660 0.032815
O O11 0.294115 0.396176 0.685170
O O12 0.000000 0.478223 0.750000
O O13 0.804008 0.227995 0.431375
#
# Coordination Sequence:
#
# PCOD9317335 Si02
#       6
#     8   8   8   8   8   8
#     4  12  21  38  62  88 126 172 210 267 328 397
#     4  11  24  37  62  97 131 162 222 274 323 396
#     4  10  20  36  63  90 127 170 214 266 328 392
#     4  10  19  38  61  91 127 176 217 269 331 390
#     4  11  21  37  62 102 120 162 224 277 321 389
#     4  10  19  36  64  94 126 161 212 271 334 386
#
# _framework density 28.402308999999999
#
# number of rings (size 3 to 8) (size 9 to 14) (size 15 to 20)
#    0.000    1.333    5.000    2.500    0.000    0.000 
#    0.000    2.500    3.667    2.000    0.000    0.000 
#    0.000    0.000    0.000    0.000    0.000    0.000 
#
# Total GULP energy -134114.203675 kJ/mol
# GULP energy per Si atom -5588.091820 kJ/mol
# Density = 2.833766 g / cm^3
# Si number density = 28.402309 Si / 1000 Ang^3
#
#
#
# Elastic Constant Matrix: (Units=GPa)
#
#
# Indices 1 2 3 4 5 6 
#
# 1 117.3809 -13.8423 -0.0741 0.0000 0.0000 0.0000
# 2 -13.8423 128.2716 53.7987 0.0000 0.0000 0.0000
# 3 -0.0741 53.7987 202.7297 0.0000 0.0000 0.0000
# 4 0.0000 0.0000 0.0000 48.9202 0.0000 0.0000
# 5 0.0000 0.0000 0.0000 0.0000 18.3113 0.0000
# 6 0.0000 0.0000 0.0000 0.0000 0.0000 15.0750
#
#
#
# Elastic Compliance Matrix: (Units=1/GPa)
#
#
# Indices 1 2 3 4 5 6 
#
# 1 0.008643 0.001048 -0.000275 0.000000 0.000000 0.000000
# 2 0.001048 0.008899 -0.002361 0.000000 0.000000 0.000000
# 3 -0.000275 -0.002361 0.005559 0.000000 0.000000 0.000000
# 4 0.000000 0.000000 0.000000 0.020441 0.000000 0.000000
# 5 0.000000 0.000000 0.000000 0.000000 0.054611 0.000000
# 6 0.000000 0.000000 0.000000 0.000000 0.000000 0.066335
#
#
# Mechanical properties :
#
#
# Convention : Reuss Voigt Hill
#
# Bulk Modulus (GPa) = 50.18866 58.68298 54.43582
# Shear Modulus (GPa) = 28.68499 43.69461 36.18980
#
# Velocity S-wave (km/s) = 3.18142 3.92652 3.57345
# Velocity P-wave (km/s) = 5.58608 6.42362 6.01944
#
# Compressibility (1/GPa) = 0.01992482
#
# Stress axis : x y z
#
# Youngs Moduli (GPa) = 115.70474 112.36715 179.88237
#
# Poissons Ratio (x) = -0.11776 0.04946
# Poissons Ratio (y) = -0.12126 0.42475
# Poissons Ratio (z) = 0.03181 0.26533
#
# Static dielectric constant tensor:
#      x y z
#    x 2.395050 0.000000 0.000000 
#    y 0.000000 2.194080 0.000000 
#    z 0.000000 0.000000 2.231650 
# 
# From -- ./inp_files/18920.got.cif
#   From: 2010.05.17/outbox.cif.g08.bks.cpg/sg20_10_cif.got.tgz:18920.got - 2010.06.03 22:52:26.
