data_PCOD9317803
_publ_section_title
;
Structure prediction by ZEFSAII (Michael W. Deem and Ramdas Pophale) SiO2 
 PCOD9317803
Probable space group: C 2 2 21
;
_chemical_formula_sum "Si O2"
_cell_formula_units_Z 48
_cell_length_a 9.049803
_cell_length_b 16.333473
_cell_length_c 17.161860
_cell_angle_alpha 90.000000
_cell_angle_beta 90.000000
_cell_angle_gamma 90.000000
_cell_volume 2536.775410
_symmetry_space_group_name_H-M "C 2 2 21"
_symmetry_group_IT_number 20
_symmetry_cell_setting 'orthorhombic'
loop_
_space_group_symop_operation_xyz
x,y,z
-x,-y,1/2+z
x,-y,-z
-x,y,1/2-z
1/2+x,1/2+y,z
1/2-x,1/2-y,1/2+z
1/2+x,1/2-y,-z
1/2-x,1/2+y,1/2-z
loop_
_atom_site_type_symbol
_atom_site_label
_atom_site_fract_x
_atom_site_fract_y
_atom_site_fract_z
Si Si1 0.168700 0.571850 0.914677
Si Si2 0.408552 0.252731 0.325656
Si Si3 0.562459 0.335988 0.463796
Si Si4 0.158394 0.296292 0.214366
Si Si5 0.229836 0.813178 0.934112
Si Si6 0.972022 0.604968 0.432343
O O1 0.329946 0.586139 0.954103
O O2 0.169049 0.619020 0.833298
O O3 0.103287 0.481001 0.910397
O O4 0.060761 0.616935 0.976177
O O5 0.500000 0.225770 0.250000
O O6 0.496299 0.317452 0.378137
O O7 0.265698 0.291408 0.287897
O O8 0.394300 0.175102 0.381725
O O9 0.673626 0.258354 0.478005
O O10 0.421697 0.336509 0.521516
O O11 0.193625 0.227196 0.149452
O O12 0.000000 0.283737 0.250000
O O13 0.351364 0.884928 0.922402
#
# Coordination Sequence:
#
# PCOD9317803 Si02
#       6
#     8   8   8   8   8   8
#     4  10  22  42  59  90 125 168 202 252 317 371
#     4  11  19  37  63  93 118 160 206 258 305 364
#     4  10  20  35  65  91 124 158 213 256 297 369
#     4  11  23  35  62  96 123 157 213 255 307 367
#     4  10  20  37  61  95 118 165 211 253 300 368
#     4  10  22  40  64  83 128 168 205 251 316 369
#
# _framework density 18.921658999999998
#
# number of rings (size 3 to 8) (size 9 to 14) (size 15 to 20)
#    0.000    1.667    5.000    4.000    7.000    0.667 
#    0.000    3.333    3.667    0.000    0.000    0.000 
#    0.000    0.000    0.000    0.000    0.000    0.000 
#
# Total GULP energy -133710.830103 kJ/mol
# GULP energy per Si atom -5571.284588 kJ/mol
# Density = 1.887859 g / cm^3
# Si number density = 18.921659 Si / 1000 Ang^3
#
#
#
# Elastic Constant Matrix: (Units=GPa)
#
#
# Indices 1 2 3 4 5 6 
#
# 1 154.5066 61.8479 39.9842 0.0000 0.0000 0.0000
# 2 61.8479 86.2820 21.3009 0.0000 0.0000 0.0000
# 3 39.9842 21.3009 55.8288 0.0000 0.0000 0.0000
# 4 0.0000 0.0000 0.0000 27.7758 0.0000 0.0000
# 5 0.0000 0.0000 0.0000 0.0000 53.8243 0.0000
# 6 0.0000 0.0000 0.0000 0.0000 0.0000 34.8483
#
#
#
# Elastic Compliance Matrix: (Units=1/GPa)
#
#
# Indices 1 2 3 4 5 6 
#
# 1 0.010194 -0.006077 -0.004982 0.000000 0.000000 0.000000
# 2 -0.006077 0.016418 -0.001912 0.000000 0.000000 0.000000
# 3 -0.004982 -0.001912 0.022210 0.000000 0.000000 0.000000
# 4 0.000000 0.000000 0.000000 0.036003 0.000000 0.000000
# 5 0.000000 0.000000 0.000000 0.000000 0.018579 0.000000
# 6 0.000000 0.000000 0.000000 0.000000 0.000000 0.028696
#
#
# Mechanical properties :
#
#
# Convention : Reuss Voigt Hill
#
# Bulk Modulus (GPa) = 43.70741 60.32036 52.01389
# Shear Modulus (GPa) = 30.18076 34.85531 32.51804
#
# Velocity S-wave (km/s) = 3.99813 4.29661 4.15005
# Velocity P-wave (km/s) = 6.66803 7.52082 7.10722
#
# Compressibility (1/GPa) = 0.02287942
#
# Stress axis : x y z
#
# Youngs Moduli (GPa) = 98.09394 60.90815 45.02567
#
# Poissons Ratio (x) = 0.37016 0.22433
# Poissons Ratio (y) = 0.59615 0.08607
# Poissons Ratio (z) = 0.48874 0.11643
#
# Static dielectric constant tensor:
#      x y z
#    x 1.734760 0.000000 0.000000 
#    y 0.000000 1.690040 0.000000 
#    z 0.000000 0.000000 1.680880 
# 
# From -- ./inp_files/23614.got.cif
#   From: 2010.05.17/outbox.cif.g08.bks.cpg/sg20_12_cif.got.tgz:23614.got - 2010.06.03 22:52:26.
