data_PCOD9317412
_publ_section_title
;
Structure prediction by ZEFSAII (Michael W. Deem and Ramdas Pophale) SiO2 
 PCOD9317412
Probable space group: C 2 2 21
;
_chemical_formula_sum "Si O2"
_cell_formula_units_Z 48
_cell_length_a 17.833975
_cell_length_b 11.978103
_cell_length_c 9.400558
_cell_angle_alpha 90.000000
_cell_angle_beta 90.000000
_cell_angle_gamma 90.000000
_cell_volume 2008.120779
_symmetry_space_group_name_H-M "C 2 2 21"
_symmetry_group_IT_number 20
_symmetry_cell_setting 'orthorhombic'
loop_
_space_group_symop_operation_xyz
x,y,z
-x,-y,1/2+z
x,-y,-z
-x,y,1/2-z
1/2+x,1/2+y,z
1/2-x,1/2-y,1/2+z
1/2+x,1/2-y,-z
1/2-x,1/2+y,1/2-z
loop_
_atom_site_type_symbol
_atom_site_label
_atom_site_fract_x
_atom_site_fract_y
_atom_site_fract_z
Si Si1 0.809899 0.192788 0.026062
Si Si2 0.803805 0.976896 0.229982
Si Si3 0.949475 0.447908 0.644381
Si Si4 0.049959 0.920746 0.112664
Si Si5 0.145039 0.727096 0.995274
Si Si6 0.146447 0.380540 0.305704
O O1 0.729221 0.253900 0.039485
O O2 0.864483 0.295942 0.062818
O O3 0.807211 0.089706 0.136931
O O4 0.817629 0.130009 0.875393
O O5 0.873133 0.980428 0.337019
O O6 0.722707 0.954696 0.301430
O O7 0.983585 0.500000 0.500000
O O8 0.878219 0.383969 0.580188
O O9 0.920113 0.539230 0.757066
O O10 0.000000 0.374195 0.750000
O O11 0.079999 0.811863 0.034023
O O12 0.000000 0.901056 0.250000
O O13 0.008451 0.000000 0.000000
O O14 0.150700 0.702335 0.829416
#
# Coordination Sequence:
#
# PCOD9317412 Si02
#       6
#     8   8   8   8   8   8
#     4  10  19  37  67  96 125 171 221 274 346 392
#     4  10  21  39  65  94 133 168 225 284 333 405
#     4  10  21  41  61  92 131 168 214 268 336 400
#     4  12  27  46  65  94 138 183 232 280 338 409
#     4  10  20  40  65  92 130 171 213 281 338 400
#     4  10  19  38  65  96 129 171 219 276 337 404
#
# _framework density 23.902943
#
# number of rings (size 3 to 8) (size 9 to 14) (size 15 to 20)
#    0.000    1.667    3.333    1.500    2.333    0.000 
#    9.000    2.500    0.000    0.000    0.000    0.000 
#    0.000    0.000    0.000    0.000    0.000    0.000 
#
# Total GULP energy -133993.894047 kJ/mol
# GULP energy per Si atom -5583.078919 kJ/mol
# Density = 2.384854 g / cm^3
# Si number density = 23.902943 Si / 1000 Ang^3
#
#
#
# Elastic Constant Matrix: (Units=GPa)
#
#
# Indices 1 2 3 4 5 6 
#
# 1 48.5759 -1.7037 21.4123 0.0000 0.0000 0.0000
# 2 -1.7037 69.4473 11.2051 0.0000 0.0000 0.0000
# 3 21.4123 11.2051 47.1752 0.0000 0.0000 0.0000
# 4 0.0000 0.0000 0.0000 35.0017 0.0000 0.0000
# 5 0.0000 0.0000 0.0000 0.0000 34.1114 0.0000
# 6 0.0000 0.0000 0.0000 0.0000 0.0000 7.2265
#
#
#
# Elastic Compliance Matrix: (Units=1/GPa)
#
#
# Indices 1 2 3 4 5 6 
#
# 1 0.026201 0.002664 -0.012525 0.000000 0.000000 0.000000
# 2 0.002664 0.015244 -0.004830 0.000000 0.000000 0.000000
# 3 -0.012525 -0.004830 0.028030 0.000000 0.000000 0.000000
# 4 0.000000 0.000000 0.000000 0.028570 0.000000 0.000000
# 5 0.000000 0.000000 0.000000 0.000000 0.029316 0.000000
# 6 0.000000 0.000000 0.000000 0.000000 0.000000 0.138380
#
#
# Mechanical properties :
#
#
# Convention : Reuss Voigt Hill
#
# Bulk Modulus (GPa) = 24.94241 25.22508 25.08375
# Shear Modulus (GPa) = 16.20821 24.22026 20.21423
#
# Velocity S-wave (km/s) = 2.60683 3.18665 2.91121
# Velocity P-wave (km/s) = 4.41795 4.91077 4.67087
#
# Compressibility (1/GPa) = 0.04009236
#
# Stress axis : x y z
#
# Youngs Moduli (GPa) = 38.16691 65.59958 35.67659
#
# Poissons Ratio (x) = -0.17473 0.44684
# Poissons Ratio (y) = -0.10166 0.17231
# Poissons Ratio (z) = 0.47803 0.31683
#
# Static dielectric constant tensor:
#      x y z
#    x 1.886370 0.000000 0.000000 
#    y 0.000000 1.945950 0.000000 
#    z 0.000000 0.000000 1.969260 
# 
# From -- ./inp_files/15727.got.cif
#   From: 2010.05.17/outbox.cif.g08.bks.cpg/sg20_8_cif.got.tgz:15727.got - 2010.06.03 22:52:26.
