data_PCOD9317984
_publ_section_title
;
Structure prediction by ZEFSAII (Michael W. Deem and Ramdas Pophale) SiO2 
 PCOD9317984
Probable space group: C 2 2 21
;
_chemical_formula_sum "Si O2"
_cell_formula_units_Z 40
_cell_length_a 13.977559
_cell_length_b 9.520651
_cell_length_c 14.896591
_cell_angle_alpha 90.000000
_cell_angle_beta 90.000000
_cell_angle_gamma 90.000000
_cell_volume 1982.370716
_symmetry_space_group_name_H-M "C 2 2 21"
_symmetry_group_IT_number 20
_symmetry_cell_setting 'orthorhombic'
loop_
_space_group_symop_operation_xyz
x,y,z
-x,-y,1/2+z
x,-y,-z
-x,y,1/2-z
1/2+x,1/2+y,z
1/2-x,1/2-y,1/2+z
1/2+x,1/2-y,-z
1/2-x,1/2+y,1/2-z
loop_
_atom_site_type_symbol
_atom_site_label
_atom_site_fract_x
_atom_site_fract_y
_atom_site_fract_z
Si Si1 0.089517 0.009544 0.806280
Si Si2 0.548444 0.048446 0.347323
Si Si3 0.412826 0.201383 0.622350
Si Si4 0.611602 0.223211 0.080371
Si Si5 0.791339 0.480511 0.724426
O O1 0.114298 0.119009 0.884431
O O2 0.180037 0.994096 0.740914
O O3 0.000000 0.065738 0.750000
O O4 0.065011 0.857283 0.845786
O O5 0.500000 0.071773 0.250000
O O6 0.507359 0.897483 0.377737
O O7 0.658883 0.055940 0.320675
O O8 0.496896 0.162722 0.408615
O O9 0.366254 0.203922 0.523840
O O10 0.340093 0.125201 0.690955
O O11 0.677495 0.130652 0.147554
#
# Coordination Sequence:
#
# PCOD9317984 Si02
#       5
#     8   8   8   8   8
#     4  12  23  37  54  81 116 149 179 219 274 331
#     4   8  16  35  59  78 100 140 185 218 260 323
#     4  10  20  37  58  84 110 138 180 233 275 316
#     4  10  20  37  58  84 110 138 180 233 275 316
#     4  10  20  38  60  79 105 151 190 217 261 332
#
# _framework density 20.177859999999999
#
# number of rings (size 3 to 8) (size 9 to 14) (size 15 to 20)
#    0.000    2.400    0.000    7.800    0.000    0.000 
#    0.000   12.000    0.000    0.000    0.000    0.000 
#    0.000    0.000    0.000    0.000    0.000    0.000 
#
# Total GULP energy -111561.008843 kJ/mol
# GULP energy per Si atom -5578.050442 kJ/mol
# Density = 2.013193 g / cm^3
# Si number density = 20.177860 Si / 1000 Ang^3
#
#
#
# Elastic Constant Matrix: (Units=GPa)
#
#
# Indices 1 2 3 4 5 6 
#
# 1 87.1958 -19.0227 11.5634 0.0000 0.0000 0.0000
# 2 -19.0227 81.2135 1.7882 0.0000 0.0000 0.0000
# 3 11.5634 1.7882 65.7858 0.0000 0.0000 0.0000
# 4 0.0000 0.0000 0.0000 9.4166 0.0000 0.0000
# 5 0.0000 0.0000 0.0000 0.0000 12.7532 0.0000
# 6 0.0000 0.0000 0.0000 0.0000 0.0000 5.7954
#
#
#
# Elastic Compliance Matrix: (Units=1/GPa)
#
#
# Indices 1 2 3 4 5 6 
#
# 1 0.012414 0.002957 -0.002262 0.000000 0.000000 0.000000
# 2 0.002957 0.013025 -0.000874 0.000000 0.000000 0.000000
# 3 -0.002262 -0.000874 0.015622 0.000000 0.000000 0.000000
# 4 0.000000 0.000000 0.000000 0.106196 0.000000 0.000000
# 5 0.000000 0.000000 0.000000 0.000000 0.078412 0.000000
# 6 0.000000 0.000000 0.000000 0.000000 0.000000 0.172551
#
#
# Mechanical properties :
#
#
# Convention : Reuss Voigt Hill
#
# Bulk Modulus (GPa) = 24.56790 24.76144 24.66467
# Shear Modulus (GPa) = 12.13165 21.58411 16.85788
#
# Velocity S-wave (km/s) = 2.45467 3.27416 2.89358
# Velocity P-wave (km/s) = 4.49844 5.15672 4.83879
#
# Compressibility (1/GPa) = 0.04070352
#
# Stress axis : x y z
#
# Youngs Moduli (GPa) = 80.55634 76.77430 64.01113
#
# Poissons Ratio (x) = -0.22706 0.14482
# Poissons Ratio (y) = -0.23824 0.05594
# Poissons Ratio (z) = 0.18225 0.06709
#
# Static dielectric constant tensor:
#      x y z
#    x 1.764200 0.000000 0.000000 
#    y 0.000000 1.736840 0.000000 
#    z 0.000000 0.000000 1.734040 
# 
# From -- ./inp_files/18543.got.cif
#   From: 2010.05.17/outbox.cif.g08.bks.cpg/sg20_10_cif.got.tgz:18543.got - 2010.06.03 22:52:26.
