data_PCOD9317862
_publ_section_title
;
Structure prediction by ZEFSAII (Michael W. Deem and Ramdas Pophale) SiO2 
 PCOD9317862
Probable space group: C 2 2 21
;
_chemical_formula_sum "Si O2"
_cell_formula_units_Z 60
_cell_length_a 10.846197
_cell_length_b 8.810338
_cell_length_c 26.948655
_cell_angle_alpha 90.000000
_cell_angle_beta 90.000000
_cell_angle_gamma 90.000000
_cell_volume 2575.177403
_symmetry_space_group_name_H-M "C 2 2 21"
_symmetry_group_IT_number 20
_symmetry_cell_setting 'orthorhombic'
loop_
_space_group_symop_operation_xyz
x,y,z
-x,-y,1/2+z
x,-y,-z
-x,y,1/2-z
1/2+x,1/2+y,z
1/2-x,1/2-y,1/2+z
1/2+x,1/2-y,-z
1/2-x,1/2+y,1/2-z
loop_
_atom_site_type_symbol
_atom_site_label
_atom_site_fract_x
_atom_site_fract_y
_atom_site_fract_z
Si Si1 0.842974 0.500000 0.500000
Si Si2 0.577433 0.502415 0.340889
Si Si3 0.686936 0.688418 0.257414
Si Si4 0.633235 0.008867 0.706980
Si Si5 0.574005 0.212744 0.172147
Si Si6 0.249939 0.674709 0.905569
Si Si7 0.034962 0.698021 0.612726
Si Si8 0.024333 0.395689 0.570437
O O1 0.767605 0.429925 0.454430
O O2 0.934450 0.373771 0.524087
O O3 0.592350 0.588387 0.289152
O O4 0.465377 0.385733 0.337456
O O5 0.692905 0.401672 0.356670
O O6 0.577289 0.629851 0.383612
O O7 0.640307 0.861091 0.249929
O O8 0.741752 0.589504 0.212552
O O9 0.802982 0.704376 0.295783
O O10 0.599738 0.113539 0.659626
O O11 0.530988 0.878562 0.701884
O O12 0.564845 0.134190 0.118192
O O13 0.352889 0.798700 0.921295
O O14 0.112604 0.718609 0.889251
O O15 0.061911 0.573589 0.570765
#
# Coordination Sequence:
#
# PCOD9317862 Si02
#       8
#     4   8   8   8   8   8   8   8
#     4  10  20  36  58  88 118 148 188 236 288 344
#     4  10  21  36  59  85 109 148 195 229 281 345
#     4  11  21  37  56  81 116 149 183 240 285 324
#     4  10  21  36  57  83 113 150 192 231 285 338
#     4  10  21  38  57  79 110 149 191 233 276 337
#     4  10  21  39  61  83 118 154 185 239 289 336
#     4   9  20  38  58  85 115 151 195 236 281 342
#     4   9  20  39  60  85 116 151 193 232 287 351
#
# _framework density 23.299364000000001
#
# number of rings (size 3 to 8) (size 9 to 14) (size 15 to 20)
#    0.000    2.133    0.000    3.600    0.000    6.400 
#    0.000   10.667    0.000    0.000    0.000    0.000 
#    0.000    0.000    0.000    0.000    0.000    0.000 
#
# Total GULP energy -167275.540208 kJ/mol
# GULP energy per Si atom -5575.851340 kJ/mol
# Density = 2.324633 g / cm^3
# Si number density = 23.299364 Si / 1000 Ang^3
#
#
#
# Elastic Constant Matrix: (Units=GPa)
#
#
# Indices 1 2 3 4 5 6 
#
# 1 67.8644 28.4453 18.0017 0.0000 0.0000 0.0000
# 2 28.4453 121.2883 14.0323 0.0000 0.0000 0.0000
# 3 18.0017 14.0323 85.7745 0.0000 0.0000 0.0000
# 4 0.0000 0.0000 0.0000 20.8927 0.0000 0.0000
# 5 0.0000 0.0000 0.0000 0.0000 42.3904 0.0000
# 6 0.0000 0.0000 0.0000 0.0000 0.0000 34.4759
#
#
#
# Elastic Compliance Matrix: (Units=1/GPa)
#
#
# Indices 1 2 3 4 5 6 
#
# 1 0.017059 -0.003656 -0.002982 0.000000 0.000000 0.000000
# 2 -0.003656 0.009187 -0.000736 0.000000 0.000000 0.000000
# 3 -0.002982 -0.000736 0.012405 0.000000 0.000000 0.000000
# 4 0.000000 0.000000 0.000000 0.047864 0.000000 0.000000
# 5 0.000000 0.000000 0.000000 0.000000 0.023590 0.000000
# 6 0.000000 0.000000 0.000000 0.000000 0.000000 0.029006
#
#
# Mechanical properties :
#
#
# Convention : Reuss Voigt Hill
#
# Bulk Modulus (GPa) = 41.83482 43.98729 42.91105
# Shear Modulus (GPa) = 30.89759 33.84834 32.37296
#
# Velocity S-wave (km/s) = 3.64553 3.81564 3.73156
# Velocity P-wave (km/s) = 5.97614 6.19131 6.08468
#
# Compressibility (1/GPa) = 0.02390353
#
# Stress axis : x y z
#
# Youngs Moduli (GPa) = 58.62159 108.84601 80.61459
#
# Poissons Ratio (x) = 0.39791 0.24040
# Poissons Ratio (y) = 0.21430 0.05931
# Poissons Ratio (z) = 0.17481 0.08009
#
# Static dielectric constant tensor:
#      x y z
#    x 1.933390 0.000000 0.000000 
#    y 0.000000 1.909670 0.000000 
#    z 0.000000 0.000000 1.948150 
# 
# From -- ./inp_files/31169.got.cif
#   From: 2010.05.17/outbox.cif.g08.bks.cpg/sg20_16_cif.got.tgz:31169.got - 2010.06.03 22:52:26.
