data_PCOD9317396
_publ_section_title
;
Structure prediction by ZEFSAII (Michael W. Deem and Ramdas Pophale) SiO2 
 PCOD9317396
Probable space group: C 2 2 21
;
_chemical_formula_sum "Si O2"
_cell_formula_units_Z 60
_cell_length_a 18.546053
_cell_length_b 12.424563
_cell_length_c 9.655762
_cell_angle_alpha 90.000000
_cell_angle_beta 90.000000
_cell_angle_gamma 90.000000
_cell_volume 2224.944446
_symmetry_space_group_name_H-M "C 2 2 21"
_symmetry_group_IT_number 20
_symmetry_cell_setting 'orthorhombic'
loop_
_space_group_symop_operation_xyz
x,y,z
-x,-y,1/2+z
x,-y,-z
-x,y,1/2-z
1/2+x,1/2+y,z
1/2-x,1/2-y,1/2+z
1/2+x,1/2-y,-z
1/2-x,1/2+y,1/2-z
loop_
_atom_site_type_symbol
_atom_site_label
_atom_site_fract_x
_atom_site_fract_y
_atom_site_fract_z
Si Si1 0.063013 0.194635 0.879538
Si Si2 0.815786 0.547513 0.354696
Si Si3 0.622582 0.154541 0.733311
Si Si4 0.966771 0.000000 0.000000
Si Si5 0.162638 0.245223 0.670877
Si Si6 0.694191 0.664033 0.084183
Si Si7 0.332752 0.497812 0.806297
Si Si8 0.495238 0.122240 0.956749
O O1 0.080828 0.202184 0.715916
O O2 0.141144 0.181399 0.956495
O O3 0.028922 0.306320 0.925519
O O4 0.018287 0.094979 0.944829
O O5 0.845872 0.500000 0.500000
O O6 0.832715 0.454888 0.242661
O O7 0.838645 0.656610 0.281691
O O8 0.731435 0.565405 0.381656
O O9 0.665895 0.252986 0.796567
O O10 0.554946 0.132474 0.836543
O O11 0.581647 0.172319 0.588950
O O12 0.909846 0.971347 0.875908
O O13 0.221935 0.301668 0.565855
O O14 0.190557 0.122085 0.678501
O O15 0.677220 0.548259 0.151870
O O16 0.483123 0.000000 0.000000
#
# Coordination Sequence:
#
# PCOD9317396 Si02
#       8
#     8   8   8   4   8   8   8   8
#     4  11  24  42  64  95 132 184 223 287 361 417
#     4  11  21  41  69  98 137 183 234 293 361 421
#     4  10  19  37  64  92 125 172 225 275 345 424
#     4  12  26  44  70  96 146 186 232 282 352 440
#     4  11  24  39  69 102 135 175 240 299 344 431
#     4  10  22  42  66  92 134 174 227 289 352 423
#     4  11  24  42  66 105 132 186 234 291 352 426
#     4  10  21  37  61  92 128 171 218 276 347 424
#
# _framework density 26.966968000000001
#
# number of rings (size 3 to 8) (size 9 to 14) (size 15 to 20)
#    0.000    1.333    2.000    4.400    0.000    4.267 
#    0.000    2.667    0.000    0.000    0.000    0.000 
#    0.000    0.000    0.000    0.000    0.000    0.000 
#
# Total GULP energy -167244.173327 kJ/mol
# GULP energy per Si atom -5574.805778 kJ/mol
# Density = 2.690559 g / cm^3
# Si number density = 26.966968 Si / 1000 Ang^3
#
#
#
# Elastic Constant Matrix: (Units=GPa)
#
#
# Indices 1 2 3 4 5 6 
#
# 1 146.2280 21.8770 26.9697 0.0000 0.0000 0.0000
# 2 21.8770 124.9815 3.3133 0.0000 0.0000 0.0000
# 3 26.9697 3.3133 51.9265 0.0000 0.0000 0.0000
# 4 0.0000 0.0000 0.0000 34.5635 0.0000 0.0000
# 5 0.0000 0.0000 0.0000 0.0000 44.4180 0.0000
# 6 0.0000 0.0000 0.0000 0.0000 0.0000 27.9331
#
#
#
# Elastic Compliance Matrix: (Units=1/GPa)
#
#
# Indices 1 2 3 4 5 6 
#
# 1 0.007754 -0.001253 -0.003947 0.000000 0.000000 0.000000
# 2 -0.001253 0.008217 0.000126 0.000000 0.000000 0.000000
# 3 -0.003947 0.000126 0.021300 0.000000 0.000000 0.000000
# 4 0.000000 0.000000 0.000000 0.028932 0.000000 0.000000
# 5 0.000000 0.000000 0.000000 0.000000 0.022513 0.000000
# 6 0.000000 0.000000 0.000000 0.000000 0.000000 0.035800
#
#
# Mechanical properties :
#
#
# Convention : Reuss Voigt Hill
#
# Bulk Modulus (GPa) = 36.86799 47.49512 42.18156
# Shear Modulus (GPa) = 34.79336 39.44798 37.12067
#
# Velocity S-wave (km/s) = 3.59586 3.82884 3.71418
# Velocity P-wave (km/s) = 5.56251 6.09896 5.83690
#
# Compressibility (1/GPa) = 0.02712380
#
# Stress axis : x y z
#
# Youngs Moduli (GPa) = 128.96425 121.69739 46.94808
#
# Poissons Ratio (x) = 0.15244 0.18532
# Poissons Ratio (y) = 0.16155 -0.00593
# Poissons Ratio (z) = 0.50907 -0.01537
#
# Static dielectric constant tensor:
#      x y z
#    x 2.256160 0.000000 0.000000 
#    y 0.000000 2.118390 0.000000 
#    z 0.000000 0.000000 2.266310 
# 
# From -- ./inp_files/16367.got.cif
#   From: 2010.05.17/outbox.cif.g08.bks.cpg/sg20_9_cif.got.tgz:16367.got - 2010.06.03 22:52:26.
