data_PCOD9317954
_publ_section_title
;
Structure prediction by ZEFSAII (Michael W. Deem and Ramdas Pophale) SiO2 
 PCOD9317954
Probable space group: C 2 2 21
;
_chemical_formula_sum "Si O2"
_cell_formula_units_Z 36
_cell_length_a 21.517281
_cell_length_b 10.360703
_cell_length_c 7.206515
_cell_angle_alpha 90.000000
_cell_angle_beta 90.000000
_cell_angle_gamma 90.000000
_cell_volume 1606.578352
_symmetry_space_group_name_H-M "C 2 2 21"
_symmetry_group_IT_number 20
_symmetry_cell_setting 'orthorhombic'
loop_
_space_group_symop_operation_xyz
x,y,z
-x,-y,1/2+z
x,-y,-z
-x,y,1/2-z
1/2+x,1/2+y,z
1/2-x,1/2-y,1/2+z
1/2+x,1/2-y,-z
1/2-x,1/2+y,1/2-z
loop_
_atom_site_type_symbol
_atom_site_label
_atom_site_fract_x
_atom_site_fract_y
_atom_site_fract_z
Si Si1 0.303395 0.841477 0.630922
Si Si2 0.000000 0.193610 0.250000
Si Si3 0.233717 0.063956 0.735019
Si Si4 0.095532 0.018972 0.776151
Si Si5 0.446532 0.798181 0.630634
O O1 0.270980 0.881185 0.439970
O O2 0.283727 0.693002 0.654353
O O3 0.433070 0.661744 0.737821
O O4 0.377638 0.856827 0.621727
O O5 0.973123 0.271501 0.424599
O O6 0.946046 0.093402 0.189731
O O7 0.164972 0.008129 0.702985
O O8 0.275153 0.938767 0.786296
O O9 0.097650 0.000000 0.000000
O O10 0.500000 0.867546 0.750000
#
# Coordination Sequence:
#
# PCOD9317954 Si02
#       5
#     8   4   8   8   8
#     4  10  24  42  64 100 134 172 228 273 335 410
#     4  10  20  36  66  96 132 170 220 284 344 380
#     4  10  23  42  67  92 139 172 218 282 327 399
#     4   9  19  35  59  98 130 166 224 282 333 390
#     4  10  21  39  61  94 133 173 223 280 331 401
#
# _framework density 22.407871
#
# number of rings (size 3 to 8) (size 9 to 14) (size 15 to 20)
#    0.000    2.222    1.111    0.000    9.333    7.111 
#    0.000    0.000    9.778    0.000    0.000    0.000 
#    0.000    0.000    0.000    0.000    0.000    0.000 
#
# Total GULP energy -100375.263985 kJ/mol
# GULP energy per Si atom -5576.403555 kJ/mol
# Density = 2.235687 g / cm^3
# Si number density = 22.407871 Si / 1000 Ang^3
#
#
#
# Elastic Constant Matrix: (Units=GPa)
#
#
# Indices 1 2 3 4 5 6 
#
# 1 233.6406 52.5038 45.3702 0.0000 0.0000 0.0000
# 2 52.5038 70.8364 14.6823 0.0000 0.0000 0.0000
# 3 45.3702 14.6823 58.7797 0.0000 0.0000 0.0000
# 4 0.0000 0.0000 0.0000 30.0304 0.0000 0.0000
# 5 0.0000 0.0000 0.0000 0.0000 28.7661 0.0000
# 6 0.0000 0.0000 0.0000 0.0000 0.0000 29.1706
#
#
#
# Elastic Compliance Matrix: (Units=1/GPa)
#
#
# Indices 1 2 3 4 5 6 
#
# 1 0.005768 -0.003535 -0.003569 0.000000 0.000000 0.000000
# 2 -0.003535 0.017055 -0.001531 0.000000 0.000000 0.000000
# 3 -0.003569 -0.001531 0.020150 0.000000 0.000000 0.000000
# 4 0.000000 0.000000 0.000000 0.033300 0.000000 0.000000
# 5 0.000000 0.000000 0.000000 0.000000 0.034763 0.000000
# 6 0.000000 0.000000 0.000000 0.000000 0.000000 0.034281
#
#
# Mechanical properties :
#
#
# Convention : Reuss Voigt Hill
#
# Bulk Modulus (GPa) = 38.90820 65.37438 52.14129
# Shear Modulus (GPa) = 29.21357 34.30679 31.76018
#
# Velocity S-wave (km/s) = 3.61462 3.91706 3.76888
# Velocity P-wave (km/s) = 5.90102 7.04953 6.50069
#
# Compressibility (1/GPa) = 0.02570152
#
# Stress axis : x y z
#
# Youngs Moduli (GPa) = 173.38518 58.63490 49.62842
#
# Poissons Ratio (x) = 0.20728 0.17711
# Poissons Ratio (y) = 0.61295 0.07600
# Poissons Ratio (z) = 0.61876 0.08979
#
# Static dielectric constant tensor:
#      x y z
#    x 1.809120 0.000000 0.000000 
#    y 0.000000 1.924730 0.000000 
#    z 0.000000 0.000000 1.876300 
# 
# From -- ./inp_files/8052.got.cif
#   From: 2010.05.17/outbox.cif.g08.bks.cpg/sg20_5_cif.got.tgz:8052.got - 2010.06.03 22:52:26.
