data_PCOD9317262
_publ_section_title
;
Structure prediction by ZEFSAII (Michael W. Deem and Ramdas Pophale) SiO2 
 PCOD9317262
Probable space group: C 2 2 21
;
_chemical_formula_sum "Si O2"
_cell_formula_units_Z 56
_cell_length_a 10.377427
_cell_length_b 12.488839
_cell_length_c 16.749983
_cell_angle_alpha 90.000000
_cell_angle_beta 90.000000
_cell_angle_gamma 90.000000
_cell_volume 2170.831549
_symmetry_space_group_name_H-M "C 2 2 21"
_symmetry_group_IT_number 20
_symmetry_cell_setting 'orthorhombic'
loop_
_space_group_symop_operation_xyz
x,y,z
-x,-y,1/2+z
x,-y,-z
-x,y,1/2-z
1/2+x,1/2+y,z
1/2-x,1/2-y,1/2+z
1/2+x,1/2-y,-z
1/2-x,1/2+y,1/2-z
loop_
_atom_site_type_symbol
_atom_site_label
_atom_site_fract_x
_atom_site_fract_y
_atom_site_fract_z
Si Si1 0.453858 0.383780 0.125978
Si Si2 0.704521 0.974923 0.225398
Si Si3 0.251187 0.331512 0.007836
Si Si4 0.051090 0.673979 0.860597
Si Si5 0.144647 0.614526 0.511256
Si Si6 0.569400 0.150720 0.125524
Si Si7 0.095025 0.917761 0.826607
O O1 0.336993 0.425453 0.184062
O O2 0.388904 0.366211 0.039774
O O3 0.522891 0.270774 0.150628
O O4 0.550810 0.481148 0.122525
O O5 0.617277 0.867703 0.221407
O O6 0.599421 0.057767 0.187601
O O7 0.763287 0.047870 0.295976
O O8 0.149252 0.373928 0.071817
O O9 0.253875 0.204240 0.009453
O O10 0.207957 0.354590 0.919355
O O11 0.916610 0.639730 0.901595
O O12 0.070720 0.800941 0.861719
O O13 0.203199 0.500000 0.500000
O O14 0.033553 0.620482 0.442930
O O15 0.000000 0.914791 0.750000
#
# Coordination Sequence:
#
# PCOD9317262 Si02
#       7
#     8   8   8   8   8   8   8
#     4   9  21  39  59  91 125 157 215 260 314 389
#     4  10  21  39  65  85 122 170 209 259 324 380
#     4   9  21  36  60  91 118 160 196 256 330 377
#     4  10  21  39  59  89 120 156 210 256 316 392
#     4  10  19  36  57  87 127 151 197 255 318 388
#     4  10  20  38  61  93 117 165 207 257 321 386
#     4  10  23  40  60  88 121 166 213 265 310 381
#
# _framework density 25.796565000000001
#
# number of rings (size 3 to 8) (size 9 to 14) (size 15 to 20)
#    0.000    2.286    1.429    0.000    6.000    1.143 
#    5.143    1.429    0.000    0.000    0.000    0.000 
#    0.000    0.000    0.000    0.000    0.000    0.000 
#
# Total GULP energy -156109.126890 kJ/mol
# GULP energy per Si atom -5575.325960 kJ/mol
# Density = 2.573785 g / cm^3
# Si number density = 25.796565 Si / 1000 Ang^3
#
#
#
# Elastic Constant Matrix: (Units=GPa)
#
#
# Indices 1 2 3 4 5 6 
#
# 1 48.4284 4.2713 27.6040 0.0000 0.0000 0.0000
# 2 4.2713 142.7331 17.5115 0.0000 0.0000 0.0000
# 3 27.6040 17.5115 55.1966 0.0000 0.0000 0.0000
# 4 0.0000 0.0000 0.0000-3021.9848 0.0000 0.0000
# 5 0.0000 0.0000 0.0000 0.0000 47.6182 0.0000
# 6 0.0000 0.0000 0.0000 0.0000 0.0000 80.6590
#
#
#
# Elastic Compliance Matrix: (Units=1/GPa)
#
#
# Indices 1 2 3 4 5 6 
#
# 1 0.029005 0.000949 -0.014806 0.000000 0.000000 0.000000
# 2 0.000949 0.007321 -0.002797 0.000000 0.000000 0.000000
# 3 -0.014806 -0.002797 0.026409 0.000000 0.000000 0.000000
# 4 0.000000 0.000000 0.000000 -0.000331 0.000000 0.000000
# 5 0.000000 0.000000 0.000000 0.000000 0.021000 0.000000
# 6 0.000000 0.000000 0.000000 0.000000 0.000000 0.012398
#
#
# Mechanical properties :
#
#
# Convention : Reuss Voigt Hill
#
# Bulk Modulus (GPa) = 33.98434 38.34798 36.16616
# Shear Modulus (GPa) = 35.99179 -565.61013 -264.80917
#
# Velocity S-wave (km/s) = 3.73931 -14.82342 -10.14277
# Velocity P-wave (km/s) = 5.64321 16.67575 11.09583
#
# Compressibility (1/GPa) = 0.02942532
#
# Stress axis : x y z
#
# Youngs Moduli (GPa) = 34.47680 136.59614 37.86563
#
# Poissons Ratio (x) = -0.12957 0.56066
# Poissons Ratio (y) = -0.03270 0.10591
# Poissons Ratio (z) = 0.51048 0.38206
#
# Static dielectric constant tensor:
#      x y z
#    x 3.522400 0.000000 0.000000 
#    y 0.000000 2.090320 0.000000 
#    z 0.000000 0.000000 2.123730 
# 
# From -- ./inp_files/27170.got.cif
#   From: 2010.05.17/outbox.cif.g08.bks.cpg/sg20_14_cif.got.tgz:27170.got - 2010.06.03 22:52:26.
