data_PCOD9317446
_publ_section_title
;
Structure prediction by ZEFSAII (Michael W. Deem and Ramdas Pophale) SiO2 
 PCOD9317446
Probable space group: C 2 2 21
;
_chemical_formula_sum "Si O2"
_cell_formula_units_Z 64
_cell_length_a 18.153292
_cell_length_b 14.919721
_cell_length_c 11.976524
_cell_angle_alpha 90.000000
_cell_angle_beta 90.000000
_cell_angle_gamma 90.000000
_cell_volume 3243.746334
_symmetry_space_group_name_H-M "C 2 2 21"
_symmetry_group_IT_number 20
_symmetry_cell_setting 'orthorhombic'
loop_
_space_group_symop_operation_xyz
x,y,z
-x,-y,1/2+z
x,-y,-z
-x,y,1/2-z
1/2+x,1/2+y,z
1/2-x,1/2-y,1/2+z
1/2+x,1/2-y,-z
1/2-x,1/2+y,1/2-z
loop_
_atom_site_type_symbol
_atom_site_label
_atom_site_fract_x
_atom_site_fract_y
_atom_site_fract_z
Si Si1 0.715203 0.938901 0.108237
Si Si2 0.283155 0.250595 0.154770
Si Si3 0.084124 0.623624 0.738688
Si Si4 0.363227 0.683958 0.272395
Si Si5 0.077654 0.840135 0.235425
Si Si6 0.854076 0.103933 0.519288
Si Si7 0.188511 0.603998 0.531777
Si Si8 0.628049 0.490249 0.634610
O O1 0.745265 0.836249 0.090855
O O2 0.642496 0.929118 0.183006
O O3 0.786325 0.986749 0.163865
O O4 0.700230 0.000000 0.000000
O O5 0.221549 0.216322 0.242071
O O6 0.354601 0.285466 0.216675
O O7 0.309111 0.172485 0.071576
O O8 0.087088 0.728247 0.771350
O O9 0.123027 0.622341 0.617551
O O10 0.000000 0.591370 0.750000
O O11 0.359886 0.646862 0.398046
O O12 0.386042 0.608180 0.184189
O O13 0.088901 0.857484 0.105662
O O14 0.000000 0.793699 0.250000
O O15 0.080218 0.934794 0.302457
O O16 0.772875 0.114381 0.574759
O O17 0.866819 0.000000 0.500000
O O18 0.182483 0.500000 0.500000
O O19 0.620778 0.500000 0.500000
#
# Coordination Sequence:
#
# PCOD9317446 Si02
#       8
#     8   8   8   8   8   8   8   8
#     4   9  20  39  65  92 119 157 211 262 308 356
#     4   9  21  40  64  96 118 159 217 261 313 364
#     4  11  25  40  57  91 133 166 207 253 316 388
#     4  10  21  39  66  91 122 166 215 271 309 358
#     4  11  23  39  58  91 136 167 197 249 317 395
#     4  10  19  38  63  91 120 158 218 262 304 367
#     4  10  22  40  68  88 117 164 216 270 305 361
#     4  10  21  38  66  95 120 163 216 264 315 364
#
# _framework density 19.730273
#
# number of rings (size 3 to 8) (size 9 to 14) (size 15 to 20)
#    0.000    2.000    1.250    2.250    8.750    2.500 
#    4.500    0.625    0.000    0.000    0.000    0.000 
#    0.000    0.000    0.000    0.000    0.000    0.000 
#
# Total GULP energy -178511.291824 kJ/mol
# GULP energy per Si atom -5578.477869 kJ/mol
# Density = 1.968537 g / cm^3
# Si number density = 19.730273 Si / 1000 Ang^3
#
#
#
# Elastic Constant Matrix: (Units=GPa)
#
#
# Indices 1 2 3 4 5 6 
#
# 1 80.1525 -9.5597 31.3679 0.0000 0.0000 0.0000
# 2 -9.5597 52.4728 13.0781 0.0000 0.0000 0.0000
# 3 31.3679 13.0781 72.5634 0.0000 0.0000 0.0000
# 4 0.0000 0.0000 0.0000 31.3332 0.0000 0.0000
# 5 0.0000 0.0000 0.0000 0.0000 141.3976 0.0000
# 6 0.0000 0.0000 0.0000 0.0000 0.0000 17.8310
#
#
#
# Elastic Compliance Matrix: (Units=1/GPa)
#
#
# Indices 1 2 3 4 5 6 
#
# 1 0.016136 0.004898 -0.007858 0.000000 0.000000 0.000000
# 2 0.004898 0.021441 -0.005982 0.000000 0.000000 0.000000
# 3 -0.007858 -0.005982 0.018256 0.000000 0.000000 0.000000
# 4 0.000000 0.000000 0.000000 0.031915 0.000000 0.000000
# 5 0.000000 0.000000 0.000000 0.000000 0.007072 0.000000
# 6 0.000000 0.000000 0.000000 0.000000 0.000000 0.056082
#
#
# Mechanical properties :
#
#
# Convention : Reuss Voigt Hill
#
# Bulk Modulus (GPa) = 26.35089 30.55127 28.45108
# Shear Modulus (GPa) = 27.55815 49.46584 38.51199
#
# Velocity S-wave (km/s) = 3.74136 5.01253 4.42285
# Velocity P-wave (km/s) = 5.66112 7.00134 6.36659
#
# Compressibility (1/GPa) = 0.03794938
#
# Stress axis : x y z
#
# Youngs Moduli (GPa) = 61.97456 46.64033 54.77652
#
# Poissons Ratio (x) = -0.22845 0.43043
# Poissons Ratio (y) = -0.30356 0.32765
# Poissons Ratio (z) = 0.48699 0.27899
#
# Static dielectric constant tensor:
#      x y z
#    x 1.705020 0.000000 0.000000 
#    y 0.000000 1.642610 0.000000 
#    z 0.000000 0.000000 1.681900 
# 
# From -- ./inp_files/15905.got.cif
#   From: 2010.05.17/outbox.cif.g08.bks.cpg/sg20_8_cif.got.tgz:15905.got - 2010.06.03 22:52:26.
