data_PCOD9317784
_publ_section_title
;
Structure prediction by ZEFSAII (Michael W. Deem and Ramdas Pophale) SiO2 
 PCOD9317784
Probable space group: C 2 2 21
;
_chemical_formula_sum "Si O2"
_cell_formula_units_Z 56
_cell_length_a 14.192515
_cell_length_b 19.794879
_cell_length_c 9.632361
_cell_angle_alpha 90.000000
_cell_angle_beta 90.000000
_cell_angle_gamma 90.000000
_cell_volume 2706.106995
_symmetry_space_group_name_H-M "C 2 2 21"
_symmetry_group_IT_number 20
_symmetry_cell_setting 'orthorhombic'
loop_
_space_group_symop_operation_xyz
x,y,z
-x,-y,1/2+z
x,-y,-z
-x,y,1/2-z
1/2+x,1/2+y,z
1/2-x,1/2-y,1/2+z
1/2+x,1/2-y,-z
1/2-x,1/2+y,1/2-z
loop_
_atom_site_type_symbol
_atom_site_label
_atom_site_fract_x
_atom_site_fract_y
_atom_site_fract_z
Si Si1 0.547686 0.439830 0.598260
Si Si2 0.262591 0.063965 0.428094
Si Si3 0.229576 0.676367 0.837963
Si Si4 0.104504 0.598580 0.618851
Si Si5 0.558370 0.686942 0.613443
Si Si6 0.398573 0.941986 0.807146
Si Si7 0.533493 0.781805 0.102744
O O1 0.507796 0.500000 0.500000
O O2 0.500000 0.433535 0.750000
O O3 0.658340 0.456341 0.621468
O O4 0.549758 0.373186 0.500987
O O5 0.259145 0.118486 0.547499
O O6 0.322339 0.085813 0.298486
O O7 0.311187 0.000000 0.500000
O O8 0.182287 0.643980 0.699493
O O9 0.335599 0.703509 0.833764
O O10 0.145992 0.723303 0.895848
O O11 0.125754 0.584271 0.458975
O O12 0.101282 0.524293 0.687131
O O13 0.006331 0.641130 0.611446
O O14 0.500000 0.668282 0.750000
O O15 0.513858 0.749329 0.530526
O O16 0.500000 0.920902 0.750000
O O17 0.500000 0.750284 0.250000
#
# Coordination Sequence:
#
# PCOD9317784 Si02
#       7
#     8   8   8   8   8   8   8
#     4  10  22  43  66  92 122 161 207 262 321 372
#     4  10  20  35  60  90 123 162 203 246 315 384
#     4  10  21  41  64  86 127 165 209 266 320 375
#     4  10  22  37  58  92 126 171 212 261 318 378
#     4  11  25  42  66  94 122 165 215 268 321 384
#     4  11  21  33  58  93 132 168 209 253 316 385
#     4  10  22  41  61  87 125 169 213 258 317 383
#
# _framework density 20.693933000000001
#
# number of rings (size 3 to 8) (size 9 to 14) (size 15 to 20)
#    0.000    1.714    1.429    3.000    2.000    5.143 
#    2.571    2.857    0.000    0.000    0.000    0.000 
#    0.000    0.000    0.000    0.000    0.000    0.000 
#
# Total GULP energy -156153.346546 kJ/mol
# GULP energy per Si atom -5576.905234 kJ/mol
# Density = 2.064683 g / cm^3
# Si number density = 20.693933 Si / 1000 Ang^3
#
#
#
# Elastic Constant Matrix: (Units=GPa)
#
#
# Indices 1 2 3 4 5 6 
#
# 1 133.7982 8.2933 54.0278 0.0000 0.0000 0.0000
# 2 8.2933 32.4455 6.7652 0.0000 0.0000 0.0000
# 3 54.0278 6.7652 121.1502 0.0000 0.0000 0.0000
# 4 0.0000 0.0000 0.0000 27.8954 0.0000 0.0000
# 5 0.0000 0.0000 0.0000 0.0000 22.9447 0.0000
# 6 0.0000 0.0000 0.0000 0.0000 0.0000 5.6114
#
#
#
# Elastic Compliance Matrix: (Units=1/GPa)
#
#
# Indices 1 2 3 4 5 6 
#
# 1 0.009188 -0.001512 -0.004013 0.000000 0.000000 0.000000
# 2 -0.001512 0.031433 -0.001081 0.000000 0.000000 0.000000
# 3 -0.004013 -0.001081 0.010104 0.000000 0.000000 0.000000
# 4 0.000000 0.000000 0.000000 0.035848 0.000000 0.000000
# 5 0.000000 0.000000 0.000000 0.000000 0.043583 0.000000
# 6 0.000000 0.000000 0.000000 0.000000 0.000000 0.178209
#
#
# Mechanical properties :
#
#
# Convention : Reuss Voigt Hill
#
# Bulk Modulus (GPa) = 26.65724 47.28517 36.97121
# Shear Modulus (GPa) = 14.96640 25.84413 20.40527
#
# Velocity S-wave (km/s) = 2.69220 3.53778 3.14355
# Velocity P-wave (km/s) = 4.75117 6.29184 5.57498
#
# Compressibility (1/GPa) = 0.03751326
#
# Stress axis : x y z
#
# Youngs Moduli (GPa) = 108.83591 31.81397 98.96817
#
# Poissons Ratio (x) = 0.04810 0.39717
# Poissons Ratio (y) = 0.16454 0.10699
# Poissons Ratio (z) = 0.43677 0.03439
#
# Static dielectric constant tensor:
#      x y z
#    x 1.766360 0.000000 0.000000 
#    y 0.000000 1.794260 0.000000 
#    z 0.000000 0.000000 1.779730 
# 
# From -- ./inp_files/8742.got.cif
#   From: 2010.05.17/outbox.cif.g08.bks.cpg/sg20_5_cif.got.tgz:8742.got - 2010.06.03 22:52:26.
