data_PCOD9317893
_publ_section_title
;
Structure prediction by ZEFSAII (Michael W. Deem and Ramdas Pophale) SiO2 
 PCOD9317893
Probable space group: C 2 2 21
;
_chemical_formula_sum "Si O2"
_cell_formula_units_Z 60
_cell_length_a 25.501870
_cell_length_b 8.254207
_cell_length_c 13.714682
_cell_angle_alpha 90.000000
_cell_angle_beta 90.000000
_cell_angle_gamma 90.000000
_cell_volume 2886.909207
_symmetry_space_group_name_H-M "C 2 2 21"
_symmetry_group_IT_number 20
_symmetry_cell_setting 'orthorhombic'
loop_
_space_group_symop_operation_xyz
x,y,z
-x,-y,1/2+z
x,-y,-z
-x,y,1/2-z
1/2+x,1/2+y,z
1/2-x,1/2-y,1/2+z
1/2+x,1/2-y,-z
1/2-x,1/2+y,1/2-z
loop_
_atom_site_type_symbol
_atom_site_label
_atom_site_fract_x
_atom_site_fract_y
_atom_site_fract_z
Si Si1 0.083590 0.919930 0.897651
Si Si2 0.670267 0.609085 0.415623
Si Si3 0.231835 0.183618 0.853478
Si Si4 0.265562 0.178013 0.153604
Si Si5 0.098623 0.887113 0.286672
Si Si6 0.875245 0.660036 0.054365
Si Si7 0.675470 0.180476 0.959867
Si Si8 0.000000 0.074264 0.250000
O O1 0.127021 0.782796 0.917266
O O2 0.103309 0.069965 0.828146
O O3 0.036767 0.844239 0.831499
O O4 0.067713 0.000000 0.000000
O O5 0.697021 0.500000 0.500000
O O6 0.710973 0.734126 0.370089
O O7 0.644020 0.492936 0.337426
O O8 0.623756 0.699516 0.473351
O O9 0.210742 0.268702 0.756567
O O10 0.237242 0.993579 0.838152
O O11 0.198693 0.221075 0.948701
O O12 0.312963 0.149977 0.078717
O O13 0.222708 0.309740 0.119335
O O14 0.100108 0.716296 0.343260
O O15 0.041547 0.963379 0.307910
O O16 0.893766 0.500000 0.000000
O O17 0.664186 0.000000 0.000000
#
# Coordination Sequence:
#
# PCOD9317893 Si02
#       8
#     8   8   8   8   8   8   8   4
#     4  10  22  44  73  99 137 175 241 298 361 425
#     4  10  20  36  60  88 131 172 225 281 343 415
#     4  12  24  37  58  92 139 187 239 279 340 428
#     4  12  25  38  59  92 147 191 239 279 344 431
#     4   9  22  40  71 100 130 174 241 292 360 417
#     4  11  21  39  62  99 137 184 227 287 354 428
#     4  12  25  41  63 100 145 194 235 291 361 431
#     4   8  22  46  72 104 124 172 248 300 358 438
#
# _framework density 20.783473000000001
#
# number of rings (size 3 to 8) (size 9 to 14) (size 15 to 20)
#    0.800    0.533    2.667    3.200    9.333    1.600 
#    0.000    0.000    0.000    4.800    0.000    0.000 
#    0.000    0.000    0.000    0.000    0.000    0.000 
#
# Total GULP energy -167322.503815 kJ/mol
# GULP energy per Si atom -5577.416794 kJ/mol
# Density = 2.073617 g / cm^3
# Si number density = 20.783473 Si / 1000 Ang^3
#
#
#
# Elastic Constant Matrix: (Units=GPa)
#
#
# Indices 1 2 3 4 5 6 
#
# 1 81.4637 10.0989 24.7446 0.0000 0.0000 0.0000
# 2 10.0989 95.6594 31.3919 0.0000 0.0000 0.0000
# 3 24.7446 31.3919 130.7294 0.0000 0.0000 0.0000
# 4 0.0000 0.0000 0.0000 37.8030 0.0000 0.0000
# 5 0.0000 0.0000 0.0000 0.0000 35.4431 0.0000
# 6 0.0000 0.0000 0.0000 0.0000 0.0000 14.8277
#
#
#
# Elastic Compliance Matrix: (Units=1/GPa)
#
#
# Indices 1 2 3 4 5 6 
#
# 1 0.013058 -0.000616 -0.002324 0.000000 0.000000 0.000000
# 2 -0.000616 0.011377 -0.002615 0.000000 0.000000 0.000000
# 3 -0.002324 -0.002615 0.008717 0.000000 0.000000 0.000000
# 4 0.000000 0.000000 0.000000 0.026453 0.000000 0.000000
# 5 0.000000 0.000000 0.000000 0.000000 0.028214 0.000000
# 6 0.000000 0.000000 0.000000 0.000000 0.000000 0.067441
#
#
# Mechanical properties :
#
#
# Convention : Reuss Voigt Hill
#
# Bulk Modulus (GPa) = 45.36814 48.92481 47.14647
# Shear Modulus (GPa) = 28.78238 33.72258 31.25248
#
# Velocity S-wave (km/s) = 3.72542 4.03248 3.88199
# Velocity P-wave (km/s) = 6.35463 6.72849 6.54423
#
# Compressibility (1/GPa) = 0.02204190
#
# Stress axis : x y z
#
# Youngs Moduli (GPa) = 76.58396 87.89626 114.71536
#
# Poissons Ratio (x) = 0.05414 0.26656
# Poissons Ratio (y) = 0.04717 0.30002
# Poissons Ratio (z) = 0.17795 0.22988
#
# Static dielectric constant tensor:
#      x y z
#    x 1.786100 0.000000 0.000000 
#    y 0.000000 1.783780 0.000000 
#    z 0.000000 0.000000 1.806490 
# 
# From -- ./inp_files/22215.got.cif
#   From: 2010.05.17/outbox.cif.g08.bks.cpg/sg20_12_cif.got.tgz:22215.got - 2010.06.03 22:52:26.
