data_PCOD9317392
_publ_section_title
;
Structure prediction by ZEFSAII (Michael W. Deem and Ramdas Pophale) SiO2 
 PCOD9317392
Probable space group: C 2 2 21
;
_chemical_formula_sum "Si O2"
_cell_formula_units_Z 48
_cell_length_a 22.983201
_cell_length_b 9.498099
_cell_length_c 9.683460
_cell_angle_alpha 90.000000
_cell_angle_beta 90.000000
_cell_angle_gamma 90.000000
_cell_volume 2113.867541
_symmetry_space_group_name_H-M "C 2 2 21"
_symmetry_group_IT_number 20
_symmetry_cell_setting 'orthorhombic'
loop_
_space_group_symop_operation_xyz
x,y,z
-x,-y,1/2+z
x,-y,-z
-x,y,1/2-z
1/2+x,1/2+y,z
1/2-x,1/2-y,1/2+z
1/2+x,1/2-y,-z
1/2-x,1/2+y,1/2-z
loop_
_atom_site_type_symbol
_atom_site_label
_atom_site_fract_x
_atom_site_fract_y
_atom_site_fract_z
Si Si1 0.894936 0.143315 0.776884
Si Si2 0.000000 0.984814 0.750000
Si Si3 0.087328 0.500000 0.000000
Si Si4 0.271003 0.576903 0.853226
Si Si5 0.923775 0.801029 0.544645
Si Si6 0.323654 0.121046 0.280649
Si Si7 0.206538 0.167363 0.027462
O O1 0.837622 0.052712 0.809378
O O2 0.869218 0.296111 0.818306
O O3 0.953969 0.080567 0.835511
O O4 0.856688 0.806269 0.596221
O O5 0.964102 0.888722 0.644381
O O6 0.053841 0.641648 0.965448
O O7 0.130772 0.463050 0.876311
O O8 0.225638 0.495372 0.754489
O O9 0.252919 0.740225 0.884461
O O10 0.263111 0.500000 0.000000
O O11 0.912949 0.850562 0.386023
O O12 0.297823 0.246851 0.380757
O O13 0.213190 0.000000 0.000000
#
# Coordination Sequence:
#
# PCOD9317392 Si02
#       7
#     8   4   4   8   8   8   8
#     4  10  23  36  62  94 123 172 219 266 332 389
#     4  12  24  40  58  94 120 174 228 282 316 376
#     4   8  14  36  62  86 122 168 204 254 324 406
#     4  10  19  37  63  96 139 172 205 265 336 402
#     4  10  20  39  65  87 129 166 219 270 324 392
#     4   9  16  35  58  91 129 167 198 256 328 389
#     4   9  16  31  62  96 130 165 205 261 320 395
#
# _framework density 22.707194999999999
#
# number of rings (size 3 to 8) (size 9 to 14) (size 15 to 20)
#    0.000    2.667    4.167    2.500    0.000    5.333 
#    0.000    3.333    3.667    0.000   10.833    0.000 
#    0.000    0.000    0.000    0.000    0.000    0.000 
#
# Total GULP energy -133624.445892 kJ/mol
# GULP energy per Si atom -5567.685246 kJ/mol
# Density = 2.265551 g / cm^3
# Si number density = 22.707195 Si / 1000 Ang^3
#
#
#
# Elastic Constant Matrix: (Units=GPa)
#
#
# Indices 1 2 3 4 5 6 
#
# 1 144.3762 47.9250 12.4582 0.0000 0.0000 0.0000
# 2 47.9250 181.5384 12.7900 0.0000 0.0000 0.0000
# 3 12.4582 12.7900 38.0711 0.0000 0.0000 0.0000
# 4 0.0000 0.0000 0.0000 20.8130 0.0000 0.0000
# 5 0.0000 0.0000 0.0000 0.0000 35.2720 0.0000
# 6 0.0000 0.0000 0.0000 0.0000 0.0000 34.8313
#
#
#
# Elastic Compliance Matrix: (Units=1/GPa)
#
#
# Indices 1 2 3 4 5 6 
#
# 1 0.007722 -0.001906 -0.001887 0.000000 0.000000 0.000000
# 2 -0.001906 0.006112 -0.001430 0.000000 0.000000 0.000000
# 3 -0.001887 -0.001430 0.027364 0.000000 0.000000 0.000000
# 4 0.000000 0.000000 0.000000 0.048047 0.000000 0.000000
# 5 0.000000 0.000000 0.000000 0.000000 0.028351 0.000000
# 6 0.000000 0.000000 0.000000 0.000000 0.000000 0.028710
#
#
# Mechanical properties :
#
#
# Convention : Reuss Voigt Hill
#
# Bulk Modulus (GPa) = 32.51587 56.70359 44.60973
# Shear Modulus (GPa) = 29.93982 37.57075 33.75529
#
# Velocity S-wave (km/s) = 3.63508 4.07206 3.85976
# Velocity P-wave (km/s) = 5.65412 6.86547 6.28903
#
# Compressibility (1/GPa) = 0.03075421
#
# Stress axis : x y z
#
# Youngs Moduli (GPa) = 129.50538 163.60529 36.54390
#
# Poissons Ratio (x) = 0.31176 0.06895
# Poissons Ratio (y) = 0.24678 0.05225
# Poissons Ratio (z) = 0.24433 0.23393
#
# Static dielectric constant tensor:
#      x y z
#    x 1.895780 0.000000 0.000000 
#    y 0.000000 1.967500 0.000000 
#    z 0.000000 0.000000 2.062230 
# 
# From -- ./inp_files/19279.got.cif
#   From: 2010.05.17/outbox.cif.g08.bks.cpg/sg20_10_cif.got.tgz:19279.got - 2010.06.03 22:52:26.
