data_PCOD9317062
_publ_section_title
;
Structure prediction by ZEFSAII (Michael W. Deem and Ramdas Pophale) SiO2 
 PCOD9317062
Probable space group: C 2 2 21
;
_chemical_formula_sum "Si O2"
_cell_formula_units_Z 48
_cell_length_a 8.692211
_cell_length_b 16.479371
_cell_length_c 18.400322
_cell_angle_alpha 90.000000
_cell_angle_beta 90.000000
_cell_angle_gamma 90.000000
_cell_volume 2635.702050
_symmetry_space_group_name_H-M "C 2 2 21"
_symmetry_group_IT_number 20
_symmetry_cell_setting 'orthorhombic'
loop_
_space_group_symop_operation_xyz
x,y,z
-x,-y,1/2+z
x,-y,-z
-x,y,1/2-z
1/2+x,1/2+y,z
1/2-x,1/2-y,1/2+z
1/2+x,1/2-y,-z
1/2-x,1/2+y,1/2-z
loop_
_atom_site_type_symbol
_atom_site_label
_atom_site_fract_x
_atom_site_fract_y
_atom_site_fract_z
Si Si1 0.512935 0.587006 0.663870
Si Si2 0.158380 0.757810 0.583925
Si Si3 0.980499 0.907924 0.836527
Si Si4 0.679368 0.915963 0.410063
Si Si5 0.189035 0.592207 0.415333
Si Si6 0.526920 0.258234 0.423224
O O1 0.500000 0.598095 0.750000
O O2 0.585263 0.498545 0.647983
O O3 0.340929 0.581728 0.631541
O O4 0.581563 0.666171 0.625605
O O5 0.098788 0.668868 0.610294
O O6 0.342259 0.748483 0.577331
O O7 0.084771 0.772787 0.505075
O O8 0.117616 0.832963 0.634563
O O9 0.146003 0.903064 0.876459
O O10 0.000000 0.902723 0.750000
O O11 0.708888 0.908596 0.496946
O O12 0.610310 0.005402 0.396971
O O13 0.094371 0.672459 0.397087
#
# Coordination Sequence:
#
# PCOD9317062 Si02
#       6
#     8   8   8   8   8   8
#     4   9  18  32  50  72  99 135 172 202 243 304
#     4  10  19  34  53  77 100 129 167 208 252 298
#     4  10  20  34  52  74 101 133 170 209 249 297
#     4   8  16  31  51  69  97 135 165 199 256 313
#     4   9  17  33  53  71  96 135 170 203 252 306
#     4  10  20  34  54  77 103 133 169 211 253 302
#
# _framework density 18.211466999999999
#
# number of rings (size 3 to 8) (size 9 to 14) (size 15 to 20)
#    0.000    2.667    0.000    3.000    0.000    4.667 
#    0.000    8.333    0.000    1.000    0.000    0.000 
#    0.000    0.000    0.000    0.000    0.000    0.000 
#
# Total GULP energy -133612.131431 kJ/mol
# GULP energy per Si atom -5567.172143 kJ/mol
# Density = 1.817002 g / cm^3
# Si number density = 18.211467 Si / 1000 Ang^3
#
#
#
# Elastic Constant Matrix: (Units=GPa)
#
#
# Indices 1 2 3 4 5 6 
#
# 1 34.9598 34.2192 10.7966 0.0000 0.0000 0.0000
# 2 34.2192 212.9874 62.9810 0.0000 0.0000 0.0000
# 3 10.7966 62.9810 39.2676 0.0000 0.0000 0.0000
# 4 0.0000 0.0000 0.0000 -17.5393 0.0000 0.0000
# 5 0.0000 0.0000 0.0000 0.0000 5.9231 0.0000
# 6 0.0000 0.0000 0.0000 0.0000 0.0000 23.9617
#
#
#
# Elastic Compliance Matrix: (Units=1/GPa)
#
#
# Indices 1 2 3 4 5 6 
#
# 1 0.033968 -0.005128 -0.001115 0.000000 0.000000 0.000000
# 2 -0.005128 0.009705 -0.014156 0.000000 0.000000 0.000000
# 3 -0.001115 -0.014156 0.048477 0.000000 0.000000 0.000000
# 4 0.000000 0.000000 0.000000 -0.057015 0.000000 0.000000
# 5 0.000000 0.000000 0.000000 0.000000 0.168830 0.000000
# 6 0.000000 0.000000 0.000000 0.000000 0.000000 0.041733
#
#
# Mechanical properties :
#
#
# Convention : Reuss Voigt Hill
#
# Bulk Modulus (GPa) = 19.47329 55.91205 37.69267
# Shear Modulus (GPa) = 16.46835 14.41697 15.44266
#
# Velocity S-wave (km/s) = 3.01040 2.81667 2.91514
# Velocity P-wave (km/s) = 4.77487 6.43011 5.66329
#
# Compressibility (1/GPa) = 0.05135239
#
# Stress axis : x y z
#
# Youngs Moduli (GPa) = 29.43983 103.04221 20.62835
#
# Poissons Ratio (x) = 0.52835 0.02301
# Poissons Ratio (y) = 0.15095 0.29201
# Poissons Ratio (z) = 0.03284 1.45862
#
# Static dielectric constant tensor:
#      x y z
#    x 1.606190 0.000000 0.000000 
#    y 0.000000 1.719920 0.000000 
#    z 0.000000 0.000000 1.599140 
# 
# From -- ./inp_files/23594.got.cif
#   From: 2010.05.17/outbox.cif.g08.bks.cpg/sg20_12_cif.got.tgz:23594.got - 2010.06.03 22:52:26.
