data_PCOD9317973
_publ_section_title
;
Structure prediction by ZEFSAII (Michael W. Deem and Ramdas Pophale) SiO2 
 PCOD9317973
Probable space group: C 2 2 21
;
_chemical_formula_sum "Si O2"
_cell_formula_units_Z 52
_cell_length_a 19.257562
_cell_length_b 21.786807
_cell_length_c 5.436303
_cell_angle_alpha 90.000000
_cell_angle_beta 90.000000
_cell_angle_gamma 90.000000
_cell_volume 2280.859563
_symmetry_space_group_name_H-M "C 2 2 21"
_symmetry_group_IT_number 20
_symmetry_cell_setting 'orthorhombic'
loop_
_space_group_symop_operation_xyz
x,y,z
-x,-y,1/2+z
x,-y,-z
-x,y,1/2-z
1/2+x,1/2+y,z
1/2-x,1/2-y,1/2+z
1/2+x,1/2-y,-z
1/2-x,1/2+y,1/2-z
loop_
_atom_site_type_symbol
_atom_site_label
_atom_site_fract_x
_atom_site_fract_y
_atom_site_fract_z
Si Si1 0.071490 0.276691 0.364809
Si Si2 0.500000 0.135488 0.250000
Si Si3 0.419699 0.374600 0.286488
Si Si4 0.260951 0.938698 0.623362
Si Si5 0.145816 0.158259 0.283177
Si Si6 0.605308 0.901856 0.128454
Si Si7 0.957886 0.000000 0.500000
Si Si8 0.132197 0.500000 0.500000
O O1 0.048141 0.316593 0.598759
O O2 0.132123 0.226940 0.388088
O O3 0.095552 0.330926 0.189530
O O4 0.000000 0.248370 0.250000
O O5 0.448646 0.092590 0.406279
O O6 0.500000 0.356285 0.250000
O O7 0.382952 0.336529 0.503356
O O8 0.415984 0.441694 0.409372
O O9 0.392567 0.377227 0.008622
O O10 0.214875 0.882995 0.724479
O O11 0.313820 0.912147 0.422588
O O12 0.314884 0.962707 0.825935
O O13 0.226171 0.000000 0.500000
O O14 0.589640 0.950772 0.341119
O O15 0.000000 0.017267 0.250000
#
# Coordination Sequence:
#
# PCOD9317973 Si02
#       8
#     8   4   8   8   8   8   4   4
#     4  10  23  44  72 104 148 195 238 308 369 443
#     4  10  22  44  80 108 146 190 238 302 388 444
#     4  11  24  41  63  96 142 192 253 317 368 427
#     4  10  25  46  72 103 148 204 246 306 362 445
#     4  12  27  41  71 109 143 202 255 299 371 438
#     4  10  22  46  77 106 149 190 238 307 376 454
#     4  10  20  37  56  88 130 175 238 314 366 414
#     4  10  22  47  80 102 152 193 240 306 372 452
#
# _framework density 22.798421999999999
#
# number of rings (size 3 to 8) (size 9 to 14) (size 15 to 20)
#    0.000    1.538    0.000    4.154   11.846    0.000 
#    5.538    0.000  121.846    0.000    0.000    0.000 
#    0.000    0.000    0.000    0.000    0.000    0.000 
#
# Total GULP energy -144898.059899 kJ/mol
# GULP energy per Si atom -5573.002304 kJ/mol
# Density = 2.274653 g / cm^3
# Si number density = 22.798422 Si / 1000 Ang^3
#
#
#
# Elastic Constant Matrix: (Units=GPa)
#
#
# Indices 1 2 3 4 5 6 
#
# 1 67.0188 39.6957 17.1625 0.0000 0.0000 0.0000
# 2 39.6957 96.6232 7.2982 0.0000 0.0000 0.0000
# 3 17.1625 7.2982 78.7503 0.0000 0.0000 0.0000
# 4 0.0000 0.0000 0.0000 27.4868 0.0000 0.0000
# 5 0.0000 0.0000 0.0000 0.0000 30.6939 0.0000
# 6 0.0000 0.0000 0.0000 0.0000 0.0000 14.0988
#
#
#
# Elastic Compliance Matrix: (Units=1/GPa)
#
#
# Indices 1 2 3 4 5 6 
#
# 1 0.020771 -0.008249 -0.003762 0.000000 0.000000 0.000000
# 2 -0.008249 0.013699 0.000528 0.000000 0.000000 0.000000
# 3 -0.003762 0.000528 0.013469 0.000000 0.000000 0.000000
# 4 0.000000 0.000000 0.000000 0.036381 0.000000 0.000000
# 5 0.000000 0.000000 0.000000 0.000000 0.032580 0.000000
# 6 0.000000 0.000000 0.000000 0.000000 0.000000 0.070928
#
#
# Mechanical properties :
#
#
# Convention : Reuss Voigt Hill
#
# Bulk Modulus (GPa) = 40.04400 41.18946 40.61673
# Shear Modulus (GPa) = 22.81882 26.33829 24.57855
#
# Velocity S-wave (km/s) = 3.16712 3.40261 3.28698
# Velocity P-wave (km/s) = 5.56568 5.79164 5.67978
#
# Compressibility (1/GPa) = 0.02497253
#
# Stress axis : x y z
#
# Youngs Moduli (GPa) = 48.14511 73.00061 74.24279
#
# Poissons Ratio (x) = 0.60218 0.27931
# Poissons Ratio (y) = 0.39715 -0.03922
# Poissons Ratio (z) = 0.18113 -0.03856
#
# Static dielectric constant tensor:
#      x y z
#    x 1.910240 0.000000 0.000000 
#    y 0.000000 1.862710 0.000000 
#    z 0.000000 0.000000 2.065450 
# 
# From -- ./inp_files/3264.got.cif
#   From: 2010.05.17/outbox.cif.g08.bks.cpg/sg20_2_cif.got.tgz:3264.got - 2010.06.03 22:52:26.
