data_PCOD9317206
_publ_section_title
;
Structure prediction by ZEFSAII (Michael W. Deem and Ramdas Pophale) SiO2 
 PCOD9317206
Probable space group: C 2 2 21
;
_chemical_formula_sum "Si O2"
_cell_formula_units_Z 28
_cell_length_a 23.693069
_cell_length_b 7.064162
_cell_length_c 7.344546
_cell_angle_alpha 90.000000
_cell_angle_beta 90.000000
_cell_angle_gamma 90.000000
_cell_volume 1229.268986
_symmetry_space_group_name_H-M "C 2 2 21"
_symmetry_group_IT_number 20
_symmetry_cell_setting 'orthorhombic'
loop_
_space_group_symop_operation_xyz
x,y,z
-x,-y,1/2+z
x,-y,-z
-x,y,1/2-z
1/2+x,1/2+y,z
1/2-x,1/2-y,1/2+z
1/2+x,1/2-y,-z
1/2-x,1/2+y,1/2-z
loop_
_atom_site_type_symbol
_atom_site_label
_atom_site_fract_x
_atom_site_fract_y
_atom_site_fract_z
Si Si1 0.874694 0.000000 0.500000
Si Si2 0.054740 0.153498 0.346510
Si Si3 0.784636 0.715876 0.563459
Si Si4 0.667016 0.724925 0.462155
O O1 0.912111 0.056309 0.325111
O O2 0.830416 0.166219 0.552705
O O3 0.101446 0.282221 0.449818
O O4 0.000000 0.242874 0.250000
O O5 0.036729 0.000000 0.500000
O O6 0.782500 0.500000 0.500000
O O7 0.720653 0.795056 0.576424
O O8 0.809420 0.734936 0.762787
O O9 0.662827 0.500000 0.500000
#
# Coordination Sequence:
#
# PCOD9317206 Si02
#       4
#     4   8   8   8
#     4  10  22  38  64  90 126 170 216 276 324 400
#     4  10  19  35  60  92 121 167 227 262 322 390
#     4  10  22  38  60  92 131 167 211 268 337 390
#     4   9  21  37  58  94 127 167 215 268 324 394
#
# _framework density 22.777764000000001
#
# number of rings (size 3 to 8) (size 9 to 14) (size 15 to 20)
#    0.000    2.286    1.429    0.000   20.000    0.000 
#    0.000    0.000    0.000    6.857   14.857    0.000 
#    0.000    0.000    0.000    0.000    0.000    0.000 
#
# Total GULP energy -77945.521819 kJ/mol
# GULP energy per Si atom -5567.537273 kJ/mol
# Density = 2.272592 g / cm^3
# Si number density = 22.777764 Si / 1000 Ang^3
#
#
#
# Elastic Constant Matrix: (Units=GPa)
#
#
# Indices 1 2 3 4 5 6 
#
# 1 174.7933 28.7193 4.1347 0.0000 0.0000 0.0000
# 2 28.7193 84.7462 27.6975 0.0000 0.0000 0.0000
# 3 4.1347 27.6975 58.9138 0.0000 0.0000 0.0000
# 4 0.0000 0.0000 0.0000 28.0795 0.0000 0.0000
# 5 0.0000 0.0000 0.0000 0.0000 -55.4871 0.0000
# 6 0.0000 0.0000 0.0000 0.0000 0.0000 4.5621
#
#
#
# Elastic Compliance Matrix: (Units=1/GPa)
#
#
# Indices 1 2 3 4 5 6 
#
# 1 0.006079 -0.002269 0.000640 0.000000 0.000000 0.000000
# 2 -0.002269 0.014789 -0.006794 0.000000 0.000000 0.000000
# 3 0.000640 -0.006794 0.020123 0.000000 0.000000 0.000000
# 4 0.000000 0.000000 0.000000 0.035613 0.000000 0.000000
# 5 0.000000 0.000000 0.000000 0.000000 -0.018022 0.000000
# 6 0.000000 0.000000 0.000000 0.000000 0.000000 0.219196
#
#
# Mechanical properties :
#
#
# Convention : Reuss Voigt Hill
#
# Bulk Modulus (GPa) = 41.41545 48.83958 45.12751
# Shear Modulus (GPa) = 16.51951 12.62438 14.57194
#
# Velocity S-wave (km/s) = 2.69596 2.35679 2.53206
# Velocity P-wave (km/s) = 5.28326 5.37534 5.32950
#
# Compressibility (1/GPa) = 0.02414558
#
# Stress axis : x y z
#
# Youngs Moduli (GPa) = 164.50762 67.61631 49.69443
#
# Poissons Ratio (x) = 0.15344 -0.03182
# Poissons Ratio (y) = 0.37331 0.33761
# Poissons Ratio (z) = -0.10532 0.45937
#
# Static dielectric constant tensor:
#      x y z
#    x 1.982800 0.000000 0.000000 
#    y 0.000000 2.036860 0.000000 
#    z 0.000000 0.000000 2.142120 
# 
# From -- ./inp_files/5985.got.cif
#   From: 2010.05.17/outbox.cif.g08.bks.cpg/sg20_3_cif.got.tgz:5985.got - 2010.06.03 22:52:26.
