data_PCOD9317465
_publ_section_title
;
Structure prediction by ZEFSAII (Michael W. Deem and Ramdas Pophale) SiO2 
 PCOD9317465
Probable space group: C 2 2 21
;
_chemical_formula_sum "Si O2"
_cell_formula_units_Z 56
_cell_length_a 8.238037
_cell_length_b 20.348325
_cell_length_c 14.186151
_cell_angle_alpha 90.000000
_cell_angle_beta 90.000000
_cell_angle_gamma 90.000000
_cell_volume 2378.028099
_symmetry_space_group_name_H-M "C 2 2 21"
_symmetry_group_IT_number 20
_symmetry_cell_setting 'orthorhombic'
loop_
_space_group_symop_operation_xyz
x,y,z
-x,-y,1/2+z
x,-y,-z
-x,y,1/2-z
1/2+x,1/2+y,z
1/2-x,1/2-y,1/2+z
1/2+x,1/2-y,-z
1/2-x,1/2+y,1/2-z
loop_
_atom_site_type_symbol
_atom_site_label
_atom_site_fract_x
_atom_site_fract_y
_atom_site_fract_z
Si Si1 0.036196 0.110565 0.567803
Si Si2 0.786185 0.500000 0.500000
Si Si3 0.049938 0.556066 0.349942
Si Si4 0.754380 0.288013 0.504473
Si Si5 0.582333 0.156798 0.486561
Si Si6 0.000000 0.795412 0.250000
Si Si7 0.191943 0.583029 0.646785
Si Si8 0.327363 0.793296 0.282885
O O1 0.166666 0.052058 0.553564
O O2 0.100522 0.162944 0.489824
O O3 0.032744 0.156782 0.661298
O O4 0.854545 0.083010 0.581921
O O5 0.902355 0.534661 0.421030
O O6 0.151733 0.610012 0.406579
O O7 0.149686 0.490332 0.326596
O O8 0.000000 0.583964 0.250000
O O9 0.696972 0.214663 0.523067
O O10 0.813726 0.289306 0.395027
O O11 0.917214 0.312354 0.553683
O O12 0.554329 0.110497 0.576611
O O13 0.831877 0.757224 0.257734
O O14 0.189388 0.633922 0.733827
O O15 0.500000 0.767042 0.250000
#
# Coordination Sequence:
#
# PCOD9317465 Si02
#       8
#     8   4   8   8   8   4   8   8
#     4  10  22  39  64 104 132 180 225 293 353 429
#     4  12  24  44  72  98 150 184 238 296 384 432
#     4  12  27  45  71 105 146 187 243 306 367 444
#     4  11  23  44  68  99 142 184 243 289 362 444
#     4  12  24  46  67 100 138 189 238 294 360 432
#     4   8  20  34  60 104 128 162 236 278 330 426
#     4  11  22  42  76 102 133 185 242 291 361 449
#     4  10  19  38  68 104 129 177 238 292 351 425
#
# _framework density 23.548921
#
# number of rings (size 3 to 8) (size 9 to 14) (size 15 to 20)
#    0.000    1.143    4.286    1.286   10.000    0.000 
#   10.286    0.000    0.000    0.000    0.000    0.000 
#    0.000    0.000    0.000    0.000    0.000    0.000 
#
# Total GULP energy -156178.264514 kJ/mol
# GULP energy per Si atom -5577.795161 kJ/mol
# Density = 2.349532 g / cm^3
# Si number density = 23.548921 Si / 1000 Ang^3
#
#
#
# Elastic Constant Matrix: (Units=GPa)
#
#
# Indices 1 2 3 4 5 6 
#
# 1 121.2842 -11.6097 -2.8264 0.0000 0.0000 0.0000
# 2 -11.6097 55.5162 -7.6751 0.0000 0.0000 0.0000
# 3 -2.8264 -7.6751 65.9295 0.0000 0.0000 0.0000
# 4 0.0000 0.0000 0.0000 31.2088 0.0000 0.0000
# 5 0.0000 0.0000 0.0000 0.0000 26.2587 0.0000
# 6 0.0000 0.0000 0.0000 0.0000 0.0000 27.2413
#
#
#
# Elastic Compliance Matrix: (Units=1/GPa)
#
#
# Indices 1 2 3 4 5 6 
#
# 1 0.008435 0.001844 0.000576 0.000000 0.000000 0.000000
# 2 0.001844 0.018710 0.002257 0.000000 0.000000 0.000000
# 3 0.000576 0.002257 0.015455 0.000000 0.000000 0.000000
# 4 0.000000 0.000000 0.000000 0.032042 0.000000 0.000000
# 5 0.000000 0.000000 0.000000 0.000000 0.038083 0.000000
# 6 0.000000 0.000000 0.000000 0.000000 0.000000 0.036709
#
#
# Mechanical properties :
#
#
# Convention : Reuss Voigt Hill
#
# Bulk Modulus (GPa) = 19.24756 22.05638 20.65197
# Shear Modulus (GPa) = 31.76652 34.59785 33.18219
#
# Velocity S-wave (km/s) = 3.67680 3.83716 3.75784
# Velocity P-wave (km/s) = 5.12019 5.38686 5.25522
#
# Compressibility (1/GPa) = 0.05195463
#
# Stress axis : x y z
#
# Youngs Moduli (GPa) = 118.55366 53.44631 64.70320
#
# Poissons Ratio (x) = -0.09853 -0.03728
# Poissons Ratio (y) = -0.21857 -0.14605
# Poissons Ratio (z) = -0.06831 -0.12064
#
# Static dielectric constant tensor:
#      x y z
#    x 2.060250 0.000000 0.000000 
#    y 0.000000 1.947700 0.000000 
#    z 0.000000 0.000000 1.892440 
# 
# From -- ./inp_files/19244.got.cif
#   From: 2010.05.17/outbox.cif.g08.bks.cpg/sg20_10_cif.got.tgz:19244.got - 2010.06.03 22:52:26.
