data_PCOD9317692
_publ_section_title
;
Structure prediction by ZEFSAII (Michael W. Deem and Ramdas Pophale) SiO2 
 PCOD9317692
Probable space group: C 2 2 21
;
_chemical_formula_sum "Si O2"
_cell_formula_units_Z 60
_cell_length_a 28.548592
_cell_length_b 5.499395
_cell_length_c 21.308633
_cell_angle_alpha 90.000000
_cell_angle_beta 90.000000
_cell_angle_gamma 90.000000
_cell_volume 3345.455042
_symmetry_space_group_name_H-M "C 2 2 21"
_symmetry_group_IT_number 20
_symmetry_cell_setting 'orthorhombic'
loop_
_space_group_symop_operation_xyz
x,y,z
-x,-y,1/2+z
x,-y,-z
-x,y,1/2-z
1/2+x,1/2+y,z
1/2-x,1/2-y,1/2+z
1/2+x,1/2-y,-z
1/2-x,1/2+y,1/2-z
loop_
_atom_site_type_symbol
_atom_site_label
_atom_site_fract_x
_atom_site_fract_y
_atom_site_fract_z
Si Si1 0.761558 0.958410 0.287860
Si Si2 0.636402 0.610803 0.761929
Si Si3 0.674174 0.085997 0.358827
Si Si4 0.390780 0.343124 0.061342
Si Si5 0.965747 0.831953 0.311647
Si Si6 0.498796 0.160766 0.627709
Si Si7 0.965690 0.500000 0.000000
Si Si8 0.098070 0.782063 0.664208
O O1 0.755549 0.202204 0.244000
O O2 0.726907 0.011695 0.345498
O O3 0.816630 0.929592 0.301791
O O4 0.654781 0.780534 0.704419
O O5 0.588655 0.700413 0.792282
O O6 0.618949 0.360299 0.730246
O O7 0.660086 0.253051 0.416652
O O8 0.639901 0.859964 0.368651
O O9 0.411203 0.485001 0.121011
O O10 0.385581 0.500000 0.000000
O O11 0.430138 0.151023 0.043173
O O12 0.976119 0.595612 0.353629
O O13 0.000000 0.834441 0.250000
O O14 0.974417 0.091208 0.347136
O O15 0.548997 0.149580 0.663941
O O16 0.506409 0.157729 0.551885
#
# Coordination Sequence:
#
# PCOD9317692 Si02
#       8
#     8   8   8   8   8   8   4   8
#     4  10  20  35  58  85 117 155 191 230 289 354
#     4  10  22  36  55  84 124 158 193 240 294 361
#     4  10  20  34  56  86 118 155 189 240 301 364
#     4  11  20  33  55  83 118 155 188 241 306 353
#     4  12  25  37  57  86 123 158 195 240 301 357
#     4  12  25  38  57  85 115 161 198 243 296 353
#     4  12  24  38  58  82 118 156 204 256 292 360
#     4  11  19  34  55  81 119 155 188 235 296 360
#
# _framework density 17.934778999999999
#
# number of rings (size 3 to 8) (size 9 to 14) (size 15 to 20)
#    0.000    1.067    5.333    2.000    1.867    0.000 
#    0.000    0.000    0.000    0.000    1.733    1.867 
#    0.000    0.000    0.000    0.000    0.000    0.000 
#
# Total GULP energy -167142.593195 kJ/mol
# GULP energy per Si atom -5571.419773 kJ/mol
# Density = 1.789396 g / cm^3
# Si number density = 17.934779 Si / 1000 Ang^3
#
#
#
# Elastic Constant Matrix: (Units=GPa)
#
#
# Indices 1 2 3 4 5 6 
#
# 1 131.4742 18.1887 23.2694 0.0000 0.0000 0.0000
# 2 18.1887 71.5265 7.9872 0.0000 0.0000 0.0000
# 3 23.2694 7.9872 24.9561 0.0000 0.0000 0.0000
# 4 0.0000 0.0000 0.0000 25.5105 0.0000 0.0000
# 5 0.0000 0.0000 0.0000 0.0000 22.4414 0.0000
# 6 0.0000 0.0000 0.0000 0.0000 0.0000 14.3242
#
#
#
# Elastic Compliance Matrix: (Units=1/GPa)
#
#
# Indices 1 2 3 4 5 6 
#
# 1 0.009250 -0.001441 -0.008164 0.000000 0.000000 0.000000
# 2 -0.001441 0.014723 -0.003369 0.000000 0.000000 0.000000
# 3 -0.008164 -0.003369 0.048761 0.000000 0.000000 0.000000
# 4 0.000000 0.000000 0.000000 0.039200 0.000000 0.000000
# 5 0.000000 0.000000 0.000000 0.000000 0.044561 0.000000
# 6 0.000000 0.000000 0.000000 0.000000 0.000000 0.069812
#
#
# Mechanical properties :
#
#
# Convention : Reuss Voigt Hill
#
# Bulk Modulus (GPa) = 21.37328 36.31638 28.84483
# Shear Modulus (GPa) = 18.66719 24.35598 21.51158
#
# Velocity S-wave (km/s) = 3.22970 3.68914 3.46704
# Velocity P-wave (km/s) = 5.08439 6.19996 5.66968
#
# Compressibility (1/GPa) = 0.04678738
#
# Stress axis : x y z
#
# Youngs Moduli (GPa) = 108.10454 67.91918 20.50822
#
# Poissons Ratio (x) = 0.09785 0.16743
# Poissons Ratio (y) = 0.15574 0.06909
# Poissons Ratio (z) = 0.88257 0.22881
#
# Static dielectric constant tensor:
#      x y z
#    x 1.637420 0.000000 0.000000 
#    y 0.000000 1.777610 0.000000 
#    z 0.000000 0.000000 1.636740 
# 
# From -- ./inp_files/28050.got.cif
#   From: 2010.05.17/outbox.cif.g08.bks.cpg/sg20_15_cif.got.tgz:28050.got - 2010.06.03 22:52:26.
