data_PCOD9317195
_publ_section_title
;
Structure prediction by ZEFSAII (Michael W. Deem and Ramdas Pophale) SiO2 
 PCOD9317195
Probable space group: C 2 2 21
;
_chemical_formula_sum "Si O2"
_cell_formula_units_Z 60
_cell_length_a 8.104390
_cell_length_b 14.516630
_cell_length_c 25.112291
_cell_angle_alpha 90.000000
_cell_angle_beta 90.000000
_cell_angle_gamma 90.000000
_cell_volume 2954.421635
_symmetry_space_group_name_H-M "C 2 2 21"
_symmetry_group_IT_number 20
_symmetry_cell_setting 'orthorhombic'
loop_
_space_group_symop_operation_xyz
x,y,z
-x,-y,1/2+z
x,-y,-z
-x,y,1/2-z
1/2+x,1/2+y,z
1/2-x,1/2-y,1/2+z
1/2+x,1/2-y,-z
1/2-x,1/2+y,1/2-z
loop_
_atom_site_type_symbol
_atom_site_label
_atom_site_fract_x
_atom_site_fract_y
_atom_site_fract_z
Si Si1 0.375315 0.700363 0.162980
Si Si2 0.692826 0.178380 0.471659
Si Si3 0.815962 0.677757 0.230081
Si Si4 0.307899 0.789596 0.369263
Si Si5 0.588762 0.524172 0.195878
Si Si6 0.649979 0.220675 0.065276
Si Si7 0.027216 0.091033 0.602088
Si Si8 0.093935 0.000000 0.000000
O O1 0.294692 0.713467 0.220706
O O2 0.499511 0.782191 0.145682
O O3 0.484691 0.609063 0.170942
O O4 0.241923 0.683689 0.117090
O O5 0.778269 0.224565 0.420349
O O6 0.500148 0.162052 0.459231
O O7 0.718811 0.250194 0.520188
O O8 0.789760 0.086351 0.486433
O O9 0.788697 0.744007 0.180144
O O10 0.756218 0.575451 0.212837
O O11 0.000000 0.676320 0.250000
O O12 0.214684 0.885144 0.381184
O O13 0.500000 0.492246 0.250000
O O14 0.580035 0.447260 0.151095
O O15 0.555383 0.313490 0.083634
O O16 0.013710 0.024082 0.551705
#
# Coordination Sequence:
#
# PCOD9317195 Si02
#       8
#     8   8   8   8   8   8   8   4
#     4  10  20  37  58  82 112 147 191 238 282 340
#     4  10  20  36  57  82 114 153 192 238 288 339
#     4  10  19  35  60  86 112 152 194 232 285 342
#     4  10  20  35  58  85 113 149 193 237 284 339
#     4   9  20  37  56  82 118 151 185 232 286 337
#     4  10  21  37  58  83 112 150 195 239 285 336
#     4  10  21  36  57  83 113 152 188 230 288 340
#     4  10  20  36  58  86 120 150 188 238 290 342
#
# _framework density 20.308541999999999
#
# number of rings (size 3 to 8) (size 9 to 14) (size 15 to 20)
#    0.000    2.133    0.000    5.200    0.000    3.733 
#    0.000    8.000    0.000    1.600    0.000    0.000 
#    0.000    0.000    0.000    0.000    0.000    0.000 
#
# Total GULP energy -167488.547845 kJ/mol
# GULP energy per Si atom -5582.951595 kJ/mol
# Density = 2.026232 g / cm^3
# Si number density = 20.308542 Si / 1000 Ang^3
#
#
#
# Elastic Constant Matrix: (Units=GPa)
#
#
# Indices 1 2 3 4 5 6 
#
# 1 73.8541 18.0585 21.3433 0.0000 0.0000 0.0000
# 2 18.0585 33.6161 31.6655 0.0000 0.0000 0.0000
# 3 21.3433 31.6655 126.2523 0.0000 0.0000 0.0000
# 4 0.0000 0.0000 0.0000 24.0480 0.0000 0.0000
# 5 0.0000 0.0000 0.0000 0.0000 40.2138 0.0000
# 6 0.0000 0.0000 0.0000 0.0000 0.0000 10.2930
#
#
#
# Elastic Compliance Matrix: (Units=1/GPa)
#
#
# Indices 1 2 3 4 5 6 
#
# 1 0.015635 -0.007737 -0.000703 0.000000 0.000000 0.000000
# 2 -0.007737 0.042779 -0.009421 0.000000 0.000000 0.000000
# 3 -0.000703 -0.009421 0.010402 0.000000 0.000000 0.000000
# 4 0.000000 0.000000 0.000000 0.041583 0.000000 0.000000
# 5 0.000000 0.000000 0.000000 0.000000 0.024867 0.000000
# 6 0.000000 0.000000 0.000000 0.000000 0.000000 0.097154
#
#
# Mechanical properties :
#
#
# Convention : Reuss Voigt Hill
#
# Bulk Modulus (GPa) = 30.21717 41.76191 35.98954
# Shear Modulus (GPa) = 17.90993 25.75464 21.83229
#
# Velocity S-wave (km/s) = 2.97289 3.56500 3.28232
# Velocity P-wave (km/s) = 5.16676 6.12813 5.66787
#
# Compressibility (1/GPa) = 0.03309377
#
# Stress axis : x y z
#
# Youngs Moduli (GPa) = 63.95837 23.37598 96.13149
#
# Poissons Ratio (x) = 0.18087 0.06754
# Poissons Ratio (y) = 0.49487 0.90570
# Poissons Ratio (z) = 0.04493 0.22024
#
# Static dielectric constant tensor:
#      x y z
#    x 1.754170 0.000000 0.000000 
#    y 0.000000 1.730510 0.000000 
#    z 0.000000 0.000000 1.730760 
# 
# From -- ./inp_files/28842.got.cif
#   From: 2010.05.17/outbox.cif.g08.bks.cpg/sg20_15_cif.got.tgz:28842.got - 2010.06.03 22:52:26.
