data_PCOD9317110
_publ_section_title
;
Structure prediction by ZEFSAII (Michael W. Deem and Ramdas Pophale) SiO2 
 PCOD9317110
Probable space group: C 2 2 21
;
_chemical_formula_sum "Si O2"
_cell_formula_units_Z 60
_cell_length_a 21.618994
_cell_length_b 5.620637
_cell_length_c 24.313049
_cell_angle_alpha 90.000000
_cell_angle_beta 90.000000
_cell_angle_gamma 90.000000
_cell_volume 2954.339794
_symmetry_space_group_name_H-M "C 2 2 21"
_symmetry_group_IT_number 20
_symmetry_cell_setting 'orthorhombic'
loop_
_space_group_symop_operation_xyz
x,y,z
-x,-y,1/2+z
x,-y,-z
-x,y,1/2-z
1/2+x,1/2+y,z
1/2-x,1/2-y,1/2+z
1/2+x,1/2-y,-z
1/2-x,1/2+y,1/2-z
loop_
_atom_site_type_symbol
_atom_site_label
_atom_site_fract_x
_atom_site_fract_y
_atom_site_fract_z
Si Si1 0.390464 0.752772 0.027558
Si Si2 0.230882 0.500000 0.500000
Si Si3 0.174529 0.501257 0.811077
Si Si4 0.513478 0.644874 0.684525
Si Si5 0.864312 0.958336 0.864965
Si Si6 0.533116 0.142096 0.809760
Si Si7 0.734605 0.143893 0.698176
Si Si8 0.744985 0.754591 0.606570
O O1 0.398656 0.720811 0.093115
O O2 0.409224 0.500000 0.000000
O O3 0.316507 0.799318 0.021917
O O4 0.416050 0.000000 0.000000
O O5 0.265174 0.393658 0.552285
O O6 0.105076 0.580889 0.803059
O O7 0.193958 0.226016 0.806374
O O8 0.214801 0.600314 0.760219
O O9 0.202031 0.586526 0.869166
O O10 0.500000 0.660632 0.750000
O O11 0.584848 0.596406 0.670227
O O12 0.477801 0.404816 0.665145
O O13 0.494361 0.904036 0.661851
O O14 0.820956 0.126501 0.902525
O O15 0.814725 0.832269 0.825753
O O16 0.500000 0.158236 0.750000
O O17 0.729017 0.927471 0.656839
#
# Coordination Sequence:
#
# PCOD9317110 Si02
#       8
#     8   4   8   8   8   8   8   8
#     4  10  19  34  57  90 126 157 200 264 318 390
#     4  10  20  38  60  90 134 156 226 240 342 394
#     4  11  24  36  58  89 134 167 223 256 341 390
#     4  10  23  37  59  90 123 175 215 260 310 382
#     4  11  22  36  62  93 132 166 216 261 343 390
#     4  10  23  40  59  83 123 176 222 266 301 383
#     4  11  21  35  57  91 127 171 195 272 325 411
#     4  11  23  37  61  96 130 176 202 275 332 404
#
# _framework density 20.309106
#
# number of rings (size 3 to 8) (size 9 to 14) (size 15 to 20)
#    0.400    1.067    4.000    1.600    7.467    0.000 
#    0.000    0.000    0.000    0.000    1.733    0.000 
#    0.000    0.000    0.000    0.000    0.000    0.000 
#
# Total GULP energy -167103.786716 kJ/mol
# GULP energy per Si atom -5570.126224 kJ/mol
# Density = 2.026288 g / cm^3
# Si number density = 20.309106 Si / 1000 Ang^3
#
#
#
# Elastic Constant Matrix: (Units=GPa)
#
#
# Indices 1 2 3 4 5 6 
#
# 1 61.3152 3.1755 2.9131 0.0000 0.0000 0.0000
# 2 3.1755 104.2700 10.3649 0.0000 0.0000 0.0000
# 3 2.9131 10.3649 84.6438 0.0000 0.0000 0.0000
# 4 0.0000 0.0000 0.0000 31.5806 0.0000 0.0000
# 5 0.0000 0.0000 0.0000 0.0000 8.9545 0.0000
# 6 0.0000 0.0000 0.0000 0.0000 0.0000 17.6434
#
#
#
# Elastic Compliance Matrix: (Units=1/GPa)
#
#
# Indices 1 2 3 4 5 6 
#
# 1 0.016356 -0.000448 -0.000508 0.000000 0.000000 0.000000
# 2 -0.000448 0.009721 -0.001175 0.000000 0.000000 0.000000
# 3 -0.000508 -0.001175 0.011976 0.000000 0.000000 0.000000
# 4 0.000000 0.000000 0.000000 0.031665 0.000000 0.000000
# 5 0.000000 0.000000 0.000000 0.000000 0.111676 0.000000
# 6 0.000000 0.000000 0.000000 0.000000 0.000000 0.056679
#
#
# Mechanical properties :
#
#
# Convention : Reuss Voigt Hill
#
# Bulk Modulus (GPa) = 29.59314 31.45956 30.52635
# Shear Modulus (GPa) = 19.71623 27.22070 23.46847
#
# Velocity S-wave (km/s) = 3.11916 3.66501 3.40305
# Velocity P-wave (km/s) = 5.25121 5.78219 5.52308
#
# Compressibility (1/GPa) = 0.03379161
#
# Stress axis : x y z
#
# Youngs Moduli (GPa) = 61.13783 102.87094 83.50324
#
# Poissons Ratio (x) = 0.04605 0.04243
# Poissons Ratio (y) = 0.02737 0.09811
# Poissons Ratio (z) = 0.03106 0.12087
#
# Static dielectric constant tensor:
#      x y z
#    x 1.692730 0.000000 0.000000 
#    y 0.000000 1.891660 0.000000 
#    z 0.000000 0.000000 1.701870 
# 
# From -- ./inp_files/29542.got.cif
#   From: 2010.05.17/outbox.cif.g08.bks.cpg/sg20_15_cif.got.tgz:29542.got - 2010.06.03 22:52:26.
