data_PCOD9317484
_publ_section_title
;
Structure prediction by ZEFSAII (Michael W. Deem and Ramdas Pophale) SiO2 
 PCOD9317484
Probable space group: C 2 2 21
;
_chemical_formula_sum "Si O2"
_cell_formula_units_Z 40
_cell_length_a 7.920602
_cell_length_b 12.414779
_cell_length_c 17.947383
_cell_angle_alpha 90.000000
_cell_angle_beta 90.000000
_cell_angle_gamma 90.000000
_cell_volume 1764.811458
_symmetry_space_group_name_H-M "C 2 2 21"
_symmetry_group_IT_number 20
_symmetry_cell_setting 'orthorhombic'
loop_
_space_group_symop_operation_xyz
x,y,z
-x,-y,1/2+z
x,-y,-z
-x,y,1/2-z
1/2+x,1/2+y,z
1/2-x,1/2-y,1/2+z
1/2+x,1/2-y,-z
1/2-x,1/2+y,1/2-z
loop_
_atom_site_type_symbol
_atom_site_label
_atom_site_fract_x
_atom_site_fract_y
_atom_site_fract_z
Si Si1 0.903835 0.047130 0.896691
Si Si2 0.536528 0.241721 0.168580
Si Si3 0.938458 0.855189 0.534344
Si Si4 0.534606 0.030256 0.087540
Si Si5 0.346773 0.829425 0.091059
O O1 0.945014 0.143007 0.840371
O O2 0.045372 0.953210 0.906920
O O3 0.724458 0.992442 0.884980
O O4 0.913468 0.110764 0.975838
O O5 0.500000 0.198094 0.250000
O O6 0.485174 0.151218 0.108505
O O7 0.730533 0.267253 0.149635
O O8 0.992564 0.743092 0.569711
O O9 0.775199 0.847772 0.481359
O O10 0.409658 0.942584 0.121688
O O11 0.531659 0.000000 0.000000
#
# Coordination Sequence:
#
# PCOD9317484 Si02
#       5
#     8   8   8   8   8
#     4  10  20  41  63  94 137 166 214 286 328 407
#     4  11  26  46  65  95 140 188 231 282 344 422
#     4  10  19  39  64 102 136 163 216 284 348 400
#     4  12  23  41  73 103 131 178 230 292 344 401
#     4  11  23  39  68  99 135 175 220 283 350 407
#
# _framework density 22.665310999999999
#
# number of rings (size 3 to 8) (size 9 to 14) (size 15 to 20)
#    0.000    1.200    4.000    3.600    5.600    1.600 
#    0.000    0.000    0.000    0.000    0.000    0.000 
#    0.000    0.000    0.000    0.000    0.000    0.000 
#
# Total GULP energy -111725.778960 kJ/mol
# GULP energy per Si atom -5586.288948 kJ/mol
# Density = 2.261372 g / cm^3
# Si number density = 22.665311 Si / 1000 Ang^3
#
#
#
# Elastic Constant Matrix: (Units=GPa)
#
#
# Indices 1 2 3 4 5 6 
#
# 1 41.4029 18.4557 -2.8232 0.0000 0.0000 0.0000
# 2 18.4557 133.5036 12.4875 0.0000 0.0000 0.0000
# 3 -2.8232 12.4875 51.1571 0.0000 0.0000 0.0000
# 4 0.0000 0.0000 0.0000 20.0334 0.0000 0.0000
# 5 0.0000 0.0000 0.0000 0.0000 11.3327 0.0000
# 6 0.0000 0.0000 0.0000 0.0000 0.0000 47.2559
#
#
#
# Elastic Compliance Matrix: (Units=1/GPa)
#
#
# Indices 1 2 3 4 5 6 
#
# 1 0.026016 -0.003818 0.002368 0.000000 0.000000 0.000000
# 2 -0.003818 0.008226 -0.002219 0.000000 0.000000 0.000000
# 3 0.002368 -0.002219 0.020220 0.000000 0.000000 0.000000
# 4 0.000000 0.000000 0.000000 0.049917 0.000000 0.000000
# 5 0.000000 0.000000 0.000000 0.000000 0.088240 0.000000
# 6 0.000000 0.000000 0.000000 0.000000 0.000000 0.021161
#
#
# Mechanical properties :
#
#
# Convention : Reuss Voigt Hill
#
# Bulk Modulus (GPa) = 21.22056 31.36706 26.29381
# Shear Modulus (GPa) = 21.11259 28.92065 25.01662
#
# Velocity S-wave (km/s) = 3.05535 3.57597 3.32586
# Velocity P-wave (km/s) = 4.67223 5.56052 5.13562
#
# Compressibility (1/GPa) = 0.04712410
#
# Stress axis : x y z
#
# Youngs Moduli (GPa) = 38.43753 121.56934 49.45629
#
# Poissons Ratio (x) = 0.46415 -0.11710
# Poissons Ratio (y) = 0.14675 0.10972
# Poissons Ratio (z) = -0.09101 0.26972
#
# Static dielectric constant tensor:
#      x y z
#    x 1.858520 0.000000 0.000000 
#    y 0.000000 1.889900 0.000000 
#    z 0.000000 0.000000 1.887920 
# 
# From -- ./inp_files/23158.got.cif
#   From: 2010.05.17/outbox.cif.g08.bks.cpg/sg20_12_cif.got.tgz:23158.got - 2010.06.03 22:52:26.
