data_PCOD9317424
_publ_section_title
;
Structure prediction by ZEFSAII (Michael W. Deem and Ramdas Pophale) SiO2 
 PCOD9317424
Probable space group: C 2 2 21
;
_chemical_formula_sum "Si O2"
_cell_formula_units_Z 56
_cell_length_a 15.142047
_cell_length_b 9.118116
_cell_length_c 20.769977
_cell_angle_alpha 90.000000
_cell_angle_beta 90.000000
_cell_angle_gamma 90.000000
_cell_volume 2867.647190
_symmetry_space_group_name_H-M "C 2 2 21"
_symmetry_group_IT_number 20
_symmetry_cell_setting 'orthorhombic'
loop_
_space_group_symop_operation_xyz
x,y,z
-x,-y,1/2+z
x,-y,-z
-x,y,1/2-z
1/2+x,1/2+y,z
1/2-x,1/2-y,1/2+z
1/2+x,1/2-y,-z
1/2-x,1/2+y,1/2-z
loop_
_atom_site_type_symbol
_atom_site_label
_atom_site_fract_x
_atom_site_fract_y
_atom_site_fract_z
Si Si1 0.304267 0.160204 0.117122
Si Si2 0.371501 0.513361 0.575218
Si Si3 0.630938 0.888789 0.306978
Si Si4 0.627652 0.676096 0.493863
Si Si5 0.014276 0.239857 0.108788
Si Si6 0.225579 0.279781 0.885587
Si Si7 0.173471 0.599524 0.840363
O O1 0.254122 0.285210 0.157827
O O2 0.224119 0.063877 0.086382
O O3 0.362467 0.047589 0.158611
O O4 0.357162 0.242819 0.061095
O O5 0.392890 0.500000 0.500000
O O6 0.444488 0.422851 0.614770
O O7 0.358112 0.679850 0.596828
O O8 0.549935 0.794871 0.334900
O O9 0.718170 0.802837 0.330841
O O10 0.632633 0.902984 0.230716
O O11 0.619823 0.500000 0.500000
O O12 0.543943 0.739644 0.455542
O O13 0.712095 0.709103 0.448456
O O14 0.099631 0.343041 0.109883
O O15 0.203915 0.440646 0.861704
#
# Coordination Sequence:
#
# PCOD9317424 Si02
#       7
#     8   8   8   8   8   8   8
#     4  10  21  37  66  91 118 162 203 262 306 365
#     4  10  19  38  59  90 127 155 196 247 317 380
#     4  10  22  41  62  86 123 162 212 252 310 370
#     4  11  20  40  60  93 130 154 206 256 324 379
#     4  10  24  38  60  85 126 171 190 261 317 367
#     4  10  21  36  67  93 116 165 203 263 308 370
#     4  11  21  42  62  89 120 162 216 253 304 370
#
# _framework density 19.528203999999999
#
# number of rings (size 3 to 8) (size 9 to 14) (size 15 to 20)
#    0.000    1.714    2.857    1.714    0.000    0.000 
#    7.714    0.000    0.000    0.000    0.000    0.000 
#    0.000    0.000    0.000    0.000    0.000    0.000 
#
# Total GULP energy -156363.499677 kJ/mol
# GULP energy per Si atom -5584.410703 kJ/mol
# Density = 1.948376 g / cm^3
# Si number density = 19.528204 Si / 1000 Ang^3
#
#
#
# Elastic Constant Matrix: (Units=GPa)
#
#
# Indices 1 2 3 4 5 6 
#
# 1 68.8609 37.0927 30.2867 0.0000 0.0000 0.0000
# 2 37.0927 134.5351 46.2334 0.0000 0.0000 0.0000
# 3 30.2867 46.2334 77.9894 0.0000 0.0000 0.0000
# 4 0.0000 0.0000 0.0000 22.6513 0.0000 0.0000
# 5 0.0000 0.0000 0.0000 0.0000 13.7108 0.0000
# 6 0.0000 0.0000 0.0000 0.0000 0.0000 27.8227
#
#
#
# Elastic Compliance Matrix: (Units=1/GPa)
#
#
# Indices 1 2 3 4 5 6 
#
# 1 0.018629 -0.003328 -0.005261 0.000000 0.000000 0.000000
# 2 -0.003328 0.009929 -0.004594 0.000000 0.000000 0.000000
# 3 -0.005261 -0.004594 0.017589 0.000000 0.000000 0.000000
# 4 0.000000 0.000000 0.000000 0.044148 0.000000 0.000000
# 5 0.000000 0.000000 0.000000 0.000000 0.072935 0.000000
# 6 0.000000 0.000000 0.000000 0.000000 0.000000 0.035942
#
#
# Mechanical properties :
#
#
# Convention : Reuss Voigt Hill
#
# Bulk Modulus (GPa) = 50.55548 56.51235 53.53392
# Shear Modulus (GPa) = 21.53952 24.02180 22.78066
#
# Velocity S-wave (km/s) = 3.32474 3.51109 3.41919
# Velocity P-wave (km/s) = 6.37834 6.74082 6.56208
#
# Compressibility (1/GPa) = 0.01978025
#
# Stress axis : x y z
#
# Youngs Moduli (GPa) = 53.68016 100.71247 56.85433
#
# Poissons Ratio (x) = 0.33518 0.29914
# Poissons Ratio (y) = 0.17865 0.26118
# Poissons Ratio (z) = 0.28244 0.46265
#
# Static dielectric constant tensor:
#      x y z
#    x 1.701140 0.000000 0.000000 
#    y 0.000000 1.681540 0.000000 
#    z 0.000000 0.000000 1.662170 
# 
# From -- ./inp_files/26711.got.cif
#   From: 2010.05.17/outbox.cif.g08.bks.cpg/sg20_14_cif.got.tgz:26711.got - 2010.06.03 22:52:26.
