data_PCOD9317050
_publ_section_title
;
Structure prediction by ZEFSAII (Michael W. Deem and Ramdas Pophale) SiO2 
 PCOD9317050
Probable space group: C 2 2 21
;
_chemical_formula_sum "Si O2"
_cell_formula_units_Z 60
_cell_length_a 33.199753
_cell_length_b 5.156068
_cell_length_c 15.708248
_cell_angle_alpha 90.000000
_cell_angle_beta 90.000000
_cell_angle_gamma 90.000000
_cell_volume 2688.940784
_symmetry_space_group_name_H-M "C 2 2 21"
_symmetry_group_IT_number 20
_symmetry_cell_setting 'orthorhombic'
loop_
_space_group_symop_operation_xyz
x,y,z
-x,-y,1/2+z
x,-y,-z
-x,y,1/2-z
1/2+x,1/2+y,z
1/2-x,1/2-y,1/2+z
1/2+x,1/2-y,-z
1/2-x,1/2+y,1/2-z
loop_
_atom_site_type_symbol
_atom_site_label
_atom_site_fract_x
_atom_site_fract_y
_atom_site_fract_z
Si Si1 0.918435 0.899097 0.843847
Si Si2 0.245995 0.494596 0.690153
Si Si3 0.658852 0.134294 0.682046
Si Si4 0.612853 0.236458 0.214651
Si Si5 0.944690 0.637940 0.408603
Si Si6 0.670482 0.398949 0.867379
Si Si7 0.963005 0.398657 0.903633
Si Si8 0.112634 0.000000 0.000000
O O1 0.872548 0.815445 0.867331
O O2 0.945035 0.639118 0.850331
O O3 0.913853 0.027059 0.750425
O O4 0.938588 0.131502 0.896364
O O5 0.240887 0.237482 0.749318
O O6 0.203320 0.574760 0.649719
O O7 0.281891 0.434427 0.624338
O O8 0.665213 0.245087 0.778618
O O9 0.633823 0.876607 0.701478
O O10 0.583617 0.035962 0.166919
O O11 0.649611 0.326046 0.155256
O O12 0.943967 0.500000 0.500000
O O13 0.990533 0.660263 0.380992
O O14 0.919020 0.894037 0.430880
O O15 0.643857 0.314077 0.948362
O O16 0.962020 0.500000 0.000000
#
# Coordination Sequence:
#
# PCOD9317050 Si02
#       8
#     8   8   8   8   8   8   8   4
#     4  11  23  42  63  92 121 164 209 275 316 374
#     4  10  19  33  60  91 122 161 206 252 303 372
#     4  10  19  36  62  89 128 161 214 258 317 374
#     4  10  19  39  59  94 129 164 207 268 321 379
#     4  10  23  38  63  92 127 174 211 261 321 400
#     4   9  19  33  59  92 127 168 205 253 318 379
#     4  11  25  44  66  86 120 164 222 263 324 391
#     4  10  20  38  60  90 132 164 208 256 320 386
#
# _framework density 22.313621000000001
#
# number of rings (size 3 to 8) (size 9 to 14) (size 15 to 20)
#    0.000    1.867    2.667    1.200    3.733    0.533 
#    2.400    0.000    1.467    0.000    0.000    0.000 
#    0.000    0.000    0.000    0.000    0.000    0.000 
#
# Total GULP energy -167084.636642 kJ/mol
# GULP energy per Si atom -5569.487888 kJ/mol
# Density = 2.226283 g / cm^3
# Si number density = 22.313621 Si / 1000 Ang^3
#
#
#
# Elastic Constant Matrix: (Units=GPa)
#
#
# Indices 1 2 3 4 5 6 
#
# 1 201.9141 48.3372 38.1054 0.0000 0.0000 0.0000
# 2 48.3372 93.8213 8.3107 0.0000 0.0000 0.0000
# 3 38.1054 8.3107 39.0595 0.0000 0.0000 0.0000
# 4 0.0000 0.0000 0.0000 28.2106 0.0000 0.0000
# 5 0.0000 0.0000 0.0000 0.0000 30.3006 0.0000
# 6 0.0000 0.0000 0.0000 0.0000 0.0000 27.9175
#
#
#
# Elastic Compliance Matrix: (Units=1/GPa)
#
#
# Indices 1 2 3 4 5 6 
#
# 1 0.006795 -0.002970 -0.005998 0.000000 0.000000 0.000000
# 2 -0.002970 0.012161 0.000310 0.000000 0.000000 0.000000
# 3 -0.005998 0.000310 0.031387 0.000000 0.000000 0.000000
# 4 0.000000 0.000000 0.000000 0.035448 0.000000 0.000000
# 5 0.000000 0.000000 0.000000 0.000000 0.033003 0.000000
# 6 0.000000 0.000000 0.000000 0.000000 0.000000 0.035820
#
#
# Mechanical properties :
#
#
# Convention : Reuss Voigt Hill
#
# Bulk Modulus (GPa) = 30.27695 58.25574 44.26635
# Shear Modulus (GPa) = 27.33159 33.28851 30.31005
#
# Velocity S-wave (km/s) = 3.50363 3.86663 3.68960
# Velocity P-wave (km/s) = 5.47408 6.78961 6.16702
#
# Compressibility (1/GPa) = 0.03302842
#
# Stress axis : x y z
#
# Youngs Moduli (GPa) = 147.15817 82.22894 31.86025
#
# Poissons Ratio (x) = 0.24420 0.19108
# Poissons Ratio (y) = 0.43703 -0.00987
# Poissons Ratio (z) = 0.88259 -0.02547
#
# Static dielectric constant tensor:
#      x y z
#    x 1.845620 0.000000 0.000000 
#    y 0.000000 1.944260 0.000000 
#    z 0.000000 0.000000 2.008700 
# 
# From -- ./inp_files/25745.got.cif
#   From: 2010.05.17/outbox.cif.g08.bks.cpg/sg20_13_cif.got.tgz:25745.got - 2010.06.03 22:52:26.
