data_PCOD9317253
_publ_section_title
;
Structure prediction by ZEFSAII (Michael W. Deem and Ramdas Pophale) SiO2 
 PCOD9317253
Probable space group: C 2 2 21
;
_chemical_formula_sum "Si O2"
_cell_formula_units_Z 48
_cell_length_a 9.409549
_cell_length_b 17.697466
_cell_length_c 16.064573
_cell_angle_alpha 90.000000
_cell_angle_beta 90.000000
_cell_angle_gamma 90.000000
_cell_volume 2675.155806
_symmetry_space_group_name_H-M "C 2 2 21"
_symmetry_group_IT_number 20
_symmetry_cell_setting 'orthorhombic'
loop_
_space_group_symop_operation_xyz
x,y,z
-x,-y,1/2+z
x,-y,-z
-x,y,1/2-z
1/2+x,1/2+y,z
1/2-x,1/2-y,1/2+z
1/2+x,1/2-y,-z
1/2-x,1/2+y,1/2-z
loop_
_atom_site_type_symbol
_atom_site_label
_atom_site_fract_x
_atom_site_fract_y
_atom_site_fract_z
Si Si1 0.094294 0.924912 0.332663
Si Si2 0.695448 0.723473 0.914813
Si Si3 0.817957 0.958776 0.414465
Si Si4 0.363512 0.267766 0.078175
Si Si5 0.829398 0.303585 0.753090
Si Si6 0.832087 0.519757 0.245316
O O1 0.139293 0.852294 0.385048
O O2 0.232102 0.970719 0.305356
O O3 0.000000 0.902581 0.250000
O O4 0.980965 0.971917 0.386072
O O5 0.701036 0.632090 0.916861
O O6 0.531968 0.749082 0.929543
O O7 0.734119 0.754041 0.822353
O O8 0.789672 0.755613 0.989817
O O9 0.717975 0.995256 0.345711
O O10 0.790209 0.000000 0.500000
O O11 0.291647 0.218908 0.152314
O O12 0.803025 0.391867 0.739147
O O13 0.000000 0.290997 0.750000
O O14 0.000000 0.506465 0.250000
#
# Coordination Sequence:
#
# PCOD9317253 Si02
#       6
#     8   8   8   8   8   8
#     4   9  19  36  56  76 106 146 179 213 269 329
#     4  10  21  35  56  80 105 140 179 216 265 320
#     4  10  20  36  55  78 108 142 179 222 271 323
#     4  10  19  36  56  77 106 141 176 218 264 316
#     4   9  18  35  54  74 106 142 173 211 266 319
#     4  10  20  34  55  79 104 139 179 222 269 317
#
# _framework density 17.942879999999999
#
# number of rings (size 3 to 8) (size 9 to 14) (size 15 to 20)
#    0.000    2.333    0.000    4.500    0.000    4.000 
#    0.000    3.333    0.000    0.000    0.000    0.000 
#    0.000    0.000    0.000    0.000    0.000    0.000 
#
# Total GULP energy -133808.333584 kJ/mol
# GULP energy per Si atom -5575.347233 kJ/mol
# Density = 1.790204 g / cm^3
# Si number density = 17.942880 Si / 1000 Ang^3
#
#
#
# Elastic Constant Matrix: (Units=GPa)
#
#
# Indices 1 2 3 4 5 6 
#
# 1 66.5682 40.8900 23.7477 0.0000 0.0000 0.0000
# 2 40.8900 68.5060 34.0881 0.0000 0.0000 0.0000
# 3 23.7477 34.0881 78.8943 0.0000 0.0000 0.0000
# 4 0.0000 0.0000 0.0000 31.7827 0.0000 0.0000
# 5 0.0000 0.0000 0.0000 0.0000 19.3735 0.0000
# 6 0.0000 0.0000 0.0000 0.0000 0.0000 14.9852
#
#
#
# Elastic Compliance Matrix: (Units=1/GPa)
#
#
# Indices 1 2 3 4 5 6 
#
# 1 0.023824 -0.013569 -0.001308 0.000000 0.000000 0.000000
# 2 -0.013569 0.026323 -0.007289 0.000000 0.000000 0.000000
# 3 -0.001308 -0.007289 0.016219 0.000000 0.000000 0.000000
# 4 0.000000 0.000000 0.000000 0.031464 0.000000 0.000000
# 5 0.000000 0.000000 0.000000 0.000000 0.051617 0.000000
# 6 0.000000 0.000000 0.000000 0.000000 0.000000 0.066732
#
#
# Mechanical properties :
#
#
# Convention : Reuss Voigt Hill
#
# Bulk Modulus (GPa) = 45.38743 45.71334 45.55039
# Shear Modulus (GPa) = 18.66675 20.91114 19.78895
#
# Velocity S-wave (km/s) = 3.22893 3.41754 3.32458
# Velocity P-wave (km/s) = 6.26512 6.41134 6.33865
#
# Compressibility (1/GPa) = 0.02203253
#
# Stress axis : x y z
#
# Youngs Moduli (GPa) = 41.97494 37.98902 61.65797
#
# Poissons Ratio (x) = 0.51547 0.08067
# Poissons Ratio (y) = 0.56956 0.44944
# Poissons Ratio (z) = 0.05492 0.27691
#
# Static dielectric constant tensor:
#      x y z
#    x 1.611270 0.000000 0.000000 
#    y 0.000000 1.617300 0.000000 
#    z 0.000000 0.000000 1.639800 
# 
# From -- ./inp_files/18891.got.cif
#   From: 2010.05.17/outbox.cif.g08.bks.cpg/sg20_10_cif.got.tgz:18891.got - 2010.06.03 22:52:26.
