data_PCOD9317930
_publ_section_title
;
Structure prediction by ZEFSAII (Michael W. Deem and Ramdas Pophale) SiO2 
 PCOD9317930
Probable space group: C 2 2 21
;
_chemical_formula_sum "Si O2"
_cell_formula_units_Z 40
_cell_length_a 23.381162
_cell_length_b 7.184365
_cell_length_c 10.948493
_cell_angle_alpha 90.000000
_cell_angle_beta 90.000000
_cell_angle_gamma 90.000000
_cell_volume 1839.114737
_symmetry_space_group_name_H-M "C 2 2 21"
_symmetry_group_IT_number 20
_symmetry_cell_setting 'orthorhombic'
loop_
_space_group_symop_operation_xyz
x,y,z
-x,-y,1/2+z
x,-y,-z
-x,y,1/2-z
1/2+x,1/2+y,z
1/2-x,1/2-y,1/2+z
1/2+x,1/2-y,-z
1/2-x,1/2+y,1/2-z
loop_
_atom_site_type_symbol
_atom_site_label
_atom_site_fract_x
_atom_site_fract_y
_atom_site_fract_z
Si Si1 0.003723 0.796948 0.882952
Si Si2 0.229692 0.416573 0.134877
Si Si3 0.040158 0.220806 0.638688
Si Si4 0.126742 0.273243 0.022984
Si Si5 0.161073 0.751733 0.243921
O O1 0.000000 0.704472 0.750000
O O2 0.973636 0.998576 0.867969
O O3 0.976096 0.708864 0.003961
O O4 0.070557 0.806972 0.915811
O O5 0.193242 0.557532 0.217510
O O6 0.289073 0.373011 0.197584
O O7 0.241477 0.500000 0.000000
O O8 0.183815 0.255044 0.104275
O O9 0.105503 0.258722 0.671884
O O10 0.000000 0.288432 0.750000
O O11 0.138533 0.189590 0.889850
O O12 0.117944 0.500000 0.000000
#
# Coordination Sequence:
#
# PCOD9317930 Si02
#       5
#     8   8   8   8   8
#     4  10  21  37  58  94 122 158 205 257 311 372
#     4   9  22  41  64  93 124 167 207 265 313 373
#     4  10  20  36  63  92 118 162 206 250 316 376
#     4   9  20  43  63  86 129 165 206 259 319 376
#     4  10  20  41  66  88 127 165 211 259 316 374
#
# _framework density 21.749594999999999
#
# number of rings (size 3 to 8) (size 9 to 14) (size 15 to 20)
#    0.000    2.800    2.000    0.000    2.800    3.200 
#   10.800    3.000    8.800    0.000    0.000    0.000 
#    0.000    0.000    0.000    0.000    0.000    0.000 
#
# Total GULP energy -111598.283353 kJ/mol
# GULP energy per Si atom -5579.914168 kJ/mol
# Density = 2.170009 g / cm^3
# Si number density = 21.749595 Si / 1000 Ang^3
#
#
#
# Elastic Constant Matrix: (Units=GPa)
#
#
# Indices 1 2 3 4 5 6 
#
# 1 217.4374 28.7582 119.8074 0.0000 0.0000 0.0000
# 2 28.7582 69.3977 34.3626 0.0000 0.0000 0.0000
# 3 119.8074 34.3626 199.7587 0.0000 0.0000 0.0000
# 4 0.0000 0.0000 0.0000 -0.9363 0.0000 0.0000
# 5 0.0000 0.0000 0.0000 0.0000 53.5253 0.0000
# 6 0.0000 0.0000 0.0000 0.0000 0.0000 -18.5486
#
#
#
# Elastic Compliance Matrix: (Units=1/GPa)
#
#
# Indices 1 2 3 4 5 6 
#
# 1 0.006919 -0.000888 -0.003997 0.000000 0.000000 0.000000
# 2 -0.000888 0.015865 -0.002197 0.000000 0.000000 0.000000
# 3 -0.003997 -0.002197 0.007781 0.000000 0.000000 0.000000
# 4 0.000000 0.000000 0.000000 -1.067995 0.000000 0.000000
# 5 0.000000 0.000000 0.000000 0.000000 0.018683 0.000000
# 6 0.000000 0.000000 0.000000 0.000000 0.000000 -0.053912
#
#
# Mechanical properties :
#
#
# Convention : Reuss Voigt Hill
#
# Bulk Modulus (GPa) = 60.96726 94.71669 77.84198
# Shear Modulus (GPa) = -4.74820 27.05243 11.15212
#
# Velocity S-wave (km/s) = -1.47914 3.53060 2.26686
# Velocity P-wave (km/s) = 5.01748 7.76295 6.53600
#
# Compressibility (1/GPa) = 0.01640225
#
# Stress axis : x y z
#
# Youngs Moduli (GPa) = 144.53559 63.03055 128.51782
#
# Poissons Ratio (x) = 0.05597 0.51366
# Poissons Ratio (y) = 0.12836 0.28230
# Poissons Ratio (z) = 0.57768 0.13845
#
# Static dielectric constant tensor:
#      x y z
#    x 1.751620 0.000000 0.000000 
#    y 0.000000 1.909660 0.000000 
#    z 0.000000 0.000000 1.825050 
# 
# From -- ./inp_files/16159.got.cif
#   From: 2010.05.17/outbox.cif.g08.bks.cpg/sg20_9_cif.got.tgz:16159.got - 2010.06.03 22:52:26.
