data_PCOD9317808
_publ_section_title
;
Structure prediction by ZEFSAII (Michael W. Deem and Ramdas Pophale) SiO2 
 PCOD9317808
Probable space group: C 2 2 21
;
_chemical_formula_sum "Si O2"
_cell_formula_units_Z 40
_cell_length_a 34.491863
_cell_length_b 12.697792
_cell_length_c 5.042074
_cell_angle_alpha 90.000000
_cell_angle_beta 90.000000
_cell_angle_gamma 90.000000
_cell_volume 2208.279681
_symmetry_space_group_name_H-M "C 2 2 21"
_symmetry_group_IT_number 20
_symmetry_cell_setting 'orthorhombic'
loop_
_space_group_symop_operation_xyz
x,y,z
-x,-y,1/2+z
x,-y,-z
-x,y,1/2-z
1/2+x,1/2+y,z
1/2-x,1/2-y,1/2+z
1/2+x,1/2-y,-z
1/2-x,1/2+y,1/2-z
loop_
_atom_site_type_symbol
_atom_site_label
_atom_site_fract_x
_atom_site_fract_y
_atom_site_fract_z
Si Si1 0.843278 0.798020 0.594572
Si Si2 0.612905 0.377259 0.415189
Si Si3 0.315832 0.931176 0.242116
Si Si4 0.256868 0.684087 0.495676
Si Si5 0.025086 0.871619 0.499260
O O1 0.874078 0.843012 0.380396
O O2 0.837604 0.672269 0.638447
O O3 0.801735 0.847020 0.514154
O O4 0.855627 0.831335 0.886507
O O5 0.612100 0.500000 0.500000
O O6 0.569527 0.336458 0.477882
O O7 0.275407 0.891731 0.115068
O O8 0.308664 0.000000 0.500000
O O9 0.334619 0.000000 0.000000
O O10 0.245187 0.717504 0.199471
O O11 0.000000 0.838026 0.250000
O O12 0.026278 0.000000 0.500000
O O13 0.000000 0.838221 0.750000
#
# Coordination Sequence:
#
# PCOD9317808 Si02
#       5
#     8   8   8   8   8
#     4  11  22  37  53  78 111 138 179 233 270 315
#     4  11  22  35  53  80 112 146 175 211 270 325
#     4  11  22  37  56  76 102 144 191 231 274 318
#     4  10  20  36  52  70  98 136 177 222 270 311
#     4   9  17  31  51  74 104 140 174 205 246 315
#
# _framework density 18.113647
#
# number of rings (size 3 to 8) (size 9 to 14) (size 15 to 20)
#    0.000    1.600    0.000    7.800    0.000    5.600 
#    0.000    0.000    0.000    0.000    0.000    0.000 
#    0.000   44.800    0.000    0.000    0.000    0.000 
#
# Total GULP energy -111439.330220 kJ/mol
# GULP energy per Si atom -5571.966511 kJ/mol
# Density = 1.807242 g / cm^3
# Si number density = 18.113647 Si / 1000 Ang^3
#
#
#
# Elastic Constant Matrix: (Units=GPa)
#
#
# Indices 1 2 3 4 5 6 
#
# 1 56.5109 -3.6540 -9.3906 0.0000 0.0000 0.0000
# 2 -3.6540 63.0785 2.6624 0.0000 0.0000 0.0000
# 3 -9.3906 2.6624 74.6009 0.0000 0.0000 0.0000
# 4 0.0000 0.0000 0.0000 80.3131 0.0000 0.0000
# 5 0.0000 0.0000 0.0000 0.0000 26.3967 0.0000
# 6 0.0000 0.0000 0.0000 0.0000 0.0000 7.2596
#
#
#
# Elastic Compliance Matrix: (Units=1/GPa)
#
#
# Indices 1 2 3 4 5 6 
#
# 1 0.018131 0.000955 0.002248 0.000000 0.000000 0.000000
# 2 0.000955 0.015928 -0.000448 0.000000 0.000000 0.000000
# 3 0.002248 -0.000448 0.013704 0.000000 0.000000 0.000000
# 4 0.000000 0.000000 0.000000 0.012451 0.000000 0.000000
# 5 0.000000 0.000000 0.000000 0.000000 0.037884 0.000000
# 6 0.000000 0.000000 0.000000 0.000000 0.000000 0.137750
#
#
# Mechanical properties :
#
#
# Convention : Reuss Voigt Hill
#
# Bulk Modulus (GPa) = 18.77121 19.26956 19.02038
# Shear Modulus (GPa) = 20.15369 36.43203 28.29286
#
# Velocity S-wave (km/s) = 3.33922 4.48962 3.95646
# Velocity P-wave (km/s) = 5.02521 6.12673 5.60310
#
# Compressibility (1/GPa) = 0.05327308
#
# Stress axis : x y z
#
# Youngs Moduli (GPa) = 55.15394 62.78444 72.97323
#
# Poissons Ratio (x) = -0.05998 -0.16406
# Poissons Ratio (y) = -0.05269 0.03270
# Poissons Ratio (z) = -0.12400 0.02814
#
# Static dielectric constant tensor:
#      x y z
#    x 1.595270 0.000000 0.000000 
#    y 0.000000 1.715190 0.000000 
#    z 0.000000 0.000000 1.599830 
# 
# From -- ./inp_files/4046.got.cif
#   From: 2010.05.17/outbox.cif.g08.bks.cpg/sg20_3_cif.got.tgz:4046.got - 2010.06.03 22:52:26.
