data_PCOD9317039
_publ_section_title
;
Structure prediction by ZEFSAII (Michael W. Deem and Ramdas Pophale) SiO2 
 PCOD9317039
Probable space group: C 2 2 21
;
_chemical_formula_sum "Si O2"
_cell_formula_units_Z 48
_cell_length_a 12.014794
_cell_length_b 13.628482
_cell_length_c 15.638725
_cell_angle_alpha 90.000000
_cell_angle_beta 90.000000
_cell_angle_gamma 90.000000
_cell_volume 2560.738062
_symmetry_space_group_name_H-M "C 2 2 21"
_symmetry_group_IT_number 20
_symmetry_cell_setting 'orthorhombic'
loop_
_space_group_symop_operation_xyz
x,y,z
-x,-y,1/2+z
x,-y,-z
-x,y,1/2-z
1/2+x,1/2+y,z
1/2-x,1/2-y,1/2+z
1/2+x,1/2-y,-z
1/2-x,1/2+y,1/2-z
loop_
_atom_site_type_symbol
_atom_site_label
_atom_site_fract_x
_atom_site_fract_y
_atom_site_fract_z
Si Si1 0.082023 0.349777 0.440033
Si Si2 0.736349 0.665590 0.801498
Si Si3 0.161557 0.375366 0.797142
Si Si4 0.552775 0.926131 0.615850
Si Si5 0.628935 0.544003 0.225291
Si Si6 0.908045 0.748685 0.673905
O O1 0.186541 0.314757 0.384363
O O2 0.092439 0.352511 0.541834
O O3 0.072120 0.462917 0.411966
O O4 0.971852 0.294524 0.406977
O O5 0.654970 0.757967 0.798443
O O6 0.679851 0.559349 0.804637
O O7 0.813173 0.680155 0.716295
O O8 0.114595 0.409174 0.705171
O O9 0.288015 0.415259 0.799729
O O10 0.078600 0.414916 0.868056
O O11 0.500000 0.529027 0.250000
O O12 0.631482 0.638864 0.162143
O O13 0.000000 0.753273 0.750000
#
# Coordination Sequence:
#
# PCOD9317039 Si02
#       6
#     8   8   8   8   8   8
#     4  10  19  37  61  89 108 152 197 250 286 347
#     4  10  19  34  59  83 117 150 193 233 296 342
#     4  10  21  38  57  87 115 155 191 246 289 351
#     4  10  21  36  62  87 116 144 206 247 295 329
#     4  10  19  33  57  85 115 152 190 229 284 362
#     4   8  17  32  56  85 108 150 191 233 283 341
#
# _framework density 18.744596000000001
#
# number of rings (size 3 to 8) (size 9 to 14) (size 15 to 20)
#    0.000    2.333    1.667    2.000    7.000    0.000 
#    6.000    0.000    0.000    0.000    0.000    0.000 
#    0.000    0.000    0.000    0.000    0.000    0.000 
#
# Total GULP energy -133667.892339 kJ/mol
# GULP energy per Si atom -5569.495514 kJ/mol
# Density = 1.870193 g / cm^3
# Si number density = 18.744596 Si / 1000 Ang^3
#
#
#
# Elastic Constant Matrix: (Units=GPa)
#
#
# Indices 1 2 3 4 5 6 
#
# 1 78.8350 14.5681 7.0576 0.0000 0.0000 0.0000
# 2 14.5681 65.2876 7.6360 0.0000 0.0000 0.0000
# 3 7.0576 7.6360 45.6289 0.0000 0.0000 0.0000
# 4 0.0000 0.0000 0.0000 16.4359 0.0000 0.0000
# 5 0.0000 0.0000 0.0000 0.0000 1.9054 0.0000
# 6 0.0000 0.0000 0.0000 0.0000 0.0000 35.3081
#
#
#
# Elastic Compliance Matrix: (Units=1/GPa)
#
#
# Indices 1 2 3 4 5 6 
#
# 1 0.013343 -0.002791 -0.001597 0.000000 0.000000 0.000000
# 2 -0.002791 0.016206 -0.002280 0.000000 0.000000 0.000000
# 3 -0.001597 -0.002280 0.022545 0.000000 0.000000 0.000000
# 4 0.000000 0.000000 0.000000 0.060843 0.000000 0.000000
# 5 0.000000 0.000000 0.000000 0.000000 0.524825 0.000000
# 6 0.000000 0.000000 0.000000 0.000000 0.000000 0.028322
#
#
# Mechanical properties :
#
#
# Convention : Reuss Voigt Hill
#
# Bulk Modulus (GPa) = 25.80096 27.58610 26.69353
# Shear Modulus (GPa) = 7.22189 21.42920 14.32554
#
# Velocity S-wave (km/s) = 1.96498 3.38482 2.76750
# Velocity P-wave (km/s) = 4.35230 5.47949 4.94810
#
# Compressibility (1/GPa) = 0.03875825
#
# Stress axis : x y z
#
# Youngs Moduli (GPa) = 74.94361 61.70454 44.35664
#
# Poissons Ratio (x) = 0.17220 0.07083
# Poissons Ratio (y) = 0.20914 0.10115
# Poissons Ratio (z) = 0.11967 0.14071
#
# Static dielectric constant tensor:
#      x y z
#    x 1.720070 0.000000 0.000000 
#    y 0.000000 1.666110 0.000000 
#    z 0.000000 0.000000 1.664470 
# 
# From -- ./inp_files/24327.got.cif
#   From: 2010.05.17/outbox.cif.g08.bks.cpg/sg20_13_cif.got.tgz:24327.got - 2010.06.03 22:52:26.
