data_PCOD9317912
_publ_section_title
;
Structure prediction by ZEFSAII (Michael W. Deem and Ramdas Pophale) SiO2 
 PCOD9317912
Probable space group: C 2 2 21
;
_chemical_formula_sum "Si O2"
_cell_formula_units_Z 36
_cell_length_a 13.839221
_cell_length_b 22.970099
_cell_length_c 5.193239
_cell_angle_alpha 90.000000
_cell_angle_beta 90.000000
_cell_angle_gamma 90.000000
_cell_volume 1650.869795
_symmetry_space_group_name_H-M "C 2 2 21"
_symmetry_group_IT_number 20
_symmetry_cell_setting 'orthorhombic'
loop_
_space_group_symop_operation_xyz
x,y,z
-x,-y,1/2+z
x,-y,-z
-x,y,1/2-z
1/2+x,1/2+y,z
1/2-x,1/2-y,1/2+z
1/2+x,1/2-y,-z
1/2-x,1/2+y,1/2-z
loop_
_atom_site_type_symbol
_atom_site_label
_atom_site_fract_x
_atom_site_fract_y
_atom_site_fract_z
Si Si1 0.096594 0.223076 0.641011
Si Si2 0.273764 0.178595 0.922807
Si Si3 0.565188 0.000000 0.000000
Si Si4 0.220937 0.400562 0.929805
Si Si5 0.939424 0.908421 0.996979
O O1 0.167381 0.204190 0.872532
O O2 0.155114 0.267896 0.469235
O O3 0.068992 0.162381 0.505274
O O4 0.000000 0.251090 0.750000
O O5 0.298095 0.143416 0.665151
O O6 0.274629 0.135788 0.165903
O O7 0.636199 0.947258 0.925416
O O8 0.500000 0.986131 0.250000
O O9 0.327653 0.427427 0.983235
O O10 0.000000 0.926657 0.750000
O O11 0.000000 0.925229 0.250000
#
# Coordination Sequence:
#
# PCOD9317912 Si02
#       5
#     8   8   4   8   8
#     4  10  21  37  59  90 131 170 203 247 310 382
#     4  11  23  39  63  94 130 169 214 260 315 385
#     4  12  28  50  72  92 122 172 226 280 340 382
#     4  11  24  44  64  90 126 165 217 277 321 377
#     4  10  20  36  61  92 125 161 194 240 314 386
#
# _framework density 21.806685999999999
#
# number of rings (size 3 to 8) (size 9 to 14) (size 15 to 20)
#    0.000    1.333    0.000    8.000    0.000    6.222 
#    0.000    3.333    0.000    0.000    0.000    0.000 
#    0.000    0.000    0.000    0.000    0.000    0.000 
#
# Total GULP energy -100768.427808 kJ/mol
# GULP energy per Si atom -5598.245989 kJ/mol
# Density = 2.175705 g / cm^3
# Si number density = 21.806686 Si / 1000 Ang^3
#
#
#
# Elastic Constant Matrix: (Units=GPa)
#
#
# Indices 1 2 3 4 5 6 
#
# 1 128.9414 40.5957 35.7999 0.0000 0.0000 0.0000
# 2 40.5957 67.5510 29.5371 0.0000 0.0000 0.0000
# 3 35.7999 29.5371 125.6094 0.0000 0.0000 0.0000
# 4 0.0000 0.0000 0.0000 12.2732 0.0000 0.0000
# 5 0.0000 0.0000 0.0000 0.0000 32.9326 0.0000
# 6 0.0000 0.0000 0.0000 0.0000 0.0000 17.8896
#
#
#
# Elastic Compliance Matrix: (Units=1/GPa)
#
#
# Indices 1 2 3 4 5 6 
#
# 1 0.009837 -0.005223 -0.001576 0.000000 0.000000 0.000000
# 2 -0.005223 0.019273 -0.003044 0.000000 0.000000 0.000000
# 3 -0.001576 -0.003044 0.009126 0.000000 0.000000 0.000000
# 4 0.000000 0.000000 0.000000 0.081478 0.000000 0.000000
# 5 0.000000 0.000000 0.000000 0.000000 0.030365 0.000000
# 6 0.000000 0.000000 0.000000 0.000000 0.000000 0.055899
#
#
# Mechanical properties :
#
#
# Convention : Reuss Voigt Hill
#
# Bulk Modulus (GPa) = 53.90132 59.32971 56.61552
# Shear Modulus (GPa) = 21.56601 27.03034 24.29818
#
# Velocity S-wave (km/s) = 3.14819 3.52454 3.34167
# Velocity P-wave (km/s) = 6.16330 6.62037 6.39592
#
# Compressibility (1/GPa) = 0.01855242
#
# Stress axis : x y z
#
# Youngs Moduli (GPa) = 101.65406 51.88544 109.57801
#
# Poissons Ratio (x) = 0.27099 0.17265
# Poissons Ratio (y) = 0.53093 0.33350
# Poissons Ratio (z) = 0.16016 0.15791
#
# Static dielectric constant tensor:
#      x y z
#    x 1.793820 0.000000 0.000000 
#    y 0.000000 1.807120 0.000000 
#    z 0.000000 0.000000 1.839120 
# 
# From -- ./inp_files/1212.got.cif
#   From: 2010.05.17/outbox.cif.g08.bks.cpg/sg20_1_cif.got.tgz:1212.got - 2010.06.03 22:52:26.
