data_PCOD9317355
_publ_section_title
;
Structure prediction by ZEFSAII (Michael W. Deem and Ramdas Pophale) SiO2 
 PCOD9317355
Probable space group: C 2 2 21
;
_chemical_formula_sum "Si O2"
_cell_formula_units_Z 44
_cell_length_a 25.957434
_cell_length_b 9.764189
_cell_length_c 9.253428
_cell_angle_alpha 90.000000
_cell_angle_beta 90.000000
_cell_angle_gamma 90.000000
_cell_volume 2345.311785
_symmetry_space_group_name_H-M "C 2 2 21"
_symmetry_group_IT_number 20
_symmetry_cell_setting 'orthorhombic'
loop_
_space_group_symop_operation_xyz
x,y,z
-x,-y,1/2+z
x,-y,-z
-x,y,1/2-z
1/2+x,1/2+y,z
1/2-x,1/2-y,1/2+z
1/2+x,1/2-y,-z
1/2-x,1/2+y,1/2-z
loop_
_atom_site_type_symbol
_atom_site_label
_atom_site_fract_x
_atom_site_fract_y
_atom_site_fract_z
Si Si1 0.174456 0.700091 0.983308
Si Si2 0.300239 0.978115 0.746578
Si Si3 0.281988 0.500000 0.500000
Si Si4 0.592780 0.116365 0.383175
Si Si5 0.476222 0.361991 0.088466
Si Si6 0.556642 0.138498 0.066929
O O1 0.206831 0.626532 0.112121
O O2 0.114782 0.669056 0.016807
O O3 0.186659 0.621666 0.833580
O O4 0.185507 0.860575 0.988961
O O5 0.254034 0.999032 0.857569
O O6 0.348508 0.914952 0.835655
O O7 0.576533 0.271958 0.423675
O O8 0.559917 0.107366 0.236805
O O9 0.580386 0.000000 0.500000
O O10 0.500000 0.388883 0.250000
O O11 0.519965 0.262046 0.025773
O O12 0.471066 0.500000 0.000000
O O13 0.537359 0.000000 0.000000
#
# Coordination Sequence:
#
# PCOD9317355 Si02
#       6
#     8   8   4   8   8   8
#     4  10  21  38  59  86 116 155 199 240 296 355
#     4  10  20  40  59  82 118 154 196 239 289 362
#     4  12  22  34  62  88 118 150 196 258 298 332
#     4  10  19  37  60  83 113 151 196 236 287 348
#     4  10  23  38  57  87 120 149 192 248 296 347
#     4  10  19  38  61  81 112 154 196 236 285 362
#
# _framework density 18.760831
#
# number of rings (size 3 to 8) (size 9 to 14) (size 15 to 20)
#    0.000    1.818    4.545    1.636    1.273    1.455 
#    0.000    0.000    4.000    0.000    0.000    0.000 
#    0.000    0.000    0.000    0.000    0.000    0.000 
#
# Total GULP energy -122581.408969 kJ/mol
# GULP energy per Si atom -5571.882226 kJ/mol
# Density = 1.871813 g / cm^3
# Si number density = 18.760831 Si / 1000 Ang^3
#
#
#
# Elastic Constant Matrix: (Units=GPa)
#
#
# Indices 1 2 3 4 5 6 
#
# 1 48.4524 28.0821 20.6624 0.0000 0.0000 0.0000
# 2 28.0821 182.1101 58.2061 0.0000 0.0000 0.0000
# 3 20.6624 58.2061 64.9865 0.0000 0.0000 0.0000
# 4 0.0000 0.0000 0.0000 35.2623 0.0000 0.0000
# 5 0.0000 0.0000 0.0000 0.0000 14.9433 0.0000
# 6 0.0000 0.0000 0.0000 0.0000 0.0000 -19.8512
#
#
#
# Elastic Compliance Matrix: (Units=1/GPa)
#
#
# Indices 1 2 3 4 5 6 
#
# 1 0.024285 -0.001789 -0.006119 0.000000 0.000000 0.000000
# 2 -0.001789 0.007825 -0.006440 0.000000 0.000000 0.000000
# 3 -0.006119 -0.006440 0.023102 0.000000 0.000000 0.000000
# 4 0.000000 0.000000 0.000000 0.028359 0.000000 0.000000
# 5 0.000000 0.000000 0.000000 0.000000 0.066919 0.000000
# 6 0.000000 0.000000 0.000000 0.000000 0.000000 -0.050375
#
#
# Mechanical properties :
#
#
# Convention : Reuss Voigt Hill
#
# Bulk Modulus (GPa) = 37.71356 56.60558 47.15957
# Shear Modulus (GPa) = 36.32379 18.64411 27.48395
#
# Velocity S-wave (km/s) = 4.40494 3.15585 3.83164
# Velocity P-wave (km/s) = 6.78361 6.59673 6.69082
#
# Compressibility (1/GPa) = 0.02651566
#
# Stress axis : x y z
#
# Youngs Moduli (GPa) = 41.17736 127.78777 43.28712
#
# Poissons Ratio (x) = 0.22863 0.26487
# Poissons Ratio (y) = 0.07367 0.27878
# Poissons Ratio (z) = 0.25196 0.82297
#
# Static dielectric constant tensor:
#      x y z
#    x 1.663030 0.000000 0.000000 
#    y 0.000000 1.651060 0.000000 
#    z 0.000000 0.000000 1.707190 
# 
# From -- ./inp_files/6370.got.cif
#   From: 2010.05.17/outbox.cif.g08.bks.cpg/sg20_4_cif.got.tgz:6370.got - 2010.06.03 22:52:26.
