data_PCOD9317204
_publ_section_title
;
Structure prediction by ZEFSAII (Michael W. Deem and Ramdas Pophale) SiO2 
 PCOD9317204
Probable space group: C 2 2 21
;
_chemical_formula_sum "Si O2"
_cell_formula_units_Z 48
_cell_length_a 27.984307
_cell_length_b 9.221379
_cell_length_c 8.220346
_cell_angle_alpha 90.000000
_cell_angle_beta 90.000000
_cell_angle_gamma 90.000000
_cell_volume 2121.292352
_symmetry_space_group_name_H-M "C 2 2 21"
_symmetry_group_IT_number 20
_symmetry_cell_setting 'orthorhombic'
loop_
_space_group_symop_operation_xyz
x,y,z
-x,-y,1/2+z
x,-y,-z
-x,y,1/2-z
1/2+x,1/2+y,z
1/2-x,1/2-y,1/2+z
1/2+x,1/2-y,-z
1/2-x,1/2+y,1/2-z
loop_
_atom_site_type_symbol
_atom_site_label
_atom_site_fract_x
_atom_site_fract_y
_atom_site_fract_z
Si Si1 0.068816 0.299356 0.830141
Si Si2 0.771476 0.169498 0.970797
Si Si3 0.980517 0.828056 0.009148
Si Si4 0.932698 0.410480 0.172101
Si Si5 0.816899 0.308876 0.652498
Si Si6 0.675735 0.095247 0.666028
O O1 0.052835 0.219751 0.662689
O O2 0.054058 0.468139 0.804381
O O3 0.125767 0.291575 0.859434
O O4 0.034383 0.226531 0.960156
O O5 0.715860 0.217562 0.994845
O O6 0.796511 0.262297 0.114125
O O7 0.796329 0.214099 0.801878
O O8 0.778617 0.000000 0.000000
O O9 0.960200 0.736659 0.859671
O O10 0.979122 0.000000 0.000000
O O11 0.878361 0.369369 0.209157
O O12 0.934453 0.500000 0.000000
O O13 0.806710 0.475695 0.705850
O O14 0.674290 0.000000 0.500000
#
# Coordination Sequence:
#
# PCOD9317204 Si02
#       6
#     8   8   8   8   8   8
#     4   9  20  39  59  82 119 160 199 244 304 376
#     4  11  21  35  59  88 118 156 204 253 304 355
#     4  10  19  35  60  91 121 149 193 257 317 367
#     4   8  15  32  58  80 105 149 195 231 284 365
#     4  10  21  39  60  85 120 163 204 249 298 364
#     4   8  16  32  54  80 110 147 194 240 287 351
#
# _framework density 22.627714999999998
#
# number of rings (size 3 to 8) (size 9 to 14) (size 15 to 20)
#    0.000    2.667    0.000    4.000    0.000    2.667 
#    0.000   18.333    0.000    4.000    0.000    0.000 
#    0.000    0.000    0.000    0.000    0.000    0.000 
#
# Total GULP energy -134056.520036 kJ/mol
# GULP energy per Si atom -5585.688335 kJ/mol
# Density = 2.257621 g / cm^3
# Si number density = 22.627715 Si / 1000 Ang^3
#
#
#
# Elastic Constant Matrix: (Units=GPa)
#
#
# Indices 1 2 3 4 5 6 
#
# 1 134.8307 86.4396 29.8315 0.0000 0.0000 0.0000
# 2 86.4396 193.4244 34.1131 0.0000 0.0000 0.0000
# 3 29.8315 34.1131 62.4908 0.0000 0.0000 0.0000
# 4 0.0000 0.0000 0.0000 19.6557 0.0000 0.0000
# 5 0.0000 0.0000 0.0000 0.0000 18.1648 0.0000
# 6 0.0000 0.0000 0.0000 0.0000 0.0000 24.3835
#
#
#
# Elastic Compliance Matrix: (Units=1/GPa)
#
#
# Indices 1 2 3 4 5 6 
#
# 1 0.010819 -0.004342 -0.002794 0.000000 0.000000 0.000000
# 2 -0.004342 0.007463 -0.002001 0.000000 0.000000 0.000000
# 3 -0.002794 -0.002001 0.018429 0.000000 0.000000 0.000000
# 4 0.000000 0.000000 0.000000 0.050876 0.000000 0.000000
# 5 0.000000 0.000000 0.000000 0.000000 0.055052 0.000000
# 6 0.000000 0.000000 0.000000 0.000000 0.000000 0.041011
#
#
# Mechanical properties :
#
#
# Convention : Reuss Voigt Hill
#
# Bulk Modulus (GPa) = 54.24333 76.83492 65.53913
# Shear Modulus (GPa) = 24.03039 28.46490 26.24765
#
# Velocity S-wave (km/s) = 3.26235 3.55063 3.40954
# Velocity P-wave (km/s) = 6.18181 7.13016 6.67285
#
# Compressibility (1/GPa) = 0.01843544
#
# Stress axis : x y z
#
# Youngs Moduli (GPa) = 92.43416 133.98882 54.26275
#
# Poissons Ratio (x) = 0.58176 0.15163
# Poissons Ratio (y) = 0.40134 0.10860
# Poissons Ratio (z) = 0.25829 0.26817
#
# Static dielectric constant tensor:
#      x y z
#    x 1.852260 0.000000 0.000000 
#    y 0.000000 1.795840 0.000000 
#    z 0.000000 0.000000 2.063480 
# 
# From -- ./inp_files/16962.got.cif
#   From: 2010.05.17/outbox.cif.g08.bks.cpg/sg20_9_cif.got.tgz:16962.got - 2010.06.03 22:52:26.
