data_PCOD9317613
_publ_section_title
;
Structure prediction by ZEFSAII (Michael W. Deem and Ramdas Pophale) SiO2 
 PCOD9317613
Probable space group: C 2 2 21
;
_chemical_formula_sum "Si O2"
_cell_formula_units_Z 60
_cell_length_a 30.700849
_cell_length_b 10.895825
_cell_length_c 9.572667
_cell_angle_alpha 90.000000
_cell_angle_beta 90.000000
_cell_angle_gamma 90.000000
_cell_volume 3202.163158
_symmetry_space_group_name_H-M "C 2 2 21"
_symmetry_group_IT_number 20
_symmetry_cell_setting 'orthorhombic'
loop_
_space_group_symop_operation_xyz
x,y,z
-x,-y,1/2+z
x,-y,-z
-x,y,1/2-z
1/2+x,1/2+y,z
1/2-x,1/2-y,1/2+z
1/2+x,1/2-y,-z
1/2-x,1/2+y,1/2-z
loop_
_atom_site_type_symbol
_atom_site_label
_atom_site_fract_x
_atom_site_fract_y
_atom_site_fract_z
Si Si1 0.422428 0.788069 0.048094
Si Si2 0.438665 0.169224 0.428036
Si Si3 0.510541 0.000000 0.500000
Si Si4 0.727093 0.872013 0.811225
Si Si5 0.870629 0.625152 0.202246
Si Si6 0.120433 0.649110 0.804365
Si Si7 0.222316 0.340099 0.142674
Si Si8 0.994798 0.123852 0.916916
O O1 0.382185 0.832799 0.952690
O O2 0.449502 0.685344 0.966156
O O3 0.457889 0.897881 0.064011
O O4 0.403021 0.757236 0.199078
O O5 0.476586 0.069436 0.398852
O O6 0.407214 0.187233 0.298478
O O7 0.408003 0.134170 0.557040
O O8 0.465989 0.288457 0.464248
O O9 0.677529 0.850466 0.758780
O O10 0.755408 0.774412 0.722327
O O11 0.734397 0.021458 0.799699
O O12 0.731894 0.842681 0.976376
O O13 0.878560 0.480790 0.224426
O O14 0.170238 0.675869 0.841240
O O15 0.000000 0.112249 0.750000
O O16 0.998839 0.000000 0.000000
#
# Coordination Sequence:
#
# PCOD9317613 Si02
#       8
#     8   8   4   8   8   8   8   8
#     4  11  23  36  58  92 126 154 203 255 304 361
#     4  11  21  36  63  84 123 159 199 252 307 363
#     4  10  20  32  58  94 124 154 190 242 302 370
#     4  10  23  42  68  94 131 167 210 265 331 396
#     4  11  19  39  61  95 126 159 196 259 320 372
#     4  11  21  37  63  98 125 154 203 253 322 381
#     4  10  23  43  66  97 129 168 209 266 328 402
#     4  11  26  43  57  78 119 171 216 253 301 362
#
# _framework density 18.737333
#
# number of rings (size 3 to 8) (size 9 to 14) (size 15 to 20)
#    0.000    1.333    5.333    0.000    3.733    3.200 
#    0.000    2.667    0.000    0.000    0.000    0.000 
#    0.000    0.000    0.000    0.000    0.000    0.000 
#
# Total GULP energy -167305.126802 kJ/mol
# GULP energy per Si atom -5576.837560 kJ/mol
# Density = 1.869469 g / cm^3
# Si number density = 18.737333 Si / 1000 Ang^3
#
#
#
# Elastic Constant Matrix: (Units=GPa)
#
#
# Indices 1 2 3 4 5 6 
#
# 1 89.5374 46.9856 33.0170 0.0000 0.0000 0.0000
# 2 46.9856 97.2265 35.4000 0.0000 0.0000 0.0000
# 3 33.0170 35.4000 94.9307 0.0000 0.0000 0.0000
# 4 0.0000 0.0000 0.0000 27.4706 0.0000 0.0000
# 5 0.0000 0.0000 0.0000 0.0000 20.9265 0.0000
# 6 0.0000 0.0000 0.0000 0.0000 0.0000 27.1550
#
#
#
# Elastic Compliance Matrix: (Units=1/GPa)
#
#
# Indices 1 2 3 4 5 6 
#
# 1 0.015687 -0.006473 -0.003042 0.000000 0.000000 0.000000
# 2 -0.006473 0.014572 -0.003183 0.000000 0.000000 0.000000
# 3 -0.003042 -0.003183 0.012779 0.000000 0.000000 0.000000
# 4 0.000000 0.000000 0.000000 0.036403 0.000000 0.000000
# 5 0.000000 0.000000 0.000000 0.000000 0.047786 0.000000
# 6 0.000000 0.000000 0.000000 0.000000 0.000000 0.036826
#
#
# Mechanical properties :
#
#
# Convention : Reuss Voigt Hill
#
# Bulk Modulus (GPa) = 56.68213 56.94444 56.81328
# Shear Modulus (GPa) = 25.59768 26.19654 25.89711
#
# Velocity S-wave (km/s) = 3.70013 3.74316 3.72171
# Velocity P-wave (km/s) = 6.96931 7.00989 6.98963
#
# Compressibility (1/GPa) = 0.01764225
#
# Stress axis : x y z
#
# Youngs Moduli (GPa) = 63.74596 68.62294 78.25425
#
# Poissons Ratio (x) = 0.44422 0.23806
# Poissons Ratio (y) = 0.41265 0.24905
# Poissons Ratio (z) = 0.19392 0.21840
#
# Static dielectric constant tensor:
#      x y z
#    x 1.636080 0.000000 0.000000 
#    y 0.000000 1.720540 0.000000 
#    z 0.000000 0.000000 1.536910 
# 
# From -- ./inp_files/11569.got.cif
#   From: 2010.05.17/outbox.cif.g08.bks.cpg/sg20_6_cif.got.tgz:11569.got - 2010.06.03 22:52:26.
