data_PCOD9317671
_publ_section_title
;
Structure prediction by ZEFSAII (Michael W. Deem and Ramdas Pophale) SiO2 
 PCOD9317671
Probable space group: C 2 2 21
;
_chemical_formula_sum "Si O2"
_cell_formula_units_Z 64
_cell_length_a 8.253944
_cell_length_b 21.210464
_cell_length_c 19.969994
_cell_angle_alpha 90.000000
_cell_angle_beta 90.000000
_cell_angle_gamma 90.000000
_cell_volume 3496.146492
_symmetry_space_group_name_H-M "C 2 2 21"
_symmetry_group_IT_number 20
_symmetry_cell_setting 'orthorhombic'
loop_
_space_group_symop_operation_xyz
x,y,z
-x,-y,1/2+z
x,-y,-z
-x,y,1/2-z
1/2+x,1/2+y,z
1/2-x,1/2-y,1/2+z
1/2+x,1/2-y,-z
1/2-x,1/2+y,1/2-z
loop_
_atom_site_type_symbol
_atom_site_label
_atom_site_fract_x
_atom_site_fract_y
_atom_site_fract_z
Si Si1 0.306243 0.687602 0.462180
Si Si2 0.302173 0.563049 0.539515
Si Si3 0.695472 0.507471 0.824661
Si Si4 0.195471 0.007471 0.675340
Si Si5 0.306243 0.687602 0.037820
Si Si6 0.306174 0.135703 0.174209
Si Si7 0.697827 0.563049 0.539515
Si Si8 0.693826 0.864297 0.825791
O O1 0.245303 0.625875 0.502606
O O2 0.500000 0.685893 0.462439
O O3 0.250000 0.750000 0.500000
O O4 0.249955 0.680729 0.385474
O O5 0.253657 0.500000 0.500000
O O6 0.248476 0.552986 0.616020
O O7 0.500000 0.564581 0.538987
O O8 0.755904 0.522589 0.750000
O O9 0.500000 0.509964 0.823666
O O10 0.742024 0.435066 0.839661
O O11 0.242024 0.935066 0.660339
O O12 0.251524 0.052986 0.616020
O O13 0.249955 0.680729 0.114526
O O14 0.245303 0.625875 0.997394
O O15 0.251983 0.152720 0.250000
O O16 0.500000 0.133624 0.174196
O O17 0.746343 0.500000 0.500000
#
# Coordination Sequence:
#
# PCOD9317671 Si02
#       8
#     8   8   8   8   8   8   8   8
#     4  11  22  37  56  78 110 146 183 225 271 325
#     4   9  16  30  52  78 105 135 175 222 264 312
#     4   9  16  29  52  79 104 135 177 220 266 319
#     4   9  16  29  52  79 104 135 177 220 266 319
#     4  11  22  37  56  78 110 146 183 225 271 325
#     4  10  20  34  53  79 109 139 176 222 271 323
#     4   9  16  30  52  78 105 135 175 222 264 312
#     4  10  20  34  53  79 109 139 176 222 271 323
#
# _framework density 18.305869999999999
#
# number of rings (size 3 to 8) (size 9 to 14) (size 15 to 20)
#    0.000    2.250    2.500    1.500    0.000    1.500 
#    0.000    5.000    0.000    4.500    0.000    0.000 
#    0.000    0.000    0.000    0.000    0.000    0.000 
#
# Total GULP energy -178479.789735 kJ/mol
# GULP energy per Si atom -5577.493429 kJ/mol
# Density = 1.826421 g / cm^3
# Si number density = 18.305870 Si / 1000 Ang^3
#
#
#
# Elastic Constant Matrix: (Units=GPa)
#
#
# Indices 1 2 3 4 5 6 
#
# 1 15.9507 6.8941 15.2519 0.0000 0.0000 0.0000
# 2 6.8941 106.3689 75.3812 0.0000 0.0000 0.0000
# 3 15.2519 75.3812 165.4562 0.0000 0.0000 0.0000
# 4 0.0000 0.0000 0.0000 29.2153 0.0000 0.0000
# 5 0.0000 0.0000 0.0000 0.0000 19.6705 0.0000
# 6 0.0000 0.0000 0.0000 0.0000 0.0000 17.0450
#
#
#
# Elastic Compliance Matrix: (Units=1/GPa)
#
#
# Indices 1 2 3 4 5 6 
#
# 1 0.068753 0.000052 -0.006361 0.000000 0.000000 0.000000
# 2 0.000052 0.013884 -0.006330 0.000000 0.000000 0.000000
# 3 -0.006361 -0.006330 0.009514 0.000000 0.000000 0.000000
# 4 0.000000 0.000000 0.000000 0.034229 0.000000 0.000000
# 5 0.000000 0.000000 0.000000 0.000000 0.050838 0.000000
# 6 0.000000 0.000000 0.000000 0.000000 0.000000 0.058668
#
#
# Mechanical properties :
#
#
# Convention : Reuss Voigt Hill
#
# Bulk Modulus (GPa) = 14.95388 53.64780 34.30084
# Shear Modulus (GPa) = 17.63942 25.86941 21.75441
#
# Velocity S-wave (km/s) = 3.10755 3.76330 3.45104
# Velocity P-wave (km/s) = 4.58938 6.94645 5.88709
#
# Compressibility (1/GPa) = 0.06687229
#
# Stress axis : x y z
#
# Youngs Moduli (GPa) = 14.54477 72.02537 105.10423
#
# Poissons Ratio (x) = -0.00376 0.66862
# Poissons Ratio (y) = -0.00076 0.66534
# Poissons Ratio (z) = 0.09253 0.45594
#
# Static dielectric constant tensor:
#      x y z
#    x 1.638160 0.000000 0.000000 
#    y 0.000000 1.593040 0.000000 
#    z 0.000000 0.000000 1.696620 
# 
# From -- ./inp_files/23915.got.cif
#   From: 2010.05.17/outbox.cif.g08.bks.cpg/sg20_12_cif.got.tgz:23915.got - 2010.06.03 22:52:26.
