data_PCOD9317752
_publ_section_title
;
Structure prediction by ZEFSAII (Michael W. Deem and Ramdas Pophale) SiO2 
 PCOD9317752
Probable space group: C 2 2 21
;
_chemical_formula_sum "Si O2"
_cell_formula_units_Z 60
_cell_length_a 7.086873
_cell_length_b 13.974639
_cell_length_c 26.079728
_cell_angle_alpha 90.000000
_cell_angle_beta 90.000000
_cell_angle_gamma 90.000000
_cell_volume 2582.844769
_symmetry_space_group_name_H-M "C 2 2 21"
_symmetry_group_IT_number 20
_symmetry_cell_setting 'orthorhombic'
loop_
_space_group_symop_operation_xyz
x,y,z
-x,-y,1/2+z
x,-y,-z
-x,y,1/2-z
1/2+x,1/2+y,z
1/2-x,1/2-y,1/2+z
1/2+x,1/2-y,-z
1/2-x,1/2+y,1/2-z
loop_
_atom_site_type_symbol
_atom_site_label
_atom_site_fract_x
_atom_site_fract_y
_atom_site_fract_z
Si Si1 0.813898 0.753206 0.161835
Si Si2 0.322483 0.500000 0.000000
Si Si3 0.045647 0.421637 0.804495
Si Si4 0.106016 0.683334 0.625673
Si Si5 0.215543 0.260508 0.269386
Si Si6 0.000988 0.813621 0.958655
Si Si7 0.437819 0.796219 0.937360
Si Si8 0.935519 0.506524 0.589698
O O1 0.608884 0.789260 0.143758
O O2 0.828009 0.795260 0.219102
O O3 0.955135 0.768626 0.114105
O O4 0.863354 0.639821 0.174287
O O5 0.441054 0.419446 0.972265
O O6 0.203173 0.547759 0.953579
O O7 0.195118 0.339263 0.789274
O O8 0.120393 0.486406 0.850904
O O9 0.000000 0.471447 0.750000
O O10 0.101604 0.583365 0.595829
O O11 0.213401 0.676859 0.679344
O O12 0.137923 0.766668 0.583836
O O13 0.000000 0.245818 0.250000
O O14 0.213603 0.813172 0.939611
O O15 0.996990 0.752701 0.010523
O O16 0.521525 0.901601 0.931632
#
# Coordination Sequence:
#
# PCOD9317752 Si02
#       8
#     8   4   8   8   8   8   8   8
#     4   8  17  34  55  80 111 148 190 236 283 339
#     4  12  24  38  56  84 116 152 196 248 298 358
#     4   9  18  34  58  84 113 152 197 242 294 349
#     4  10  20  35  56  82 113 153 194 239 294 350
#     4   9  17  32  57  83 112 152 195 235 285 343
#     4  11  23  39  60  84 113 152 197 245 302 360
#     4  10  21  40  61  85 118 155 197 245 299 358
#     4  11  22  38  59  86 120 155 197 246 297 358
#
# _framework density 23.230201000000001
#
# number of rings (size 3 to 8) (size 9 to 14) (size 15 to 20)
#    0.000    2.133    0.000    4.000    0.000    4.267 
#    0.000    1.333    0.000    4.000    0.000    0.000 
#    0.000    0.000    0.000    0.000    0.000    0.133 
#
# Total GULP energy -167260.547433 kJ/mol
# GULP energy per Si atom -5575.351581 kJ/mol
# Density = 2.317733 g / cm^3
# Si number density = 23.230201 Si / 1000 Ang^3
#
#
#
# Elastic Constant Matrix: (Units=GPa)
#
#
# Indices 1 2 3 4 5 6 
#
# 1 42.1951 -1.2690 12.5893 0.0000 0.0000 0.0000
# 2 -1.2690 64.4040 24.5148 0.0000 0.0000 0.0000
# 3 12.5893 24.5148 127.1536 0.0000 0.0000 0.0000
# 4 0.0000 0.0000 0.0000 39.1374 0.0000 0.0000
# 5 0.0000 0.0000 0.0000 0.0000 40.5119 0.0000
# 6 0.0000 0.0000 0.0000 0.0000 0.0000 15.3365
#
#
#
# Elastic Compliance Matrix: (Units=1/GPa)
#
#
# Indices 1 2 3 4 5 6 
#
# 1 0.024558 0.001521 -0.002725 0.000000 0.000000 0.000000
# 2 0.001521 0.016851 -0.003399 0.000000 0.000000 0.000000
# 3 -0.002725 -0.003399 0.008790 0.000000 0.000000 0.000000
# 4 0.000000 0.000000 0.000000 0.025551 0.000000 0.000000
# 5 0.000000 0.000000 0.000000 0.000000 0.024684 0.000000
# 6 0.000000 0.000000 0.000000 0.000000 0.000000 0.065204
#
#
# Mechanical properties :
#
#
# Convention : Reuss Voigt Hill
#
# Bulk Modulus (GPa) = 24.39466 33.93587 29.16526
# Shear Modulus (GPa) = 26.52409 32.19168 29.35789
#
# Velocity S-wave (km/s) = 3.38271 3.72663 3.55883
# Velocity P-wave (km/s) = 5.07750 5.75823 5.42855
#
# Compressibility (1/GPa) = 0.04099257
#
# Stress axis : x y z
#
# Youngs Moduli (GPa) = 40.71969 59.34396 113.76993
#
# Poissons Ratio (x) = -0.09027 0.30999
# Poissons Ratio (y) = -0.06194 0.38675
# Poissons Ratio (z) = 0.11095 0.20173
#
# Static dielectric constant tensor:
#      x y z
#    x 1.955930 0.000000 0.000000 
#    y 0.000000 1.868920 0.000000 
#    z 0.000000 0.000000 1.950080 
# 
# From -- ./inp_files/28861.got.cif
#   From: 2010.05.17/outbox.cif.g08.bks.cpg/sg20_15_cif.got.tgz:28861.got - 2010.06.03 22:52:26.
