data_PCOD9317358
_publ_section_title
;
Structure prediction by ZEFSAII (Michael W. Deem and Ramdas Pophale) SiO2 
 PCOD9317358
Probable space group: C 2 2 21
;
_chemical_formula_sum "Si O2"
_cell_formula_units_Z 48
_cell_length_a 14.759705
_cell_length_b 9.036704
_cell_length_c 17.413881
_cell_angle_alpha 90.000000
_cell_angle_beta 90.000000
_cell_angle_gamma 90.000000
_cell_volume 2322.647518
_symmetry_space_group_name_H-M "C 2 2 21"
_symmetry_group_IT_number 20
_symmetry_cell_setting 'orthorhombic'
loop_
_space_group_symop_operation_xyz
x,y,z
-x,-y,1/2+z
x,-y,-z
-x,y,1/2-z
1/2+x,1/2+y,z
1/2-x,1/2-y,1/2+z
1/2+x,1/2-y,-z
1/2-x,1/2+y,1/2-z
loop_
_atom_site_type_symbol
_atom_site_label
_atom_site_fract_x
_atom_site_fract_y
_atom_site_fract_z
Si Si1 0.320984 0.232828 0.077805
Si Si2 0.743663 0.998695 0.691288
Si Si3 0.568324 0.673393 0.178801
Si Si4 0.071559 0.997931 0.409055
Si Si5 0.834167 0.450541 0.359729
Si Si6 0.734893 0.713140 0.405166
O O1 0.408327 0.326016 0.106189
O O2 0.240660 0.340614 0.105443
O O3 0.313824 0.084551 0.125806
O O4 0.299864 0.220834 0.986780
O O5 0.693160 0.009245 0.772345
O O6 0.757600 0.161800 0.656601
O O7 0.836047 0.903756 0.699487
O O8 0.500000 0.677168 0.250000
O O9 0.522147 0.564375 0.117736
O O10 0.580696 0.839980 0.146334
O O11 0.080563 0.000000 0.500000
O O12 0.150965 0.107716 0.379604
O O13 0.821003 0.600789 0.408766
#
# Coordination Sequence:
#
# PCOD9317358 Si02
#       6
#     8   8   8   8   8   8
#     4   9  19  36  60  85 112 150 193 236 286 352
#     4  11  21  35  60  87 113 151 199 242 286 352
#     4  11  22  36  56  82 116 153 192 243 296 341
#     4   9  19  37  59  83 116 151 186 234 297 351
#     4  10  20  35  56  79 110 152 195 233 277 345
#     4  10  19  37  60  84 114 151 192 236 287 351
#
# _framework density 20.666073000000001
#
# number of rings (size 3 to 8) (size 9 to 14) (size 15 to 20)
#    0.000    2.000    0.000    7.000    0.000    2.667 
#    0.000    4.167    0.000   12.000    0.000    0.000 
#    0.000    0.000    0.000    0.000    0.000    0.000 
#
# Total GULP energy -133681.724072 kJ/mol
# GULP energy per Si atom -5570.071836 kJ/mol
# Density = 2.061904 g / cm^3
# Si number density = 20.666073 Si / 1000 Ang^3
#
#
#
# Elastic Constant Matrix: (Units=GPa)
#
#
# Indices 1 2 3 4 5 6 
#
# 1 44.8929 18.9676 6.3824 0.0000 0.0000 0.0000
# 2 18.9676 79.6859 13.0467 0.0000 0.0000 0.0000
# 3 6.3824 13.0467 55.6522 0.0000 0.0000 0.0000
# 4 0.0000 0.0000 0.0000 35.4306 0.0000 0.0000
# 5 0.0000 0.0000 0.0000 0.0000 20.3131 0.0000
# 6 0.0000 0.0000 0.0000 0.0000 0.0000 32.1835
#
#
#
# Elastic Compliance Matrix: (Units=1/GPa)
#
#
# Indices 1 2 3 4 5 6 
#
# 1 0.024890 -0.005675 -0.001524 0.000000 0.000000 0.000000
# 2 -0.005675 0.014344 -0.002712 0.000000 0.000000 0.000000
# 3 -0.001524 -0.002712 0.018779 0.000000 0.000000 0.000000
# 4 0.000000 0.000000 0.000000 0.028224 0.000000 0.000000
# 5 0.000000 0.000000 0.000000 0.000000 0.049229 0.000000
# 6 0.000000 0.000000 0.000000 0.000000 0.000000 0.031072
#
#
# Mechanical properties :
#
#
# Convention : Reuss Voigt Hill
#
# Bulk Modulus (GPa) = 26.18403 28.55827 27.37115
# Shear Modulus (GPa) = 25.11421 27.04107 26.07764
#
# Velocity S-wave (km/s) = 3.48981 3.62121 3.55612
# Velocity P-wave (km/s) = 5.37921 5.59760 5.48949
#
# Compressibility (1/GPa) = 0.03819122
#
# Stress axis : x y z
#
# Youngs Moduli (GPa) = 40.17735 69.71516 53.25014
#
# Poissons Ratio (x) = 0.39563 0.08116
# Poissons Ratio (y) = 0.22800 0.14441
# Poissons Ratio (z) = 0.06123 0.18906
#
# Static dielectric constant tensor:
#      x y z
#    x 1.806550 0.000000 0.000000 
#    y 0.000000 1.796890 0.000000 
#    z 0.000000 0.000000 1.760070 
# 
# From -- ./inp_files/25152.got.cif
#   From: 2010.05.17/outbox.cif.g08.bks.cpg/sg20_13_cif.got.tgz:25152.got - 2010.06.03 22:52:26.
