data_PCOD9317049
_publ_section_title
;
Structure prediction by ZEFSAII (Michael W. Deem and Ramdas Pophale) SiO2 
 PCOD9317049
Probable space group: C 2 2 21
;
_chemical_formula_sum "Si O2"
_cell_formula_units_Z 52
_cell_length_a 15.963191
_cell_length_b 10.848844
_cell_length_c 16.014629
_cell_angle_alpha 90.000000
_cell_angle_beta 90.000000
_cell_angle_gamma 90.000000
_cell_volume 2773.448184
_symmetry_space_group_name_H-M "C 2 2 21"
_symmetry_group_IT_number 20
_symmetry_cell_setting 'orthorhombic'
loop_
_space_group_symop_operation_xyz
x,y,z
-x,-y,1/2+z
x,-y,-z
-x,y,1/2-z
1/2+x,1/2+y,z
1/2-x,1/2-y,1/2+z
1/2+x,1/2-y,-z
1/2-x,1/2+y,1/2-z
loop_
_atom_site_type_symbol
_atom_site_label
_atom_site_fract_x
_atom_site_fract_y
_atom_site_fract_z
Si Si1 0.738210 0.878954 0.357248
Si Si2 0.897040 0.255166 0.429534
Si Si3 0.798104 0.361702 0.579167
Si Si4 0.763988 0.607856 0.665644
Si Si5 0.436559 0.131310 0.953770
Si Si6 0.869779 0.128131 0.966400
Si Si7 0.646532 0.500000 0.000000
O O1 0.779250 0.742993 0.353880
O O2 0.738635 0.922554 0.262650
O O3 0.644677 0.877404 0.394572
O O4 0.793961 0.948559 0.426224
O O5 0.869868 0.322909 0.515638
O O6 0.822190 0.277190 0.362820
O O7 0.902837 0.112843 0.457347
O O8 0.982595 0.320667 0.403411
O O9 0.808140 0.493398 0.619335
O O10 0.713566 0.362301 0.523833
O O11 0.671046 0.619047 0.625541
O O12 0.419136 0.245470 0.017984
O O13 0.447836 0.000000 0.000000
O O14 0.910011 0.000000 0.000000
#
# Coordination Sequence:
#
# PCOD9317049 Si02
#       7
#     8   8   8   8   8   8   4
#     4  10  21  34  59  87 112 152 202 251 289 344
#     4  10  21  36  58  81 117 155 192 237 299 362
#     4   8  17  35  52  79 109 148 192 229 284 357
#     4  10  19  33  60  83 115 150 196 251 292 345
#     4  11  21  34  57  86 119 153 193 244 302 360
#     4   8  17  34  54  78 108 150 197 230 282 354
#     4  10  22  42  58  84 116 162 204 236 294 368
#
# _framework density 18.749223000000001
#
# number of rings (size 3 to 8) (size 9 to 14) (size 15 to 20)
#    0.000    2.462    0.769    3.231    3.231    0.615 
#    0.000    0.000    0.000    7.385    0.000    0.000 
#    0.000    0.000    0.000    0.000    0.000    0.000 
#
# Total GULP energy -144800.261334 kJ/mol
# GULP energy per Si atom -5569.240821 kJ/mol
# Density = 1.870655 g / cm^3
# Si number density = 18.749223 Si / 1000 Ang^3
#
#
#
# Elastic Constant Matrix: (Units=GPa)
#
#
# Indices 1 2 3 4 5 6 
#
# 1 53.4095 20.4947 7.4229 0.0000 0.0000 0.0000
# 2 20.4947 114.0971 11.9473 0.0000 0.0000 0.0000
# 3 7.4229 11.9473 64.4442 0.0000 0.0000 0.0000
# 4 0.0000 0.0000 0.0000 11.5723 0.0000 0.0000
# 5 0.0000 0.0000 0.0000 0.0000 9.4686 0.0000
# 6 0.0000 0.0000 0.0000 0.0000 0.0000 22.7861
#
#
#
# Elastic Compliance Matrix: (Units=1/GPa)
#
#
# Indices 1 2 3 4 5 6 
#
# 1 0.020289 -0.003467 -0.001694 0.000000 0.000000 0.000000
# 2 -0.003467 0.009530 -0.001368 0.000000 0.000000 0.000000
# 3 -0.001694 -0.001368 0.015966 0.000000 0.000000 0.000000
# 4 0.000000 0.000000 0.000000 0.086413 0.000000 0.000000
# 5 0.000000 0.000000 0.000000 0.000000 0.105612 0.000000
# 6 0.000000 0.000000 0.000000 0.000000 0.000000 0.043886
#
#
# Mechanical properties :
#
#
# Convention : Reuss Voigt Hill
#
# Bulk Modulus (GPa) = 30.55485 34.63118 32.59302
# Shear Modulus (GPa) = 16.35785 21.57114 18.96450
#
# Velocity S-wave (km/s) = 2.95694 3.39559 3.18383
# Velocity P-wave (km/s) = 5.29055 5.82102 5.56211
#
# Compressibility (1/GPa) = 0.03272803
#
# Stress axis : x y z
#
# Youngs Moduli (GPa) = 49.28746 104.92714 62.63326
#
# Poissons Ratio (x) = 0.36379 0.10611
# Poissons Ratio (y) = 0.17088 0.08565
# Poissons Ratio (z) = 0.08350 0.14349
#
# Static dielectric constant tensor:
#      x y z
#    x 1.675200 0.000000 0.000000 
#    y 0.000000 1.722430 0.000000 
#    z 0.000000 0.000000 1.643410 
# 
# From -- ./inp_files/21428.got.cif
#   From: 2010.05.17/outbox.cif.g08.bks.cpg/sg20_11_cif.got.tgz:21428.got - 2010.06.03 22:52:26.
