data_PCOD9317269
_publ_section_title
;
Structure prediction by ZEFSAII (Michael W. Deem and Ramdas Pophale) SiO2 
 PCOD9317269
Probable space group: C 2 2 21
;
_chemical_formula_sum "Si O2"
_cell_formula_units_Z 64
_cell_length_a 15.189535
_cell_length_b 18.133116
_cell_length_c 11.501166
_cell_angle_alpha 90.000000
_cell_angle_beta 90.000000
_cell_angle_gamma 90.000000
_cell_volume 3167.807557
_symmetry_space_group_name_H-M "C 2 2 21"
_symmetry_group_IT_number 20
_symmetry_cell_setting 'orthorhombic'
loop_
_space_group_symop_operation_xyz
x,y,z
-x,-y,1/2+z
x,-y,-z
-x,y,1/2-z
1/2+x,1/2+y,z
1/2-x,1/2-y,1/2+z
1/2+x,1/2-y,-z
1/2-x,1/2+y,1/2-z
loop_
_atom_site_type_symbol
_atom_site_label
_atom_site_fract_x
_atom_site_fract_y
_atom_site_fract_z
Si Si1 0.365494 0.831226 0.465045
Si Si2 0.299829 0.416877 0.043644
Si Si3 0.444163 0.803637 0.033537
Si Si4 0.951297 0.140614 0.100068
Si Si5 0.752857 0.818517 0.526767
Si Si6 0.091656 0.422744 0.270353
Si Si7 0.721474 0.430465 0.185167
Si Si8 0.128537 0.921083 0.839398
O O1 0.290347 0.885896 0.512949
O O2 0.460752 0.819965 0.524924
O O3 0.313892 0.753692 0.460418
O O4 0.387388 0.869025 0.339552
O O5 0.297402 0.408617 0.182341
O O6 0.309420 0.500000 0.000000
O O7 0.384962 0.373771 0.003050
O O8 0.459663 0.728608 0.107063
O O9 0.427271 0.869837 0.121958
O O10 0.350865 0.798923 0.966456
O O11 0.905186 0.103799 0.212273
O O12 0.045920 0.103644 0.082314
O O13 0.771984 0.862740 0.405241
O O14 0.786485 0.874451 0.624741
O O15 0.180103 0.465300 0.303345
O O16 0.000000 0.464976 0.250000
O O17 0.652897 0.493533 0.150819
#
# Coordination Sequence:
#
# PCOD9317269 Si02
#       8
#     8   8   8   8   8   8   8   8
#     4  10  19  36  61  88 119 154 206 249 297 356
#     4  11  22  42  61  87 123 161 198 249 302 365
#     4  10  19  36  58  93 114 155 208 247 296 353
#     4  11  22  38  64  87 119 157 208 243 292 365
#     4  11  21  37  61  87 124 156 196 258 302 351
#     4   8  17  33  61  86 116 153 206 250 288 351
#     4  10  22  39  57  89 125 160 198 245 309 356
#     4  11  23  39  59  89 119 163 198 246 300 361
#
# _framework density 20.203247999999999
#
# number of rings (size 3 to 8) (size 9 to 14) (size 15 to 20)
#    0.000    1.750    3.750    1.125    3.500    1.000 
#    0.000    5.000    0.000    1.500    0.000    0.000 
#    0.000    0.000    0.000    0.000    0.000    0.000 
#
# Total GULP energy -178247.729195 kJ/mol
# GULP energy per Si atom -5570.241537 kJ/mol
# Density = 2.015726 g / cm^3
# Si number density = 20.203248 Si / 1000 Ang^3
#
#
#
# Elastic Constant Matrix: (Units=GPa)
#
#
# Indices 1 2 3 4 5 6 
#
# 1 151.5163 12.5276 16.9625 0.0000 0.0000 0.0000
# 2 12.5276 35.8015 4.8893 0.0000 0.0000 0.0000
# 3 16.9625 4.8893 15.8605 0.0000 0.0000 0.0000
# 4 0.0000 0.0000 0.0000 -0.5425 0.0000 0.0000
# 5 0.0000 0.0000 0.0000 0.0000 40.1397 0.0000
# 6 0.0000 0.0000 0.0000 0.0000 0.0000 34.2157
#
#
#
# Elastic Compliance Matrix: (Units=1/GPa)
#
#
# Indices 1 2 3 4 5 6 
#
# 1 0.007586 -0.001614 -0.007615 0.000000 0.000000 0.000000
# 2 -0.001614 0.029503 -0.007368 0.000000 0.000000 0.000000
# 3 -0.007615 -0.007368 0.073465 0.000000 0.000000 0.000000
# 4 0.000000 0.000000 0.000000 -1.843238 0.000000 0.000000
# 5 0.000000 0.000000 0.000000 0.000000 0.024913 0.000000
# 6 0.000000 0.000000 0.000000 0.000000 0.000000 0.029226
#
#
# Mechanical properties :
#
#
# Convention : Reuss Voigt Hill
#
# Bulk Modulus (GPa) = 12.92684 30.21522 21.57103
# Shear Modulus (GPa) = -3.08725 26.01585 11.46430
#
# Velocity S-wave (km/s) = -1.23750 3.59236 2.38470
# Velocity P-wave (km/s) = 2.09055 5.67405 4.27581
#
# Compressibility (1/GPa) = 0.07735842
#
# Stress axis : x y z
#
# Youngs Moduli (GPa) = 131.82203 33.89494 13.61184
#
# Poissons Ratio (x) = 0.05472 0.10366
# Poissons Ratio (y) = 0.21282 0.10029
# Poissons Ratio (z) = 1.00387 0.24974
#
# Static dielectric constant tensor:
#      x y z
#    x 1.787720 0.000000 0.000000 
#    y 0.000000 1.660060 0.000000 
#    z 0.000000 0.000000 1.732470 
# 
# From -- ./inp_files/15322.got.cif
#   From: 2010.05.17/outbox.cif.g08.bks.cpg/sg20_8_cif.got.tgz:15322.got - 2010.06.03 22:52:26.
