data_PCOD9317339
_publ_section_title
;
Structure prediction by ZEFSAII (Michael W. Deem and Ramdas Pophale) SiO2 
 PCOD9317339
Probable space group: C 2 2 21
;
_chemical_formula_sum "Si O2"
_cell_formula_units_Z 44
_cell_length_a 11.473746
_cell_length_b 11.722636
_cell_length_c 17.294487
_cell_angle_alpha 90.000000
_cell_angle_beta 90.000000
_cell_angle_gamma 90.000000
_cell_volume 2326.152566
_symmetry_space_group_name_H-M "C 2 2 21"
_symmetry_group_IT_number 20
_symmetry_cell_setting 'orthorhombic'
loop_
_space_group_symop_operation_xyz
x,y,z
-x,-y,1/2+z
x,-y,-z
-x,y,1/2-z
1/2+x,1/2+y,z
1/2-x,1/2-y,1/2+z
1/2+x,1/2-y,-z
1/2-x,1/2+y,1/2-z
loop_
_atom_site_type_symbol
_atom_site_label
_atom_site_fract_x
_atom_site_fract_y
_atom_site_fract_z
Si Si1 0.964670 0.589074 0.840609
Si Si2 0.835224 0.068899 0.248945
Si Si3 0.019692 0.168193 0.125365
Si Si4 0.688229 0.374629 0.144270
Si Si5 0.922173 0.000000 0.500000
Si Si6 0.588758 0.133885 0.182116
O O1 0.826628 0.607733 0.848079
O O2 0.000000 0.603456 0.750000
O O3 0.015149 0.697257 0.885799
O O4 0.018530 0.466160 0.862949
O O5 0.862397 0.142396 0.326027
O O6 0.703447 0.077720 0.220592
O O7 0.918793 0.120083 0.182782
O O8 0.861266 0.941900 0.280306
O O9 0.009566 0.096405 0.047465
O O10 0.639141 0.246657 0.141977
O O11 0.650473 0.436866 0.066072
O O12 0.500000 0.169211 0.250000
#
# Coordination Sequence:
#
# PCOD9317339 Si02
#       6
#     8   8   8   8   4   8
#     4  11  19  39  67  96 127 160 214 280 334 379
#     4  10  19  36  67  90 127 167 215 278 322 372
#     4  10  20  40  61  89 124 179 214 265 331 388
#     4  11  22  42  60  95 134 168 220 272 327 391
#     4  10  26  42  58  86 132 188 214 258 342 398
#     4  11  22  35  64 107 122 159 218 280 327 389
#
# _framework density 18.915355000000002
#
# number of rings (size 3 to 8) (size 9 to 14) (size 15 to 20)
#    0.000    1.455    7.273    0.000    5.091    0.000 
#    3.273    1.818    0.000    0.000    0.000    0.000 
#    0.000    0.000    0.000    0.000    0.000    0.000 
#
# Total GULP energy -122509.641376 kJ/mol
# GULP energy per Si atom -5568.620063 kJ/mol
# Density = 1.887230 g / cm^3
# Si number density = 18.915355 Si / 1000 Ang^3
#
#
#
# Elastic Constant Matrix: (Units=GPa)
#
#
# Indices 1 2 3 4 5 6 
#
# 1 88.8688 48.0177 20.8695 0.0000 0.0000 0.0000
# 2 48.0177 179.2946 41.8981 0.0000 0.0000 0.0000
# 3 20.8695 41.8981 68.3852 0.0000 0.0000 0.0000
# 4 0.0000 0.0000 0.0000 22.6027 0.0000 0.0000
# 5 0.0000 0.0000 0.0000 0.0000 11.2078 0.0000
# 6 0.0000 0.0000 0.0000 0.0000 0.0000 29.3882
#
#
#
# Elastic Compliance Matrix: (Units=1/GPa)
#
#
# Indices 1 2 3 4 5 6 
#
# 1 0.013437 -0.003082 -0.002213 0.000000 0.000000 0.000000
# 2 -0.003082 0.007216 -0.003481 0.000000 0.000000 0.000000
# 3 -0.002213 -0.003481 0.017431 0.000000 0.000000 0.000000
# 4 0.000000 0.000000 0.000000 0.044242 0.000000 0.000000
# 5 0.000000 0.000000 0.000000 0.000000 0.089224 0.000000
# 6 0.000000 0.000000 0.000000 0.000000 0.000000 0.034027
#
#
# Mechanical properties :
#
#
# Convention : Reuss Voigt Hill
#
# Bulk Modulus (GPa) = 48.69931 62.01327 55.35629
# Shear Modulus (GPa) = 21.74174 27.69064 24.71619
#
# Velocity S-wave (km/s) = 3.39399 3.83028 3.61872
# Velocity P-wave (km/s) = 6.41566 7.23997 6.84024
#
# Compressibility (1/GPa) = 0.02053417
#
# Stress axis : x y z
#
# Youngs Moduli (GPa) = 74.42018 138.57903 57.36951
#
# Poissons Ratio (x) = 0.42705 0.12694
# Poissons Ratio (y) = 0.22933 0.19969
# Poissons Ratio (z) = 0.16467 0.48235
#
# Static dielectric constant tensor:
#      x y z
#    x 1.714580 0.000000 0.000000 
#    y 0.000000 1.739210 0.000000 
#    z 0.000000 0.000000 1.631530 
# 
# From -- ./inp_files/24160.got.cif
#   From: 2010.05.17/outbox.cif.g08.bks.cpg/sg20_13_cif.got.tgz:24160.got - 2010.06.03 22:52:26.
