data_PCOD9317272
_publ_section_title
;
Structure prediction by ZEFSAII (Michael W. Deem and Ramdas Pophale) SiO2 
 PCOD9317272
Probable space group: C 2 2 21
;
_chemical_formula_sum "Si O2"
_cell_formula_units_Z 60
_cell_length_a 20.622242
_cell_length_b 23.003750
_cell_length_c 5.652684
_cell_angle_alpha 90.000000
_cell_angle_beta 90.000000
_cell_angle_gamma 90.000000
_cell_volume 2681.570541
_symmetry_space_group_name_H-M "C 2 2 21"
_symmetry_group_IT_number 20
_symmetry_cell_setting 'orthorhombic'
loop_
_space_group_symop_operation_xyz
x,y,z
-x,-y,1/2+z
x,-y,-z
-x,y,1/2-z
1/2+x,1/2+y,z
1/2-x,1/2-y,1/2+z
1/2+x,1/2-y,-z
1/2-x,1/2+y,1/2-z
loop_
_atom_site_type_symbol
_atom_site_label
_atom_site_fract_x
_atom_site_fract_y
_atom_site_fract_z
Si Si1 0.858528 0.234907 0.053808
Si Si2 0.178893 0.411829 0.349785
Si Si3 0.612617 0.154186 0.274737
Si Si4 0.965801 0.000000 0.000000
Si Si5 0.212145 0.702018 0.917767
Si Si6 0.371222 0.393533 0.975958
Si Si7 0.317825 0.564464 0.517459
Si Si8 0.943643 0.566864 0.566911
O O1 0.897730 0.287599 0.931098
O O2 0.785151 0.224449 0.946357
O O3 0.892669 0.173173 0.034417
O O4 0.838860 0.250442 0.323183
O O5 0.130031 0.399918 0.561066
O O6 0.206764 0.348492 0.276859
O O7 0.242334 0.444160 0.426318
O O8 0.131356 0.437060 0.154043
O O9 0.679349 0.171968 0.141656
O O10 0.561458 0.124623 0.099261
O O11 0.924842 0.057745 0.050160
O O12 0.000000 0.011925 0.750000
O O13 0.343028 0.404702 0.241249
O O14 0.326800 0.404244 0.738531
O O15 0.348585 0.500000 0.500000
O O16 0.959949 0.500000 0.500000
O O17 0.000000 0.582413 0.750000
#
# Coordination Sequence:
#
# PCOD9317272 Si02
#       8
#     8   8   8   4   8   8   8   8
#     4  11  21  35  67  99 149 186 233 280 369 453
#     4  10  24  40  64 102 141 188 229 305 370 448
#     4  10  23  42  64  98 143 184 241 294 363 437
#     4  12  26  54  80  98 142 192 252 308 360 428
#     4  10  19  36  59 100 141 193 217 276 358 453
#     4  12  26  44  72 112 140 197 240 302 372 451
#     4  12  24  40  66 109 157 178 233 306 383 448
#     4  11  28  47  73  97 134 195 266 312 376 447
#
# _framework density 22.374946000000001
#
# number of rings (size 3 to 8) (size 9 to 14) (size 15 to 20)
#    0.000    1.067    4.000    1.600    9.333    0.000 
#    0.000    0.000    8.800    0.000    0.000    0.000 
#    0.000    0.000    0.000    0.000    0.000    0.000 
#
# Total GULP energy -167125.884304 kJ/mol
# GULP energy per Si atom -5570.862810 kJ/mol
# Density = 2.232402 g / cm^3
# Si number density = 22.374946 Si / 1000 Ang^3
#
#
#
# Elastic Constant Matrix: (Units=GPa)
#
#
# Indices 1 2 3 4 5 6 
#
# 1 49.1553 -0.8292 11.0870 0.0000 0.0000 0.0000
# 2 -0.8292 68.5093 0.7643 0.0000 0.0000 0.0000
# 3 11.0870 0.7643 82.2235 0.0000 0.0000 0.0000
# 4 0.0000 0.0000 0.0000 26.7859 0.0000 0.0000
# 5 0.0000 0.0000 0.0000 0.0000 50.0858 0.0000
# 6 0.0000 0.0000 0.0000 0.0000 0.0000 500.4543
#
#
#
# Elastic Compliance Matrix: (Units=1/GPa)
#
#
# Indices 1 2 3 4 5 6 
#
# 1 0.020987 0.000286 -0.002833 0.000000 0.000000 0.000000
# 2 0.000286 0.014602 -0.000174 0.000000 0.000000 0.000000
# 3 -0.002833 -0.000174 0.012546 0.000000 0.000000 0.000000
# 4 0.000000 0.000000 0.000000 0.037333 0.000000 0.000000
# 5 0.000000 0.000000 0.000000 0.000000 0.019966 0.000000
# 6 0.000000 0.000000 0.000000 0.000000 0.000000 0.001998
#
#
# Mechanical properties :
#
#
# Convention : Reuss Voigt Hill
#
# Bulk Modulus (GPa) = 23.42335 24.65916 24.04125
# Shear Modulus (GPa) = 39.33752 128.05628 83.69690
#
# Velocity S-wave (km/s) = 4.19753 7.57339 6.12272
# Velocity P-wave (km/s) = 5.82954 9.35520 7.79434
#
# Compressibility (1/GPa) = 0.04269245
#
# Stress axis : x y z
#
# Youngs Moduli (GPa) = 47.64761 68.48399 79.70965
#
# Poissons Ratio (x) = -0.01956 0.22578
# Poissons Ratio (y) = -0.01361 0.01389
# Poissons Ratio (z) = 0.13497 0.01193
#
# Static dielectric constant tensor:
#      x y z
#    x 1.845420 0.000000 0.000000 
#    y 0.000000 1.837300 0.000000 
#    z 0.000000 0.000000 1.687420 
# 
# From -- ./inp_files/3332.got.cif
#   From: 2010.05.17/outbox.cif.g08.bks.cpg/sg20_2_cif.got.tgz:3332.got - 2010.06.03 22:52:26.
