data_PCOD9317483
_publ_section_title
;
Structure prediction by ZEFSAII (Michael W. Deem and Ramdas Pophale) SiO2 
 PCOD9317483
Probable space group: C 2 2 21
;
_chemical_formula_sum "Si O2"
_cell_formula_units_Z 64
_cell_length_a 12.062248
_cell_length_b 30.133651
_cell_length_c 7.844782
_cell_angle_alpha 90.000000
_cell_angle_beta 90.000000
_cell_angle_gamma 90.000000
_cell_volume 2851.418000
_symmetry_space_group_name_H-M "C 2 2 21"
_symmetry_group_IT_number 20
_symmetry_cell_setting 'orthorhombic'
loop_
_space_group_symop_operation_xyz
x,y,z
-x,-y,1/2+z
x,-y,-z
-x,y,1/2-z
1/2+x,1/2+y,z
1/2-x,1/2-y,1/2+z
1/2+x,1/2-y,-z
1/2-x,1/2+y,1/2-z
loop_
_atom_site_type_symbol
_atom_site_label
_atom_site_fract_x
_atom_site_fract_y
_atom_site_fract_z
Si Si1 0.231609 0.926552 0.166674
Si Si2 0.729111 0.239114 0.536293
Si Si3 0.261380 0.681516 0.240992
Si Si4 0.130157 0.013209 0.302501
Si Si5 0.108990 0.292238 0.162002
Si Si6 0.351819 0.116092 0.515047
Si Si7 0.962447 0.551089 0.947281
Si Si8 0.612683 0.396120 0.856784
O O1 0.263674 0.902658 0.345355
O O2 0.343080 0.924991 0.051768
O O3 0.204818 0.977507 0.206646
O O4 0.127582 0.910303 0.053933
O O5 0.680092 0.285927 0.604674
O O6 0.691061 0.213013 0.367769
O O7 0.849377 0.258609 0.483508
O O8 0.707136 0.207601 0.696834
O O9 0.342609 0.653675 0.357139
O O10 0.201422 0.642305 0.141199
O O11 0.167749 0.062468 0.248142
O O12 0.000000 0.009305 0.250000
O O13 0.137968 0.000000 0.500000
O O14 0.086817 0.342120 0.103685
O O15 0.000000 0.274791 0.250000
O O16 0.439206 0.078443 0.463096
O O17 0.000000 0.552181 0.750000
O O18 0.955580 0.500000 0.000000
O O19 0.500000 0.393316 0.750000
#
# Coordination Sequence:
#
# PCOD9317483 Si02
#       8
#     8   8   8   8   8   8   8   8
#     4  11  22  39  62  89 130 174 210 258 312 363
#     4   9  21  39  62  90 118 154 203 255 314 386
#     4  10  21  40  64  90 124 160 206 263 319 380
#     4  11  22  38  60  90 128 169 213 257 306 368
#     4  10  19  39  63  86 122 161 199 256 318 373
#     4  10  22  38  60  90 121 163 211 255 309 371
#     4  10  22  38  57  86 124 167 209 252 301 358
#     4  11  23  39  62  93 125 168 215 260 312 371
#
# _framework density 22.444973000000001
#
# number of rings (size 3 to 8) (size 9 to 14) (size 15 to 20)
#    0.000    1.750    0.000    5.250    0.000    7.000 
#    0.000    8.125    0.000   10.500    0.000    0.000 
#    0.000    0.000    0.000    0.000    0.000    0.000 
#
# Total GULP energy -178207.211694 kJ/mol
# GULP energy per Si atom -5568.975365 kJ/mol
# Density = 2.239389 g / cm^3
# Si number density = 22.444973 Si / 1000 Ang^3
#
#
#
# Elastic Constant Matrix: (Units=GPa)
#
#
# Indices 1 2 3 4 5 6 
#
# 1 25.1115 7.5368 6.1845 0.0000 0.0000 0.0000
# 2 7.5368 103.9144 25.1700 0.0000 0.0000 0.0000
# 3 6.1845 25.1700 71.1628 0.0000 0.0000 0.0000
# 4 0.0000 0.0000 0.0000 45.1772 0.0000 0.0000
# 5 0.0000 0.0000 0.0000 0.0000 14.5625 0.0000
# 6 0.0000 0.0000 0.0000 0.0000 0.0000 19.9576
#
#
#
# Elastic Compliance Matrix: (Units=1/GPa)
#
#
# Indices 1 2 3 4 5 6 
#
# 1 0.041198 -0.002320 -0.002760 0.000000 0.000000 0.000000
# 2 -0.002320 0.010656 -0.003567 0.000000 0.000000 0.000000
# 3 -0.002760 -0.003567 0.015554 0.000000 0.000000 0.000000
# 4 0.000000 0.000000 0.000000 0.022135 0.000000 0.000000
# 5 0.000000 0.000000 0.000000 0.000000 0.068670 0.000000
# 6 0.000000 0.000000 0.000000 0.000000 0.000000 0.050106
#
#
# Mechanical properties :
#
#
# Convention : Reuss Voigt Hill
#
# Bulk Modulus (GPa) = 19.95446 30.88572 25.42009
# Shear Modulus (GPa) = 20.63412 26.69261 23.66337
#
# Velocity S-wave (km/s) = 3.03532 3.45229 3.25050
# Velocity P-wave (km/s) = 4.60368 5.44808 5.04358
#
# Compressibility (1/GPa) = 0.05011411
#
# Stress axis : x y z
#
# Youngs Moduli (GPa) = 24.27287 93.84741 64.29265
#
# Poissons Ratio (x) = 0.21768 0.17745
# Poissons Ratio (y) = 0.05630 0.22935
# Poissons Ratio (z) = 0.06699 0.33478
#
# Static dielectric constant tensor:
#      x y z
#    x 1.911420 0.000000 0.000000 
#    y 0.000000 1.831240 0.000000 
#    z 0.000000 0.000000 1.811730 
# 
# From -- ./inp_files/7712.got.cif
#   From: 2010.05.17/outbox.cif.g08.bks.cpg/sg20_4_cif.got.tgz:7712.got - 2010.06.03 22:52:26.
