data_PCOD9317750
_publ_section_title
;
Structure prediction by ZEFSAII (Michael W. Deem and Ramdas Pophale) SiO2 
 PCOD9317750
Probable space group: C 2 2 21
;
_chemical_formula_sum "Si O2"
_cell_formula_units_Z 48
_cell_length_a 8.448740
_cell_length_b 18.181298
_cell_length_c 16.028385
_cell_angle_alpha 90.000000
_cell_angle_beta 90.000000
_cell_angle_gamma 90.000000
_cell_volume 2462.105148
_symmetry_space_group_name_H-M "C 2 2 21"
_symmetry_group_IT_number 20
_symmetry_cell_setting 'orthorhombic'
loop_
_space_group_symop_operation_xyz
x,y,z
-x,-y,1/2+z
x,-y,-z
-x,y,1/2-z
1/2+x,1/2+y,z
1/2-x,1/2-y,1/2+z
1/2+x,1/2-y,-z
1/2-x,1/2+y,1/2-z
loop_
_atom_site_type_symbol
_atom_site_label
_atom_site_fract_x
_atom_site_fract_y
_atom_site_fract_z
Si Si1 0.784513 0.847873 0.594348
Si Si2 0.097614 0.792763 0.335509
Si Si3 0.687939 0.917662 0.757214
Si Si4 0.902385 0.792763 0.835509
Si Si5 0.215487 0.152126 0.905652
Si Si6 0.687938 0.917662 0.242786
O O1 0.681905 0.778278 0.626804
O O2 0.755216 0.909659 0.663578
O O3 0.742481 0.867068 0.500000
O O4 0.967065 0.824111 0.601915
O O5 0.225631 0.854845 0.310841
O O6 0.000000 0.775732 0.250000
O O7 0.967065 0.824111 0.398084
O O8 0.500000 0.906570 0.750000
O O9 0.774369 0.854844 0.810842
O O10 0.718238 1.000000 0.789545
O O11 0.818095 0.721722 0.873196
O O12 0.000000 0.775732 0.750000
O O13 0.244784 0.090341 0.836422
O O14 0.500000 0.906570 0.250000
#
# Coordination Sequence:
#
# PCOD9317750 Si02
#       6
#     8   8   8   8   8   8
#     4  11  21  34  56  83 111 139 174 224 272 314
#     4  10  20  35  56  81 107 142 182 218 260 318
#     4  10  21  38  58  78 105 144 184 219 261 318
#     4  10  20  35  56  81 107 142 182 218 260 318
#     4  11  21  34  56  83 111 139 174 224 272 314
#     4  10  21  38  58  78 105 144 184 219 261 318
#
# _framework density 19.495512000000002
#
# number of rings (size 3 to 8) (size 9 to 14) (size 15 to 20)
#    0.000    1.667    0.000    8.000    0.000    6.667 
#    0.000    1.667    0.000    7.000    0.000    0.000 
#    0.000    0.000    0.000    0.000    0.000    0.000 
#
# Total GULP energy -134074.389820 kJ/mol
# GULP energy per Si atom -5586.432909 kJ/mol
# Density = 1.945114 g / cm^3
# Si number density = 19.495512 Si / 1000 Ang^3
#
#
#
# Elastic Constant Matrix: (Units=GPa)
#
#
# Indices 1 2 3 4 5 6 
#
# 1 78.1342 9.2221 -11.2380 0.0000 0.0000 0.0000
# 2 9.2221 52.8272 -19.0012 0.0000 0.0000 0.0000
# 3 -11.2380 -19.0012 50.1318 0.0000 0.0000 0.0000
# 4 0.0000 0.0000 0.0000 6.6414 0.0000 0.0000
# 5 0.0000 0.0000 0.0000 0.0000 16.2105 0.0000
# 6 0.0000 0.0000 0.0000 0.0000 0.0000 18.2677
#
#
#
# Elastic Compliance Matrix: (Units=1/GPa)
#
#
# Indices 1 2 3 4 5 6 
#
# 1 0.013320 -0.001449 0.002437 0.000000 0.000000 0.000000
# 2 -0.001449 0.022075 0.008042 0.000000 0.000000 0.000000
# 3 0.002437 0.008042 0.023542 0.000000 0.000000 0.000000
# 4 0.000000 0.000000 0.000000 0.150571 0.000000 0.000000
# 5 0.000000 0.000000 0.000000 0.000000 0.061689 0.000000
# 6 0.000000 0.000000 0.000000 0.000000 0.000000 0.054742
#
#
# Mechanical properties :
#
#
# Convention : Reuss Voigt Hill
#
# Bulk Modulus (GPa) = 12.98741 15.45101 14.21921
# Shear Modulus (GPa) = 14.99053 21.69792 18.34423
#
# Velocity S-wave (km/s) = 2.77595 3.33974 3.07081
# Velocity P-wave (km/s) = 4.11713 4.77645 4.45899
#
# Compressibility (1/GPa) = 0.07699762
#
# Stress axis : x y z
#
# Youngs Moduli (GPa) = 75.07517 45.29962 42.47749
#
# Poissons Ratio (x) = 0.06563 -0.10351
# Poissons Ratio (y) = 0.10877 -0.34162
# Poissons Ratio (z) = -0.18294 -0.36431
#
# Static dielectric constant tensor:
#      x y z
#    x 1.703210 0.000000 0.000000 
#    y 0.000000 1.678980 0.000000 
#    z 0.000000 0.000000 1.686990 
# 
# From -- ./inp_files/21652.got.cif
#   From: 2010.05.17/outbox.cif.g08.bks.cpg/sg20_11_cif.got.tgz:21652.got - 2010.06.03 22:52:26.
