data_PCOD9317197
_publ_section_title
;
Structure prediction by ZEFSAII (Michael W. Deem and Ramdas Pophale) SiO2 
 PCOD9317197
Probable space group: C 2 2 21
;
_chemical_formula_sum "Si O2"
_cell_formula_units_Z 48
_cell_length_a 9.307346
_cell_length_b 26.079166
_cell_length_c 9.742745
_cell_angle_alpha 90.000000
_cell_angle_beta 90.000000
_cell_angle_gamma 90.000000
_cell_volume 2364.835268
_symmetry_space_group_name_H-M "C 2 2 21"
_symmetry_group_IT_number 20
_symmetry_cell_setting 'orthorhombic'
loop_
_space_group_symop_operation_xyz
x,y,z
-x,-y,1/2+z
x,-y,-z
-x,y,1/2-z
1/2+x,1/2+y,z
1/2-x,1/2-y,1/2+z
1/2+x,1/2-y,-z
1/2-x,1/2+y,1/2-z
loop_
_atom_site_type_symbol
_atom_site_label
_atom_site_fract_x
_atom_site_fract_y
_atom_site_fract_z
Si Si1 0.524036 0.534200 0.610197
Si Si2 0.393031 0.702265 0.380587
Si Si3 0.981189 0.551547 0.583562
Si Si4 0.898989 0.232791 0.883948
Si Si5 0.263602 0.374013 0.159874
Si Si6 0.229768 0.896065 0.030744
O O1 0.601757 0.500000 0.500000
O O2 0.500000 0.503622 0.750000
O O3 0.613964 0.583497 0.649103
O O4 0.378468 0.556483 0.549344
O O5 0.500000 0.698871 0.250000
O O6 0.235565 0.728756 0.365446
O O7 0.488475 0.735056 0.489942
O O8 0.347869 0.645674 0.435390
O O9 0.942446 0.500000 0.500000
O O10 0.868832 0.598422 0.587974
O O11 0.000000 0.540096 0.750000
O O12 0.119419 0.575868 0.507152
O O13 0.820891 0.178039 0.901598
O O14 0.000000 0.232679 0.750000
O O15 0.242330 0.367396 0.323084
#
# Coordination Sequence:
#
# PCOD9317197 Si02
#       6
#     8   8   8   8   8   8
#     4  10  19  35  60  86 119 166 210 264 321 381
#     4  12  27  43  69 106 132 173 229 281 342 394
#     4  10  22  40  64  96 130 179 226 271 334 398
#     4  12  24  48  71  96 138 177 224 279 338 412
#     4  10  20  40  67  88 126 175 224 257 326 406
#     4  10  21  42  62  90 133 171 216 267 329 400
#
# _framework density 20.297398000000001
#
# number of rings (size 3 to 8) (size 9 to 14) (size 15 to 20)
#    0.000    1.333    3.333    2.500    2.333    1.333 
#    3.000    0.000    0.000    0.000    0.000    0.000 
#    0.000    0.000    0.000    0.000    0.000    0.000 
#
# Total GULP energy -133692.658031 kJ/mol
# GULP energy per Si atom -5570.527418 kJ/mol
# Density = 2.025120 g / cm^3
# Si number density = 20.297398 Si / 1000 Ang^3
#
#
#
# Elastic Constant Matrix: (Units=GPa)
#
#
# Indices 1 2 3 4 5 6 
#
# 1 152.4637 41.8635 54.8229 0.0000 0.0000 0.0000
# 2 41.8635 66.7391 42.3912 0.0000 0.0000 0.0000
# 3 54.8229 42.3912 91.1519 0.0000 0.0000 0.0000
# 4 0.0000 0.0000 0.0000 19.2915 0.0000 0.0000
# 5 0.0000 0.0000 0.0000 0.0000 24.7468 0.0000
# 6 0.0000 0.0000 0.0000 0.0000 0.0000 131.7688
#
#
#
# Elastic Compliance Matrix: (Units=1/GPa)
#
#
# Indices 1 2 3 4 5 6 
#
# 1 0.008788 -0.003059 -0.003863 0.000000 0.000000 0.000000
# 2 -0.003059 0.022330 -0.008545 0.000000 0.000000 0.000000
# 3 -0.003863 -0.008545 0.017268 0.000000 0.000000 0.000000
# 4 0.000000 0.000000 0.000000 0.051836 0.000000 0.000000
# 5 0.000000 0.000000 0.000000 0.000000 0.040409 0.000000
# 6 0.000000 0.000000 0.000000 0.000000 0.000000 0.007589
#
#
# Mechanical properties :
#
#
# Convention : Reuss Voigt Hill
#
# Bulk Modulus (GPa) = 57.29895 65.38998 61.34447
# Shear Modulus (GPa) = 27.03117 46.57990 36.80554
#
# Velocity S-wave (km/s) = 3.65328 4.79568 4.26292
# Velocity P-wave (km/s) = 6.78869 7.93414 7.38366
#
# Compressibility (1/GPa) = 0.01745233
#
# Stress axis : x y z
#
# Youngs Moduli (GPa) = 113.79380 44.78268 57.91044
#
# Poissons Ratio (x) = 0.13698 0.22370
# Poissons Ratio (y) = 0.34806 0.49486
# Poissons Ratio (z) = 0.43957 0.38268
#
# Static dielectric constant tensor:
#      x y z
#    x 1.819510 0.000000 0.000000 
#    y 0.000000 1.700740 0.000000 
#    z 0.000000 0.000000 1.603600 
# 
# From -- ./inp_files/6546.got.cif
#   From: 2010.05.17/outbox.cif.g08.bks.cpg/sg20_4_cif.got.tgz:6546.got - 2010.06.03 22:52:26.
