data_PCOD9317310
_publ_section_title
;
Structure prediction by ZEFSAII (Michael W. Deem and Ramdas Pophale) SiO2 
 PCOD9317310
Probable space group: C 2 2 21
;
_chemical_formula_sum "Si O2"
_cell_formula_units_Z 48
_cell_length_a 7.349945
_cell_length_b 13.477375
_cell_length_c 21.995368
_cell_angle_alpha 90.000000
_cell_angle_beta 90.000000
_cell_angle_gamma 90.000000
_cell_volume 2178.816393
_symmetry_space_group_name_H-M "C 2 2 21"
_symmetry_group_IT_number 20
_symmetry_cell_setting 'orthorhombic'
loop_
_space_group_symop_operation_xyz
x,y,z
-x,-y,1/2+z
x,-y,-z
-x,y,1/2-z
1/2+x,1/2+y,z
1/2-x,1/2-y,1/2+z
1/2+x,1/2-y,-z
1/2-x,1/2+y,1/2-z
loop_
_atom_site_type_symbol
_atom_site_label
_atom_site_fract_x
_atom_site_fract_y
_atom_site_fract_z
Si Si1 0.672251 0.165121 0.642268
Si Si2 0.775954 0.882038 0.898465
Si Si3 0.872972 0.821988 0.030241
Si Si4 0.441366 0.563027 0.855300
Si Si5 0.708393 0.883614 0.491607
Si Si6 0.095395 0.513374 0.806692
O O1 0.695965 0.282885 0.640634
O O2 0.618218 0.142149 0.572748
O O3 0.524497 0.110708 0.682474
O O4 0.866773 0.113400 0.654490
O O5 0.763123 0.857649 0.970122
O O6 0.949081 0.954924 0.887441
O O7 0.613126 0.943781 0.866598
O O8 0.860091 0.703227 0.036033
O O9 0.077899 0.858311 0.016611
O O10 0.831416 0.871954 0.094533
O O11 0.306222 0.545245 0.798989
O O12 0.682905 0.000000 0.500000
O O13 0.000000 0.460480 0.750000
#
# Coordination Sequence:
#
# PCOD9317310 Si02
#       6
#     8   8   8   8   8   8
#     4  10  21  43  61  91 121 161 203 250 306 369
#     4   9  21  40  62  90 123 156 209 248 305 372
#     4  10  19  36  61  88 126 160 191 250 309 368
#     4   9  21  40  61  90 125 155 197 256 305 360
#     4  10  22  35  58  94 126 158 198 235 304 386
#     4  10  24  45  61  89 121 161 219 258 300 365
#
# _framework density 22.030311000000001
#
# number of rings (size 3 to 8) (size 9 to 14) (size 15 to 20)
#    1.000    1.333    0.000    2.500    4.667    4.667 
#    6.000    0.833    0.000    0.000    0.000    0.000 
#    0.000    0.000    0.000    0.000    0.000    0.000 
#
# Total GULP energy -133712.425133 kJ/mol
# GULP energy per Si atom -5571.351047 kJ/mol
# Density = 2.198017 g / cm^3
# Si number density = 22.030311 Si / 1000 Ang^3
#
#
#
# Elastic Constant Matrix: (Units=GPa)
#
#
# Indices 1 2 3 4 5 6 
#
# 1 47.9282 16.3017 -7.9151 0.0000 0.0000 0.0000
# 2 16.3017 166.1196 6.9267 0.0000 0.0000 0.0000
# 3 -7.9151 6.9267 39.5243 0.0000 0.0000 0.0000
# 4 0.0000 0.0000 0.0000 13.0307 0.0000 0.0000
# 5 0.0000 0.0000 0.0000 0.0000 23.7467 0.0000
# 6 0.0000 0.0000 0.0000 0.0000 0.0000 21.9863
#
#
#
# Elastic Compliance Matrix: (Units=1/GPa)
#
#
# Indices 1 2 3 4 5 6 
#
# 1 0.022499 -0.002413 0.004929 0.000000 0.000000 0.000000
# 2 -0.002413 0.006323 -0.001591 0.000000 0.000000 0.000000
# 3 0.004929 -0.001591 0.026567 0.000000 0.000000 0.000000
# 4 0.000000 0.000000 0.000000 0.076742 0.000000 0.000000
# 5 0.000000 0.000000 0.000000 0.000000 0.042111 0.000000
# 6 0.000000 0.000000 0.000000 0.000000 0.000000 0.045483
#
#
# Mechanical properties :
#
#
# Convention : Reuss Voigt Hill
#
# Bulk Modulus (GPa) = 17.47130 31.57763 24.52446
# Shear Modulus (GPa) = 21.10093 27.63665 24.36879
#
# Velocity S-wave (km/s) = 3.09821 3.54571 3.32949
# Velocity P-wave (km/s) = 4.55482 5.57921 5.09284
#
# Compressibility (1/GPa) = 0.05723674
#
# Stress axis : x y z
#
# Youngs Moduli (GPa) = 44.44571 158.15404 37.64097
#
# Poissons Ratio (x) = 0.38169 -0.18552
# Poissons Ratio (y) = 0.10727 0.05990
# Poissons Ratio (z) = -0.21906 0.25169
#
# Static dielectric constant tensor:
#      x y z
#    x 1.861230 0.000000 0.000000 
#    y 0.000000 1.833380 0.000000 
#    z 0.000000 0.000000 1.922670 
# 
# From -- ./inp_files/23488.got.cif
#   From: 2010.05.17/outbox.cif.g08.bks.cpg/sg20_12_cif.got.tgz:23488.got - 2010.06.03 22:52:26.
