data_PCOD9317515
_publ_section_title
;
Structure prediction by ZEFSAII (Michael W. Deem and Ramdas Pophale) SiO2 
 PCOD9317515
Probable space group: C 2 2 21
;
_chemical_formula_sum "Si O2"
_cell_formula_units_Z 52
_cell_length_a 7.216736
_cell_length_b 20.726951
_cell_length_c 14.903015
_cell_angle_alpha 90.000000
_cell_angle_beta 90.000000
_cell_angle_gamma 90.000000
_cell_volume 2229.206895
_symmetry_space_group_name_H-M "C 2 2 21"
_symmetry_group_IT_number 20
_symmetry_cell_setting 'orthorhombic'
loop_
_space_group_symop_operation_xyz
x,y,z
-x,-y,1/2+z
x,-y,-z
-x,y,1/2-z
1/2+x,1/2+y,z
1/2-x,1/2-y,1/2+z
1/2+x,1/2-y,-z
1/2-x,1/2+y,1/2-z
loop_
_atom_site_type_symbol
_atom_site_label
_atom_site_fract_x
_atom_site_fract_y
_atom_site_fract_z
Si Si1 0.601711 0.300727 0.956633
Si Si2 0.357350 0.072282 0.492200
Si Si3 0.810198 0.595985 0.696479
Si Si4 0.000000 0.006650 0.250000
Si Si5 0.782310 0.739952 0.722272
Si Si6 0.327450 0.196234 0.396600
Si Si7 0.074889 0.058908 0.058739
O O1 0.719929 0.268823 0.877066
O O2 0.390841 0.307447 0.922627
O O3 0.663059 0.374022 0.972805
O O4 0.603088 0.254748 0.041838
O O5 0.360243 0.101459 0.591727
O O6 0.419038 0.127922 0.422881
O O7 0.143010 0.061926 0.464931
O O8 0.438582 0.000000 0.500000
O O9 0.662662 0.539328 0.712045
O O10 0.727324 0.665030 0.725039
O O11 0.000000 0.583476 0.750000
O O12 0.080220 0.047190 0.165937
O O13 0.675715 0.782929 0.793975
O O14 0.000000 0.739648 0.750000
O O15 0.150006 0.000000 0.000000
#
# Coordination Sequence:
#
# PCOD9317515 Si02
#       7
#     8   8   8   4   8   8   8
#     4  10  21  38  61  87 125 165 220 269 326 396
#     4  10  19  40  65  91 131 174 213 277 346 391
#     4  11  23  41  67 100 133 177 228 280 340 399
#     4  12  24  42  72  98 140 176 228 274 336 414
#     4   9  20  37  59  90 121 166 218 268 327 393
#     4  10  21  36  63  87 122 167 214 266 326 393
#     4  10  22  38  63  96 129 175 216 278 336 392
#
# _framework density 23.326682000000002
#
# number of rings (size 3 to 8) (size 9 to 14) (size 15 to 20)
#    0.000    1.846    4.615    0.000    7.538    0.000 
#    0.000    2.308    0.000    0.000    0.000    0.000 
#    0.000    0.000    0.000    0.000    0.000    0.000 
#
# Total GULP energy -145381.449325 kJ/mol
# GULP energy per Si atom -5591.594205 kJ/mol
# Density = 2.327359 g / cm^3
# Si number density = 23.326682 Si / 1000 Ang^3
#
#
#
# Elastic Constant Matrix: (Units=GPa)
#
#
# Indices 1 2 3 4 5 6 
#
# 1 65.3992 26.9781 24.6135 0.0000 0.0000 0.0000
# 2 26.9781 153.9052 20.4468 0.0000 0.0000 0.0000
# 3 24.6135 20.4468 67.0747 0.0000 0.0000 0.0000
# 4 0.0000 0.0000 0.0000 52.6613 0.0000 0.0000
# 5 0.0000 0.0000 0.0000 0.0000 26.8602 0.0000
# 6 0.0000 0.0000 0.0000 0.0000 0.0000 6.1088
#
#
#
# Elastic Compliance Matrix: (Units=1/GPa)
#
#
# Indices 1 2 3 4 5 6 
#
# 1 0.018588 -0.002451 -0.006074 0.000000 0.000000 0.000000
# 2 -0.002451 0.007095 -0.001263 0.000000 0.000000 0.000000
# 3 -0.006074 -0.001263 0.017523 0.000000 0.000000 0.000000
# 4 0.000000 0.000000 0.000000 0.018989 0.000000 0.000000
# 5 0.000000 0.000000 0.000000 0.000000 0.037230 0.000000
# 6 0.000000 0.000000 0.000000 0.000000 0.000000 0.163699
#
#
# Mechanical properties :
#
#
# Convention : Reuss Voigt Hill
#
# Bulk Modulus (GPa) = 42.32113 47.82842 45.07478
# Shear Modulus (GPa) = 17.20717 31.41543 24.31130
#
# Velocity S-wave (km/s) = 2.71894 3.67380 3.23183
# Velocity P-wave (km/s) = 5.29519 6.20838 5.76988
#
# Compressibility (1/GPa) = 0.02362886
#
# Stress axis : x y z
#
# Youngs Moduli (GPa) = 53.79876 140.94360 57.06906
#
# Poissons Ratio (x) = 0.34550 0.34662
# Poissons Ratio (y) = 0.13188 0.07209
# Poissons Ratio (z) = 0.32676 0.17805
#
# Static dielectric constant tensor:
#      x y z
#    x 1.907030 0.000000 0.000000 
#    y 0.000000 1.914980 0.000000 
#    z 0.000000 0.000000 1.838840 
# 
# From -- ./inp_files/19106.got.cif
#   From: 2010.05.17/outbox.cif.g08.bks.cpg/sg20_10_cif.got.tgz:19106.got - 2010.06.03 22:52:26.
