data_PCOD9317733
_publ_section_title
;
Structure prediction by ZEFSAII (Michael W. Deem and Ramdas Pophale) SiO2 
 PCOD9317733
Probable space group: C 2 2 21
;
_chemical_formula_sum "Si O2"
_cell_formula_units_Z 64
_cell_length_a 5.235648
_cell_length_b 24.590075
_cell_length_c 25.605320
_cell_angle_alpha 90.000000
_cell_angle_beta 90.000000
_cell_angle_gamma 90.000000
_cell_volume 3296.556334
_symmetry_space_group_name_H-M "C 2 2 21"
_symmetry_group_IT_number 20
_symmetry_cell_setting 'orthorhombic'
loop_
_space_group_symop_operation_xyz
x,y,z
-x,-y,1/2+z
x,-y,-z
-x,y,1/2-z
1/2+x,1/2+y,z
1/2-x,1/2-y,1/2+z
1/2+x,1/2-y,-z
1/2-x,1/2+y,1/2-z
loop_
_atom_site_type_symbol
_atom_site_label
_atom_site_fract_x
_atom_site_fract_y
_atom_site_fract_z
Si Si1 0.081425 0.869641 0.047390
Si Si2 0.939733 0.043857 0.388396
Si Si3 0.168742 0.579364 0.704609
Si Si4 0.333888 0.573198 0.860612
Si Si5 0.600594 0.944863 0.513180
Si Si6 0.282789 0.637572 0.061897
Si Si7 0.256121 0.046005 0.221344
Si Si8 0.240296 0.253678 0.464194
O O1 0.201575 0.811723 0.061632
O O2 0.875520 0.890992 0.087961
O O3 0.285286 0.917410 0.038358
O O4 0.961474 0.862375 0.989807
O O5 0.811088 0.035484 0.444846
O O6 0.747074 0.053771 0.340699
O O7 0.099111 0.099135 0.394385
O O8 0.096310 0.989898 0.372750
O O9 0.444017 0.594919 0.679843
O O10 0.231199 0.519540 0.727343
O O11 0.000000 0.608748 0.750000
O O12 0.954289 0.575229 0.659693
O O13 0.460320 0.895938 0.542278
O O14 0.445840 0.000000 0.500000
O O15 0.246257 0.701004 0.073053
O O16 0.500000 0.069723 0.250000
O O17 0.000000 0.064701 0.250000
O O18 0.466388 0.243432 0.506822
#
# Coordination Sequence:
#
# PCOD9317733 Si02
#       8
#     8   8   8   8   8   8   8   8
#     4  10  22  36  50  81 110 148 193 222 271 319
#     4  10  22  32  50  81 113 147 184 223 275 343
#     4  10  20  35  52  76 110 146 179 220 275 336
#     4  11  22  32  55  80 112 145 177 227 272 330
#     4  11  21  33  51  78 120 154 179 217 279 338
#     4  10  23  33  54  75 113 154 185 225 270 324
#     4  10  20  35  54  77 110 151 188 228 273 330
#     4  10  20  39  56  73 105 150 194 233 257 305
#
# _framework density 19.414200000000001
#
# number of rings (size 3 to 8) (size 9 to 14) (size 15 to 20)
#    0.000    1.750    2.500    3.375    8.750    0.000 
#    0.000    0.000    0.000    0.000    0.000    0.875 
#    3.750    0.000    0.000    0.000    0.000    0.000 
#
# Total GULP energy -178376.215537 kJ/mol
# GULP energy per Si atom -5574.256736 kJ/mol
# Density = 1.937001 g / cm^3
# Si number density = 19.414200 Si / 1000 Ang^3
#
#
#
# Elastic Constant Matrix: (Units=GPa)
#
#
# Indices 1 2 3 4 5 6 
#
# 1 78.9213 1.1033 12.7949 0.0000 0.0000 0.0000
# 2 1.1033 101.5524 15.5909 0.0000 0.0000 0.0000
# 3 12.7949 15.5909 51.3435 0.0000 0.0000 0.0000
# 4 0.0000 0.0000 0.0000 -0.1177 0.0000 0.0000
# 5 0.0000 0.0000 0.0000 0.0000 18.8151 0.0000
# 6 0.0000 0.0000 0.0000 0.0000 0.0000 -3.7394
#
#
#
# Elastic Compliance Matrix: (Units=1/GPa)
#
#
# Indices 1 2 3 4 5 6 
#
# 1 0.013218 0.000380 -0.003409 0.000000 0.000000 0.000000
# 2 0.000380 0.010340 -0.003234 0.000000 0.000000 0.000000
# 3 -0.003409 -0.003234 0.021308 0.000000 0.000000 0.000000
# 4 0.000000 0.000000 0.000000 -8.496450 0.000000 0.000000
# 5 0.000000 0.000000 0.000000 0.000000 0.053149 0.000000
# 6 0.000000 0.000000 0.000000 0.000000 0.000000 -0.267421
#
#
# Mechanical properties :
#
#
# Convention : Reuss Voigt Hill
#
# Bulk Modulus (GPa) = 30.92289 32.31058 31.61673
# Shear Modulus (GPa) = -0.57853 16.48013 7.95080
#
# Velocity S-wave (km/s) = -0.54648 2.91670 2.02589
# Velocity P-wave (km/s) = 3.94517 5.29355 4.66830
#
# Compressibility (1/GPa) = 0.03233850
#
# Stress axis : x y z
#
# Youngs Moduli (GPa) = 75.65284 96.71592 46.92977
#
# Poissons Ratio (x) = -0.03673 0.16000
# Poissons Ratio (y) = -0.02873 0.15179
# Poissons Ratio (z) = 0.25793 0.31281
#
# Static dielectric constant tensor:
#      x y z
#    x 1.778730 0.000000 0.000000 
#    y 0.000000 1.687110 0.000000 
#    z 0.000000 0.000000 1.748400 
# 
# From -- ./inp_files/28510.got.cif
#   From: 2010.05.17/outbox.cif.g08.bks.cpg/sg20_15_cif.got.tgz:28510.got - 2010.06.03 22:52:26.
