data_PCOD9317656
_publ_section_title
;
Structure prediction by ZEFSAII (Michael W. Deem and Ramdas Pophale) SiO2 
 PCOD9317656
Probable space group: C 2 2 21
;
_chemical_formula_sum "Si O2"
_cell_formula_units_Z 32
_cell_length_a 12.014754
_cell_length_b 24.771589
_cell_length_c 5.233720
_cell_angle_alpha 90.000000
_cell_angle_beta 90.000000
_cell_angle_gamma 90.000000
_cell_volume 1557.683549
_symmetry_space_group_name_H-M "C 2 2 21"
_symmetry_group_IT_number 20
_symmetry_cell_setting 'orthorhombic'
loop_
_space_group_symop_operation_xyz
x,y,z
-x,-y,1/2+z
x,-y,-z
-x,y,1/2-z
1/2+x,1/2+y,z
1/2-x,1/2-y,1/2+z
1/2+x,1/2-y,-z
1/2-x,1/2+y,1/2-z
loop_
_atom_site_type_symbol
_atom_site_label
_atom_site_fract_x
_atom_site_fract_y
_atom_site_fract_z
Si Si1 0.621203 0.883863 0.381700
Si Si2 0.879338 0.223936 0.409400
Si Si3 0.577831 0.000000 0.500000
Si Si4 0.500000 0.191871 0.250000
Si Si5 0.800443 0.817222 0.102393
O O1 0.500000 0.885596 0.250000
O O2 0.598837 0.844550 0.626889
O O3 0.645659 0.944683 0.467828
O O4 0.708204 0.861932 0.173494
O O5 0.965376 0.269390 0.514323
O O6 0.874119 0.188506 0.151772
O O7 0.768754 0.260996 0.390208
O O8 0.873766 0.183549 0.644679
O O9 0.500000 0.007062 0.250000
#
# Coordination Sequence:
#
# PCOD9317656 Si02
#       5
#     8   8   4   4   8
#     4  11  21  34  56  78 117 161 208 242 293 342
#     4  10  21  32  49  74 104 143 198 239 281 348
#     4  10  22  36  50  82 114 152 214 250 272 336
#     4  12  20  34  56  82 110 162 208 240 298 358
#     4  10  20  34  47  72 107 147 193 240 284 333
#
# _framework density 20.543327000000001
#
# number of rings (size 3 to 8) (size 9 to 14) (size 15 to 20)
#    0.000    1.500    3.750    4.500    0.000    0.000 
#    0.000    0.000    0.000    0.000    0.000    0.000 
#    0.000    0.000    0.000   49.500    1.500    4.500 
#
# Total GULP energy -89131.705773 kJ/mol
# GULP energy per Si atom -5570.731611 kJ/mol
# Density = 2.049657 g / cm^3
# Si number density = 20.543327 Si / 1000 Ang^3
#
#
#
# Elastic Constant Matrix: (Units=GPa)
#
#
# Indices 1 2 3 4 5 6 
#
# 1 45.7416 41.9252 43.1109 0.0000 0.0000 0.0000
# 2 41.9252 123.5741 70.9850 0.0000 0.0000 0.0000
# 3 43.1109 70.9850 204.8467 0.0000 0.0000 0.0000
# 4 0.0000 0.0000 0.0000 23.8505 0.0000 0.0000
# 5 0.0000 0.0000 0.0000 0.0000 33.5663 0.0000
# 6 0.0000 0.0000 0.0000 0.0000 0.0000 9.6828
#
#
#
# Elastic Compliance Matrix: (Units=1/GPa)
#
#
# Indices 1 2 3 4 5 6 
#
# 1 0.034117 -0.009302 -0.003957 0.000000 0.000000 0.000000
# 2 -0.009302 0.012640 -0.002422 0.000000 0.000000 0.000000
# 3 -0.003957 -0.002422 0.006554 0.000000 0.000000 0.000000
# 4 0.000000 0.000000 0.000000 0.041928 0.000000 0.000000
# 5 0.000000 0.000000 0.000000 0.000000 0.029792 0.000000
# 6 0.000000 0.000000 0.000000 0.000000 0.000000 0.103276
#
#
# Mechanical properties :
#
#
# Convention : Reuss Voigt Hill
#
# Bulk Modulus (GPa) = 45.56146 76.24497 60.90322
# Shear Modulus (GPa) = 18.72766 27.96267 23.34516
#
# Velocity S-wave (km/s) = 3.02258 3.69339 3.37469
# Velocity P-wave (km/s) = 5.86580 7.44197 6.70040
#
# Compressibility (1/GPa) = 0.02194837
#
# Stress axis : x y z
#
# Youngs Moduli (GPa) = 29.31080 79.11557 152.58320
#
# Poissons Ratio (x) = 0.73594 0.60372
# Poissons Ratio (y) = 0.27265 0.36961
# Poissons Ratio (z) = 0.11597 0.19164
#
# Static dielectric constant tensor:
#      x y z
#    x 1.900120 0.000000 0.000000 
#    y 0.000000 1.733220 0.000000 
#    z 0.000000 0.000000 1.884160 
# 
# From -- ./inp_files/1730.got.cif
#   From: 2010.05.17/outbox.cif.g08.bks.cpg/sg20_1_cif.got.tgz:1730.got - 2010.06.03 22:52:26.
