data_PCOD9317249
_publ_section_title
;
Structure prediction by ZEFSAII (Michael W. Deem and Ramdas Pophale) SiO2 
 PCOD9317249
Probable space group: C 2 2 21
;
_chemical_formula_sum "Si O2"
_cell_formula_units_Z 56
_cell_length_a 12.905155
_cell_length_b 7.686691
_cell_length_c 29.942130
_cell_angle_alpha 90.000000
_cell_angle_beta 90.000000
_cell_angle_gamma 90.000000
_cell_volume 2970.197579
_symmetry_space_group_name_H-M "C 2 2 21"
_symmetry_group_IT_number 20
_symmetry_cell_setting 'orthorhombic'
loop_
_space_group_symop_operation_xyz
x,y,z
-x,-y,1/2+z
x,-y,-z
-x,y,1/2-z
1/2+x,1/2+y,z
1/2-x,1/2-y,1/2+z
1/2+x,1/2-y,-z
1/2-x,1/2+y,1/2-z
loop_
_atom_site_type_symbol
_atom_site_label
_atom_site_fract_x
_atom_site_fract_y
_atom_site_fract_z
Si Si1 0.379231 0.309800 0.549800
Si Si2 0.299633 0.510986 0.800878
Si Si3 0.788897 0.500000 0.000000
Si Si4 0.876291 0.663682 0.648959
Si Si5 0.617286 0.687952 0.448013
Si Si6 0.764720 0.393907 0.797269
Si Si7 0.783227 0.500000 0.500000
Si Si8 0.889562 0.309579 0.153494
O O1 0.290248 0.450034 0.539886
O O2 0.365199 0.223602 0.598124
O O3 0.498054 0.372565 0.546923
O O4 0.354374 0.161730 0.513187
O O5 0.204292 0.515940 0.836226
O O6 0.256212 0.456178 0.752758
O O7 0.332076 0.714400 0.798252
O O8 0.379206 0.369090 0.818565
O O9 0.858566 0.340754 0.016416
O O10 0.841069 0.825015 0.680146
O O11 0.994437 0.617796 0.657308
O O12 0.704272 0.545646 0.459684
O O13 0.629332 0.762862 0.398232
O O14 0.813161 0.547997 0.825997
#
# Coordination Sequence:
#
# PCOD9317249 Si02
#       8
#     8   8   4   8   8   8   4   8
#     4  10  19  36  54  79 116 141 183 231 269 327
#     4  10  21  38  59  84 112 147 189 235 282 341
#     4  10  20  34  56  84 108 148 184 222 278 326
#     4   9  22  37  57  84 114 150 188 235 278 337
#     4  10  21  34  58  81 110 149 183 225 277 331
#     4  10  21  38  59  84 112 147 189 235 282 341
#     4  10  20  34  56  84 108 148 184 222 278 326
#     4  11  20  41  59  82 118 150 186 235 286 329
#
# _framework density 18.853964000000001
#
# number of rings (size 3 to 8) (size 9 to 14) (size 15 to 20)
#    0.857    1.143    1.429    2.571    0.000    2.286 
#    2.571    1.429   12.571    0.000    0.000    0.000 
#    0.000    0.000    0.000    0.000    0.000    0.000 
#
# Total GULP energy -155971.160272 kJ/mol
# GULP energy per Si atom -5570.398581 kJ/mol
# Density = 1.881105 g / cm^3
# Si number density = 18.853964 Si / 1000 Ang^3
#
#
#
# Elastic Constant Matrix: (Units=GPa)
#
#
# Indices 1 2 3 4 5 6 
#
# 1 39.2971 -11.6536 10.2077 0.0000 0.0000 0.0000
# 2 -11.6536 42.7180 -2.0806 0.0000 0.0000 0.0000
# 3 10.2077 -2.0806 51.3931 0.0000 0.0000 0.0000
# 4 0.0000 0.0000 0.0000 27.8960 0.0000 0.0000
# 5 0.0000 0.0000 0.0000 0.0000 -26.3738 0.0000
# 6 0.0000 0.0000 0.0000 0.0000 0.0000 11.8529
#
#
#
# Elastic Compliance Matrix: (Units=1/GPa)
#
#
# Indices 1 2 3 4 5 6 
#
# 1 0.029149 0.007685 -0.005478 0.000000 0.000000 0.000000
# 2 0.007685 0.025482 -0.000495 0.000000 0.000000 0.000000
# 3 -0.005478 -0.000495 0.020526 0.000000 0.000000 0.000000
# 4 0.000000 0.000000 0.000000 0.035847 0.000000 0.000000
# 5 0.000000 0.000000 0.000000 0.000000 -0.037916 0.000000
# 6 0.000000 0.000000 0.000000 0.000000 0.000000 0.084368
#
#
# Mechanical properties :
#
#
# Convention : Reuss Voigt Hill
#
# Bulk Modulus (GPa) = 12.72576 14.03946 13.38261
# Shear Modulus (GPa) = 27.74301 11.80399 19.77350
#
# Velocity S-wave (km/s) = 3.84013 2.50486 3.24199
# Velocity P-wave (km/s) = 5.14067 3.97849 4.59646
#
# Compressibility (1/GPa) = 0.07858074
#
# Stress axis : x y z
#
# Youngs Moduli (GPa) = 34.30619 39.24373 48.71879
#
# Poissons Ratio (x) = -0.30159 0.26691
# Poissons Ratio (y) = -0.26365 0.02411
# Poissons Ratio (z) = 0.18795 0.01942
#
# Static dielectric constant tensor:
#      x y z
#    x 1.625570 0.000000 0.000000 
#    y 0.000000 1.652120 0.000000 
#    z 0.000000 0.000000 1.642170 
# 
# From -- ./inp_files/31322.got.cif
#   From: 2010.05.17/outbox.cif.g08.bks.cpg/sg20_16_cif.got.tgz:31322.got - 2010.06.03 22:52:26.
