data_PCOD9317285
_publ_section_title
;
Structure prediction by ZEFSAII (Michael W. Deem and Ramdas Pophale) SiO2 
 PCOD9317285
Probable space group: C 2 2 21
;
_chemical_formula_sum "Si O2"
_cell_formula_units_Z 48
_cell_length_a 8.936173
_cell_length_b 16.423450
_cell_length_c 16.663682
_cell_angle_alpha 90.000000
_cell_angle_beta 90.000000
_cell_angle_gamma 90.000000
_cell_volume 2445.608470
_symmetry_space_group_name_H-M "C 2 2 21"
_symmetry_group_IT_number 20
_symmetry_cell_setting 'orthorhombic'
loop_
_space_group_symop_operation_xyz
x,y,z
-x,-y,1/2+z
x,-y,-z
-x,y,1/2-z
1/2+x,1/2+y,z
1/2-x,1/2-y,1/2+z
1/2+x,1/2-y,-z
1/2-x,1/2+y,1/2-z
loop_
_atom_site_type_symbol
_atom_site_label
_atom_site_fract_x
_atom_site_fract_y
_atom_site_fract_z
Si Si1 0.094755 0.725475 0.169926
Si Si2 0.750893 0.569162 0.395147
Si Si3 0.027333 0.147185 0.154961
Si Si4 0.850628 0.306326 0.096153
Si Si5 0.294655 0.774065 0.916148
Si Si6 0.354790 0.896626 0.421505
O O1 0.180778 0.639459 0.161519
O O2 0.215499 0.797627 0.159145
O O3 0.000000 0.732365 0.250000
O O4 0.970307 0.725122 0.100642
O O5 0.571292 0.576565 0.386115
O O6 0.805883 0.478639 0.377132
O O7 0.807933 0.590346 0.485112
O O8 0.953349 0.228351 0.116917
O O9 0.000000 0.145231 0.250000
O O10 0.201131 0.158686 0.133364
O O11 0.968354 0.379636 0.090567
O O12 0.775395 0.292089 0.009950
O O13 0.233209 0.684424 0.895145
#
# Coordination Sequence:
#
# PCOD9317285 Si02
#       6
#     8   8   8   8   8   8
#     4  11  21  36  59  88 125 159 198 245 307 374
#     4  10  20  38  57  88 119 158 197 249 314 365
#     4  10  20  35  59  89 123 163 199 244 310 372
#     4  10  19  36  59  90 113 158 212 251 297 354
#     4  11  18  35  61  89 116 156 202 258 290 361
#     4  10  20  36  62  84 118 146 207 261 298 344
#
# _framework density 19.627019000000001
#
# number of rings (size 3 to 8) (size 9 to 14) (size 15 to 20)
#    0.000    1.667    5.000    3.000    0.000    0.000 
#    0.000    7.500    0.000    0.000    0.000    0.000 
#    0.000    0.000    0.000    0.000    0.000    0.000 
#
# Total GULP energy -133757.011831 kJ/mol
# GULP energy per Si atom -5573.208826 kJ/mol
# Density = 1.958235 g / cm^3
# Si number density = 19.627019 Si / 1000 Ang^3
#
#
#
# Elastic Constant Matrix: (Units=GPa)
#
#
# Indices 1 2 3 4 5 6 
#
# 1 101.5854 50.7969 -0.8252 0.0000 0.0000 0.0000
# 2 50.7969 91.2359 11.3186 0.0000 0.0000 0.0000
# 3 -0.8252 11.3186 48.1431 0.0000 0.0000 0.0000
# 4 0.0000 0.0000 0.0000 5.5845 0.0000 0.0000
# 5 0.0000 0.0000 0.0000 0.0000 39.4795 0.0000
# 6 0.0000 0.0000 0.0000 0.0000 0.0000 43.0423
#
#
#
# Elastic Compliance Matrix: (Units=1/GPa)
#
#
# Indices 1 2 3 4 5 6 
#
# 1 0.013847 -0.007972 0.002111 0.000000 0.000000 0.000000
# 2 -0.007972 0.015879 -0.003870 0.000000 0.000000 0.000000
# 3 0.002111 -0.003870 0.021717 0.000000 0.000000 0.000000
# 4 0.000000 0.000000 0.000000 0.179067 0.000000 0.000000
# 5 0.000000 0.000000 0.000000 0.000000 0.025330 0.000000
# 6 0.000000 0.000000 0.000000 0.000000 0.000000 0.023233
#
#
# Mechanical properties :
#
#
# Convention : Reuss Voigt Hill
#
# Bulk Modulus (GPa) = 31.26587 40.39389 35.82988
# Shear Modulus (GPa) = 16.17107 29.59953 22.88530
#
# Velocity S-wave (km/s) = 2.87351 3.88764 3.41839
# Velocity P-wave (km/s) = 5.19365 6.38570 5.82027
#
# Compressibility (1/GPa) = 0.03198376
#
# Stress axis : x y z
#
# Youngs Moduli (GPa) = 72.21675 62.97639 46.04597
#
# Poissons Ratio (x) = 0.50202 -0.09723
# Poissons Ratio (y) = 0.57568 0.17819
# Poissons Ratio (z) = -0.15248 0.24371
#
# Static dielectric constant tensor:
#      x y z
#    x 1.763560 0.000000 0.000000 
#    y 0.000000 1.679650 0.000000 
#    z 0.000000 0.000000 1.724680 
# 
# From -- ./inp_files/23461.got.cif
#   From: 2010.05.17/outbox.cif.g08.bks.cpg/sg20_12_cif.got.tgz:23461.got - 2010.06.03 22:52:26.
