data_PCOD9317825
_publ_section_title
;
Structure prediction by ZEFSAII (Michael W. Deem and Ramdas Pophale) SiO2 
 PCOD9317825
Probable space group: C 2 2 21
;
_chemical_formula_sum "Si O2"
_cell_formula_units_Z 48
_cell_length_a 11.059707
_cell_length_b 10.034385
_cell_length_c 16.215384
_cell_angle_alpha 90.000000
_cell_angle_beta 90.000000
_cell_angle_gamma 90.000000
_cell_volume 1799.540476
_symmetry_space_group_name_H-M "C 2 2 21"
_symmetry_group_IT_number 20
_symmetry_cell_setting 'orthorhombic'
loop_
_space_group_symop_operation_xyz
x,y,z
-x,-y,1/2+z
x,-y,-z
-x,y,1/2-z
1/2+x,1/2+y,z
1/2-x,1/2-y,1/2+z
1/2+x,1/2-y,-z
1/2-x,1/2+y,1/2-z
loop_
_atom_site_type_symbol
_atom_site_label
_atom_site_fract_x
_atom_site_fract_y
_atom_site_fract_z
Si Si1 0.751666 0.684723 0.733020
Si Si2 0.442128 0.042465 0.910465
Si Si3 0.500000 0.984585 0.250000
Si Si4 0.050756 0.021916 0.333923
Si Si5 0.349942 0.769193 0.426371
Si Si6 0.818210 0.000000 0.000000
Si Si7 0.175261 0.141901 0.899592
O O1 0.648494 0.582791 0.702603
O O2 0.782433 0.781269 0.656416
O O3 0.709638 0.739859 0.821938
O O4 0.875051 0.599793 0.747512
O O5 0.485546 0.944289 0.837730
O O6 0.519737 0.176883 0.897750
O O7 0.300752 0.064912 0.911705
O O8 0.481176 0.000000 0.000000
O O9 0.000000 0.096555 0.250000
O O10 0.933463 0.946149 0.367333
O O11 0.109846 0.066144 0.422341
O O12 0.361121 0.688192 0.509744
O O13 0.265598 0.890458 0.456897
#
# Coordination Sequence:
#
# PCOD9317825 Si02
#       7
#     8   8   4   8   8   4   8
#     4   8  17  35  56  76 109 150 182 216 283 332
#     4  10  20  36  56  82 111 143 185 230 278 328
#     4   8  16  34  58  76 108 154 176 216 282 336
#     4   9  19  36  58  78 111 151 184 222 282 336
#     4  10  20  36  58  80 110 148 185 228 278 334
#     4  10  20  36  58  80 110 150 186 224 282 336
#     4  10  21  35  58  81 110 147 187 228 275 332
#
# _framework density 26.673476999999998
#
# number of rings (size 3 to 8) (size 9 to 14) (size 15 to 20)
#    0.000    2.667    0.833    0.000    5.833    0.000 
#    0.000    3.333    1.833    0.000    0.000    0.000 
#    0.000    0.000    0.000    0.000    0.000    0.000 
#
# Total GULP energy -133927.808934 kJ/mol
# GULP energy per Si atom -5580.325372 kJ/mol
# Density = 2.661277 g / cm^3
# Si number density = 26.673477 Si / 1000 Ang^3
#
#
#
# Elastic Constant Matrix: (Units=GPa)
#
#
# Indices 1 2 3 4 5 6 
#
# 1 173.4857 25.9881 53.4559 0.0000 0.0000 0.0000
# 2 25.9881 29.6937 24.9221 0.0000 0.0000 0.0000
# 3 53.4559 24.9221 224.5811 0.0000 0.0000 0.0000
# 4 0.0000 0.0000 0.0000 32.6460 0.0000 0.0000
# 5 0.0000 0.0000 0.0000 0.0000 45.4964 0.0000
# 6 0.0000 0.0000 0.0000 0.0000 0.0000 25.4069
#
#
#
# Elastic Compliance Matrix: (Units=1/GPa)
#
#
# Indices 1 2 3 4 5 6 
#
# 1 0.006858 -0.005108 -0.001065 0.000000 0.000000 0.000000
# 2 -0.005108 0.040940 -0.003327 0.000000 0.000000 0.000000
# 3 -0.001065 -0.003327 0.005076 0.000000 0.000000 0.000000
# 4 0.000000 0.000000 0.000000 0.030632 0.000000 0.000000
# 5 0.000000 0.000000 0.000000 0.000000 0.021980 0.000000
# 6 0.000000 0.000000 0.000000 0.000000 0.000000 0.039359
#
#
# Mechanical properties :
#
#
# Convention : Reuss Voigt Hill
#
# Bulk Modulus (GPa) = 29.52265 70.72141 50.12203
# Shear Modulus (GPa) = 28.54929 42.26949 35.40939
#
# Velocity S-wave (km/s) = 3.27513 3.98515 3.64746
# Velocity P-wave (km/s) = 5.03926 6.90989 6.04734
#
# Compressibility (1/GPa) = 0.03387230
#
# Stress axis : x y z
#
# Youngs Moduli (GPa) = 145.82411 24.42596 197.02107
#
# Poissons Ratio (x) = 0.12476 0.20992
# Poissons Ratio (y) = 0.74480 0.65558
# Poissons Ratio (z) = 0.15537 0.08128
#
# Static dielectric constant tensor:
#      x y z
#    x 1.991530 0.000000 0.000000 
#    y 0.000000 2.295180 0.000000 
#    z 0.000000 0.000000 2.282630 
# 
# From -- ./inp_files/20152.got.cif
#   From: 2010.05.17/outbox.cif.g08.bks.cpg/sg20_11_cif.got.tgz:20152.got - 2010.06.03 22:52:26.
