data_PCOD9317736
_publ_section_title
;
Structure prediction by ZEFSAII (Michael W. Deem and Ramdas Pophale) SiO2 
 PCOD9317736
Probable space group: C 2 2 21
;
_chemical_formula_sum "Si O2"
_cell_formula_units_Z 28
_cell_length_a 30.720259
_cell_length_b 9.067301
_cell_length_c 5.147643
_cell_angle_alpha 90.000000
_cell_angle_beta 90.000000
_cell_angle_gamma 90.000000
_cell_volume 1433.875109
_symmetry_space_group_name_H-M "C 2 2 21"
_symmetry_group_IT_number 20
_symmetry_cell_setting 'orthorhombic'
loop_
_space_group_symop_operation_xyz
x,y,z
-x,-y,1/2+z
x,-y,-z
-x,y,1/2-z
1/2+x,1/2+y,z
1/2-x,1/2-y,1/2+z
1/2+x,1/2-y,-z
1/2-x,1/2+y,1/2-z
loop_
_atom_site_type_symbol
_atom_site_label
_atom_site_fract_x
_atom_site_fract_y
_atom_site_fract_z
Si Si1 0.774864 0.103923 0.751402
Si Si2 0.094267 0.606681 0.748551
Si Si3 0.682548 0.172858 0.931297
Si Si4 0.500000 0.893669 0.250000
O O1 0.727946 0.184182 0.776355
O O2 0.810798 0.226597 0.684290
O O3 0.773276 0.000000 0.500000
O O4 0.782438 0.000000 0.000000
O O5 0.099461 0.500000 0.500000
O O6 0.137524 0.703896 0.785085
O O7 0.047002 0.685259 0.739448
O O8 0.092080 0.500000 0.000000
O O9 0.681429 0.000000 0.000000
O O10 0.500387 0.000000 0.500000
#
# Coordination Sequence:
#
# PCOD9317736 Si02
#       4
#     8   8   8   4
#     4  11  23  36  51  75 110 146 184 232 275 315
#     4   9  17  28  47  73 102 136 173 215 268 324
#     4  10  20  35  54  75 103 145 189 221 264 324
#     4   8  14  26  42  68 104 132 160 212 274 320
#
# _framework density 19.527504
#
# number of rings (size 3 to 8) (size 9 to 14) (size 15 to 20)
#    0.000    2.286    0.000    4.286    0.000    6.857 
#    0.000    0.000    0.000    0.000    0.000    0.000 
#    0.000   38.857    0.000   17.429    0.000    3.429 
#
# Total GULP energy -78010.600326 kJ/mol
# GULP energy per Si atom -5572.185738 kJ/mol
# Density = 1.948306 g / cm^3
# Si number density = 19.527504 Si / 1000 Ang^3
#
#
#
# Elastic Constant Matrix: (Units=GPa)
#
#
# Indices 1 2 3 4 5 6 
#
# 1 193.0452 35.9052 35.7628 0.0000 0.0000 0.0000
# 2 35.9052 66.8764 31.3097 0.0000 0.0000 0.0000
# 3 35.7628 31.3097 142.6266 0.0000 0.0000 0.0000
# 4 0.0000 0.0000 0.0000 26.3558 0.0000 0.0000
# 5 0.0000 0.0000 0.0000 0.0000 26.8124 0.0000
# 6 0.0000 0.0000 0.0000 0.0000 0.0000 0.5620
#
#
#
# Elastic Compliance Matrix: (Units=1/GPa)
#
#
# Indices 1 2 3 4 5 6 
#
# 1 0.005849 -0.002735 -0.000866 0.000000 0.000000 0.000000
# 2 -0.002735 0.017944 -0.003253 0.000000 0.000000 0.000000
# 3 -0.000866 -0.003253 0.007943 0.000000 0.000000 0.000000
# 4 0.000000 0.000000 0.000000 0.037942 0.000000 0.000000
# 5 0.000000 0.000000 0.000000 0.000000 0.037296 0.000000
# 6 0.000000 0.000000 0.000000 0.000000 0.000000 1.779464
#
#
# Mechanical properties :
#
#
# Convention : Reuss Voigt Hill
#
# Bulk Modulus (GPa) = 55.47158 67.61151 61.54154
# Shear Modulus (GPa) = 2.62308 30.71742 16.67025
#
# Velocity S-wave (km/s) = 1.16025 3.97045 2.92495
# Velocity P-wave (km/s) = 5.50123 7.46446 6.55674
#
# Compressibility (1/GPa) = 0.01802725
#
# Stress axis : x y z
#
# Youngs Moduli (GPa) = 170.96104 55.72761 125.90105
#
# Poissons Ratio (x) = 0.15241 0.10907
# Poissons Ratio (y) = 0.46755 0.40961
# Poissons Ratio (z) = 0.14811 0.18131
#
# Static dielectric constant tensor:
#      x y z
#    x 1.810790 0.000000 0.000000 
#    y 0.000000 1.682540 0.000000 
#    z 0.000000 0.000000 1.740820 
# 
# From -- ./inp_files/507.got.cif
#   From: 2010.05.17/outbox.cif.g08.bks.cpg/sg20_1_cif.got.tgz:507.got - 2010.06.03 22:52:26.
