data_PCOD9317228
_publ_section_title
;
Structure prediction by ZEFSAII (Michael W. Deem and Ramdas Pophale) SiO2 
 PCOD9317228
Probable space group: C 2 2 21
;
_chemical_formula_sum "Si O2"
_cell_formula_units_Z 60
_cell_length_a 9.096803
_cell_length_b 26.777424
_cell_length_c 13.188476
_cell_angle_alpha 90.000000
_cell_angle_beta 90.000000
_cell_angle_gamma 90.000000
_cell_volume 3212.567034
_symmetry_space_group_name_H-M "C 2 2 21"
_symmetry_group_IT_number 20
_symmetry_cell_setting 'orthorhombic'
loop_
_space_group_symop_operation_xyz
x,y,z
-x,-y,1/2+z
x,-y,-z
-x,y,1/2-z
1/2+x,1/2+y,z
1/2-x,1/2-y,1/2+z
1/2+x,1/2-y,-z
1/2-x,1/2+y,1/2-z
loop_
_atom_site_type_symbol
_atom_site_label
_atom_site_fract_x
_atom_site_fract_y
_atom_site_fract_z
Si Si1 0.726907 0.868404 0.999000
Si Si2 0.964394 0.726616 0.135303
Si Si3 0.031198 0.394164 0.634319
Si Si4 0.500000 0.481116 0.750000
Si Si5 0.511147 0.674536 0.368613
Si Si6 0.347963 0.765556 0.445362
Si Si7 0.411535 0.456828 0.074686
Si Si8 0.654044 0.420088 0.931630
O O1 0.649148 0.825418 0.064527
O O2 0.824333 0.905837 0.063410
O O3 0.611631 0.900089 0.934625
O O4 0.833017 0.839852 0.918072
O O5 0.946664 0.666343 0.136570
O O6 0.000000 0.742498 0.250000
O O7 0.814244 0.748588 0.088640
O O8 0.098394 0.741906 0.061569
O O9 0.000000 0.409964 0.750000
O O10 0.172300 0.420059 0.584390
O O11 0.597529 0.518554 0.683892
O O12 0.581466 0.447464 0.833717
O O13 0.500000 0.663172 0.250000
O O14 0.462525 0.731412 0.384489
O O15 0.397923 0.637518 0.425008
O O16 0.353866 0.500000 0.000000
O O17 0.576043 0.444266 0.030321
#
# Coordination Sequence:
#
# PCOD9317228 Si02
#       8
#     8   8   8   4   8   8   8   8
#     4  10  22  38  55  87 125 158 199 243 308 365
#     4  10  22  37  55  85 127 165 205 256 303 370
#     4  10  20  32  59  90 121 148 192 257 306 350
#     4  10  20  40  68  86 116 150 214 244 304 374
#     4  11  20  33  60  86 114 157 203 248 298 358
#     4  11  21  36  55  87 123 163 207 246 299 377
#     4   9  21  39  64  86 113 158 201 256 297 364
#     4  10  19  35  63  93 114 147 197 254 307 355
#
# _framework density 18.676653000000002
#
# number of rings (size 3 to 8) (size 9 to 14) (size 15 to 20)
#    0.000    1.867    3.333    0.800    7.467    0.000 
#    1.200    2.000    5.867    0.000    0.000    0.000 
#    0.000    0.000    0.000    0.000    0.000    0.000 
#
# Total GULP energy -167161.032124 kJ/mol
# GULP energy per Si atom -5572.034404 kJ/mol
# Density = 1.863414 g / cm^3
# Si number density = 18.676653 Si / 1000 Ang^3
#
#
#
# Elastic Constant Matrix: (Units=GPa)
#
#
# Indices 1 2 3 4 5 6 
#
# 1 98.3959 6.9850 10.8055 0.0000 0.0000 0.0000
# 2 6.9850 58.2957 6.5772 0.0000 0.0000 0.0000
# 3 10.8055 6.5772 42.0168 0.0000 0.0000 0.0000
# 4 0.0000 0.0000 0.0000 7.1750 0.0000 0.0000
# 5 0.0000 0.0000 0.0000 0.0000 15.6735 0.0000
# 6 0.0000 0.0000 0.0000 0.0000 0.0000 2.8870
#
#
#
# Elastic Compliance Matrix: (Units=1/GPa)
#
#
# Indices 1 2 3 4 5 6 
#
# 1 0.010512 -0.000972 -0.002551 0.000000 0.000000 0.000000
# 2 -0.000972 0.017552 -0.002498 0.000000 0.000000 0.000000
# 3 -0.002551 -0.002498 0.024847 0.000000 0.000000 0.000000
# 4 0.000000 0.000000 0.000000 0.139372 0.000000 0.000000
# 5 0.000000 0.000000 0.000000 0.000000 0.063802 0.000000
# 6 0.000000 0.000000 0.000000 0.000000 0.000000 0.346377
#
#
# Mechanical properties :
#
#
# Convention : Reuss Voigt Hill
#
# Bulk Modulus (GPa) = 24.46780 27.49376 25.98078
# Shear Modulus (GPa) = 7.96016 16.76983 12.36500
#
# Velocity S-wave (km/s) = 2.06672 2.99975 2.57584
# Velocity P-wave (km/s) = 4.33870 5.17213 4.77364
#
# Compressibility (1/GPa) = 0.04087003
#
# Stress axis : x y z
#
# Youngs Moduli (GPa) = 95.12777 56.97306 40.24616
#
# Poissons Ratio (x) = 0.05536 0.10268
# Poissons Ratio (y) = 0.09244 0.10052
# Poissons Ratio (z) = 0.24270 0.14230
#
# Static dielectric constant tensor:
#      x y z
#    x 1.679190 0.000000 0.000000 
#    y 0.000000 1.656460 0.000000 
#    z 0.000000 0.000000 1.715670 
# 
# From -- ./inp_files/13368.got.cif
#   From: 2010.05.17/outbox.cif.g08.bks.cpg/sg20_7_cif.got.tgz:13368.got - 2010.06.03 22:52:26.
