data_PCOD9317844
_publ_section_title
;
Structure prediction by ZEFSAII (Michael W. Deem and Ramdas Pophale) SiO2 
 PCOD9317844
Probable space group: C 2 2 21
;
_chemical_formula_sum "Si O2"
_cell_formula_units_Z 48
_cell_length_a 23.350090
_cell_length_b 9.352481
_cell_length_c 11.459646
_cell_angle_alpha 90.000000
_cell_angle_beta 90.000000
_cell_angle_gamma 90.000000
_cell_volume 2502.572082
_symmetry_space_group_name_H-M "C 2 2 21"
_symmetry_group_IT_number 20
_symmetry_cell_setting 'orthorhombic'
loop_
_space_group_symop_operation_xyz
x,y,z
-x,-y,1/2+z
x,-y,-z
-x,y,1/2-z
1/2+x,1/2+y,z
1/2-x,1/2-y,1/2+z
1/2+x,1/2-y,-z
1/2-x,1/2+y,1/2-z
loop_
_atom_site_type_symbol
_atom_site_label
_atom_site_fract_x
_atom_site_fract_y
_atom_site_fract_z
Si Si1 0.171057 0.228189 0.548952
Si Si2 0.158403 0.351093 0.952079
Si Si3 0.281915 0.571984 0.148070
Si Si4 0.928112 0.897069 0.384091
Si Si5 0.062001 0.102232 0.614404
Si Si6 0.219842 0.119237 0.092456
O O1 0.181385 0.197735 0.412584
O O2 0.106540 0.230134 0.591077
O O3 0.212346 0.352903 0.587791
O O4 0.199271 0.081901 0.600108
O O5 0.215054 0.391963 0.876109
O O6 0.113632 0.240491 0.895089
O O7 0.133404 0.500000 0.000000
O O8 0.186555 0.262063 0.058191
O O9 0.295495 0.567541 0.281982
O O10 0.924468 0.953602 0.247638
O O11 0.995482 0.857440 0.391602
O O12 0.918880 0.000000 0.500000
O O13 0.072629 0.000000 0.500000
O O14 0.205404 0.000000 0.000000
#
# Coordination Sequence:
#
# PCOD9317844 Si02
#       6
#     8   8   8   8   8   8
#     4  10  20  36  57  83 116 157 187 237 306 346
#     4  11  22  39  57  87 123 162 198 248 305 359
#     4  10  20  37  55  82 120 153 190 234 303 358
#     4  10  23  38  62  93 114 158 212 253 301 353
#     4  10  20  39  63  86 121 158 203 256 302 359
#     4  11  24  34  58  91 117 154 201 245 293 360
#
# _framework density 19.180268000000002
#
# number of rings (size 3 to 8) (size 9 to 14) (size 15 to 20)
#    0.000    1.667    5.000    1.500    9.333    0.000 
#    0.000    0.833    0.000   10.000    0.000    0.000 
#    0.000    0.000    0.000    0.000    0.000    0.000 
#
# Total GULP energy -133629.813696 kJ/mol
# GULP energy per Si atom -5567.908904 kJ/mol
# Density = 1.913661 g / cm^3
# Si number density = 19.180268 Si / 1000 Ang^3
#
#
#
# Elastic Constant Matrix: (Units=GPa)
#
#
# Indices 1 2 3 4 5 6 
#
# 1 131.9675 24.2845 21.4735 0.0000 0.0000 0.0000
# 2 24.2845 59.8361 23.1817 0.0000 0.0000 0.0000
# 3 21.4735 23.1817 142.0893 0.0000 0.0000 0.0000
# 4 0.0000 0.0000 0.0000 12.1469 0.0000 0.0000
# 5 0.0000 0.0000 0.0000 0.0000 948.4468 0.0000
# 6 0.0000 0.0000 0.0000 0.0000 0.0000 28.8991
#
#
#
# Elastic Compliance Matrix: (Units=1/GPa)
#
#
# Indices 1 2 3 4 5 6 
#
# 1 0.008263 -0.003063 -0.000749 0.000000 0.000000 0.000000
# 2 -0.003063 0.018976 -0.002633 0.000000 0.000000 0.000000
# 3 -0.000749 -0.002633 0.007581 0.000000 0.000000 0.000000
# 4 0.000000 0.000000 0.000000 0.082326 0.000000 0.000000
# 5 0.000000 0.000000 0.000000 0.000000 0.001054 0.000000
# 6 0.000000 0.000000 0.000000 0.000000 0.000000 0.034603
#
#
# Mechanical properties :
#
#
# Convention : Reuss Voigt Hill
#
# Bulk Modulus (GPa) = 45.60216 52.41915 49.01066
# Shear Modulus (GPa) = 28.90123 215.56210 122.23167
#
# Velocity S-wave (km/s) = 3.88599 10.61279 7.99163
# Velocity P-wave (km/s) = 6.63036 13.32532 10.52440
#
# Compressibility (1/GPa) = 0.02192878
#
# Stress axis : x y z
#
# Youngs Moduli (GPa) = 121.01803 52.69906 131.91613
#
# Poissons Ratio (x) = 0.16144 0.09880
# Poissons Ratio (y) = 0.37073 0.34732
# Poissons Ratio (z) = 0.09064 0.13875
#
# Static dielectric constant tensor:
#      x y z
#    x 1.706020 0.000000 0.000000 
#    y 0.000000 1.650590 0.000000 
#    z 0.000000 0.000000 1.714690 
# 
# From -- ./inp_files/16647.got.cif
#   From: 2010.05.17/outbox.cif.g08.bks.cpg/sg20_9_cif.got.tgz:16647.got - 2010.06.03 22:52:26.
