data_PCOD9317494
_publ_section_title
;
Structure prediction by ZEFSAII (Michael W. Deem and Ramdas Pophale) SiO2 
 PCOD9317494
Probable space group: C 2 2 21
;
_chemical_formula_sum "Si O2"
_cell_formula_units_Z 48
_cell_length_a 12.332299
_cell_length_b 8.686033
_cell_length_c 17.225512
_cell_angle_alpha 90.000000
_cell_angle_beta 90.000000
_cell_angle_gamma 90.000000
_cell_volume 1845.175418
_symmetry_space_group_name_H-M "C 2 2 21"
_symmetry_group_IT_number 20
_symmetry_cell_setting 'orthorhombic'
loop_
_space_group_symop_operation_xyz
x,y,z
-x,-y,1/2+z
x,-y,-z
-x,y,1/2-z
1/2+x,1/2+y,z
1/2-x,1/2-y,1/2+z
1/2+x,1/2-y,-z
1/2-x,1/2+y,1/2-z
loop_
_atom_site_type_symbol
_atom_site_label
_atom_site_fract_x
_atom_site_fract_y
_atom_site_fract_z
Si Si1 0.500473 0.226702 0.449900
Si Si2 0.895093 0.226734 0.105347
Si Si3 0.220477 0.539356 0.415849
Si Si4 0.446154 0.447192 0.173914
Si Si5 0.726185 0.231425 0.793299
Si Si6 0.691702 0.070165 0.144146
O O1 0.512372 0.250743 0.541190
O O2 0.616481 0.146085 0.433566
O O3 0.498153 0.386139 0.403263
O O4 0.406456 0.127352 0.410766
O O5 0.834140 0.386386 0.118403
O O6 0.796220 0.106161 0.085664
O O7 0.944617 0.131148 0.175865
O O8 0.270496 0.500000 0.500000
O O9 0.291663 0.629097 0.353555
O O10 0.500000 0.381974 0.250000
O O11 0.327592 0.374682 0.179122
O O12 0.771662 0.316055 0.715848
O O13 0.647110 0.086988 0.812755
#
# Coordination Sequence:
#
# PCOD9317494 Si02
#       6
#     8   8   8   8   8   8
#     4  10  21  42  68  96 142 188 231 291 365 429
#     4  10  22  41  64  99 146 181 238 290 352 438
#     4   9  20  42  63  94 143 188 232 292 356 429
#     4  10  19  39  66 101 138 185 232 284 358 431
#     4  10  21  39  69 105 139 186 243 303 364 427
#     4  11  22  41  71 105 143 187 243 300 367 432
#
# _framework density 26.013786
#
# number of rings (size 3 to 8) (size 9 to 14) (size 15 to 20)
#    0.000    2.000    1.667    1.500    0.000    1.333 
#    9.000   25.000    0.000    0.000    0.000    0.000 
#    0.000    0.000    0.000    0.000    0.000    0.000 
#
# Total GULP energy -133655.319506 kJ/mol
# GULP energy per Si atom -5568.971646 kJ/mol
# Density = 2.595458 g / cm^3
# Si number density = 26.013786 Si / 1000 Ang^3
#
#
#
# Elastic Constant Matrix: (Units=GPa)
#
#
# Indices 1 2 3 4 5 6 
#
# 1 22.7223 -13.2320 20.0679 0.0000 0.0000 0.0000
# 2 -13.2320 143.8898 47.5491 0.0000 0.0000 0.0000
# 3 20.0679 47.5491 104.5737 0.0000 0.0000 0.0000
# 4 0.0000 0.0000 0.0000 47.2352 0.0000 0.0000
# 5 0.0000 0.0000 0.0000 0.0000 26.7150 0.0000
# 6 0.0000 0.0000 0.0000 0.0000 0.0000 24.2815
#
#
#
# Elastic Compliance Matrix: (Units=1/GPa)
#
#
# Indices 1 2 3 4 5 6 
#
# 1 0.067644 0.012369 -0.018605 0.000000 0.000000 0.000000
# 2 0.012369 0.010440 -0.007121 0.000000 0.000000 0.000000
# 3 -0.018605 -0.007121 0.016371 0.000000 0.000000 0.000000
# 4 0.000000 0.000000 0.000000 0.021171 0.000000 0.000000
# 5 0.000000 0.000000 0.000000 0.000000 0.037432 0.000000
# 6 0.000000 0.000000 0.000000 0.000000 0.000000 0.041184
#
#
# Mechanical properties :
#
#
# Convention : Reuss Voigt Hill
#
# Bulk Modulus (GPa) = 14.76220 42.21731 28.48976
# Shear Modulus (GPa) = 20.53091 34.09974 27.31532
#
# Velocity S-wave (km/s) = 2.81238 3.62447 3.24394
# Velocity P-wave (km/s) = 4.02902 5.81204 5.00064
#
# Compressibility (1/GPa) = 0.06774059
#
# Stress axis : x y z
#
# Youngs Moduli (GPa) = 14.78334 95.78343 61.08481
#
# Poissons Ratio (x) = -1.18470 1.13648
# Poissons Ratio (y) = -0.18285 0.43496
# Poissons Ratio (z) = 0.27504 0.68204
#
# Static dielectric constant tensor:
#      x y z
#    x 1.847650 0.000000 0.000000 
#    y 0.000000 2.270640 0.000000 
#    z 0.000000 0.000000 2.120250 
# 
# From -- ./inp_files/24819.got.cif
#   From: 2010.05.17/outbox.cif.g08.bks.cpg/sg20_13_cif.got.tgz:24819.got - 2010.06.03 22:52:26.
