data_PCOD9317485
_publ_section_title
;
Structure prediction by ZEFSAII (Michael W. Deem and Ramdas Pophale) SiO2 
 PCOD9317485
Probable space group: C 2 2 21
;
_chemical_formula_sum "Si O2"
_cell_formula_units_Z 44
_cell_length_a 19.036252
_cell_length_b 8.551166
_cell_length_c 14.580111
_cell_angle_alpha 90.000000
_cell_angle_beta 90.000000
_cell_angle_gamma 90.000000
_cell_volume 2373.381829
_symmetry_space_group_name_H-M "C 2 2 21"
_symmetry_group_IT_number 20
_symmetry_cell_setting 'orthorhombic'
loop_
_space_group_symop_operation_xyz
x,y,z
-x,-y,1/2+z
x,-y,-z
-x,y,1/2-z
1/2+x,1/2+y,z
1/2-x,1/2-y,1/2+z
1/2+x,1/2-y,-z
1/2-x,1/2+y,1/2-z
loop_
_atom_site_type_symbol
_atom_site_label
_atom_site_fract_x
_atom_site_fract_y
_atom_site_fract_z
Si Si1 0.411675 0.500000 0.500000
Si Si2 0.702290 0.616246 0.146815
Si Si3 0.676210 0.809360 0.512124
Si Si4 0.522930 0.759883 0.534646
Si Si5 0.035828 0.556195 0.654517
Si Si6 0.308798 0.848325 0.186848
O O1 0.361427 0.434016 0.580536
O O2 0.464393 0.629087 0.540892
O O3 0.759831 0.698663 0.081289
O O4 0.684214 0.733279 0.228197
O O5 0.742568 0.464803 0.188088
O O6 0.605956 0.723513 0.544959
O O7 0.696437 0.757066 0.410033
O O8 0.662097 0.000000 0.500000
O O9 0.521399 0.825682 0.429807
O O10 0.510628 0.893120 0.610738
O O11 0.118607 0.555188 0.677978
O O12 0.000000 0.596826 0.750000
#
# Coordination Sequence:
#
# PCOD9317485 Si02
#       6
#     4   8   8   8   8   8
#     4  12  24  38  62 102 136 152 206 288 314 340
#     4  11  21  41  64  92 131 162 210 270 319 369
#     4   9  16  42  66  77 119 179 198 239 323 384
#     4  10  20  39  62  87 126 169 206 251 317 380
#     4  10  19  39  64  86 119 175 215 244 307 388
#     4  10  20  38  66  89 122 172 213 253 318 387
#
# _framework density 18.538945999999999
#
# number of rings (size 3 to 8) (size 9 to 14) (size 15 to 20)
#    0.000    1.818    8.182    1.091    0.000    1.455 
#    6.545    0.909    0.000    0.000    0.000    0.000 
#    0.000    0.000    0.000    0.000    0.000    0.000 
#
# Total GULP energy -122546.263523 kJ/mol
# GULP energy per Si atom -5570.284706 kJ/mol
# Density = 1.849675 g / cm^3
# Si number density = 18.538946 Si / 1000 Ang^3
#
#
#
# Elastic Constant Matrix: (Units=GPa)
#
#
# Indices 1 2 3 4 5 6 
#
# 1 107.2051 41.7579 43.7057 0.0000 0.0000 0.0000
# 2 41.7579 37.5361 30.4885 0.0000 0.0000 0.0000
# 3 43.7057 30.4885 109.3959 0.0000 0.0000 0.0000
# 4 0.0000 0.0000 0.0000 26.8096 0.0000 0.0000
# 5 0.0000 0.0000 0.0000 0.0000 12.6066 0.0000
# 6 0.0000 0.0000 0.0000 0.0000 0.0000 27.5140
#
#
#
# Elastic Compliance Matrix: (Units=1/GPa)
#
#
# Indices 1 2 3 4 5 6 
#
# 1 0.016773 -0.017084 -0.001940 0.000000 0.000000 0.000000
# 2 -0.017084 0.051837 -0.007622 0.000000 0.000000 0.000000
# 3 -0.001940 -0.007622 0.012040 0.000000 0.000000 0.000000
# 4 0.000000 0.000000 0.000000 0.037300 0.000000 0.000000
# 5 0.000000 0.000000 0.000000 0.000000 0.079324 0.000000
# 6 0.000000 0.000000 0.000000 0.000000 0.000000 0.036345
#
#
# Mechanical properties :
#
#
# Convention : Reuss Voigt Hill
#
# Bulk Modulus (GPa) = 36.55025 54.00457 45.27741
# Shear Modulus (GPa) = 16.89013 22.59837 19.74425
#
# Velocity S-wave (km/s) = 3.02166 3.49516 3.26700
# Velocity P-wave (km/s) = 5.65085 6.74402 6.22149
#
# Compressibility (1/GPa) = 0.02735960
#
# Stress axis : x y z
#
# Youngs Moduli (GPa) = 59.61845 19.29114 83.05477
#
# Poissons Ratio (x) = 0.32957 0.16112
# Poissons Ratio (y) = 1.01853 0.63300
# Poissons Ratio (z) = 0.11565 0.14703
#
# Static dielectric constant tensor:
#      x y z
#    x 1.663630 0.000000 0.000000 
#    y 0.000000 1.661210 0.000000 
#    z 0.000000 0.000000 1.657360 
# 
# From -- ./inp_files/21195.got.cif
#   From: 2010.05.17/outbox.cif.g08.bks.cpg/sg20_11_cif.got.tgz:21195.got - 2010.06.03 22:52:26.
