data_PCOD9317910
_publ_section_title
;
Structure prediction by ZEFSAII (Michael W. Deem and Ramdas Pophale) SiO2 
 PCOD9317910
Probable space group: C 2 2 21
;
_chemical_formula_sum "Si O2"
_cell_formula_units_Z 64
_cell_length_a 31.579462
_cell_length_b 5.863501
_cell_length_c 15.409385
_cell_angle_alpha 90.000000
_cell_angle_beta 90.000000
_cell_angle_gamma 90.000000
_cell_volume 2853.297373
_symmetry_space_group_name_H-M "C 2 2 21"
_symmetry_group_IT_number 20
_symmetry_cell_setting 'orthorhombic'
loop_
_space_group_symop_operation_xyz
x,y,z
-x,-y,1/2+z
x,-y,-z
-x,y,1/2-z
1/2+x,1/2+y,z
1/2-x,1/2-y,1/2+z
1/2+x,1/2-y,-z
1/2-x,1/2+y,1/2-z
loop_
_atom_site_type_symbol
_atom_site_label
_atom_site_fract_x
_atom_site_fract_y
_atom_site_fract_z
Si Si1 0.341074 0.500984 0.630079
Si Si2 0.879136 0.372913 0.258901
Si Si3 0.908587 0.329797 0.581528
Si Si4 0.413665 0.918548 0.899077
Si Si5 0.760180 0.730181 0.614074
Si Si6 0.793665 0.621011 0.272955
Si Si7 0.502452 0.255155 0.451622
Si Si8 0.332327 0.745412 0.958414
O O1 0.374490 0.350798 0.683690
O O2 0.368962 0.662736 0.570631
O O3 0.302968 0.357336 0.587315
O O4 0.317806 0.651739 0.702991
O O5 0.899839 0.549905 0.326349
O O6 0.905315 0.380659 0.169958
O O7 0.829779 0.443481 0.242163
O O8 0.907268 0.500000 0.500000
O O9 0.954913 0.218034 0.583857
O O10 0.457819 0.787159 0.887484
O O11 0.371047 0.767384 0.889663
O O12 0.415412 0.000000 0.000000
O O13 0.773996 0.475835 0.638700
O O14 0.742730 0.841114 0.703650
O O15 0.717471 0.729664 0.560741
O O16 0.511411 0.500000 0.500000
O O17 0.499850 0.000000 0.500000
O O18 0.342425 0.500000 0.000000
O O19 0.334281 0.000000 0.000000
#
# Coordination Sequence:
#
# PCOD9317910 Si02
#       8
#     8   8   8   8   8   8   8   8
#     4  10  23  40  65 104 135 193 250 312 369 453
#     4  10  22  43  67 104 138 184 248 299 373 447
#     4  10  24  45  72 103 144 194 243 313 380 445
#     4  10  22  45  74 106 144 190 239 306 377 454
#     4  11  21  38  62  90 135 183 245 297 372 437
#     4  10  20  36  61  91 126 185 234 300 361 443
#     4  10  23  45  77 109 143 190 243 294 375 455
#     4  11  26  43  64  97 140 188 238 305 369 440
#
# _framework density 22.430191000000001
#
# number of rings (size 3 to 8) (size 9 to 14) (size 15 to 20)
#    0.000    1.750    2.500    0.375    5.250    2.500 
#   15.750    0.000    0.000    0.000    0.000    0.000 
#    0.000    0.000    0.000    0.000    0.000    0.000 
#
# Total GULP energy -178180.569686 kJ/mol
# GULP energy per Si atom -5568.142803 kJ/mol
# Density = 2.237914 g / cm^3
# Si number density = 22.430191 Si / 1000 Ang^3
#
#
#
# Elastic Constant Matrix: (Units=GPa)
#
#
# Indices 1 2 3 4 5 6 
#
# 1 154.3924 20.4436 28.8499 0.0000 0.0000 0.0000
# 2 20.4436 74.8327 7.0429 0.0000 0.0000 0.0000
# 3 28.8499 7.0429 43.8892 0.0000 0.0000 0.0000
# 4 0.0000 0.0000 0.0000 26.9758 0.0000 0.0000
# 5 0.0000 0.0000 0.0000 0.0000 28.7353 0.0000
# 6 0.0000 0.0000 0.0000 0.0000 0.0000 -9.3092
#
#
#
# Elastic Compliance Matrix: (Units=1/GPa)
#
#
# Indices 1 2 3 4 5 6 
#
# 1 0.007574 -0.001625 -0.004718 0.000000 0.000000 0.000000
# 2 -0.001625 0.013917 -0.001165 0.000000 0.000000 0.000000
# 3 -0.004718 -0.001165 0.026073 0.000000 0.000000 0.000000
# 4 0.000000 0.000000 0.000000 0.037070 0.000000 0.000000
# 5 0.000000 0.000000 0.000000 0.000000 0.034800 0.000000
# 6 0.000000 0.000000 0.000000 0.000000 0.000000 -0.107420
#
#
# Mechanical properties :
#
#
# Convention : Reuss Voigt Hill
#
# Bulk Modulus (GPa) = 30.72419 42.86522 36.79470
# Shear Modulus (GPa) = 132.00202 23.73223 77.86713
#
# Velocity S-wave (km/s) = 7.67971 3.25629 5.89836
# Velocity P-wave (km/s) = 9.61065 5.76974 7.92637
#
# Compressibility (1/GPa) = 0.03254764
#
# Stress axis : x y z
#
# Youngs Moduli (GPa) = 132.03517 71.85588 38.35426
#
# Poissons Ratio (x) = 0.11677 0.18094
# Poissons Ratio (y) = 0.21457 0.04468
# Poissons Ratio (z) = 0.62290 0.08371
#
# Static dielectric constant tensor:
#      x y z
#    x 1.834980 0.000000 0.000000 
#    y 0.000000 1.887540 0.000000 
#    z 0.000000 0.000000 1.902670 
# 
# From -- ./inp_files/25766.got.cif
#   From: 2010.05.17/outbox.cif.g08.bks.cpg/sg20_13_cif.got.tgz:25766.got - 2010.06.03 22:52:26.
