data_PCOD9317728
_publ_section_title
;
Structure prediction by ZEFSAII (Michael W. Deem and Ramdas Pophale) SiO2 
 PCOD9317728
Probable space group: C 2 2 21
;
_chemical_formula_sum "Si O2"
_cell_formula_units_Z 64
_cell_length_a 17.244638
_cell_length_b 8.263623
_cell_length_c 23.300438
_cell_angle_alpha 90.000000
_cell_angle_beta 90.000000
_cell_angle_gamma 90.000000
_cell_volume 3320.386678
_symmetry_space_group_name_H-M "C 2 2 21"
_symmetry_group_IT_number 20
_symmetry_cell_setting 'orthorhombic'
loop_
_space_group_symop_operation_xyz
x,y,z
-x,-y,1/2+z
x,-y,-z
-x,y,1/2-z
1/2+x,1/2+y,z
1/2-x,1/2-y,1/2+z
1/2+x,1/2-y,-z
1/2-x,1/2+y,1/2-z
loop_
_atom_site_type_symbol
_atom_site_label
_atom_site_fract_x
_atom_site_fract_y
_atom_site_fract_z
Si Si1 0.827903 0.363360 0.850073
Si Si2 0.452647 0.027820 0.932851
Si Si3 0.533486 0.418283 0.187962
Si Si4 0.910139 0.421591 0.644402
Si Si5 0.893836 0.412359 0.243480
Si Si6 0.919527 0.173896 0.138399
Si Si7 0.185028 0.110842 0.214663
Si Si8 0.270148 0.502378 0.158454
O O1 0.882626 0.432859 0.899739
O O2 0.869879 0.426802 0.791800
O O3 0.742026 0.433792 0.837467
O O4 0.807236 0.174301 0.854126
O O5 0.535314 0.969614 0.908122
O O6 0.446859 0.214615 0.913464
O O7 0.446467 0.000000 0.000000
O O8 0.500000 0.370097 0.250000
O O9 0.571251 0.264290 0.157927
O O10 0.468884 0.513173 0.151309
O O11 0.600949 0.545343 0.200770
O O12 0.938016 0.522573 0.700800
O O13 0.818268 0.460230 0.639604
O O14 0.924383 0.285531 0.196013
O O15 0.825946 0.301429 0.272660
O O16 0.830037 0.128140 0.129506
O O17 0.216165 0.040029 0.274115
#
# Coordination Sequence:
#
# PCOD9317728 Si02
#       8
#     8   8   8   8   8   8   8   8
#     4  11  21  38  66  93 133 170 217 259 342 387
#     4  11  28  49  67  86 124 176 238 285 327 384
#     4  12  24  36  62 104 147 174 210 252 332 423
#     4  12  25  37  65  94 138 169 217 267 337 388
#     4  10  20  34  62  98 133 175 194 267 324 407
#     4  10  24  41  64  92 137 171 220 260 333 391
#     4  11  20  34  60  99 147 162 205 253 330 405
#     4  11  22  37  63 106 133 170 207 264 328 416
#
# _framework density 19.274863
#
# number of rings (size 3 to 8) (size 9 to 14) (size 15 to 20)
#    0.000    1.000    5.000    2.250    8.750    0.000 
#    0.000    3.750    0.000    0.000    0.000    0.000 
#    0.000    0.000    0.000    0.000    0.000    0.000 
#
# Total GULP energy -178462.587179 kJ/mol
# GULP energy per Si atom -5576.955849 kJ/mol
# Density = 1.923099 g / cm^3
# Si number density = 19.274863 Si / 1000 Ang^3
#
#
#
# Elastic Constant Matrix: (Units=GPa)
#
#
# Indices 1 2 3 4 5 6 
#
# 1 135.7857 39.3303 47.5803 0.0000 0.0000 0.0000
# 2 39.3303 94.8899 20.4011 0.0000 0.0000 0.0000
# 3 47.5803 20.4011 98.4809 0.0000 0.0000 0.0000
# 4 0.0000 0.0000 0.0000 11.3530 0.0000 0.0000
# 5 0.0000 0.0000 0.0000 0.0000 15.1192 0.0000
# 6 0.0000 0.0000 0.0000 0.0000 0.0000 38.5688
#
#
#
# Elastic Compliance Matrix: (Units=1/GPa)
#
#
# Indices 1 2 3 4 5 6 
#
# 1 0.009688 -0.003150 -0.004028 0.000000 0.000000 0.000000
# 2 -0.003150 0.012054 -0.000975 0.000000 0.000000 0.000000
# 3 -0.004028 -0.000975 0.012303 0.000000 0.000000 0.000000
# 4 0.000000 0.000000 0.000000 0.088083 0.000000 0.000000
# 5 0.000000 0.000000 0.000000 0.000000 0.066141 0.000000
# 6 0.000000 0.000000 0.000000 0.000000 0.000000 0.025928
#
#
# Mechanical properties :
#
#
# Convention : Reuss Voigt Hill
#
# Bulk Modulus (GPa) = 56.37602 60.41999 58.39800
# Shear Modulus (GPa) = 21.14920 27.79785 24.47352
#
# Velocity S-wave (km/s) = 3.31606 3.80173 3.56717
# Velocity P-wave (km/s) = 6.63126 7.11937 6.87964
#
# Compressibility (1/GPa) = 0.01773804
#
# Stress axis : x y z
#
# Youngs Moduli (GPa) = 103.21608 82.96226 81.28372
#
# Poissons Ratio (x) = 0.26130 0.32744
# Poissons Ratio (y) = 0.32509 0.07928
# Poissons Ratio (z) = 0.41580 0.08091
#
# Static dielectric constant tensor:
#      x y z
#    x 1.757340 0.000000 0.000000 
#    y 0.000000 1.722720 0.000000 
#    z 0.000000 0.000000 1.631130 
# 
# From -- ./inp_files/27771.got.cif
#   From: 2010.05.17/outbox.cif.g08.bks.cpg/sg20_14_cif.got.tgz:27771.got - 2010.06.03 22:52:26.
