data_PCOD9317171
_publ_section_title
;
Structure prediction by ZEFSAII (Michael W. Deem and Ramdas Pophale) SiO2 
 PCOD9317171
Probable space group: C 2 2 21
;
_chemical_formula_sum "Si O2"
_cell_formula_units_Z 48
_cell_length_a 18.343228
_cell_length_b 7.837800
_cell_length_c 13.876110
_cell_angle_alpha 90.000000
_cell_angle_beta 90.000000
_cell_angle_gamma 90.000000
_cell_volume 1994.976000
_symmetry_space_group_name_H-M "C 2 2 21"
_symmetry_group_IT_number 20
_symmetry_cell_setting 'orthorhombic'
loop_
_space_group_symop_operation_xyz
x,y,z
-x,-y,1/2+z
x,-y,-z
-x,y,1/2-z
1/2+x,1/2+y,z
1/2-x,1/2-y,1/2+z
1/2+x,1/2-y,-z
1/2-x,1/2+y,1/2-z
loop_
_atom_site_type_symbol
_atom_site_label
_atom_site_fract_x
_atom_site_fract_y
_atom_site_fract_z
Si Si1 0.098661 0.034574 0.614120
Si Si2 0.750958 0.679585 0.643645
Si Si3 0.688728 0.947120 0.322171
Si Si4 0.963556 0.671140 0.850444
Si Si5 0.807632 0.190696 0.547979
Si Si6 0.531666 0.697150 0.960924
O O1 0.176385 0.076416 0.657848
O O2 0.037009 0.182998 0.611302
O O3 0.112651 0.000000 0.500000
O O4 0.065466 0.866194 0.661732
O O5 0.813821 0.611016 0.712263
O O6 0.780386 0.686647 0.535952
O O7 0.725470 0.870443 0.668251
O O8 0.609820 0.935279 0.369704
O O9 0.745518 0.818204 0.372383
O O10 0.000000 0.617709 0.750000
O O11 0.013318 0.686843 0.945981
O O12 0.889077 0.234971 0.581509
O O13 0.809922 0.000000 0.500000
O O14 0.536235 0.500000 0.000000
#
# Coordination Sequence:
#
# PCOD9317171 Si02
#       6
#     8   8   8   8   8   8
#     4   9  19  35  57  82 109 148 195 239 289 347
#     4  11  22  37  59  86 120 155 193 245 293 345
#     4  11  23  37  58  87 116 153 198 241 293 350
#     4  10  19  35  57  79 109 150 193 237 289 345
#     4   9  18  35  58  83 112 148 192 236 282 340
#     4   8  16  31  53  79 104 140 188 232 279 339
#
# _framework density 24.06044
#
# number of rings (size 3 to 8) (size 9 to 14) (size 15 to 20)
#    0.000    2.667    0.000    4.000    0.000    5.333 
#    0.000    2.500    0.000    6.000    0.000    0.000 
#    0.000    0.000    0.000    0.000    0.000    0.000 
#
# Total GULP energy -134140.743450 kJ/mol
# GULP energy per Si atom -5589.197644 kJ/mol
# Density = 2.400568 g / cm^3
# Si number density = 24.060440 Si / 1000 Ang^3
#
#
#
# Elastic Constant Matrix: (Units=GPa)
#
#
# Indices 1 2 3 4 5 6 
#
# 1 106.3401 16.9956 4.3553 0.0000 0.0000 0.0000
# 2 16.9956 53.5536 19.8506 0.0000 0.0000 0.0000
# 3 4.3553 19.8506 21.0637 0.0000 0.0000 0.0000
# 4 0.0000 0.0000 0.0000 16.7158 0.0000 0.0000
# 5 0.0000 0.0000 0.0000 0.0000 32.3313 0.0000
# 6 0.0000 0.0000 0.0000 0.0000 0.0000 21.1073
#
#
#
# Elastic Compliance Matrix: (Units=1/GPa)
#
#
# Indices 1 2 3 4 5 6 
#
# 1 0.009933 -0.003675 0.001409 0.000000 0.000000 0.000000
# 2 -0.003675 0.030057 -0.027566 0.000000 0.000000 0.000000
# 3 0.001409 -0.027566 0.073162 0.000000 0.000000 0.000000
# 4 0.000000 0.000000 0.000000 0.059824 0.000000 0.000000
# 5 0.000000 0.000000 0.000000 0.000000 0.030930 0.000000
# 6 0.000000 0.000000 0.000000 0.000000 0.000000 0.047377
#
#
# Mechanical properties :
#
#
# Convention : Reuss Voigt Hill
#
# Bulk Modulus (GPa) = 18.69538 29.26226 23.97882
# Shear Modulus (GPa) = 15.20794 23.34793 19.27793
#
# Velocity S-wave (km/s) = 2.51683 3.11848 2.83367
# Velocity P-wave (km/s) = 4.02902 5.01547 4.54906
#
# Compressibility (1/GPa) = 0.05348916
#
# Stress axis : x y z
#
# Youngs Moduli (GPa) = 100.67056 33.27020 13.66831
#
# Poissons Ratio (x) = 0.12226 -0.01926
# Poissons Ratio (y) = 0.36994 0.37678
# Poissons Ratio (z) = -0.14187 0.91713
#
# Static dielectric constant tensor:
#      x y z
#    x 1.928560 0.000000 0.000000 
#    y 0.000000 1.972190 0.000000 
#    z 0.000000 0.000000 1.892380 
# 
# From -- ./inp_files/21296.got.cif
#   From: 2010.05.17/outbox.cif.g08.bks.cpg/sg20_11_cif.got.tgz:21296.got - 2010.06.03 22:52:26.
