data_PCOD9317836
_publ_section_title
;
Structure prediction by ZEFSAII (Michael W. Deem and Ramdas Pophale) SiO2 
 PCOD9317836
Probable space group: C 2 2 21
;
_chemical_formula_sum "Si O2"
_cell_formula_units_Z 28
_cell_length_a 8.679448
_cell_length_b 26.600652
_cell_length_c 5.019995
_cell_angle_alpha 90.000000
_cell_angle_beta 90.000000
_cell_angle_gamma 90.000000
_cell_volume 1159.011304
_symmetry_space_group_name_H-M "C 2 2 21"
_symmetry_group_IT_number 20
_symmetry_cell_setting 'orthorhombic'
loop_
_space_group_symop_operation_xyz
x,y,z
-x,-y,1/2+z
x,-y,-z
-x,y,1/2-z
1/2+x,1/2+y,z
1/2-x,1/2-y,1/2+z
1/2+x,1/2-y,-z
1/2-x,1/2+y,1/2-z
loop_
_atom_site_type_symbol
_atom_site_label
_atom_site_fract_x
_atom_site_fract_y
_atom_site_fract_z
Si Si1 0.398800 0.072996 0.487682
Si Si2 0.199117 0.315181 0.991549
Si Si3 0.113913 0.000000 0.500000
Si Si4 0.380942 0.298396 0.473486
O O1 0.500000 0.050065 0.250000
O O2 0.372452 0.131630 0.429600
O O3 0.232258 0.046859 0.511867
O O4 0.500000 0.068155 0.750000
O O5 0.345436 0.310624 0.782929
O O6 0.113763 0.262178 0.954136
O O7 0.228952 0.315311 0.309756
O O8 0.000000 0.002592 0.250000
O O9 0.500000 0.319044 0.250000
#
# Coordination Sequence:
#
# PCOD9317836 Si02
#       4
#     8   8   4   8
#     4  12  25  46  74 101 133 178 228 275 333 405
#     4  10  22  36  59  93 126 172 226 271 320 389
#     4  12  28  50  74 104 138 168 216 284 350 408
#     4  10  20  36  56  87 133 177 219 272 328 381
#
# _framework density 24.158519999999999
#
# number of rings (size 3 to 8) (size 9 to 14) (size 15 to 20)
#    0.000    1.143    0.000    6.000    0.000    8.000 
#    0.000    0.000    0.000    0.000    0.000    0.000 
#    0.000    0.000    0.000    0.000    0.000    0.000 
#
# Total GULP energy -78120.397668 kJ/mol
# GULP energy per Si atom -5580.028405 kJ/mol
# Density = 2.410353 g / cm^3
# Si number density = 24.158520 Si / 1000 Ang^3
#
#
#
# Elastic Constant Matrix: (Units=GPa)
#
#
# Indices 1 2 3 4 5 6 
#
# 1 109.9621 48.6198 63.5092 0.0000 0.0000 0.0000
# 2 48.6198 131.8728 21.3727 0.0000 0.0000 0.0000
# 3 63.5092 21.3727 208.3778 0.0000 0.0000 0.0000
# 4 0.0000 0.0000 0.0000 59.4139 0.0000 0.0000
# 5 0.0000 0.0000 0.0000 0.0000 34.0468 0.0000
# 6 0.0000 0.0000 0.0000 0.0000 0.0000 -24.7143
#
#
#
# Elastic Compliance Matrix: (Units=1/GPa)
#
#
# Indices 1 2 3 4 5 6 
#
# 1 0.012998 -0.004220 -0.003529 0.000000 0.000000 0.000000
# 2 -0.004220 0.009082 0.000355 0.000000 0.000000 0.000000
# 3 -0.003529 0.000355 0.005838 0.000000 0.000000 0.000000
# 4 0.000000 0.000000 0.000000 0.016831 0.000000 0.000000
# 5 0.000000 0.000000 0.000000 0.000000 0.029371 0.000000
# 6 0.000000 0.000000 0.000000 0.000000 0.000000 -0.040462
#
#
# Mechanical properties :
#
#
# Convention : Reuss Voigt Hill
#
# Bulk Modulus (GPa) = 76.16576 79.69070 77.92823
# Shear Modulus (GPa) = 94.65654 34.86334 64.75994
#
# Velocity S-wave (km/s) = 6.26630 3.80295 5.18309
# Velocity P-wave (km/s) = 9.16249 7.23474 8.25508
#
# Compressibility (1/GPa) = 0.01312926
#
# Stress axis : x y z
#
# Youngs Moduli (GPa) = 76.93454 110.11350 171.29003
#
# Poissons Ratio (x) = 0.46471 0.60443
# Poissons Ratio (y) = 0.32469 -0.06077
# Poissons Ratio (z) = 0.27148 -0.03907
#
# Static dielectric constant tensor:
#      x y z
#    x 2.205830 0.000000 0.000000 
#    y 0.000000 1.881430 0.000000 
#    z 0.000000 0.000000 1.920170 
# 
# From -- ./inp_files/454.got.cif
#   From: 2010.05.17/outbox.cif.g08.bks.cpg/sg20_1_cif.got.tgz:454.got - 2010.06.03 22:52:26.
