data_PCOD9317266
_publ_section_title
;
Structure prediction by ZEFSAII (Michael W. Deem and Ramdas Pophale) SiO2 
 PCOD9317266
Probable space group: C 2 2 21
;
_chemical_formula_sum "Si O2"
_cell_formula_units_Z 48
_cell_length_a 13.913522
_cell_length_b 11.002701
_cell_length_c 18.210062
_cell_angle_alpha 90.000000
_cell_angle_beta 90.000000
_cell_angle_gamma 90.000000
_cell_volume 2787.711423
_symmetry_space_group_name_H-M "C 2 2 21"
_symmetry_group_IT_number 20
_symmetry_cell_setting 'orthorhombic'
loop_
_space_group_symop_operation_xyz
x,y,z
-x,-y,1/2+z
x,-y,-z
-x,y,1/2-z
1/2+x,1/2+y,z
1/2-x,1/2-y,1/2+z
1/2+x,1/2-y,-z
1/2-x,1/2+y,1/2-z
loop_
_atom_site_type_symbol
_atom_site_label
_atom_site_fract_x
_atom_site_fract_y
_atom_site_fract_z
Si Si1 0.114985 0.184027 0.254907
Si Si2 0.714021 0.238824 0.896396
Si Si3 0.603820 0.046583 0.713959
Si Si4 0.607896 0.863006 0.967994
Si Si5 0.236456 0.537134 0.159124
Si Si6 0.895592 0.402346 0.935456
O O1 0.161545 0.195979 0.172978
O O2 0.138681 0.315121 0.290838
O O3 0.164137 0.086249 0.308170
O O4 0.000000 0.167621 0.250000
O O5 0.807710 0.311196 0.922537
O O6 0.740592 0.100567 0.871968
O O7 0.644709 0.222260 0.966626
O O8 0.500000 0.055302 0.750000
O O9 0.668686 0.971187 0.769654
O O10 0.595366 0.982700 0.637129
O O11 0.683852 0.877175 0.901119
O O12 0.498138 0.835462 0.946115
O O13 0.602297 0.000000 0.000000
O O14 0.878231 0.500000 0.000000
#
# Coordination Sequence:
#
# PCOD9317266 Si02
#       6
#     8   8   8   8   8   8
#     4  10  22  35  59  83 116 151 188 235 287 344
#     4  10  22  39  55  86 119 147 191 241 288 348
#     4  10  19  36  58  84 107 144 194 244 275 333
#     4   9  20  35  59  83 112 151 190 237 290 340
#     4  10  19  38  58  80 112 152 189 231 292 341
#     4  11  22  36  59  88 114 147 197 242 285 341
#
# _framework density 17.218426000000001
#
# number of rings (size 3 to 8) (size 9 to 14) (size 15 to 20)
#    0.000    2.000    3.333    0.000    9.333    0.000 
#    0.000    5.833    0.000    0.000    0.000    0.000 
#    0.000    0.000    0.000    0.000    0.000    0.000 
#
# Total GULP energy -133748.105532 kJ/mol
# GULP energy per Si atom -5572.837731 kJ/mol
# Density = 1.717924 g / cm^3
# Si number density = 17.218426 Si / 1000 Ang^3
#
#
#
# Elastic Constant Matrix: (Units=GPa)
#
#
# Indices 1 2 3 4 5 6 
#
# 1 125.4204 38.0557 62.6495 0.0000 0.0000 0.0000
# 2 38.0557 33.7894 47.6567 0.0000 0.0000 0.0000
# 3 62.6495 47.6567 122.2832 0.0000 0.0000 0.0000
# 4 0.0000 0.0000 0.0000 38.9690 0.0000 0.0000
# 5 0.0000 0.0000 0.0000 0.0000 32.4276 0.0000
# 6 0.0000 0.0000 0.0000 0.0000 0.0000 33.9561
#
#
#
# Elastic Compliance Matrix: (Units=1/GPa)
#
#
# Indices 1 2 3 4 5 6 
#
# 1 0.012331 -0.011053 -0.002010 0.000000 0.000000 0.000000
# 2 -0.011053 0.075626 -0.023811 0.000000 0.000000 0.000000
# 3 -0.002010 -0.023811 0.018487 0.000000 0.000000 0.000000
# 4 0.000000 0.000000 0.000000 0.025661 0.000000 0.000000
# 5 0.000000 0.000000 0.000000 0.000000 0.030838 0.000000
# 6 0.000000 0.000000 0.000000 0.000000 0.000000 0.029450
#
#
# Mechanical properties :
#
#
# Convention : Reuss Voigt Hill
#
# Bulk Modulus (GPa) = 30.58371 64.24632 47.41502
# Shear Modulus (GPa) = 18.04798 29.94595 23.99696
#
# Velocity S-wave (km/s) = 3.24107 4.17487 3.73725
# Velocity P-wave (km/s) = 5.63975 7.78672 6.79852
#
# Compressibility (1/GPa) = 0.03269714
#
# Stress axis : x y z
#
# Youngs Moduli (GPa) = 81.09685 13.22293 54.09214
#
# Poissons Ratio (x) = 0.14616 0.10872
# Poissons Ratio (y) = 0.89638 1.28796
# Poissons Ratio (z) = 0.16299 0.31484
#
# Static dielectric constant tensor:
#      x y z
#    x 1.581540 0.000000 0.000000 
#    y 0.000000 1.592540 0.000000 
#    z 0.000000 0.000000 1.590790 
# 
# From -- ./inp_files/19938.got.cif
#   From: 2010.05.17/outbox.cif.g08.bks.cpg/sg20_10_cif.got.tgz:19938.got - 2010.06.03 22:52:26.
