data_PCOD9317653
_publ_section_title
;
Structure prediction by ZEFSAII (Michael W. Deem and Ramdas Pophale) SiO2 
 PCOD9317653
Probable space group: C 2 2 21
;
_chemical_formula_sum "Si O2"
_cell_formula_units_Z 36
_cell_length_a 5.828779
_cell_length_b 17.137939
_cell_length_c 19.680249
_cell_angle_alpha 90.000000
_cell_angle_beta 90.000000
_cell_angle_gamma 90.000000
_cell_volume 1965.924209
_symmetry_space_group_name_H-M "C 2 2 21"
_symmetry_group_IT_number 20
_symmetry_cell_setting 'orthorhombic'
loop_
_space_group_symop_operation_xyz
x,y,z
-x,-y,1/2+z
x,-y,-z
-x,y,1/2-z
1/2+x,1/2+y,z
1/2-x,1/2-y,1/2+z
1/2+x,1/2-y,-z
1/2-x,1/2+y,1/2-z
loop_
_atom_site_type_symbol
_atom_site_label
_atom_site_fract_x
_atom_site_fract_y
_atom_site_fract_z
Si Si1 0.415862 0.411524 0.898353
Si Si2 0.305559 0.855106 0.998555
Si Si3 0.096612 0.256669 0.898887
Si Si4 0.000000 0.290100 0.750000
Si Si5 0.868511 0.500000 0.500000
Si Si6 0.000000 0.881049 0.750000
O O1 0.619685 0.395169 0.950303
O O2 0.268277 0.331191 0.896979
O O3 0.274641 0.480485 0.932712
O O4 0.489983 0.426432 0.821266
O O5 0.404356 0.784722 0.952376
O O6 0.488476 0.921957 0.013009
O O7 0.211579 0.818043 0.067368
O O8 0.011630 0.245717 0.822034
O O9 0.249652 0.335759 0.746470
#
# Coordination Sequence:
#
# PCOD9317653 Si02
#       6
#     8   8   8   4   4   4
#     4  10  20  37  58  92 119 159 205 263 301 376
#     4  11  19  37  59  91 119 158 207 259 305 375
#     4  10  20  33  62  94 117 157 206 262 316 364
#     4  10  20  36  58  99 127 152 204 274 318 366
#     4  10  24  36  58  90 126 162 206 254 312 368
#     4  10  20  36  64  93 123 158 212 256 318 366
#
# _framework density 18.311997000000002
#
# number of rings (size 3 to 8) (size 9 to 14) (size 15 to 20)
#    0.000    1.778    4.444    0.667    0.000    0.000 
#    0.000    0.000    0.000    8.000    0.000    0.000 
#    0.000    0.000    0.000    0.000    0.000    0.000 
#
# Total GULP energy -100234.863715 kJ/mol
# GULP energy per Si atom -5568.603540 kJ/mol
# Density = 1.827032 g / cm^3
# Si number density = 18.311997 Si / 1000 Ang^3
#
#
#
# Elastic Constant Matrix: (Units=GPa)
#
#
# Indices 1 2 3 4 5 6 
#
# 1 74.3118 15.3464 55.7745 0.0000 0.0000 0.0000
# 2 15.3464 43.3195 63.5614 0.0000 0.0000 0.0000
# 3 55.7745 63.5614 205.8359 0.0000 0.0000 0.0000
# 4 0.0000 0.0000 0.0000 16.1236 0.0000 0.0000
# 5 0.0000 0.0000 0.0000 0.0000 391.9847 0.0000
# 6 0.0000 0.0000 0.0000 0.0000 0.0000 26.2109
#
#
#
# Elastic Compliance Matrix: (Units=1/GPa)
#
#
# Indices 1 2 3 4 5 6 
#
# 1 0.016935 0.001341 -0.005003 0.000000 0.000000 0.000000
# 2 0.001341 0.042315 -0.013430 0.000000 0.000000 0.000000
# 3 -0.005003 -0.013430 0.010361 0.000000 0.000000 0.000000
# 4 0.000000 0.000000 0.000000 0.062021 0.000000 0.000000
# 5 0.000000 0.000000 0.000000 0.000000 0.002551 0.000000
# 6 0.000000 0.000000 0.000000 0.000000 0.000000 0.038152
#
#
# Mechanical properties :
#
#
# Convention : Reuss Voigt Hill
#
# Bulk Modulus (GPa) = 28.22701 65.87021 47.04861
# Shear Modulus (GPa) = 22.90144 99.44951 61.17547
#
# Velocity S-wave (km/s) = 3.54025 7.37742 5.78618
# Velocity P-wave (km/s) = 5.67090 10.42197 8.38978
#
# Compressibility (1/GPa) = 0.03542706
#
# Stress axis : x y z
#
# Youngs Moduli (GPa) = 59.05024 23.63248 96.51562
#
# Poissons Ratio (x) = -0.03170 0.48286
# Poissons Ratio (y) = -0.07921 1.29621
# Poissons Ratio (z) = 0.29542 0.31739
#
# Static dielectric constant tensor:
#      x y z
#    x 1.753770 0.000000 0.000000 
#    y 0.000000 0.425710 0.000000 
#    z 0.000000 0.000000 1.560320 
# 
# From -- ./inp_files/21604.got.cif
#   From: 2010.05.17/outbox.cif.g08.bks.cpg/sg20_11_cif.got.tgz:21604.got - 2010.06.03 22:52:26.
