data_PCOD9317569
_publ_section_title
;
Structure prediction by ZEFSAII (Michael W. Deem and Ramdas Pophale) SiO2 
 PCOD9317569
Probable space group: C 2 2 21
;
_chemical_formula_sum "Si O2"
_cell_formula_units_Z 48
_cell_length_a 8.468194
_cell_length_b 11.177416
_cell_length_c 24.098402
_cell_angle_alpha 90.000000
_cell_angle_beta 90.000000
_cell_angle_gamma 90.000000
_cell_volume 2280.974649
_symmetry_space_group_name_H-M "C 2 2 21"
_symmetry_group_IT_number 20
_symmetry_cell_setting 'orthorhombic'
loop_
_space_group_symop_operation_xyz
x,y,z
-x,-y,1/2+z
x,-y,-z
-x,y,1/2-z
1/2+x,1/2+y,z
1/2-x,1/2-y,1/2+z
1/2+x,1/2-y,-z
1/2-x,1/2+y,1/2-z
loop_
_atom_site_type_symbol
_atom_site_label
_atom_site_fract_x
_atom_site_fract_y
_atom_site_fract_z
Si Si1 0.829819 0.689068 0.680275
Si Si2 0.313407 0.954486 0.102309
Si Si3 0.203140 0.192042 0.066660
Si Si4 0.285463 0.210266 0.807240
Si Si5 0.837773 0.560592 0.373135
Si Si6 0.659739 0.293658 0.538441
O O1 0.771160 0.771799 0.630497
O O2 0.764843 0.711807 0.741436
O O3 0.782238 0.555356 0.661216
O O4 0.022001 0.710764 0.682379
O O5 0.233311 0.052689 0.065031
O O6 0.485862 0.014931 0.111935
O O7 0.241493 0.914401 0.161878
O O8 0.299350 0.830863 0.069062
O O9 0.024564 0.203601 0.048278
O O10 0.301339 0.275943 0.025771
O O11 0.194658 0.322281 0.834958
O O12 0.748775 0.598691 0.429947
#
# Coordination Sequence:
#
# PCOD9317569 Si02
#       6
#     8   8   8   8   8   8
#     4  10  21  40  65  98 129 171 210 263 329 378
#     4  10  22  43  64  91 128 168 214 260 321 380
#     4  12  23  43  66  92 130 169 216 267 321 378
#     4   9  20  41  67  94 133 170 210 264 326 387
#     4  10  19  43  68  87 133 168 209 262 322 379
#     4  11  24  44  61  94 127 170 213 268 319 379
#
# _framework density 21.043634999999998
#
# number of rings (size 3 to 8) (size 9 to 14) (size 15 to 20)
#    0.000    1.667    5.000    1.500    2.333    0.667 
#   12.000    0.000    0.000    0.000    0.000    0.000 
#    0.000    0.000    0.000    0.000    0.000    0.000 
#
# Total GULP energy -133742.353061 kJ/mol
# GULP energy per Si atom -5572.598044 kJ/mol
# Density = 2.099574 g / cm^3
# Si number density = 21.043635 Si / 1000 Ang^3
#
#
#
# Elastic Constant Matrix: (Units=GPa)
#
#
# Indices 1 2 3 4 5 6 
#
# 1 135.0267 51.7638 29.3115 0.0000 0.0000 0.0000
# 2 51.7638 72.5307 -7.4178 0.0000 0.0000 0.0000
# 3 29.3115 -7.4178 96.3898 0.0000 0.0000 0.0000
# 4 0.0000 0.0000 0.0000 1941.9257 0.0000 0.0000
# 5 0.0000 0.0000 0.0000 0.0000 -22.4843 0.0000
# 6 0.0000 0.0000 0.0000 0.0000 0.0000 122.1341
#
#
#
# Elastic Compliance Matrix: (Units=1/GPa)
#
#
# Indices 1 2 3 4 5 6 
#
# 1 0.011688 -0.008774 -0.004229 0.000000 0.000000 0.000000
# 2 -0.008774 0.020483 0.004244 0.000000 0.000000 0.000000
# 3 -0.004229 0.004244 0.011987 0.000000 0.000000 0.000000
# 4 0.000000 0.000000 0.000000 0.000515 0.000000 0.000000
# 5 0.000000 0.000000 0.000000 0.000000 -0.044475 0.000000
# 6 0.000000 0.000000 0.000000 0.000000 0.000000 0.008188
#
#
# Mechanical properties :
#
#
# Convention : Reuss Voigt Hill
#
# Bulk Modulus (GPa) = 37.53698 50.14027 43.83863
# Shear Modulus (GPa) = 143.75077 423.66774 283.70925
#
# Velocity S-wave (km/s) = 8.27400 14.20441 11.62378
# Velocity P-wave (km/s) = 10.44774 17.11429 14.17840
#
# Compressibility (1/GPa) = 0.02664039
#
# Stress axis : x y z
#
# Youngs Moduli (GPa) = 85.56134 48.82108 83.42181
#
# Poissons Ratio (x) = 0.42834 0.35282
# Poissons Ratio (y) = 0.75069 -0.35407
# Poissons Ratio (z) = 0.36186 -0.20721
#
# Static dielectric constant tensor:
#      x y z
#    x 1.277520 0.000000 0.000000 
#    y 0.000000 1.838330 0.000000 
#    z 0.000000 0.000000 1.801700 
# 
# From -- ./inp_files/28698.got.cif
#   From: 2010.05.17/outbox.cif.g08.bks.cpg/sg20_15_cif.got.tgz:28698.got - 2010.06.03 22:52:26.
