data_PCOD9317054
_publ_section_title
;
Structure prediction by ZEFSAII (Michael W. Deem and Ramdas Pophale) SiO2 
 PCOD9317054
Probable space group: C 2 2 21
;
_chemical_formula_sum "Si O2"
_cell_formula_units_Z 48
_cell_length_a 22.721099
_cell_length_b 11.408831
_cell_length_c 9.835638
_cell_angle_alpha 90.000000
_cell_angle_beta 90.000000
_cell_angle_gamma 90.000000
_cell_volume 2549.605675
_symmetry_space_group_name_H-M "C 2 2 21"
_symmetry_group_IT_number 20
_symmetry_cell_setting 'orthorhombic'
loop_
_space_group_symop_operation_xyz
x,y,z
-x,-y,1/2+z
x,-y,-z
-x,y,1/2-z
1/2+x,1/2+y,z
1/2-x,1/2-y,1/2+z
1/2+x,1/2-y,-z
1/2-x,1/2+y,1/2-z
loop_
_atom_site_type_symbol
_atom_site_label
_atom_site_fract_x
_atom_site_fract_y
_atom_site_fract_z
Si Si1 0.353549 0.741988 0.270643
Si Si2 0.343907 0.355578 0.266963
Si Si3 0.557604 0.459202 0.842948
Si Si4 0.194034 0.333484 0.972150
Si Si5 0.182956 0.701371 0.478585
Si Si6 0.252857 0.951049 0.770814
O O1 0.410223 0.666358 0.316962
O O2 0.339108 0.837250 0.385372
O O3 0.351382 0.800609 0.121335
O O4 0.299517 0.646909 0.271958
O O5 0.394968 0.447622 0.288349
O O6 0.343701 0.256968 0.381481
O O7 0.281721 0.426516 0.279972
O O8 0.349454 0.289097 0.124961
O O9 0.500000 0.463553 0.750000
O O10 0.547046 0.500000 0.000000
O O11 0.255562 0.267317 0.996098
O O12 0.212931 0.436960 0.871060
O O13 0.202915 0.412732 0.608605
#
# Coordination Sequence:
#
# PCOD9317054 Si02
#       6
#     8   8   8   8   8   8
#     4   9  17  30  46  63  94 127 161 206 241 277
#     4  10  19  34  50  68 106 140 167 203 249 288
#     4  11  23  34  48  69  96 136 177 205 239 290
#     4   9  16  31  45  68  96 133 170 199 245 300
#     4   9  18  29  47  71  92 132 173 198 239 305
#     4   8  17  28  47  67  91 132 170 193 242 302
#
# _framework density 18.826442
#
# number of rings (size 3 to 8) (size 9 to 14) (size 15 to 20)
#    0.000    2.667    1.667    1.000    2.333    5.333 
#    0.000    1.667    0.000    0.000    0.000    0.000 
#    0.000    0.000    0.000  537.000    0.000    0.000 
#
# Total GULP energy -133741.990304 kJ/mol
# GULP energy per Si atom -5572.582929 kJ/mol
# Density = 1.878359 g / cm^3
# Si number density = 18.826442 Si / 1000 Ang^3
#
#
#
# Elastic Constant Matrix: (Units=GPa)
#
#
# Indices 1 2 3 4 5 6 
#
# 1 82.9470 32.5465 55.2928 0.0000 0.0000 0.0000
# 2 32.5465 60.3983 51.0101 0.0000 0.0000 0.0000
# 3 55.2928 51.0101 198.8239 0.0000 0.0000 0.0000
# 4 0.0000 0.0000 0.0000 23.2453 0.0000 0.0000
# 5 0.0000 0.0000 0.0000 0.0000 11.9233 0.0000
# 6 0.0000 0.0000 0.0000 0.0000 0.0000 14.7804
#
#
#
# Elastic Compliance Matrix: (Units=1/GPa)
#
#
# Indices 1 2 3 4 5 6 
#
# 1 0.016544 -0.006420 -0.002954 0.000000 0.000000 0.000000
# 2 -0.006420 0.023628 -0.004277 0.000000 0.000000 0.000000
# 3 -0.002954 -0.004277 0.006948 0.000000 0.000000 0.000000
# 4 0.000000 0.000000 0.000000 0.043019 0.000000 0.000000
# 5 0.000000 0.000000 0.000000 0.000000 0.083869 0.000000
# 6 0.000000 0.000000 0.000000 0.000000 0.000000 0.067657
#
#
# Mechanical properties :
#
#
# Convention : Reuss Voigt Hill
#
# Bulk Modulus (GPa) = 50.45605 68.87421 59.66513
# Shear Modulus (GPa) = 18.14397 23.54448 20.84423
#
# Velocity S-wave (km/s) = 3.10780 3.54023 3.33104
# Velocity P-wave (km/s) = 6.30371 7.30576 6.82315
#
# Compressibility (1/GPa) = 0.01981923
#
# Stress axis : x y z
#
# Youngs Moduli (GPa) = 60.44465 42.32209 143.92285
#
# Poissons Ratio (x) = 0.27173 0.42510
# Poissons Ratio (y) = 0.38808 0.61549
# Poissons Ratio (z) = 0.17853 0.18099
#
# Static dielectric constant tensor:
#      x y z
#    x 1.622270 0.000000 0.000000 
#    y 0.000000 1.720720 0.000000 
#    z 0.000000 0.000000 1.734040 
# 
# From -- ./inp_files/10655.got.cif
#   From: 2010.05.17/outbox.cif.g08.bks.cpg/sg20_6_cif.got.tgz:10655.got - 2010.06.03 22:52:26.
