data_PCOD9317673
_publ_section_title
;
Structure prediction by ZEFSAII (Michael W. Deem and Ramdas Pophale) SiO2 
 PCOD9317673
Probable space group: C 2 2 21
;
_chemical_formula_sum "Si O2"
_cell_formula_units_Z 40
_cell_length_a 27.285289
_cell_length_b 14.501637
_cell_length_c 5.238070
_cell_angle_alpha 90.000000
_cell_angle_beta 90.000000
_cell_angle_gamma 90.000000
_cell_volume 2072.606643
_symmetry_space_group_name_H-M "C 2 2 21"
_symmetry_group_IT_number 20
_symmetry_cell_setting 'orthorhombic'
loop_
_space_group_symop_operation_xyz
x,y,z
-x,-y,1/2+z
x,-y,-z
-x,y,1/2-z
1/2+x,1/2+y,z
1/2-x,1/2-y,1/2+z
1/2+x,1/2-y,-z
1/2-x,1/2+y,1/2-z
loop_
_atom_site_type_symbol
_atom_site_label
_atom_site_fract_x
_atom_site_fract_y
_atom_site_fract_z
Si Si1 0.231992 0.097662 0.424060
Si Si2 0.441323 0.941112 0.251048
Si Si3 0.124868 0.737004 0.782989
Si Si4 0.691626 0.239357 0.287046
Si Si5 0.622446 0.557603 0.252149
O O1 0.267298 0.162827 0.262325
O O2 0.216235 0.160444 0.666871
O O3 0.181364 0.072851 0.280893
O O4 0.255246 0.000000 0.500000
O O5 0.500000 0.927598 0.250000
O O6 0.414020 0.844285 0.268035
O O7 0.428189 0.000000 0.500000
O O8 0.428061 0.000000 0.000000
O O9 0.162277 0.722654 0.548127
O O10 0.102000 0.838910 0.753355
O O11 0.155090 0.737633 0.047398
O O12 0.607075 0.500000 0.500000
O O13 0.611937 0.500000 0.000000
#
# Coordination Sequence:
#
# PCOD9317673 Si02
#       5
#     8   8   8   8   8
#     4  10  21  37  53  73 110 153 188 229 275 320
#     4  10  22  41  64  88 115 149 187 228 288 362
#     4  11  22  38  57  82 113 143 185 242 285 328
#     4  11  23  36  55  82 111 148 196 235 276 335
#     4  10  20  34  54  77 104 145 188 220 264 325
#
# _framework density 19.299368000000001
#
# number of rings (size 3 to 8) (size 9 to 14) (size 15 to 20)
#    0.000    1.600    0.000    7.200    0.000    5.600 
#    0.000    2.000    0.000    1.200    0.000    0.000 
#    0.000    0.000    0.000    0.000    0.000    0.000 
#
# Total GULP energy -111794.142721 kJ/mol
# GULP energy per Si atom -5589.707136 kJ/mol
# Density = 1.925544 g / cm^3
# Si number density = 19.299368 Si / 1000 Ang^3
#
#
#
# Elastic Constant Matrix: (Units=GPa)
#
#
# Indices 1 2 3 4 5 6 
#
# 1 23.6544 56.8134 34.9356 0.0000 0.0000 0.0000
# 2 56.8134 211.4570 77.7814 0.0000 0.0000 0.0000
# 3 34.9356 77.7814 160.9557 0.0000 0.0000 0.0000
# 4 0.0000 0.0000 0.0000 30.2954 0.0000 0.0000
# 5 0.0000 0.0000 0.0000 0.0000 -8.0696 0.0000
# 6 0.0000 0.0000 0.0000 0.0000 0.0000 27.9725
#
#
#
# Elastic Compliance Matrix: (Units=1/GPa)
#
#
# Indices 1 2 3 4 5 6 
#
# 1 0.144905 -0.033279 -0.015370 0.000000 0.000000 0.000000
# 2 -0.033279 0.013394 0.000750 0.000000 0.000000 0.000000
# 3 -0.015370 0.000750 0.009186 0.000000 0.000000 0.000000
# 4 0.000000 0.000000 0.000000 0.033008 0.000000 0.000000
# 5 0.000000 0.000000 0.000000 0.000000 -0.123923 0.000000
# 6 0.000000 0.000000 0.000000 0.000000 0.000000 0.035749
#
#
# Mechanical properties :
#
#
# Convention : Reuss Voigt Hill
#
# Bulk Modulus (GPa) = 13.94918 81.68090 47.81504
# Shear Modulus (GPa) = 21.55053 25.14212 23.34633
#
# Velocity S-wave (km/s) = 3.34525 3.61327 3.48184
# Velocity P-wave (km/s) = 4.70791 7.73451 6.40262
#
# Compressibility (1/GPa) = 0.07168879
#
# Stress axis : x y z
#
# Youngs Moduli (GPa) = 6.90109 74.65890 108.85814
#
# Poissons Ratio (x) = 2.48456 1.67313
# Poissons Ratio (y) = 0.22966 -0.08169
# Poissons Ratio (z) = 0.10607 -0.05603
#
# Static dielectric constant tensor:
#      x y z
#    x 1.655250 0.000000 0.000000 
#    y 0.000000 1.695580 0.000000 
#    z 0.000000 0.000000 1.685280 
# 
# From -- ./inp_files/4037.got.cif
#   From: 2010.05.17/outbox.cif.g08.bks.cpg/sg20_3_cif.got.tgz:4037.got - 2010.06.03 22:52:26.
