data_PCOD9317496
_publ_section_title
;
Structure prediction by ZEFSAII (Michael W. Deem and Ramdas Pophale) SiO2 
 PCOD9317496
Probable space group: C 2 2 21
;
_chemical_formula_sum "Si O2"
_cell_formula_units_Z 60
_cell_length_a 11.207918
_cell_length_b 20.496535
_cell_length_c 13.581334
_cell_angle_alpha 90.000000
_cell_angle_beta 90.000000
_cell_angle_gamma 90.000000
_cell_volume 3119.951358
_symmetry_space_group_name_H-M "C 2 2 21"
_symmetry_group_IT_number 20
_symmetry_cell_setting 'orthorhombic'
loop_
_space_group_symop_operation_xyz
x,y,z
-x,-y,1/2+z
x,-y,-z
-x,y,1/2-z
1/2+x,1/2+y,z
1/2-x,1/2-y,1/2+z
1/2+x,1/2-y,-z
1/2-x,1/2+y,1/2-z
loop_
_atom_site_type_symbol
_atom_site_label
_atom_site_fract_x
_atom_site_fract_y
_atom_site_fract_z
Si Si1 0.474392 0.358712 0.611808
Si Si2 0.525086 0.358725 0.384029
Si Si3 0.298170 0.680746 0.241661
Si Si4 0.896456 0.434460 0.177138
Si Si5 0.527043 0.000000 0.000000
Si Si6 0.943941 0.995681 0.883977
Si Si7 0.796324 0.174422 0.729021
Si Si8 0.814020 0.548910 0.316402
O O1 0.510264 0.349731 0.499420
O O2 0.586900 0.332986 0.673275
O O3 0.351301 0.328522 0.648574
O O4 0.466887 0.436196 0.632855
O O5 0.505170 0.434597 0.357676
O O6 0.653973 0.342189 0.338534
O O7 0.417325 0.321319 0.333626
O O8 0.260563 0.754667 0.227960
O O9 0.202227 0.624653 0.214022
O O10 0.788962 0.382512 0.186477
O O11 0.863220 0.503635 0.228512
O O12 0.000000 0.407576 0.250000
O O13 0.947120 0.451169 0.068176
O O14 0.609213 0.036103 0.083395
O O15 0.818843 0.978335 0.835419
O O16 0.918894 0.000000 0.000000
#
# Coordination Sequence:
#
# PCOD9317496 Si02
#       8
#     8   8   8   8   4   8   8   8
#     4   9  21  38  62  95 117 157 205 256 318 380
#     4  10  22  40  64  95 120 154 210 259 325 377
#     4  10  23  39  61  89 127 164 205 256 314 375
#     4  10  23  39  64  89 121 166 209 258 308 372
#     4  10  22  42  60  96 118 166 224 250 308 382
#     4   9  16  33  66  94 114 143 197 262 312 365
#     4  11  24  41  60  91 129 164 203 258 316 377
#     4  10  19  39  66  87 123 163 206 259 308 366
#
# _framework density 19.231068
#
# number of rings (size 3 to 8) (size 9 to 14) (size 15 to 20)
#    0.000    2.133    2.000    0.000    3.733    3.200 
#   10.800    0.000    0.000    0.000    0.000    0.000 
#    0.000    0.000    0.000    0.000    0.000    0.000 
#
# Total GULP energy -167235.760655 kJ/mol
# GULP energy per Si atom -5574.525355 kJ/mol
# Density = 1.918730 g / cm^3
# Si number density = 19.231068 Si / 1000 Ang^3
#
#
#
# Elastic Constant Matrix: (Units=GPa)
#
#
# Indices 1 2 3 4 5 6 
#
# 1 70.6643 44.8330 29.5976 0.0000 0.0000 0.0000
# 2 44.8330 131.3345 33.8957 0.0000 0.0000 0.0000
# 3 29.5976 33.8957 114.0795 0.0000 0.0000 0.0000
# 4 0.0000 0.0000 0.0000 14.8701 0.0000 0.0000
# 5 0.0000 0.0000 0.0000 0.0000 32.7429 0.0000
# 6 0.0000 0.0000 0.0000 0.0000 0.0000 27.1921
#
#
#
# Elastic Compliance Matrix: (Units=1/GPa)
#
#
# Indices 1 2 3 4 5 6 
#
# 1 0.019130 -0.005685 -0.003274 0.000000 0.000000 0.000000
# 2 -0.005685 0.009936 -0.001477 0.000000 0.000000 0.000000
# 3 -0.003274 -0.001477 0.010054 0.000000 0.000000 0.000000
# 4 0.000000 0.000000 0.000000 0.067249 0.000000 0.000000
# 5 0.000000 0.000000 0.000000 0.000000 0.030541 0.000000
# 6 0.000000 0.000000 0.000000 0.000000 0.000000 0.036775
#
#
# Mechanical properties :
#
#
# Convention : Reuss Voigt Hill
#
# Bulk Modulus (GPa) = 54.80303 59.19233 56.99768
# Shear Modulus (GPa) = 24.92019 28.81115 26.86567
#
# Velocity S-wave (km/s) = 3.60367 3.87480 3.74169
# Velocity P-wave (km/s) = 6.77305 7.13198 6.95483
#
# Compressibility (1/GPa) = 0.01824717
#
# Stress axis : x y z
#
# Youngs Moduli (GPa) = 52.27467 100.64253 99.46145
#
# Poissons Ratio (x) = 0.57218 0.32563
# Poissons Ratio (y) = 0.29720 0.14693
# Poissons Ratio (z) = 0.17114 0.14867
#
# Static dielectric constant tensor:
#      x y z
#    x 1.692860 0.000000 0.000000 
#    y 0.000000 1.661840 0.000000 
#    z 0.000000 0.000000 1.732460 
# 
# From -- ./inp_files/20225.got.cif
#   From: 2010.05.17/outbox.cif.g08.bks.cpg/sg20_11_cif.got.tgz:20225.got - 2010.06.03 22:52:26.
