data_PCOD9317737
_publ_section_title
;
Structure prediction by ZEFSAII (Michael W. Deem and Ramdas Pophale) SiO2 
 PCOD9317737
Probable space group: C 2 2 21
;
_chemical_formula_sum "Si O2"
_cell_formula_units_Z 48
_cell_length_a 13.122724
_cell_length_b 6.728318
_cell_length_c 19.266516
_cell_angle_alpha 90.000000
_cell_angle_beta 90.000000
_cell_angle_gamma 90.000000
_cell_volume 1701.115068
_symmetry_space_group_name_H-M "C 2 2 21"
_symmetry_group_IT_number 20
_symmetry_cell_setting 'orthorhombic'
loop_
_space_group_symop_operation_xyz
x,y,z
-x,-y,1/2+z
x,-y,-z
-x,y,1/2-z
1/2+x,1/2+y,z
1/2-x,1/2-y,1/2+z
1/2+x,1/2-y,-z
1/2-x,1/2+y,1/2-z
loop_
_atom_site_type_symbol
_atom_site_label
_atom_site_fract_x
_atom_site_fract_y
_atom_site_fract_z
Si Si1 0.380342 0.752488 0.881826
Si Si2 0.115975 0.254426 0.042719
Si Si3 0.552857 0.495444 0.155219
Si Si4 0.134090 0.205198 0.285729
Si Si5 0.208993 0.000000 0.500000
Si Si6 0.695874 0.041711 0.824631
Si Si7 0.933773 0.500000 0.000000
O O1 0.489789 0.708203 0.848000
O O2 0.359568 0.569413 0.936378
O O3 0.285859 0.711441 0.831292
O O4 0.375987 0.948707 0.928884
O O5 0.108334 0.047201 0.083171
O O6 0.131880 0.411277 0.107127
O O7 0.213270 0.311477 0.996154
O O8 0.010275 0.314676 0.008744
O O9 0.619354 0.541778 0.222992
O O10 0.462450 0.660785 0.166714
O O11 0.135851 0.411688 0.245425
O O12 0.240831 0.159642 0.322266
#
# Coordination Sequence:
#
# PCOD9317737 Si02
#       7
#     8   8   8   8   4   8   4
#     4  10  20  35  54  77 108 141 178 220 264 314
#     4   9  19  35  52  75 104 136 178 219 259 310
#     4   9  18  35  56  76 103 139 176 217 266 317
#     4   9  18  33  55  79 103 135 171 214 269 320
#     4   9  18  36  54  73 106 140 172 217 262 306
#     4   9  19  35  52  76 106 135 172 217 265 317
#     4  11  22  34  52  79 106 142 186 219 260 312
#
# _framework density 28.216784000000001
#
# number of rings (size 3 to 8) (size 9 to 14) (size 15 to 20)
#    0.000    2.667    0.000    1.000    0.000    2.667 
#    0.000   15.000    0.000    0.000    0.000    0.000 
#    0.000    0.000    0.000    0.000    0.000    0.000 
#
# Total GULP energy -134053.981290 kJ/mol
# GULP energy per Si atom -5585.582554 kJ/mol
# Density = 2.815256 g / cm^3
# Si number density = 28.216784 Si / 1000 Ang^3
#
#
#
# Elastic Constant Matrix: (Units=GPa)
#
#
# Indices 1 2 3 4 5 6 
#
# 1 68.9976 25.7871 17.7779 0.0000 0.0000 0.0000
# 2 25.7871 55.8083 21.4054 0.0000 0.0000 0.0000
# 3 17.7779 21.4054 57.0418 0.0000 0.0000 0.0000
# 4 0.0000 0.0000 0.0000 51.0772 0.0000 0.0000
# 5 0.0000 0.0000 0.0000 0.0000 55.8295 0.0000
# 6 0.0000 0.0000 0.0000 0.0000 0.0000 32.6058
#
#
#
# Elastic Compliance Matrix: (Units=1/GPa)
#
#
# Indices 1 2 3 4 5 6 
#
# 1 0.017918 -0.007169 -0.002894 0.000000 0.000000 0.000000
# 2 -0.007169 0.023800 -0.006697 0.000000 0.000000 0.000000
# 3 -0.002894 -0.006697 0.020946 0.000000 0.000000 0.000000
# 4 0.000000 0.000000 0.000000 0.019578 0.000000 0.000000
# 5 0.000000 0.000000 0.000000 0.000000 0.017912 0.000000
# 6 0.000000 0.000000 0.000000 0.000000 0.000000 0.030669
#
#
# Mechanical properties :
#
#
# Convention : Reuss Voigt Hill
#
# Bulk Modulus (GPa) = 34.31265 34.64318 34.47792
# Shear Modulus (GPa) = 28.72599 35.69432 32.21015
#
# Velocity S-wave (km/s) = 3.19414 3.56055 3.38231
# Velocity P-wave (km/s) = 5.07840 5.40440 5.24393
#
# Compressibility (1/GPa) = 0.02914377
#
# Stress axis : x y z
#
# Youngs Moduli (GPa) = 55.80837 42.01728 47.74189
#
# Poissons Ratio (x) = 0.30124 0.13817
# Poissons Ratio (y) = 0.40011 0.31971
# Poissons Ratio (z) = 0.16152 0.28137
#
# Static dielectric constant tensor:
#      x y z
#    x 2.174350 0.000000 0.000000 
#    y 0.000000 2.189130 0.000000 
#    z 0.000000 0.000000 2.196020 
# 
# From -- ./inp_files/27473.got.cif
#   From: 2010.05.17/outbox.cif.g08.bks.cpg/sg20_14_cif.got.tgz:27473.got - 2010.06.03 22:52:26.
