data_PCOD9317882
_publ_section_title
;
Structure prediction by ZEFSAII (Michael W. Deem and Ramdas Pophale) SiO2 
 PCOD9317882
Probable space group: C 2 2 21
;
_chemical_formula_sum "Si O2"
_cell_formula_units_Z 56
_cell_length_a 13.683255
_cell_length_b 10.622666
_cell_length_c 21.332847
_cell_angle_alpha 90.000000
_cell_angle_beta 90.000000
_cell_angle_gamma 90.000000
_cell_volume 3100.785794
_symmetry_space_group_name_H-M "C 2 2 21"
_symmetry_group_IT_number 20
_symmetry_cell_setting 'orthorhombic'
loop_
_space_group_symop_operation_xyz
x,y,z
-x,-y,1/2+z
x,-y,-z
-x,y,1/2-z
1/2+x,1/2+y,z
1/2-x,1/2-y,1/2+z
1/2+x,1/2-y,-z
1/2-x,1/2+y,1/2-z
loop_
_atom_site_type_symbol
_atom_site_label
_atom_site_fract_x
_atom_site_fract_y
_atom_site_fract_z
Si Si1 0.363765 0.527289 0.857932
Si Si2 0.507930 0.624682 0.958558
Si Si3 0.362305 0.766805 0.145367
Si Si4 0.000000 0.629197 0.750000
Si Si5 0.000000 0.870803 0.250000
Si Si6 0.862305 0.766805 0.354633
Si Si7 0.136235 0.472711 0.142068
Si Si8 0.492070 0.124682 0.958558
O O1 0.412730 0.604397 0.914633
O O2 0.369306 0.379306 0.873887
O O3 0.429059 0.551331 0.796163
O O4 0.250000 0.560000 0.848050
O O5 0.596595 0.646752 0.910209
O O6 0.520674 0.500000 0.000000
O O7 0.500000 0.750000 0.000000
O O8 0.430547 0.789517 0.205196
O O9 0.250000 0.795419 0.159935
O O10 0.403405 0.853248 0.089791
O O11 0.929059 0.551331 0.703837
O O12 0.069453 0.789517 0.205196
O O13 0.869306 0.620694 0.373887
O O14 0.087270 0.395603 0.085367
O O15 0.479326 0.000000 0.000000
#
# Coordination Sequence:
#
# PCOD9317882 Si02
#       8
#     8   8   8   4   4   8   8   8
#     4  10  21  37  60  86 116 157 194 233 292 352
#     4  11  22  39  61  86 118 151 195 243 287 340
#     4  10  21  37  59  86 117 154 194 239 290 345
#     4  10  20  36  60  86 118 148 196 244 286 334
#     4  10  20  36  60  86 118 148 196 244 286 334
#     4  10  21  37  59  86 117 154 194 239 290 345
#     4  10  21  37  60  86 116 157 194 233 292 352
#     4  11  22  39  61  86 118 151 195 243 287 340
#
# _framework density 18.059937999999999
#
# number of rings (size 3 to 8) (size 9 to 14) (size 15 to 20)
#    0.000    1.714    2.857    1.714    0.000    2.286 
#    0.000    0.000    0.000    0.000    0.000    0.000 
#    0.000    0.000    0.000    0.000    0.000    0.000 
#
# Total GULP energy -156239.778085 kJ/mol
# GULP energy per Si atom -5579.992074 kJ/mol
# Density = 1.801883 g / cm^3
# Si number density = 18.059938 Si / 1000 Ang^3
#
#
#
# Elastic Constant Matrix: (Units=GPa)
#
#
# Indices 1 2 3 4 5 6 
#
# 1 163.2397 52.7800 66.6837 0.0000 0.0000 0.0000
# 2 52.7800 94.7733 54.4103 0.0000 0.0000 0.0000
# 3 66.6837 54.4103 119.3630 0.0000 0.0000 0.0000
# 4 0.0000 0.0000 0.0000 33.4960 0.0000 0.0000
# 5 0.0000 0.0000 0.0000 0.0000 13.9836 0.0000
# 6 0.0000 0.0000 0.0000 0.0000 0.0000 28.2102
#
#
#
# Elastic Compliance Matrix: (Units=1/GPa)
#
#
# Indices 1 2 3 4 5 6 
#
# 1 0.008416 -0.002692 -0.003474 0.000000 0.000000 0.000000
# 2 -0.002692 0.015153 -0.005403 0.000000 0.000000 0.000000
# 3 -0.003474 -0.005403 0.012782 0.000000 0.000000 0.000000
# 4 0.000000 0.000000 0.000000 0.029854 0.000000 0.000000
# 5 0.000000 0.000000 0.000000 0.000000 0.071512 0.000000
# 6 0.000000 0.000000 0.000000 0.000000 0.000000 0.035448
#
#
# Mechanical properties :
#
#
# Convention : Reuss Voigt Hill
#
# Bulk Modulus (GPa) = 75.69532 80.56937 78.13234
# Shear Modulus (GPa) = 24.91180 28.70476 26.80828
#
# Velocity S-wave (km/s) = 3.71805 3.99107 3.85698
# Velocity P-wave (km/s) = 7.77408 8.12079 7.94932
#
# Compressibility (1/GPa) = 0.01321086
#
# Stress axis : x y z
#
# Youngs Moduli (GPa) = 118.82589 65.99428 78.23604
#
# Poissons Ratio (x) = 0.17766 0.27182
# Poissons Ratio (y) = 0.31989 0.42273
# Poissons Ratio (z) = 0.41284 0.35659
#
# Static dielectric constant tensor:
#      x y z
#    x 1.601840 0.000000 0.000000 
#    y 0.000000 1.600470 0.000000 
#    z 0.000000 0.000000 1.620110 
# 
# From -- ./inp_files/27234.got.cif
#   From: 2010.05.17/outbox.cif.g08.bks.cpg/sg20_14_cif.got.tgz:27234.got - 2010.06.03 22:52:26.
