data_PCOD9317859
_publ_section_title
;
Structure prediction by ZEFSAII (Michael W. Deem and Ramdas Pophale) SiO2 
 PCOD9317859
Probable space group: C 2 2 21
;
_chemical_formula_sum "Si O2"
_cell_formula_units_Z 48
_cell_length_a 15.155734
_cell_length_b 26.556940
_cell_length_c 6.440615
_cell_angle_alpha 90.000000
_cell_angle_beta 90.000000
_cell_angle_gamma 90.000000
_cell_volume 2592.282606
_symmetry_space_group_name_H-M "C 2 2 21"
_symmetry_group_IT_number 20
_symmetry_cell_setting 'orthorhombic'
loop_
_space_group_symop_operation_xyz
x,y,z
-x,-y,1/2+z
x,-y,-z
-x,y,1/2-z
1/2+x,1/2+y,z
1/2-x,1/2-y,1/2+z
1/2+x,1/2-y,-z
1/2-x,1/2+y,1/2-z
loop_
_atom_site_type_symbol
_atom_site_label
_atom_site_fract_x
_atom_site_fract_y
_atom_site_fract_z
Si Si1 0.352815 0.355021 0.544743
Si Si2 0.863714 0.783154 0.925364
Si Si3 0.500000 0.320540 0.250000
Si Si4 0.229719 0.447522 0.614833
Si Si5 0.600192 0.089864 0.725576
Si Si6 0.842013 0.500000 0.500000
Si Si7 0.710724 0.812993 0.232223
O O1 0.377130 0.326404 0.754936
O O2 0.435302 0.354165 0.389941
O O3 0.309151 0.408673 0.588796
O O4 0.277030 0.323747 0.423616
O O5 0.855757 0.730208 0.807627
O O6 0.940011 0.787024 0.096908
O O7 0.771126 0.794353 0.042542
O O8 0.248563 0.500000 0.500000
O O9 0.143062 0.423474 0.500071
O O10 0.212517 0.463061 0.850798
O O11 0.500000 0.107329 0.750000
O O12 0.662037 0.134441 0.813056
O O13 0.605004 0.037676 0.852489
#
# Coordination Sequence:
#
# PCOD9317859 Si02
#       7
#     8   8   4   8   8   4   8
#     4  10  20  39  61  85 118 154 198 244 296 356
#     4  11  20  39  61  85 118 161 196 247 300 358
#     4  10  24  36  60  90 116 156 198 242 304 364
#     4   9  20  38  61  86 112 155 203 240 291 355
#     4  10  22  35  54  87 122 158 198 246 287 352
#     4  10  20  36  58  84 116 160 198 244 294 344
#     4  10  21  37  58  87 118 159 206 240 293 358
#
# _framework density 18.516499
#
# number of rings (size 3 to 8) (size 9 to 14) (size 15 to 20)
#    0.000    2.000    1.667    1.500    3.500    2.667 
#    0.000    0.000    3.667    0.000    0.000    0.000 
#    0.000    0.000    0.000    0.000    0.000    0.000 
#
# Total GULP energy -133854.967581 kJ/mol
# GULP energy per Si atom -5577.290316 kJ/mol
# Density = 1.847435 g / cm^3
# Si number density = 18.516499 Si / 1000 Ang^3
#
#
#
# Elastic Constant Matrix: (Units=GPa)
#
#
# Indices 1 2 3 4 5 6 
#
# 1 94.9664 33.7367 35.1922 0.0000 0.0000 0.0000
# 2 33.7367 77.9214 21.4417 0.0000 0.0000 0.0000
# 3 35.1922 21.4417 85.0978 0.0000 0.0000 0.0000
# 4 0.0000 0.0000 0.0000 26.8019 0.0000 0.0000
# 5 0.0000 0.0000 0.0000 0.0000 18.9614 0.0000
# 6 0.0000 0.0000 0.0000 0.0000 0.0000 16.0261
#
#
#
# Elastic Compliance Matrix: (Units=1/GPa)
#
#
# Indices 1 2 3 4 5 6 
#
# 1 0.013911 -0.004771 -0.004551 0.000000 0.000000 0.000000
# 2 -0.004771 0.015426 -0.001914 0.000000 0.000000 0.000000
# 3 -0.004551 -0.001914 0.014115 0.000000 0.000000 0.000000
# 4 0.000000 0.000000 0.000000 0.037311 0.000000 0.000000
# 5 0.000000 0.000000 0.000000 0.000000 0.052739 0.000000
# 6 0.000000 0.000000 0.000000 0.000000 0.000000 0.062398
#
#
# Mechanical properties :
#
#
# Convention : Reuss Voigt Hill
#
# Bulk Modulus (GPa) = 47.66126 48.74742 48.20434
# Shear Modulus (GPa) = 22.18626 23.53222 22.85924
#
# Velocity S-wave (km/s) = 3.46524 3.56881 3.51740
# Velocity P-wave (km/s) = 6.46578 6.58525 6.52579
#
# Compressibility (1/GPa) = 0.02098140
#
# Stress axis : x y z
#
# Youngs Moduli (GPa) = 71.88393 64.82742 70.84437
#
# Poissons Ratio (x) = 0.30927 0.32241
# Poissons Ratio (y) = 0.34294 0.13558
# Poissons Ratio (z) = 0.32714 0.12406
#
# Static dielectric constant tensor:
#      x y z
#    x 1.643860 0.000000 0.000000 
#    y 0.000000 1.614490 0.000000 
#    z 0.000000 0.000000 1.661580 
# 
# From -- ./inp_files/2073.got.cif
#   From: 2010.05.17/outbox.cif.g08.bks.cpg/sg20_2_cif.got.tgz:2073.got - 2010.06.03 22:52:26.
