data_PCOD9317951
_publ_section_title
;
Structure prediction by ZEFSAII (Michael W. Deem and Ramdas Pophale) SiO2 
 PCOD9317951
Probable space group: C 2 2 21
;
_chemical_formula_sum "Si O2"
_cell_formula_units_Z 44
_cell_length_a 21.440431
_cell_length_b 9.438288
_cell_length_c 11.137754
_cell_angle_alpha 90.000000
_cell_angle_beta 90.000000
_cell_angle_gamma 90.000000
_cell_volume 2253.846621
_symmetry_space_group_name_H-M "C 2 2 21"
_symmetry_group_IT_number 20
_symmetry_cell_setting 'orthorhombic'
loop_
_space_group_symop_operation_xyz
x,y,z
-x,-y,1/2+z
x,-y,-z
-x,y,1/2-z
1/2+x,1/2+y,z
1/2-x,1/2-y,1/2+z
1/2+x,1/2-y,-z
1/2-x,1/2+y,1/2-z
loop_
_atom_site_type_symbol
_atom_site_label
_atom_site_fract_x
_atom_site_fract_y
_atom_site_fract_z
Si Si1 0.971741 0.862956 0.130374
Si Si2 0.615094 0.396646 0.745044
Si Si3 0.232118 0.947775 0.365027
Si Si4 0.420395 0.500000 0.500000
Si Si5 0.853902 0.307387 0.923997
Si Si6 0.652784 0.902325 0.312178
O O1 0.917070 0.781850 0.063563
O O2 0.000000 0.792996 0.250000
O O3 0.938638 0.009766 0.178366
O O4 0.030971 0.883204 0.046614
O O5 0.680940 0.442879 0.687156
O O6 0.615784 0.445196 0.883951
O O7 0.609881 0.227120 0.733825
O O8 0.196538 0.797196 0.367388
O O9 0.291235 0.927585 0.280210
O O10 0.247455 0.000000 0.500000
O O11 0.871928 0.440922 0.841880
O O12 0.828277 0.352436 0.053588
#
# Coordination Sequence:
#
# PCOD9317951 Si02
#       6
#     8   8   8   4   8   8
#     4   9  19  39  63  86 119 158 200 250 306 356
#     4  10  21  39  62  91 121 154 207 251 298 365
#     4  11  22  39  59  83 121 167 197 242 299 371
#     4  10  20  36  66  94 110 156 212 260 286 368
#     4  10  22  38  61  84 124 156 200 252 304 364
#     4  11  22  38  58  91 120 160 198 250 310 358
#
# _framework density 19.522181
#
# number of rings (size 3 to 8) (size 9 to 14) (size 15 to 20)
#    0.000    1.818    1.818    2.182    2.545    2.909 
#    6.545    6.364    0.000    0.000    0.000    0.000 
#    0.000    0.000    0.000    0.000    0.000    0.000 
#
# Total GULP energy -122608.152040 kJ/mol
# GULP energy per Si atom -5573.097820 kJ/mol
# Density = 1.947775 g / cm^3
# Si number density = 19.522181 Si / 1000 Ang^3
#
#
#
# Elastic Constant Matrix: (Units=GPa)
#
#
# Indices 1 2 3 4 5 6 
#
# 1 50.1641 9.1407 39.9889 0.0000 0.0000 0.0000
# 2 9.1407 105.8069 30.7422 0.0000 0.0000 0.0000
# 3 39.9889 30.7422 119.8228 0.0000 0.0000 0.0000
# 4 0.0000 0.0000 0.0000 29.4226 0.0000 0.0000
# 5 0.0000 0.0000 0.0000 0.0000 24.4615 0.0000
# 6 0.0000 0.0000 0.0000 0.0000 0.0000 0.1280
#
#
#
# Elastic Compliance Matrix: (Units=1/GPa)
#
#
# Indices 1 2 3 4 5 6 
#
# 1 0.027170 0.000311 -0.009147 0.000000 0.000000 0.000000
# 2 0.000311 0.010216 -0.002725 0.000000 0.000000 0.000000
# 3 -0.009147 -0.002725 0.012097 0.000000 0.000000 0.000000
# 4 0.000000 0.000000 0.000000 0.033987 0.000000 0.000000
# 5 0.000000 0.000000 0.000000 0.000000 0.040881 0.000000
# 6 0.000000 0.000000 0.000000 0.000000 0.000000 7.815487
#
#
# Mechanical properties :
#
#
# Convention : Reuss Voigt Hill
#
# Bulk Modulus (GPa) = 37.93545 48.39305 43.16425
# Shear Modulus (GPa) = 0.62722 23.86387 12.24554
#
# Velocity S-wave (km/s) = 0.56743 3.50007 2.50724
# Velocity P-wave (km/s) = 4.46133 6.41690 5.52630
#
# Compressibility (1/GPa) = 0.02636057
#
# Stress axis : x y z
#
# Youngs Moduli (GPa) = 36.80560 97.88555 82.66222
#
# Poissons Ratio (x) = -0.03039 0.75612
# Poissons Ratio (y) = -0.01143 0.22523
# Poissons Ratio (z) = 0.33667 0.26671
#
# Static dielectric constant tensor:
#      x y z
#    x 1.641050 0.000000 0.000000 
#    y 0.000000 1.739830 0.000000 
#    z 0.000000 0.000000 1.735540 
# 
# From -- ./inp_files/16616.got.cif
#   From: 2010.05.17/outbox.cif.g08.bks.cpg/sg20_9_cif.got.tgz:16616.got - 2010.06.03 22:52:26.
