data_PCOD9317308
_publ_section_title
;
Structure prediction by ZEFSAII (Michael W. Deem and Ramdas Pophale) SiO2 
 PCOD9317308
Probable space group: C 2 2 21
;
_chemical_formula_sum "Si O2"
_cell_formula_units_Z 36
_cell_length_a 11.499938
_cell_length_b 18.613693
_cell_length_c 6.896932
_cell_angle_alpha 90.000000
_cell_angle_beta 90.000000
_cell_angle_gamma 90.000000
_cell_volume 1476.331852
_symmetry_space_group_name_H-M "C 2 2 21"
_symmetry_group_IT_number 20
_symmetry_cell_setting 'orthorhombic'
loop_
_space_group_symop_operation_xyz
x,y,z
-x,-y,1/2+z
x,-y,-z
-x,y,1/2-z
1/2+x,1/2+y,z
1/2-x,1/2-y,1/2+z
1/2+x,1/2-y,-z
1/2-x,1/2+y,1/2-z
loop_
_atom_site_type_symbol
_atom_site_label
_atom_site_fract_x
_atom_site_fract_y
_atom_site_fract_z
Si Si1 0.062118 0.500000 0.500000
Si Si2 0.269457 0.814516 0.917714
Si Si3 0.747921 0.565290 0.754156
Si Si4 0.161947 0.157313 0.454508
Si Si5 0.000000 0.912400 0.250000
Si Si6 0.500000 0.877473 0.750000
O O1 0.150148 0.485694 0.321691
O O2 0.994991 0.429201 0.561109
O O3 0.163991 0.835243 0.775190
O O4 0.281978 0.732059 0.974988
O O5 0.385591 0.832057 0.793953
O O6 0.263685 0.864693 0.106931
O O7 0.741621 0.592007 0.534037
O O8 0.614851 0.541101 0.793915
O O9 0.044765 0.138474 0.573905
#
# Coordination Sequence:
#
# PCOD9317308 Si02
#       6
#     4   8   8   8   4   4
#     4  10  22  42  60  82 128 150 214 240 294 350
#     4  11  20  37  60  89 123 154 198 241 309 346
#     4   9  21  39  56  87 117 156 197 251 284 360
#     4  10  19  36  61  85 124 152 191 250 297 358
#     4   8  19  36  56  82 112 145 200 230 304 340
#     4  10  25  38  62  90 116 167 202 248 292 370
#
# _framework density 24.384761000000001
#
# number of rings (size 3 to 8) (size 9 to 14) (size 15 to 20)
#    1.333    0.889    2.222    0.667    3.111    0.889 
#    0.000    4.444    0.000    0.000    0.000    0.000 
#    0.000    0.000    0.000    0.000    0.000    0.000 
#
# Total GULP energy -100393.350823 kJ/mol
# GULP energy per Si atom -5577.408379 kJ/mol
# Density = 2.432926 g / cm^3
# Si number density = 24.384761 Si / 1000 Ang^3
#
#
#
# Elastic Constant Matrix: (Units=GPa)
#
#
# Indices 1 2 3 4 5 6 
#
# 1 99.9199 3.7553 5.4001 0.0000 0.0000 0.0000
# 2 3.7553 38.7522 -0.9371 0.0000 0.0000 0.0000
# 3 5.4001 -0.9371 66.8354 0.0000 0.0000 0.0000
# 4 0.0000 0.0000 0.0000 38.7849 0.0000 0.0000
# 5 0.0000 0.0000 0.0000 0.0000 46.9954 0.0000
# 6 0.0000 0.0000 0.0000 0.0000 0.0000 29.2975
#
#
#
# Elastic Compliance Matrix: (Units=1/GPa)
#
#
# Indices 1 2 3 4 5 6 
#
# 1 0.010090 -0.000998 -0.000829 0.000000 0.000000 0.000000
# 2 -0.000998 0.025912 0.000444 0.000000 0.000000 0.000000
# 3 -0.000829 0.000444 0.015035 0.000000 0.000000 0.000000
# 4 0.000000 0.000000 0.000000 0.025783 0.000000 0.000000
# 5 0.000000 0.000000 0.000000 0.000000 0.021279 0.000000
# 6 0.000000 0.000000 0.000000 0.000000 0.000000 0.034133
#
#
# Mechanical properties :
#
#
# Convention : Reuss Voigt Hill
#
# Bulk Modulus (GPa) = 20.71606 24.66046 22.68826
# Shear Modulus (GPa) = 33.09296 36.16819 34.63058
#
# Velocity S-wave (km/s) = 3.68790 3.85545 3.77261
# Velocity P-wave (km/s) = 5.16218 5.47306 5.31989
#
# Compressibility (1/GPa) = 0.04827173
#
# Stress axis : x y z
#
# Youngs Moduli (GPa) = 99.10476 38.59151 66.50994
#
# Poissons Ratio (x) = 0.03851 0.05515
# Poissons Ratio (y) = 0.09889 -0.02953
# Poissons Ratio (z) = 0.08218 -0.01713
#
# Static dielectric constant tensor:
#      x y z
#    x 1.986140 0.000000 0.000000 
#    y 0.000000 1.875430 0.000000 
#    z 0.000000 0.000000 2.030940 
# 
# From -- ./inp_files/7201.got.cif
#   From: 2010.05.17/outbox.cif.g08.bks.cpg/sg20_4_cif.got.tgz:7201.got - 2010.06.03 22:52:26.
