data_PCOD9317559
_publ_section_title
;
Structure prediction by ZEFSAII (Michael W. Deem and Ramdas Pophale) SiO2 
 PCOD9317559
Probable space group: C 2 2 21
;
_chemical_formula_sum "Si O2"
_cell_formula_units_Z 60
_cell_length_a 22.547667
_cell_length_b 11.453134
_cell_length_c 11.416406
_cell_angle_alpha 90.000000
_cell_angle_beta 90.000000
_cell_angle_gamma 90.000000
_cell_volume 2948.189257
_symmetry_space_group_name_H-M "C 2 2 21"
_symmetry_group_IT_number 20
_symmetry_cell_setting 'orthorhombic'
loop_
_space_group_symop_operation_xyz
x,y,z
-x,-y,1/2+z
x,-y,-z
-x,y,1/2-z
1/2+x,1/2+y,z
1/2-x,1/2-y,1/2+z
1/2+x,1/2-y,-z
1/2-x,1/2+y,1/2-z
loop_
_atom_site_type_symbol
_atom_site_label
_atom_site_fract_x
_atom_site_fract_y
_atom_site_fract_z
Si Si1 0.416711 0.375868 0.435838
Si Si2 0.166097 0.383735 0.346611
Si Si3 0.022631 0.710426 0.371405
Si Si4 0.933804 0.500000 0.000000
Si Si5 0.835150 0.243698 0.384922
Si Si6 0.350795 0.302666 0.206434
Si Si7 0.244753 0.593407 0.257672
Si Si8 0.721567 0.330845 0.511044
O O1 0.422576 0.500000 0.500000
O O2 0.479424 0.318629 0.399160
O O3 0.387933 0.290225 0.531138
O O4 0.373012 0.372126 0.321791
O O5 0.111491 0.455020 0.400135
O O6 0.147235 0.309868 0.233234
O O7 0.214882 0.475950 0.302450
O O8 0.195077 0.293508 0.440037
O O9 0.026054 0.609445 0.466072
O O10 0.089400 0.749837 0.347284
O O11 0.000000 0.656763 0.250000
O O12 0.797795 0.130903 0.343188
O O13 0.786708 0.316236 0.457100
O O14 0.303991 0.199597 0.239390
O O15 0.320358 0.366438 0.096569
O O16 0.270059 0.593035 0.126759
#
# Coordination Sequence:
#
# PCOD9317559 Si02
#       8
#     8   8   8   4   8   8   8   8
#     4  11  25  45  67  93 132 183 228 281 336 399
#     4  11  22  38  66 100 135 175 217 275 342 404
#     4  10  23  42  68  96 125 175 232 282 335 396
#     4  12  20  42  72  98 132 174 218 286 354 400
#     4  10  23  36  61  99 133 169 221 269 330 406
#     4  10  19  42  69  93 126 174 230 266 334 393
#     4  10  20  36  67  98 137 175 210 270 336 407
#     4  10  20  38  63  99 137 170 220 268 323 418
#
# _framework density 20.351474
#
# number of rings (size 3 to 8) (size 9 to 14) (size 15 to 20)
#    0.000    1.600    4.000    0.800    1.867    1.600 
#    0.000    5.333    8.800    0.000    0.000    0.000 
#    0.000    0.000    0.000    0.000    0.000    0.000 
#
# Total GULP energy -167554.923999 kJ/mol
# GULP energy per Si atom -5585.164133 kJ/mol
# Density = 2.030515 g / cm^3
# Si number density = 20.351474 Si / 1000 Ang^3
#
#
#
# Elastic Constant Matrix: (Units=GPa)
#
#
# Indices 1 2 3 4 5 6 
#
# 1 68.8075 21.6513 22.9654 0.0000 0.0000 0.0000
# 2 21.6513 61.9562 28.6868 0.0000 0.0000 0.0000
# 3 22.9654 28.6868 110.5329 0.0000 0.0000 0.0000
# 4 0.0000 0.0000 0.0000 16.8151 0.0000 0.0000
# 5 0.0000 0.0000 0.0000 0.0000 25.3627 0.0000
# 6 0.0000 0.0000 0.0000 0.0000 0.0000 16.0041
#
#
#
# Elastic Compliance Matrix: (Units=1/GPa)
#
#
# Indices 1 2 3 4 5 6 
#
# 1 0.016801 -0.004836 -0.002236 0.000000 0.000000 0.000000
# 2 -0.004836 0.019737 -0.004118 0.000000 0.000000 0.000000
# 3 -0.002236 -0.004118 0.010580 0.000000 0.000000 0.000000
# 4 0.000000 0.000000 0.000000 0.059470 0.000000 0.000000
# 5 0.000000 0.000000 0.000000 0.000000 0.039428 0.000000
# 6 0.000000 0.000000 0.000000 0.000000 0.000000 0.062484
#
#
# Mechanical properties :
#
#
# Convention : Reuss Voigt Hill
#
# Bulk Modulus (GPa) = 40.42101 43.10041 41.76071
# Shear Modulus (GPa) = 20.90943 22.83590 21.87267
#
# Velocity S-wave (km/s) = 3.20881 3.35337 3.28189
# Velocity P-wave (km/s) = 5.79941 6.01810 5.90977
#
# Compressibility (1/GPa) = 0.02473961
#
# Stress axis : x y z
#
# Youngs Moduli (GPa) = 59.51928 50.66622 94.51604
#
# Poissons Ratio (x) = 0.24503 0.21130
# Poissons Ratio (y) = 0.28785 0.38918
# Poissons Ratio (z) = 0.13306 0.20862
#
# Static dielectric constant tensor:
#      x y z
#    x 1.698350 0.000000 0.000000 
#    y 0.000000 1.767690 0.000000 
#    z 0.000000 0.000000 1.742930 
# 
# From -- ./inp_files/16379.got.cif
#   From: 2010.05.17/outbox.cif.g08.bks.cpg/sg20_9_cif.got.tgz:16379.got - 2010.06.03 22:52:26.
