data_PCOD9317024
_publ_section_title
;
Structure prediction by ZEFSAII (Michael W. Deem and Ramdas Pophale) SiO2 
 PCOD9317024
Probable space group: C 2 2 21
;
_chemical_formula_sum "Si O2"
_cell_formula_units_Z 44
_cell_length_a 22.161015
_cell_length_b 10.962136
_cell_length_c 8.951058
_cell_angle_alpha 90.000000
_cell_angle_beta 90.000000
_cell_angle_gamma 90.000000
_cell_volume 2174.498962
_symmetry_space_group_name_H-M "C 2 2 21"
_symmetry_group_IT_number 20
_symmetry_cell_setting 'orthorhombic'
loop_
_space_group_symop_operation_xyz
x,y,z
-x,-y,1/2+z
x,-y,-z
-x,y,1/2-z
1/2+x,1/2+y,z
1/2-x,1/2-y,1/2+z
1/2+x,1/2-y,-z
1/2-x,1/2+y,1/2-z
loop_
_atom_site_type_symbol
_atom_site_label
_atom_site_fract_x
_atom_site_fract_y
_atom_site_fract_z
Si Si1 0.127800 0.052810 0.835259
Si Si2 0.395550 0.240571 0.123178
Si Si3 0.263503 0.147145 0.805752
Si Si4 0.359135 0.000000 0.000000
Si Si5 0.227943 0.141304 0.507113
Si Si6 0.548147 0.601303 0.378902
O O1 0.095394 0.179439 0.775637
O O2 0.199887 0.077474 0.831811
O O3 0.105714 0.954707 0.710875
O O4 0.113172 0.000000 0.000000
O O5 0.329203 0.289296 0.076456
O O6 0.436341 0.286891 0.985837
O O7 0.394301 0.094803 0.108055
O O8 0.279257 0.151792 0.631869
O O9 0.255364 0.285910 0.860547
O O10 0.315362 0.079667 0.895407
O O11 0.214239 0.000000 0.500000
O O12 0.528297 0.500000 0.500000
O O13 0.500000 0.624285 0.250000
#
# Coordination Sequence:
#
# PCOD9317024 Si02
#       6
#     8   8   8   4   8   8
#     4  10  19  33  55  82 114 139 191 248 290 347
#     4   9  20  35  55  78 115 152 197 237 295 352
#     4  10  21  33  51  77 116 161 194 229 287 346
#     4  10  20  36  56  80 122 166 194 230 292 368
#     4  10  21  32  51  76 113 154 197 234 281 342
#     4  10  20  37  60  87 109 145 191 254 314 350
#
# _framework density 20.234545000000001
#
# number of rings (size 3 to 8) (size 9 to 14) (size 15 to 20)
#    0.000    2.182    0.909    3.273    7.636    2.909 
#    0.000    0.000    0.000    6.545    0.000    0.000 
#    0.000    0.000    0.000    0.000    0.000    0.000 
#
# Total GULP energy -122503.003281 kJ/mol
# GULP energy per Si atom -5568.318331 kJ/mol
# Density = 2.018849 g / cm^3
# Si number density = 20.234545 Si / 1000 Ang^3
#
#
#
# Elastic Constant Matrix: (Units=GPa)
#
#
# Indices 1 2 3 4 5 6 
#
# 1 39.2207 12.4398 13.9279 0.0000 0.0000 0.0000
# 2 12.4398 129.6328 46.4559 0.0000 0.0000 0.0000
# 3 13.9279 46.4559 111.7347 0.0000 0.0000 0.0000
# 4 0.0000 0.0000 0.0000 20.8303 0.0000 0.0000
# 5 0.0000 0.0000 0.0000 0.0000 30.3839 0.0000
# 6 0.0000 0.0000 0.0000 0.0000 0.0000 72.5729
#
#
#
# Elastic Compliance Matrix: (Units=1/GPa)
#
#
# Indices 1 2 3 4 5 6 
#
# 1 0.026966 -0.001625 -0.002686 0.000000 0.000000 0.000000
# 2 -0.001625 0.009163 -0.003607 0.000000 0.000000 0.000000
# 3 -0.002686 -0.003607 0.010784 0.000000 0.000000 0.000000
# 4 0.000000 0.000000 0.000000 0.048007 0.000000 0.000000
# 5 0.000000 0.000000 0.000000 0.000000 0.032912 0.000000
# 6 0.000000 0.000000 0.000000 0.000000 0.000000 0.013779
#
#
# Mechanical properties :
#
#
# Convention : Reuss Voigt Hill
#
# Bulk Modulus (GPa) = 32.17803 47.35951 39.76877
# Shear Modulus (GPa) = 29.79633 38.60839 34.20236
#
# Velocity S-wave (km/s) = 3.84154 4.37285 4.11578
# Velocity P-wave (km/s) = 5.96772 6.99656 6.50252
#
# Compressibility (1/GPa) = 0.03107710
#
# Stress axis : x y z
#
# Youngs Moduli (GPa) = 37.08383 109.13836 92.72823
#
# Poissons Ratio (x) = 0.17738 0.24903
# Poissons Ratio (y) = 0.06027 0.33447
# Poissons Ratio (z) = 0.09959 0.39366
#
# Static dielectric constant tensor:
#      x y z
#    x 1.749690 0.000000 0.000000 
#    y 0.000000 1.776180 0.000000 
#    z 0.000000 0.000000 1.811240 
# 
# From -- ./inp_files/10587.got.cif
#   From: 2010.05.17/outbox.cif.g08.bks.cpg/sg20_6_cif.got.tgz:10587.got - 2010.06.03 22:52:26.
