data_PCOD9317917
_publ_section_title
;
Structure prediction by ZEFSAII (Michael W. Deem and Ramdas Pophale) SiO2 
 PCOD9317917
Probable space group: C 2 2 21
;
_chemical_formula_sum "Si O2"
_cell_formula_units_Z 44
_cell_length_a 17.864869
_cell_length_b 9.388678
_cell_length_c 10.706483
_cell_angle_alpha 90.000000
_cell_angle_beta 90.000000
_cell_angle_gamma 90.000000
_cell_volume 1795.771655
_symmetry_space_group_name_H-M "C 2 2 21"
_symmetry_group_IT_number 20
_symmetry_cell_setting 'orthorhombic'
loop_
_space_group_symop_operation_xyz
x,y,z
-x,-y,1/2+z
x,-y,-z
-x,y,1/2-z
1/2+x,1/2+y,z
1/2-x,1/2-y,1/2+z
1/2+x,1/2-y,-z
1/2-x,1/2+y,1/2-z
loop_
_atom_site_type_symbol
_atom_site_label
_atom_site_fract_x
_atom_site_fract_y
_atom_site_fract_z
Si Si1 0.075797 0.513685 0.286652
Si Si2 0.026920 0.819239 0.384836
Si Si3 0.402495 0.500000 0.500000
Si Si4 0.660723 0.000000 0.500000
Si Si5 0.285481 0.312825 0.618048
Si Si6 0.842073 0.000000 0.000000
Si Si7 0.214181 0.354061 0.862592
O O1 0.043501 0.653876 0.358573
O O2 0.115024 0.422604 0.392616
O O3 0.138390 0.569060 0.188636
O O4 0.000000 0.435645 0.250000
O O5 0.101768 0.885447 0.441098
O O6 0.000000 0.878155 0.250000
O O7 0.957338 0.868860 0.468112
O O8 0.349007 0.436887 0.609629
O O9 0.711509 0.890633 0.570878
O O10 0.254038 0.258456 0.752349
O O11 0.304338 0.213252 0.498470
O O12 0.784427 0.954314 0.892645
#
# Coordination Sequence:
#
# PCOD9317917 Si02
#       7
#     8   8   4   4   8   4   8
#     4  10  21  37  57  81 113 157 203 248 310 365
#     4  10  20  37  60  86 120 156 197 253 305 361
#     4  10  20  36  62  86 114 158 204 248 306 366
#     4   9  20  36  54  79 116 156 192 243 304 370
#     4  10  21  38  60  89 120 158 204 249 307 365
#     4  11  22  36  58  93 124 158 208 247 300 370
#     4  11  23  38  61  89 122 159 201 254 301 362
#
# _framework density 24.502001
#
# number of rings (size 3 to 8) (size 9 to 14) (size 15 to 20)
#    0.000    1.818    0.000    5.455    0.000    8.000 
#    0.000    1.818    0.000    2.182    0.000    0.000 
#    0.000    0.000    0.000    0.000    0.000    0.000 
#
# Total GULP energy -122552.269239 kJ/mol
# GULP energy per Si atom -5570.557693 kJ/mol
# Density = 2.444623 g / cm^3
# Si number density = 24.502001 Si / 1000 Ang^3
#
#
#
# Elastic Constant Matrix: (Units=GPa)
#
#
# Indices 1 2 3 4 5 6 
#
# 1 170.4808 12.2690 42.3228 0.0000 0.0000 0.0000
# 2 12.2690 26.5788 9.8485 0.0000 0.0000 0.0000
# 3 42.3228 9.8485 93.5834 0.0000 0.0000 0.0000
# 4 0.0000 0.0000 0.0000 35.6233 0.0000 0.0000
# 5 0.0000 0.0000 0.0000 0.0000 -14.3564 0.0000
# 6 0.0000 0.0000 0.0000 0.0000 0.0000 31.0003
#
#
#
# Elastic Compliance Matrix: (Units=1/GPa)
#
#
# Indices 1 2 3 4 5 6 
#
# 1 0.006714 -0.002054 -0.002820 0.000000 0.000000 0.000000
# 2 -0.002054 0.039779 -0.003257 0.000000 0.000000 0.000000
# 3 -0.002820 -0.003257 0.012304 0.000000 0.000000 0.000000
# 4 0.000000 0.000000 0.000000 0.028072 0.000000 0.000000
# 5 0.000000 0.000000 0.000000 0.000000 -0.069655 0.000000
# 6 0.000000 0.000000 0.000000 0.000000 0.000000 0.032258
#
#
# Mechanical properties :
#
#
# Convention : Reuss Voigt Hill
#
# Bulk Modulus (GPa) = 23.51083 46.61375 35.06229
# Shear Modulus (GPa) = 62.56940 25.53363 44.05151
#
# Velocity S-wave (km/s) = 5.05884 3.23167 4.24473
# Velocity P-wave (km/s) = 6.61353 5.74375 6.19393
#
# Compressibility (1/GPa) = 0.04253359
#
# Stress axis : x y z
#
# Youngs Moduli (GPa) = 148.94926 25.13883 81.27565
#
# Poissons Ratio (x) = 0.05164 0.22920
# Poissons Ratio (y) = 0.30596 0.26474
# Poissons Ratio (z) = 0.42005 0.08188
#
# Static dielectric constant tensor:
#      x y z
#    x 1.985590 0.000000 0.000000 
#    y 0.000000 2.047310 0.000000 
#    z 0.000000 0.000000 2.051500 
# 
# From -- ./inp_files/15689.got.cif
#   From: 2010.05.17/outbox.cif.g08.bks.cpg/sg20_8_cif.got.tgz:15689.got - 2010.06.03 22:52:26.
