data_PCOD9317582
_publ_section_title
;
Structure prediction by ZEFSAII (Michael W. Deem and Ramdas Pophale) SiO2 
 PCOD9317582
Probable space group: C 2 2 21
;
_chemical_formula_sum "Si O2"
_cell_formula_units_Z 40
_cell_length_a 30.898341
_cell_length_b 15.091772
_cell_length_c 4.987518
_cell_angle_alpha 90.000000
_cell_angle_beta 90.000000
_cell_angle_gamma 90.000000
_cell_volume 2325.733097
_symmetry_space_group_name_H-M "C 2 2 21"
_symmetry_group_IT_number 20
_symmetry_cell_setting 'orthorhombic'
loop_
_space_group_symop_operation_xyz
x,y,z
-x,-y,1/2+z
x,-y,-z
-x,y,1/2-z
1/2+x,1/2+y,z
1/2-x,1/2-y,1/2+z
1/2+x,1/2-y,-z
1/2-x,1/2+y,1/2-z
loop_
_atom_site_type_symbol
_atom_site_label
_atom_site_fract_x
_atom_site_fract_y
_atom_site_fract_z
Si Si1 0.591184 0.101444 0.093865
Si Si2 0.713760 0.000000 0.500000
Si Si3 0.500000 0.936921 0.750000
Si Si4 0.304180 0.285925 0.262372
Si Si5 0.855312 0.647353 0.902572
Si Si6 0.228510 0.861466 0.721469
O O1 0.540195 0.118882 0.133902
O O2 0.611842 0.106046 0.385162
O O3 0.619265 0.157701 0.878388
O O4 0.594093 0.000000 0.000000
O O5 0.683407 0.924258 0.365216
O O6 0.744900 0.946715 0.695331
O O7 0.514312 0.000000 0.500000
O O8 0.264941 0.215819 0.291199
O O9 0.306731 0.327510 0.559101
O O10 0.337652 0.231153 0.074709
O O11 0.290905 0.366563 0.071810
#
# Coordination Sequence:
#
# PCOD9317582 Si02
#       6
#     8   4   4   8   8   8
#     4  11  19  31  44  65  84 112 144 188 222 257
#     4  10  20  30  46  66  84 112 156 200 216 252
#     4  10  20  32  46  60  90 116 142 180 234 276
#     4   9  18  31  42  58  83 111 138 180 229 272
#     4  11  20  30  46  65  85 110 152 192 225 247
#     4   9  18  30  43  58  82 111 142 180 231 259
#
# _framework density 17.198877
#
# number of rings (size 3 to 8) (size 9 to 14) (size 15 to 20)
#    0.000    2.000    2.000    3.600    0.000    7.200 
#    0.000    0.000    0.000    0.000    0.000    0.000 
#    0.000    0.000    0.000    0.000    0.000   56.000 
#
# Total GULP energy -111365.765144 kJ/mol
# GULP energy per Si atom -5568.288257 kJ/mol
# Density = 1.715973 g / cm^3
# Si number density = 17.198877 Si / 1000 Ang^3
#
#
#
# Elastic Constant Matrix: (Units=GPa)
#
#
# Indices 1 2 3 4 5 6 
#
# 1 50.6478 16.9302 6.1944 0.0000 0.0000 0.0000
# 2 16.9302 26.4708 6.2895 0.0000 0.0000 0.0000
# 3 6.1944 6.2895 89.7893 0.0000 0.0000 0.0000
# 4 0.0000 0.0000 0.0000 18.6440 0.0000 0.0000
# 5 0.0000 0.0000 0.0000 0.0000 18.6055 0.0000
# 6 0.0000 0.0000 0.0000 0.0000 0.0000 6.4234
#
#
#
# Elastic Compliance Matrix: (Units=1/GPa)
#
#
# Indices 1 2 3 4 5 6 
#
# 1 0.025147 -0.015937 -0.000619 0.000000 0.000000 0.000000
# 2 -0.015937 0.048516 -0.002299 0.000000 0.000000 0.000000
# 3 -0.000619 -0.002299 0.011341 0.000000 0.000000 0.000000
# 4 0.000000 0.000000 0.000000 0.053637 0.000000 0.000000
# 5 0.000000 0.000000 0.000000 0.000000 0.053747 0.000000
# 6 0.000000 0.000000 0.000000 0.000000 0.000000 0.155680
#
#
# Mechanical properties :
#
#
# Convention : Reuss Voigt Hill
#
# Bulk Modulus (GPa) = 21.14335 25.08176 23.11256
# Shear Modulus (GPa) = 12.45199 17.90085 15.17642
#
# Velocity S-wave (km/s) = 2.69364 3.22967 2.97376
# Velocity P-wave (km/s) = 4.68982 5.34066 5.02579
#
# Compressibility (1/GPa) = 0.04729619
#
# Stress axis : x y z
#
# Youngs Moduli (GPa) = 39.76615 20.61156 88.17650
#
# Poissons Ratio (x) = 0.32848 0.05454
# Poissons Ratio (y) = 0.63374 0.20272
# Poissons Ratio (z) = 0.02460 0.04739
#
# Static dielectric constant tensor:
#      x y z
#    x 1.645360 0.000000 0.000000 
#    y 0.000000 1.615420 0.000000 
#    z 0.000000 0.000000 1.642700 
# 
# From -- ./inp_files/4191.got.cif
#   From: 2010.05.17/outbox.cif.g08.bks.cpg/sg20_3_cif.got.tgz:4191.got - 2010.06.03 22:52:26.
