data_PCOD9317664
_publ_section_title
;
Structure prediction by ZEFSAII (Michael W. Deem and Ramdas Pophale) SiO2 
 PCOD9317664
Probable space group: C 2 2 21
;
_chemical_formula_sum "Si O2"
_cell_formula_units_Z 64
_cell_length_a 18.561823
_cell_length_b 22.128315
_cell_length_c 9.062427
_cell_angle_alpha 90.000000
_cell_angle_beta 90.000000
_cell_angle_gamma 90.000000
_cell_volume 3722.318179
_symmetry_space_group_name_H-M "C 2 2 21"
_symmetry_group_IT_number 20
_symmetry_cell_setting 'orthorhombic'
loop_
_space_group_symop_operation_xyz
x,y,z
-x,-y,1/2+z
x,-y,-z
-x,y,1/2-z
1/2+x,1/2+y,z
1/2-x,1/2-y,1/2+z
1/2+x,1/2-y,-z
1/2-x,1/2+y,1/2-z
loop_
_atom_site_type_symbol
_atom_site_label
_atom_site_fract_x
_atom_site_fract_y
_atom_site_fract_z
Si Si1 0.593063 0.068926 0.532512
Si Si2 0.856383 0.364412 0.778185
Si Si3 0.573861 0.933150 0.950867
Si Si4 0.078042 0.235076 0.820026
Si Si5 0.214368 0.807975 0.326770
Si Si6 0.422596 0.268844 0.677221
Si Si7 0.215218 0.811707 0.681784
Si Si8 0.639991 0.136418 0.801153
O O1 0.639364 0.120996 0.450967
O O2 0.509369 0.076246 0.489620
O O3 0.603779 0.085291 0.702445
O O4 0.614689 0.000000 0.500000
O O5 0.904355 0.419614 0.715625
O O6 0.895748 0.302014 0.733104
O O7 0.774402 0.362350 0.721693
O O8 0.620508 0.882850 0.034083
O O9 0.593705 0.000000 0.000000
O O10 0.136848 0.189474 0.750118
O O11 0.000000 0.224791 0.750000
O O12 0.076671 0.231049 0.998260
O O13 0.209577 0.804019 0.504888
O O14 0.249139 0.747002 0.259379
O O15 0.274156 0.857851 0.287104
O O16 0.500000 0.279894 0.750000
O O17 0.363026 0.314614 0.743342
O O18 0.396512 0.201505 0.725469
#
# Coordination Sequence:
#
# PCOD9317664 Si02
#       8
#     8   8   8   8   8   8   8   8
#     4  11  24  34  49  74 103 141 182 225 258 290
#     4  11  21  34  52  72 103 141 179 210 261 304
#     4  11  20  36  51  70 101 137 180 225 254 296
#     4  11  22  34  54  80 106 136 171 210 259 316
#     4  10  20  34  51  74 102 136 175 214 257 309
#     4  11  22  34  54  80 106 136 171 210 259 316
#     4  10  20  34  51  74 102 136 175 214 257 309
#     4  11  21  34  52  72 103 141 179 210 261 304
#
# _framework density 17.193587000000001
#
# number of rings (size 3 to 8) (size 9 to 14) (size 15 to 20)
#    0.000    1.250    2.500    6.000   10.500    2.000 
#    0.000    0.000    0.000    0.000    0.000    0.000 
#    0.000    6.000    0.000    0.000    0.000    0.000 
#
# Total GULP energy -178431.764869 kJ/mol
# GULP energy per Si atom -5575.992652 kJ/mol
# Density = 1.715445 g / cm^3
# Si number density = 17.193587 Si / 1000 Ang^3
#
#
#
# Elastic Constant Matrix: (Units=GPa)
#
#
# Indices 1 2 3 4 5 6 
#
# 1 138.2143 24.3730 29.5532 0.0000 0.0000 0.0000
# 2 24.3730 33.7033 6.0622 0.0000 0.0000 0.0000
# 3 29.5532 6.0622 60.8415 0.0000 0.0000 0.0000
# 4 0.0000 0.0000 0.0000 23.2553 0.0000 0.0000
# 5 0.0000 0.0000 0.0000 0.0000 30.8511 0.0000
# 6 0.0000 0.0000 0.0000 0.0000 0.0000 17.4995
#
#
#
# Elastic Compliance Matrix: (Units=1/GPa)
#
#
# Indices 1 2 3 4 5 6 
#
# 1 0.009092 -0.005886 -0.003830 0.000000 0.000000 0.000000
# 2 -0.005886 0.034023 -0.000531 0.000000 0.000000 0.000000
# 3 -0.003830 -0.000531 0.018349 0.000000 0.000000 0.000000
# 4 0.000000 0.000000 0.000000 0.043001 0.000000 0.000000
# 5 0.000000 0.000000 0.000000 0.000000 0.032414 0.000000
# 6 0.000000 0.000000 0.000000 0.000000 0.000000 0.057145
#
#
# Mechanical properties :
#
#
# Convention : Reuss Voigt Hill
#
# Bulk Modulus (GPa) = 24.40783 39.19288 31.80036
# Shear Modulus (GPa) = 21.91309 25.83923 23.87616
#
# Velocity S-wave (km/s) = 3.57388 3.88086 3.73052
# Velocity P-wave (km/s) = 5.59078 6.55179 6.09027
#
# Compressibility (1/GPa) = 0.04097045
#
# Stress axis : x y z
#
# Youngs Moduli (GPa) = 109.98638 29.39202 54.49778
#
# Poissons Ratio (x) = 0.17301 0.20872
# Poissons Ratio (y) = 0.64740 0.02893
# Poissons Ratio (z) = 0.42123 0.01560
#
# Static dielectric constant tensor:
#      x y z
#    x 1.612860 0.000000 0.000000 
#    y 0.000000 1.562780 0.000000 
#    z 0.000000 0.000000 1.589740 
# 
# From -- ./inp_files/9645.got.cif
#   From: 2010.05.17/outbox.cif.g08.bks.cpg/sg20_5_cif.got.tgz:9645.got - 2010.06.03 22:52:26.
