data_PCOD9317081
_publ_section_title
;
Structure prediction by ZEFSAII (Michael W. Deem and Ramdas Pophale) SiO2 
 PCOD9317081
Probable space group: C 2 2 21
;
_chemical_formula_sum "Si O2"
_cell_formula_units_Z 32
_cell_length_a 11.015172
_cell_length_b 14.134155
_cell_length_c 8.208714
_cell_angle_alpha 90.000000
_cell_angle_beta 90.000000
_cell_angle_gamma 90.000000
_cell_volume 1278.015901
_symmetry_space_group_name_H-M "C 2 2 21"
_symmetry_group_IT_number 20
_symmetry_cell_setting 'orthorhombic'
loop_
_space_group_symop_operation_xyz
x,y,z
-x,-y,1/2+z
x,-y,-z
-x,y,1/2-z
1/2+x,1/2+y,z
1/2-x,1/2-y,1/2+z
1/2+x,1/2-y,-z
1/2-x,1/2+y,1/2-z
loop_
_atom_site_type_symbol
_atom_site_label
_atom_site_fract_x
_atom_site_fract_y
_atom_site_fract_z
Si Si1 0.741889 0.934783 0.841358
Si Si2 0.926526 0.306032 0.471810
Si Si3 0.091489 0.898783 0.942609
Si Si4 0.339768 0.107918 0.853836
O O1 0.863200 0.908984 0.743116
O O2 0.665707 0.004122 0.724388
O O3 0.664828 0.843627 0.892092
O O4 0.764037 0.000000 0.000000
O O5 0.974354 0.199084 0.481358
O O6 0.855886 0.321152 0.299770
O O7 0.042354 0.373730 0.461157
O O8 0.216520 0.882690 0.046144
O O9 0.042020 0.000000 0.000000
#
# Coordination Sequence:
#
# PCOD9317081 Si02
#       4
#     8   8   8   8
#     4   9  19  33  53  82 112 140 182 233 279 321
#     4  10  19  34  56  81 112 148 182 229 282 330
#     4  10  20  35  56  82 112 147 185 226 273 332
#     4   9  20  33  53  83 109 140 183 233 278 323
#
# _framework density 25.038813999999999
#
# number of rings (size 3 to 8) (size 9 to 14) (size 15 to 20)
#    0.000    2.500    0.000    1.500    0.000   18.000 
#    0.000    0.000    0.000   34.500    0.000    0.000 
#    0.000    0.000    0.000    0.000    0.000    0.000 
#
# Total GULP energy -89562.744048 kJ/mol
# GULP energy per Si atom -5597.671503 kJ/mol
# Density = 2.498182 g / cm^3
# Si number density = 25.038814 Si / 1000 Ang^3
#
#
#
# Elastic Constant Matrix: (Units=GPa)
#
#
# Indices 1 2 3 4 5 6 
#
# 1 73.3510 29.0706 17.8572 0.0000 0.0000 0.0000
# 2 29.0706 172.0584 34.0614 0.0000 0.0000 0.0000
# 3 17.8572 34.0614 70.1525 0.0000 0.0000 0.0000
# 4 0.0000 0.0000 0.0000 26.2736 0.0000 0.0000
# 5 0.0000 0.0000 0.0000 0.0000 31.6505 0.0000
# 6 0.0000 0.0000 0.0000 0.0000 0.0000 24.6252
#
#
#
# Elastic Compliance Matrix: (Units=1/GPa)
#
#
# Indices 1 2 3 4 5 6 
#
# 1 0.015122 -0.001984 -0.002886 0.000000 0.000000 0.000000
# 2 -0.001984 0.006690 -0.002743 0.000000 0.000000 0.000000
# 3 -0.002886 -0.002743 0.016321 0.000000 0.000000 0.000000
# 4 0.000000 0.000000 0.000000 0.038061 0.000000 0.000000
# 5 0.000000 0.000000 0.000000 0.000000 0.031595 0.000000
# 6 0.000000 0.000000 0.000000 0.000000 0.000000 0.040609
#
#
# Mechanical properties :
#
#
# Convention : Reuss Voigt Hill
#
# Bulk Modulus (GPa) = 43.65454 53.06004 48.35729
# Shear Modulus (GPa) = 29.19533 32.14804 30.67169
#
# Velocity S-wave (km/s) = 3.41838 3.58708 3.50375
# Velocity P-wave (km/s) = 5.74918 6.19623 5.97689
#
# Compressibility (1/GPa) = 0.02290713
#
# Stress axis : x y z
#
# Youngs Moduli (GPa) = 66.12945 149.47183 61.26946
#
# Poissons Ratio (x) = 0.29649 0.17683
# Poissons Ratio (y) = 0.13117 0.16809
# Poissons Ratio (z) = 0.19086 0.41006
#
# Static dielectric constant tensor:
#      x y z
#    x 1.972650 0.000000 0.000000 
#    y 0.000000 1.954940 0.000000 
#    z 0.000000 0.000000 2.023950 
# 
# From -- ./inp_files/6901.got.cif
#   From: 2010.05.17/outbox.cif.g08.bks.cpg/sg20_4_cif.got.tgz:6901.got - 2010.06.03 22:52:26.
