data_PCOD9317851
_publ_section_title
;
Structure prediction by ZEFSAII (Michael W. Deem and Ramdas Pophale) SiO2 
 PCOD9317851
Probable space group: C 2 2 21
;
_chemical_formula_sum "Si O2"
_cell_formula_units_Z 32
_cell_length_a 19.572131
_cell_length_b 5.065946
_cell_length_c 16.591854
_cell_angle_alpha 90.000000
_cell_angle_beta 90.000000
_cell_angle_gamma 90.000000
_cell_volume 1645.104868
_symmetry_space_group_name_H-M "C 2 2 21"
_symmetry_group_IT_number 20
_symmetry_cell_setting 'orthorhombic'
loop_
_space_group_symop_operation_xyz
x,y,z
-x,-y,1/2+z
x,-y,-z
-x,y,1/2-z
1/2+x,1/2+y,z
1/2-x,1/2-y,1/2+z
1/2+x,1/2-y,-z
1/2-x,1/2+y,1/2-z
loop_
_atom_site_type_symbol
_atom_site_label
_atom_site_fract_x
_atom_site_fract_y
_atom_site_fract_z
Si Si1 0.375041 0.746885 0.557961
Si Si2 0.579840 0.402957 0.593075
Si Si3 0.005319 0.398265 0.656872
Si Si4 0.777103 0.747416 0.942309
O O1 0.390384 0.500000 0.500000
O O2 0.433291 0.794394 0.623042
O O3 0.298519 0.706764 0.593440
O O4 0.374471 0.000000 0.500000
O O5 0.577065 0.500000 0.500000
O O6 0.557153 0.654450 0.644659
O O7 0.656895 0.305074 0.611561
O O8 0.530844 0.153437 0.607552
O O9 0.000000 0.472386 0.750000
O O10 0.792883 0.500000 0.000000
O O11 0.771163 0.000000 0.000000
#
# Coordination Sequence:
#
# PCOD9317851 Si02
#       4
#     8   8   8   8
#     4  10  20  36  58  81 108 144 186 229 276 331
#     4  11  21  38  61  82 107 147 194 234 278 337
#     4  12  24  37  54  85 120 150 185 233 284 338
#     4   9  18  33  56  84 106 133 185 240 274 318
#
# _framework density 19.451649
#
# number of rings (size 3 to 8) (size 9 to 14) (size 15 to 20)
#    0.000    1.500    0.000    8.250    0.000    0.000 
#    0.000    2.500    0.000    0.000    0.000    0.000 
#    0.000    0.000    0.000    0.000    0.000    0.000 
#
# Total GULP energy -89338.081599 kJ/mol
# GULP energy per Si atom -5583.630100 kJ/mol
# Density = 1.940738 g / cm^3
# Si number density = 19.451649 Si / 1000 Ang^3
#
#
#
# Elastic Constant Matrix: (Units=GPa)
#
#
# Indices 1 2 3 4 5 6 
#
# 1 141.7987 29.2568 53.9865 0.0000 0.0000 0.0000
# 2 29.2568 135.2138 18.6175 0.0000 0.0000 0.0000
# 3 53.9865 18.6175 54.3037 0.0000 0.0000 0.0000
# 4 0.0000 0.0000 0.0000 18.4069 0.0000 0.0000
# 5 0.0000 0.0000 0.0000 0.0000 -3.3446 0.0000
# 6 0.0000 0.0000 0.0000 0.0000 0.0000 21.2201
#
#
#
# Elastic Compliance Matrix: (Units=1/GPa)
#
#
# Indices 1 2 3 4 5 6 
#
# 1 0.011464 -0.000956 -0.011069 0.000000 0.000000 0.000000
# 2 -0.000956 0.007842 -0.001738 0.000000 0.000000 0.000000
# 3 -0.011069 -0.001738 0.030015 0.000000 0.000000 0.000000
# 4 0.000000 0.000000 0.000000 0.054327 0.000000 0.000000
# 5 0.000000 0.000000 0.000000 0.000000 -0.298990 0.000000
# 6 0.000000 0.000000 0.000000 0.000000 0.000000 0.047125
#
#
# Mechanical properties :
#
#
# Convention : Reuss Voigt Hill
#
# Bulk Modulus (GPa) = 45.88290 59.44863 52.66576
# Shear Modulus (GPa) = -44.08167 22.55351 -10.76408
#
# Velocity S-wave (km/s) = -4.76565 3.40879 -2.35495
# Velocity P-wave (km/s) = 2.57729 6.79130 4.44293
#
# Compressibility (1/GPa) = 0.02179461
#
# Stress axis : x y z
#
# Youngs Moduli (GPa) = 87.23086 127.52014 33.31661
#
# Poissons Ratio (x) = 0.12196 0.36878
# Poissons Ratio (y) = 0.08343 0.05789
# Poissons Ratio (z) = 0.96556 0.22159
#
# Static dielectric constant tensor:
#      x y z
#    x 1.770190 0.000000 0.000000 
#    y 0.000000 1.649880 0.000000 
#    z 0.000000 0.000000 1.633220 
# 
# From -- ./inp_files/17511.got.cif
#   From: 2010.05.17/outbox.cif.g08.bks.cpg/sg20_9_cif.got.tgz:17511.got - 2010.06.03 22:52:26.
