data_PCOD9317850
_publ_section_title
;
Structure prediction by ZEFSAII (Michael W. Deem and Ramdas Pophale) SiO2 
 PCOD9317850
Probable space group: C 2 2 21
;
_chemical_formula_sum "Si O2"
_cell_formula_units_Z 60
_cell_length_a 11.819601
_cell_length_b 7.411579
_cell_length_c 30.936451
_cell_angle_alpha 90.000000
_cell_angle_beta 90.000000
_cell_angle_gamma 90.000000
_cell_volume 2710.092090
_symmetry_space_group_name_H-M "C 2 2 21"
_symmetry_group_IT_number 20
_symmetry_cell_setting 'orthorhombic'
loop_
_space_group_symop_operation_xyz
x,y,z
-x,-y,1/2+z
x,-y,-z
-x,y,1/2-z
1/2+x,1/2+y,z
1/2-x,1/2-y,1/2+z
1/2+x,1/2-y,-z
1/2-x,1/2+y,1/2-z
loop_
_atom_site_type_symbol
_atom_site_label
_atom_site_fract_x
_atom_site_fract_y
_atom_site_fract_z
Si Si1 0.141335 0.398056 0.625170
Si Si2 0.694085 0.753923 0.430614
Si Si3 0.971654 0.573343 0.797036
Si Si4 0.554153 0.864647 0.938073
Si Si5 0.469544 0.722060 0.465074
Si Si6 0.374634 0.446152 0.762653
Si Si7 0.287221 0.216896 0.685555
Si Si8 0.716893 0.500000 0.000000
O O1 0.174169 0.589935 0.604391
O O2 0.090767 0.438466 0.672159
O O3 0.245464 0.273302 0.638150
O O4 0.043673 0.315708 0.595546
O O5 0.816713 0.668871 0.423627
O O6 0.579261 0.643537 0.440248
O O7 0.707145 0.853684 0.476936
O O8 0.000000 0.496331 0.750000
O O9 0.090526 0.625289 0.818237
O O10 0.901759 0.757833 0.787872
O O11 0.546898 0.079108 0.945998
O O12 0.527839 0.761095 0.983060
O O13 0.361158 0.592309 0.463469
O O14 0.500000 0.517111 0.750000
O O15 0.310781 0.383572 0.718808
O O16 0.299428 0.580166 0.790877
#
# Coordination Sequence:
#
# PCOD9317850 Si02
#       8
#     8   8   8   8   8   8   8   4
#     4  11  22  36  55  83 115 146 182 229 280 330
#     4  10  21  38  56  80 115 146 179 230 275 320
#     4   9  21  39  55  78 108 143 191 230 270 335
#     4   9  20  37  57  84 115 145 184 227 274 332
#     4   9  19  38  59  82 110 147 189 222 268 335
#     4   9  20  37  58  82 103 138 191 231 270 331
#     4  10  20  36  58  79 109 145 178 231 281 318
#     4  10  20  36  62  82 104 146 186 224 276 330
#
# _framework density 22.139468000000001
#
# number of rings (size 3 to 8) (size 9 to 14) (size 15 to 20)
#    0.000    2.667    0.000    3.200    0.000    9.067 
#    0.000    6.667    0.000    0.000    0.000    0.000 
#    0.000    0.000    0.000    0.000    0.000    0.000 
#
# Total GULP energy -167454.475021 kJ/mol
# GULP energy per Si atom -5581.815834 kJ/mol
# Density = 2.208908 g / cm^3
# Si number density = 22.139468 Si / 1000 Ang^3
#
#
#
# Elastic Constant Matrix: (Units=GPa)
#
#
# Indices 1 2 3 4 5 6 
#
# 1 60.1133 5.6174 16.9635 0.0000 0.0000 0.0000
# 2 5.6174 29.6531 3.3313 0.0000 0.0000 0.0000
# 3 16.9635 3.3313 30.6856 0.0000 0.0000 0.0000
# 4 0.0000 0.0000 0.0000 41.4635 0.0000 0.0000
# 5 0.0000 0.0000 0.0000 0.0000 31.9890 0.0000
# 6 0.0000 0.0000 0.0000 0.0000 0.0000 32.0102
#
#
#
# Elastic Compliance Matrix: (Units=1/GPa)
#
#
# Indices 1 2 3 4 5 6 
#
# 1 0.019901 -0.002565 -0.010723 0.000000 0.000000 0.000000
# 2 -0.002565 0.034470 -0.002324 0.000000 0.000000 0.000000
# 3 -0.010723 -0.002324 0.038769 0.000000 0.000000 0.000000
# 4 0.000000 0.000000 0.000000 0.024118 0.000000 0.000000
# 5 0.000000 0.000000 0.000000 0.000000 0.031261 0.000000
# 6 0.000000 0.000000 0.000000 0.000000 0.000000 0.031240
#
#
# Mechanical properties :
#
#
# Convention : Reuss Voigt Hill
#
# Bulk Modulus (GPa) = 16.15114 19.14183 17.64649
# Shear Modulus (GPa) = 21.58692 27.39519 24.49106
#
# Velocity S-wave (km/s) = 3.12595 3.52147 3.32959
# Velocity P-wave (km/s) = 4.50997 5.01988 4.77174
#
# Compressibility (1/GPa) = 0.06191514
#
# Stress axis : x y z
#
# Youngs Moduli (GPa) = 50.24892 29.01048 25.79393
#
# Poissons Ratio (x) = 0.07442 0.27659
# Poissons Ratio (y) = 0.12890 0.05995
# Poissons Ratio (z) = 0.53882 0.06742
#
# Static dielectric constant tensor:
#      x y z
#    x 1.731540 0.000000 0.000000 
#    y 0.000000 1.854430 0.000000 
#    z 0.000000 0.000000 1.795100 
# 
# From -- ./inp_files/31179.got.cif
#   From: 2010.05.17/outbox.cif.g08.bks.cpg/sg20_16_cif.got.tgz:31179.got - 2010.06.03 22:52:26.
