data_PCOD9317826
_publ_section_title
;
Structure prediction by ZEFSAII (Michael W. Deem and Ramdas Pophale) SiO2 
 PCOD9317826
Probable space group: C 2 2 21
;
_chemical_formula_sum "Si O2"
_cell_formula_units_Z 52
_cell_length_a 15.730332
_cell_length_b 20.788305
_cell_length_c 7.513064
_cell_angle_alpha 90.000000
_cell_angle_beta 90.000000
_cell_angle_gamma 90.000000
_cell_volume 2456.824064
_symmetry_space_group_name_H-M "C 2 2 21"
_symmetry_group_IT_number 20
_symmetry_cell_setting 'orthorhombic'
loop_
_space_group_symop_operation_xyz
x,y,z
-x,-y,1/2+z
x,-y,-z
-x,y,1/2-z
1/2+x,1/2+y,z
1/2-x,1/2-y,1/2+z
1/2+x,1/2-y,-z
1/2-x,1/2+y,1/2-z
loop_
_atom_site_type_symbol
_atom_site_label
_atom_site_fract_x
_atom_site_fract_y
_atom_site_fract_z
Si Si1 0.000000 0.687854 0.750000
Si Si2 0.297609 0.569719 0.548827
Si Si3 0.973135 0.101172 0.561396
Si Si4 0.676321 0.821051 0.377382
Si Si5 0.340317 0.424827 0.029037
Si Si6 0.255645 0.195602 0.477514
Si Si7 0.566772 0.250111 0.104161
O O1 0.918781 0.653455 0.839501
O O2 0.962588 0.730169 0.591637
O O3 0.260922 0.500000 0.500000
O O4 0.392004 0.571964 0.462673
O O5 0.233785 0.628593 0.513835
O O6 0.320092 0.578929 0.758647
O O7 0.939857 0.172823 0.607503
O O8 0.000000 0.068243 0.750000
O O9 0.065264 0.098817 0.473300
O O10 0.682339 0.749590 0.460182
O O11 0.716161 0.810263 0.182134
O O12 0.330260 0.500000 0.000000
O O13 0.277354 0.375293 0.930648
O O14 0.338775 0.221852 0.375555
O O15 0.500000 0.225223 0.250000
#
# Coordination Sequence:
#
# PCOD9317826 Si02
#       7
#     4   8   8   8   8   8   8
#     4  10  22  36  56  88 122 148 198 256 302 348
#     4  10  20  36  56  82 117 160 201 239 300 371
#     4   9  17  33  57  81 120 162 191 238 300 357
#     4  10  21  37  58  88 118 154 204 252 306 357
#     4  10  21  36  53  85 123 157 195 247 303 362
#     4  10  21  36  60  86 118 160 198 252 300 367
#     4  10  20  37  60  89 121 157 197 252 306 356
#
# _framework density 21.165537
#
# number of rings (size 3 to 8) (size 9 to 14) (size 15 to 20)
#    0.000    2.154    1.538    1.385    4.308    1.231 
#    2.769    0.000    1.692    8.308    2.000    0.000 
#    0.000    0.000    0.000    0.000    0.000    0.000 
#
# Total GULP energy -144907.051904 kJ/mol
# GULP energy per Si atom -5573.348150 kJ/mol
# Density = 2.111736 g / cm^3
# Si number density = 21.165537 Si / 1000 Ang^3
#
#
#
# Elastic Constant Matrix: (Units=GPa)
#
#
# Indices 1 2 3 4 5 6 
#
# 1 128.3164 69.2361 25.0493 0.0000 0.0000 0.0000
# 2 69.2361 139.5416 4.4127 0.0000 0.0000 0.0000
# 3 25.0493 4.4127 41.9464 0.0000 0.0000 0.0000
# 4 0.0000 0.0000 0.0000 22.2351 0.0000 0.0000
# 5 0.0000 0.0000 0.0000 0.0000 21.0919 0.0000
# 6 0.0000 0.0000 0.0000 0.0000 0.0000 49.8085
#
#
#
# Elastic Compliance Matrix: (Units=1/GPa)
#
#
# Indices 1 2 3 4 5 6 
#
# 1 0.012275 -0.005878 -0.006712 0.000000 0.000000 0.000000
# 2 -0.005878 0.010005 0.002458 0.000000 0.000000 0.000000
# 3 -0.006712 0.002458 0.027590 0.000000 0.000000 0.000000
# 4 0.000000 0.000000 0.000000 0.044974 0.000000 0.000000
# 5 0.000000 0.000000 0.000000 0.000000 0.047412 0.000000
# 6 0.000000 0.000000 0.000000 0.000000 0.000000 0.020077
#
#
# Mechanical properties :
#
#
# Convention : Reuss Voigt Hill
#
# Bulk Modulus (GPa) = 33.77805 56.35563 45.06684
# Shear Modulus (GPa) = 25.97856 32.70083 29.33969
#
# Velocity S-wave (km/s) = 3.50723 3.93492 3.72721
# Velocity P-wave (km/s) = 5.69161 6.87959 6.31360
#
# Compressibility (1/GPa) = 0.02960502
#
# Stress axis : x y z
#
# Youngs Moduli (GPa) = 81.46402 99.94737 36.24547
#
# Poissons Ratio (x) = 0.58753 0.24328
# Poissons Ratio (y) = 0.47888 -0.08909
# Poissons Ratio (z) = 0.54679 -0.24566
#
# Static dielectric constant tensor:
#      x y z
#    x 1.901720 0.000000 0.000000 
#    y 0.000000 1.760720 0.000000 
#    z 0.000000 0.000000 1.817410 
# 
# From -- ./inp_files/8645.got.cif
#   From: 2010.05.17/outbox.cif.g08.bks.cpg/sg20_5_cif.got.tgz:8645.got - 2010.06.03 22:52:26.
