data_PCOD9317098
_publ_section_title
;
Structure prediction by ZEFSAII (Michael W. Deem and Ramdas Pophale) SiO2 
 PCOD9317098
Probable space group: C 2 2 21
;
_chemical_formula_sum "Si O2"
_cell_formula_units_Z 48
_cell_length_a 14.700577
_cell_length_b 18.170493
_cell_length_c 8.624996
_cell_angle_alpha 90.000000
_cell_angle_beta 90.000000
_cell_angle_gamma 90.000000
_cell_volume 2303.880741
_symmetry_space_group_name_H-M "C 2 2 21"
_symmetry_group_IT_number 20
_symmetry_cell_setting 'orthorhombic'
loop_
_space_group_symop_operation_xyz
x,y,z
-x,-y,1/2+z
x,-y,-z
-x,y,1/2-z
1/2+x,1/2+y,z
1/2-x,1/2-y,1/2+z
1/2+x,1/2-y,-z
1/2-x,1/2+y,1/2-z
loop_
_atom_site_type_symbol
_atom_site_label
_atom_site_fract_x
_atom_site_fract_y
_atom_site_fract_z
Si Si1 0.600945 0.206712 0.281383
Si Si2 0.290726 0.661650 0.153921
Si Si3 0.344795 0.179226 0.865399
Si Si4 0.593277 0.976071 0.321094
Si Si5 0.662113 0.365627 0.296761
Si Si6 0.702584 0.486748 0.815714
O O1 0.500000 0.178130 0.250000
O O2 0.683186 0.178712 0.173978
O O3 0.634468 0.184768 0.452827
O O4 0.598201 0.295580 0.272285
O O5 0.345024 0.736969 0.194478
O O6 0.320927 0.595243 0.263761
O O7 0.306736 0.641166 0.975064
O O8 0.404988 0.112528 0.803037
O O9 0.244257 0.151183 0.822948
O O10 0.500000 0.004909 0.250000
O O11 0.593269 0.000000 0.500000
O O12 0.691640 0.003037 0.259580
O O13 0.640270 0.450288 0.261890
O O14 0.700455 0.500000 0.000000
#
# Coordination Sequence:
#
# PCOD9317098 Si02
#       6
#     8   8   8   8   8   8
#     4  10  20  34  55  80 110 144 177 227 289 338
#     4  10  19  34  57  80 106 144 187 230 281 334
#     4   9  20  36  51  77 111 146 185 225 271 335
#     4  10  21  34  50  76 111 142 174 218 273 331
#     4   9  19  35  54  79 107 141 189 230 270 338
#     4  10  20  35  55  76 104 143 187 232 279 336
#
# _framework density 20.834412
#
# number of rings (size 3 to 8) (size 9 to 14) (size 15 to 20)
#    0.000    2.333    0.000    3.500    0.000    9.333 
#    0.000    0.000    0.000    5.000    0.000    0.000 
#    0.000    0.000    0.000    0.000    0.000    0.000 
#
# Total GULP energy -133749.632945 kJ/mol
# GULP energy per Si atom -5572.901373 kJ/mol
# Density = 2.078699 g / cm^3
# Si number density = 20.834412 Si / 1000 Ang^3
#
#
#
# Elastic Constant Matrix: (Units=GPa)
#
#
# Indices 1 2 3 4 5 6 
#
# 1 38.0982 11.4945 22.3220 0.0000 0.0000 0.0000
# 2 11.4945 169.5745 32.1091 0.0000 0.0000 0.0000
# 3 22.3220 32.1091 38.4198 0.0000 0.0000 0.0000
# 4 0.0000 0.0000 0.0000 30.2456 0.0000 0.0000
# 5 0.0000 0.0000 0.0000 0.0000 2.5730 0.0000
# 6 0.0000 0.0000 0.0000 0.0000 0.0000 29.1795
#
#
#
# Elastic Compliance Matrix: (Units=1/GPa)
#
#
# Indices 1 2 3 4 5 6 
#
# 1 0.040372 0.002025 -0.025149 0.000000 0.000000 0.000000
# 2 0.002025 0.007107 -0.007117 0.000000 0.000000 0.000000
# 3 -0.025149 -0.007117 0.046588 0.000000 0.000000 0.000000
# 4 0.000000 0.000000 0.000000 0.033063 0.000000 0.000000
# 5 0.000000 0.000000 0.000000 0.000000 0.388651 0.000000
# 6 0.000000 0.000000 0.000000 0.000000 0.000000 0.034271
#
#
# Mechanical properties :
#
#
# Convention : Reuss Voigt Hill
#
# Bulk Modulus (GPa) = 29.77395 41.99375 35.88385
# Shear Modulus (GPa) = 8.04211 24.41075 16.22643
#
# Velocity S-wave (km/s) = 1.96682 3.42666 2.79378
# Velocity P-wave (km/s) = 4.41357 5.98796 5.26001
#
# Compressibility (1/GPa) = 0.03358640
#
# Stress axis : x y z
#
# Youngs Moduli (GPa) = 24.76979 140.69876 21.46494
#
# Poissons Ratio (x) = -0.28497 0.53982
# Poissons Ratio (y) = -0.05017 0.15276
# Poissons Ratio (z) = 0.62293 1.00131
#
# Static dielectric constant tensor:
#      x y z
#    x 1.711530 0.000000 0.000000 
#    y 0.000000 1.838210 0.000000 
#    z 0.000000 0.000000 1.717890 
# 
# From -- ./inp_files/8387.got.cif
#   From: 2010.05.17/outbox.cif.g08.bks.cpg/sg20_5_cif.got.tgz:8387.got - 2010.06.03 22:52:26.
