data_PCOD9317642
_publ_section_title
;
Structure prediction by ZEFSAII (Michael W. Deem and Ramdas Pophale) SiO2 
 PCOD9317642
Probable space group: C 2 2 21
;
_chemical_formula_sum "Si O2"
_cell_formula_units_Z 56
_cell_length_a 21.064558
_cell_length_b 19.494886
_cell_length_c 6.993458
_cell_angle_alpha 90.000000
_cell_angle_beta 90.000000
_cell_angle_gamma 90.000000
_cell_volume 2871.871618
_symmetry_space_group_name_H-M "C 2 2 21"
_symmetry_group_IT_number 20
_symmetry_cell_setting 'orthorhombic'
loop_
_space_group_symop_operation_xyz
x,y,z
-x,-y,1/2+z
x,-y,-z
-x,y,1/2-z
1/2+x,1/2+y,z
1/2-x,1/2-y,1/2+z
1/2+x,1/2-y,-z
1/2-x,1/2+y,1/2-z
loop_
_atom_site_type_symbol
_atom_site_label
_atom_site_fract_x
_atom_site_fract_y
_atom_site_fract_z
Si Si1 0.939825 0.196717 0.851533
Si Si2 0.078210 0.927568 0.585656
Si Si3 0.070717 0.715756 0.717637
Si Si4 0.773326 0.921087 0.031792
Si Si5 0.703959 0.167318 0.687568
Si Si6 0.104834 0.150716 0.052204
Si Si7 0.745275 0.319705 0.798483
O O1 0.901555 0.161896 0.675494
O O2 0.000000 0.229781 0.750000
O O3 0.960760 0.132327 0.982358
O O4 0.915390 0.250723 0.007486
O O5 0.150942 0.917118 0.509058
O O6 0.080514 0.913335 0.814504
O O7 0.057442 0.000000 0.500000
O O8 0.131597 0.668831 0.761733
O O9 0.073554 0.781637 0.855894
O O10 0.000000 0.686489 0.750000
O O11 0.743599 0.866809 0.884072
O O12 0.747145 0.893676 0.231861
O O13 0.755738 0.000000 0.000000
O O14 0.736745 0.240056 0.744561
O O15 0.703426 0.167259 0.459423
O O16 0.178639 0.157113 0.108308
#
# Coordination Sequence:
#
# PCOD9317642 Si02
#       7
#     8   8   8   8   8   8   8
#     4  11  20  33  52  71 104 153 192 239 284 337
#     4   9  20  36  51  75 110 149 191 230 276 344
#     4  10  21  36  51  79 111 144 188 235 294 348
#     4  10  21  39  58  85 122 153 184 233 302 360
#     4  11  21  33  59  88 119 145 192 249 284 355
#     4   9  19  33  53  74 109 145 182 232 288 336
#     4  10  20  33  57  90 115 146 187 238 295 349
#
# _framework density 19.499479999999998
#
# number of rings (size 3 to 8) (size 9 to 14) (size 15 to 20)
#    0.000    2.000    2.857    1.714    2.000    1.143 
#    2.571    4.286    0.000    0.000    3.714    0.000 
#    0.000    0.000    0.000    0.000    0.000    0.000 
#
# Total GULP energy -156007.680710 kJ/mol
# GULP energy per Si atom -5571.702882 kJ/mol
# Density = 1.945510 g / cm^3
# Si number density = 19.499480 Si / 1000 Ang^3
#
#
#
# Elastic Constant Matrix: (Units=GPa)
#
#
# Indices 1 2 3 4 5 6 
#
# 1 40.1264 6.0338 -7.9938 0.0000 0.0000 0.0000
# 2 6.0338 50.4794 9.5459 0.0000 0.0000 0.0000
# 3 -7.9938 9.5459 73.5043 0.0000 0.0000 0.0000
# 4 0.0000 0.0000 0.0000 23.9464 0.0000 0.0000
# 5 0.0000 0.0000 0.0000 0.0000 26.0927 0.0000
# 6 0.0000 0.0000 0.0000 0.0000 0.0000 16.8433
#
#
#
# Elastic Compliance Matrix: (Units=1/GPa)
#
#
# Indices 1 2 3 4 5 6 
#
# 1 0.026150 -0.003756 0.003332 0.000000 0.000000 0.000000
# 2 -0.003756 0.020848 -0.003116 0.000000 0.000000 0.000000
# 3 0.003332 -0.003116 0.014372 0.000000 0.000000 0.000000
# 4 0.000000 0.000000 0.000000 0.041760 0.000000 0.000000
# 5 0.000000 0.000000 0.000000 0.000000 0.038325 0.000000
# 6 0.000000 0.000000 0.000000 0.000000 0.000000 0.059371
#
#
# Mechanical properties :
#
#
# Convention : Reuss Voigt Hill
#
# Bulk Modulus (GPa) = 18.41980 19.92022 19.17001
# Shear Modulus (GPa) = 22.12374 23.81145 22.96759
#
# Velocity S-wave (km/s) = 3.37201 3.49826 3.43572
# Velocity P-wave (km/s) = 4.96260 5.15316 5.05878
#
# Compressibility (1/GPa) = 0.05428940
#
# Stress axis : x y z
#
# Youngs Moduli (GPa) = 38.24139 47.96570 69.58152
#
# Poissons Ratio (x) = 0.18014 -0.23182
# Poissons Ratio (y) = 0.14362 0.21681
# Poissons Ratio (z) = -0.12741 0.14946
#
# Static dielectric constant tensor:
#      x y z
#    x 1.774370 0.000000 0.000000 
#    y 0.000000 1.648050 0.000000 
#    z 0.000000 0.000000 1.759120 
# 
# From -- ./inp_files/3792.got.cif
#   From: 2010.05.17/outbox.cif.g08.bks.cpg/sg20_2_cif.got.tgz:3792.got - 2010.06.03 22:52:26.
