data_PCOD9317589
_publ_section_title
;
Structure prediction by ZEFSAII (Michael W. Deem and Ramdas Pophale) SiO2 
 PCOD9317589
Probable space group: C 2 2 21
;
_chemical_formula_sum "Si O2"
_cell_formula_units_Z 56
_cell_length_a 9.772465
_cell_length_b 20.492314
_cell_length_c 14.801024
_cell_angle_alpha 90.000000
_cell_angle_beta 90.000000
_cell_angle_gamma 90.000000
_cell_volume 2964.059302
_symmetry_space_group_name_H-M "C 2 2 21"
_symmetry_group_IT_number 20
_symmetry_cell_setting 'orthorhombic'
loop_
_space_group_symop_operation_xyz
x,y,z
-x,-y,1/2+z
x,-y,-z
-x,y,1/2-z
1/2+x,1/2+y,z
1/2-x,1/2-y,1/2+z
1/2+x,1/2-y,-z
1/2-x,1/2+y,1/2-z
loop_
_atom_site_type_symbol
_atom_site_label
_atom_site_fract_x
_atom_site_fract_y
_atom_site_fract_z
Si Si1 0.493037 0.324933 0.495661
Si Si2 0.777182 0.862645 0.631101
Si Si3 0.138311 0.641098 0.189716
Si Si4 0.308354 0.288203 0.335296
Si Si5 0.986791 0.312388 0.095055
Si Si6 0.023895 0.429330 0.543205
Si Si7 0.215249 0.209067 0.633284
O O1 0.422844 0.364441 0.578648
O O2 0.388114 0.327596 0.411880
O O3 0.501392 0.251397 0.532405
O O4 0.639909 0.331009 0.446006
O O5 0.762478 0.870903 0.739601
O O6 0.669728 0.914352 0.591134
O O7 0.721688 0.787726 0.613999
O O8 0.166441 0.711381 0.145909
O O9 0.000000 0.647559 0.250000
O O10 0.096390 0.588290 0.114823
O O11 0.351252 0.299013 0.231671
O O12 0.148954 0.303002 0.347481
O O13 0.129948 0.313259 0.145536
O O14 0.979450 0.376265 0.035383
O O15 0.013801 0.500000 0.500000
#
# Coordination Sequence:
#
# PCOD9317589 Si02
#       7
#     8   8   8   8   8   8   8
#     4  11  17  31  56  79 113 147 185 239 304 356
#     4   9  18  34  53  81 110 148 198 237 291 362
#     4   9  18  34  55  81 114 153 191 243 302 365
#     4  11  18  31  53  81 119 148 186 237 302 365
#     4  11  20  33  50  87 120 144 191 242 293 354
#     4  11  20  34  56  80 114 159 203 239 287 354
#     4  10  20  31  52  85 122 148 177 241 315 360
#
# _framework density 18.89301
#
# number of rings (size 3 to 8) (size 9 to 14) (size 15 to 20)
#    0.000    1.714    4.286    3.429    0.000    0.000 
#    0.000    4.286    0.000    0.857    0.000    0.000 
#    8.571    0.000    0.000    0.000    0.000    0.000 
#
# Total GULP energy -155966.401222 kJ/mol
# GULP energy per Si atom -5570.228615 kJ/mol
# Density = 1.885001 g / cm^3
# Si number density = 18.893010 Si / 1000 Ang^3
#
#
#
# Elastic Constant Matrix: (Units=GPa)
#
#
# Indices 1 2 3 4 5 6 
#
# 1 75.6379 8.7310 20.2943 0.0000 0.0000 0.0000
# 2 8.7310 51.3647 21.8185 0.0000 0.0000 0.0000
# 3 20.2943 21.8185 69.4704 0.0000 0.0000 0.0000
# 4 0.0000 0.0000 0.0000 22.2490 0.0000 0.0000
# 5 0.0000 0.0000 0.0000 0.0000 -3.0873 0.0000
# 6 0.0000 0.0000 0.0000 0.0000 0.0000 3.2582
#
#
#
# Elastic Compliance Matrix: (Units=1/GPa)
#
#
# Indices 1 2 3 4 5 6 
#
# 1 0.014371 -0.000761 -0.003959 0.000000 0.000000 0.000000
# 2 -0.000761 0.022506 -0.006846 0.000000 0.000000 0.000000
# 3 -0.003959 -0.006846 0.017701 0.000000 0.000000 0.000000
# 4 0.000000 0.000000 0.000000 0.044946 0.000000 0.000000
# 5 0.000000 0.000000 0.000000 0.000000 -0.323907 0.000000
# 6 0.000000 0.000000 0.000000 0.000000 0.000000 0.306918
#
#
# Mechanical properties :
#
#
# Convention : Reuss Voigt Hill
#
# Bulk Modulus (GPa) = 31.80080 33.12897 32.46489
# Shear Modulus (GPa) = 43.04796 14.19260 28.62028
#
# Velocity S-wave (km/s) = 4.77856 2.74379 3.89634
# Velocity P-wave (km/s) = 6.87857 5.25461 6.12069
#
# Compressibility (1/GPa) = 0.03144575
#
# Stress axis : x y z
#
# Youngs Moduli (GPa) = 69.58454 44.43248 56.49282
#
# Poissons Ratio (x) = 0.03381 0.22366
# Poissons Ratio (y) = 0.05296 0.38676
# Poissons Ratio (z) = 0.27550 0.30419
#
# Static dielectric constant tensor:
#      x y z
#    x 1.733960 0.000000 0.000000 
#    y 0.000000 1.601830 0.000000 
#    z 0.000000 0.000000 1.726140 
# 
# From -- ./inp_files/23828.got.cif
#   From: 2010.05.17/outbox.cif.g08.bks.cpg/sg20_12_cif.got.tgz:23828.got - 2010.06.03 22:52:26.
