data_PCOD9317286
_publ_section_title
;
Structure prediction by ZEFSAII (Michael W. Deem and Ramdas Pophale) SiO2 
 PCOD9317286
Probable space group: C 2 2 21
;
_chemical_formula_sum "Si O2"
_cell_formula_units_Z 44
_cell_length_a 22.377352
_cell_length_b 9.260651
_cell_length_c 10.442921
_cell_angle_alpha 90.000000
_cell_angle_beta 90.000000
_cell_angle_gamma 90.000000
_cell_volume 2164.074480
_symmetry_space_group_name_H-M "C 2 2 21"
_symmetry_group_IT_number 20
_symmetry_cell_setting 'orthorhombic'
loop_
_space_group_symop_operation_xyz
x,y,z
-x,-y,1/2+z
x,-y,-z
-x,y,1/2-z
1/2+x,1/2+y,z
1/2-x,1/2-y,1/2+z
1/2+x,1/2-y,-z
1/2-x,1/2+y,1/2-z
loop_
_atom_site_type_symbol
_atom_site_label
_atom_site_fract_x
_atom_site_fract_y
_atom_site_fract_z
Si Si1 0.606100 0.104913 0.273225
Si Si2 0.242521 0.573472 0.362871
Si Si3 0.077694 0.500000 0.000000
Si Si4 0.602754 0.653063 0.550513
Si Si5 0.739364 0.397397 0.391312
Si Si6 0.473453 0.845634 0.125801
O O1 0.610562 0.061498 0.124618
O O2 0.556314 0.996712 0.329716
O O3 0.670896 0.077178 0.336215
O O4 0.588550 0.268551 0.313544
O O5 0.253890 0.500000 0.500000
O O6 0.267093 0.482874 0.242205
O O7 0.266604 0.738765 0.365579
O O8 0.031689 0.374919 0.041947
O O9 0.578533 0.500000 0.500000
O O10 0.674064 0.638923 0.552189
O O11 0.578158 0.764543 0.447404
O O12 0.767996 0.500000 0.500000
O O13 0.500000 0.767912 0.250000
#
# Coordination Sequence:
#
# PCOD9317286 Si02
#       6
#     8   8   4   8   8   8
#     4  10  20  36  62  87 123 162 216 267 312 380
#     4  11  22  38  61  92 126 167 219 263 326 382
#     4  10  20  34  62  96 116 160 224 266 304 378
#     4  10  20  38  61  87 128 164 203 255 340 381
#     4  10  22  39  64  91 124 171 213 267 321 391
#     4  10  19  36  59  90 120 164 215 262 311 381
#
# _framework density 20.332017
#
# number of rings (size 3 to 8) (size 9 to 14) (size 15 to 20)
#    0.000    1.818    1.818    3.273    1.273    1.455 
#    3.273    0.000    0.000    0.000    0.000    0.000 
#    0.000    0.000    0.000    0.000    0.000    0.000 
#
# Total GULP energy -122549.494956 kJ/mol
# GULP energy per Si atom -5570.431589 kJ/mol
# Density = 2.028574 g / cm^3
# Si number density = 20.332017 Si / 1000 Ang^3
#
#
#
# Elastic Constant Matrix: (Units=GPa)
#
#
# Indices 1 2 3 4 5 6 
#
# 1 48.2763 5.6702 15.8694 0.0000 0.0000 0.0000
# 2 5.6702 119.5480 50.2146 0.0000 0.0000 0.0000
# 3 15.8694 50.2146 121.3380 0.0000 0.0000 0.0000
# 4 0.0000 0.0000 0.0000 38.8735 0.0000 0.0000
# 5 0.0000 0.0000 0.0000 0.0000 36.1160 0.0000
# 6 0.0000 0.0000 0.0000 0.0000 0.0000 30.1317
#
#
#
# Elastic Compliance Matrix: (Units=1/GPa)
#
#
# Indices 1 2 3 4 5 6 
#
# 1 0.021648 0.000197 -0.002913 0.000000 0.000000 0.000000
# 2 0.000197 0.010127 -0.004217 0.000000 0.000000 0.000000
# 3 -0.002913 -0.004217 0.010367 0.000000 0.000000 0.000000
# 4 0.000000 0.000000 0.000000 0.025724 0.000000 0.000000
# 5 0.000000 0.000000 0.000000 0.000000 0.027689 0.000000
# 6 0.000000 0.000000 0.000000 0.000000 0.000000 0.033188
#
#
# Mechanical properties :
#
#
# Convention : Reuss Voigt Hill
#
# Bulk Modulus (GPa) = 35.36413 48.07455 41.71934
# Shear Modulus (GPa) = 32.88739 35.51812 34.20276
#
# Velocity S-wave (km/s) = 4.02620 4.18413 4.10593
# Velocity P-wave (km/s) = 6.24858 6.85848 6.56062
#
# Compressibility (1/GPa) = 0.02827724
#
# Stress axis : x y z
#
# Youngs Moduli (GPa) = 46.19266 98.74979 96.45666
#
# Poissons Ratio (x) = -0.01942 0.28095
# Poissons Ratio (y) = -0.00908 0.40671
# Poissons Ratio (z) = 0.13455 0.41638
#
# Static dielectric constant tensor:
#      x y z
#    x 1.724930 0.000000 0.000000 
#    y 0.000000 1.789520 0.000000 
#    z 0.000000 0.000000 1.775850 
# 
# From -- ./inp_files/11364.got.cif
#   From: 2010.05.17/outbox.cif.g08.bks.cpg/sg20_6_cif.got.tgz:11364.got - 2010.06.03 22:52:26.
