data_PCOD9317219
_publ_section_title
;
Structure prediction by ZEFSAII (Michael W. Deem and Ramdas Pophale) SiO2 
 PCOD9317219
Probable space group: C 2 2 21
;
_chemical_formula_sum "Si O2"
_cell_formula_units_Z 64
_cell_length_a 12.583366
_cell_length_b 8.663462
_cell_length_c 29.866435
_cell_angle_alpha 90.000000
_cell_angle_beta 90.000000
_cell_angle_gamma 90.000000
_cell_volume 3255.904738
_symmetry_space_group_name_H-M "C 2 2 21"
_symmetry_group_IT_number 20
_symmetry_cell_setting 'orthorhombic'
loop_
_space_group_symop_operation_xyz
x,y,z
-x,-y,1/2+z
x,-y,-z
-x,y,1/2-z
1/2+x,1/2+y,z
1/2-x,1/2-y,1/2+z
1/2+x,1/2-y,-z
1/2-x,1/2+y,1/2-z
loop_
_atom_site_type_symbol
_atom_site_label
_atom_site_fract_x
_atom_site_fract_y
_atom_site_fract_z
Si Si1 0.182098 0.195594 0.860301
Si Si2 0.866783 0.080150 0.045739
Si Si3 0.255984 0.631969 0.798336
Si Si4 0.889611 0.090696 0.143085
Si Si5 0.453704 0.194712 0.546018
Si Si6 0.118702 0.649442 0.231221
Si Si7 0.130083 0.157955 0.133510
Si Si8 0.880559 0.645639 0.449014
O O1 0.299372 0.275196 0.860180
O O2 0.124019 0.264035 0.816669
O O3 0.120862 0.252362 0.904765
O O4 0.180936 0.011016 0.860983
O O5 0.891750 0.006602 0.094230
O O6 0.741330 0.097035 0.043432
O O7 0.927181 0.242699 0.049320
O O8 0.903582 0.000000 0.000000
O O9 0.347842 0.524851 0.819382
O O10 0.171623 0.518080 0.775099
O O11 0.307128 0.752389 0.764414
O O12 0.197022 0.719457 0.838585
O O13 0.008267 0.149972 0.151305
O O14 0.383258 0.287472 0.582064
O O15 0.417357 0.221482 0.495152
O O16 0.444390 0.013868 0.556614
O O17 0.000000 0.640848 0.250000
#
# Coordination Sequence:
#
# PCOD9317219 Si02
#       8
#     8   8   8   8   8   8   8   8
#     4  10  22  41  64  87 123 161 205 249 308 366
#     4  10  19  35  62  86 121 162 202 243 301 355
#     4  11  24  41  66  91 124 160 206 250 313 367
#     4   9  22  41  60  88 127 162 197 254 302 361
#     4  10  21  36  62  89 120 162 205 244 304 359
#     4  11  24  43  64  93 123 158 204 255 308 366
#     4  11  22  39  64  92 120 162 203 250 306 366
#     4  10  21  42  59  84 127 165 197 260 300 354
#
# _framework density 19.656593999999998
#
# number of rings (size 3 to 8) (size 9 to 14) (size 15 to 20)
#    0.000    1.750    1.250    3.750    3.500    3.000 
#    0.000   14.375    0.000    0.000    0.000    0.000 
#    0.000    0.000    0.000    0.000    0.000    0.000 
#
# Total GULP energy -178653.572377 kJ/mol
# GULP energy per Si atom -5582.924137 kJ/mol
# Density = 1.961185 g / cm^3
# Si number density = 19.656594 Si / 1000 Ang^3
#
#
#
# Elastic Constant Matrix: (Units=GPa)
#
#
# Indices 1 2 3 4 5 6 
#
# 1 33.9702 28.0454 17.9467 0.0000 0.0000 0.0000
# 2 28.0454 79.6259 9.5505 0.0000 0.0000 0.0000
# 3 17.9467 9.5505 60.6981 0.0000 0.0000 0.0000
# 4 0.0000 0.0000 0.0000 35.8328 0.0000 0.0000
# 5 0.0000 0.0000 0.0000 0.0000 31.2703 0.0000
# 6 0.0000 0.0000 0.0000 0.0000 0.0000 16.2444
#
#
#
# Elastic Compliance Matrix: (Units=1/GPa)
#
#
# Indices 1 2 3 4 5 6 
#
# 1 0.048730 -0.015732 -0.011933 0.000000 0.000000 0.000000
# 2 -0.015732 0.017879 0.001838 0.000000 0.000000 0.000000
# 3 -0.011933 0.001838 0.019714 0.000000 0.000000 0.000000
# 4 0.000000 0.000000 0.000000 0.027907 0.000000 0.000000
# 5 0.000000 0.000000 0.000000 0.000000 0.031979 0.000000
# 6 0.000000 0.000000 0.000000 0.000000 0.000000 0.061560
#
#
# Mechanical properties :
#
#
# Convention : Reuss Voigt Hill
#
# Bulk Modulus (GPa) = 28.84324 31.70880 30.27602
# Shear Modulus (GPa) = 18.45160 24.58629 21.51894
#
# Velocity S-wave (km/s) = 3.06714 3.54049 3.31228
# Velocity P-wave (km/s) = 5.22002 5.73409 5.48308
#
# Compressibility (1/GPa) = 0.03467017
#
# Stress axis : x y z
#
# Youngs Moduli (GPa) = 20.52123 55.93043 50.72570
#
# Poissons Ratio (x) = 0.87991 0.60529
# Poissons Ratio (y) = 0.32284 -0.09325
# Poissons Ratio (z) = 0.24487 -0.10282
#
# Static dielectric constant tensor:
#      x y z
#    x 1.665280 0.000000 0.000000 
#    y 0.000000 1.672270 0.000000 
#    z 0.000000 0.000000 1.717870 
# 
# From -- ./inp_files/31195.got.cif
#   From: 2010.05.17/outbox.cif.g08.bks.cpg/sg20_16_cif.got.tgz:31195.got - 2010.06.03 22:52:26.
