data_PCOD9317867
_publ_section_title
;
Structure prediction by ZEFSAII (Michael W. Deem and Ramdas Pophale) SiO2 
 PCOD9317867
Probable space group: C 2 2 21
;
_chemical_formula_sum "Si O2"
_cell_formula_units_Z 56
_cell_length_a 13.009060
_cell_length_b 12.873613
_cell_length_c 18.685008
_cell_angle_alpha 90.000000
_cell_angle_beta 90.000000
_cell_angle_gamma 90.000000
_cell_volume 3129.245629
_symmetry_space_group_name_H-M "C 2 2 21"
_symmetry_group_IT_number 20
_symmetry_cell_setting 'orthorhombic'
loop_
_space_group_symop_operation_xyz
x,y,z
-x,-y,1/2+z
x,-y,-z
-x,y,1/2-z
1/2+x,1/2+y,z
1/2-x,1/2-y,1/2+z
1/2+x,1/2-y,-z
1/2-x,1/2+y,1/2-z
loop_
_atom_site_type_symbol
_atom_site_label
_atom_site_fract_x
_atom_site_fract_y
_atom_site_fract_z
Si Si1 0.771200 0.021110 0.681728
Si Si2 0.287906 0.235515 0.874996
Si Si3 0.049953 0.397787 0.454887
Si Si4 0.538144 0.539521 0.919151
Si Si5 0.040429 0.541946 0.329646
Si Si6 0.405805 0.576521 0.196662
Si Si7 0.435645 0.784558 0.577374
O O1 0.745617 0.143648 0.679096
O O2 0.853393 0.006596 0.617576
O O3 0.664466 0.961065 0.669851
O O4 0.824330 0.985605 0.754813
O O5 0.355542 0.176410 0.934836
O O6 0.355175 0.320997 0.835496
O O7 0.185844 0.286233 0.907807
O O8 0.082945 0.500000 0.500000
O O9 0.007722 0.446520 0.381222
O O10 0.968482 0.335198 0.502087
O O11 0.451212 0.491464 0.868118
O O12 0.533087 0.664242 0.918946
O O13 0.531354 0.500000 0.000000
O O14 0.000000 0.527868 0.250000
O O15 0.994367 0.646406 0.363575
O O16 0.500000 0.601768 0.250000
#
# Coordination Sequence:
#
# PCOD9317867 Si02
#       7
#     8   8   8   8   8   8   8
#     4   9  21  37  58  80 110 152 185 222 276 344
#     4  10  20  36  59  84 113 147 188 233 280 330
#     4   9  20  39  57  80 111 149 188 227 278 338
#     4  10  21  38  58  82 111 147 186 229 278 329
#     4  10  20  36  59  84 111 144 187 231 277 330
#     4  10  21  38  57  84 116 144 185 236 281 327
#     4  10  21  36  58  82 110 147 187 232 276 330
#
# _framework density 17.895686999999999
#
# number of rings (size 3 to 8) (size 9 to 14) (size 15 to 20)
#    0.000    2.286    0.000    1.714    0.000   14.857 
#    0.000    9.286    0.000    1.714    0.000    0.000 
#    0.000    0.000    0.000    0.000    0.000    0.000 
#
# Total GULP energy -156206.647812 kJ/mol
# GULP energy per Si atom -5578.808850 kJ/mol
# Density = 1.785496 g / cm^3
# Si number density = 17.895687 Si / 1000 Ang^3
#
#
#
# Elastic Constant Matrix: (Units=GPa)
#
#
# Indices 1 2 3 4 5 6 
#
# 1 99.2927 79.1241 62.8341 0.0000 0.0000 0.0000
# 2 79.1241 103.5825 73.4236 0.0000 0.0000 0.0000
# 3 62.8341 73.4236 148.6645 0.0000 0.0000 0.0000
# 4 0.0000 0.0000 0.0000 18.8344 0.0000 0.0000
# 5 0.0000 0.0000 0.0000 0.0000 16.2325 0.0000
# 6 0.0000 0.0000 0.0000 0.0000 0.0000 37.4098
#
#
#
# Elastic Compliance Matrix: (Units=1/GPa)
#
#
# Indices 1 2 3 4 5 6 
#
# 1 0.026055 -0.018613 -0.001820 0.000000 0.000000 0.000000
# 2 -0.018613 0.028151 -0.006037 0.000000 0.000000 0.000000
# 3 -0.001820 -0.006037 0.010477 0.000000 0.000000 0.000000
# 4 0.000000 0.000000 0.000000 0.053094 0.000000 0.000000
# 5 0.000000 0.000000 0.000000 0.000000 0.061605 0.000000
# 6 0.000000 0.000000 0.000000 0.000000 0.000000 0.026731
#
#
# Mechanical properties :
#
#
# Convention : Reuss Voigt Hill
#
# Bulk Modulus (GPa) = 85.14403 86.92259 86.03331
# Shear Modulus (GPa) = 19.01389 23.57255 21.29322
#
# Velocity S-wave (km/s) = 3.26311 3.63329 3.45317
# Velocity P-wave (km/s) = 7.86629 8.14115 8.00490
#
# Compressibility (1/GPa) = 0.01174480
#
# Stress axis : x y z
#
# Youngs Moduli (GPa) = 38.38061 35.52277 95.44689
#
# Poissons Ratio (x) = 0.66118 0.17368
# Poissons Ratio (y) = 0.71437 0.57617
# Poissons Ratio (z) = 0.06984 0.21444
#
# Static dielectric constant tensor:
#      x y z
#    x 1.608870 0.000000 0.000000 
#    y 0.000000 1.593860 0.000000 
#    z 0.000000 0.000000 1.607710 
# 
# From -- ./inp_files/27190.got.cif
#   From: 2010.05.17/outbox.cif.g08.bks.cpg/sg20_14_cif.got.tgz:27190.got - 2010.06.03 22:52:26.
