data_PCOD9317961
_publ_section_title
;
Structure prediction by ZEFSAII (Michael W. Deem and Ramdas Pophale) SiO2 
 PCOD9317961
Probable space group: C 2 2 21
;
_chemical_formula_sum "Si O2"
_cell_formula_units_Z 48
_cell_length_a 14.866148
_cell_length_b 8.756065
_cell_length_c 18.338917
_cell_angle_alpha 90.000000
_cell_angle_beta 90.000000
_cell_angle_gamma 90.000000
_cell_volume 2387.157720
_symmetry_space_group_name_H-M "C 2 2 21"
_symmetry_group_IT_number 20
_symmetry_cell_setting 'orthorhombic'
loop_
_space_group_symop_operation_xyz
x,y,z
-x,-y,1/2+z
x,-y,-z
-x,y,1/2-z
1/2+x,1/2+y,z
1/2-x,1/2-y,1/2+z
1/2+x,1/2-y,-z
1/2-x,1/2+y,1/2-z
loop_
_atom_site_type_symbol
_atom_site_label
_atom_site_fract_x
_atom_site_fract_y
_atom_site_fract_z
Si Si1 0.230359 0.040516 0.643135
Si Si2 0.417840 0.140677 0.352226
Si Si3 0.888458 0.000000 0.000000
Si Si4 0.001067 0.320138 0.006607
Si Si5 0.623834 0.257442 0.854119
Si Si6 0.401206 0.542816 0.722517
Si Si7 0.000000 0.581853 0.750000
O O1 0.272886 0.209328 0.639922
O O2 0.171147 0.015903 0.714536
O O3 0.322499 0.944803 0.645686
O O4 0.171999 0.008326 0.572338
O O5 0.441870 0.191846 0.432834
O O6 0.404171 0.282775 0.299990
O O7 0.498021 0.035837 0.318131
O O8 0.940438 0.835201 0.993967
O O9 0.064574 0.304356 0.078227
O O10 0.965426 0.500000 0.000000
O O11 0.617134 0.437770 0.847010
O O12 0.581515 0.189472 0.777760
O O13 0.500000 0.502310 0.750000
#
# Coordination Sequence:
#
# PCOD9317961 Si02
#       7
#     8   8   4   8   8   8   4
#     4  11  24  44  64  96 143 174 217 288 339 396
#     4  11  23  42  69  94 138 175 226 278 346 396
#     4  12  28  44  68 104 134 178 238 272 332 420
#     4  12  23  46  71  96 128 186 222 281 334 402
#     4  11  23  42  69  94 138 175 226 278 346 396
#     4  12  23  40  67 102 128 173 229 282 329 408
#     4  10  20  36  68  96 126 176 212 288 334 400
#
# _framework density 20.107595
#
# number of rings (size 3 to 8) (size 9 to 14) (size 15 to 20)
#    0.000    0.667    5.000    5.000    0.000    0.000 
#    3.000    0.000    0.000    0.000    0.000    0.000 
#    0.000    0.000    0.000    0.000    0.000    0.000 
#
# Total GULP energy -133665.895991 kJ/mol
# GULP energy per Si atom -5569.412333 kJ/mol
# Density = 2.006183 g / cm^3
# Si number density = 20.107595 Si / 1000 Ang^3
#
#
#
# Elastic Constant Matrix: (Units=GPa)
#
#
# Indices 1 2 3 4 5 6 
#
# 1 88.1023 32.2005 40.2660 0.0000 0.0000 0.0000
# 2 32.2005 83.4670 15.8260 0.0000 0.0000 0.0000
# 3 40.2660 15.8260 113.8027 0.0000 0.0000 0.0000
# 4 0.0000 0.0000 0.0000 28.6874 0.0000 0.0000
# 5 0.0000 0.0000 0.0000 0.0000 45.4205 0.0000
# 6 0.0000 0.0000 0.0000 0.0000 0.0000 19.4346
#
#
#
# Elastic Compliance Matrix: (Units=1/GPa)
#
#
# Indices 1 2 3 4 5 6 
#
# 1 0.015350 -0.005024 -0.004732 0.000000 0.000000 0.000000
# 2 -0.005024 0.013950 -0.000162 0.000000 0.000000 0.000000
# 3 -0.004732 -0.000162 0.010484 0.000000 0.000000 0.000000
# 4 0.000000 0.000000 0.000000 0.034858 0.000000 0.000000
# 5 0.000000 0.000000 0.000000 0.000000 0.022017 0.000000
# 6 0.000000 0.000000 0.000000 0.000000 0.000000 0.051455
#
#
# Mechanical properties :
#
#
# Convention : Reuss Voigt Hill
#
# Bulk Modulus (GPa) = 50.13594 51.32853 50.73224
# Shear Modulus (GPa) = 28.63695 31.84714 30.24204
#
# Velocity S-wave (km/s) = 3.77793 3.98406 3.88237
# Velocity P-wave (km/s) = 6.63463 6.83711 6.73663
#
# Compressibility (1/GPa) = 0.01994577
#
# Stress axis : x y z
#
# Youngs Moduli (GPa) = 65.14801 71.68517 95.38249
#
# Poissons Ratio (x) = 0.36018 0.45138
# Poissons Ratio (y) = 0.32733 0.01547
# Poissons Ratio (z) = 0.30830 0.01163
#
# Static dielectric constant tensor:
#      x y z
#    x 1.672380 0.000000 0.000000 
#    y 0.000000 1.836600 0.000000 
#    z 0.000000 0.000000 1.689520 
# 
# From -- ./inp_files/24845.got.cif
#   From: 2010.05.17/outbox.cif.g08.bks.cpg/sg20_13_cif.got.tgz:24845.got - 2010.06.03 22:52:26.
