data_PCOD9317960
_publ_section_title
;
Structure prediction by ZEFSAII (Michael W. Deem and Ramdas Pophale) SiO2 
 PCOD9317960
Probable space group: C 2 2 21
;
_chemical_formula_sum "Si O2"
_cell_formula_units_Z 56
_cell_length_a 12.288016
_cell_length_b 11.774045
_cell_length_c 18.259609
_cell_angle_alpha 90.000000
_cell_angle_beta 90.000000
_cell_angle_gamma 90.000000
_cell_volume 2641.793900
_symmetry_space_group_name_H-M "C 2 2 21"
_symmetry_group_IT_number 20
_symmetry_cell_setting 'orthorhombic'
loop_
_space_group_symop_operation_xyz
x,y,z
-x,-y,1/2+z
x,-y,-z
-x,y,1/2-z
1/2+x,1/2+y,z
1/2-x,1/2-y,1/2+z
1/2+x,1/2-y,-z
1/2-x,1/2+y,1/2-z
loop_
_atom_site_type_symbol
_atom_site_label
_atom_site_fract_x
_atom_site_fract_y
_atom_site_fract_z
Si Si1 0.230403 0.864790 0.490118
Si Si2 0.944369 0.087682 0.173491
Si Si3 0.526559 0.648621 0.605278
Si Si4 0.235420 0.310946 0.760005
Si Si5 0.857823 0.799313 0.606342
Si Si6 0.727419 0.319470 0.104024
Si Si7 0.000000 0.295146 0.750000
Si Si8 0.727473 0.500000 0.000000
O O1 0.116839 0.821376 0.454308
O O2 0.325896 0.813050 0.438656
O O3 0.241692 0.798162 0.565944
O O4 0.234683 0.000000 0.500000
O O5 0.824127 0.114647 0.198880
O O6 0.000000 0.053627 0.250000
O O7 0.019759 0.185908 0.137686
O O8 0.949429 0.982277 0.120366
O O9 0.400167 0.660538 0.586321
O O10 0.535205 0.718805 0.680610
O O11 0.278743 0.301206 0.677443
O O12 0.236896 0.194015 0.808493
O O13 0.112784 0.357621 0.767188
O O14 0.832091 0.908088 0.553867
O O15 0.787012 0.419989 0.059973
#
# Coordination Sequence:
#
# PCOD9317960 Si02
#       8
#     8   8   8   8   8   8   4   4
#     4  11  24  39  63  95 135 179 216 279 347 412
#     4  10  20  36  68 102 123 168 226 283 325 392
#     4  11  20  38  68  94 126 171 233 284 326 401
#     4  10  21  38  63  98 136 169 223 279 346 404
#     4  10  21  41  66 100 134 172 223 291 335 399
#     4  10  23  38  61  96 129 172 229 279 341 401
#     4  10  20  38  62  98 130 178 212 286 346 410
#     4  10  20  38  64  96 132 168 230 286 342 388
#
# _framework density 21.197716
#
# number of rings (size 3 to 8) (size 9 to 14) (size 15 to 20)
#    0.000    1.714    3.571    0.857    1.000    2.286 
#    2.571    0.000   14.143    3.429    1.857    0.000 
#    0.000    0.000    0.000    0.000    0.000    0.000 
#
# Total GULP energy -156038.020732 kJ/mol
# GULP energy per Si atom -5572.786455 kJ/mol
# Density = 2.114947 g / cm^3
# Si number density = 21.197716 Si / 1000 Ang^3
#
#
#
# Elastic Constant Matrix: (Units=GPa)
#
#
# Indices 1 2 3 4 5 6 
#
# 1 127.7707 27.3955 30.3010 0.0000 0.0000 0.0000
# 2 27.3955 76.8879 33.4076 0.0000 0.0000 0.0000
# 3 30.3010 33.4076 129.5914 0.0000 0.0000 0.0000
# 4 0.0000 0.0000 0.0000 34.9935 0.0000 0.0000
# 5 0.0000 0.0000 0.0000 0.0000 28.5191 0.0000
# 6 0.0000 0.0000 0.0000 0.0000 0.0000 5.9837
#
#
#
# Elastic Compliance Matrix: (Units=1/GPa)
#
#
# Indices 1 2 3 4 5 6 
#
# 1 0.008690 -0.002493 -0.001389 0.000000 0.000000 0.000000
# 2 -0.002493 0.015362 -0.003377 0.000000 0.000000 0.000000
# 3 -0.001389 -0.003377 0.008912 0.000000 0.000000 0.000000
# 4 0.000000 0.000000 0.000000 0.028577 0.000000 0.000000
# 5 0.000000 0.000000 0.000000 0.000000 0.035064 0.000000
# 6 0.000000 0.000000 0.000000 0.000000 0.000000 0.167121
#
#
# Mechanical properties :
#
#
# Convention : Reuss Voigt Hill
#
# Bulk Modulus (GPa) = 54.21433 57.38425 55.79929
# Shear Modulus (GPa) = 17.58129 30.10898 23.84513
#
# Velocity S-wave (km/s) = 2.88305 3.77289 3.35758
# Velocity P-wave (km/s) = 6.05918 6.79039 6.43518
#
# Compressibility (1/GPa) = 0.01844531
#
# Stress axis : x y z
#
# Youngs Moduli (GPa) = 115.06824 65.09771 112.20769
#
# Poissons Ratio (x) = 0.16227 0.15590
# Poissons Ratio (y) = 0.28684 0.37895
# Poissons Ratio (z) = 0.15988 0.21985
#
# Static dielectric constant tensor:
#      x y z
#    x 1.811000 0.000000 0.000000 
#    y 0.000000 1.778750 0.000000 
#    z 0.000000 0.000000 1.854280 
# 
# From -- ./inp_files/27222.got.cif
#   From: 2010.05.17/outbox.cif.g08.bks.cpg/sg20_14_cif.got.tgz:27222.got - 2010.06.03 22:52:26.
