data_PCOD9317777
_publ_section_title
;
Structure prediction by ZEFSAII (Michael W. Deem and Ramdas Pophale) SiO2 
 PCOD9317777
Probable space group: C 2 2 21
;
_chemical_formula_sum "Si O2"
_cell_formula_units_Z 40
_cell_length_a 19.216867
_cell_length_b 6.953646
_cell_length_c 12.289417
_cell_angle_alpha 90.000000
_cell_angle_beta 90.000000
_cell_angle_gamma 90.000000
_cell_volume 1642.201494
_symmetry_space_group_name_H-M "C 2 2 21"
_symmetry_group_IT_number 20
_symmetry_cell_setting 'orthorhombic'
loop_
_space_group_symop_operation_xyz
x,y,z
-x,-y,1/2+z
x,-y,-z
-x,y,1/2-z
1/2+x,1/2+y,z
1/2-x,1/2-y,1/2+z
1/2+x,1/2-y,-z
1/2-x,1/2+y,1/2-z
loop_
_atom_site_type_symbol
_atom_site_label
_atom_site_fract_x
_atom_site_fract_y
_atom_site_fract_z
Si Si1 0.485753 0.779218 0.534907
Si Si2 0.314085 0.269772 0.967708
Si Si3 0.435055 0.663198 0.173004
Si Si4 0.389739 0.233143 0.187187
Si Si5 0.338920 0.817053 0.580445
O O1 0.525885 0.663034 0.442817
O O2 0.532594 0.801921 0.642124
O O3 0.408200 0.703353 0.547999
O O4 0.478833 0.000000 0.500000
O O5 0.366381 0.223662 0.867713
O O6 0.235948 0.220755 0.933202
O O7 0.317243 0.500000 0.000000
O O8 0.341662 0.188930 0.082150
O O9 0.500000 0.722580 0.250000
O O10 0.400446 0.462762 0.211222
O O11 0.357964 0.136067 0.294066
O O12 0.334777 0.000000 0.500000
#
# Coordination Sequence:
#
# PCOD9317777 Si02
#       5
#     8   8   8   8   8
#     4  10  21  35  56  86 116 153 204 250 304 373
#     4   8  18  36  55  84 122 159 204 257 311 364
#     4  10  20  36  61  87 118 162 204 250 304 363
#     4  10  20  38  60  83 120 161 202 261 312 361
#     4  10  20  35  59  88 120 159 206 254 310 377
#
# _framework density 24.357545999999999
#
# number of rings (size 3 to 8) (size 9 to 14) (size 15 to 20)
#    0.000    2.400    0.000    3.600    0.000    4.800 
#    0.000   10.000    0.000    9.600    0.000    0.000 
#    0.000    0.000    0.000    0.000    0.000    0.000 
#
# Total GULP energy -111412.202671 kJ/mol
# GULP energy per Si atom -5570.610134 kJ/mol
# Density = 2.430211 g / cm^3
# Si number density = 24.357546 Si / 1000 Ang^3
#
#
#
# Elastic Constant Matrix: (Units=GPa)
#
#
# Indices 1 2 3 4 5 6 
#
# 1 246.4201 13.3566 90.0532 0.0000 0.0000 0.0000
# 2 13.3566 62.3025 48.9295 0.0000 0.0000 0.0000
# 3 90.0532 48.9295 176.6656 0.0000 0.0000 0.0000
# 4 0.0000 0.0000 0.0000 28.5731 0.0000 0.0000
# 5 0.0000 0.0000 0.0000 0.0000 32.1137 0.0000
# 6 0.0000 0.0000 0.0000 0.0000 0.0000 16.7671
#
#
#
# Elastic Compliance Matrix: (Units=1/GPa)
#
#
# Indices 1 2 3 4 5 6 
#
# 1 0.005057 0.001202 -0.002910 0.000000 0.000000 0.000000
# 2 0.001202 0.020798 -0.006373 0.000000 0.000000 0.000000
# 3 -0.002910 -0.006373 0.008909 0.000000 0.000000 0.000000
# 4 0.000000 0.000000 0.000000 0.034998 0.000000 0.000000
# 5 0.000000 0.000000 0.000000 0.000000 0.031139 0.000000
# 6 0.000000 0.000000 0.000000 0.000000 0.000000 0.059641
#
#
# Mechanical properties :
#
#
# Convention : Reuss Voigt Hill
#
# Bulk Modulus (GPa) = 53.76191 87.78520 70.77355
# Shear Modulus (GPa) = 27.33667 37.69403 32.51535
#
# Velocity S-wave (km/s) = 3.35372 3.93813 3.65762
# Velocity P-wave (km/s) = 6.09233 7.53638 6.85250
#
# Compressibility (1/GPa) = 0.01860053
#
# Stress axis : x y z
#
# Youngs Moduli (GPa) = 197.76365 48.08159 112.24724
#
# Poissons Ratio (x) = -0.05777 0.32667
# Poissons Ratio (y) = -0.23763 0.71532
# Poissons Ratio (z) = 0.57555 0.30641
#
# Static dielectric constant tensor:
#      x y z
#    x 1.942830 0.000000 0.000000 
#    y 0.000000 2.117550 0.000000 
#    z 0.000000 0.000000 1.942650 
# 
# From -- ./inp_files/16176.got.cif
#   From: 2010.05.17/outbox.cif.g08.bks.cpg/sg20_9_cif.got.tgz:16176.got - 2010.06.03 22:52:26.
