data_PCOD9317399
_publ_section_title
;
Structure prediction by ZEFSAII (Michael W. Deem and Ramdas Pophale) SiO2 
 PCOD9317399
Probable space group: C 2 2 21
;
_chemical_formula_sum "Si O2"
_cell_formula_units_Z 64
_cell_length_a 18.080832
_cell_length_b 6.247248
_cell_length_c 28.376707
_cell_angle_alpha 90.000000
_cell_angle_beta 90.000000
_cell_angle_gamma 90.000000
_cell_volume 3205.303469
_symmetry_space_group_name_H-M "C 2 2 21"
_symmetry_group_IT_number 20
_symmetry_cell_setting 'orthorhombic'
loop_
_space_group_symop_operation_xyz
x,y,z
-x,-y,1/2+z
x,-y,-z
-x,y,1/2-z
1/2+x,1/2+y,z
1/2-x,1/2-y,1/2+z
1/2+x,1/2-y,-z
1/2-x,1/2+y,1/2-z
loop_
_atom_site_type_symbol
_atom_site_label
_atom_site_fract_x
_atom_site_fract_y
_atom_site_fract_z
Si Si1 0.574216 0.584560 0.721706
Si Si2 0.411551 0.304292 0.868323
Si Si3 0.332326 0.225869 0.376823
Si Si4 0.344648 0.581462 0.306042
Si Si5 0.673026 0.914573 0.676192
Si Si6 0.295718 0.414253 0.095379
Si Si7 0.427524 0.845849 0.388631
Si Si8 0.314069 0.607499 0.449508
O O1 0.500000 0.624718 0.750000
O O2 0.562102 0.474427 0.671179
O O3 0.621339 0.424114 0.754508
O O4 0.618329 0.802329 0.712651
O O5 0.364130 0.422801 0.909141
O O6 0.485436 0.189231 0.885862
O O7 0.356912 0.142034 0.840949
O O8 0.352456 0.344953 0.328866
O O9 0.305794 0.414759 0.411710
O O10 0.267123 0.051553 0.377252
O O11 0.403787 0.092594 0.392571
O O12 0.256408 0.605799 0.304908
O O13 0.387089 0.743164 0.341795
O O14 0.674766 0.769491 0.629474
O O15 0.250994 0.285835 0.055146
O O16 0.388769 0.724241 0.432224
O O17 0.317282 0.500000 0.500000
#
# Coordination Sequence:
#
# PCOD9317399 Si02
#       8
#     8   8   8   8   8   8   8   8
#     4  11  26  38  54  86 125 163 211 267 308 358
#     4  11  23  40  59  88 126 170 208 255 315 377
#     4  10  19  37  65  89 118 160 202 252 308 374
#     4  11  21  40  55  87 118 161 213 257 306 364
#     4  11  23  37  60  85 117 162 212 250 308 370
#     4  10  19  39  62  91 120 157 202 251 312 373
#     4  10  22  38  64  85 122 164 200 252 315 373
#     4  10  21  39  68 100 120 152 208 261 315 387
#
# _framework density 19.966908
#
# number of rings (size 3 to 8) (size 9 to 14) (size 15 to 20)
#    0.000    1.500    6.250    0.000    3.500    4.500 
#    0.000    0.000    5.500    0.000    0.000    0.000 
#    0.000    0.000    0.000    0.000    0.000    0.000 
#
# Total GULP energy -178451.292249 kJ/mol
# GULP energy per Si atom -5576.602883 kJ/mol
# Density = 1.992146 g / cm^3
# Si number density = 19.966908 Si / 1000 Ang^3
#
#
#
# Elastic Constant Matrix: (Units=GPa)
#
#
# Indices 1 2 3 4 5 6 
#
# 1 117.4072 11.0906 -1.7052 0.0000 0.0000 0.0000
# 2 11.0906 53.2160 -5.4757 0.0000 0.0000 0.0000
# 3 -1.7052 -5.4757 19.0292 0.0000 0.0000 0.0000
# 4 0.0000 0.0000 0.0000 7.1729 0.0000 0.0000
# 5 0.0000 0.0000 0.0000 0.0000 12.7607 0.0000
# 6 0.0000 0.0000 0.0000 0.0000 0.0000 29.5675
#
#
#
# Elastic Compliance Matrix: (Units=1/GPa)
#
#
# Indices 1 2 3 4 5 6 
#
# 1 0.008690 -0.001784 0.000265 0.000000 0.000000 0.000000
# 2 -0.001784 0.019731 0.005518 0.000000 0.000000 0.000000
# 3 0.000265 0.005518 0.054162 0.000000 0.000000 0.000000
# 4 0.000000 0.000000 0.000000 0.139413 0.000000 0.000000
# 5 0.000000 0.000000 0.000000 0.000000 0.078366 0.000000
# 6 0.000000 0.000000 0.000000 0.000000 0.000000 0.033821
#
#
# Mechanical properties :
#
#
# Convention : Reuss Voigt Hill
#
# Bulk Modulus (GPa) = 11.03976 21.94132 16.49054
# Shear Modulus (GPa) = 14.03006 22.28305 18.15656
#
# Velocity S-wave (km/s) = 2.65366 3.34428 3.01879
# Velocity P-wave (km/s) = 3.86397 5.09166 4.51969
#
# Compressibility (1/GPa) = 0.09058167
#
# Stress axis : x y z
#
# Youngs Moduli (GPa) = 115.07858 50.68209 18.46305
#
# Poissons Ratio (x) = 0.09040 -0.00490
# Poissons Ratio (y) = 0.20526 -0.10187
# Poissons Ratio (z) = -0.03054 -0.27965
#
# Static dielectric constant tensor:
#      x y z
#    x 1.732270 0.000000 0.000000 
#    y 0.000000 1.739470 0.000000 
#    z 0.000000 0.000000 1.699560 
# 
# From -- ./inp_files/31374.got.cif
#   From: 2010.05.17/outbox.cif.g08.bks.cpg/sg20_16_cif.got.tgz:31374.got - 2010.06.03 22:52:26.
