data_PCOD9317652
_publ_section_title
;
Structure prediction by ZEFSAII (Michael W. Deem and Ramdas Pophale) SiO2 
 PCOD9317652
Probable space group: C 2 2 21
;
_chemical_formula_sum "Si O2"
_cell_formula_units_Z 40
_cell_length_a 17.258873
_cell_length_b 6.969462
_cell_length_c 11.511391
_cell_angle_alpha 90.000000
_cell_angle_beta 90.000000
_cell_angle_gamma 90.000000
_cell_volume 1384.648352
_symmetry_space_group_name_H-M "C 2 2 21"
_symmetry_group_IT_number 20
_symmetry_cell_setting 'orthorhombic'
loop_
_space_group_symop_operation_xyz
x,y,z
-x,-y,1/2+z
x,-y,-z
-x,y,1/2-z
1/2+x,1/2+y,z
1/2-x,1/2-y,1/2+z
1/2+x,1/2-y,-z
1/2-x,1/2+y,1/2-z
loop_
_atom_site_type_symbol
_atom_site_label
_atom_site_fract_x
_atom_site_fract_y
_atom_site_fract_z
Si Si1 0.862520 0.101012 0.888753
Si Si2 0.915116 0.806916 0.344747
Si Si3 0.756230 0.818464 0.446271
Si Si4 0.872920 0.697579 0.792620
Si Si5 0.037771 0.750019 0.910000
O O1 0.915923 0.214962 0.796302
O O2 0.838855 0.914795 0.812328
O O3 0.789900 0.199291 0.954692
O O4 0.904815 0.000000 0.000000
O O5 0.825813 0.742753 0.369126
O O6 0.957496 0.710832 0.454417
O O7 0.943832 0.028970 0.368817
O O8 0.690361 0.912879 0.364913
O O9 0.799317 0.000000 0.500000
O O10 0.892761 0.649358 0.661762
O O11 0.955257 0.691984 0.857709
#
# Coordination Sequence:
#
# PCOD9317652 Si02
#       5
#     8   8   8   8   8
#     4   9  21  37  57  90 115 157 205 250 293 359
#     4  10  20  33  62  88 121 146 209 253 297 352
#     4  11  22  35  56  87 124 159 189 245 318 367
#     4   9  20  38  65  86 118 155 212 252 297 361
#     4   9  18  37  64  89 108 159 212 253 293 353
#
# _framework density 28.888203000000001
#
# number of rings (size 3 to 8) (size 9 to 14) (size 15 to 20)
#    0.000    2.400    2.000    0.000   11.200    1.600 
#    0.000    0.000    8.800    0.000    0.000    0.000 
#    0.000    0.000    0.000    0.000    0.000    0.000 
#
# Total GULP energy -111582.106091 kJ/mol
# GULP energy per Si atom -5579.105305 kJ/mol
# Density = 2.882245 g / cm^3
# Si number density = 28.888203 Si / 1000 Ang^3
#
#
#
# Elastic Constant Matrix: (Units=GPa)
#
#
# Indices 1 2 3 4 5 6 
#
# 1 150.9077 25.9585 77.3392 0.0000 0.0000 0.0000
# 2 25.9585 87.5246 35.2239 0.0000 0.0000 0.0000
# 3 77.3392 35.2239 253.4491 0.0000 0.0000 0.0000
# 4 0.0000 0.0000 0.0000 32.3641 0.0000 0.0000
# 5 0.0000 0.0000 0.0000 0.0000 47.8754 0.0000
# 6 0.0000 0.0000 0.0000 0.0000 0.0000 28.6927
#
#
#
# Elastic Compliance Matrix: (Units=1/GPa)
#
#
# Indices 1 2 3 4 5 6 
#
# 1 0.008032 -0.001478 -0.002245 0.000000 0.000000 0.000000
# 2 -0.001478 0.012374 -0.001269 0.000000 0.000000 0.000000
# 3 -0.002245 -0.001269 0.004807 0.000000 0.000000 0.000000
# 4 0.000000 0.000000 0.000000 0.030898 0.000000 0.000000
# 5 0.000000 0.000000 0.000000 0.000000 0.020888 0.000000
# 6 0.000000 0.000000 0.000000 0.000000 0.000000 0.034852
#
#
# Mechanical properties :
#
#
# Convention : Reuss Voigt Hill
#
# Bulk Modulus (GPa) = 65.66757 85.43607 75.55182
# Shear Modulus (GPa) = 39.39739 45.34376 42.37058
#
# Velocity S-wave (km/s) = 3.69696 3.96615 3.83392
# Velocity P-wave (km/s) = 6.40346 7.11426 6.76820
#
# Compressibility (1/GPa) = 0.01522822
#
# Stress axis : x y z
#
# Youngs Moduli (GPa) = 124.50814 80.81205 208.02824
#
# Poissons Ratio (x) = 0.11947 0.46710
# Poissons Ratio (y) = 0.18408 0.26391
# Poissons Ratio (z) = 0.27956 0.10252
#
# Static dielectric constant tensor:
#      x y z
#    x 2.183160 0.000000 0.000000 
#    y 0.000000 2.459550 0.000000 
#    z 0.000000 0.000000 2.384630 
# 
# From -- ./inp_files/16155.got.cif
#   From: 2010.05.17/outbox.cif.g08.bks.cpg/sg20_9_cif.got.tgz:16155.got - 2010.06.03 22:52:26.
