data_PCOD9317756
_publ_section_title
;
Structure prediction by ZEFSAII (Michael W. Deem and Ramdas Pophale) SiO2 
 PCOD9317756
Probable space group: C 2 2 21
;
_chemical_formula_sum "Si O2"
_cell_formula_units_Z 64
_cell_length_a 11.436390
_cell_length_b 23.077177
_cell_length_c 12.666448
_cell_angle_alpha 90.000000
_cell_angle_beta 90.000000
_cell_angle_gamma 90.000000
_cell_volume 3342.923842
_symmetry_space_group_name_H-M "C 2 2 21"
_symmetry_group_IT_number 20
_symmetry_cell_setting 'orthorhombic'
loop_
_space_group_symop_operation_xyz
x,y,z
-x,-y,1/2+z
x,-y,-z
-x,y,1/2-z
1/2+x,1/2+y,z
1/2-x,1/2-y,1/2+z
1/2+x,1/2-y,-z
1/2-x,1/2+y,1/2-z
loop_
_atom_site_type_symbol
_atom_site_label
_atom_site_fract_x
_atom_site_fract_y
_atom_site_fract_z
Si Si1 0.864835 0.615644 0.107856
Si Si2 0.880763 0.627176 0.461027
Si Si3 0.129815 0.604904 0.796230
Si Si4 0.639140 0.206272 0.228527
Si Si5 0.839518 0.467946 0.709168
Si Si6 0.641004 0.587572 0.986107
Si Si7 0.399395 0.481832 0.672301
Si Si8 0.869587 0.841188 0.297894
O O1 0.808773 0.668164 0.175868
O O2 0.899264 0.566988 0.193862
O O3 0.772755 0.589755 0.027545
O O4 0.979462 0.634441 0.046540
O O5 0.851140 0.626450 0.583491
O O6 0.830066 0.676631 0.383217
O O7 0.851344 0.567286 0.399611
O O8 0.126518 0.534784 0.798773
O O9 0.250518 0.624481 0.736849
O O10 0.000000 0.623029 0.750000
O O11 0.500000 0.197525 0.250000
O O12 0.658274 0.274338 0.227120
O O13 0.707326 0.465753 0.752528
O O14 0.570123 0.570140 0.091154
O O15 0.628891 0.535826 0.902575
O O16 0.614012 0.645427 0.922235
O O17 0.500000 0.499082 0.750000
O O18 0.000000 0.854737 0.250000
#
# Coordination Sequence:
#
# PCOD9317756 Si02
#       8
#     8   8   8   8   8   8   8   8
#     4   9  18  37  60  84 116 155 201 236 299 367
#     4  10  20  36  58  87 117 157 190 250 298 354
#     4  12  24  36  55  91 126 150 189 248 304 352
#     4   8  18  38  62  83 112 154 204 247 294 358
#     4  10  20  35  56  84 121 155 193 236 296 364
#     4  10  20  35  59  82 111 162 197 243 300 363
#     4  10  21  37  55  83 118 158 203 246 289 360
#     4  11  23  40  61  85 116 160 205 249 295 361
#
# _framework density 19.144917
#
# number of rings (size 3 to 8) (size 9 to 14) (size 15 to 20)
#    0.000    2.000    1.250    3.375    0.000    2.000 
#    4.500    1.250    0.000    7.500    0.000    0.000 
#    0.000    0.000    0.000    0.000    0.000    0.000 
#
# Total GULP energy -178174.365431 kJ/mol
# GULP energy per Si atom -5567.948920 kJ/mol
# Density = 1.910134 g / cm^3
# Si number density = 19.144917 Si / 1000 Ang^3
#
#
#
# Elastic Constant Matrix: (Units=GPa)
#
#
# Indices 1 2 3 4 5 6 
#
# 1 72.7310 18.4909 41.0061 0.0000 0.0000 0.0000
# 2 18.4909 74.5831 22.8051 0.0000 0.0000 0.0000
# 3 41.0061 22.8051 115.1533 0.0000 0.0000 0.0000
# 4 0.0000 0.0000 0.0000 10.7493 0.0000 0.0000
# 5 0.0000 0.0000 0.0000 0.0000 34.0468 0.0000
# 6 0.0000 0.0000 0.0000 0.0000 0.0000 22.7328
#
#
#
# Elastic Compliance Matrix: (Units=1/GPa)
#
#
# Indices 1 2 3 4 5 6 
#
# 1 0.017670 -0.002615 -0.005774 0.000000 0.000000 0.000000
# 2 -0.002615 0.014659 -0.001972 0.000000 0.000000 0.000000
# 3 -0.005774 -0.001972 0.011131 0.000000 0.000000 0.000000
# 4 0.000000 0.000000 0.000000 0.093029 0.000000 0.000000
# 5 0.000000 0.000000 0.000000 0.000000 0.029371 0.000000
# 6 0.000000 0.000000 0.000000 0.000000 0.000000 0.043989
#
#
# Mechanical properties :
#
#
# Convention : Reuss Voigt Hill
#
# Bulk Modulus (GPa) = 43.98098 47.45240 45.71669
# Shear Modulus (GPa) = 20.99506 25.51680 23.25593
#
# Velocity S-wave (km/s) = 3.31515 3.65475 3.48908
# Velocity P-wave (km/s) = 6.13809 6.53064 6.33741
#
# Compressibility (1/GPa) = 0.02273710
#
# Stress axis : x y z
#
# Youngs Moduli (GPa) = 56.59398 68.21672 89.84075
#
# Poissons Ratio (x) = 0.17840 0.51877
# Poissons Ratio (y) = 0.14800 0.17715
# Poissons Ratio (z) = 0.32679 0.13451
#
# Static dielectric constant tensor:
#      x y z
#    x 1.732360 0.000000 0.000000 
#    y 0.000000 1.704840 0.000000 
#    z 0.000000 0.000000 1.686460 
# 
# From -- ./inp_files/14501.got.cif
#   From: 2010.05.17/outbox.cif.g08.bks.cpg/sg20_8_cif.got.tgz:14501.got - 2010.06.03 22:52:26.
