data_PCOD9317574
_publ_section_title
;
Structure prediction by ZEFSAII (Michael W. Deem and Ramdas Pophale) SiO2 
 PCOD9317574
Probable space group: C 2 2 21
;
_chemical_formula_sum "Si O2"
_cell_formula_units_Z 40
_cell_length_a 10.942253
_cell_length_b 14.314954
_cell_length_c 12.241629
_cell_angle_alpha 90.000000
_cell_angle_beta 90.000000
_cell_angle_gamma 90.000000
_cell_volume 1917.502427
_symmetry_space_group_name_H-M "C 2 2 21"
_symmetry_group_IT_number 20
_symmetry_cell_setting 'orthorhombic'
loop_
_space_group_symop_operation_xyz
x,y,z
-x,-y,1/2+z
x,-y,-z
-x,y,1/2-z
1/2+x,1/2+y,z
1/2-x,1/2-y,1/2+z
1/2+x,1/2-y,-z
1/2-x,1/2+y,1/2-z
loop_
_atom_site_type_symbol
_atom_site_label
_atom_site_fract_x
_atom_site_fract_y
_atom_site_fract_z
Si Si1 0.167316 0.439931 0.279991
Si Si2 0.186667 0.417863 0.909212
Si Si3 0.450762 0.160300 0.598597
Si Si4 0.060434 0.933703 0.143343
Si Si5 0.461394 0.635101 0.082548
O O1 0.157386 0.535693 0.208402
O O2 0.159420 0.364237 0.181550
O O3 0.294121 0.435166 0.343759
O O4 0.057288 0.411510 0.361450
O O5 0.315942 0.366520 0.902811
O O6 0.206038 0.500000 0.000000
O O7 0.085813 0.356909 0.972828
O O8 0.489595 0.265586 0.619525
O O9 0.000000 0.891221 0.250000
O O10 0.015393 0.041166 0.135552
O O11 0.005953 0.879762 0.041161
#
# Coordination Sequence:
#
# PCOD9317574 Si02
#       5
#     8   8   8   8   8
#     4  10  22  41  66  93 136 178 215 268 339 415
#     4  10  19  44  68  88 138 180 209 274 343 393
#     4  10  24  41  66 103 133 174 225 283 333 390
#     4  11  21  42  70  98 127 175 226 265 342 403
#     4  11  23  41  71 101 129 176 226 287 322 402
#
# _framework density 20.860468999999998
#
# number of rings (size 3 to 8) (size 9 to 14) (size 15 to 20)
#    0.000    1.600    4.000    1.200    5.600    0.000 
#   18.000    0.000   13.200    0.000    0.000    0.000 
#    0.000    0.000    0.000    0.000    0.000    0.000 
#
# Total GULP energy -111542.774034 kJ/mol
# GULP energy per Si atom -5577.138702 kJ/mol
# Density = 2.081299 g / cm^3
# Si number density = 20.860469 Si / 1000 Ang^3
#
#
#
# Elastic Constant Matrix: (Units=GPa)
#
#
# Indices 1 2 3 4 5 6 
#
# 1 98.9229 15.7640 48.0992 0.0000 0.0000 0.0000
# 2 15.7640 58.8682 35.4850 0.0000 0.0000 0.0000
# 3 48.0992 35.4850 99.7056 0.0000 0.0000 0.0000
# 4 0.0000 0.0000 0.0000 121.8207 0.0000 0.0000
# 5 0.0000 0.0000 0.0000 0.0000 34.6460 0.0000
# 6 0.0000 0.0000 0.0000 0.0000 0.0000 19.5788
#
#
#
# Elastic Compliance Matrix: (Units=1/GPa)
#
#
# Indices 1 2 3 4 5 6 
#
# 1 0.013214 0.000387 -0.006512 0.000000 0.000000 0.000000
# 2 0.000387 0.021638 -0.007888 0.000000 0.000000 0.000000
# 3 -0.006512 -0.007888 0.015978 0.000000 0.000000 0.000000
# 4 0.000000 0.000000 0.000000 0.008209 0.000000 0.000000
# 5 0.000000 0.000000 0.000000 0.000000 0.028863 0.000000
# 6 0.000000 0.000000 0.000000 0.000000 0.000000 0.051076
#
#
# Mechanical properties :
#
#
# Convention : Reuss Voigt Hill
#
# Bulk Modulus (GPa) = 43.85123 50.68815 47.26969
# Shear Modulus (GPa) = 28.63612 45.75234 37.19423
#
# Velocity S-wave (km/s) = 3.70908 4.68830 4.22714
# Velocity P-wave (km/s) = 6.27773 7.32518 6.82159
#
# Compressibility (1/GPa) = 0.02280438
#
# Stress axis : x y z
#
# Youngs Moduli (GPa) = 75.67963 46.21496 62.58503
#
# Poissons Ratio (x) = -0.01789 0.40756
# Poissons Ratio (y) = -0.02929 0.49365
# Poissons Ratio (z) = 0.49284 0.36453
#
# Static dielectric constant tensor:
#      x y z
#    x 1.766400 0.000000 0.000000 
#    y 0.000000 1.751660 0.000000 
#    z 0.000000 0.000000 1.886540 
# 
# From -- ./inp_files/13892.got.cif
#   From: 2010.05.17/outbox.cif.g08.bks.cpg/sg20_7_cif.got.tgz:13892.got - 2010.06.03 22:52:26.
