data_PCOD9317644
_publ_section_title
;
Structure prediction by ZEFSAII (Michael W. Deem and Ramdas Pophale) SiO2 
 PCOD9317644
Probable space group: C 2 2 21
;
_chemical_formula_sum "Si O2"
_cell_formula_units_Z 36
_cell_length_a 16.831882
_cell_length_b 16.705181
_cell_length_c 6.201928
_cell_angle_alpha 90.000000
_cell_angle_beta 90.000000
_cell_angle_gamma 90.000000
_cell_volume 1743.855854
_symmetry_space_group_name_H-M "C 2 2 21"
_symmetry_group_IT_number 20
_symmetry_cell_setting 'orthorhombic'
loop_
_space_group_symop_operation_xyz
x,y,z
-x,-y,1/2+z
x,-y,-z
-x,y,1/2-z
1/2+x,1/2+y,z
1/2-x,1/2-y,1/2+z
1/2+x,1/2-y,-z
1/2-x,1/2+y,1/2-z
loop_
_atom_site_type_symbol
_atom_site_label
_atom_site_fract_x
_atom_site_fract_y
_atom_site_fract_z
Si Si1 0.352668 0.000000 0.500000
Si Si2 0.220052 0.348179 0.784526
Si Si3 0.500000 0.950042 0.250000
Si Si4 0.000000 0.802928 0.250000
Si Si5 0.911832 0.321609 0.046436
Si Si6 0.365223 0.286182 0.558352
O O1 0.301132 0.922459 0.560507
O O2 0.416059 0.988414 0.306991
O O3 0.167436 0.353149 0.566890
O O4 0.310684 0.341476 0.709260
O O5 0.192680 0.265957 0.902685
O O6 0.476233 0.892097 0.053305
O O7 0.054335 0.747848 0.399087
O O8 0.933115 0.833324 0.422294
O O9 0.900509 0.281842 0.280951
#
# Coordination Sequence:
#
# PCOD9317644 Si02
#       6
#     4   8   4   4   8   8
#     4  12  24  36  56  94 136 178 212 252 328 400
#     4  11  23  37  57  87 129 177 213 263 322 391
#     4  12  20  37  56  88 134 175 200 242 310 409
#     4  10  20  33  58  92 116 159 222 276 316 357
#     4  11  19  36  58  85 124 169 212 256 310 382
#     4  11  20  37  59  84 127 172 221 268 310 387
#
# _framework density 20.643906999999999
#
# number of rings (size 3 to 8) (size 9 to 14) (size 15 to 20)
#    0.000    0.889    6.667    2.667    0.000    0.889 
#    0.000    0.000    0.000    0.000    0.000    0.000 
#    6.667    1.778    0.000    0.000    0.000    0.000 
#
# Total GULP energy -100273.597098 kJ/mol
# GULP energy per Si atom -5570.755394 kJ/mol
# Density = 2.059692 g / cm^3
# Si number density = 20.643907 Si / 1000 Ang^3
#
#
#
# Elastic Constant Matrix: (Units=GPa)
#
#
# Indices 1 2 3 4 5 6 
#
# 1 110.6798 38.1364 29.4804 0.0000 0.0000 0.0000
# 2 38.1364 48.6874 7.9037 0.0000 0.0000 0.0000
# 3 29.4804 7.9037 75.2089 0.0000 0.0000 0.0000
# 4 0.0000 0.0000 0.0000 4.5025 0.0000 0.0000
# 5 0.0000 0.0000 0.0000 0.0000 53.0297 0.0000
# 6 0.0000 0.0000 0.0000 0.0000 0.0000 51.0304
#
#
#
# Elastic Compliance Matrix: (Units=1/GPa)
#
#
# Indices 1 2 3 4 5 6 
#
# 1 0.013611 -0.009965 -0.004288 0.000000 0.000000 0.000000
# 2 -0.009965 0.028192 0.000943 0.000000 0.000000 0.000000
# 3 -0.004288 0.000943 0.014878 0.000000 0.000000 0.000000
# 4 0.000000 0.000000 0.000000 0.222100 0.000000 0.000000
# 5 0.000000 0.000000 0.000000 0.000000 0.018857 0.000000
# 6 0.000000 0.000000 0.000000 0.000000 0.000000 0.019596
#
#
# Mechanical properties :
#
#
# Convention : Reuss Voigt Hill
#
# Bulk Modulus (GPa) = 33.26549 42.84636 38.05592
# Shear Modulus (GPa) = 14.12934 32.31624 23.22279
#
# Velocity S-wave (km/s) = 2.61900 3.96082 3.35762
# Velocity P-wave (km/s) = 5.02936 6.45891 5.78844
#
# Compressibility (1/GPa) = 0.03006118
#
# Stress axis : x y z
#
# Youngs Moduli (GPa) = 73.47084 35.47151 67.21365
#
# Poissons Ratio (x) = 0.35348 0.28821
# Poissons Ratio (y) = 0.73215 -0.06342
# Poissons Ratio (z) = 0.31504 -0.03347
#
# Static dielectric constant tensor:
#      x y z
#    x 1.774010 0.000000 0.000000 
#    y 0.000000 1.746920 0.000000 
#    z 0.000000 0.000000 1.346550 
# 
# From -- ./inp_files/1802.got.cif
#   From: 2010.05.17/outbox.cif.g08.bks.cpg/sg20_1_cif.got.tgz:1802.got - 2010.06.03 22:52:26.
