data_PCOD9317294
_publ_section_title
;
Structure prediction by ZEFSAII (Michael W. Deem and Ramdas Pophale) SiO2 
 PCOD9317294
Probable space group: C 2 2 21
;
_chemical_formula_sum "Si O2"
_cell_formula_units_Z 48
_cell_length_a 16.099001
_cell_length_b 23.044092
_cell_length_c 6.712597
_cell_angle_alpha 90.000000
_cell_angle_beta 90.000000
_cell_angle_gamma 90.000000
_cell_volume 2490.285284
_symmetry_space_group_name_H-M "C 2 2 21"
_symmetry_group_IT_number 20
_symmetry_cell_setting 'orthorhombic'
loop_
_space_group_symop_operation_xyz
x,y,z
-x,-y,1/2+z
x,-y,-z
-x,y,1/2-z
1/2+x,1/2+y,z
1/2-x,1/2-y,1/2+z
1/2+x,1/2-y,-z
1/2-x,1/2+y,1/2-z
loop_
_atom_site_type_symbol
_atom_site_label
_atom_site_fract_x
_atom_site_fract_y
_atom_site_fract_z
Si Si1 0.915438 0.464097 0.821330
Si Si2 0.254335 0.693712 0.171942
Si Si3 0.345762 0.694376 0.540305
Si Si4 0.242873 0.615506 0.784695
Si Si5 0.000000 0.747455 0.250000
Si Si6 0.609591 0.156224 0.474640
Si Si7 0.794158 0.500000 0.500000
O O1 0.852821 0.461338 0.640637
O O2 0.000000 0.494108 0.750000
O O3 0.875758 0.500000 0.000000
O O4 0.936868 0.401974 0.909162
O O5 0.338114 0.695872 0.301651
O O6 0.222234 0.757131 0.109786
O O7 0.184761 0.667585 0.319456
O O8 0.259684 0.654724 0.977946
O O9 0.313583 0.633439 0.626546
O O10 0.430974 0.714740 0.637334
O O11 0.155873 0.638178 0.682069
O O12 0.246425 0.548611 0.856600
O O13 0.046368 0.708264 0.420397
#
# Coordination Sequence:
#
# PCOD9317294 Si02
#       7
#     8   8   8   8   4   8   4
#     4  12  22  35  50  81 123 164 204 247 300 362
#     4  10  19  36  60  85 120 160 203 254 310 367
#     4  10  21  38  60  89 123 156 207 264 314 376
#     4  11  22  38  61  86 121 166 209 260 307 378
#     4  10  22  40  64  96 126 164 204 264 334 384
#     4  10  21  36  58  85 124 162 207 249 305 378
#     4  12  24  36  58  86 118 170 218 244 300 382
#
# _framework density 19.274899000000001
#
# number of rings (size 3 to 8) (size 9 to 14) (size 15 to 20)
#    0.000    1.333    6.667    0.000    0.000    0.000 
#    0.000   10.833    0.000    0.000    4.333    0.000 
#    0.000    0.000    0.000    0.000    0.000    0.000 
#
# Total GULP energy -133735.438895 kJ/mol
# GULP energy per Si atom -5572.309954 kJ/mol
# Density = 1.923103 g / cm^3
# Si number density = 19.274899 Si / 1000 Ang^3
#
#
#
# Elastic Constant Matrix: (Units=GPa)
#
#
# Indices 1 2 3 4 5 6 
#
# 1 62.9984 23.5920 24.6520 0.0000 0.0000 0.0000
# 2 23.5920 73.7029 22.7519 0.0000 0.0000 0.0000
# 3 24.6520 22.7519 97.6091 0.0000 0.0000 0.0000
# 4 0.0000 0.0000 0.0000 34.1655 0.0000 0.0000
# 5 0.0000 0.0000 0.0000 0.0000 28.2337 0.0000
# 6 0.0000 0.0000 0.0000 0.0000 0.0000 21.0066
#
#
#
# Elastic Compliance Matrix: (Units=1/GPa)
#
#
# Indices 1 2 3 4 5 6 
#
# 1 0.019188 -0.005006 -0.003679 0.000000 0.000000 0.000000
# 2 -0.005006 0.015926 -0.002448 0.000000 0.000000 0.000000
# 3 -0.003679 -0.002448 0.011745 0.000000 0.000000 0.000000
# 4 0.000000 0.000000 0.000000 0.029269 0.000000 0.000000
# 5 0.000000 0.000000 0.000000 0.000000 0.035419 0.000000
# 6 0.000000 0.000000 0.000000 0.000000 0.000000 0.047604
#
#
# Mechanical properties :
#
#
# Convention : Reuss Voigt Hill
#
# Bulk Modulus (GPa) = 40.66328 41.81135 41.23731
# Shear Modulus (GPa) = 26.36926 27.56878 26.96902
#
# Velocity S-wave (km/s) = 3.70274 3.78603 3.74462
# Velocity P-wave (km/s) = 6.27875 6.39150 6.33537
#
# Compressibility (1/GPa) = 0.02459221
#
# Stress axis : x y z
#
# Youngs Moduli (GPa) = 52.11625 62.78999 85.14453
#
# Poissons Ratio (x) = 0.31434 0.31326
# Poissons Ratio (y) = 0.26090 0.20842
# Poissons Ratio (z) = 0.19174 0.15370
#
# Static dielectric constant tensor:
#      x y z
#    x 1.681060 0.000000 0.000000 
#    y 0.000000 1.724270 0.000000 
#    z 0.000000 0.000000 1.724960 
# 
# From -- ./inp_files/2749.got.cif
#   From: 2010.05.17/outbox.cif.g08.bks.cpg/sg20_2_cif.got.tgz:2749.got - 2010.06.03 22:52:26.
