data_PCOD9317731
_publ_section_title
;
Structure prediction by ZEFSAII (Michael W. Deem and Ramdas Pophale) SiO2 
 PCOD9317731
Probable space group: C 2 2 21
;
_chemical_formula_sum "Si O2"
_cell_formula_units_Z 64
_cell_length_a 8.543608
_cell_length_b 19.818583
_cell_length_c 17.989700
_cell_angle_alpha 90.000000
_cell_angle_beta 90.000000
_cell_angle_gamma 90.000000
_cell_volume 3046.055658
_symmetry_space_group_name_H-M "C 2 2 21"
_symmetry_group_IT_number 20
_symmetry_cell_setting 'orthorhombic'
loop_
_space_group_symop_operation_xyz
x,y,z
-x,-y,1/2+z
x,-y,-z
-x,y,1/2-z
1/2+x,1/2+y,z
1/2-x,1/2-y,1/2+z
1/2+x,1/2-y,-z
1/2-x,1/2+y,1/2-z
loop_
_atom_site_type_symbol
_atom_site_label
_atom_site_fract_x
_atom_site_fract_y
_atom_site_fract_z
Si Si1 0.148017 0.247719 0.910070
Si Si2 0.837137 0.905766 0.713218
Si Si3 0.412661 0.660700 0.826872
Si Si4 0.189369 0.760100 0.753521
Si Si5 0.217810 0.042987 0.060978
Si Si6 0.267747 0.043911 0.720561
Si Si7 0.420788 0.072820 0.866757
Si Si8 0.100004 0.329254 0.497205
O O1 0.236410 0.259709 0.830555
O O2 0.279660 0.228262 0.970283
O O3 0.025330 0.186720 0.891800
O O4 0.036657 0.304373 0.947811
O O5 0.756671 0.833060 0.713618
O O6 0.874230 0.935286 0.632891
O O7 0.000000 0.890955 0.750000
O O8 0.756590 0.966549 0.757446
O O9 0.500000 0.675199 0.750000
O O10 0.257079 0.705203 0.811966
O O11 0.369025 0.581949 0.823626
O O12 0.000000 0.751188 0.750000
O O13 0.349678 0.989266 0.086852
O O14 0.298780 0.110949 0.033468
O O15 0.125410 0.000000 0.000000
O O16 0.298703 0.084019 0.798679
O O17 0.421779 0.050193 0.672205
O O18 0.452827 0.135825 0.919709
#
# Coordination Sequence:
#
# PCOD9317731 Si02
#       8
#     8   8   8   8   8   8   8   8
#     4  11  26  39  62  93 125 177 210 268 323 402
#     4  10  21  38  63  94 124 167 212 272 321 379
#     4  10  21  38  60  93 124 162 213 267 321 373
#     4  10  23  41  66  92 134 167 219 276 330 377
#     4   9  20  40  63  86 123 168 212 259 320 391
#     4  10  20  34  65  92 125 155 216 271 319 368
#     4   9  20  37  61  93 116 166 208 265 316 378
#     4  11  24  42  62  85 132 166 217 252 329 399
#
# _framework density 21.010777999999998
#
# number of rings (size 3 to 8) (size 9 to 14) (size 15 to 20)
#    0.000    2.000    0.000    2.625    7.000    4.000 
#    4.500    0.000    5.500    0.000    0.000    0.000 
#    0.000    0.000    0.000    0.000    0.000    0.000 
#
# Total GULP energy -178380.942497 kJ/mol
# GULP energy per Si atom -5574.404453 kJ/mol
# Density = 2.096296 g / cm^3
# Si number density = 21.010778 Si / 1000 Ang^3
#
#
#
# Elastic Constant Matrix: (Units=GPa)
#
#
# Indices 1 2 3 4 5 6 
#
# 1 41.3091 -6.0896 4.9720 0.0000 0.0000 0.0000
# 2 -6.0896 56.5543 3.9432 0.0000 0.0000 0.0000
# 3 4.9720 3.9432 45.5488 0.0000 0.0000 0.0000
# 4 0.0000 0.0000 0.0000 30.0629 0.0000 0.0000
# 5 0.0000 0.0000 0.0000 0.0000 28.2282 0.0000
# 6 0.0000 0.0000 0.0000 0.0000 0.0000 364.6240
#
#
#
# Elastic Compliance Matrix: (Units=1/GPa)
#
#
# Indices 1 2 3 4 5 6 
#
# 1 0.024994 0.002899 -0.002979 0.000000 0.000000 0.000000
# 2 0.002899 0.018126 -0.001886 0.000000 0.000000 0.000000
# 3 -0.002979 -0.001886 0.022443 0.000000 0.000000 0.000000
# 4 0.000000 0.000000 0.000000 0.033264 0.000000 0.000000
# 5 0.000000 0.000000 0.000000 0.000000 0.035426 0.000000
# 6 0.000000 0.000000 0.000000 0.000000 0.000000 0.002743
#
#
# Mechanical properties :
#
#
# Convention : Reuss Voigt Hill
#
# Bulk Modulus (GPa) = 16.22569 16.56260 16.39414
# Shear Modulus (GPa) = 30.96563 93.95546 62.46054
#
# Velocity S-wave (km/s) = 3.84317 6.69439 5.45824
# Velocity P-wave (km/s) = 5.23762 8.22515 6.89513
#
# Compressibility (1/GPa) = 0.06163065
#
# Stress axis : x y z
#
# Youngs Moduli (GPa) = 40.01011 55.17011 44.55751
#
# Poissons Ratio (x) = -0.15994 0.13275
# Poissons Ratio (y) = -0.11599 0.08402
# Poissons Ratio (z) = 0.11920 0.10403
#
# Static dielectric constant tensor:
#      x y z
#    x 1.775710 0.000000 0.000000 
#    y 0.000000 1.842300 0.000000 
#    z 0.000000 0.000000 1.771120 
# 
# From -- ./inp_files/23914.got.cif
#   From: 2010.05.17/outbox.cif.g08.bks.cpg/sg20_12_cif.got.tgz:23914.got - 2010.06.03 22:52:26.
