data_PCOD9317696
_publ_section_title
;
Structure prediction by ZEFSAII (Michael W. Deem and Ramdas Pophale) SiO2 
 PCOD9317696
Probable space group: C 2 2 21
;
_chemical_formula_sum "Si O2"
_cell_formula_units_Z 48
_cell_length_a 27.626851
_cell_length_b 9.772963
_cell_length_c 7.681999
_cell_angle_alpha 90.000000
_cell_angle_beta 90.000000
_cell_angle_gamma 90.000000
_cell_volume 2074.110482
_symmetry_space_group_name_H-M "C 2 2 21"
_symmetry_group_IT_number 20
_symmetry_cell_setting 'orthorhombic'
loop_
_space_group_symop_operation_xyz
x,y,z
-x,-y,1/2+z
x,-y,-z
-x,y,1/2-z
1/2+x,1/2+y,z
1/2-x,1/2-y,1/2+z
1/2+x,1/2-y,-z
1/2-x,1/2+y,1/2-z
loop_
_atom_site_type_symbol
_atom_site_label
_atom_site_fract_x
_atom_site_fract_y
_atom_site_fract_z
Si Si1 0.778426 0.610959 0.250401
Si Si2 0.624152 0.236136 0.140615
Si Si3 0.445970 0.469614 0.294272
Si Si4 0.592217 0.754495 0.267730
Si Si5 0.300437 0.186131 0.855749
Si Si6 0.450121 0.976372 0.705223
O O1 0.819561 0.702245 0.346006
O O2 0.727303 0.675010 0.304369
O O3 0.787433 0.446870 0.265997
O O4 0.784274 0.644308 0.047488
O O5 0.599451 0.367901 0.227803
O O6 0.597544 0.110395 0.235139
O O7 0.607759 0.241170 0.938120
O O8 0.447620 0.500000 0.500000
O O9 0.500000 0.419980 0.250000
O O10 0.433395 0.611042 0.197408
O O11 0.642618 0.784249 0.360140
O O12 0.555636 0.879137 0.299963
O O13 0.500000 0.904656 0.750000
O O14 0.452045 0.000000 0.500000
#
# Coordination Sequence:
#
# PCOD9317696 Si02
#       6
#     8   8   8   8   8   8
#     4  11  25  43  65  93 123 159 202 251 307 368
#     4  10  21  39  60  86 122 160 200 249 301 356
#     4  10  22  38  59  88 123 162 203 248 300 356
#     4  10  21  39  60  86 122 160 200 249 301 356
#     4  11  25  43  65  93 123 159 202 251 307 368
#     4  10  20  34  57  84 115 156 197 246 302 352
#
# _framework density 23.14245
#
# number of rings (size 3 to 8) (size 9 to 14) (size 15 to 20)
#    0.000    1.667    1.667    2.000    2.333    4.667 
#    0.000    0.000    0.000    0.000    0.000    0.000 
#    0.000    0.000    0.000    0.000    0.000    0.000 
#
# Total GULP energy -134126.842830 kJ/mol
# GULP energy per Si atom -5588.618451 kJ/mol
# Density = 2.308978 g / cm^3
# Si number density = 23.142450 Si / 1000 Ang^3
#
#
#
# Elastic Constant Matrix: (Units=GPa)
#
#
# Indices 1 2 3 4 5 6 
#
# 1 98.3227 5.9831 1.9058 0.0000 0.0000 0.0000
# 2 5.9831 76.8699 7.6544 0.0000 0.0000 0.0000
# 3 1.9058 7.6544 20.1454 0.0000 0.0000 0.0000
# 4 0.0000 0.0000 0.0000 5.9845 0.0000 0.0000
# 5 0.0000 0.0000 0.0000 0.0000 31.0746 0.0000
# 6 0.0000 0.0000 0.0000 0.0000 0.0000 36.2420
#
#
#
# Elastic Compliance Matrix: (Units=1/GPa)
#
#
# Indices 1 2 3 4 5 6 
#
# 1 0.010228 -0.000727 -0.000691 0.000000 0.000000 0.000000
# 2 -0.000727 0.013572 -0.005088 0.000000 0.000000 0.000000
# 3 -0.000691 -0.005088 0.051638 0.000000 0.000000 0.000000
# 4 0.000000 0.000000 0.000000 0.167099 0.000000 0.000000
# 5 0.000000 0.000000 0.000000 0.000000 0.032181 0.000000
# 6 0.000000 0.000000 0.000000 0.000000 0.000000 0.027592
#
#
# Mechanical properties :
#
#
# Convention : Reuss Voigt Hill
#
# Bulk Modulus (GPa) = 16.01925 25.15830 20.58878
# Shear Modulus (GPa) = 14.87511 26.64652 20.76081
#
# Velocity S-wave (km/s) = 2.53803 3.39693 2.99839
# Velocity P-wave (km/s) = 3.94028 5.12642 4.57198
#
# Compressibility (1/GPa) = 0.06242488
#
# Stress axis : x y z
#
# Youngs Moduli (GPa) = 97.76848 73.67972 19.36570
#
# Poissons Ratio (x) = 0.05359 0.01339
# Poissons Ratio (y) = 0.07110 0.09853
# Poissons Ratio (z) = 0.06759 0.37489
#
# Static dielectric constant tensor:
#      x y z
#    x 1.800450 0.000000 0.000000 
#    y 0.000000 1.908930 0.000000 
#    z 0.000000 0.000000 1.882000 
# 
# From -- ./inp_files/11427.got.cif
#   From: 2010.05.17/outbox.cif.g08.bks.cpg/sg20_6_cif.got.tgz:11427.got - 2010.06.03 22:52:26.
