data_PCOD9317738
_publ_section_title
;
Structure prediction by ZEFSAII (Michael W. Deem and Ramdas Pophale) SiO2 
 PCOD9317738
Probable space group: C 2 2 21
;
_chemical_formula_sum "Si O2"
_cell_formula_units_Z 48
_cell_length_a 8.550852
_cell_length_b 24.245494
_cell_length_c 11.192356
_cell_angle_alpha 90.000000
_cell_angle_beta 90.000000
_cell_angle_gamma 90.000000
_cell_volume 2320.395114
_symmetry_space_group_name_H-M "C 2 2 21"
_symmetry_group_IT_number 20
_symmetry_cell_setting 'orthorhombic'
loop_
_space_group_symop_operation_xyz
x,y,z
-x,-y,1/2+z
x,-y,-z
-x,y,1/2-z
1/2+x,1/2+y,z
1/2-x,1/2-y,1/2+z
1/2+x,1/2-y,-z
1/2-x,1/2+y,1/2-z
loop_
_atom_site_type_symbol
_atom_site_label
_atom_site_fract_x
_atom_site_fract_y
_atom_site_fract_z
Si Si1 0.346740 0.339559 0.168850
Si Si2 0.180938 0.672139 0.591005
Si Si3 0.913668 0.412325 0.914462
Si Si4 0.000000 0.506580 0.750000
Si Si5 0.500000 0.821043 0.750000
Si Si6 0.216361 0.557472 0.950374
Si Si7 0.533744 0.746669 0.961284
O O1 0.500000 0.345563 0.250000
O O2 0.212694 0.331001 0.267918
O O3 0.326331 0.393850 0.090579
O O4 0.382123 0.288100 0.083150
O O5 0.166430 0.610606 0.534429
O O6 0.328264 0.702419 0.525981
O O7 0.029010 0.709324 0.557567
O O8 0.890193 0.361777 0.823968
O O9 0.893245 0.468103 0.838511
O O10 0.095809 0.418828 0.951514
O O11 0.110212 0.541082 0.836539
O O12 0.583864 0.782950 0.846239
O O13 0.284930 0.500000 0.000000
#
# Coordination Sequence:
#
# PCOD9317738 Si02
#       7
#     8   8   8   4   4   8   8
#     4  10  21  37  53  76 115 148 182 235 279 319
#     4  10  20  35  54  83 109 153 180 222 270 336
#     4   9  19  32  57  79 110 138 183 225 279 325
#     4   9  18  36  54  82 108 136 178 249 276 318
#     4   9  16  34  50  78 110 152 160 217 276 322
#     4  10  20  35  57  83 102 142 193 231 274 334
#     4  10  20  35  54  78 117 150 184 214 278 328
#
# _framework density 20.686132000000001
#
# number of rings (size 3 to 8) (size 9 to 14) (size 15 to 20)
#    0.000    2.333    2.500    1.000    4.667    0.000 
#    0.000    3.333    0.000    0.000    0.000    0.000 
#    0.000    0.000    0.000    0.000    0.000    0.000 
#
# Total GULP energy -133681.189583 kJ/mol
# GULP energy per Si atom -5570.049566 kJ/mol
# Density = 2.063905 g / cm^3
# Si number density = 20.686132 Si / 1000 Ang^3
#
#
#
# Elastic Constant Matrix: (Units=GPa)
#
#
# Indices 1 2 3 4 5 6 
#
# 1 20.5285 10.1425 12.0107 0.0000 0.0000 0.0000
# 2 10.1425 96.5836 31.4162 0.0000 0.0000 0.0000
# 3 12.0107 31.4162 64.5853 0.0000 0.0000 0.0000
# 4 0.0000 0.0000 0.0000 50.7421 0.0000 0.0000
# 5 0.0000 0.0000 0.0000 0.0000 30.1157 0.0000
# 6 0.0000 0.0000 0.0000 0.0000 0.0000 5.1456
#
#
#
# Elastic Compliance Matrix: (Units=1/GPa)
#
#
# Indices 1 2 3 4 5 6 
#
# 1 0.055348 -0.002927 -0.008869 0.000000 0.000000 0.000000
# 2 -0.002927 0.012455 -0.005514 0.000000 0.000000 0.000000
# 3 -0.008869 -0.005514 0.019815 0.000000 0.000000 0.000000
# 4 0.000000 0.000000 0.000000 0.019708 0.000000 0.000000
# 5 0.000000 0.000000 0.000000 0.000000 0.033205 0.000000
# 6 0.000000 0.000000 0.000000 0.000000 0.000000 0.194340
#
#
# Mechanical properties :
#
#
# Convention : Reuss Voigt Hill
#
# Bulk Modulus (GPa) = 18.86897 32.09293 25.48095
# Shear Modulus (GPa) = 12.91469 25.74255 19.32862
#
# Velocity S-wave (km/s) = 2.50134 3.53148 3.06007
# Velocity P-wave (km/s) = 4.18135 5.67242 4.98297
#
# Compressibility (1/GPa) = 0.05299706
#
# Stress axis : x y z
#
# Youngs Moduli (GPa) = 18.06751 80.29108 50.46719
#
# Poissons Ratio (x) = 0.23505 0.44759
# Poissons Ratio (y) = 0.05289 0.27827
# Poissons Ratio (z) = 0.16024 0.44272
#
# Static dielectric constant tensor:
#      x y z
#    x 1.766530 0.000000 0.000000 
#    y 0.000000 1.772610 0.000000 
#    z 0.000000 0.000000 1.832400 
# 
# From -- ./inp_files/13135.got.cif
#   From: 2010.05.17/outbox.cif.g08.bks.cpg/sg20_7_cif.got.tgz:13135.got - 2010.06.03 22:52:26.
