data_PCOD9317521
_publ_section_title
;
Structure prediction by ZEFSAII (Michael W. Deem and Ramdas Pophale) SiO2 
 PCOD9317521
Probable space group: C 2 2 21
;
_chemical_formula_sum "Si O2"
_cell_formula_units_Z 40
_cell_length_a 25.542419
_cell_length_b 6.682293
_cell_length_c 10.508085
_cell_angle_alpha 90.000000
_cell_angle_beta 90.000000
_cell_angle_gamma 90.000000
_cell_volume 1793.540204
_symmetry_space_group_name_H-M "C 2 2 21"
_symmetry_group_IT_number 20
_symmetry_cell_setting 'orthorhombic'
loop_
_space_group_symop_operation_xyz
x,y,z
-x,-y,1/2+z
x,-y,-z
-x,y,1/2-z
1/2+x,1/2+y,z
1/2-x,1/2-y,1/2+z
1/2+x,1/2-y,-z
1/2-x,1/2+y,1/2-z
loop_
_atom_site_type_symbol
_atom_site_label
_atom_site_fract_x
_atom_site_fract_y
_atom_site_fract_z
Si Si1 0.412023 0.374249 0.109881
Si Si2 0.813860 0.847011 0.827412
Si Si3 0.547728 0.000000 0.000000
Si Si4 0.143278 0.783832 0.948196
Si Si5 0.849598 0.500000 0.000000
Si Si6 0.000000 0.690302 0.250000
Si Si7 0.227491 0.500000 0.000000
O O1 0.365488 0.524586 0.141537
O O2 0.386542 0.162653 0.069349
O O3 0.449807 0.326783 0.224829
O O4 0.441948 0.500000 0.000000
O O5 0.823336 0.794244 0.681752
O O6 0.815252 0.639773 0.907245
O O7 0.767054 0.985394 0.879894
O O8 0.512621 0.929726 0.880133
O O9 0.588887 0.164110 0.945264
O O10 0.186000 0.673202 0.035220
O O11 0.131942 0.000000 0.000000
#
# Coordination Sequence:
#
# PCOD9317521 Si02
#       7
#     8   8   4   8   4   4   4
#     4  10  22  40  64 101 133 179 239 289 352 425
#     4  11  23  43  69 100 137 184 240 290 356 430
#     4  11  27  52  70 114 142 194 246 298 374 436
#     4  11  27  46  71 101 153 188 229 305 360 429
#     4  10  19  40  67  92 136 175 226 303 332 410
#     4  12  24  44  78 100 150 192 242 302 368 434
#     4  11  26  42  65 110 132 187 248 281 362 428
#
# _framework density 22.302261000000001
#
# number of rings (size 3 to 8) (size 9 to 14) (size 15 to 20)
#    0.000    1.200    3.000    3.000    4.200    5.600 
#    0.000    5.000    0.000    0.000    0.000    0.000 
#    0.000    0.000    0.000    0.000    0.000    0.000 
#
# Total GULP energy -111575.580248 kJ/mol
# GULP energy per Si atom -5578.779012 kJ/mol
# Density = 2.225150 g / cm^3
# Si number density = 22.302261 Si / 1000 Ang^3
#
#
#
# Elastic Constant Matrix: (Units=GPa)
#
#
# Indices 1 2 3 4 5 6 
#
# 1 78.6788 18.6345 16.4238 0.0000 0.0000 0.0000
# 2 18.6345 105.9669 1.9266 0.0000 0.0000 0.0000
# 3 16.4238 1.9266 53.6840 0.0000 0.0000 0.0000
# 4 0.0000 0.0000 0.0000 29.3240 0.0000 0.0000
# 5 0.0000 0.0000 0.0000 0.0000 43.3177 0.0000
# 6 0.0000 0.0000 0.0000 0.0000 0.0000 47.5228
#
#
#
# Elastic Compliance Matrix: (Units=1/GPa)
#
#
# Indices 1 2 3 4 5 6 
#
# 1 0.014168 -0.002414 -0.004248 0.000000 0.000000 0.000000
# 2 -0.002414 0.009854 0.000385 0.000000 0.000000 0.000000
# 3 -0.004248 0.000385 0.019913 0.000000 0.000000 0.000000
# 4 0.000000 0.000000 0.000000 0.034102 0.000000 0.000000
# 5 0.000000 0.000000 0.000000 0.000000 0.023085 0.000000
# 6 0.000000 0.000000 0.000000 0.000000 0.000000 0.021043
#
#
# Mechanical properties :
#
#
# Convention : Reuss Voigt Hill
#
# Bulk Modulus (GPa) = 31.86582 34.69994 33.28288
# Shear Modulus (GPa) = 34.43978 37.45590 35.94784
#
# Velocity S-wave (km/s) = 3.93393 4.10258 4.01914
# Velocity P-wave (km/s) = 5.91216 6.16719 6.04102
#
# Compressibility (1/GPa) = 0.03138159
#
# Stress axis : x y z
#
# Youngs Moduli (GPa) = 70.57927 101.47677 50.21765
#
# Poissons Ratio (x) = 0.24500 0.21332
# Poissons Ratio (y) = 0.17040 -0.01933
# Poissons Ratio (z) = 0.29982 -0.03906
#
# Static dielectric constant tensor:
#      x y z
#    x 1.769320 0.000000 0.000000 
#    y 0.000000 1.896560 0.000000 
#    z 0.000000 0.000000 2.032840 
# 
# From -- ./inp_files/16928.got.cif
#   From: 2010.05.17/outbox.cif.g08.bks.cpg/sg20_9_cif.got.tgz:16928.got - 2010.06.03 22:52:26.
