data_PCOD9317566
_publ_section_title
;
Structure prediction by ZEFSAII (Michael W. Deem and Ramdas Pophale) SiO2 
 PCOD9317566
Probable space group: C 2 2 21
;
_chemical_formula_sum "Si O2"
_cell_formula_units_Z 40
_cell_length_a 17.883313
_cell_length_b 7.059915
_cell_length_c 13.910924
_cell_angle_alpha 90.000000
_cell_angle_beta 90.000000
_cell_angle_gamma 90.000000
_cell_volume 1756.319115
_symmetry_space_group_name_H-M "C 2 2 21"
_symmetry_group_IT_number 20
_symmetry_cell_setting 'orthorhombic'
loop_
_space_group_symop_operation_xyz
x,y,z
-x,-y,1/2+z
x,-y,-z
-x,y,1/2-z
1/2+x,1/2+y,z
1/2-x,1/2-y,1/2+z
1/2+x,1/2-y,-z
1/2-x,1/2+y,1/2-z
loop_
_atom_site_type_symbol
_atom_site_label
_atom_site_fract_x
_atom_site_fract_y
_atom_site_fract_z
Si Si1 0.152998 0.747220 0.327667
Si Si2 0.741963 0.113141 0.150457
Si Si3 0.130643 0.500000 0.000000
Si Si4 0.021206 0.290053 0.144856
Si Si5 0.000000 0.076022 0.750000
Si Si6 0.629582 0.726585 0.465969
O O1 0.190646 0.631350 0.243048
O O2 0.069270 0.813169 0.296747
O O3 0.146289 0.668003 0.434772
O O4 0.213192 0.917576 0.337765
O O5 0.686462 0.130676 0.060212
O O6 0.809970 0.247902 0.118792
O O7 0.082848 0.606838 0.918771
O O8 0.000000 0.377348 0.250000
O O9 0.037718 0.071189 0.173980
O O10 0.948842 0.279998 0.078594
O O11 0.626940 0.500000 0.500000
#
# Coordination Sequence:
#
# PCOD9317566 Si02
#       6
#     8   8   4   8   4   8
#     4  11  24  43  69 100 136 176 225 272 342 402
#     4  11  24  43  68  97 136 176 220 283 331 399
#     4  12  26  40  68 100 136 174 228 282 336 392
#     4  10  23  41  66  92 132 178 218 271 333 401
#     4  10  22  44  70  92 136 180 218 276 330 418
#     4  10  19  43  65  86 133 178 207 268 338 394
#
# _framework density 22.774905
#
# number of rings (size 3 to 8) (size 9 to 14) (size 15 to 20)
#    0.600    0.800    7.000    0.000    8.400    1.600 
#    0.000    2.000    0.000    0.000    0.000    0.000 
#    0.000    0.000    0.000    0.000    0.000    0.000 
#
# Total GULP energy -111569.926475 kJ/mol
# GULP energy per Si atom -5578.496324 kJ/mol
# Density = 2.272307 g / cm^3
# Si number density = 22.774905 Si / 1000 Ang^3
#
#
#
# Elastic Constant Matrix: (Units=GPa)
#
#
# Indices 1 2 3 4 5 6 
#
# 1 88.7194 19.6207 14.8818 0.0000 0.0000 0.0000
# 2 19.6207 40.7739 18.2479 0.0000 0.0000 0.0000
# 3 14.8818 18.2479 118.8295 0.0000 0.0000 0.0000
# 4 0.0000 0.0000 0.0000 28.5142 0.0000 0.0000
# 5 0.0000 0.0000 0.0000 0.0000 4.4521 0.0000
# 6 0.0000 0.0000 0.0000 0.0000 0.0000 29.0521
#
#
#
# Elastic Compliance Matrix: (Units=1/GPa)
#
#
# Indices 1 2 3 4 5 6 
#
# 1 0.012668 -0.005783 -0.000698 0.000000 0.000000 0.000000
# 2 -0.005783 0.028976 -0.003725 0.000000 0.000000 0.000000
# 3 -0.000698 -0.003725 0.009075 0.000000 0.000000 0.000000
# 4 0.000000 0.000000 0.000000 0.035070 0.000000 0.000000
# 5 0.000000 0.000000 0.000000 0.000000 0.224615 0.000000
# 6 0.000000 0.000000 0.000000 0.000000 0.000000 0.034421
#
#
# Mechanical properties :
#
#
# Convention : Reuss Voigt Hill
#
# Bulk Modulus (GPa) = 32.99850 39.31374 36.15612
# Shear Modulus (GPa) = 13.32128 25.44184 19.38156
#
# Velocity S-wave (km/s) = 2.42112 3.34593 2.92036
# Velocity P-wave (km/s) = 4.72612 5.67682 5.22315
#
# Compressibility (1/GPa) = 0.03030441
#
# Stress axis : x y z
#
# Youngs Moduli (GPa) = 78.94152 34.51176 110.19341
#
# Poissons Ratio (x) = 0.19959 0.07695
# Poissons Ratio (y) = 0.45653 0.41051
# Poissons Ratio (z) = 0.05513 0.12857
#
# Static dielectric constant tensor:
#      x y z
#    x 1.765270 0.000000 0.000000 
#    y 0.000000 2.083520 0.000000 
#    z 0.000000 0.000000 2.127300 
# 
# From -- ./inp_files/20508.got.cif
#   From: 2010.05.17/outbox.cif.g08.bks.cpg/sg20_11_cif.got.tgz:20508.got - 2010.06.03 22:52:26.
