data_PCOD9317897
_publ_section_title
;
Structure prediction by ZEFSAII (Michael W. Deem and Ramdas Pophale) SiO2 
 PCOD9317897
Probable space group: C 2 2 21
;
_chemical_formula_sum "Si O2"
_cell_formula_units_Z 48
_cell_length_a 19.282721
_cell_length_b 5.118672
_cell_length_c 21.747657
_cell_angle_alpha 90.000000
_cell_angle_beta 90.000000
_cell_angle_gamma 90.000000
_cell_volume 2146.535590
_symmetry_space_group_name_H-M "C 2 2 21"
_symmetry_group_IT_number 20
_symmetry_cell_setting 'orthorhombic'
loop_
_space_group_symop_operation_xyz
x,y,z
-x,-y,1/2+z
x,-y,-z
-x,y,1/2-z
1/2+x,1/2+y,z
1/2-x,1/2-y,1/2+z
1/2+x,1/2-y,-z
1/2-x,1/2+y,1/2-z
loop_
_atom_site_type_symbol
_atom_site_label
_atom_site_fract_x
_atom_site_fract_y
_atom_site_fract_z
Si Si1 0.579966 0.077412 0.391962
Si Si2 0.925438 0.537134 0.360035
Si Si3 0.220784 0.460479 0.151516
Si Si4 0.073343 0.035856 0.220373
Si Si5 0.171403 0.323982 0.716477
Si Si6 0.157375 0.093140 0.433182
O O1 0.497948 0.032341 0.395058
O O2 0.617813 0.865211 0.433463
O O3 0.610480 0.036436 0.322446
O O4 0.604488 0.368545 0.409073
O O5 0.850818 0.449787 0.386143
O O6 0.917963 0.832925 0.335833
O O7 0.932006 0.328032 0.304363
O O8 0.199225 0.567172 0.219041
O O9 0.263476 0.202113 0.170595
O O10 0.277632 0.613043 0.112513
O O11 0.136091 0.956070 0.265572
O O12 0.000000 0.966211 0.250000
O O13 0.180874 0.000000 0.500000
#
# Coordination Sequence:
#
# PCOD9317897 Si02
#       6
#     8   8   8   8   8   8
#     4  11  23  41  68  92 124 165 216 265 315 385
#     4  11  23  37  59  94 127 167 208 255 314 368
#     4  10  22  37  62  94 132 164 205 253 316 381
#     4  11  21  33  56  90 135 170 199 242 298 378
#     4  10  20  36  60  97 132 173 200 248 313 395
#     4  11  25  46  67  88 119 168 220 271 325 381
#
# _framework density 22.361615
#
# number of rings (size 3 to 8) (size 9 to 14) (size 15 to 20)
#    0.000    1.333    1.667    4.000    4.667    4.000 
#    0.000    1.667    0.000    0.000    0.000    0.000 
#    0.000    0.000    0.000    0.000    0.000    0.000 
#
# Total GULP energy -133951.338515 kJ/mol
# GULP energy per Si atom -5581.305771 kJ/mol
# Density = 2.231072 g / cm^3
# Si number density = 22.361615 Si / 1000 Ang^3
#
#
#
# Elastic Constant Matrix: (Units=GPa)
#
#
# Indices 1 2 3 4 5 6 
#
# 1 177.4836 16.1359 9.1286 0.0000 0.0000 0.0000
# 2 16.1359 71.5649 10.8742 0.0000 0.0000 0.0000
# 3 9.1286 10.8742 47.3416 0.0000 0.0000 0.0000
# 4 0.0000 0.0000 0.0000 27.0904 0.0000 0.0000
# 5 0.0000 0.0000 0.0000 0.0000 7.9499 0.0000
# 6 0.0000 0.0000 0.0000 0.0000 0.0000 25.9075
#
#
#
# Elastic Compliance Matrix: (Units=1/GPa)
#
#
# Indices 1 2 3 4 5 6 
#
# 1 0.005785 -0.001176 -0.000845 0.000000 0.000000 0.000000
# 2 -0.001176 0.014718 -0.003154 0.000000 0.000000 0.000000
# 3 -0.000845 -0.003154 0.022011 0.000000 0.000000 0.000000
# 4 0.000000 0.000000 0.000000 0.036913 0.000000 0.000000
# 5 0.000000 0.000000 0.000000 0.000000 0.125788 0.000000
# 6 0.000000 0.000000 0.000000 0.000000 0.000000 0.038599
#
#
# Mechanical properties :
#
#
# Convention : Reuss Voigt Hill
#
# Bulk Modulus (GPa) = 31.09183 40.96305 36.02744
# Shear Modulus (GPa) = 18.87620 29.53966 24.20793
#
# Velocity S-wave (km/s) = 2.90855 3.63850 3.29381
# Velocity P-wave (km/s) = 5.02134 6.00082 5.53279
#
# Compressibility (1/GPa) = 0.03216279
#
# Stress axis : x y z
#
# Youngs Moduli (GPa) = 172.86970 67.94548 45.43283
#
# Poissons Ratio (x) = 0.07989 0.03841
# Poissons Ratio (y) = 0.20327 0.14329
# Poissons Ratio (z) = 0.14613 0.21429
#
# Static dielectric constant tensor:
#      x y z
#    x 1.882730 0.000000 0.000000 
#    y 0.000000 1.867250 0.000000 
#    z 0.000000 0.000000 1.835420 
# 
# From -- ./inp_files/29416.got.cif
#   From: 2010.05.17/outbox.cif.g08.bks.cpg/sg20_15_cif.got.tgz:29416.got - 2010.06.03 22:52:26.
