data_PCOD9317333
_publ_section_title
;
Structure prediction by ZEFSAII (Michael W. Deem and Ramdas Pophale) SiO2 
 PCOD9317333
Probable space group: C 2 2 21
;
_chemical_formula_sum "Si O2"
_cell_formula_units_Z 48
_cell_length_a 18.222380
_cell_length_b 5.772644
_cell_length_c 18.168543
_cell_angle_alpha 90.000000
_cell_angle_beta 90.000000
_cell_angle_gamma 90.000000
_cell_volume 1911.172886
_symmetry_space_group_name_H-M "C 2 2 21"
_symmetry_group_IT_number 20
_symmetry_cell_setting 'orthorhombic'
loop_
_space_group_symop_operation_xyz
x,y,z
-x,-y,1/2+z
x,-y,-z
-x,y,1/2-z
1/2+x,1/2+y,z
1/2-x,1/2-y,1/2+z
1/2+x,1/2-y,-z
1/2-x,1/2+y,1/2-z
loop_
_atom_site_type_symbol
_atom_site_label
_atom_site_fract_x
_atom_site_fract_y
_atom_site_fract_z
Si Si1 0.591606 0.500000 0.000000
Si Si2 0.476281 0.655290 0.356146
Si Si3 0.710957 0.432370 0.113189
Si Si4 0.156771 0.500000 0.500000
Si Si5 0.103206 0.920729 0.276858
Si Si6 0.000000 0.461424 0.750000
Si Si7 0.157713 0.000000 0.500000
Si Si8 0.752996 0.442453 0.352256
O O1 0.543713 0.362613 0.940663
O O2 0.649213 0.629567 0.947463
O O3 0.559608 0.587344 0.334078
O O4 0.427024 0.485087 0.304405
O O5 0.464159 0.896385 0.316152
O O6 0.788685 0.466922 0.070067
O O7 0.711672 0.195466 0.160092
O O8 0.702633 0.698517 0.144323
O O9 0.116930 0.750033 0.497314
O O10 0.187492 0.925370 0.294049
O O11 0.065723 0.674902 0.288557
O O12 0.212218 0.025509 0.569374
#
# Coordination Sequence:
#
# PCOD9317333 Si02
#       8
#     4   8   8   4   8   4   4   8
#     4  11  22  45  64  96 138 183 228 279 348 427
#     4   9  21  41  67  96 132 177 226 286 351 416
#     4   9  20  35  58  93 127 176 215 266 329 399
#     4   7  12  26  42  65 108 147 192 233 292 351
#     4   9  20  40  66  99 129 170 235 288 351 413
#     4   8  18  42  66 100 126 176 224 292 356 414
#     4   8  14  25  44  77 110 150 188 242 306 360
#     4  10  19  36  64  91 132 172 219 279 335 393
#
# _framework density 25.115468
#
# number of rings (size 3 to 8) (size 9 to 14) (size 15 to 20)
#    0.000    3.333    0.000    1.000    4.667    0.667 
#   12.000    1.667    3.667    0.000    0.000    0.000 
#    0.000    0.000    0.000    0.000    0.000    0.000 
#
# Total GULP energy -133797.954736 kJ/mol
# GULP energy per Si atom -5574.914781 kJ/mol
# Density = 2.505830 g / cm^3
# Si number density = 25.115468 Si / 1000 Ang^3
#
#
#
# Elastic Constant Matrix: (Units=GPa)
#
#
# Indices 1 2 3 4 5 6 
#
# 1 61.4681 26.5974 45.6379 0.0000 0.0000 0.0000
# 2 26.5974 195.3940 30.7741 0.0000 0.0000 0.0000
# 3 45.6379 30.7741 118.3111 0.0000 0.0000 0.0000
# 4 0.0000 0.0000 0.0000 13.8050 0.0000 0.0000
# 5 0.0000 0.0000 0.0000 0.0000 -10.3689 0.0000
# 6 0.0000 0.0000 0.0000 0.0000 0.0000 14.0260
#
#
#
# Elastic Compliance Matrix: (Units=1/GPa)
#
#
# Indices 1 2 3 4 5 6 
#
# 1 0.023416 -0.001840 -0.008554 0.000000 0.000000 0.000000
# 2 -0.001840 0.005481 -0.000716 0.000000 0.000000 0.000000
# 3 -0.008554 -0.000716 0.011938 0.000000 0.000000 0.000000
# 4 0.000000 0.000000 0.000000 0.072437 0.000000 0.000000
# 5 0.000000 0.000000 0.000000 0.000000 -0.096442 0.000000
# 6 0.000000 0.000000 0.000000 0.000000 0.000000 0.071296
#
#
# Mechanical properties :
#
#
# Convention : Reuss Voigt Hill
#
# Bulk Modulus (GPa) = 53.71957 64.57688 59.14822
# Shear Modulus (GPa) = 42.89953 21.63667 32.26810
#
# Velocity S-wave (km/s) = 4.13739 2.93830 3.58829
# Velocity P-wave (km/s) = 6.65278 6.10567 6.38509
#
# Compressibility (1/GPa) = 0.01861519
#
# Stress axis : x y z
#
# Youngs Moduli (GPa) = 42.70617 182.44516 83.76534
#
# Poissons Ratio (x) = 0.33573 0.71652
# Poissons Ratio (y) = 0.07859 0.05996
# Poissons Ratio (z) = 0.36530 0.13060
#
# Static dielectric constant tensor:
#      x y z
#    x 1.998270 0.000000 0.000000 
#    y 0.000000 2.114590 0.000000 
#    z 0.000000 0.000000 2.049800 
# 
# From -- ./inp_files/27876.got.cif
#   From: 2010.05.17/outbox.cif.g08.bks.cpg/sg20_14_cif.got.tgz:27876.got - 2010.06.03 22:52:26.
