data_PCOD9317492
_publ_section_title
;
Structure prediction by ZEFSAII (Michael W. Deem and Ramdas Pophale) SiO2 
 PCOD9317492
Probable space group: C 2 2 21
;
_chemical_formula_sum "Si O2"
_cell_formula_units_Z 60
_cell_length_a 27.598854
_cell_length_b 11.415089
_cell_length_c 9.725701
_cell_angle_alpha 90.000000
_cell_angle_beta 90.000000
_cell_angle_gamma 90.000000
_cell_volume 3064.017664
_symmetry_space_group_name_H-M "C 2 2 21"
_symmetry_group_IT_number 20
_symmetry_cell_setting 'orthorhombic'
loop_
_space_group_symop_operation_xyz
x,y,z
-x,-y,1/2+z
x,-y,-z
-x,y,1/2-z
1/2+x,1/2+y,z
1/2-x,1/2-y,1/2+z
1/2+x,1/2-y,-z
1/2-x,1/2+y,1/2-z
loop_
_atom_site_type_symbol
_atom_site_label
_atom_site_fract_x
_atom_site_fract_y
_atom_site_fract_z
Si Si1 0.316474 0.612356 0.548108
Si Si2 0.743309 0.499081 0.274374
Si Si3 0.870962 0.257958 0.031548
Si Si4 0.320450 0.199568 0.684372
Si Si5 0.659349 0.500000 0.500000
Si Si6 0.961500 0.416050 0.128035
Si Si7 0.826542 0.324570 0.742765
Si Si8 0.397401 0.014902 0.642400
O O1 0.347890 0.500000 0.500000
O O2 0.271892 0.549475 0.625739
O O3 0.309340 0.692847 0.414961
O O4 0.333180 0.701659 0.666363
O O5 0.778922 0.397931 0.331846
O O6 0.696092 0.504413 0.369989
O O7 0.772473 0.621367 0.264963
O O8 0.832641 0.273694 0.156982
O O9 0.922905 0.317161 0.072369
O O10 0.871974 0.118719 0.002310
O O11 0.846998 0.317110 0.896864
O O12 0.371116 0.139748 0.640412
O O13 0.928992 0.498843 0.223985
O O14 0.000000 0.374336 0.250000
O O15 0.976107 0.500000 0.000000
O O16 0.856410 0.418406 0.656216
O O17 0.424047 0.000000 0.500000
#
# Coordination Sequence:
#
# PCOD9317492 Si02
#       8
#     8   8   8   8   4   8   8   8
#     4  12  25  37  55  85 121 172 234 278 311 369
#     4  11  26  35  62  84 127 188 234 281 309 374
#     4  11  25  43  64  94 134 177 217 285 338 405
#     4  10  24  38  56  85 128 168 228 271 328 370
#     4  12  24  40  58  96 130 184 234 266 320 384
#     4  11  23  43  72 106 130 154 211 278 360 427
#     4  11  23  42  60  87 133 176 231 269 330 387
#     4  10  19  39  65  93 128 169 196 265 336 402
#
# _framework density 19.582132999999999
#
# number of rings (size 3 to 8) (size 9 to 14) (size 15 to 20)
#    0.000    1.067    4.000    2.000    9.333    0.000 
#    0.000    0.000    0.000    0.800    6.933    0.000 
#    0.000    0.000    0.000    0.000    0.000    0.000 
#
# Total GULP energy -167119.259600 kJ/mol
# GULP energy per Si atom -5570.641987 kJ/mol
# Density = 1.953756 g / cm^3
# Si number density = 19.582133 Si / 1000 Ang^3
#
#
#
# Elastic Constant Matrix: (Units=GPa)
#
#
# Indices 1 2 3 4 5 6 
#
# 1 77.5913 38.4890 43.3077 0.0000 0.0000 0.0000
# 2 38.4890 116.6034 49.5647 0.0000 0.0000 0.0000
# 3 43.3077 49.5647 158.5569 0.0000 0.0000 0.0000
# 4 0.0000 0.0000 0.0000 35.4063 0.0000 0.0000
# 5 0.0000 0.0000 0.0000 0.0000 21.8593 0.0000
# 6 0.0000 0.0000 0.0000 0.0000 0.0000 -1.3760
#
#
#
# Elastic Compliance Matrix: (Units=1/GPa)
#
#
# Indices 1 2 3 4 5 6 
#
# 1 0.016777 -0.004140 -0.003288 0.000000 0.000000 0.000000
# 2 -0.004140 0.010912 -0.002280 0.000000 0.000000 0.000000
# 3 -0.003288 -0.002280 0.007918 0.000000 0.000000 0.000000
# 4 0.000000 0.000000 0.000000 0.028244 0.000000 0.000000
# 5 0.000000 0.000000 0.000000 0.000000 0.045747 0.000000
# 6 0.000000 0.000000 0.000000 0.000000 0.000000 -0.726738
#
#
# Mechanical properties :
#
#
# Convention : Reuss Voigt Hill
#
# Bulk Modulus (GPa) = 61.76790 68.38604 65.07697
# Shear Modulus (GPa) = -8.44128 25.93728 8.74800
#
# Velocity S-wave (km/s) = -2.07848 3.64337 2.11590
# Velocity P-wave (km/s) = 5.08442 7.25929 6.26693
#
# Compressibility (1/GPa) = 0.01618964
#
# Stress axis : x y z
#
# Youngs Moduli (GPa) = 59.60511 91.64280 126.29743
#
# Poissons Ratio (x) = 0.37941 0.41530
# Poissons Ratio (y) = 0.24677 0.28799
# Poissons Ratio (z) = 0.19600 0.20897
#
# Static dielectric constant tensor:
#      x y z
#    x 1.730290 0.000000 0.000000 
#    y 0.000000 1.732960 0.000000 
#    z 0.000000 0.000000 1.814290 
# 
# From -- ./inp_files/11130.got.cif
#   From: 2010.05.17/outbox.cif.g08.bks.cpg/sg20_6_cif.got.tgz:11130.got - 2010.06.03 22:52:26.
