data_PCOD9317030
_publ_section_title
;
Structure prediction by ZEFSAII (Michael W. Deem and Ramdas Pophale) SiO2 
 PCOD9317030
Probable space group: C 2 2 21
;
_chemical_formula_sum "Si O2"
_cell_formula_units_Z 56
_cell_length_a 13.462579
_cell_length_b 7.436566
_cell_length_c 24.420673
_cell_angle_alpha 90.000000
_cell_angle_beta 90.000000
_cell_angle_gamma 90.000000
_cell_volume 2444.884402
_symmetry_space_group_name_H-M "C 2 2 21"
_symmetry_group_IT_number 20
_symmetry_cell_setting 'orthorhombic'
loop_
_space_group_symop_operation_xyz
x,y,z
-x,-y,1/2+z
x,-y,-z
-x,y,1/2-z
1/2+x,1/2+y,z
1/2-x,1/2-y,1/2+z
1/2+x,1/2-y,-z
1/2-x,1/2+y,1/2-z
loop_
_atom_site_type_symbol
_atom_site_label
_atom_site_fract_x
_atom_site_fract_y
_atom_site_fract_z
Si Si1 0.716118 0.081666 0.680488
Si Si2 0.408447 0.303240 0.369236
Si Si3 0.915255 0.133729 0.449898
Si Si4 0.380064 0.706406 0.096605
Si Si5 0.319695 0.981801 0.412084
Si Si6 0.781851 0.320545 0.295204
Si Si7 0.435079 0.468714 0.198100
O O1 0.811948 0.208753 0.669635
O O2 0.658528 0.106471 0.622667
O O3 0.664858 0.146543 0.737088
O O4 0.756038 0.883792 0.691127
O O5 0.399071 0.495897 0.399165
O O6 0.506120 0.307145 0.332413
O O7 0.399722 0.142845 0.412607
O O8 0.844881 0.308581 0.448452
O O9 0.900477 0.000000 0.500000
O O10 0.029237 0.204322 0.445390
O O11 0.287320 0.578461 0.078946
O O12 0.423451 0.617114 0.151740
O O13 0.327316 0.904896 0.349867
O O14 0.674649 0.411737 0.286672
O O15 0.500000 0.521489 0.250000
#
# Coordination Sequence:
#
# PCOD9317030 Si02
#       7
#     8   8   8   8   8   8   8
#     4  11  20  36  57  92 128 173 201 256 311 387
#     4  10  21  39  62  90 126 160 211 263 320 381
#     4  11  24  46  68  92 121 168 221 279 335 387
#     4   9  23  40  60  90 130 164 213 269 319 383
#     4  10  22  43  65  93 131 168 207 271 324 386
#     4  11  21  34  59  91 132 171 215 240 320 395
#     4  10  19  33  55  86 125 166 203 256 297 384
#
# _framework density 22.904966000000002
#
# number of rings (size 3 to 8) (size 9 to 14) (size 15 to 20)
#    0.000    1.714    2.857    2.571    2.000    0.571 
#    5.143    0.714    0.000    0.000    0.000    0.000 
#    0.000    0.000    0.000    0.000    0.000    0.000 
#
# Total GULP energy -156249.128298 kJ/mol
# GULP energy per Si atom -5580.326011 kJ/mol
# Density = 2.285283 g / cm^3
# Si number density = 22.904966 Si / 1000 Ang^3
#
#
#
# Elastic Constant Matrix: (Units=GPa)
#
#
# Indices 1 2 3 4 5 6 
#
# 1 47.6252 -4.4261 10.2957 0.0000 0.0000 0.0000
# 2 -4.4261 93.7046 -18.8522 0.0000 0.0000 0.0000
# 3 10.2957 -18.8522 21.2718 0.0000 0.0000 0.0000
# 4 0.0000 0.0000 0.0000 19.4798 0.0000 0.0000
# 5 0.0000 0.0000 0.0000 0.0000 21.9535 0.0000
# 6 0.0000 0.0000 0.0000 0.0000 0.0000 20.2615
#
#
#
# Elastic Compliance Matrix: (Units=1/GPa)
#
#
# Indices 1 2 3 4 5 6 
#
# 1 0.023610 -0.001441 -0.012704 0.000000 0.000000 0.000000
# 2 -0.001441 0.013075 0.012286 0.000000 0.000000 0.000000
# 3 -0.012704 0.012286 0.064048 0.000000 0.000000 0.000000
# 4 0.000000 0.000000 0.000000 0.051335 0.000000 0.000000
# 5 0.000000 0.000000 0.000000 0.000000 0.045551 0.000000
# 6 0.000000 0.000000 0.000000 0.000000 0.000000 0.049355
#
#
# Mechanical properties :
#
#
# Convention : Reuss Voigt Hill
#
# Bulk Modulus (GPa) = 10.30777 15.18182 12.74479
# Shear Modulus (GPa) = 17.66595 24.04458 20.85526
#
# Velocity S-wave (km/s) = 2.78019 3.24351 3.02074
# Velocity P-wave (km/s) = 3.84915 4.54639 4.21222
#
# Compressibility (1/GPa) = 0.09701416
#
# Stress axis : x y z
#
# Youngs Moduli (GPa) = 42.35532 76.47908 15.61339
#
# Poissons Ratio (x) = 0.11018 0.19835
# Poissons Ratio (y) = 0.06102 -0.19182
# Poissons Ratio (z) = 0.53809 -0.93958
#
# Static dielectric constant tensor:
#      x y z
#    x 1.912080 0.000000 0.000000 
#    y 0.000000 1.916970 0.000000 
#    z 0.000000 0.000000 1.953100 
# 
# From -- ./inp_files/27564.got.cif
#   From: 2010.05.17/outbox.cif.g08.bks.cpg/sg20_14_cif.got.tgz:27564.got - 2010.06.03 22:52:26.
