data_PCOD9317073
_publ_section_title
;
Structure prediction by ZEFSAII (Michael W. Deem and Ramdas Pophale) SiO2 
 PCOD9317073
Probable space group: C 2 2 21
;
_chemical_formula_sum "Si O2"
_cell_formula_units_Z 48
_cell_length_a 20.610924
_cell_length_b 16.438560
_cell_length_c 7.791028
_cell_angle_alpha 90.000000
_cell_angle_beta 90.000000
_cell_angle_gamma 90.000000
_cell_volume 2639.708666
_symmetry_space_group_name_H-M "C 2 2 21"
_symmetry_group_IT_number 20
_symmetry_cell_setting 'orthorhombic'
loop_
_space_group_symop_operation_xyz
x,y,z
-x,-y,1/2+z
x,-y,-z
-x,y,1/2-z
1/2+x,1/2+y,z
1/2-x,1/2-y,1/2+z
1/2+x,1/2-y,-z
1/2-x,1/2+y,1/2-z
loop_
_atom_site_type_symbol
_atom_site_label
_atom_site_fract_x
_atom_site_fract_y
_atom_site_fract_z
Si Si1 0.130920 0.131055 0.358256
Si Si2 0.815982 0.317064 0.871855
Si Si3 0.074990 0.971983 0.192480
Si Si4 0.071859 0.803233 0.316172
Si Si5 0.222454 0.407465 0.942896
Si Si6 0.189955 0.715483 0.773106
O O1 0.076390 0.160765 0.491058
O O2 0.201917 0.120960 0.444763
O O3 0.141562 0.206331 0.226974
O O4 0.112104 0.042137 0.294506
O O5 0.883326 0.275346 0.819231
O O6 0.802412 0.394779 0.752412
O O7 0.759926 0.255614 0.807829
O O8 0.812762 0.321603 0.079403
O O9 0.100520 0.880220 0.211581
O O10 0.000000 0.969681 0.250000
O O11 0.077820 0.000000 0.000000
O O12 0.000000 0.786813 0.250000
O O13 0.218674 0.500000 0.000000
O O14 0.183165 0.350262 0.076120
#
# Coordination Sequence:
#
# PCOD9317073 Si02
#       6
#     8   8   8   8   8   8
#     4  10  21  37  53  81 116 148 188 230 276 349
#     4  10  20  35  57  80 112 145 190 228 281 346
#     4  11  22  33  51  80 119 156 189 222 268 338
#     4  10  19  34  55  78 113 152 183 228 274 330
#     4  11  22  37  58  83 112 144 188 244 288 331
#     4  10  19  36  57  78 113 148 179 235 285 328
#
# _framework density 18.183824999999999
#
# number of rings (size 3 to 8) (size 9 to 14) (size 15 to 20)
#    0.000    1.667    5.000    3.500    2.333    0.667 
#    0.000    0.000    0.000    0.000    8.667    0.000 
#    0.000    0.000    0.000    0.000    0.000    0.000 
#
# Total GULP energy -133746.151617 kJ/mol
# GULP energy per Si atom -5572.756317 kJ/mol
# Density = 1.814244 g / cm^3
# Si number density = 18.183825 Si / 1000 Ang^3
#
#
#
# Elastic Constant Matrix: (Units=GPa)
#
#
# Indices 1 2 3 4 5 6 
#
# 1 35.1369 -16.1914 4.4276 0.0000 0.0000 0.0000
# 2 -16.1914 40.5636 -2.4868 0.0000 0.0000 0.0000
# 3 4.4276 -2.4868 57.5210 0.0000 0.0000 0.0000
# 4 0.0000 0.0000 0.0000 37.1335 0.0000 0.0000
# 5 0.0000 0.0000 0.0000 0.0000 23.7968 0.0000
# 6 0.0000 0.0000 0.0000 0.0000 0.0000 -2.2347
#
#
#
# Elastic Compliance Matrix: (Units=1/GPa)
#
#
# Indices 1 2 3 4 5 6 
#
# 1 0.035127 0.013892 -0.002103 0.000000 0.000000 0.000000
# 2 0.013892 0.030212 0.000237 0.000000 0.000000 0.000000
# 3 -0.002103 0.000237 0.017557 0.000000 0.000000 0.000000
# 4 0.000000 0.000000 0.000000 0.026930 0.000000 0.000000
# 5 0.000000 0.000000 0.000000 0.000000 0.042022 0.000000
# 6 0.000000 0.000000 0.000000 0.000000 0.000000 -0.447486
#
#
# Mechanical properties :
#
#
# Convention : Reuss Voigt Hill
#
# Bulk Modulus (GPa) = 9.35032 11.63558 10.49295
# Shear Modulus (GPa) = -17.60315 21.57061 1.98373
#
# Velocity S-wave (km/s) = -3.11475 3.44794 1.04561
# Velocity P-wave (km/s) = 2.78968 4.71845 2.69086
#
# Compressibility (1/GPa) = 0.10694826
#
# Stress axis : x y z
#
# Youngs Moduli (GPa) = 28.46826 33.09895 56.95702
#
# Poissons Ratio (x) = -0.45982 0.11979
# Poissons Ratio (y) = -0.39549 -0.01349
# Poissons Ratio (z) = 0.05988 -0.00784
#
# Static dielectric constant tensor:
#      x y z
#    x 1.600890 0.000000 0.000000 
#    y 0.000000 1.660400 0.000000 
#    z 0.000000 0.000000 1.693290 
# 
# From -- ./inp_files/10052.got.cif
#   From: 2010.05.17/outbox.cif.g08.bks.cpg/sg20_6_cif.got.tgz:10052.got - 2010.06.03 22:52:26.
