data_PCOD9317748
_publ_section_title
;
Structure prediction by ZEFSAII (Michael W. Deem and Ramdas Pophale) SiO2 
 PCOD9317748
Probable space group: C 2 2 21
;
_chemical_formula_sum "Si O2"
_cell_formula_units_Z 64
_cell_length_a 31.090787
_cell_length_b 12.675990
_cell_length_c 8.023282
_cell_angle_alpha 90.000000
_cell_angle_beta 90.000000
_cell_angle_gamma 90.000000
_cell_volume 3162.027628
_symmetry_space_group_name_H-M "C 2 2 21"
_symmetry_group_IT_number 20
_symmetry_cell_setting 'orthorhombic'
loop_
_space_group_symop_operation_xyz
x,y,z
-x,-y,1/2+z
x,-y,-z
-x,y,1/2-z
1/2+x,1/2+y,z
1/2-x,1/2-y,1/2+z
1/2+x,1/2-y,-z
1/2-x,1/2+y,1/2-z
loop_
_atom_site_type_symbol
_atom_site_label
_atom_site_fract_x
_atom_site_fract_y
_atom_site_fract_z
Si Si1 0.875055 0.333285 0.851987
Si Si2 0.742890 0.635308 0.899237
Si Si3 0.850025 0.889295 0.304002
Si Si4 0.766183 0.132199 0.204884
Si Si5 0.689290 0.008158 0.786047
Si Si6 0.885467 0.349725 0.248758
Si Si7 0.861380 0.880194 0.704176
Si Si8 0.451258 0.976520 0.803440
O O1 0.864664 0.214107 0.795644
O O2 0.839875 0.413140 0.779103
O O3 0.920622 0.374940 0.780442
O O4 0.875734 0.354261 0.050201
O O5 0.701842 0.595640 0.792230
O O6 0.749374 0.756208 0.856719
O O7 0.785878 0.577040 0.849177
O O8 0.736665 0.622952 0.094837
O O9 0.854048 0.875828 0.504001
O O10 0.874007 0.998428 0.258688
O O11 0.730381 0.052507 0.135847
O O12 0.817822 0.131637 0.184048
O O13 0.654293 0.095299 0.851223
O O14 0.889625 0.224547 0.273178
O O15 0.926876 0.423213 0.279668
O O16 0.500000 0.962247 0.750000
O O17 0.451622 0.000000 0.000000
#
# Coordination Sequence:
#
# PCOD9317748 Si02
#       8
#     8   8   8   8   8   8   8   8
#     4  10  20  35  56  80 105 138 179 216 262 321
#     4  11  20  31  46  66  98 143 187 223 261 303
#     4  10  21  34  48  72 107 146 185 222 261 303
#     4  11  20  31  46  66  98 143 187 223 261 303
#     4  11  19  32  52  72 104 146 181 224 271 305
#     4  10  20  35  56  80 105 138 179 216 262 321
#     4  10  21  34  48  72 107 146 185 222 261 303
#     4   9  20  38  62  90 112 132 162 208 269 333
#
# _framework density 20.240176999999999
#
# number of rings (size 3 to 8) (size 9 to 14) (size 15 to 20)
#    0.000    1.750    3.750    3.000    0.000    1.500 
#    0.000    3.750    0.000    0.750    0.000    0.000 
#    0.000    0.000    0.000    0.000    0.000    0.000 
#
# Total GULP energy -178363.158994 kJ/mol
# GULP energy per Si atom -5573.848719 kJ/mol
# Density = 2.019411 g / cm^3
# Si number density = 20.240177 Si / 1000 Ang^3
#
#
#
# Elastic Constant Matrix: (Units=GPa)
#
#
# Indices 1 2 3 4 5 6 
#
# 1 135.7506 53.6674 65.2368 0.0000 0.0000 0.0000
# 2 53.6674 139.3892 28.8131 0.0000 0.0000 0.0000
# 3 65.2368 28.8131 102.8815 0.0000 0.0000 0.0000
# 4 0.0000 0.0000 0.0000 41.0720 0.0000 0.0000
# 5 0.0000 0.0000 0.0000 0.0000 7.2991 0.0000
# 6 0.0000 0.0000 0.0000 0.0000 0.0000 17.6861
#
#
#
# Elastic Compliance Matrix: (Units=1/GPa)
#
#
# Indices 1 2 3 4 5 6 
#
# 1 0.011786 -0.003177 -0.006584 0.000000 0.000000 0.000000
# 2 -0.003177 0.008471 -0.000358 0.000000 0.000000 0.000000
# 3 -0.006584 -0.000358 0.013995 0.000000 0.000000 0.000000
# 4 0.000000 0.000000 0.000000 0.024347 0.000000 0.000000
# 5 0.000000 0.000000 0.000000 0.000000 0.137004 0.000000
# 6 0.000000 0.000000 0.000000 0.000000 0.000000 0.056542
#
#
# Mechanical properties :
#
#
# Convention : Reuss Voigt Hill
#
# Bulk Modulus (GPa) = 71.35248 74.82843 73.09045
# Shear Modulus (GPa) = 18.04692 28.56504 23.30598
#
# Velocity S-wave (km/s) = 2.98927 3.76081 3.39701
# Velocity P-wave (km/s) = 6.87341 7.47721 7.18166
#
# Compressibility (1/GPa) = 0.01401493
#
# Stress axis : x y z
#
# Youngs Moduli (GPa) = 84.84290 118.04475 71.45376
#
# Poissons Ratio (x) = 0.37503 0.47045
# Poissons Ratio (y) = 0.26955 0.02558
# Poissons Ratio (z) = 0.55861 0.04225
#
# Static dielectric constant tensor:
#      x y z
#    x 1.713970 0.000000 0.000000 
#    y 0.000000 1.750760 0.000000 
#    z 0.000000 0.000000 1.801170 
# 
# From -- ./inp_files/11629.got.cif
#   From: 2010.05.17/outbox.cif.g08.bks.cpg/sg20_6_cif.got.tgz:11629.got - 2010.06.03 22:52:26.
