data_PCOD9317300
_publ_section_title
;
Structure prediction by ZEFSAII (Michael W. Deem and Ramdas Pophale) SiO2 
 PCOD9317300
Probable space group: C 2 2 21
;
_chemical_formula_sum "Si O2"
_cell_formula_units_Z 64
_cell_length_a 8.860632
_cell_length_b 26.953145
_cell_length_c 13.577563
_cell_angle_alpha 90.000000
_cell_angle_beta 90.000000
_cell_angle_gamma 90.000000
_cell_volume 3242.619381
_symmetry_space_group_name_H-M "C 2 2 21"
_symmetry_group_IT_number 20
_symmetry_cell_setting 'orthorhombic'
loop_
_space_group_symop_operation_xyz
x,y,z
-x,-y,1/2+z
x,-y,-z
-x,y,1/2-z
1/2+x,1/2+y,z
1/2-x,1/2-y,1/2+z
1/2+x,1/2-y,-z
1/2-x,1/2+y,1/2-z
loop_
_atom_site_type_symbol
_atom_site_label
_atom_site_fract_x
_atom_site_fract_y
_atom_site_fract_z
Si Si1 0.592710 0.112807 0.343221
Si Si2 0.079905 0.798038 0.142816
Si Si3 0.555429 0.557191 0.466255
Si Si4 0.834033 0.627537 0.795798
Si Si5 0.702688 0.637750 0.588859
Si Si6 0.290009 0.941750 0.021710
Si Si7 0.872481 0.689129 0.429527
Si Si8 0.358714 0.371680 0.797382
O O1 0.500000 0.092279 0.250000
O O2 0.599051 0.081304 0.441098
O O3 0.518047 0.164047 0.378592
O O4 0.755406 0.116743 0.295816
O O5 0.237932 0.827875 0.153716
O O6 0.113794 0.747233 0.086413
O O7 0.000000 0.787973 0.250000
O O8 0.951751 0.830441 0.088380
O O9 0.571467 0.500000 0.500000
O O10 0.676129 0.588772 0.526541
O O11 0.384758 0.571673 0.497833
O O12 0.588237 0.578511 0.356045
O O13 0.734718 0.619537 0.698425
O O14 0.832050 0.581598 0.872382
O O15 0.000000 0.637703 0.750000
O O16 0.836229 0.670548 0.540075
O O17 0.298647 0.000000 0.000000
O O18 0.734367 0.664295 0.368808
O O19 0.500000 0.344716 0.750000
#
# Coordination Sequence:
#
# PCOD9317300 Si02
#       8
#     8   8   8   8   8   8   8   8
#     4  10  21  39  59  87 128 162 199 268 325 378
#     4  10  21  41  63  91 129 175 220 264 318 389
#     4  10  21  39  62  92 122 163 218 266 314 383
#     4  11  24  42  65  93 134 171 218 267 327 385
#     4  10  22  42  63  93 128 171 217 265 319 389
#     4  11  23  39  63  92 125 166 217 267 321 391
#     4  10  22  39  63  93 128 169 208 265 332 373
#     4  10  19  36  60  90 122 160 210 259 319 385
#
# _framework density 19.737130000000001
#
# number of rings (size 3 to 8) (size 9 to 14) (size 15 to 20)
#    0.000    1.750    2.500    1.875    0.000    4.000 
#    0.000   11.250    0.000    0.000    0.000    0.000 
#    0.000    0.000    0.000    0.000    0.000    0.000 
#
# Total GULP energy -178230.710228 kJ/mol
# GULP energy per Si atom -5569.709695 kJ/mol
# Density = 1.969221 g / cm^3
# Si number density = 19.737130 Si / 1000 Ang^3
#
#
#
# Elastic Constant Matrix: (Units=GPa)
#
#
# Indices 1 2 3 4 5 6 
#
# 1 77.5141 38.0943 21.5789 0.0000 0.0000 0.0000
# 2 38.0943 91.8767 56.4172 0.0000 0.0000 0.0000
# 3 21.5789 56.4172 112.6195 0.0000 0.0000 0.0000
# 4 0.0000 0.0000 0.0000 20.4128 0.0000 0.0000
# 5 0.0000 0.0000 0.0000 0.0000 29.8263 0.0000
# 6 0.0000 0.0000 0.0000 0.0000 0.0000 16.1615
#
#
#
# Elastic Compliance Matrix: (Units=1/GPa)
#
#
# Indices 1 2 3 4 5 6 
#
# 1 0.016213 -0.006954 0.000377 0.000000 0.000000 0.000000
# 2 -0.006954 0.018702 -0.008037 0.000000 0.000000 0.000000
# 3 0.000377 -0.008037 0.012833 0.000000 0.000000 0.000000
# 4 0.000000 0.000000 0.000000 0.048989 0.000000 0.000000
# 5 0.000000 0.000000 0.000000 0.000000 0.033527 0.000000
# 6 0.000000 0.000000 0.000000 0.000000 0.000000 0.061875
#
#
# Mechanical properties :
#
#
# Convention : Reuss Voigt Hill
#
# Bulk Modulus (GPa) = 53.99031 57.13231 55.56131
# Shear Modulus (GPa) = 21.97400 24.34146 23.15773
#
# Velocity S-wave (km/s) = 3.34028 3.51562 3.42907
# Velocity P-wave (km/s) = 6.50313 6.74455 6.62494
#
# Compressibility (1/GPa) = 0.01852184
#
# Stress axis : x y z
#
# Youngs Moduli (GPa) = 61.67721 53.46934 77.92308
#
# Poissons Ratio (x) = 0.37182 -0.02938
# Poissons Ratio (y) = 0.42890 0.62623
# Poissons Ratio (z) = -0.02325 0.42971
#
# Static dielectric constant tensor:
#      x y z
#    x 1.649270 0.000000 0.000000 
#    y 0.000000 1.676050 0.000000 
#    z 0.000000 0.000000 1.756410 
# 
# From -- ./inp_files/19380.got.cif
#   From: 2010.05.17/outbox.cif.g08.bks.cpg/sg20_10_cif.got.tgz:19380.got - 2010.06.03 22:52:26.
