data_PCOD9317510
_publ_section_title
;
Structure prediction by ZEFSAII (Michael W. Deem and Ramdas Pophale) SiO2 
 PCOD9317510
Probable space group: C 2 2 21
;
_chemical_formula_sum "Si O2"
_cell_formula_units_Z 48
_cell_length_a 10.919184
_cell_length_b 8.910859
_cell_length_c 21.712054
_cell_angle_alpha 90.000000
_cell_angle_beta 90.000000
_cell_angle_gamma 90.000000
_cell_volume 2112.567852
_symmetry_space_group_name_H-M "C 2 2 21"
_symmetry_group_IT_number 20
_symmetry_cell_setting 'orthorhombic'
loop_
_space_group_symop_operation_xyz
x,y,z
-x,-y,1/2+z
x,-y,-z
-x,y,1/2-z
1/2+x,1/2+y,z
1/2-x,1/2-y,1/2+z
1/2+x,1/2-y,-z
1/2-x,1/2+y,1/2-z
loop_
_atom_site_type_symbol
_atom_site_label
_atom_site_fract_x
_atom_site_fract_y
_atom_site_fract_z
Si Si1 0.968011 0.643687 0.525887
Si Si2 0.166176 0.512784 0.618451
Si Si3 0.126090 0.384223 0.788867
Si Si4 0.136357 0.299047 0.256797
Si Si5 0.522802 0.266181 0.391506
Si Si6 0.070820 0.955306 0.928712
O O1 0.891604 0.500000 0.500000
O O2 0.008241 0.724849 0.463232
O O3 0.921537 0.775712 0.570308
O O4 0.079842 0.573099 0.563988
O O5 0.141042 0.609922 0.678683
O O6 0.303709 0.520220 0.596760
O O7 0.134091 0.338068 0.629686
O O8 0.145222 0.563828 0.792218
O O9 0.248337 0.311740 0.759809
O O10 0.090855 0.303911 0.852955
O O11 0.000000 0.360160 0.750000
O O12 0.000000 0.229339 0.250000
O O13 0.528453 0.447244 0.390025
O O14 0.060081 0.000000 0.000000
#
# Coordination Sequence:
#
# PCOD9317510 Si02
#       6
#     8   8   8   8   8   8
#     4   9  21  38  63  96 129 162 214 261 328 400
#     4  11  20  41  64  89 128 171 209 274 330 388
#     4  11  23  45  65  94 132 174 223 278 333 388
#     4  11  24  43  68  92 131 174 225 275 331 392
#     4  10  19  40  63  89 128 167 211 268 324 391
#     4  10  20  37  63  92 124 165 208 263 330 393
#
# _framework density 22.721163000000001
#
# number of rings (size 3 to 8) (size 9 to 14) (size 15 to 20)
#    0.000    1.667    5.000    1.500    0.000    2.000 
#    3.000    9.167    0.000    0.000    0.000    0.000 
#    0.000    0.000    0.000    0.000    0.000    0.000 
#
# Total GULP energy -133705.570679 kJ/mol
# GULP energy per Si atom -5571.065445 kJ/mol
# Density = 2.266945 g / cm^3
# Si number density = 22.721163 Si / 1000 Ang^3
#
#
#
# Elastic Constant Matrix: (Units=GPa)
#
#
# Indices 1 2 3 4 5 6 
#
# 1 89.9983 34.3785 4.2245 0.0000 0.0000 0.0000
# 2 34.3785 92.1045 3.6348 0.0000 0.0000 0.0000
# 3 4.2245 3.6348 59.1047 0.0000 0.0000 0.0000
# 4 0.0000 0.0000 0.0000 27.6974 0.0000 0.0000
# 5 0.0000 0.0000 0.0000 0.0000 23.9142 0.0000
# 6 0.0000 0.0000 0.0000 0.0000 0.0000 -6.2529
#
#
#
# Elastic Compliance Matrix: (Units=1/GPa)
#
#
# Indices 1 2 3 4 5 6 
#
# 1 0.012982 -0.004821 -0.000631 0.000000 0.000000 0.000000
# 2 -0.004821 0.012674 -0.000435 0.000000 0.000000 0.000000
# 3 -0.000631 -0.000435 0.016991 0.000000 0.000000 0.000000
# 4 0.000000 0.000000 0.000000 0.036105 0.000000 0.000000
# 5 0.000000 0.000000 0.000000 0.000000 0.041816 0.000000
# 6 0.000000 0.000000 0.000000 0.000000 0.000000 -0.159925
#
#
# Mechanical properties :
#
#
# Convention : Reuss Voigt Hill
#
# Bulk Modulus (GPa) = 32.39076 36.18699 34.28887
# Shear Modulus (GPa) = -289.15164 22.33639 -133.40762
#
# Velocity S-wave (km/s) = -11.29324 3.13879 -7.67089
# Velocity P-wave (km/s) = 12.48050 5.39418 7.95820
#
# Compressibility (1/GPa) = 0.03087301
#
# Stress axis : x y z
#
# Youngs Moduli (GPa) = 77.02688 78.90296 58.85472
#
# Poissons Ratio (x) = 0.38038 0.03716
# Poissons Ratio (y) = 0.37134 0.02559
# Poissons Ratio (z) = 0.04864 0.03431
#
# Static dielectric constant tensor:
#      x y z
#    x 1.825340 0.000000 0.000000 
#    y 0.000000 1.978470 0.000000 
#    z 0.000000 0.000000 1.888630 
# 
# From -- ./inp_files/29077.got.cif
#   From: 2010.05.17/outbox.cif.g08.bks.cpg/sg20_15_cif.got.tgz:29077.got - 2010.06.03 22:52:26.
