data_PCOD9317199
_publ_section_title
;
Structure prediction by ZEFSAII (Michael W. Deem and Ramdas Pophale) SiO2 
 PCOD9317199
Probable space group: C 2 2 21
;
_chemical_formula_sum "Si O2"
_cell_formula_units_Z 44
_cell_length_a 28.419514
_cell_length_b 7.999386
_cell_length_c 9.846503
_cell_angle_alpha 90.000000
_cell_angle_beta 90.000000
_cell_angle_gamma 90.000000
_cell_volume 2238.490822
_symmetry_space_group_name_H-M "C 2 2 21"
_symmetry_group_IT_number 20
_symmetry_cell_setting 'orthorhombic'
loop_
_space_group_symop_operation_xyz
x,y,z
-x,-y,1/2+z
x,-y,-z
-x,y,1/2-z
1/2+x,1/2+y,z
1/2-x,1/2-y,1/2+z
1/2+x,1/2-y,-z
1/2-x,1/2+y,1/2-z
loop_
_atom_site_type_symbol
_atom_site_label
_atom_site_fract_x
_atom_site_fract_y
_atom_site_fract_z
Si Si1 0.966004 0.586791 0.643935
Si Si2 0.000000 0.912282 0.750000
Si Si3 0.627283 0.942710 0.845182
Si Si4 0.275291 0.052982 0.655174
Si Si5 0.193262 0.064109 0.155008
Si Si6 0.407657 0.562254 0.655523
O O1 0.965843 0.500000 0.500000
O O2 0.987812 0.772827 0.634137
O O3 0.000000 0.496114 0.750000
O O4 0.913087 0.572287 0.702511
O O5 0.047099 0.020879 0.752433
O O6 0.605128 0.758547 0.843793
O O7 0.679715 0.948967 0.786459
O O8 0.635811 0.000000 0.000000
O O9 0.293242 0.242399 0.655600
O O10 0.264193 0.000000 0.500000
O O11 0.230383 0.029190 0.749794
O O12 0.139753 0.032393 0.201164
O O13 0.196033 0.000000 0.000000
O O14 0.415966 0.500000 0.500000
#
# Coordination Sequence:
#
# PCOD9317199 Si02
#       6
#     8   4   8   8   8   8
#     4   9  19  36  59  83 118 152 202 239 292 343
#     4  10  22  36  60  86 116 154 202 250 286 340
#     4  10  19  35  60  87 113 159 198 236 288 357
#     4  11  21  38  64  90 121 152 197 243 292 348
#     4  11  22  39  63  90 119 158 194 240 293 352
#     4  11  21  37  58  85 118 154 201 242 291 351
#
# _framework density 19.656101
#
# number of rings (size 3 to 8) (size 9 to 14) (size 15 to 20)
#    0.545    1.091    0.000    9.818    1.273    0.000 
#    0.000    1.818    4.000    0.000    0.000    0.000 
#    0.000    0.000    0.000    0.000    0.000    0.000 
#
# Total GULP energy -122588.212954 kJ/mol
# GULP energy per Si atom -5572.191498 kJ/mol
# Density = 1.961136 g / cm^3
# Si number density = 19.656101 Si / 1000 Ang^3
#
#
#
# Elastic Constant Matrix: (Units=GPa)
#
#
# Indices 1 2 3 4 5 6 
#
# 1 191.7079 51.5103 54.2413 0.0000 0.0000 0.0000
# 2 51.5103 131.1539 17.7415 0.0000 0.0000 0.0000
# 3 54.2413 17.7415 35.7212 0.0000 0.0000 0.0000
# 4 0.0000 0.0000 0.0000 23.3836 0.0000 0.0000
# 5 0.0000 0.0000 0.0000 0.0000 30.9447 0.0000
# 6 0.0000 0.0000 0.0000 0.0000 0.0000 35.3215
#
#
#
# Elastic Compliance Matrix: (Units=1/GPa)
#
#
# Indices 1 2 3 4 5 6 
#
# 1 0.009578 -0.001924 -0.013588 0.000000 0.000000 0.000000
# 2 -0.001924 0.008560 -0.001331 0.000000 0.000000 0.000000
# 3 -0.013588 -0.001331 0.049288 0.000000 0.000000 0.000000
# 4 0.000000 0.000000 0.000000 0.042765 0.000000 0.000000
# 5 0.000000 0.000000 0.000000 0.000000 0.032316 0.000000
# 6 0.000000 0.000000 0.000000 0.000000 0.000000 0.028311
#
#
# Mechanical properties :
#
#
# Convention : Reuss Voigt Hill
#
# Bulk Modulus (GPa) = 29.63692 67.28546 48.46119
# Shear Modulus (GPa) = 23.17500 33.60262 28.38881
#
# Velocity S-wave (km/s) = 3.43742 4.13913 3.80448
# Velocity P-wave (km/s) = 5.55562 7.55968 6.63377
#
# Compressibility (1/GPa) = 0.03374170
#
# Stress axis : x y z
#
# Youngs Moduli (GPa) = 104.40973 116.82111 20.28877
#
# Poissons Ratio (x) = 0.22471 0.27568
# Poissons Ratio (y) = 0.20083 0.02700
# Poissons Ratio (z) = 1.41872 0.15545
#
# Static dielectric constant tensor:
#      x y z
#    x 1.767090 0.000000 0.000000 
#    y 0.000000 1.759330 0.000000 
#    z 0.000000 0.000000 1.708770 
# 
# From -- ./inp_files/16617.got.cif
#   From: 2010.05.17/outbox.cif.g08.bks.cpg/sg20_9_cif.got.tgz:16617.got - 2010.06.03 22:52:26.
