data_PCOD9317890
_publ_section_title
;
Structure prediction by ZEFSAII (Michael W. Deem and Ramdas Pophale) SiO2 
 PCOD9317890
Probable space group: C 2 2 21
;
_chemical_formula_sum "Si O2"
_cell_formula_units_Z 64
_cell_length_a 5.290943
_cell_length_b 17.672856
_cell_length_c 33.680719
_cell_angle_alpha 90.000000
_cell_angle_beta 90.000000
_cell_angle_gamma 90.000000
_cell_volume 3149.351795
_symmetry_space_group_name_H-M "C 2 2 21"
_symmetry_group_IT_number 20
_symmetry_cell_setting 'orthorhombic'
loop_
_space_group_symop_operation_xyz
x,y,z
-x,-y,1/2+z
x,-y,-z
-x,y,1/2-z
1/2+x,1/2+y,z
1/2-x,1/2-y,1/2+z
1/2+x,1/2-y,-z
1/2-x,1/2+y,1/2-z
loop_
_atom_site_type_symbol
_atom_site_label
_atom_site_fract_x
_atom_site_fract_y
_atom_site_fract_z
Si Si1 0.894422 0.200203 0.993025
Si Si2 0.176347 0.778451 0.405265
Si Si3 0.691937 0.979933 0.614428
Si Si4 0.011473 0.867949 0.928296
Si Si5 0.708602 0.567903 0.635575
Si Si6 0.622266 0.848859 0.861733
Si Si7 0.748522 0.346926 0.727194
Si Si8 0.750010 0.530237 0.727464
O O1 0.909206 0.137027 0.027179
O O2 0.640221 0.247023 0.001646
O O3 0.895373 0.180375 0.946567
O O4 0.386572 0.716058 0.417166
O O5 0.229528 0.844095 0.374532
O O6 0.969564 0.724784 0.385071
O O7 0.605117 0.910527 0.644061
O O8 0.770925 0.930681 0.576086
O O9 0.442447 0.030267 0.611930
O O10 0.932445 0.031375 0.626257
O O11 0.817230 0.885764 0.892866
O O12 0.753857 0.553614 0.681898
O O13 0.739179 0.828743 0.819476
O O14 0.500000 0.319389 0.750000
O O15 0.745921 0.438629 0.728558
O O16 0.000000 0.320886 0.750000
O O17 0.500000 0.557461 0.750000
O O18 0.000000 0.556272 0.750000
#
# Coordination Sequence:
#
# PCOD9317890 Si02
#       8
#     8   8   8   8   8   8   8   8
#     4  10  20  39  65  97 122 166 218 261 304 379
#     4  10  25  39  68  96 133 169 210 263 321 390
#     4  11  23  38  67  92 126 170 210 263 312 385
#     4  10  21  41  71  93 124 166 221 262 309 376
#     4  12  24  41  64  96 131 167 211 259 329 385
#     4  11  21  42  67  96 124 171 216 260 322 375
#     4  10  22  34  60  92 119 152 213 272 305 357
#     4  10  20  36  60  88 118 162 213 259 306 374
#
# _framework density 20.321639999999999
#
# number of rings (size 3 to 8) (size 9 to 14) (size 15 to 20)
#    0.000    1.500    3.750    0.750    8.750    0.000 
#    0.000    1.250    2.750    0.000    0.000    0.000 
#    0.000    0.000    0.000    0.000    0.000    0.000 
#
# Total GULP energy -178443.675360 kJ/mol
# GULP energy per Si atom -5576.364855 kJ/mol
# Density = 2.027539 g / cm^3
# Si number density = 20.321640 Si / 1000 Ang^3
#
#
#
# Elastic Constant Matrix: (Units=GPa)
#
#
# Indices 1 2 3 4 5 6 
#
# 1 115.7292 13.3329 16.3874 0.0000 0.0000 0.0000
# 2 13.3329 30.7702 -18.9414 0.0000 0.0000 0.0000
# 3 16.3874 -18.9414 35.4208 0.0000 0.0000 0.0000
# 4 0.0000 0.0000 0.0000 14.4049 0.0000 0.0000
# 5 0.0000 0.0000 0.0000 0.0000 29.0632 0.0000
# 6 0.0000 0.0000 0.0000 0.0000 0.0000 8.6353
#
#
#
# Elastic Compliance Matrix: (Units=1/GPa)
#
#
# Indices 1 2 3 4 5 6 
#
# 1 0.011835 -0.012669 -0.012251 0.000000 0.000000 0.000000
# 2 -0.012669 0.062009 0.039021 0.000000 0.000000 0.000000
# 3 -0.012251 0.039021 0.054766 0.000000 0.000000 0.000000
# 4 0.000000 0.000000 0.000000 0.069421 0.000000 0.000000
# 5 0.000000 0.000000 0.000000 0.000000 0.034408 0.000000
# 6 0.000000 0.000000 0.000000 0.000000 0.000000 0.115803
#
#
# Mechanical properties :
#
#
# Convention : Reuss Voigt Hill
#
# Bulk Modulus (GPa) = 6.37702 22.60868 14.49285
# Shear Modulus (GPa) = 13.42962 21.83010 17.62986
#
# Velocity S-wave (km/s) = 2.57350 3.28110 2.94860
# Velocity P-wave (km/s) = 3.46054 5.05012 4.32892
#
# Compressibility (1/GPa) = 0.15681317
#
# Stress axis : x y z
#
# Youngs Moduli (GPa) = 84.49393 16.12662 18.25939
#
# Poissons Ratio (x) = 0.20431 0.22369
# Poissons Ratio (y) = 1.07049 -0.71250
# Poissons Ratio (z) = 1.03510 -0.62928
#
# Static dielectric constant tensor:
#      x y z
#    x 1.778030 0.000000 0.000000 
#    y 0.000000 1.710640 0.000000 
#    z 0.000000 0.000000 1.721740 
# 
# From -- ./inp_files/30842.got.cif
#   From: 2010.05.17/outbox.cif.g08.bks.cpg/sg20_16_cif.got.tgz:30842.got - 2010.06.03 22:52:26.
