data_PCOD9317651
_publ_section_title
;
Structure prediction by ZEFSAII (Michael W. Deem and Ramdas Pophale) SiO2 
 PCOD9317651
Probable space group: C 2 2 21
;
_chemical_formula_sum "Si O2"
_cell_formula_units_Z 44
_cell_length_a 8.822727
_cell_length_b 17.630151
_cell_length_c 12.237083
_cell_angle_alpha 90.000000
_cell_angle_beta 90.000000
_cell_angle_gamma 90.000000
_cell_volume 1903.429425
_symmetry_space_group_name_H-M "C 2 2 21"
_symmetry_group_IT_number 20
_symmetry_cell_setting 'orthorhombic'
loop_
_space_group_symop_operation_xyz
x,y,z
-x,-y,1/2+z
x,-y,-z
-x,y,1/2-z
1/2+x,1/2+y,z
1/2-x,1/2-y,1/2+z
1/2+x,1/2-y,-z
1/2-x,1/2+y,1/2-z
loop_
_atom_site_type_symbol
_atom_site_label
_atom_site_fract_x
_atom_site_fract_y
_atom_site_fract_z
Si Si1 0.825567 0.269924 0.291842
Si Si2 0.121330 0.358445 0.831743
Si Si3 0.073058 0.888536 0.629011
Si Si4 0.647444 0.604607 0.814845
Si Si5 0.852915 0.000000 0.500000
Si Si6 0.451884 0.266933 0.486737
O O1 0.719977 0.206444 0.233353
O O2 0.754789 0.352214 0.269636
O O3 0.828399 0.246431 0.418280
O O4 0.000000 0.273982 0.250000
O O5 0.253968 0.415243 0.866191
O O6 0.033625 0.313793 0.927584
O O7 0.000000 0.392140 0.750000
O O8 0.000000 0.881788 0.750000
O O9 0.961425 0.940922 0.561320
O O10 0.077738 0.810007 0.559103
O O11 0.500000 0.573108 0.750000
O O12 0.589801 0.673299 0.892793
O O13 0.722695 0.545300 0.899386
#
# Coordination Sequence:
#
# PCOD9317651 Si02
#       6
#     8   8   8   8   4   8
#     4  11  20  36  60  99 135 163 199 266 341 398
#     4  11  23  34  59  99 134 163 206 265 328 405
#     4  11  21  41  62  91 129 172 216 268 318 383
#     4  10  23  38  63  95 126 173 231 272 312 400
#     4  10  24  42  68  88 120 186 234 264 312 380
#     4  10  20  33  61  92 136 161 198 260 341 389
#
# _framework density 23.116168999999999
#
# number of rings (size 3 to 8) (size 9 to 14) (size 15 to 20)
#    0.000    1.455    3.636    2.727    7.636    0.000 
#    0.000    0.000    0.000    6.545    0.000    0.000 
#    0.000    0.000    0.000    0.000    0.000    0.000 
#
# Total GULP energy -122637.211924 kJ/mol
# GULP energy per Si atom -5574.418724 kJ/mol
# Density = 2.306356 g / cm^3
# Si number density = 23.116169 Si / 1000 Ang^3
#
#
#
# Elastic Constant Matrix: (Units=GPa)
#
#
# Indices 1 2 3 4 5 6 
#
# 1 71.8339 -5.9848 10.4122 0.0000 0.0000 0.0000
# 2 -5.9848 19.2557 0.7919 0.0000 0.0000 0.0000
# 3 10.4122 0.7919 106.6014 0.0000 0.0000 0.0000
# 4 0.0000 0.0000 0.0000 37.1678 0.0000 0.0000
# 5 0.0000 0.0000 0.0000 0.0000 38.7070 0.0000
# 6 0.0000 0.0000 0.0000 0.0000 0.0000 16.3255
#
#
#
# Elastic Compliance Matrix: (Units=1/GPa)
#
#
# Indices 1 2 3 4 5 6 
#
# 1 0.014512 0.004570 -0.001451 0.000000 0.000000 0.000000
# 2 0.004570 0.053388 -0.000843 0.000000 0.000000 0.000000
# 3 -0.001451 -0.000843 0.009529 0.000000 0.000000 0.000000
# 4 0.000000 0.000000 0.000000 0.026905 0.000000 0.000000
# 5 0.000000 0.000000 0.000000 0.000000 0.025835 0.000000
# 6 0.000000 0.000000 0.000000 0.000000 0.000000 0.061254
#
#
# Mechanical properties :
#
#
# Convention : Reuss Voigt Hill
#
# Bulk Modulus (GPa) = 12.19808 23.12552 17.66180
# Shear Modulus (GPa) = 23.34290 31.27149 27.30720
#
# Velocity S-wave (km/s) = 3.18120 3.68203 3.44074
# Velocity P-wave (km/s) = 4.33378 5.30115 4.84169
#
# Compressibility (1/GPa) = 0.08198009
#
# Stress axis : x y z
#
# Youngs Moduli (GPa) = 68.90777 18.73091 104.94540
#
# Poissons Ratio (x) = -0.08560 0.15232
# Poissons Ratio (y) = -0.31492 0.08847
# Poissons Ratio (z) = 0.10001 0.01579
#
# Static dielectric constant tensor:
#      x y z
#    x 1.930900 0.000000 0.000000 
#    y 0.000000 1.932880 0.000000 
#    z 0.000000 0.000000 2.177130 
# 
# From -- ./inp_files/13033.got.cif
#   From: 2010.05.17/outbox.cif.g08.bks.cpg/sg20_7_cif.got.tgz:13033.got - 2010.06.03 22:52:26.
