data_PCOD9317256
_publ_section_title
;
Structure prediction by ZEFSAII (Michael W. Deem and Ramdas Pophale) SiO2 
 PCOD9317256
Probable space group: C 2 2 21
;
_chemical_formula_sum "Si O2"
_cell_formula_units_Z 44
_cell_length_a 8.441707
_cell_length_b 18.353921
_cell_length_c 11.591855
_cell_angle_alpha 90.000000
_cell_angle_beta 90.000000
_cell_angle_gamma 90.000000
_cell_volume 1796.023738
_symmetry_space_group_name_H-M "C 2 2 21"
_symmetry_group_IT_number 20
_symmetry_cell_setting 'orthorhombic'
loop_
_space_group_symop_operation_xyz
x,y,z
-x,-y,1/2+z
x,-y,-z
-x,y,1/2-z
1/2+x,1/2+y,z
1/2-x,1/2-y,1/2+z
1/2+x,1/2-y,-z
1/2-x,1/2+y,1/2-z
loop_
_atom_site_type_symbol
_atom_site_label
_atom_site_fract_x
_atom_site_fract_y
_atom_site_fract_z
Si Si1 0.160216 0.688214 0.810575
Si Si2 0.855189 0.453009 0.697144
Si Si3 0.505825 0.818693 0.944459
Si Si4 0.181575 0.848238 0.871451
Si Si5 0.500000 0.695844 0.750000
Si Si6 0.962374 0.968932 0.882092
O O1 0.175037 0.776133 0.793916
O O2 0.330363 0.656889 0.771406
O O3 0.000000 0.662705 0.750000
O O4 0.116222 0.684495 0.945077
O O5 0.934778 0.387130 0.628260
O O6 0.757770 0.414474 0.799630
O O7 0.723441 0.487494 0.618000
O O8 0.000000 0.497997 0.750000
O O9 0.316501 0.830617 0.967041
O O10 0.517872 0.747689 0.862987
O O11 0.009503 0.882655 0.895733
O O12 0.000000 0.993342 0.750000
O O13 0.037409 0.000000 0.000000
#
# Coordination Sequence:
#
# PCOD9317256 Si02
#       6
#     8   8   8   8   4   8
#     4  11  22  34  56  86 124 163 207 244 299 357
#     4   9  16  36  59  82 112 154 204 246 288 373
#     4  10  19  36  56  84 119 153 207 246 284 358
#     4   9  19  34  58  82 112 157 205 246 290 368
#     4  10  22  34  50  84 118 152 208 246 282 346
#     4  10  21  38  64  91 117 154 204 262 322 375
#
# _framework density 24.498562
#
# number of rings (size 3 to 8) (size 9 to 14) (size 15 to 20)
#    0.000    2.182    4.545    1.636    5.091    0.000 
#    0.000   10.000    2.000    0.000    0.000    0.000 
#    0.000    0.000    0.000    0.000    0.000    0.000 
#
# Total GULP energy -122471.617294 kJ/mol
# GULP energy per Si atom -5566.891695 kJ/mol
# Density = 2.444280 g / cm^3
# Si number density = 24.498562 Si / 1000 Ang^3
#
#
#
# Elastic Constant Matrix: (Units=GPa)
#
#
# Indices 1 2 3 4 5 6 
#
# 1 181.9365 17.3579 64.8935 0.0000 0.0000 0.0000
# 2 17.3579 48.1444 -0.5209 0.0000 0.0000 0.0000
# 3 64.8935 -0.5209 106.4838 0.0000 0.0000 0.0000
# 4 0.0000 0.0000 0.0000 -3.9756 0.0000 0.0000
# 5 0.0000 0.0000 0.0000 0.0000 37.5006 0.0000
# 6 0.0000 0.0000 0.0000 0.0000 0.0000 17.4945
#
#
#
# Elastic Compliance Matrix: (Units=1/GPa)
#
#
# Indices 1 2 3 4 5 6 
#
# 1 0.007358 -0.002702 -0.004498 0.000000 0.000000 0.000000
# 2 -0.002702 0.021764 0.001753 0.000000 0.000000 0.000000
# 3 -0.004498 0.001753 0.012141 0.000000 0.000000 0.000000
# 4 0.000000 0.000000 0.000000 -0.251533 0.000000 0.000000
# 5 0.000000 0.000000 0.000000 0.000000 0.026666 0.000000
# 6 0.000000 0.000000 0.000000 0.000000 0.000000 0.057161
#
#
# Mechanical properties :
#
#
# Convention : Reuss Voigt Hill
#
# Bulk Modulus (GPa) = 32.92700 55.55841 44.24270
# Shear Modulus (GPa) = -47.42592 27.19285 -10.11653
#
# Velocity S-wave (km/s) = -4.40462 3.33525 -2.03431
# Velocity P-wave (km/s) = 3.52108 6.12856 3.54692
#
# Compressibility (1/GPa) = 0.03037021
#
# Stress axis : x y z
#
# Youngs Moduli (GPa) = 135.89949 45.94773 82.36831
#
# Poissons Ratio (x) = 0.12413 0.37046
# Poissons Ratio (y) = 0.36715 -0.14438
# Poissons Ratio (z) = 0.61122 -0.08054
#
# Static dielectric constant tensor:
#      x y z
#    x 2.170240 0.000000 0.000000 
#    y 0.000000 1.944650 0.000000 
#    z 0.000000 0.000000 2.005720 
# 
# From -- ./inp_files/13021.got.cif
#   From: 2010.05.17/outbox.cif.g08.bks.cpg/sg20_7_cif.got.tgz:13021.got - 2010.06.03 22:52:26.
