data_PCOD9317594
_publ_section_title
;
Structure prediction by ZEFSAII (Michael W. Deem and Ramdas Pophale) SiO2 
 PCOD9317594
Probable space group: C 2 2 21
;
_chemical_formula_sum "Si O2"
_cell_formula_units_Z 28
_cell_length_a 10.016028
_cell_length_b 21.317869
_cell_length_c 5.168697
_cell_angle_alpha 90.000000
_cell_angle_beta 90.000000
_cell_angle_gamma 90.000000
_cell_volume 1103.622110
_symmetry_space_group_name_H-M "C 2 2 21"
_symmetry_group_IT_number 20
_symmetry_cell_setting 'orthorhombic'
loop_
_space_group_symop_operation_xyz
x,y,z
-x,-y,1/2+z
x,-y,-z
-x,y,1/2-z
1/2+x,1/2+y,z
1/2-x,1/2-y,1/2+z
1/2+x,1/2-y,-z
1/2-x,1/2+y,1/2-z
loop_
_atom_site_type_symbol
_atom_site_label
_atom_site_fract_x
_atom_site_fract_y
_atom_site_fract_z
Si Si1 0.202285 0.040629 0.257140
Si Si2 0.000000 0.407238 0.750000
Si Si3 0.682140 0.325041 0.554510
Si Si4 0.636406 0.192073 0.549846
O O1 0.363560 0.053530 0.263783
O O2 0.138737 0.107889 0.333765
O O3 0.164575 0.000000 0.500000
O O4 0.172816 0.000000 0.000000
O O5 0.025648 0.360214 0.509690
O O6 0.587314 0.264238 0.551152
O O7 0.783491 0.306561 0.781433
O O8 0.762106 0.328163 0.280405
#
# Coordination Sequence:
#
# PCOD9317594 Si02
#       4
#     8   4   8   8
#     4  11  21  31  46  69 104 140 167 199 248 319
#     4  10  20  32  48  74 102 132 170 212 262 302
#     4   9  18  33  47  67  96 138 178 207 249 300
#     4   9  18  31  50  68  96 132 174 222 252 293
#
# _framework density 25.371003000000002
#
# number of rings (size 3 to 8) (size 9 to 14) (size 15 to 20)
#    0.000    2.286    0.000    4.286    0.000    9.143 
#    0.000    0.000    0.000    0.000    0.000    0.000 
#    0.000   38.857    0.000   29.429    0.000    6.857 
#
# Total GULP energy -78016.613636 kJ/mol
# GULP energy per Si atom -5572.615260 kJ/mol
# Density = 2.531326 g / cm^3
# Si number density = 25.371003 Si / 1000 Ang^3
#
#
#
# Elastic Constant Matrix: (Units=GPa)
#
#
# Indices 1 2 3 4 5 6 
#
# 1 59.4144 3.6277 23.4308 0.0000 0.0000 0.0000
# 2 3.6277 211.2726 56.6401 0.0000 0.0000 0.0000
# 3 23.4308 56.6401 220.0611 0.0000 0.0000 0.0000
# 4 0.0000 0.0000 0.0000 12.6537 0.0000 0.0000
# 5 0.0000 0.0000 0.0000 0.0000 9.2839 0.0000
# 6 0.0000 0.0000 0.0000 0.0000 0.0000 34.6956
#
#
#
# Elastic Compliance Matrix: (Units=1/GPa)
#
#
# Indices 1 2 3 4 5 6 
#
# 1 0.017578 0.000215 -0.001927 0.000000 0.000000 0.000000
# 2 0.000215 0.005087 -0.001332 0.000000 0.000000 0.000000
# 3 -0.001927 -0.001332 0.005092 0.000000 0.000000 0.000000
# 4 0.000000 0.000000 0.000000 0.079028 0.000000 0.000000
# 5 0.000000 0.000000 0.000000 0.000000 0.107713 0.000000
# 6 0.000000 0.000000 0.000000 0.000000 0.000000 0.028822
#
#
# Mechanical properties :
#
#
# Convention : Reuss Voigt Hill
#
# Bulk Modulus (GPa) = 46.15058 73.12723 59.63891
# Shear Modulus (GPa) = 19.48325 38.46330 28.97327
#
# Velocity S-wave (km/s) = 2.77417 3.89785 3.38299
# Velocity P-wave (km/s) = 5.33771 7.01023 6.23035
#
# Compressibility (1/GPa) = 0.02166820
#
# Stress axis : x y z
#
# Youngs Moduli (GPa) = 56.89031 196.59293 196.37847
#
# Poissons Ratio (x) = -0.04222 0.37839
# Poissons Ratio (y) = -0.01222 0.26159
# Poissons Ratio (z) = 0.10962 0.26188
#
# Static dielectric constant tensor:
#      x y z
#    x 2.208930 0.000000 0.000000 
#    y 0.000000 1.391890 0.000000 
#    z 0.000000 0.000000 1.950410 
# 
# From -- ./inp_files/2583.got.cif
#   From: 2010.05.17/outbox.cif.g08.bks.cpg/sg20_2_cif.got.tgz:2583.got - 2010.06.03 22:52:26.
