data_PCOD9317501
_publ_section_title
;
Structure prediction by ZEFSAII (Michael W. Deem and Ramdas Pophale) SiO2 
 PCOD9317501
Probable space group: C 2 2 21
;
_chemical_formula_sum "Si O2"
_cell_formula_units_Z 48
_cell_length_a 8.432468
_cell_length_b 28.487627
_cell_length_c 9.350016
_cell_angle_alpha 90.000000
_cell_angle_beta 90.000000
_cell_angle_gamma 90.000000
_cell_volume 2246.070222
_symmetry_space_group_name_H-M "C 2 2 21"
_symmetry_group_IT_number 20
_symmetry_cell_setting 'orthorhombic'
loop_
_space_group_symop_operation_xyz
x,y,z
-x,-y,1/2+z
x,-y,-z
-x,y,1/2-z
1/2+x,1/2+y,z
1/2-x,1/2-y,1/2+z
1/2+x,1/2-y,-z
1/2-x,1/2+y,1/2-z
loop_
_atom_site_type_symbol
_atom_site_label
_atom_site_fract_x
_atom_site_fract_y
_atom_site_fract_z
Si Si1 0.667285 0.300433 0.823460
Si Si2 0.774529 0.052084 0.971231
Si Si3 0.318616 0.104076 0.273609
Si Si4 0.851885 0.949365 0.546339
Si Si5 0.311770 0.389699 0.288958
Si Si6 0.170686 0.212961 0.829331
O O1 0.500000 0.313596 0.750000
O O2 0.778811 0.344933 0.788313
O O3 0.729647 0.255937 0.733446
O O4 0.656836 0.289708 0.995498
O O5 0.709872 0.096225 0.059728
O O6 0.961082 0.049884 0.012660
O O7 0.750833 0.068526 0.809967
O O8 0.708398 0.000000 0.000000
O O9 0.500000 0.091846 0.250000
O O10 0.201933 0.065505 0.202422
O O11 0.787064 0.907697 0.448222
O O12 0.789649 0.000000 0.500000
O O13 0.500000 0.387153 0.250000
O O14 0.253981 0.336606 0.278772
O O15 0.000000 0.216705 0.750000
#
# Coordination Sequence:
#
# PCOD9317501 Si02
#       6
#     8   8   8   8   8   8
#     4  12  26  45  72  97 131 177 223 278 342 408
#     4  10  21  39  67  98 127 172 225 272 327 391
#     4  12  26  41  62  95 138 176 221 268 332 398
#     4  10  19  39  67  95 126 168 220 274 323 391
#     4   9  19  36  63  94 128 161 210 268 327 388
#     4  11  24  44  69 101 134 166 221 280 347 406
#
# _framework density 21.370657000000001
#
# number of rings (size 3 to 8) (size 9 to 14) (size 15 to 20)
#    0.000    1.333    1.667    4.000    7.000    3.333 
#    0.000    0.833    0.000    0.000    0.000    0.000 
#    0.000    0.000    0.000    0.000    0.000    0.000 
#
# Total GULP energy -133851.164760 kJ/mol
# GULP energy per Si atom -5577.131865 kJ/mol
# Density = 2.132202 g / cm^3
# Si number density = 21.370657 Si / 1000 Ang^3
#
#
#
# Elastic Constant Matrix: (Units=GPa)
#
#
# Indices 1 2 3 4 5 6 
#
# 1 16.9948 -8.0049 -2.6933 0.0000 0.0000 0.0000
# 2 -8.0049 113.8779 18.0857 0.0000 0.0000 0.0000
# 3 -2.6933 18.0857 100.7612 0.0000 0.0000 0.0000
# 4 0.0000 0.0000 0.0000 35.7908 0.0000 0.0000
# 5 0.0000 0.0000 0.0000 0.0000 11.4731 0.0000
# 6 0.0000 0.0000 0.0000 0.0000 0.0000 43.4923
#
#
#
# Elastic Compliance Matrix: (Units=1/GPa)
#
#
# Indices 1 2 3 4 5 6 
#
# 1 0.060933 0.004143 0.000885 0.000000 0.000000 0.000000
# 2 0.004143 0.009321 -0.001562 0.000000 0.000000 0.000000
# 3 0.000885 -0.001562 0.010229 0.000000 0.000000 0.000000
# 4 0.000000 0.000000 0.000000 0.027940 0.000000 0.000000
# 5 0.000000 0.000000 0.000000 0.000000 0.087160 0.000000
# 6 0.000000 0.000000 0.000000 0.000000 0.000000 0.022993
#
#
# Mechanical properties :
#
#
# Convention : Reuss Voigt Hill
#
# Bulk Modulus (GPa) = 11.43991 27.37878 19.40934
# Shear Modulus (GPa) = 20.76566 33.10099 26.93333
#
# Velocity S-wave (km/s) = 3.12058 3.93988 3.55391
# Velocity P-wave (km/s) = 4.28354 5.79103 5.09336
#
# Compressibility (1/GPa) = 0.08741330
#
# Stress axis : x y z
#
# Youngs Moduli (GPa) = 16.41145 107.28871 97.76583
#
# Poissons Ratio (x) = -0.44446 -0.08654
# Poissons Ratio (y) = -0.06799 0.15273
# Poissons Ratio (z) = -0.01453 0.16761
#
# Static dielectric constant tensor:
#      x y z
#    x 1.797740 0.000000 0.000000 
#    y 0.000000 1.748260 0.000000 
#    z 0.000000 0.000000 1.604930 
# 
# From -- ./inp_files/6489.got.cif
#   From: 2010.05.17/outbox.cif.g08.bks.cpg/sg20_4_cif.got.tgz:6489.got - 2010.06.03 22:52:26.
