data_PCOD9317117
_publ_section_title
;
Structure prediction by ZEFSAII (Michael W. Deem and Ramdas Pophale) SiO2 
 PCOD9317117
Probable space group: C 2 2 21
;
_chemical_formula_sum "Si O2"
_cell_formula_units_Z 52
_cell_length_a 13.446920
_cell_length_b 19.931005
_cell_length_c 10.042351
_cell_angle_alpha 90.000000
_cell_angle_beta 90.000000
_cell_angle_gamma 90.000000
_cell_volume 2691.456816
_symmetry_space_group_name_H-M "C 2 2 21"
_symmetry_group_IT_number 20
_symmetry_cell_setting 'orthorhombic'
loop_
_space_group_symop_operation_xyz
x,y,z
-x,-y,1/2+z
x,-y,-z
-x,y,1/2-z
1/2+x,1/2+y,z
1/2-x,1/2-y,1/2+z
1/2+x,1/2-y,-z
1/2-x,1/2+y,1/2-z
loop_
_atom_site_type_symbol
_atom_site_label
_atom_site_fract_x
_atom_site_fract_y
_atom_site_fract_z
Si Si1 0.500000 0.204195 0.250000
Si Si2 0.111602 0.212550 0.257665
Si Si3 0.590068 0.702148 0.553362
Si Si4 0.199159 0.372648 0.796558
Si Si5 0.716686 0.980050 0.146735
Si Si6 0.449493 0.552220 0.893878
Si Si7 0.697327 0.165108 0.886844
O O1 0.492181 0.253414 0.124362
O O2 0.401167 0.160418 0.244546
O O3 0.120375 0.233347 0.412632
O O4 0.200639 0.159884 0.237038
O O5 0.125308 0.276140 0.161264
O O6 0.000000 0.184370 0.250000
O O7 0.552160 0.625935 0.541063
O O8 0.690979 0.693295 0.640184
O O9 0.198490 0.452348 0.772132
O O10 0.199374 0.354500 0.955937
O O11 0.835213 0.969480 0.131184
O O12 0.678012 0.906319 0.185040
O O13 0.677003 0.000000 0.000000
O O14 0.500000 0.554258 0.750000
O O15 0.493521 0.500000 0.000000
#
# Coordination Sequence:
#
# PCOD9317117 Si02
#       7
#     4   8   8   8   8   8   8
#     4  12  20  38  58  82 114 150 194 236 284 354
#     4  11  21  35  56  88 118 149 192 243 294 353
#     4  10  21  35  59  87 116 155 192 244 300 351
#     4  10  21  35  59  83 111 153 194 235 294 347
#     4   8  17  35  57  79 109 151 197 235 288 353
#     4  10  19  34  58  86 119 155 198 241 303 361
#     4   9  18  38  58  83 111 146 192 245 285 350
#
# _framework density 19.320391999999998
#
# number of rings (size 3 to 8) (size 9 to 14) (size 15 to 20)
#    0.000    2.154    2.308    3.692    0.000    2.462 
#    1.385    0.000    6.769    0.000    0.000    0.000 
#    0.000    0.000    0.000    0.000    0.000    0.000 
#
# Total GULP energy -144824.959190 kJ/mol
# GULP energy per Si atom -5570.190738 kJ/mol
# Density = 1.927642 g / cm^3
# Si number density = 19.320392 Si / 1000 Ang^3
#
#
#
# Elastic Constant Matrix: (Units=GPa)
#
#
# Indices 1 2 3 4 5 6 
#
# 1 82.3563 39.9415 -1.0484 0.0000 0.0000 0.0000
# 2 39.9415 113.9803 18.7156 0.0000 0.0000 0.0000
# 3 -1.0484 18.7156 33.1109 0.0000 0.0000 0.0000
# 4 0.0000 0.0000 0.0000 24.0830 0.0000 0.0000
# 5 0.0000 0.0000 0.0000 0.0000 18.7808 0.0000
# 6 0.0000 0.0000 0.0000 0.0000 0.0000 -0.0059
#
#
#
# Elastic Compliance Matrix: (Units=1/GPa)
#
#
# Indices 1 2 3 4 5 6 
#
# 1 0.015053 -0.005901 0.003812 0.000000 0.000000 0.000000
# 2 -0.005901 0.011984 -0.006961 0.000000 0.000000 0.000000
# 3 0.003812 -0.006961 0.034257 0.000000 0.000000 0.000000
# 4 0.000000 0.000000 0.000000 0.041523 0.000000 0.000000
# 5 0.000000 0.000000 0.000000 0.000000 0.053246 0.000000
# 6 0.000000 0.000000 0.000000 0.000000 0.000000**********
#
#
# Mechanical properties :
#
#
# Convention : Reuss Voigt Hill
#
# Bulk Modulus (GPa) = 23.15113 38.29611 30.72362
# Shear Modulus (GPa) = -0.02971 20.02749 9.99889
#
# Velocity S-wave (km/s) = -0.12413 3.22312 2.27740
# Velocity P-wave (km/s) = 3.46240 5.80654 4.78038
#
# Compressibility (1/GPa) = 0.04319444
#
# Stress axis : x y z
#
# Youngs Moduli (GPa) = 66.43345 83.44335 29.19134
#
# Poissons Ratio (x) = 0.49238 -0.11128
# Poissons Ratio (y) = 0.39201 0.20319
# Poissons Ratio (z) = -0.25324 0.58083
#
# Static dielectric constant tensor:
#      x y z
#    x 1.699780 0.000000 0.000000 
#    y 0.000000 1.693570 0.000000 
#    z 0.000000 0.000000 1.716180 
# 
# From -- ./inp_files/15259.got.cif
#   From: 2010.05.17/outbox.cif.g08.bks.cpg/sg20_8_cif.got.tgz:15259.got - 2010.06.03 22:52:26.
