data_PCOD9317848
_publ_section_title
;
Structure prediction by ZEFSAII (Michael W. Deem and Ramdas Pophale) SiO2 
 PCOD9317848
Probable space group: C 2 2 21
;
_chemical_formula_sum "Si O2"
_cell_formula_units_Z 56
_cell_length_a 20.976972
_cell_length_b 9.884489
_cell_length_c 11.880370
_cell_angle_alpha 90.000000
_cell_angle_beta 90.000000
_cell_angle_gamma 90.000000
_cell_volume 2463.354908
_symmetry_space_group_name_H-M "C 2 2 21"
_symmetry_group_IT_number 20
_symmetry_cell_setting 'orthorhombic'
loop_
_space_group_symop_operation_xyz
x,y,z
-x,-y,1/2+z
x,-y,-z
-x,y,1/2-z
1/2+x,1/2+y,z
1/2-x,1/2-y,1/2+z
1/2+x,1/2-y,-z
1/2-x,1/2+y,1/2-z
loop_
_atom_site_type_symbol
_atom_site_label
_atom_site_fract_x
_atom_site_fract_y
_atom_site_fract_z
Si Si1 0.854774 0.777349 0.210238
Si Si2 0.712972 0.821750 0.172680
Si Si3 0.955778 0.141717 0.444414
Si Si4 0.212023 0.392947 0.406967
Si Si5 0.377727 0.586463 0.234872
Si Si6 0.163810 0.712981 0.055673
Si Si7 0.412969 0.256597 0.975442
O O1 0.785103 0.773714 0.153323
O O2 0.860252 0.680033 0.318216
O O3 0.903842 0.762889 0.108991
O O4 0.860472 0.931487 0.253492
O O5 0.713266 0.928510 0.274794
O O6 0.675450 0.692098 0.222353
O O7 0.680081 0.870313 0.058055
O O8 0.936899 0.118437 0.315488
O O9 0.891613 0.187853 0.508594
O O10 0.011850 0.251633 0.453433
O O11 0.977214 0.000000 0.500000
O O12 0.231734 0.500000 0.500000
O O13 0.266921 0.279075 0.417647
O O14 0.139081 0.352390 0.434176
O O15 0.391691 0.616762 0.103972
#
# Coordination Sequence:
#
# PCOD9317848 Si02
#       7
#     8   8   8   8   8   8   8
#     4  11  20  34  57  84 132 165 201 262 319 389
#     4   9  21  33  57  89 118 153 211 258 307 379
#     4  11  20  35  59  90 122 163 200 255 323 391
#     4  10  21  39  63  85 114 163 215 264 318 385
#     4  10  21  37  55  89 124 165 203 260 323 387
#     4  10  20  36  57  91 122 157 205 252 323 387
#     4  11  23  36  54  92 121 158 211 267 314 384
#
# _framework density 22.733225000000001
#
# number of rings (size 3 to 8) (size 9 to 14) (size 15 to 20)
#    0.000    1.714    2.857    2.143    6.000    0.571 
#    0.000    0.000    0.000    0.000   44.571    0.000 
#    0.000    0.000    0.000    0.000    0.000    0.000 
#
# Total GULP energy -156120.508294 kJ/mol
# GULP energy per Si atom -5575.732439 kJ/mol
# Density = 2.268148 g / cm^3
# Si number density = 22.733225 Si / 1000 Ang^3
#
#
#
# Elastic Constant Matrix: (Units=GPa)
#
#
# Indices 1 2 3 4 5 6 
#
# 1 102.9670 3.4227 32.4926 0.0000 0.0000 0.0000
# 2 3.4227 8.4505 19.7492 0.0000 0.0000 0.0000
# 3 32.4926 19.7492 181.0652 0.0000 0.0000 0.0000
# 4 0.0000 0.0000 0.0000 30.7812 0.0000 0.0000
# 5 0.0000 0.0000 0.0000 0.0000 42.5451 0.0000
# 6 0.0000 0.0000 0.0000 0.0000 0.0000 19.8577
#
#
#
# Elastic Compliance Matrix: (Units=1/GPa)
#
#
# Indices 1 2 3 4 5 6 
#
# 1 0.010295 0.000198 -0.001869 0.000000 0.000000 0.000000
# 2 0.000198 0.158824 -0.017359 0.000000 0.000000 0.000000
# 3 -0.001869 -0.017359 0.007752 0.000000 0.000000 0.000000
# 4 0.000000 0.000000 0.000000 0.032487 0.000000 0.000000
# 5 0.000000 0.000000 0.000000 0.000000 0.023504 0.000000
# 6 0.000000 0.000000 0.000000 0.000000 0.000000 0.050358
#
#
# Mechanical properties :
#
#
# Convention : Reuss Voigt Hill
#
# Bulk Modulus (GPa) = 7.20399 44.86795 26.03597
# Shear Modulus (GPa) = 13.60355 34.42470 24.01412
#
# Velocity S-wave (km/s) = 2.44887 3.89561 3.25367
# Velocity P-wave (km/s) = 3.34242 6.32566 5.05894
#
# Compressibility (1/GPa) = 0.13881196
#
# Stress axis : x y z
#
# Youngs Moduli (GPa) = 97.13382 6.29626 129.00453
#
# Poissons Ratio (x) = -0.00125 0.24113
# Poissons Ratio (y) = -0.01927 2.23938
# Poissons Ratio (z) = 0.18155 0.10930
#
# Static dielectric constant tensor:
#      x y z
#    x 1.818580 0.000000 0.000000 
#    y 0.000000 1.888990 0.000000 
#    z 0.000000 0.000000 1.917070 
# 
# From -- ./inp_files/16328.got.cif
#   From: 2010.05.17/outbox.cif.g08.bks.cpg/sg20_9_cif.got.tgz:16328.got - 2010.06.03 22:52:26.
