data_PCOD9317747
_publ_section_title
;
Structure prediction by ZEFSAII (Michael W. Deem and Ramdas Pophale) SiO2 
 PCOD9317747
Probable space group: C 2 2 21
;
_chemical_formula_sum "Si O2"
_cell_formula_units_Z 64
_cell_length_a 9.022448
_cell_length_b 23.300279
_cell_length_c 16.305617
_cell_angle_alpha 90.000000
_cell_angle_beta 90.000000
_cell_angle_gamma 90.000000
_cell_volume 3427.857394
_symmetry_space_group_name_H-M "C 2 2 21"
_symmetry_group_IT_number 20
_symmetry_cell_setting 'orthorhombic'
loop_
_space_group_symop_operation_xyz
x,y,z
-x,-y,1/2+z
x,-y,-z
-x,y,1/2-z
1/2+x,1/2+y,z
1/2-x,1/2-y,1/2+z
1/2+x,1/2-y,-z
1/2-x,1/2+y,1/2-z
loop_
_atom_site_type_symbol
_atom_site_label
_atom_site_fract_x
_atom_site_fract_y
_atom_site_fract_z
Si Si1 0.174410 0.358150 0.250000
Si Si2 0.820826 0.982289 0.250000
Si Si3 0.328227 0.328890 0.932133
Si Si4 0.169714 0.781670 0.117951
Si Si5 0.330286 0.281670 0.117951
Si Si6 0.319451 0.461220 0.577355
Si Si7 0.819451 0.961220 0.922645
Si Si8 0.671773 0.328890 0.932133
O O1 0.258134 0.418454 0.250000
O O2 0.226389 0.321211 0.327559
O O3 0.226389 0.321211 0.172441
O O4 0.000000 0.367231 0.250000
O O5 0.000000 0.980299 0.250000
O O6 0.774524 0.013443 0.334417
O O7 0.774524 0.013443 0.165583
O O8 0.229654 0.283254 0.883411
O O9 0.275673 0.394578 0.929509
O O10 0.500000 0.326830 0.903473
O O11 0.327094 0.306720 0.025805
O O12 0.000000 0.784268 0.146758
O O13 0.172906 0.806720 0.025805
O O14 0.270345 0.216746 0.116589
O O15 0.269219 0.500000 0.500000
O O16 0.500000 0.461918 0.574830
O O17 0.275673 0.394578 0.570491
O O18 0.769219 0.000000 0.000000
#
# Coordination Sequence:
#
# PCOD9317747 Si02
#       8
#     8   8   8   8   8   8   8   8
#     4  12  24  37  54  77 107 140 180 228 277 326
#     4  10  20  35  56  79 103 138 184 226 271 328
#     4   9  18  34  56  82 111 142 179 222 269 324
#     4  10  20  35  56  80 108 142 179 222 273 327
#     4  10  20  35  56  80 108 142 179 222 273 327
#     4   9  17  31  53  80 110 145 183 222 264 319
#     4   9  17  31  53  80 110 145 183 222 264 319
#     4   9  18  34  56  82 111 142 179 222 269 324
#
# _framework density 18.670553999999999
#
# number of rings (size 3 to 8) (size 9 to 14) (size 15 to 20)
#    0.000    2.250    0.000    3.375    0.000    6.000 
#    0.000    3.750    0.000    3.000    0.000    0.000 
#    0.000    0.000    0.000    0.000    0.000    0.000 
#
# Total GULP energy -178574.434566 kJ/mol
# GULP energy per Si atom -5580.451080 kJ/mol
# Density = 1.862806 g / cm^3
# Si number density = 18.670554 Si / 1000 Ang^3
#
#
#
# Elastic Constant Matrix: (Units=GPa)
#
#
# Indices 1 2 3 4 5 6 
#
# 1 27.4592 18.7944 20.0171 0.0000 0.0000 0.0000
# 2 18.7944 182.6540 60.3808 0.0000 0.0000 0.0000
# 3 20.0171 60.3808 81.6663 0.0000 0.0000 0.0000
# 4 0.0000 0.0000 0.0000 23.7684 0.0000 0.0000
# 5 0.0000 0.0000 0.0000 0.0000 16.4849 0.0000
# 6 0.0000 0.0000 0.0000 0.0000 0.0000 32.4945
#
#
#
# Elastic Compliance Matrix: (Units=1/GPa)
#
#
# Indices 1 2 3 4 5 6 
#
# 1 0.044569 -0.001290 -0.009970 0.000000 0.000000 0.000000
# 2 -0.001290 0.007283 -0.005069 0.000000 0.000000 0.000000
# 3 -0.009970 -0.005069 0.018436 0.000000 0.000000 0.000000
# 4 0.000000 0.000000 0.000000 0.042073 0.000000 0.000000
# 5 0.000000 0.000000 0.000000 0.000000 0.060661 0.000000
# 6 0.000000 0.000000 0.000000 0.000000 0.000000 0.030774
#
#
# Mechanical properties :
#
#
# Convention : Reuss Voigt Hill
#
# Bulk Modulus (GPa) = 26.57441 54.46268 40.51855
# Shear Modulus (GPa) = 20.08045 27.38873 23.73459
#
# Velocity S-wave (km/s) = 3.28306 3.83423 3.56930
# Velocity P-wave (km/s) = 5.35122 6.98824 6.22379
#
# Compressibility (1/GPa) = 0.03763018
#
# Stress axis : x y z
#
# Youngs Moduli (GPa) = 22.43720 137.30333 54.24070
#
# Poissons Ratio (x) = 0.17712 0.54080
# Poissons Ratio (y) = 0.02894 0.27493
# Poissons Ratio (z) = 0.22371 0.69595
#
# Static dielectric constant tensor:
#      x y z
#    x 1.624880 0.000000 0.000000 
#    y 0.000000 1.617620 0.000000 
#    z 0.000000 0.000000 1.654830 
# 
# From -- ./inp_files/23932.got.cif
#   From: 2010.05.17/outbox.cif.g08.bks.cpg/sg20_12_cif.got.tgz:23932.got - 2010.06.03 22:52:26.
