data_PCOD9317936
_publ_section_title
;
Structure prediction by ZEFSAII (Michael W. Deem and Ramdas Pophale) SiO2 
 PCOD9317936
Probable space group: C 2 2 21
;
_chemical_formula_sum "Si O2"
_cell_formula_units_Z 52
_cell_length_a 19.124342
_cell_length_b 14.709465
_cell_length_c 8.589468
_cell_angle_alpha 90.000000
_cell_angle_beta 90.000000
_cell_angle_gamma 90.000000
_cell_volume 2416.293273
_symmetry_space_group_name_H-M "C 2 2 21"
_symmetry_group_IT_number 20
_symmetry_cell_setting 'orthorhombic'
loop_
_space_group_symop_operation_xyz
x,y,z
-x,-y,1/2+z
x,-y,-z
-x,y,1/2-z
1/2+x,1/2+y,z
1/2-x,1/2-y,1/2+z
1/2+x,1/2-y,-z
1/2-x,1/2+y,1/2-z
loop_
_atom_site_type_symbol
_atom_site_label
_atom_site_fract_x
_atom_site_fract_y
_atom_site_fract_z
Si Si1 0.788968 0.266740 0.185990
Si Si2 0.403580 0.459103 0.708198
Si Si3 0.845263 0.700009 0.463561
Si Si4 0.386396 0.352363 0.017498
Si Si5 0.225666 0.946042 0.247358
Si Si6 0.956933 0.851845 0.429323
Si Si7 0.663242 0.000000 0.000000
O O1 0.815505 0.271191 0.364814
O O2 0.849760 0.229407 0.075470
O O3 0.760805 0.367662 0.145437
O O4 0.721426 0.204223 0.151623
O O5 0.403828 0.427790 0.885681
O O6 0.322040 0.476994 0.670720
O O7 0.439799 0.382348 0.606592
O O8 0.438521 0.554416 0.660185
O O9 0.873645 0.597152 0.480064
O O10 0.903287 0.769924 0.403748
O O11 0.461873 0.327027 0.086911
O O12 0.329096 0.392953 0.136617
O O13 0.285582 0.987606 0.353206
#
# Coordination Sequence:
#
# PCOD9317936 Si02
#       7
#     8   8   8   8   8   8   4
#     4  11  21  39  61  86 126 163 212 259 312 376
#     4  11  22  37  53  90 137 162 196 242 321 401
#     4  11  22  42  59  93 118 168 214 260 315 378
#     4  12  23  38  59  93 131 166 204 257 321 388
#     4  11  21  36  62  90 121 168 209 256 313 377
#     4  11  26  35  60  94 128 169 197 261 319 386
#     4  10  20  36  64  86 110 166 216 260 304 366
#
# _framework density 21.520567
#
# number of rings (size 3 to 8) (size 9 to 14) (size 15 to 20)
#    0.000    0.923    7.692    0.462    6.462    0.000 
#    0.000    0.000    0.000    0.000   24.000    0.000 
#    0.000    0.000    0.000    0.000    0.000    0.000 
#
# Total GULP energy -145284.051495 kJ/mol
# GULP energy per Si atom -5587.848134 kJ/mol
# Density = 2.147159 g / cm^3
# Si number density = 21.520567 Si / 1000 Ang^3
#
#
#
# Elastic Constant Matrix: (Units=GPa)
#
#
# Indices 1 2 3 4 5 6 
#
# 1 109.2144 50.7422 17.5709 0.0000 0.0000 0.0000
# 2 50.7422 110.2655 11.3074 0.0000 0.0000 0.0000
# 3 17.5709 11.3074 56.2140 0.0000 0.0000 0.0000
# 4 0.0000 0.0000 0.0000 36.0644 0.0000 0.0000
# 5 0.0000 0.0000 0.0000 0.0000 34.7299 0.0000
# 6 0.0000 0.0000 0.0000 0.0000 0.0000 16.0364
#
#
#
# Elastic Compliance Matrix: (Units=1/GPa)
#
#
# Indices 1 2 3 4 5 6 
#
# 1 0.012036 -0.005261 -0.002704 0.000000 0.000000 0.000000
# 2 -0.005261 0.011560 -0.000681 0.000000 0.000000 0.000000
# 3 -0.002704 -0.000681 0.018771 0.000000 0.000000 0.000000
# 4 0.000000 0.000000 0.000000 0.027728 0.000000 0.000000
# 5 0.000000 0.000000 0.000000 0.000000 0.028794 0.000000
# 6 0.000000 0.000000 0.000000 0.000000 0.000000 0.062358
#
#
# Mechanical properties :
#
#
# Convention : Reuss Voigt Hill
#
# Bulk Modulus (GPa) = 39.87984 48.32611 44.10297
# Shear Modulus (GPa) = 26.75270 30.43769 28.59520
#
# Velocity S-wave (km/s) = 3.52962 3.76487 3.64914
# Velocity P-wave (km/s) = 5.93146 6.43456 6.18812
#
# Compressibility (1/GPa) = 0.02507533
#
# Stress axis : x y z
#
# Youngs Moduli (GPa) = 83.08551 86.50500 53.27311
#
# Poissons Ratio (x) = 0.45514 0.14404
# Poissons Ratio (y) = 0.43715 0.03626
# Poissons Ratio (z) = 0.22464 0.05889
#
# Static dielectric constant tensor:
#      x y z
#    x 1.793620 0.000000 0.000000 
#    y 0.000000 1.834770 0.000000 
#    z 0.000000 0.000000 1.882140 
# 
# From -- ./inp_files/16418.got.cif
#   From: 2010.05.17/outbox.cif.g08.bks.cpg/sg20_9_cif.got.tgz:16418.got - 2010.06.03 22:52:26.
