data_PCOD9317841
_publ_section_title
;
Structure prediction by ZEFSAII (Michael W. Deem and Ramdas Pophale) SiO2 
 PCOD9317841
Probable space group: C 2 2 21
;
_chemical_formula_sum "Si O2"
_cell_formula_units_Z 60
_cell_length_a 13.203350
_cell_length_b 8.633503
_cell_length_c 24.183040
_cell_angle_alpha 90.000000
_cell_angle_beta 90.000000
_cell_angle_gamma 90.000000
_cell_volume 2756.652826
_symmetry_space_group_name_H-M "C 2 2 21"
_symmetry_group_IT_number 20
_symmetry_cell_setting 'orthorhombic'
loop_
_space_group_symop_operation_xyz
x,y,z
-x,-y,1/2+z
x,-y,-z
-x,y,1/2-z
1/2+x,1/2+y,z
1/2-x,1/2-y,1/2+z
1/2+x,1/2-y,-z
1/2-x,1/2+y,1/2-z
loop_
_atom_site_type_symbol
_atom_site_label
_atom_site_fract_x
_atom_site_fract_y
_atom_site_fract_z
Si Si1 0.902717 0.617680 0.952205
Si Si2 0.101918 0.332739 0.107385
Si Si3 0.807800 0.811775 0.708529
Si Si4 0.222514 0.685809 0.996224
Si Si5 0.906318 0.703517 0.401597
Si Si6 0.608662 0.113774 0.356289
Si Si7 0.320539 0.329616 0.296429
Si Si8 0.000000 0.385007 0.750000
O O1 0.996549 0.703112 0.923270
O O2 0.819689 0.725478 0.980478
O O3 0.861184 0.509642 0.902583
O O4 0.941462 0.500000 0.000000
O O5 0.111548 0.267499 0.168677
O O6 0.110263 0.519647 0.108791
O O7 0.190198 0.275441 0.066077
O O8 0.704423 0.806217 0.671762
O O9 0.780428 0.729753 0.765991
O O10 0.832650 0.990959 0.717182
O O11 0.128639 0.730768 0.036183
O O12 0.236853 0.500000 0.000000
O O13 0.832834 0.799191 0.361397
O O14 0.024270 0.724884 0.385097
O O15 0.549683 0.036183 0.303639
O O16 0.411383 0.224771 0.273015
#
# Coordination Sequence:
#
# PCOD9317841 Si02
#       8
#     8   8   8   8   8   8   8   4
#     4  11  21  38  60  84 111 147 190 230 275 335
#     4  10  21  37  56  81 112 149 186 227 276 331
#     4  11  21  36  57  85 115 148 190 232 281 332
#     4  10  21  38  59  83 113 145 181 228 282 330
#     4   9  18  37  60  82 110 144 183 228 281 334
#     4   9  18  34  59  84 107 144 186 227 273 335
#     4  10  20  36  57  82 112 148 187 234 280 334
#     4   8  18  36  56  80 112 146 184 228 288 330
#
# _framework density 21.765525
#
# number of rings (size 3 to 8) (size 9 to 14) (size 15 to 20)
#    0.000    2.133    0.000    4.400    0.000    1.067 
#    0.000   19.333    0.000    0.000    0.000    0.000 
#    0.000    0.000    0.000    0.000    0.000    0.000 
#
# Total GULP energy -167414.011817 kJ/mol
# GULP energy per Si atom -5580.467061 kJ/mol
# Density = 2.171599 g / cm^3
# Si number density = 21.765525 Si / 1000 Ang^3
#
#
#
# Elastic Constant Matrix: (Units=GPa)
#
#
# Indices 1 2 3 4 5 6 
#
# 1 77.5115 1.1106 -5.1882 0.0000 0.0000 0.0000
# 2 1.1106 29.0513 -10.3539 0.0000 0.0000 0.0000
# 3 -5.1882 -10.3539 35.0451 0.0000 0.0000 0.0000
# 4 0.0000 0.0000 0.0000 35.6843 0.0000 0.0000
# 5 0.0000 0.0000 0.0000 0.0000 38.3989 0.0000
# 6 0.0000 0.0000 0.0000 0.0000 0.0000 26.2856
#
#
#
# Elastic Compliance Matrix: (Units=1/GPa)
#
#
# Indices 1 2 3 4 5 6 
#
# 1 0.013032 0.000212 0.001992 0.000000 0.000000 0.000000
# 2 0.000212 0.038476 0.011399 0.000000 0.000000 0.000000
# 3 0.001992 0.011399 0.032197 0.000000 0.000000 0.000000
# 4 0.000000 0.000000 0.000000 0.028024 0.000000 0.000000
# 5 0.000000 0.000000 0.000000 0.000000 0.026042 0.000000
# 6 0.000000 0.000000 0.000000 0.000000 0.000000 0.038044
#
#
# Mechanical properties :
#
#
# Convention : Reuss Voigt Hill
#
# Bulk Modulus (GPa) = 9.01630 12.52722 10.77176
# Shear Modulus (GPa) = 26.94253 30.47637 28.70945
#
# Velocity S-wave (km/s) = 3.52213 3.74600 3.63579
# Velocity P-wave (km/s) = 4.54885 4.94753 4.75237
#
# Compressibility (1/GPa) = 0.11091029
#
# Stress axis : x y z
#
# Youngs Moduli (GPa) = 76.73658 25.98993 31.05849
#
# Poissons Ratio (x) = -0.00550 -0.06186
# Poissons Ratio (y) = -0.01624 -0.35404
# Poissons Ratio (z) = -0.15284 -0.29626
#
# Static dielectric constant tensor:
#      x y z
#    x 1.844120 0.000000 0.000000 
#    y 0.000000 1.761130 0.000000 
#    z 0.000000 0.000000 1.848160 
# 
# From -- ./inp_files/29317.got.cif
#   From: 2010.05.17/outbox.cif.g08.bks.cpg/sg20_15_cif.got.tgz:29317.got - 2010.06.03 22:52:26.
