data_PCOD9317477
_publ_section_title
;
Structure prediction by ZEFSAII (Michael W. Deem and Ramdas Pophale) SiO2 
 PCOD9317477
Probable space group: C 2 2 21
;
_chemical_formula_sum "Si O2"
_cell_formula_units_Z 52
_cell_length_a 7.703973
_cell_length_b 12.373899
_cell_length_c 26.068510
_cell_angle_alpha 90.000000
_cell_angle_beta 90.000000
_cell_angle_gamma 90.000000
_cell_volume 2485.063713
_symmetry_space_group_name_H-M "C 2 2 21"
_symmetry_group_IT_number 20
_symmetry_cell_setting 'orthorhombic'
loop_
_space_group_symop_operation_xyz
x,y,z
-x,-y,1/2+z
x,-y,-z
-x,y,1/2-z
1/2+x,1/2+y,z
1/2-x,1/2-y,1/2+z
1/2+x,1/2-y,-z
1/2-x,1/2+y,1/2-z
loop_
_atom_site_type_symbol
_atom_site_label
_atom_site_fract_x
_atom_site_fract_y
_atom_site_fract_z
Si Si1 0.600747 0.500000 0.000000
Si Si2 0.306428 0.062924 0.691267
Si Si3 0.500000 0.354412 0.250000
Si Si4 0.703739 0.572318 0.574930
Si Si5 0.607276 0.275970 0.974883
Si Si6 0.000000 0.740229 0.750000
Si Si7 0.825061 0.678368 0.311932
Si Si8 0.226869 0.667487 0.068939
O O1 0.476784 0.547796 0.954610
O O2 0.696638 0.394585 0.978202
O O3 0.209680 0.074474 0.636646
O O4 0.434514 0.160898 0.704434
O O5 0.162671 0.073813 0.735445
O O6 0.390919 0.944574 0.693230
O O7 0.457168 0.271362 0.295621
O O8 0.794177 0.680987 0.555065
O O9 0.804006 0.460464 0.561918
O O10 0.418955 0.300389 0.951137
O O11 0.596926 0.231286 0.032699
O O12 0.158733 0.806498 0.725526
O O13 0.779962 0.693418 0.371330
#
# Coordination Sequence:
#
# PCOD9317477 Si02
#       8
#     4   8   4   8   8   4   8   8
#     4  10  22  36  56  84 116 150 184 246 280 336
#     4  10  21  36  62  82 115 152 184 235 284 337
#     4  10  22  36  60  86 112 148 190 236 282 334
#     4  10  19  39  60  82 114 156 185 229 295 333
#     4  11  19  39  57  82 118 147 190 234 279 344
#     4  10  20  38  58  84 116 148 186 236 284 334
#     4  10  21  38  57  87 112 146 193 233 284 339
#     4  10  22  36  62  83 116 155 189 237 286 340
#
# _framework density 20.925015999999999
#
# number of rings (size 3 to 8) (size 9 to 14) (size 15 to 20)
#    0.000    1.846    3.077    1.846    2.154    0.000 
#    2.769    0.000    3.385    0.000    0.000    0.000 
#    0.000    0.000    0.000    0.000    0.000    0.000 
#
# Total GULP energy -144989.415779 kJ/mol
# GULP energy per Si atom -5576.515991 kJ/mol
# Density = 2.087739 g / cm^3
# Si number density = 20.925016 Si / 1000 Ang^3
#
#
#
# Elastic Constant Matrix: (Units=GPa)
#
#
# Indices 1 2 3 4 5 6 
#
# 1 19.8024 15.7383 -9.7962 0.0000 0.0000 0.0000
# 2 15.7383 147.2077 35.7374 0.0000 0.0000 0.0000
# 3 -9.7962 35.7374 81.8356 0.0000 0.0000 0.0000
# 4 0.0000 0.0000 0.0000 26.7143 0.0000 0.0000
# 5 0.0000 0.0000 0.0000 0.0000 22.0582 0.0000
# 6 0.0000 0.0000 0.0000 0.0000 0.0000 27.2199
#
#
#
# Elastic Compliance Matrix: (Units=1/GPa)
#
#
# Indices 1 2 3 4 5 6 
#
# 1 0.064163 -0.009759 0.011942 0.000000 0.000000 0.000000
# 2 -0.009759 0.009083 -0.005135 0.000000 0.000000 0.000000
# 3 0.011942 -0.005135 0.015892 0.000000 0.000000 0.000000
# 4 0.000000 0.000000 0.000000 0.037433 0.000000 0.000000
# 5 0.000000 0.000000 0.000000 0.000000 0.045335 0.000000
# 6 0.000000 0.000000 0.000000 0.000000 0.000000 0.036738
#
#
# Mechanical properties :
#
#
# Convention : Reuss Voigt Hill
#
# Bulk Modulus (GPa) = 12.01420 36.91164 24.46292
# Shear Modulus (GPa) = 20.63634 29.00954 24.82294
#
# Velocity S-wave (km/s) = 3.14380 3.72742 3.44798
# Velocity P-wave (km/s) = 4.35109 6.01690 5.25048
#
# Compressibility (1/GPa) = 0.08323482
#
# Stress axis : x y z
#
# Youngs Moduli (GPa) = 15.58530 110.09527 62.92661
#
# Poissons Ratio (x) = 1.07442 -0.75150
# Poissons Ratio (y) = 0.15210 0.32311
# Poissons Ratio (z) = -0.18613 0.56531
#
# Static dielectric constant tensor:
#      x y z
#    x 1.753840 0.000000 0.000000 
#    y 0.000000 1.766850 0.000000 
#    z 0.000000 0.000000 1.763380 
# 
# From -- ./inp_files/30136.got.cif
#   From: 2010.05.17/outbox.cif.g08.bks.cpg/sg20_16_cif.got.tgz:30136.got - 2010.06.03 22:52:26.
