data_PCOD9317953
_publ_section_title
;
Structure prediction by ZEFSAII (Michael W. Deem and Ramdas Pophale) SiO2 
 PCOD9317953
Probable space group: C 2 2 21
;
_chemical_formula_sum "Si O2"
_cell_formula_units_Z 60
_cell_length_a 17.046639
_cell_length_b 9.296515
_cell_length_c 16.366800
_cell_angle_alpha 90.000000
_cell_angle_beta 90.000000
_cell_angle_gamma 90.000000
_cell_volume 2593.717749
_symmetry_space_group_name_H-M "C 2 2 21"
_symmetry_group_IT_number 20
_symmetry_cell_setting 'orthorhombic'
loop_
_space_group_symop_operation_xyz
x,y,z
-x,-y,1/2+z
x,-y,-z
-x,y,1/2-z
1/2+x,1/2+y,z
1/2-x,1/2-y,1/2+z
1/2+x,1/2-y,-z
1/2-x,1/2+y,1/2-z
loop_
_atom_site_type_symbol
_atom_site_label
_atom_site_fract_x
_atom_site_fract_y
_atom_site_fract_z
Si Si1 0.288897 0.500547 0.822098
Si Si2 0.614171 0.227609 0.328156
Si Si3 0.887396 0.731645 0.573309
Si Si4 0.778977 0.500000 0.500000
Si Si5 0.347154 0.208535 0.859472
Si Si6 0.755906 0.960390 0.594821
Si Si7 0.608395 0.974716 0.223181
Si Si8 0.950720 0.828223 0.004822
O O1 0.345121 0.627919 0.796800
O O2 0.273588 0.503950 0.919599
O O3 0.327358 0.348260 0.807085
O O4 0.202558 0.512455 0.786823
O O5 0.683677 0.137760 0.373909
O O6 0.557462 0.271317 0.402536
O O7 0.584173 0.133276 0.252138
O O8 0.833690 0.640521 0.509661
O O9 0.833390 0.862497 0.608012
O O10 0.912382 0.614780 0.642531
O O11 0.963962 0.791922 0.530344
O O12 0.407008 0.117917 0.804328
O O13 0.387059 0.250903 0.945230
O O14 0.267167 0.117221 0.869691
O O15 0.754942 0.000000 0.500000
O O16 0.939851 0.000000 0.000000
#
# Coordination Sequence:
#
# PCOD9317953 Si02
#       8
#     8   8   8   4   8   8   8   8
#     4  11  19  39  65 103 136 175 235 299 370 424
#     4  11  21  40  72 104 139 182 252 297 370 441
#     4  11  25  44  67 101 152 196 249 296 379 443
#     4  10  20  36  66  94 136 184 228 306 350 424
#     4  11  23  36  70 101 141 183 236 305 369 431
#     4  11  20  38  66 105 137 182 242 306 356 425
#     4  10  24  40  65 105 137 186 226 305 371 445
#     4  12  25  45  71 105 142 201 254 309 366 446
#
# _framework density 23.132818
#
# number of rings (size 3 to 8) (size 9 to 14) (size 15 to 20)
#    0.000    1.067    5.333    2.800    1.867    2.667 
#    0.000    1.333    0.000    0.000    0.000    0.000 
#    0.000    0.000    0.000    0.000    0.000    0.000 
#
# Total GULP energy -167574.732757 kJ/mol
# GULP energy per Si atom -5585.824425 kJ/mol
# Density = 2.308017 g / cm^3
# Si number density = 23.132818 Si / 1000 Ang^3
#
#
#
# Elastic Constant Matrix: (Units=GPa)
#
#
# Indices 1 2 3 4 5 6 
#
# 1 107.9743 44.7326 1.8945 0.0000 0.0000 0.0000
# 2 44.7326 162.1909 23.8690 0.0000 0.0000 0.0000
# 3 1.8945 23.8690 62.8505 0.0000 0.0000 0.0000
# 4 0.0000 0.0000 0.0000 5.2195 0.0000 0.0000
# 5 0.0000 0.0000 0.0000 0.0000 12.9343 0.0000
# 6 0.0000 0.0000 0.0000 0.0000 0.0000 -72.9551
#
#
#
# Elastic Compliance Matrix: (Units=1/GPa)
#
#
# Indices 1 2 3 4 5 6 
#
# 1 0.010497 -0.003017 0.000829 0.000000 0.000000 0.000000
# 2 -0.003017 0.007398 -0.002719 0.000000 0.000000 0.000000
# 3 0.000829 -0.002719 0.016918 0.000000 0.000000 0.000000
# 4 0.000000 0.000000 0.000000 0.191590 0.000000 0.000000
# 5 0.000000 0.000000 0.000000 0.000000 0.077314 0.000000
# 6 0.000000 0.000000 0.000000 0.000000 0.000000 -0.013707
#
#
# Mechanical properties :
#
#
# Convention : Reuss Voigt Hill
#
# Bulk Modulus (GPa) = 39.99942 52.66756 46.33349
# Shear Modulus (GPa) = 16.22557 6.54105 11.38331
#
# Velocity S-wave (km/s) = 2.65129 1.68337 2.22071
# Velocity P-wave (km/s) = 5.16732 5.15706 5.16219
#
# Compressibility (1/GPa) = 0.02500036
#
# Stress axis : x y z
#
# Youngs Moduli (GPa) = 95.26644 135.17567 59.10793
#
# Poissons Ratio (x) = 0.40784 -0.04903
# Poissons Ratio (y) = 0.28743 0.16069
# Poissons Ratio (z) = -0.07902 0.36748
#
# Static dielectric constant tensor:
#      x y z
#    x 1.886280 0.000000 0.000000 
#    y 0.000000 1.921700 0.000000 
#    z 0.000000 0.000000 1.940910 
# 
# From -- ./inp_files/25279.got.cif
#   From: 2010.05.17/outbox.cif.g08.bks.cpg/sg20_13_cif.got.tgz:25279.got - 2010.06.03 22:52:26.
