data_PCOD9317919
_publ_section_title
;
Structure prediction by ZEFSAII (Michael W. Deem and Ramdas Pophale) SiO2 
 PCOD9317919
Probable space group: C 2 2 21
;
_chemical_formula_sum "Si O2"
_cell_formula_units_Z 60
_cell_length_a 29.479292
_cell_length_b 13.059016
_cell_length_c 7.404916
_cell_angle_alpha 90.000000
_cell_angle_beta 90.000000
_cell_angle_gamma 90.000000
_cell_volume 2850.674555
_symmetry_space_group_name_H-M "C 2 2 21"
_symmetry_group_IT_number 20
_symmetry_cell_setting 'orthorhombic'
loop_
_space_group_symop_operation_xyz
x,y,z
-x,-y,1/2+z
x,-y,-z
-x,y,1/2-z
1/2+x,1/2+y,z
1/2-x,1/2-y,1/2+z
1/2+x,1/2-y,-z
1/2-x,1/2+y,1/2-z
loop_
_atom_site_type_symbol
_atom_site_label
_atom_site_fract_x
_atom_site_fract_y
_atom_site_fract_z
Si Si1 0.213527 0.882012 0.042810
Si Si2 0.112970 0.113331 0.005072
Si Si3 0.458875 0.778712 0.482936
Si Si4 0.917780 0.500000 0.500000
Si Si5 0.294915 0.759395 0.196546
Si Si6 0.362002 0.615721 0.067259
Si Si7 0.560094 0.765099 0.447468
Si Si8 0.369527 0.926998 0.147676
O O1 0.160619 0.881754 0.102886
O O2 0.215278 0.812912 0.864001
O O3 0.250996 0.827854 0.163066
O O4 0.224353 0.000000 0.000000
O O5 0.078399 0.200078 0.942056
O O6 0.128011 0.120853 0.215973
O O7 0.092102 0.000000 0.000000
O O8 0.446624 0.896479 0.518192
O O9 0.510904 0.761378 0.536654
O O10 0.451586 0.760062 0.267205
O O11 0.887979 0.486343 0.320616
O O12 0.315985 0.682233 0.045366
O O13 0.336264 0.839197 0.220273
O O14 0.405889 0.675539 0.992346
O O15 0.358278 0.500000 0.000000
O O16 0.588876 0.870195 0.455975
O O17 0.346724 0.000000 0.000000
#
# Coordination Sequence:
#
# PCOD9317919 Si02
#       8
#     8   8   8   4   8   8   8   8
#     4  10  21  40  60  87 120 158 203 258 315 384
#     4   9  19  36  56  77 115 152 195 250 304 359
#     4   9  17  34  56  87 114 162 204 242 304 374
#     4  10  20  36  62  88 120 170 210 244 318 380
#     4  10  22  41  60  89 122 156 206 253 320 379
#     4   9  18  35  58  80 112 156 193 241 308 362
#     4   8  17  33  57  81 122 156 197 251 296 356
#     4  10  21  41  61  91 127 166 203 260 312 376
#
# _framework density 21.047650000000001
#
# number of rings (size 3 to 8) (size 9 to 14) (size 15 to 20)
#    0.000    2.667    0.000    2.800    0.933    3.733 
#   14.400    0.000    1.467    0.000    0.000    0.000 
#    0.000    0.000    0.000    0.000    0.000    0.000 
#
# Total GULP energy -167284.943674 kJ/mol
# GULP energy per Si atom -5576.164789 kJ/mol
# Density = 2.099974 g / cm^3
# Si number density = 21.047650 Si / 1000 Ang^3
#
#
#
# Elastic Constant Matrix: (Units=GPa)
#
#
# Indices 1 2 3 4 5 6 
#
# 1 91.3799 37.9825 1.6838 0.0000 0.0000 0.0000
# 2 37.9825 91.4561 -14.5705 0.0000 0.0000 0.0000
# 3 1.6838 -14.5705 21.2122 0.0000 0.0000 0.0000
# 4 0.0000 0.0000 0.0000 30.7272 0.0000 0.0000
# 5 0.0000 0.0000 0.0000 0.0000 11.3568 0.0000
# 6 0.0000 0.0000 0.0000 0.0000 0.0000 -112.5110
#
#
#
# Elastic Compliance Matrix: (Units=1/GPa)
#
#
# Indices 1 2 3 4 5 6 
#
# 1 0.013805 -0.006634 -0.005653 0.000000 0.000000 0.000000
# 2 -0.006634 0.015466 0.011150 0.000000 0.000000 0.000000
# 3 -0.005653 0.011150 0.055250 0.000000 0.000000 0.000000
# 4 0.000000 0.000000 0.000000 0.032544 0.000000 0.000000
# 5 0.000000 0.000000 0.000000 0.000000 0.088053 0.000000
# 6 0.000000 0.000000 0.000000 0.000000 0.000000 -0.008888
#
#
# Mechanical properties :
#
#
# Convention : Reuss Voigt Hill
#
# Bulk Modulus (GPa) = 12.15842 28.24887 20.20364
# Shear Modulus (GPa) = 22.13181 -2.15523 9.98829
#
# Velocity S-wave (km/s) = 3.24622 -1.01301 2.18079
# Velocity P-wave (km/s) = 4.45418 3.47595 3.99512
#
# Compressibility (1/GPa) = 0.08224751
#
# Stress axis : x y z
#
# Youngs Moduli (GPa) = 72.43821 64.65940 18.09952
#
# Poissons Ratio (x) = 0.42894 0.10231
# Poissons Ratio (y) = 0.48054 -0.20181
# Poissons Ratio (z) = 0.40946 -0.72094
#
# Static dielectric constant tensor:
#      x y z
#    x 1.790330 0.000000 0.000000 
#    y 0.000000 1.749350 0.000000 
#    z 0.000000 0.000000 1.822210 
# 
# From -- ./inp_files/11145.got.cif
#   From: 2010.05.17/outbox.cif.g08.bks.cpg/sg20_6_cif.got.tgz:11145.got - 2010.06.03 22:52:26.
