data_PCOD9317699
_publ_section_title
;
Structure prediction by ZEFSAII (Michael W. Deem and Ramdas Pophale) SiO2 
 PCOD9317699
Probable space group: C 2 2 21
;
_chemical_formula_sum "Si O2"
_cell_formula_units_Z 64
_cell_length_a 23.841215
_cell_length_b 12.396086
_cell_length_c 8.559641
_cell_angle_alpha 90.000000
_cell_angle_beta 90.000000
_cell_angle_gamma 90.000000
_cell_volume 2529.697055
_symmetry_space_group_name_H-M "C 2 2 21"
_symmetry_group_IT_number 20
_symmetry_cell_setting 'orthorhombic'
loop_
_space_group_symop_operation_xyz
x,y,z
-x,-y,1/2+z
x,-y,-z
-x,y,1/2-z
1/2+x,1/2+y,z
1/2-x,1/2-y,1/2+z
1/2+x,1/2-y,-z
1/2-x,1/2+y,1/2-z
loop_
_atom_site_type_symbol
_atom_site_label
_atom_site_fract_x
_atom_site_fract_y
_atom_site_fract_z
Si Si1 0.877592 0.939051 0.729955
Si Si2 0.546780 0.407372 0.373771
Si Si3 0.868796 0.560248 0.152685
Si Si4 0.757281 0.987506 0.730892
Si Si5 0.469280 0.285309 0.585336
Si Si6 0.757632 0.659731 0.533706
Si Si7 0.646907 0.245505 0.544436
Si Si8 0.380449 0.877482 0.366554
O O1 0.815350 0.946690 0.658893
O O2 0.922377 0.879834 0.616954
O O3 0.896405 0.059289 0.782592
O O4 0.872030 0.863518 0.889391
O O5 0.542422 0.500000 0.500000
O O6 0.500000 0.435968 0.250000
O O7 0.517837 0.306133 0.459420
O O8 0.801797 0.535330 0.151622
O O9 0.877068 0.686414 0.110562
O O10 0.885941 0.503277 0.316350
O O11 0.893946 0.500000 0.000000
O O12 0.760488 0.108514 0.799491
O O13 0.752550 0.919624 0.889995
O O14 0.500000 0.275319 0.750000
O O15 0.434039 0.177475 0.558303
O O16 0.713464 0.752000 0.491653
O O17 0.824597 0.663134 0.545474
O O18 0.630131 0.175467 0.694567
#
# Coordination Sequence:
#
# PCOD9317699 Si02
#       8
#     8   8   8   8   8   8   8   8
#     4  10  20  34  57  87 123 165 209 252 327 395
#     4  12  22  40  59  86 132 167 212 266 325 391
#     4   9  18  37  55  86 123 160 209 262 302 382
#     4   9  19  33  55  84 122 170 191 243 312 387
#     4  11  22  38  63  88 117 172 214 267 328 383
#     4   9  18  31  51  81 119 158 199 240 306 382
#     4   9  19  29  56  85 115 158 204 252 309 388
#     4   9  20  37  55  82 119 161 213 261 320 374
#
# _framework density 25.299472999999999
#
# number of rings (size 3 to 8) (size 9 to 14) (size 15 to 20)
#    0.000    2.250    2.500    0.000    8.750    0.000 
#    2.250    2.500    0.000    0.000   32.500    0.000 
#    0.000    0.000    0.000    0.000    0.000    0.000 
#
# Total GULP energy -178272.221099 kJ/mol
# GULP energy per Si atom -5571.006909 kJ/mol
# Density = 2.524189 g / cm^3
# Si number density = 25.299473 Si / 1000 Ang^3
#
#
#
# Elastic Constant Matrix: (Units=GPa)
#
#
# Indices 1 2 3 4 5 6 
#
# 1 117.9782 33.7832 11.3628 0.0000 0.0000 0.0000
# 2 33.7832 75.1511 21.3965 0.0000 0.0000 0.0000
# 3 11.3628 21.3965 49.9590 0.0000 0.0000 0.0000
# 4 0.0000 0.0000 0.0000 22.0398 0.0000 0.0000
# 5 0.0000 0.0000 0.0000 0.0000 16.5485 0.0000
# 6 0.0000 0.0000 0.0000 0.0000 0.0000 29.6020
#
#
#
# Elastic Compliance Matrix: (Units=1/GPa)
#
#
# Indices 1 2 3 4 5 6 
#
# 1 0.009735 -0.004266 -0.000387 0.000000 0.000000 0.000000
# 2 -0.004266 0.017024 -0.006321 0.000000 0.000000 0.000000
# 3 -0.000387 -0.006321 0.022811 0.000000 0.000000 0.000000
# 4 0.000000 0.000000 0.000000 0.045373 0.000000 0.000000
# 5 0.000000 0.000000 0.000000 0.000000 0.060428 0.000000
# 6 0.000000 0.000000 0.000000 0.000000 0.000000 0.033781
#
#
# Mechanical properties :
#
#
# Convention : Reuss Voigt Hill
#
# Bulk Modulus (GPa) = 36.20215 41.79703 38.99959
# Shear Modulus (GPa) = 22.69550 25.40778 24.05164
#
# Velocity S-wave (km/s) = 2.99837 3.17248 3.08665
# Velocity P-wave (km/s) = 5.13103 5.47506 5.30583
#
# Compressibility (1/GPa) = 0.02762267
#
# Stress axis : x y z
#
# Youngs Moduli (GPa) = 102.72213 58.74116 43.83754
#
# Poissons Ratio (x) = 0.25059 0.01697
# Poissons Ratio (y) = 0.43822 0.27708
# Poissons Ratio (z) = 0.03976 0.37129
#
# Static dielectric constant tensor:
#      x y z
#    x 2.003960 0.000000 0.000000 
#    y 0.000000 2.169750 0.000000 
#    z 0.000000 0.000000 2.240330 
# 
# From -- ./inp_files/10829.got.cif
#   From: 2010.05.17/outbox.cif.g08.bks.cpg/sg20_6_cif.got.tgz:10829.got - 2010.06.03 22:52:26.
