data_PCOD9317830
_publ_section_title
;
Structure prediction by ZEFSAII (Michael W. Deem and Ramdas Pophale) SiO2 
 PCOD9317830
Probable space group: C 2 2 21
;
_chemical_formula_sum "Si O2"
_cell_formula_units_Z 64
_cell_length_a 18.868304
_cell_length_b 12.512196
_cell_length_c 14.292748
_cell_angle_alpha 90.000000
_cell_angle_beta 90.000000
_cell_angle_gamma 90.000000
_cell_volume 3374.287944
_symmetry_space_group_name_H-M "C 2 2 21"
_symmetry_group_IT_number 20
_symmetry_cell_setting 'orthorhombic'
loop_
_space_group_symop_operation_xyz
x,y,z
-x,-y,1/2+z
x,-y,-z
-x,y,1/2-z
1/2+x,1/2+y,z
1/2-x,1/2-y,1/2+z
1/2+x,1/2-y,-z
1/2-x,1/2+y,1/2-z
loop_
_atom_site_type_symbol
_atom_site_label
_atom_site_fract_x
_atom_site_fract_y
_atom_site_fract_z
Si Si1 0.147718 0.174306 0.255521
Si Si2 0.721363 0.485516 0.608370
Si Si3 0.719664 0.538815 0.102923
Si Si4 0.274947 0.660218 0.742158
Si Si5 0.984400 0.623500 0.476450
Si Si6 0.138579 0.352708 0.835147
Si Si7 0.455911 0.839599 0.166204
Si Si8 0.118925 0.553883 0.363064
O O1 0.165767 0.086325 0.334111
O O2 0.164874 0.117699 0.155868
O O3 0.205342 0.268312 0.261041
O O4 0.077057 0.235352 0.285360
O O5 0.706241 0.500000 0.500000
O O6 0.721910 0.600736 0.658556
O O7 0.795567 0.420978 0.622723
O O8 0.726210 0.435572 0.168636
O O9 0.801231 0.582144 0.103754
O O10 0.699590 0.500000 0.000000
O O11 0.335541 0.741890 0.710426
O O12 0.965938 0.500000 0.500000
O O13 0.921711 0.665336 0.411557
O O14 0.996367 0.682030 0.575065
O O15 0.058401 0.616209 0.419878
O O16 0.112909 0.419779 0.746124
O O17 0.500000 0.893558 0.250000
O O18 0.399122 0.927502 0.129189
#
# Coordination Sequence:
#
# PCOD9317830 Si02
#       8
#     8   8   8   8   8   8   8   8
#     4  10  21  38  56  85 117 156 193 248 298 350
#     4  10  21  36  57  84 116 155 192 246 292 352
#     4  11  21  36  59  87 119 154 202 251 300 361
#     4  10  20  36  56  85 118 154 196 241 302 347
#     4  10  22  34  55  91 121 163 193 238 303 368
#     4  11  20  37  57  86 124 156 197 243 299 359
#     4  11  22  37  60  83 121 159 199 245 299 363
#     4  11  19  36  58  86 124 153 188 249 304 361
#
# _framework density 18.966964999999998
#
# number of rings (size 3 to 8) (size 9 to 14) (size 15 to 20)
#    0.000    1.500    5.000    3.375    0.000    5.000 
#    0.000    0.000    0.000    9.750    0.000    0.000 
#    0.000    0.000    0.000    0.000    0.000    0.000 
#
# Total GULP energy -178452.703492 kJ/mol
# GULP energy per Si atom -5576.646984 kJ/mol
# Density = 1.892380 g / cm^3
# Si number density = 18.966965 Si / 1000 Ang^3
#
#
#
# Elastic Constant Matrix: (Units=GPa)
#
#
# Indices 1 2 3 4 5 6 
#
# 1 73.6928 26.2048 39.0125 0.0000 0.0000 0.0000
# 2 26.2048 58.9551 9.1583 0.0000 0.0000 0.0000
# 3 39.0125 9.1583 123.0950 0.0000 0.0000 0.0000
# 4 0.0000 0.0000 0.0000 21.2394 0.0000 0.0000
# 5 0.0000 0.0000 0.0000 0.0000 0.7135 0.0000
# 6 0.0000 0.0000 0.0000 0.0000 0.0000 13.8957
#
#
#
# Elastic Compliance Matrix: (Units=1/GPa)
#
#
# Indices 1 2 3 4 5 6 
#
# 1 0.019227 -0.007688 -0.005522 0.000000 0.000000 0.000000
# 2 -0.007688 0.020235 0.000931 0.000000 0.000000 0.000000
# 3 -0.005522 0.000931 0.009804 0.000000 0.000000 0.000000
# 4 0.000000 0.000000 0.000000 0.047082 0.000000 0.000000
# 5 0.000000 0.000000 0.000000 0.000000 1.401527 0.000000
# 6 0.000000 0.000000 0.000000 0.000000 0.000000 0.071965
#
#
# Mechanical properties :
#
#
# Convention : Reuss Voigt Hill
#
# Bulk Modulus (GPa) = 40.47158 44.94379 42.70769
# Shear Modulus (GPa) = 3.11987 19.26088 11.19037
#
# Velocity S-wave (km/s) = 1.28393 3.19014 2.43161
# Velocity P-wave (km/s) = 4.85615 6.10873 5.51810
#
# Compressibility (1/GPa) = 0.02470870
#
# Stress axis : x y z
#
# Youngs Moduli (GPa) = 52.01065 49.41985 101.99432
#
# Poissons Ratio (x) = 0.37996 0.56317
# Poissons Ratio (y) = 0.39988 -0.09498
# Poissons Ratio (z) = 0.28718 -0.04602
#
# Static dielectric constant tensor:
#      x y z
#    x 1.704690 0.000000 0.000000 
#    y 0.000000 1.681210 0.000000 
#    z 0.000000 0.000000 1.667700 
# 
# From -- ./inp_files/21522.got.cif
#   From: 2010.05.17/outbox.cif.g08.bks.cpg/sg20_11_cif.got.tgz:21522.got - 2010.06.03 22:52:26.
