data_PCOD9317940
_publ_section_title
;
Structure prediction by ZEFSAII (Michael W. Deem and Ramdas Pophale) SiO2 
 PCOD9317940
Probable space group: C 2 2 21
;
_chemical_formula_sum "Si O2"
_cell_formula_units_Z 60
_cell_length_a 10.841032
_cell_length_b 13.905971
_cell_length_c 17.992373
_cell_angle_alpha 90.000000
_cell_angle_beta 90.000000
_cell_angle_gamma 90.000000
_cell_volume 2712.441570
_symmetry_space_group_name_H-M "C 2 2 21"
_symmetry_group_IT_number 20
_symmetry_cell_setting 'orthorhombic'
loop_
_space_group_symop_operation_xyz
x,y,z
-x,-y,1/2+z
x,-y,-z
-x,y,1/2-z
1/2+x,1/2+y,z
1/2-x,1/2-y,1/2+z
1/2+x,1/2-y,-z
1/2-x,1/2+y,1/2-z
loop_
_atom_site_type_symbol
_atom_site_label
_atom_site_fract_x
_atom_site_fract_y
_atom_site_fract_z
Si Si1 0.446735 0.311069 0.012606
Si Si2 0.027334 0.896013 0.865981
Si Si3 0.282709 0.865266 0.804148
Si Si4 0.353878 0.602300 0.600608
Si Si5 0.145162 0.154297 0.739934
Si Si6 0.230751 0.000000 0.500000
Si Si7 0.350565 0.095970 0.027161
Si Si8 0.743656 0.528151 0.338502
O O1 0.540547 0.322417 0.080140
O O2 0.353038 0.403225 0.014169
O O3 0.397661 0.203853 0.014669
O O4 0.521854 0.327045 0.936649
O O5 0.132996 0.859862 0.810761
O O6 0.885956 0.913067 0.843355
O O7 0.077294 0.001013 0.889171
O O8 0.336135 0.760235 0.790519
O O9 0.323289 0.908170 0.884158
O O10 0.315767 0.926673 0.730903
O O11 0.296596 0.635704 0.678395
O O12 0.263535 0.593692 0.531171
O O13 0.000000 0.131688 0.750000
O O14 0.205919 0.078492 0.685166
O O15 0.296812 0.975900 0.578080
O O16 0.422692 0.000000 0.000000
#
# Coordination Sequence:
#
# PCOD9317940 Si02
#       8
#     8   8   8   8   8   4   8   8
#     4  11  21  38  71  98 124 168 221 279 325 388
#     4  11  20  40  68  97 125 162 226 282 323 388
#     4  12  24  38  65  97 129 169 222 267 334 402
#     4  12  20  42  68  96 123 172 220 271 331 399
#     4  12  23  40  64  93 128 170 215 267 329 395
#     4  10  20  36  64  98 120 154 220 280 328 366
#     4  12  24  40  65  96 134 176 221 262 337 427
#     4  11  21  39  64  93 128 166 213 282 325 376
#
# _framework density 22.120291999999999
#
# number of rings (size 3 to 8) (size 9 to 14) (size 15 to 20)
#    0.000    0.533    8.000    2.000    3.733    0.000 
#    0.000    0.000    7.333    0.000    0.000    0.000 
#    0.000    0.000    0.000    0.000    0.000    0.000 
#
# Total GULP energy -167480.246187 kJ/mol
# GULP energy per Si atom -5582.674873 kJ/mol
# Density = 2.206995 g / cm^3
# Si number density = 22.120292 Si / 1000 Ang^3
#
#
#
# Elastic Constant Matrix: (Units=GPa)
#
#
# Indices 1 2 3 4 5 6 
#
# 1 13.2298 12.5310 14.4923 0.0000 0.0000 0.0000
# 2 12.5310 119.5745 45.3234 0.0000 0.0000 0.0000
# 3 14.4923 45.3234 208.0694 0.0000 0.0000 0.0000
# 4 0.0000 0.0000 0.0000 34.0190 0.0000 0.0000
# 5 0.0000 0.0000 0.0000 0.0000 20.1478 0.0000
# 6 0.0000 0.0000 0.0000 0.0000 0.0000 8.0588
#
#
#
# Elastic Compliance Matrix: (Units=1/GPa)
#
#
# Indices 1 2 3 4 5 6 
#
# 1 0.087571 -0.007483 -0.004469 0.000000 0.000000 0.000000
# 2 -0.007483 0.009755 -0.001604 0.000000 0.000000 0.000000
# 3 -0.004469 -0.001604 0.005467 0.000000 0.000000 0.000000
# 4 0.000000 0.000000 0.000000 0.029395 0.000000 0.000000
# 5 0.000000 0.000000 0.000000 0.000000 0.049633 0.000000
# 6 0.000000 0.000000 0.000000 0.000000 0.000000 0.124087
#
#
# Mechanical properties :
#
#
# Convention : Reuss Voigt Hill
#
# Bulk Modulus (GPa) = 13.21351 53.95189 33.58270
# Shear Modulus (GPa) = 13.95684 30.34692 22.15188
#
# Velocity S-wave (km/s) = 2.51460 3.70794 3.16797
# Velocity P-wave (km/s) = 3.79703 6.54026 5.34754
#
# Compressibility (1/GPa) = 0.07568011
#
# Stress axis : x y z
#
# Youngs Moduli (GPa) = 11.41935 102.51083 182.92493
#
# Poissons Ratio (x) = 0.76710 0.81756
# Poissons Ratio (y) = 0.08545 0.29336
# Poissons Ratio (z) = 0.05104 0.16440
#
# Static dielectric constant tensor:
#      x y z
#    x 1.840870 0.000000 0.000000 
#    y 0.000000 1.822760 0.000000 
#    z 0.000000 0.000000 1.897270 
# 
# From -- ./inp_files/24962.got.cif
#   From: 2010.05.17/outbox.cif.g08.bks.cpg/sg20_13_cif.got.tgz:24962.got - 2010.06.03 22:52:26.
