data_PCOD9317705
_publ_section_title
;
Structure prediction by ZEFSAII (Michael W. Deem and Ramdas Pophale) SiO2 
 PCOD9317705
Probable space group: C 2 2 21
;
_chemical_formula_sum "Si O2"
_cell_formula_units_Z 36
_cell_length_a 7.498393
_cell_length_b 15.553642
_cell_length_c 14.250146
_cell_angle_alpha 90.000000
_cell_angle_beta 90.000000
_cell_angle_gamma 90.000000
_cell_volume 1661.956342
_symmetry_space_group_name_H-M "C 2 2 21"
_symmetry_group_IT_number 20
_symmetry_cell_setting 'orthorhombic'
loop_
_space_group_symop_operation_xyz
x,y,z
-x,-y,1/2+z
x,-y,-z
-x,y,1/2-z
1/2+x,1/2+y,z
1/2-x,1/2-y,1/2+z
1/2+x,1/2-y,-z
1/2-x,1/2+y,1/2-z
loop_
_atom_site_type_symbol
_atom_site_label
_atom_site_fract_x
_atom_site_fract_y
_atom_site_fract_z
Si Si1 0.804541 0.296380 0.357104
Si Si2 0.193043 0.674502 0.200790
Si Si3 0.551314 0.566689 0.580857
Si Si4 0.000000 0.959241 0.750000
Si Si5 0.982091 0.252742 0.525293
O O1 0.776935 0.257080 0.255352
O O2 0.723778 0.391118 0.367971
O O3 0.979923 0.284787 0.418798
O O4 0.672043 0.238442 0.422710
O O5 0.335894 0.599793 0.216533
O O6 0.151906 0.694207 0.092194
O O7 0.000000 0.658183 0.250000
O O8 0.597861 0.500000 0.500000
O O9 0.445525 0.518129 0.662178
O O10 0.454769 0.650045 0.537300
#
# Coordination Sequence:
#
# PCOD9317705 Si02
#       5
#     8   8   8   4   8
#     4   9  19  35  57  81 114 150 191 233 283 350
#     4  10  21  38  57  84 116 154 196 236 283 358
#     4  10  20  34  58  88 114 144 192 242 292 332
#     4  12  22  36  66  84 116 154 192 244 302 332
#     4   9  19  35  57  81 114 150 191 233 283 350
#
# _framework density 21.661218000000002
#
# number of rings (size 3 to 8) (size 9 to 14) (size 15 to 20)
#    1.333    0.889    0.000    4.000    3.111    0.000 
#    0.000    2.222    4.889    8.000    0.000    0.000 
#    0.000    0.000    0.000    0.000    0.000    0.000 
#
# Total GULP energy -100275.515743 kJ/mol
# GULP energy per Si atom -5570.861986 kJ/mol
# Density = 2.161192 g / cm^3
# Si number density = 21.661218 Si / 1000 Ang^3
#
#
#
# Elastic Constant Matrix: (Units=GPa)
#
#
# Indices 1 2 3 4 5 6 
#
# 1 56.8712 9.6187 14.9237 0.0000 0.0000 0.0000
# 2 9.6187 97.6014 25.9997 0.0000 0.0000 0.0000
# 3 14.9237 25.9997 99.0219 0.0000 0.0000 0.0000
# 4 0.0000 0.0000 0.0000 28.7887 0.0000 0.0000
# 5 0.0000 0.0000 0.0000 0.0000 34.7055 0.0000
# 6 0.0000 0.0000 0.0000 0.0000 0.0000 12.6579
#
#
#
# Elastic Compliance Matrix: (Units=1/GPa)
#
#
# Indices 1 2 3 4 5 6 
#
# 1 0.018428 -0.001157 -0.002474 0.000000 0.000000 0.000000
# 2 -0.001157 0.011089 -0.002737 0.000000 0.000000 0.000000
# 3 -0.002474 -0.002737 0.011190 0.000000 0.000000 0.000000
# 4 0.000000 0.000000 0.000000 0.034736 0.000000 0.000000
# 5 0.000000 0.000000 0.000000 0.000000 0.028814 0.000000
# 6 0.000000 0.000000 0.000000 0.000000 0.000000 0.079002
#
#
# Mechanical properties :
#
#
# Convention : Reuss Voigt Hill
#
# Bulk Modulus (GPa) = 35.75031 39.39763 37.57397
# Shear Modulus (GPa) = 24.35230 28.76055 26.55643
#
# Velocity S-wave (km/s) = 3.35660 3.64778 3.50521
# Velocity P-wave (km/s) = 5.61805 5.99744 5.81084
#
# Compressibility (1/GPa) = 0.02797179
#
# Stress axis : x y z
#
# Youngs Moduli (GPa) = 54.26403 90.17993 89.36346
#
# Poissons Ratio (x) = 0.10436 0.22104
# Poissons Ratio (y) = 0.06280 0.24460
# Poissons Ratio (z) = 0.13422 0.24684
#
# Static dielectric constant tensor:
#      x y z
#    x 1.914040 0.000000 0.000000 
#    y 0.000000 1.753260 0.000000 
#    z 0.000000 0.000000 1.842720 
# 
# From -- ./inp_files/18634.got.cif
#   From: 2010.05.17/outbox.cif.g08.bks.cpg/sg20_10_cif.got.tgz:18634.got - 2010.06.03 22:52:26.
