data_PCOD9317059
_publ_section_title
;
Structure prediction by ZEFSAII (Michael W. Deem and Ramdas Pophale) SiO2 
 PCOD9317059
Probable space group: C 2 2 21
;
_chemical_formula_sum "Si O2"
_cell_formula_units_Z 52
_cell_length_a 5.391318
_cell_length_b 21.767813
_cell_length_c 17.334079
_cell_angle_alpha 90.000000
_cell_angle_beta 90.000000
_cell_angle_gamma 90.000000
_cell_volume 2034.279012
_symmetry_space_group_name_H-M "C 2 2 21"
_symmetry_group_IT_number 20
_symmetry_cell_setting 'orthorhombic'
loop_
_space_group_symop_operation_xyz
x,y,z
-x,-y,1/2+z
x,-y,-z
-x,y,1/2-z
1/2+x,1/2+y,z
1/2-x,1/2-y,1/2+z
1/2+x,1/2-y,-z
1/2-x,1/2+y,1/2-z
loop_
_atom_site_type_symbol
_atom_site_label
_atom_site_fract_x
_atom_site_fract_y
_atom_site_fract_z
Si Si1 0.862905 0.406563 0.409860
Si Si2 0.000000 0.985029 0.250000
Si Si3 0.209153 0.227888 0.897950
Si Si4 0.000000 0.599263 0.750000
Si Si5 0.091275 0.338466 0.537160
Si Si6 0.106830 0.176677 0.173356
Si Si7 0.000000 0.768181 0.250000
Si Si8 0.870119 0.979856 0.410835
O O1 0.938900 0.367330 0.332417
O O2 0.884046 0.378972 0.496336
O O3 0.081234 0.458475 0.406311
O O4 0.581729 0.427675 0.403173
O O5 0.252868 0.943772 0.248394
O O6 0.959468 0.017618 0.333806
O O7 0.418448 0.278050 0.872957
O O8 0.006614 0.272902 0.935008
O O9 0.112314 0.196493 0.820523
O O10 0.254526 0.177782 0.961813
O O11 0.246077 0.362437 0.609277
O O12 0.296180 0.223393 0.214357
O O13 0.000000 0.144210 0.250000
O O14 0.899877 0.000000 0.500000
#
# Coordination Sequence:
#
# PCOD9317059 Si02
#       8
#     8   4   8   4   8   8   4   8
#     4  10  22  36  60  90 119 154 192 243 287 359
#     4   8  16  32  61  82 116 149 180 221 288 376
#     4  10  19  34  52  76 109 154 190 242 289 338
#     4   8  16  36  50  84 119 151 176 225 307 336
#     4  11  21  33  55  82 114 151 201 240 293 341
#     4   9  18  35  55  71 104 152 198 236 291 341
#     4   8  18  34  51  74  97 148 204 232 285 340
#     4  10  20  39  64  88 119 153 190 234 301 359
#
# _framework density 25.561883000000002
#
# number of rings (size 3 to 8) (size 9 to 14) (size 15 to 20)
#    0.000    2.462    1.538    0.462    2.154    0.000 
#    4.154    3.077    1.692    0.000    0.000    0.000 
#    0.000    0.000    0.000    0.000    0.000    0.000 
#
# Total GULP energy -144798.618826 kJ/mol
# GULP energy per Si atom -5569.177647 kJ/mol
# Density = 2.550370 g / cm^3
# Si number density = 25.561883 Si / 1000 Ang^3
#
#
#
# Elastic Constant Matrix: (Units=GPa)
#
#
# Indices 1 2 3 4 5 6 
#
# 1 107.5938 15.7749 22.2292 0.0000 0.0000 0.0000
# 2 15.7749 24.5107 16.3660 0.0000 0.0000 0.0000
# 3 22.2292 16.3660 193.2209 0.0000 0.0000 0.0000
# 4 0.0000 0.0000 0.0000 9.4941 0.0000 0.0000
# 5 0.0000 0.0000 0.0000 0.0000 38.2760 0.0000
# 6 0.0000 0.0000 0.0000 0.0000 0.0000 10.6293
#
#
#
# Elastic Compliance Matrix: (Units=1/GPa)
#
#
# Indices 1 2 3 4 5 6 
#
# 1 0.010342 -0.006213 -0.000664 0.000000 0.000000 0.000000
# 2 -0.006213 0.046977 -0.003264 0.000000 0.000000 0.000000
# 3 -0.000664 -0.003264 0.005528 0.000000 0.000000 0.000000
# 4 0.000000 0.000000 0.000000 0.105329 0.000000 0.000000
# 5 0.000000 0.000000 0.000000 0.000000 0.026126 0.000000
# 6 0.000000 0.000000 0.000000 0.000000 0.000000 0.094080
#
#
# Mechanical properties :
#
#
# Convention : Reuss Voigt Hill
#
# Bulk Modulus (GPa) = 23.49322 48.22950 35.86136
# Shear Modulus (GPa) = 15.48697 29.74356 22.61527
#
# Velocity S-wave (km/s) = 2.46410 3.41484 2.97766
# Velocity P-wave (km/s) = 4.16009 5.87000 5.08740
#
# Compressibility (1/GPa) = 0.04256547
#
# Stress axis : x y z
#
# Youngs Moduli (GPa) = 96.69075 21.28716 180.88934
#
# Poissons Ratio (x) = 0.13226 0.12003
# Poissons Ratio (y) = 0.60075 0.59045
# Poissons Ratio (z) = 0.06416 0.06948
#
# Static dielectric constant tensor:
#      x y z
#    x 2.107250 0.000000 0.000000 
#    y 0.000000 2.050540 0.000000 
#    z 0.000000 0.000000 2.329910 
# 
# From -- ./inp_files/22900.got.cif
#   From: 2010.05.17/outbox.cif.g08.bks.cpg/sg20_12_cif.got.tgz:22900.got - 2010.06.03 22:52:26.
