data_PCOD9317595
_publ_section_title
;
Structure prediction by ZEFSAII (Michael W. Deem and Ramdas Pophale) SiO2 
 PCOD9317595
Probable space group: C 2 2 21
;
_chemical_formula_sum "Si O2"
_cell_formula_units_Z 56
_cell_length_a 23.426841
_cell_length_b 5.163596
_cell_length_c 25.862023
_cell_angle_alpha 90.000000
_cell_angle_beta 90.000000
_cell_angle_gamma 90.000000
_cell_volume 3128.444676
_symmetry_space_group_name_H-M "C 2 2 21"
_symmetry_group_IT_number 20
_symmetry_cell_setting 'orthorhombic'
loop_
_space_group_symop_operation_xyz
x,y,z
-x,-y,1/2+z
x,-y,-z
-x,y,1/2-z
1/2+x,1/2+y,z
1/2-x,1/2-y,1/2+z
1/2+x,1/2-y,-z
1/2-x,1/2+y,1/2-z
loop_
_atom_site_type_symbol
_atom_site_label
_atom_site_fract_x
_atom_site_fract_y
_atom_site_fract_z
Si Si1 0.037205 0.997945 0.634844
Si Si2 0.508675 0.999633 0.810467
Si Si3 0.610852 0.045715 0.884364
Si Si4 0.436128 0.455373 0.439251
Si Si5 0.272115 0.014340 0.332620
Si Si6 0.847189 0.832454 0.170506
Si Si7 0.685464 0.175831 0.722526
O O1 0.028041 0.713186 0.658302
O O2 0.009628 0.210364 0.673541
O O3 0.102618 0.087071 0.632330
O O4 0.000415 0.013536 0.582747
O O5 0.500000 0.038952 0.750000
O O6 0.573042 0.036841 0.831734
O O7 0.600900 0.326126 0.909544
O O8 0.675795 0.977848 0.871348
O O9 0.585057 0.827229 0.921963
O O10 0.433151 0.500000 0.500000
O O11 0.216217 0.863364 0.352873
O O12 0.295354 0.881866 0.280210
O O13 0.243277 0.279690 0.311596
O O14 0.850364 0.555405 0.197463
O O15 0.846856 0.052589 0.215424
#
# Coordination Sequence:
#
# PCOD9317595 Si02
#       7
#     8   8   8   8   8   8   8
#     4  10  21  36  54  80 105 145 190 222 280 333
#     4  10  21  34  48  79 116 151 175 225 270 331
#     4  10  23  34  60  85 110 145 195 233 281 344
#     4  10  22  43  61  80 104 142 192 247 301 338
#     4  10  21  33  51  82 117 151 196 211 264 327
#     4  10  20  32  51  77 108 154 186 219 260 315
#     4  10  20  32  49  78 116 163 182 205 256 324
#
# _framework density 17.900268000000001
#
# number of rings (size 3 to 8) (size 9 to 14) (size 15 to 20)
#    0.857    1.143    1.429    1.714    6.000    0.000 
#    0.000    0.000    0.000    1.714    0.000    0.000 
#    0.000    0.000    0.000    0.000    0.000    0.000 
#
# Total GULP energy -156054.502725 kJ/mol
# GULP energy per Si atom -5573.375097 kJ/mol
# Density = 1.785953 g / cm^3
# Si number density = 17.900268 Si / 1000 Ang^3
#
#
#
# Elastic Constant Matrix: (Units=GPa)
#
#
# Indices 1 2 3 4 5 6 
#
# 1 76.2303 -8.6379 14.4599 0.0000 0.0000 0.0000
# 2 -8.6379 77.8973 -10.6078 0.0000 0.0000 0.0000
# 3 14.4599 -10.6078 50.4269 0.0000 0.0000 0.0000
# 4 0.0000 0.0000 0.0000 13.4250 0.0000 0.0000
# 5 0.0000 0.0000 0.0000 0.0000 9.6344 0.0000
# 6 0.0000 0.0000 0.0000 0.0000 0.0000 19.8632
#
#
#
# Elastic Compliance Matrix: (Units=1/GPa)
#
#
# Indices 1 2 3 4 5 6 
#
# 1 0.013953 0.001032 -0.003784 0.000000 0.000000 0.000000
# 2 0.001032 0.013292 0.002500 0.000000 0.000000 0.000000
# 3 -0.003784 0.002500 0.021442 0.000000 0.000000 0.000000
# 4 0.000000 0.000000 0.000000 0.074488 0.000000 0.000000
# 5 0.000000 0.000000 0.000000 0.000000 0.103795 0.000000
# 6 0.000000 0.000000 0.000000 0.000000 0.000000 0.050344
#
#
# Mechanical properties :
#
#
# Convention : Reuss Voigt Hill
#
# Bulk Modulus (GPa) = 20.75402 21.66477 21.20940
# Shear Modulus (GPa) = 17.01382 22.54054 19.77718
#
# Velocity S-wave (km/s) = 3.08633 3.55241 3.32754
# Velocity P-wave (km/s) = 4.93153 5.38103 5.16118
#
# Compressibility (1/GPa) = 0.04818343
#
# Stress axis : x y z
#
# Youngs Moduli (GPa) = 71.67003 75.23141 46.63817
#
# Poissons Ratio (x) = -0.07763 0.17647
# Poissons Ratio (y) = -0.07396 -0.11661
# Poissons Ratio (z) = 0.27119 -0.18810
#
# Static dielectric constant tensor:
#      x y z
#    x 1.667980 0.000000 0.000000 
#    y 0.000000 1.631900 0.000000 
#    z 0.000000 0.000000 1.560710 
# 
# From -- ./inp_files/27998.got.cif
#   From: 2010.05.17/outbox.cif.g08.bks.cpg/sg20_14_cif.got.tgz:27998.got - 2010.06.03 22:52:26.
