data_PCOD9317234
_publ_section_title
;
Structure prediction by ZEFSAII (Michael W. Deem and Ramdas Pophale) SiO2 
 PCOD9317234
Probable space group: C 2 2 21
;
_chemical_formula_sum "Si O2"
_cell_formula_units_Z 52
_cell_length_a 14.351897
_cell_length_b 7.664530
_cell_length_c 19.963088
_cell_angle_alpha 90.000000
_cell_angle_beta 90.000000
_cell_angle_gamma 90.000000
_cell_volume 2195.950562
_symmetry_space_group_name_H-M "C 2 2 21"
_symmetry_group_IT_number 20
_symmetry_cell_setting 'orthorhombic'
loop_
_space_group_symop_operation_xyz
x,y,z
-x,-y,1/2+z
x,-y,-z
-x,y,1/2-z
1/2+x,1/2+y,z
1/2-x,1/2-y,1/2+z
1/2+x,1/2-y,-z
1/2-x,1/2+y,1/2-z
loop_
_atom_site_type_symbol
_atom_site_label
_atom_site_fract_x
_atom_site_fract_y
_atom_site_fract_z
Si Si1 0.829697 0.648157 0.600268
Si Si2 0.500000 0.279529 0.250000
Si Si3 0.842335 0.261872 0.542849
Si Si4 0.997888 0.555172 0.823148
Si Si5 0.653980 0.570025 0.660185
Si Si6 0.334783 0.819074 0.102827
Si Si7 0.056827 0.805510 0.473011
O O1 0.816143 0.455939 0.567741
O O2 0.817020 0.767523 0.535285
O O3 0.934292 0.656453 0.627348
O O4 0.758432 0.647539 0.662189
O O5 0.414472 0.387430 0.220907
O O6 0.466563 0.140646 0.306726
O O7 0.773802 0.146173 0.588414
O O8 0.953747 0.260229 0.543714
O O9 0.000000 0.641655 0.750000
O O10 0.895231 0.547569 0.853898
O O11 0.654691 0.364550 0.642891
O O12 0.614735 0.666995 0.594168
O O13 0.386782 0.795732 0.030872
O O14 0.042360 0.000000 0.500000
#
# Coordination Sequence:
#
# PCOD9317234 Si02
#       7
#     8   4   8   8   8   8   8
#     4  10  19  38  64  85 116 157 199 248 307 362
#     4  10  24  42  56  84 126 166 202 248 302 364
#     4  10  19  35  64  93 116 152 194 252 320 355
#     4  10  23  42  55  87 127 162 202 252 305 372
#     4  10  21  40  62  84 117 161 206 248 295 375
#     4  10  20  39  65  88 118 160 208 253 309 364
#     4  10  19  36  60  90 121 150 199 258 305 364
#
# _framework density 23.679950999999999
#
# number of rings (size 3 to 8) (size 9 to 14) (size 15 to 20)
#    0.462    1.538    3.077    0.923    1.077    0.000 
#   11.077    0.000    0.000    0.000    0.000    0.000 
#    0.000    0.000    0.000    0.000    0.000    0.000 
#
# Total GULP energy -145129.186129 kJ/mol
# GULP energy per Si atom -5581.891774 kJ/mol
# Density = 2.362605 g / cm^3
# Si number density = 23.679951 Si / 1000 Ang^3
#
#
#
# Elastic Constant Matrix: (Units=GPa)
#
#
# Indices 1 2 3 4 5 6 
#
# 1 59.3540 -19.3605 -19.3905 0.0000 0.0000 0.0000
# 2 -19.3605 28.7826 1.4177 0.0000 0.0000 0.0000
# 3 -19.3905 1.4177 51.5005 0.0000 0.0000 0.0000
# 4 0.0000 0.0000 0.0000 19.7393 0.0000 0.0000
# 5 0.0000 0.0000 0.0000 0.0000 37.9484 0.0000
# 6 0.0000 0.0000 0.0000 0.0000 0.0000 15.2230
#
#
#
# Elastic Compliance Matrix: (Units=1/GPa)
#
#
# Indices 1 2 3 4 5 6 
#
# 1 0.025175 0.016489 0.009025 0.000000 0.000000 0.000000
# 2 0.016489 0.045591 0.004953 0.000000 0.000000 0.000000
# 3 0.009025 0.004953 0.022679 0.000000 0.000000 0.000000
# 4 0.000000 0.000000 0.000000 0.050660 0.000000 0.000000
# 5 0.000000 0.000000 0.000000 0.000000 0.026352 0.000000
# 6 0.000000 0.000000 0.000000 0.000000 0.000000 0.065690
#
#
# Mechanical properties :
#
#
# Convention : Reuss Voigt Hill
#
# Bulk Modulus (GPa) = 6.47754 7.21894 6.84824
# Shear Modulus (GPa) = 22.05838 26.38019 24.21929
#
# Velocity S-wave (km/s) = 3.05539 3.34133 3.20156
# Velocity P-wave (km/s) = 3.89726 4.23570 4.07000
#
# Compressibility (1/GPa) = 0.15437966
#
# Stress axis : x y z
#
# Youngs Moduli (GPa) = 39.72195 21.93425 44.09394
#
# Poissons Ratio (x) = -0.36168 -0.39794
# Poissons Ratio (y) = -0.65499 -0.21841
# Poissons Ratio (z) = -0.35848 -0.10865
#
# Static dielectric constant tensor:
#      x y z
#    x 2.039600 0.000000 0.000000 
#    y 0.000000 1.929580 0.000000 
#    z 0.000000 0.000000 1.917660 
# 
# From -- ./inp_files/27527.got.cif
#   From: 2010.05.17/outbox.cif.g08.bks.cpg/sg20_14_cif.got.tgz:27527.got - 2010.06.03 22:52:26.
