data_PCOD9317902
_publ_section_title
;
Structure prediction by ZEFSAII (Michael W. Deem and Ramdas Pophale) SiO2 
 PCOD9317902
Probable space group: C 2 2 21
;
_chemical_formula_sum "Si O2"
_cell_formula_units_Z 36
_cell_length_a 9.780907
_cell_length_b 9.093457
_cell_length_c 18.994614
_cell_angle_alpha 90.000000
_cell_angle_beta 90.000000
_cell_angle_gamma 90.000000
_cell_volume 1689.423844
_symmetry_space_group_name_H-M "C 2 2 21"
_symmetry_group_IT_number 20
_symmetry_cell_setting 'orthorhombic'
loop_
_space_group_symop_operation_xyz
x,y,z
-x,-y,1/2+z
x,-y,-z
-x,y,1/2-z
1/2+x,1/2+y,z
1/2-x,1/2-y,1/2+z
1/2+x,1/2-y,-z
1/2-x,1/2+y,1/2-z
loop_
_atom_site_type_symbol
_atom_site_label
_atom_site_fract_x
_atom_site_fract_y
_atom_site_fract_z
Si Si1 0.775859 0.230934 0.110584
Si Si2 0.083062 0.966991 0.140450
Si Si3 0.786563 0.033426 0.794036
Si Si4 0.923778 0.303601 0.381868
Si Si5 0.284637 0.000000 0.500000
O O1 0.651043 0.339112 0.095244
O O2 0.913952 0.318530 0.126641
O O3 0.742525 0.127056 0.177359
O O4 0.797499 0.119204 0.045616
O O5 0.168217 0.967666 0.213668
O O6 0.926146 0.934903 0.161679
O O7 0.097095 0.129207 0.108564
O O8 0.666361 0.143803 0.815460
O O9 0.873365 0.405731 0.445220
#
# Coordination Sequence:
#
# PCOD9317902 Si02
#       5
#     8   8   8   8   4
#     4  10  22  39  60  83 114 153 192 234 281 334
#     4  10  20  36  61  86 114 150 184 227 290 345
#     4   9  20  38  57  87 120 143 180 235 287 343
#     4  10  22  38  59  84 114 152 193 236 282 333
#     4  10  24  40  54  82 120 150 194 244 276 324
#
# _framework density 21.30904
#
# number of rings (size 3 to 8) (size 9 to 14) (size 15 to 20)
#    0.000    2.222    0.000    1.333    0.000   14.222 
#    0.000    0.000    0.000    1.333    0.000    0.000 
#    0.000    0.000    0.000    0.000    0.000    0.000 
#
# Total GULP energy -100504.083056 kJ/mol
# GULP energy per Si atom -5583.560170 kJ/mol
# Density = 2.126054 g / cm^3
# Si number density = 21.309040 Si / 1000 Ang^3
#
#
#
# Elastic Constant Matrix: (Units=GPa)
#
#
# Indices 1 2 3 4 5 6 
#
# 1 85.1975 62.1468 7.7335 0.0000 0.0000 0.0000
# 2 62.1468 67.6105 13.0149 0.0000 0.0000 0.0000
# 3 7.7335 13.0149 51.2024 0.0000 0.0000 0.0000
# 4 0.0000 0.0000 0.0000 33.7790 0.0000 0.0000
# 5 0.0000 0.0000 0.0000 0.0000 17.1222 0.0000
# 6 0.0000 0.0000 0.0000 0.0000 0.0000 35.3615
#
#
#
# Elastic Compliance Matrix: (Units=1/GPa)
#
#
# Indices 1 2 3 4 5 6 
#
# 1 0.036094 -0.033781 0.003135 0.000000 0.000000 0.000000
# 2 -0.033781 0.047167 -0.006887 0.000000 0.000000 0.000000
# 3 0.003135 -0.006887 0.020807 0.000000 0.000000 0.000000
# 4 0.000000 0.000000 0.000000 0.029604 0.000000 0.000000
# 5 0.000000 0.000000 0.000000 0.000000 0.058404 0.000000
# 6 0.000000 0.000000 0.000000 0.000000 0.000000 0.028279
#
#
# Mechanical properties :
#
#
# Convention : Reuss Voigt Hill
#
# Bulk Modulus (GPa) = 34.47904 41.08898 37.78401
# Shear Modulus (GPa) = 16.38865 25.32686 20.85776
#
# Velocity S-wave (km/s) = 2.77626 3.45128 3.13201
# Velocity P-wave (km/s) = 5.14708 5.93347 5.55421
#
# Compressibility (1/GPa) = 0.02900313
#
# Stress axis : x y z
#
# Youngs Moduli (GPa) = 27.70546 21.20118 48.05979
#
# Poissons Ratio (x) = 0.71619 -0.15067
# Poissons Ratio (y) = 0.93591 0.33099
# Poissons Ratio (z) = -0.08686 0.14601
#
# Static dielectric constant tensor:
#      x y z
#    x 1.749700 0.000000 0.000000 
#    y 0.000000 1.786930 0.000000 
#    z 0.000000 0.000000 1.805970 
# 
# From -- ./inp_files/26380.got.cif
#   From: 2010.05.17/outbox.cif.g08.bks.cpg/sg20_14_cif.got.tgz:26380.got - 2010.06.03 22:52:26.
