data_PCOD9317366
_publ_section_title
;
Structure prediction by ZEFSAII (Michael W. Deem and Ramdas Pophale) SiO2 
 PCOD9317366
Probable space group: C 2 2 21
;
_chemical_formula_sum "Si O2"
_cell_formula_units_Z 48
_cell_length_a 15.096135
_cell_length_b 10.277632
_cell_length_c 17.982372
_cell_angle_alpha 90.000000
_cell_angle_beta 90.000000
_cell_angle_gamma 90.000000
_cell_volume 2790.010334
_symmetry_space_group_name_H-M "C 2 2 21"
_symmetry_group_IT_number 20
_symmetry_cell_setting 'orthorhombic'
loop_
_space_group_symop_operation_xyz
x,y,z
-x,-y,1/2+z
x,-y,-z
-x,y,1/2-z
1/2+x,1/2+y,z
1/2-x,1/2-y,1/2+z
1/2+x,1/2-y,-z
1/2-x,1/2+y,1/2-z
loop_
_atom_site_type_symbol
_atom_site_label
_atom_site_fract_x
_atom_site_fract_y
_atom_site_fract_z
Si Si1 0.500000 0.279268 0.161497
Si Si2 0.642234 0.371493 0.047016
Si Si3 0.649544 0.119993 0.554781
Si Si4 0.850456 0.619993 0.554781
Si Si5 0.357766 0.628507 0.952984
Si Si6 0.500000 0.034150 0.662421
O O1 0.500000 0.302318 0.250000
O O2 0.583310 0.341969 0.118784
O O3 0.416690 0.341969 0.118784
O O4 0.500000 0.122482 0.149526
O O5 0.745395 0.381069 0.070338
O O6 0.618812 0.500000 0.000000
O O7 0.630604 0.251402 0.990294
O O8 0.630604 0.251402 0.509706
O O9 0.586160 0.097708 0.624415
O O10 0.630760 0.000000 0.500000
O O11 0.869240 0.500000 0.500000
O O12 0.745395 0.618931 0.570338
O O13 0.913840 0.597708 0.624415
O O14 0.381188 0.500000 0.000000
O O15 0.500000 0.055408 0.750000
#
# Coordination Sequence:
#
# PCOD9317366 Si02
#       6
#     8   8   8   8   8   8
#     4  11  22  37  57  84 118 151 183 230 290 341
#     4  10  21  36  60  87 110 147 189 235 282 326
#     4  10  19  37  61  83 110 145 193 234 268 330
#     4  10  19  37  61  83 110 145 193 234 268 330
#     4  10  21  36  60  87 110 147 189 235 282 326
#     4  11  22  36  59  85 114 153 189 228 280 341
#
# _framework density 17.204238
#
# number of rings (size 3 to 8) (size 9 to 14) (size 15 to 20)
#    0.000    1.667    3.333    2.000    0.000    1.333 
#    0.000    3.333    0.000    0.000    0.000    0.000 
#    0.000    0.000    0.000    0.000    0.000    0.000 
#
# Total GULP energy -133964.893687 kJ/mol
# GULP energy per Si atom -5581.870570 kJ/mol
# Density = 1.716508 g / cm^3
# Si number density = 17.204238 Si / 1000 Ang^3
#
#
#
# Elastic Constant Matrix: (Units=GPa)
#
#
# Indices 1 2 3 4 5 6 
#
# 1 103.2343 52.4434 102.6490 0.0000 0.0000 0.0000
# 2 52.4434 130.0997 65.1566 0.0000 0.0000 0.0000
# 3 102.6490 65.1566 152.4049 0.0000 0.0000 0.0000
# 4 0.0000 0.0000 0.0000 25.8789 0.0000 0.0000
# 5 0.0000 0.0000 0.0000 0.0000 -4.9697 0.0000
# 6 0.0000 0.0000 0.0000 0.0000 0.0000 7.9230
#
#
#
# Elastic Compliance Matrix: (Units=1/GPa)
#
#
# Indices 1 2 3 4 5 6 
#
# 1 0.029957 -0.002508 -0.019105 0.000000 0.000000 0.000000
# 2 -0.002508 0.009990 -0.002582 0.000000 0.000000 0.000000
# 3 -0.019105 -0.002582 0.020533 0.000000 0.000000 0.000000
# 4 0.000000 0.000000 0.000000 0.038641 0.000000 0.000000
# 5 0.000000 0.000000 0.000000 0.000000 -0.201218 0.000000
# 6 0.000000 0.000000 0.000000 0.000000 0.000000 0.126214
#
#
# Mechanical properties :
#
#
# Convention : Reuss Voigt Hill
#
# Bulk Modulus (GPa) = 82.70439 91.80408 87.25424
# Shear Modulus (GPa) = 65.32619 16.79910 41.06265
#
# Velocity S-wave (km/s) = 6.16875 3.12821 4.89076
# Velocity P-wave (km/s) = 9.94557 8.15627 9.09503
#
# Compressibility (1/GPa) = 0.01209126
#
# Stress axis : x y z
#
# Youngs Moduli (GPa) = 33.38088 100.09550 48.70173
#
# Poissons Ratio (x) = 0.25100 0.93045
# Poissons Ratio (y) = 0.08371 0.12576
# Poissons Ratio (z) = 0.63774 0.25846
#
# Static dielectric constant tensor:
#      x y z
#    x 1.609060 0.000000 0.000000 
#    y 0.000000 1.577980 0.000000 
#    z 0.000000 0.000000 1.534080 
# 
# From -- ./inp_files/23455.got.cif
#   From: 2010.05.17/outbox.cif.g08.bks.cpg/sg20_12_cif.got.tgz:23455.got - 2010.06.03 22:52:26.
