data_PCOD9317809
_publ_section_title
;
Structure prediction by ZEFSAII (Michael W. Deem and Ramdas Pophale) SiO2 
 PCOD9317809
Probable space group: C 2 2 21
;
_chemical_formula_sum "Si O2"
_cell_formula_units_Z 52
_cell_length_a 16.738597
_cell_length_b 14.053557
_cell_length_c 9.006816
_cell_angle_alpha 90.000000
_cell_angle_beta 90.000000
_cell_angle_gamma 90.000000
_cell_volume 2118.734818
_symmetry_space_group_name_H-M "C 2 2 21"
_symmetry_group_IT_number 20
_symmetry_cell_setting 'orthorhombic'
loop_
_space_group_symop_operation_xyz
x,y,z
-x,-y,1/2+z
x,-y,-z
-x,y,1/2-z
1/2+x,1/2+y,z
1/2-x,1/2-y,1/2+z
1/2+x,1/2-y,-z
1/2-x,1/2+y,1/2-z
loop_
_atom_site_type_symbol
_atom_site_label
_atom_site_fract_x
_atom_site_fract_y
_atom_site_fract_z
Si Si1 0.197031 0.643654 0.275042
Si Si2 0.126224 0.642362 0.958735
Si Si3 0.140748 0.000000 0.500000
Si Si4 0.766093 0.870932 0.230757
Si Si5 0.516305 0.644604 0.410847
Si Si6 0.536884 0.165581 0.415840
Si Si7 0.842740 0.870708 0.540342
O O1 0.170500 0.610676 0.111207
O O2 0.210305 0.758666 0.278134
O O3 0.124893 0.623506 0.390404
O O4 0.282599 0.606510 0.326514
O O5 0.140313 0.756430 0.962628
O O6 0.032603 0.620217 0.980836
O O7 0.172749 0.613768 0.809870
O O8 0.189246 0.929036 0.396309
O O9 0.083232 0.934602 0.599259
O O10 0.796002 0.898702 0.392450
O O11 0.500000 0.689639 0.250000
O O12 0.543309 0.726996 0.522566
O O13 0.433304 0.596573 0.456507
O O14 0.500000 0.170040 0.250000
#
# Coordination Sequence:
#
# PCOD9317809 Si02
#       7
#     8   8   4   8   8   8   8
#     4   9  16  32  57  79 108 137 181 236 283 321
#     4   8  17  31  55  79 105 140 183 229 278 324
#     4  12  26  36  56  72 116 162 184 214 268 342
#     4  10  20  36  52  76 107 150 189 220 274 332
#     4  11  25  35  50  78 112 153 192 221 263 338
#     4   9  17  34  58  87 113 142 179 239 287 323
#     4   9  20  34  53  75 109 142 183 239 275 310
#
# _framework density 24.542950000000001
#
# number of rings (size 3 to 8) (size 9 to 14) (size 15 to 20)
#    0.000    2.462    1.538    0.923    4.308    3.692 
#    0.000    0.000    0.000    0.000    0.000    7.538 
#    0.000    0.000    0.000    0.000    0.000    0.000 
#
# Total GULP energy -145311.610645 kJ/mol
# GULP energy per Si atom -5588.908102 kJ/mol
# Density = 2.448709 g / cm^3
# Si number density = 24.542950 Si / 1000 Ang^3
#
#
#
# Elastic Constant Matrix: (Units=GPa)
#
#
# Indices 1 2 3 4 5 6 
#
# 1 138.5178 4.4125 40.0310 0.0000 0.0000 0.0000
# 2 4.4125 53.8283 -9.3016 0.0000 0.0000 0.0000
# 3 40.0310 -9.3016 63.8552 0.0000 0.0000 0.0000
# 4 0.0000 0.0000 0.0000 -8.9510 0.0000 0.0000
# 5 0.0000 0.0000 0.0000 0.0000 45.2231 0.0000
# 6 0.0000 0.0000 0.0000 0.0000 0.0000 -4.8618
#
#
#
# Elastic Compliance Matrix: (Units=1/GPa)
#
#
# Indices 1 2 3 4 5 6 
#
# 1 0.008975 -0.001752 -0.005882 0.000000 0.000000 0.000000
# 2 -0.001752 0.019399 0.003924 0.000000 0.000000 0.000000
# 3 -0.005882 0.003924 0.019919 0.000000 0.000000 0.000000
# 4 0.000000 0.000000 0.000000 -0.111719 0.000000 0.000000
# 5 0.000000 0.000000 0.000000 0.000000 0.022113 0.000000
# 6 0.000000 0.000000 0.000000 0.000000 0.000000 -0.205686
#
#
# Mechanical properties :
#
#
# Convention : Reuss Voigt Hill
#
# Bulk Modulus (GPa) = 24.46508 36.27610 30.37059
# Shear Modulus (GPa) = -22.12824 21.01937 -0.55444
#
# Velocity S-wave (km/s) = -3.00594 2.92966 -0.47581
# Velocity P-wave (km/s) = 1.43447 5.12412 3.47843
#
# Compressibility (1/GPa) = 0.04087459
#
# Stress axis : x y z
#
# Youngs Moduli (GPa) = 111.42259 51.54819 50.20279
#
# Poissons Ratio (x) = 0.09031 0.29527
# Poissons Ratio (y) = 0.19522 -0.19701
# Poissons Ratio (z) = 0.65534 -0.20229
#
# Static dielectric constant tensor:
#      x y z
#    x 1.977200 0.000000 0.000000 
#    y 0.000000 1.984700 0.000000 
#    z 0.000000 0.000000 1.908820 
# 
# From -- ./inp_files/9547.got.cif
#   From: 2010.05.17/outbox.cif.g08.bks.cpg/sg20_5_cif.got.tgz:9547.got - 2010.06.03 22:52:26.
