data_PCOD9317135
_publ_section_title
;
Structure prediction by ZEFSAII (Michael W. Deem and Ramdas Pophale) SiO2 
 PCOD9317135
Probable space group: C 2 2 21
;
_chemical_formula_sum "Si O2"
_cell_formula_units_Z 60
_cell_length_a 5.643816
_cell_length_b 19.073397
_cell_length_c 30.024366
_cell_angle_alpha 90.000000
_cell_angle_beta 90.000000
_cell_angle_gamma 90.000000
_cell_volume 3232.025215
_symmetry_space_group_name_H-M "C 2 2 21"
_symmetry_group_IT_number 20
_symmetry_cell_setting 'orthorhombic'
loop_
_space_group_symop_operation_xyz
x,y,z
-x,-y,1/2+z
x,-y,-z
-x,y,1/2-z
1/2+x,1/2+y,z
1/2-x,1/2-y,1/2+z
1/2+x,1/2-y,-z
1/2-x,1/2+y,1/2-z
loop_
_atom_site_type_symbol
_atom_site_label
_atom_site_fract_x
_atom_site_fract_y
_atom_site_fract_z
Si Si1 0.005429 0.315230 0.453743
Si Si2 0.000000 0.131010 0.750000
Si Si3 0.159025 0.456011 0.082448
Si Si4 0.371014 0.265512 0.381556
Si Si5 0.156892 0.977703 0.947985
Si Si6 0.729235 0.625731 0.665464
Si Si7 0.689408 0.820541 0.554138
Si Si8 0.611690 0.768077 0.293962
O O1 0.214569 0.309061 0.417376
O O2 0.081719 0.321301 0.504645
O O3 0.844130 0.382401 0.444145
O O4 0.871914 0.242979 0.446412
O O5 0.107563 0.090797 0.708368
O O6 0.191494 0.182405 0.771930
O O7 0.404208 0.495900 0.071399
O O8 0.163188 0.431967 0.133482
O O9 0.906548 0.491322 0.070770
O O10 0.550562 0.323720 0.361708
O O11 0.499623 0.203229 0.408627
O O12 0.228755 0.235133 0.338477
O O13 0.184155 0.894770 0.939980
O O14 0.153906 0.000000 0.000000
O O15 0.919694 0.679769 0.684800
O O16 0.500000 0.729711 0.250000
#
# Coordination Sequence:
#
# PCOD9317135 Si02
#       8
#     8   4   8   8   8   8   8   8
#     4  12  24  38  65  88 123 171 229 272 322 379
#     4   8  18  30  56  94 130 152 194 274 336 380
#     4  12  25  44  64  91 125 179 215 270 321 393
#     4  11  20  36  59  93 127 164 215 275 327 390
#     4  12  29  43  61  87 136 175 220 266 330 387
#     4  10  19  34  61  93 124 160 211 269 325 388
#     4  12  26  39  60  92 125 179 218 282 324 395
#     4   9  17  32  55  94 132 156 199 272 343 383
#
# _framework density 18.564209999999999
#
# number of rings (size 3 to 8) (size 9 to 14) (size 15 to 20)
#    0.000    1.067    5.333    1.200    5.600    0.000 
#    0.000    0.000    0.000    0.000    1.733    1.867 
#    0.000    0.000    0.000    0.000    0.000    0.000 
#
# Total GULP energy -167191.524954 kJ/mol
# GULP energy per Si atom -5573.050832 kJ/mol
# Density = 1.852196 g / cm^3
# Si number density = 18.564210 Si / 1000 Ang^3
#
#
#
# Elastic Constant Matrix: (Units=GPa)
#
#
# Indices 1 2 3 4 5 6 
#
# 1 106.0902 48.2936 55.9471 0.0000 0.0000 0.0000
# 2 48.2936 105.5602 19.0328 0.0000 0.0000 0.0000
# 3 55.9471 19.0328 115.0950 0.0000 0.0000 0.0000
# 4 0.0000 0.0000 0.0000 -4.5043 0.0000 0.0000
# 5 0.0000 0.0000 0.0000 0.0000 60.4338 0.0000
# 6 0.0000 0.0000 0.0000 0.0000 0.0000 41.5016
#
#
#
# Elastic Compliance Matrix: (Units=1/GPa)
#
#
# Indices 1 2 3 4 5 6 
#
# 1 0.015622 -0.005956 -0.006609 0.000000 0.000000 0.000000
# 2 -0.005956 0.012035 0.000905 0.000000 0.000000 0.000000
# 3 -0.006609 0.000905 0.011751 0.000000 0.000000 0.000000
# 4 0.000000 0.000000 0.000000 -0.222009 0.000000 0.000000
# 5 0.000000 0.000000 0.000000 0.000000 0.016547 0.000000
# 6 0.000000 0.000000 0.000000 0.000000 0.000000 0.024095
#
#
# Mechanical properties :
#
#
# Convention : Reuss Voigt Hill
#
# Bulk Modulus (GPa) = 62.15444 63.69917 62.92681
# Shear Modulus (GPa) = -44.14018 33.05101 -5.54458
#
# Velocity S-wave (km/s) = -4.88146 4.22401 -1.73008
# Velocity P-wave (km/s) = 1.33489 7.62739 5.47535
#
# Compressibility (1/GPa) = 0.01608895
#
# Stress axis : x y z
#
# Youngs Moduli (GPa) = 64.01107 83.09257 85.09565
#
# Poissons Ratio (x) = 0.49486 0.56240
# Poissons Ratio (y) = 0.38122 -0.07700
# Poissons Ratio (z) = 0.42305 -0.07518
#
# Static dielectric constant tensor:
#      x y z
#    x 1.823800 0.000000 0.000000 
#    y 0.000000 1.622300 0.000000 
#    z 0.000000 0.000000 1.487400 
# 
# From -- ./inp_files/30836.got.cif
#   From: 2010.05.17/outbox.cif.g08.bks.cpg/sg20_16_cif.got.tgz:30836.got - 2010.06.03 22:52:26.
