data_PCOD9317709
_publ_section_title
;
Structure prediction by ZEFSAII (Michael W. Deem and Ramdas Pophale) SiO2 
 PCOD9317709
Probable space group: C 2 2 21
;
_chemical_formula_sum "Si O2"
_cell_formula_units_Z 60
_cell_length_a 5.599631
_cell_length_b 15.777397
_cell_length_c 28.839218
_cell_angle_alpha 90.000000
_cell_angle_beta 90.000000
_cell_angle_gamma 90.000000
_cell_volume 2547.875735
_symmetry_space_group_name_H-M "C 2 2 21"
_symmetry_group_IT_number 20
_symmetry_cell_setting 'orthorhombic'
loop_
_space_group_symop_operation_xyz
x,y,z
-x,-y,1/2+z
x,-y,-z
-x,y,1/2-z
1/2+x,1/2+y,z
1/2-x,1/2-y,1/2+z
1/2+x,1/2-y,-z
1/2-x,1/2+y,1/2-z
loop_
_atom_site_type_symbol
_atom_site_label
_atom_site_fract_x
_atom_site_fract_y
_atom_site_fract_z
Si Si1 0.439847 0.083843 0.567175
Si Si2 0.383318 0.483752 0.293863
Si Si3 0.000000 0.356232 0.250000
Si Si4 0.011941 0.759630 0.954461
Si Si5 0.281744 0.051351 0.114550
Si Si6 0.212032 0.842889 0.338067
Si Si7 0.018352 0.716606 0.098171
Si Si8 0.443951 0.441925 0.964498
O O1 0.493328 0.159818 0.531306
O O2 0.663887 0.036762 0.589442
O O3 0.334649 0.126801 0.614106
O O4 0.268567 0.010643 0.546026
O O5 0.500000 0.529337 0.250000
O O6 0.265047 0.542265 0.331737
O O7 0.577906 0.426184 0.319871
O O8 0.195306 0.416936 0.273619
O O9 0.875557 0.312483 0.294753
O O10 0.776372 0.760098 0.921275
O O11 0.954672 0.844886 0.984006
O O12 0.284946 0.768982 0.935185
O O13 0.495151 0.116771 0.107124
O O14 0.050954 0.079039 0.086014
O O15 0.035752 0.769563 0.355454
O O16 0.596835 0.500000 0.000000
#
# Coordination Sequence:
#
# PCOD9317709 Si02
#       8
#     8   8   4   8   8   8   8   8
#     4  11  21  40  72  93 130 186 230 279 360 425
#     4  10  20  35  62  91 128 169 233 280 342 429
#     4  10  20  34  58  92 128 170 226 298 338 414
#     4  10  23  43  66 102 133 178 230 283 345 426
#     4  11  21  41  68  93 136 184 226 289 362 419
#     4  10  20  36  63  92 126 175 231 278 350 421
#     4  10  22  39  67  95 133 173 227 281 341 419
#     4  11  25  46  66 105 142 179 236 304 359 428
#
# _framework density 23.549029999999998
#
# number of rings (size 3 to 8) (size 9 to 14) (size 15 to 20)
#    0.000    1.600    4.000    0.800    3.733    0.533 
#    3.600    0.000    4.400    0.000    0.000    0.000 
#    0.000    0.000    0.000    0.000    0.000    0.000 
#
# Total GULP energy -167062.012382 kJ/mol
# GULP energy per Si atom -5568.733746 kJ/mol
# Density = 2.349543 g / cm^3
# Si number density = 23.549030 Si / 1000 Ang^3
#
#
#
# Elastic Constant Matrix: (Units=GPa)
#
#
# Indices 1 2 3 4 5 6 
#
# 1 72.4454 11.4425 28.9697 0.0000 0.0000 0.0000
# 2 11.4425 99.8806 21.4381 0.0000 0.0000 0.0000
# 3 28.9697 21.4381 97.3480 0.0000 0.0000 0.0000
# 4 0.0000 0.0000 0.0000 32.0081 0.0000 0.0000
# 5 0.0000 0.0000 0.0000 0.0000 40.1728 0.0000
# 6 0.0000 0.0000 0.0000 0.0000 0.0000 32.5262
#
#
#
# Elastic Compliance Matrix: (Units=1/GPa)
#
#
# Indices 1 2 3 4 5 6 
#
# 1 0.015734 -0.000837 -0.004498 0.000000 0.000000 0.000000
# 2 -0.000837 0.010553 -0.002075 0.000000 0.000000 0.000000
# 3 -0.004498 -0.002075 0.012068 0.000000 0.000000 0.000000
# 4 0.000000 0.000000 0.000000 0.031242 0.000000 0.000000
# 5 0.000000 0.000000 0.000000 0.000000 0.024892 0.000000
# 6 0.000000 0.000000 0.000000 0.000000 0.000000 0.030744
#
#
# Mechanical properties :
#
#
# Convention : Reuss Voigt Hill
#
# Bulk Modulus (GPa) = 42.48920 43.70829 43.09875
# Shear Modulus (GPa) = 33.80667 34.79635 34.30151
#
# Velocity S-wave (km/s) = 3.79302 3.84814 3.82068
# Velocity P-wave (km/s) = 6.10449 6.19234 6.14857
#
# Compressibility (1/GPa) = 0.02353539
#
# Stress axis : x y z
#
# Youngs Moduli (GPa) = 63.55503 94.75792 82.86423
#
# Poissons Ratio (x) = 0.07932 0.37273
# Poissons Ratio (y) = 0.05320 0.17194
# Poissons Ratio (z) = 0.28587 0.19662
#
# Static dielectric constant tensor:
#      x y z
#    x 2.053920 0.000000 0.000000 
#    y 0.000000 1.950940 0.000000 
#    z 0.000000 0.000000 2.334560 
# 
# From -- ./inp_files/30817.got.cif
#   From: 2010.05.17/outbox.cif.g08.bks.cpg/sg20_16_cif.got.tgz:30817.got - 2010.06.03 22:52:26.
