data_PCOD9317223
_publ_section_title
;
Structure prediction by ZEFSAII (Michael W. Deem and Ramdas Pophale) SiO2 
 PCOD9317223
Probable space group: C 2 2 21
;
_chemical_formula_sum "Si O2"
_cell_formula_units_Z 60
_cell_length_a 29.025554
_cell_length_b 11.323017
_cell_length_c 9.027232
_cell_angle_alpha 90.000000
_cell_angle_beta 90.000000
_cell_angle_gamma 90.000000
_cell_volume 2966.861555
_symmetry_space_group_name_H-M "C 2 2 21"
_symmetry_group_IT_number 20
_symmetry_cell_setting 'orthorhombic'
loop_
_space_group_symop_operation_xyz
x,y,z
-x,-y,1/2+z
x,-y,-z
-x,y,1/2-z
1/2+x,1/2+y,z
1/2-x,1/2-y,1/2+z
1/2+x,1/2-y,-z
1/2-x,1/2+y,1/2-z
loop_
_atom_site_type_symbol
_atom_site_label
_atom_site_fract_x
_atom_site_fract_y
_atom_site_fract_z
Si Si1 0.449282 0.800242 0.782264
Si Si2 0.197567 0.195548 0.388165
Si Si3 0.887184 0.718004 0.505054
Si Si4 0.072410 0.500000 0.500000
Si Si5 0.147766 0.421314 0.283681
Si Si6 0.643506 0.553634 0.142169
Si Si7 0.119450 0.889040 0.396241
Si Si8 0.801393 0.390358 0.615903
O O1 0.500000 0.752611 0.750000
O O2 0.423259 0.814274 0.623471
O O3 0.453868 0.919296 0.880754
O O4 0.418035 0.712812 0.880607
O O5 0.185490 0.327350 0.337394
O O6 0.176378 0.116619 0.257385
O O7 0.167669 0.160093 0.534366
O O8 0.251025 0.164890 0.387905
O O9 0.879094 0.622116 0.635472
O O10 0.891829 0.845787 0.583072
O O11 0.836896 0.711166 0.429606
O O12 0.107881 0.423612 0.403741
O O13 0.174256 0.544698 0.255597
O O14 0.622692 0.445730 0.233843
O O15 0.668015 0.500000 0.000000
O O16 0.106020 0.000000 0.500000
O O17 0.799518 0.500000 0.500000
#
# Coordination Sequence:
#
# PCOD9317223 Si02
#       8
#     8   8   8   4   8   8   8   8
#     4  12  26  46  73 100 128 177 230 284 347 405
#     4  10  21  39  64  95 133 177 225 267 335 408
#     4  10  22  42  62  89 134 170 216 278 334 395
#     4  12  24  46  70  96 132 178 228 288 342 398
#     4  10  22  41  66  91 135 179 215 276 346 387
#     4  10  19  35  62  93 125 173 207 261 332 395
#     4  10  21  43  69  94 138 171 213 280 337 403
#     4  10  20  39  61  90 130 180 220 272 332 400
#
# _framework density 20.223390999999999
#
# number of rings (size 3 to 8) (size 9 to 14) (size 15 to 20)
#    0.000    1.600    4.000    1.200    0.000    2.133 
#   18.000    0.000    0.000    0.000    0.000    0.000 
#    0.000    0.000    0.000    0.000    0.000    0.000 
#
# Total GULP energy -167223.545303 kJ/mol
# GULP energy per Si atom -5574.118177 kJ/mol
# Density = 2.017736 g / cm^3
# Si number density = 20.223391 Si / 1000 Ang^3
#
#
#
# Elastic Constant Matrix: (Units=GPa)
#
#
# Indices 1 2 3 4 5 6 
#
# 1 78.8881 12.7033 34.8624 0.0000 0.0000 0.0000
# 2 12.7033 65.1286 25.0750 0.0000 0.0000 0.0000
# 3 34.8624 25.0750 98.8655 0.0000 0.0000 0.0000
# 4 0.0000 0.0000 0.0000 31.0020 0.0000 0.0000
# 5 0.0000 0.0000 0.0000 0.0000 15.0806 0.0000
# 6 0.0000 0.0000 0.0000 0.0000 0.0000 17.9678
#
#
#
# Elastic Compliance Matrix: (Units=1/GPa)
#
#
# Indices 1 2 3 4 5 6 
#
# 1 0.015074 -0.000990 -0.005064 0.000000 0.000000 0.000000
# 2 -0.000990 0.017081 -0.003983 0.000000 0.000000 0.000000
# 3 -0.005064 -0.003983 0.012911 0.000000 0.000000 0.000000
# 4 0.000000 0.000000 0.000000 0.032256 0.000000 0.000000
# 5 0.000000 0.000000 0.000000 0.000000 0.066310 0.000000
# 6 0.000000 0.000000 0.000000 0.000000 0.000000 0.055655
#
#
# Mechanical properties :
#
#
# Convention : Reuss Voigt Hill
#
# Bulk Modulus (GPa) = 40.01560 43.12928 41.57244
# Shear Modulus (GPa) = 21.95954 24.15952 23.05953
#
# Velocity S-wave (km/s) = 3.29880 3.46010 3.38041
# Velocity P-wave (km/s) = 5.85996 6.11030 5.98644
#
# Compressibility (1/GPa) = 0.02499025
#
# Stress axis : x y z
#
# Youngs Moduli (GPa) = 66.34106 58.54498 77.45526
#
# Poissons Ratio (x) = 0.05798 0.39224
# Poissons Ratio (y) = 0.06570 0.30850
# Poissons Ratio (z) = 0.33596 0.23318
#
# Static dielectric constant tensor:
#      x y z
#    x 1.668960 0.000000 0.000000 
#    y 0.000000 1.783100 0.000000 
#    z 0.000000 0.000000 1.823570 
# 
# From -- ./inp_files/11160.got.cif
#   From: 2010.05.17/outbox.cif.g08.bks.cpg/sg20_6_cif.got.tgz:11160.got - 2010.06.03 22:52:26.
