data_PCOD9317036
_publ_section_title
;
Structure prediction by ZEFSAII (Michael W. Deem and Ramdas Pophale) SiO2 
 PCOD9317036
Probable space group: C 2 2 21
;
_chemical_formula_sum "Si O2"
_cell_formula_units_Z 40
_cell_length_a 7.393691
_cell_length_b 11.753054
_cell_length_c 17.316748
_cell_angle_alpha 90.000000
_cell_angle_beta 90.000000
_cell_angle_gamma 90.000000
_cell_volume 1504.798553
_symmetry_space_group_name_H-M "C 2 2 21"
_symmetry_group_IT_number 20
_symmetry_cell_setting 'orthorhombic'
loop_
_space_group_symop_operation_xyz
x,y,z
-x,-y,1/2+z
x,-y,-z
-x,y,1/2-z
1/2+x,1/2+y,z
1/2-x,1/2-y,1/2+z
1/2+x,1/2-y,-z
1/2-x,1/2+y,1/2-z
loop_
_atom_site_type_symbol
_atom_site_label
_atom_site_fract_x
_atom_site_fract_y
_atom_site_fract_z
Si Si1 0.789791 0.000000 0.500000
Si Si2 0.500000 0.157445 0.750000
Si Si3 0.885994 0.144953 0.033168
Si Si4 0.251589 0.859988 0.691807
Si Si5 0.900016 0.665175 0.590698
Si Si6 0.842367 0.381581 0.855581
O O1 0.675424 0.970464 0.575110
O O2 0.935261 0.898535 0.490793
O O3 0.655199 0.241914 0.716829
O O4 0.433370 0.098417 0.670885
O O5 0.860370 0.092629 0.118991
O O6 0.922945 0.277658 0.051965
O O7 0.718651 0.118877 0.978765
O O8 0.264038 0.925348 0.773434
O O9 0.453938 0.841497 0.660551
O O10 0.779334 0.773528 0.619879
#
# Coordination Sequence:
#
# PCOD9317036 Si02
#       6
#     4   4   8   8   8   8
#     4  10  22  34  52  84 114 142 186 232 274 324
#     4   8  16  30  52  86 114 138 182 232 272 322
#     4  10  19  33  56  83 111 145 187 232 275 328
#     4   9  17  32  57  79 108 149 187 218 271 341
#     4   9  17  31  54  83 112 144 186 230 274 325
#     4   9  18  34  55  81 109 145 188 230 271 327
#
# _framework density 26.581631999999999
#
# number of rings (size 3 to 8) (size 9 to 14) (size 15 to 20)
#    0.000    2.800    0.000    2.400    0.000    0.800 
#    0.000    0.000    0.000   45.600    0.000   28.000 
#    0.000    0.000    0.000    0.000    0.000    0.000 
#
# Total GULP energy -111865.598499 kJ/mol
# GULP energy per Si atom -5593.279925 kJ/mol
# Density = 2.652113 g / cm^3
# Si number density = 26.581632 Si / 1000 Ang^3
#
#
#
# Elastic Constant Matrix: (Units=GPa)
#
#
# Indices 1 2 3 4 5 6 
#
# 1 130.0754 14.8489 79.5248 0.0000 0.0000 0.0000
# 2 14.8489 60.4407 46.5314 0.0000 0.0000 0.0000
# 3 79.5248 46.5314 247.4080 0.0000 0.0000 0.0000
# 4 0.0000 0.0000 0.0000 46.4398 0.0000 0.0000
# 5 0.0000 0.0000 0.0000 0.0000 69.1626 0.0000
# 6 0.0000 0.0000 0.0000 0.0000 0.0000 15.3815
#
#
#
# Elastic Compliance Matrix: (Units=1/GPa)
#
#
# Indices 1 2 3 4 5 6 
#
# 1 0.009568 0.000020 -0.003079 0.000000 0.000000 0.000000
# 2 0.000020 0.019346 -0.003645 0.000000 0.000000 0.000000
# 3 -0.003079 -0.003645 0.005717 0.000000 0.000000 0.000000
# 4 0.000000 0.000000 0.000000 0.021533 0.000000 0.000000
# 5 0.000000 0.000000 0.000000 0.000000 0.014459 0.000000
# 6 0.000000 0.000000 0.000000 0.000000 0.000000 0.065013
#
#
# Mechanical properties :
#
#
# Convention : Reuss Voigt Hill
#
# Bulk Modulus (GPa) = 47.11834 79.97048 63.54441
# Shear Modulus (GPa) = 32.02667 45.99804 39.01236
#
# Velocity S-wave (km/s) = 3.47485 4.16437 3.83514
# Velocity P-wave (km/s) = 5.81926 7.29883 6.60063
#
# Compressibility (1/GPa) = 0.02122316
#
# Stress axis : x y z
#
# Youngs Moduli (GPa) = 104.51335 51.68914 174.91035
#
# Poissons Ratio (x) = -0.00103 0.53859
# Poissons Ratio (y) = -0.00208 0.63755
# Poissons Ratio (z) = 0.32182 0.18841
#
# Static dielectric constant tensor:
#      x y z
#    x 2.102470 0.000000 0.000000 
#    y 0.000000 2.180930 0.000000 
#    z 0.000000 0.000000 2.097330 
# 
# From -- ./inp_files/23323.got.cif
#   From: 2010.05.17/outbox.cif.g08.bks.cpg/sg20_12_cif.got.tgz:23323.got - 2010.06.03 22:52:26.
