data_PCOD9317129
_publ_section_title
;
Structure prediction by ZEFSAII (Michael W. Deem and Ramdas Pophale) SiO2 
 PCOD9317129
Probable space group: C 2 2 21
;
_chemical_formula_sum "Si O2"
_cell_formula_units_Z 24
_cell_length_a 9.567413
_cell_length_b 11.552199
_cell_length_c 9.106448
_cell_angle_alpha 90.000000
_cell_angle_beta 90.000000
_cell_angle_gamma 90.000000
_cell_volume 1006.487059
_symmetry_space_group_name_H-M "C 2 2 21"
_symmetry_group_IT_number 20
_symmetry_cell_setting 'orthorhombic'
loop_
_space_group_symop_operation_xyz
x,y,z
-x,-y,1/2+z
x,-y,-z
-x,y,1/2-z
1/2+x,1/2+y,z
1/2-x,1/2-y,1/2+z
1/2+x,1/2-y,-z
1/2-x,1/2+y,1/2-z
loop_
_atom_site_type_symbol
_atom_site_label
_atom_site_fract_x
_atom_site_fract_y
_atom_site_fract_z
Si Si1 0.874042 0.307265 0.338609
Si Si2 0.651544 0.835181 0.823445
Si Si3 0.123143 0.044677 0.158397
O O1 0.741958 0.276684 0.233885
O O2 0.845561 0.350857 0.501809
O O3 0.929203 0.176061 0.374328
O O4 0.000000 0.366023 0.250000
O O5 0.500000 0.829358 0.750000
O O6 0.739591 0.941154 0.755513
O O7 0.000000 0.985303 0.250000
O O8 0.157199 0.000000 0.000000
#
# Coordination Sequence:
#
# PCOD9317129 Si02
#       3
#     8   8   8
#     4   9  19  35  60  87 116 151 198 238 292 342
#     4  10  19  34  60  87 116 148 199 247 285 335
#     4   9  21  39  57  83 121 158 194 230 295 354
#
# _framework density 23.845313999999998
#
# number of rings (size 3 to 8) (size 9 to 14) (size 15 to 20)
#    2.000    0.667    0.000    2.000    0.000    1.333 
#    0.000    1.667    0.000    0.000    0.000    0.000 
#    0.000    0.000    0.000    0.000    0.000    0.000 
#
# Total GULP energy -66934.706421 kJ/mol
# GULP energy per Si atom -5577.892202 kJ/mol
# Density = 2.379104 g / cm^3
# Si number density = 23.845314 Si / 1000 Ang^3
#
#
#
# Elastic Constant Matrix: (Units=GPa)
#
#
# Indices 1 2 3 4 5 6 
#
# 1 209.5641 14.6952 115.7262 0.0000 0.0000 0.0000
# 2 14.6952 31.3953 28.9430 0.0000 0.0000 0.0000
# 3 115.7262 28.9430 279.1479 0.0000 0.0000 0.0000
# 4 0.0000 0.0000 0.0000 38.7864 0.0000 0.0000
# 5 0.0000 0.0000 0.0000 0.0000 49.9403 0.0000
# 6 0.0000 0.0000 0.0000 0.0000 0.0000 24.3821
#
#
#
# Elastic Compliance Matrix: (Units=1/GPa)
#
#
# Indices 1 2 3 4 5 6 
#
# 1 0.006198 -0.000589 -0.002509 0.000000 0.000000 0.000000
# 2 -0.000589 0.035274 -0.003413 0.000000 0.000000 0.000000
# 3 -0.002509 -0.003413 0.004976 0.000000 0.000000 0.000000
# 4 0.000000 0.000000 0.000000 0.025782 0.000000 0.000000
# 5 0.000000 0.000000 0.000000 0.000000 0.020024 0.000000
# 6 0.000000 0.000000 0.000000 0.000000 0.000000 0.041014
#
#
# Mechanical properties :
#
#
# Convention : Reuss Voigt Hill
#
# Bulk Modulus (GPa) = 29.91538 93.20401 61.55970
# Shear Modulus (GPa) = 31.75971 46.67129 39.21550
#
# Velocity S-wave (km/s) = 3.65349 4.42888 4.05974
# Velocity P-wave (km/s) = 5.51091 8.08240 6.91720
#
# Compressibility (1/GPa) = 0.03342762
#
# Stress axis : x y z
#
# Youngs Moduli (GPa) = 161.33151 28.34942 200.95483
#
# Poissons Ratio (x) = 0.01669 0.50412
# Poissons Ratio (y) = 0.09496 0.68592
# Poissons Ratio (z) = 0.40472 0.09677
#
# Static dielectric constant tensor:
#      x y z
#    x 2.034900 0.000000 0.000000 
#    y 0.000000 2.137870 0.000000 
#    z 0.000000 0.000000 1.894230 
# 
# From -- ./inp_files/386.got.cif
#   From: 2010.05.17/outbox.cif.g08.bks.cpg/sg20_1_cif.got.tgz:386.got - 2010.06.03 22:52:26.
