data_PCOD9317974
_publ_section_title
;
Structure prediction by ZEFSAII (Michael W. Deem and Ramdas Pophale) SiO2 
 PCOD9317974
Probable space group: C 2 2 21
;
_chemical_formula_sum "Si O2"
_cell_formula_units_Z 48
_cell_length_a 17.090260
_cell_length_b 8.227872
_cell_length_c 18.310910
_cell_angle_alpha 90.000000
_cell_angle_beta 90.000000
_cell_angle_gamma 90.000000
_cell_volume 2574.815558
_symmetry_space_group_name_H-M "C 2 2 21"
_symmetry_group_IT_number 20
_symmetry_cell_setting 'orthorhombic'
loop_
_space_group_symop_operation_xyz
x,y,z
-x,-y,1/2+z
x,-y,-z
-x,y,1/2-z
1/2+x,1/2+y,z
1/2-x,1/2-y,1/2+z
1/2+x,1/2-y,-z
1/2-x,1/2+y,1/2-z
loop_
_atom_site_type_symbol
_atom_site_label
_atom_site_fract_x
_atom_site_fract_y
_atom_site_fract_z
Si Si1 0.590253 0.660211 0.309536
Si Si2 0.155509 0.696101 0.994307
Si Si3 0.048792 0.352350 0.883818
Si Si4 0.069483 0.500000 0.500000
Si Si5 0.000000 0.866086 0.250000
Si Si6 0.165746 0.175620 0.462922
Si Si7 0.415058 0.803096 0.340313
O O1 0.568703 0.484085 0.277771
O O2 0.649284 0.655008 0.376753
O O3 0.505956 0.739273 0.335476
O O4 0.619691 0.753573 0.237757
O O5 0.099811 0.753673 0.059696
O O6 0.245900 0.717414 0.013061
O O7 0.143423 0.500000 0.000000
O O8 0.126390 0.756082 0.915183
O O9 0.019198 0.241394 0.819454
O O10 0.092248 0.503074 0.846115
O O11 0.983632 0.445510 0.931752
O O12 0.116699 0.335480 0.484013
O O13 0.145019 0.000000 0.500000
#
# Coordination Sequence:
#
# PCOD9317974 Si02
#       7
#     8   8   8   4   4   8   8
#     4  10  20  37  56  92 122 160 201 273 329 363
#     4   9  19  38  61  84 120 168 201 256 330 379
#     4  11  18  37  61  90 116 159 220 256 307 394
#     4  12  22  38  68  94 116 170 224 252 320 386
#     4  10  22  32  60  94 120 156 214 272 322 374
#     4  11  23  41  61  90 134 163 208 267 323 393
#     4   9  17  35  63  81 116 158 208 255 316 378
#
# _framework density 18.642112000000001
#
# number of rings (size 3 to 8) (size 9 to 14) (size 15 to 20)
#    0.000    2.000    4.167    2.000    0.000    0.000 
#    6.000    6.667    0.000    0.000    0.000    0.000 
#    0.000    0.000    0.000    0.000    0.000    0.000 
#
# Total GULP energy -133627.240051 kJ/mol
# GULP energy per Si atom -5567.801669 kJ/mol
# Density = 1.859968 g / cm^3
# Si number density = 18.642112 Si / 1000 Ang^3
#
#
#
# Elastic Constant Matrix: (Units=GPa)
#
#
# Indices 1 2 3 4 5 6 
#
# 1 62.0701 28.2024 59.0326 0.0000 0.0000 0.0000
# 2 28.2024 86.9133 66.1063 0.0000 0.0000 0.0000
# 3 59.0326 66.1063 203.8756 0.0000 0.0000 0.0000
# 4 0.0000 0.0000 0.0000 26.1191 0.0000 0.0000
# 5 0.0000 0.0000 0.0000 0.0000 25.2314 0.0000
# 6 0.0000 0.0000 0.0000 0.0000 0.0000 -6.3394
#
#
#
# Elastic Compliance Matrix: (Units=1/GPa)
#
#
# Indices 1 2 3 4 5 6 
#
# 1 0.022871 -0.003165 -0.005596 0.000000 0.000000 0.000000
# 2 -0.003165 0.015710 -0.004178 0.000000 0.000000 0.000000
# 3 -0.005596 -0.004178 0.007880 0.000000 0.000000 0.000000
# 4 0.000000 0.000000 0.000000 0.038286 0.000000 0.000000
# 5 0.000000 0.000000 0.000000 0.000000 0.039633 0.000000
# 6 0.000000 0.000000 0.000000 0.000000 0.000000 -0.157743
#
#
# Mechanical properties :
#
#
# Convention : Reuss Voigt Hill
#
# Bulk Modulus (GPa) = 48.58189 73.28241 60.93215
# Shear Modulus (GPa) = -8015.40173 22.30340 -3996.54917
#
# Velocity S-wave (km/s) = -65.64263 3.46265 -46.35173
# Velocity P-wave (km/s) = 75.62511 7.44191 53.21548
#
# Compressibility (1/GPa) = 0.02058380
#
# Stress axis : x y z
#
# Youngs Moduli (GPa) = 43.72316 63.65296 126.90528
#
# Poissons Ratio (x) = 0.20146 0.71018
# Poissons Ratio (y) = 0.13838 0.53015
# Poissons Ratio (z) = 0.24468 0.26591
#
# Static dielectric constant tensor:
#      x y z
#    x 1.696390 0.000000 0.000000 
#    y 0.000000 1.681160 0.000000 
#    z 0.000000 0.000000 1.686950 
# 
# From -- ./inp_files/25188.got.cif
#   From: 2010.05.17/outbox.cif.g08.bks.cpg/sg20_13_cif.got.tgz:25188.got - 2010.06.03 22:52:26.
