data_PCOD9317416
_publ_section_title
;
Structure prediction by ZEFSAII (Michael W. Deem and Ramdas Pophale) SiO2 
 PCOD9317416
Probable space group: C 2 2 21
;
_chemical_formula_sum "Si O2"
_cell_formula_units_Z 36
_cell_length_a 19.954196
_cell_length_b 12.233628
_cell_length_c 7.997654
_cell_angle_alpha 90.000000
_cell_angle_beta 90.000000
_cell_angle_gamma 90.000000
_cell_volume 1952.325000
_symmetry_space_group_name_H-M "C 2 2 21"
_symmetry_group_IT_number 20
_symmetry_cell_setting 'orthorhombic'
loop_
_space_group_symop_operation_xyz
x,y,z
-x,-y,1/2+z
x,-y,-z
-x,y,1/2-z
1/2+x,1/2+y,z
1/2-x,1/2-y,1/2+z
1/2+x,1/2-y,-z
1/2-x,1/2+y,1/2-z
loop_
_atom_site_type_symbol
_atom_site_label
_atom_site_fract_x
_atom_site_fract_y
_atom_site_fract_z
Si Si1 0.488666 0.127392 0.948180
Si Si2 0.134025 0.630003 0.013338
Si Si3 0.233153 0.909700 0.354764
Si Si4 0.758354 0.500000 0.000000
Si Si5 0.149466 0.697151 0.390992
O O1 0.500000 0.127761 0.750000
O O2 0.559487 0.178260 0.004134
O O3 0.424280 0.185997 0.028160
O O4 0.480375 0.000000 0.000000
O O5 0.156084 0.662131 0.197332
O O6 0.122280 0.500000 0.000000
O O7 0.192932 0.648612 0.877890
O O8 0.222562 0.969118 0.175728
O O9 0.178997 0.818084 0.396892
O O10 0.232871 0.000000 0.500000
O O11 0.804409 0.606546 0.022099
#
# Coordination Sequence:
#
# PCOD9317416 Si02
#       5
#     8   8   8   4   8
#     4  11  21  35  58  93 129 164 207 266 328 381
#     4  10  19  38  57  88 127 156 203 263 313 370
#     4  11  24  43  61  94 131 166 215 260 310 386
#     4  12  22  38  62  94 124 170 206 250 330 362
#     4  12  22  38  64  92 133 166 204 262 321 384
#
# _framework density 18.439551999999999
#
# number of rings (size 3 to 8) (size 9 to 14) (size 15 to 20)
#    0.000    0.889    5.556    6.000    0.000    0.000 
#    4.000    0.000    0.000    2.667    2.889    0.000 
#    0.000    0.000    0.000    0.000    0.000    0.000 
#
# Total GULP energy -100247.219992 kJ/mol
# GULP energy per Si atom -5569.290000 kJ/mol
# Density = 1.839758 g / cm^3
# Si number density = 18.439552 Si / 1000 Ang^3
#
#
#
# Elastic Constant Matrix: (Units=GPa)
#
#
# Indices 1 2 3 4 5 6 
#
# 1 102.3158 47.3145 31.3075 0.0000 0.0000 0.0000
# 2 47.3145 71.7076 38.5362 0.0000 0.0000 0.0000
# 3 31.3075 38.5362 113.8175 0.0000 0.0000 0.0000
# 4 0.0000 0.0000 0.0000 16.2875 0.0000 0.0000
# 5 0.0000 0.0000 0.0000 0.0000 -47.4996 0.0000
# 6 0.0000 0.0000 0.0000 0.0000 0.0000 27.6792
#
#
#
# Elastic Compliance Matrix: (Units=1/GPa)
#
#
# Indices 1 2 3 4 5 6 
#
# 1 0.014139 -0.008850 -0.000893 0.000000 0.000000 0.000000
# 2 -0.008850 0.022586 -0.005213 0.000000 0.000000 0.000000
# 3 -0.000893 -0.005213 0.010797 0.000000 0.000000 0.000000
# 4 0.000000 0.000000 0.000000 0.061397 0.000000 0.000000
# 5 0.000000 0.000000 0.000000 0.000000 -0.021053 0.000000
# 6 0.000000 0.000000 0.000000 0.000000 0.000000 0.036128
#
#
# Mechanical properties :
#
#
# Convention : Reuss Voigt Hill
#
# Bulk Modulus (GPa) = 56.78254 58.01747 57.40001
# Shear Modulus (GPa) = 31.29388 10.67225 20.98306
#
# Velocity S-wave (km/s) = 4.12406 2.40837 3.37699
# Velocity P-wave (km/s) = 7.31696 6.26623 6.81188
#
# Compressibility (1/GPa) = 0.01761105
#
# Stress axis : x y z
#
# Youngs Moduli (GPa) = 70.72516 44.27492 92.62144
#
# Poissons Ratio (x) = 0.39181 0.08271
# Poissons Ratio (y) = 0.62588 0.48283
# Poissons Ratio (z) = 0.06316 0.23080
#
# Static dielectric constant tensor:
#      x y z
#    x 1.735200 0.000000 0.000000 
#    y 0.000000 1.603540 0.000000 
#    z 0.000000 0.000000 1.787890 
# 
# From -- ./inp_files/9931.got.cif
#   From: 2010.05.17/outbox.cif.g08.bks.cpg/sg20_5_cif.got.tgz:9931.got - 2010.06.03 22:52:26.
