data_PCOD9317155
_publ_section_title
;
Structure prediction by ZEFSAII (Michael W. Deem and Ramdas Pophale) SiO2 
 PCOD9317155
Probable space group: C 2 2 21
;
_chemical_formula_sum "Si O2"
_cell_formula_units_Z 44
_cell_length_a 18.383420
_cell_length_b 15.558839
_cell_length_c 8.057219
_cell_angle_alpha 90.000000
_cell_angle_beta 90.000000
_cell_angle_gamma 90.000000
_cell_volume 2304.563422
_symmetry_space_group_name_H-M "C 2 2 21"
_symmetry_group_IT_number 20
_symmetry_cell_setting 'orthorhombic'
loop_
_space_group_symop_operation_xyz
x,y,z
-x,-y,1/2+z
x,-y,-z
-x,y,1/2-z
1/2+x,1/2+y,z
1/2-x,1/2-y,1/2+z
1/2+x,1/2-y,-z
1/2-x,1/2+y,1/2-z
loop_
_atom_site_type_symbol
_atom_site_label
_atom_site_fract_x
_atom_site_fract_y
_atom_site_fract_z
Si Si1 0.290250 0.852015 0.611795
Si Si2 0.679144 0.902576 0.549882
Si Si3 0.176340 0.281954 0.252260
Si Si4 0.585724 0.441162 0.232076
Si Si5 0.145083 0.880854 0.917589
Si Si6 0.186107 0.000000 0.500000
O O1 0.344154 0.875894 0.763501
O O2 0.248243 0.767076 0.677418
O O3 0.312014 0.833366 0.420838
O O4 0.237680 0.935787 0.601660
O O5 0.651359 0.841176 0.403025
O O6 0.768120 0.892955 0.554111
O O7 0.662799 0.000000 0.500000
O O8 0.128937 0.200310 0.197172
O O9 0.500000 0.439282 0.250000
O O10 0.610341 0.534198 0.161337
O O11 0.633249 0.437328 0.397278
O O12 0.610878 0.371601 0.098927
#
# Coordination Sequence:
#
# PCOD9317155 Si02
#       6
#     8   8   8   8   8   4
#     4  11  20  29  49  72  97 139 184 212 273 333
#     4  11  19  34  51  74 109 143 179 222 274 340
#     4  11  20  31  50  72 102 141 181 222 271 333
#     4  11  21  33  51  71 103 153 201 231 264 313
#     4  10  19  35  46  70 108 141 190 236 263 321
#     4  12  20  32  50  74 102 148 192 224 274 318
#
# _framework density 19.092554
#
# number of rings (size 3 to 8) (size 9 to 14) (size 15 to 20)
#    0.000    1.091    9.091    3.273    0.000    0.000 
#    0.000    0.000    0.000    0.000    0.000    0.000 
#    0.000    0.000    9.273    0.364    2.182    0.000 
#
# Total GULP energy -122542.663062 kJ/mol
# GULP energy per Si atom -5570.121048 kJ/mol
# Density = 1.904910 g / cm^3
# Si number density = 19.092554 Si / 1000 Ang^3
#
#
#
# Elastic Constant Matrix: (Units=GPa)
#
#
# Indices 1 2 3 4 5 6 
#
# 1 23.1794 -1.9075 8.8231 0.0000 0.0000 0.0000
# 2 -1.9075 89.7915 36.3240 0.0000 0.0000 0.0000
# 3 8.8231 36.3240 141.7849 0.0000 0.0000 0.0000
# 4 0.0000 0.0000 0.0000 44.4498 0.0000 0.0000
# 5 0.0000 0.0000 0.0000 0.0000 7.5333 0.0000
# 6 0.0000 0.0000 0.0000 0.0000 0.0000 4.0417
#
#
#
# Elastic Compliance Matrix: (Units=1/GPa)
#
#
# Indices 1 2 3 4 5 6 
#
# 1 0.044614 0.002310 -0.003368 0.000000 0.000000 0.000000
# 2 0.002310 0.012544 -0.003357 0.000000 0.000000 0.000000
# 3 -0.003368 -0.003357 0.008123 0.000000 0.000000 0.000000
# 4 0.000000 0.000000 0.000000 0.022497 0.000000 0.000000
# 5 0.000000 0.000000 0.000000 0.000000 0.132745 0.000000
# 6 0.000000 0.000000 0.000000 0.000000 0.000000 0.247423
#
#
# Mechanical properties :
#
#
# Convention : Reuss Voigt Hill
#
# Bulk Modulus (GPa) = 17.71474 37.91500 27.81487
# Shear Modulus (GPa) = 10.08893 25.30603 17.69748
#
# Velocity S-wave (km/s) = 2.30124 3.64461 3.04786
# Velocity P-wave (km/s) = 4.04468 6.13291 5.19480
#
# Compressibility (1/GPa) = 0.05645016
#
# Stress axis : x y z
#
# Youngs Moduli (GPa) = 22.41455 79.71796 123.11192
#
# Poissons Ratio (x) = -0.18417 0.41466
# Poissons Ratio (y) = -0.05178 0.41335
# Poissons Ratio (z) = 0.07550 0.26765
#
# Static dielectric constant tensor:
#      x y z
#    x 1.626280 0.000000 0.000000 
#    y 0.000000 1.690800 0.000000 
#    z 0.000000 0.000000 1.824140 
# 
# From -- ./inp_files/9286.got.cif
#   From: 2010.05.17/outbox.cif.g08.bks.cpg/sg20_5_cif.got.tgz:9286.got - 2010.06.03 22:52:26.
