data_PCOD9317847
_publ_section_title
;
Structure prediction by ZEFSAII (Michael W. Deem and Ramdas Pophale) SiO2 
 PCOD9317847
Probable space group: C 2 2 21
;
_chemical_formula_sum "Si O2"
_cell_formula_units_Z 44
_cell_length_a 19.570726
_cell_length_b 22.119881
_cell_length_c 5.161746
_cell_angle_alpha 90.000000
_cell_angle_beta 90.000000
_cell_angle_gamma 90.000000
_cell_volume 2234.530839
_symmetry_space_group_name_H-M "C 2 2 21"
_symmetry_group_IT_number 20
_symmetry_cell_setting 'orthorhombic'
loop_
_space_group_symop_operation_xyz
x,y,z
-x,-y,1/2+z
x,-y,-z
-x,y,1/2-z
1/2+x,1/2+y,z
1/2-x,1/2-y,1/2+z
1/2+x,1/2-y,-z
1/2-x,1/2+y,1/2-z
loop_
_atom_site_type_symbol
_atom_site_label
_atom_site_fract_x
_atom_site_fract_y
_atom_site_fract_z
Si Si1 0.680472 0.805041 0.576996
Si Si2 0.278734 0.931562 0.018022
Si Si3 0.183567 0.068733 0.481578
Si Si4 0.079665 0.873291 0.186146
Si Si5 0.452692 0.500000 0.500000
Si Si6 0.840221 0.767134 0.576873
O O1 0.670621 0.875469 0.516069
O O2 0.762586 0.792884 0.565400
O O3 0.656937 0.785159 0.859822
O O4 0.648842 0.761789 0.357713
O O5 0.239544 0.924908 0.289979
O O6 0.223799 0.925168 0.785211
O O7 0.306360 0.000000 0.000000
O O8 0.124910 0.116236 0.555072
O O9 0.155745 0.000000 0.500000
O O10 0.109381 0.819407 0.017157
O O11 0.000000 0.865602 0.250000
O O12 0.087167 0.937749 0.039353
O O13 0.500000 0.492580 0.750000
#
# Coordination Sequence:
#
# PCOD9317847 Si02
#       6
#     8   8   8   8   4   8
#     4  10  20  37  56  76 105 139 187 226 275 343
#     4  10  20  36  57  84 109 138 179 235 286 334
#     4  10  22  33  52  78 109 143 186 230 276 318
#     4  11  25  39  56  79 114 153 202 239 276 319
#     4  10  26  42  54  76 110 158 202 242 272 308
#     4  10  22  35  55  76 103 148 188 225 273 327
#
# _framework density 19.690933000000001
#
# number of rings (size 3 to 8) (size 9 to 14) (size 15 to 20)
#    0.000    1.818    1.818    1.091   14.000    2.909 
#    0.000    0.000    0.000    0.000    0.000    0.000 
#    0.000    2.909    0.000    0.000    0.000    0.000 
#
# Total GULP energy -123067.838401 kJ/mol
# GULP energy per Si atom -5593.992655 kJ/mol
# Density = 1.964612 g / cm^3
# Si number density = 19.690933 Si / 1000 Ang^3
#
#
#
# Elastic Constant Matrix: (Units=GPa)
#
#
# Indices 1 2 3 4 5 6 
#
# 1 23.0208 14.3203 -5.0731 0.0000 0.0000 0.0000
# 2 14.3203 110.1019 0.8925 0.0000 0.0000 0.0000
# 3 -5.0731 0.8925 80.0771 0.0000 0.0000 0.0000
# 4 0.0000 0.0000 0.0000 31.5578 0.0000 0.0000
# 5 0.0000 0.0000 0.0000 0.0000 8.7041 0.0000
# 6 0.0000 0.0000 0.0000 0.0000 0.0000 18.7383
#
#
#
# Elastic Compliance Matrix: (Units=1/GPa)
#
#
# Indices 1 2 3 4 5 6 
#
# 1 0.048026 -0.006272 0.003113 0.000000 0.000000 0.000000
# 2 -0.006272 0.009902 -0.000508 0.000000 0.000000 0.000000
# 3 0.003113 -0.000508 0.012691 0.000000 0.000000 0.000000
# 4 0.000000 0.000000 0.000000 0.031688 0.000000 0.000000
# 5 0.000000 0.000000 0.000000 0.000000 0.114888 0.000000
# 6 0.000000 0.000000 0.000000 0.000000 0.000000 0.053367
#
#
# Mechanical properties :
#
#
# Convention : Reuss Voigt Hill
#
# Bulk Modulus (GPa) = 15.80141 25.94215 20.87178
# Shear Modulus (GPa) = 16.72291 25.33739 21.03015
#
# Velocity S-wave (km/s) = 2.91738 3.59103 3.27159
# Velocity P-wave (km/s) = 4.40344 5.51337 4.98937
#
# Compressibility (1/GPa) = 0.06328550
#
# Stress axis : x y z
#
# Youngs Moduli (GPa) = 20.82197 100.98628 78.79719
#
# Poissons Ratio (x) = 0.63336 -0.24526
# Poissons Ratio (y) = 0.13059 0.04001
# Poissons Ratio (z) = -0.06481 0.05127
#
# Static dielectric constant tensor:
#      x y z
#    x 1.666340 0.000000 0.000000 
#    y 0.000000 1.749970 0.000000 
#    z 0.000000 0.000000 1.752110 
# 
# From -- ./inp_files/3149.got.cif
#   From: 2010.05.17/outbox.cif.g08.bks.cpg/sg20_2_cif.got.tgz:3149.got - 2010.06.03 22:52:26.
