data_PCOD9317706
_publ_section_title
;
Structure prediction by ZEFSAII (Michael W. Deem and Ramdas Pophale) SiO2 
 PCOD9317706
Probable space group: C 2 2 21
;
_chemical_formula_sum "Si O2"
_cell_formula_units_Z 64
_cell_length_a 17.582303
_cell_length_b 8.543524
_cell_length_c 20.939562
_cell_angle_alpha 90.000000
_cell_angle_beta 90.000000
_cell_angle_gamma 90.000000
_cell_volume 3145.432697
_symmetry_space_group_name_H-M "C 2 2 21"
_symmetry_group_IT_number 20
_symmetry_cell_setting 'orthorhombic'
loop_
_space_group_symop_operation_xyz
x,y,z
-x,-y,1/2+z
x,-y,-z
-x,y,1/2-z
1/2+x,1/2+y,z
1/2-x,1/2-y,1/2+z
1/2+x,1/2-y,-z
1/2-x,1/2+y,1/2-z
loop_
_atom_site_type_symbol
_atom_site_label
_atom_site_fract_x
_atom_site_fract_y
_atom_site_fract_z
Si Si1 0.448068 0.091491 0.436171
Si Si2 0.923682 0.427976 0.707157
Si Si3 0.923682 0.072024 0.207157
Si Si4 0.165165 0.119754 0.801364
Si Si5 0.610991 0.548878 0.935639
Si Si6 0.889009 0.548878 0.935639
Si Si7 0.834835 0.619754 0.801364
Si Si8 0.051932 0.091491 0.436171
O O1 0.426849 0.019716 0.366793
O O2 0.420505 0.271501 0.439358
O O3 0.421462 0.000000 0.500000
O O4 0.539140 0.069223 0.434792
O O5 0.901823 0.246577 0.703028
O O6 0.854051 0.505478 0.743996
O O7 0.000000 0.448666 0.750000
O O8 0.901823 0.253423 0.203028
O O9 0.926849 0.019715 0.133207
O O10 0.000000 0.051334 0.250000
O O11 0.854051 0.994523 0.243996
O O12 0.155820 0.037640 0.869875
O O13 0.250000 0.185409 0.797011
O O14 0.539140 0.430777 0.934792
O O15 0.653951 0.500000 0.000000
O O16 0.844180 0.537639 0.869875
O O17 0.920504 0.728500 0.939358
O O18 0.846048 0.500000 0.000000
O O19 0.078538 0.000000 0.500000
#
# Coordination Sequence:
#
# PCOD9317706 Si02
#       8
#     8   8   8   8   8   8   8   8
#     4  10  20  34  58  91 115 146 195 249 288 335
#     4  11  22  39  63  87 117 155 202 242 288 351
#     4  11  22  39  63  87 117 155 202 242 288 351
#     4  11  24  39  59  88 122 157 193 244 299 348
#     4  10  20  35  57  85 117 150 193 237 292 346
#     4  10  20  35  57  85 117 150 193 237 292 346
#     4  11  24  39  59  88 122 157 193 244 299 348
#     4  10  20  34  58  91 115 146 195 249 288 335
#
# _framework density 20.346962999999999
#
# number of rings (size 3 to 8) (size 9 to 14) (size 15 to 20)
#    0.000    1.500    2.500    4.500    3.500    2.500 
#    0.000    0.000    0.000   18.750    0.000    0.000 
#    0.000    1.000    0.000    0.000    0.000    0.000 
#
# Total GULP energy -178327.446622 kJ/mol
# GULP energy per Si atom -5572.732707 kJ/mol
# Density = 2.030065 g / cm^3
# Si number density = 20.346963 Si / 1000 Ang^3
#
#
#
# Elastic Constant Matrix: (Units=GPa)
#
#
# Indices 1 2 3 4 5 6 
#
# 1 65.6098 7.8864 39.6412 0.0000 0.0000 0.0000
# 2 7.8864 27.9358 34.0887 0.0000 0.0000 0.0000
# 3 39.6412 34.0887 193.6435 0.0000 0.0000 0.0000
# 4 0.0000 0.0000 0.0000 34.0533 0.0000 0.0000
# 5 0.0000 0.0000 0.0000 0.0000 6.8676 0.0000
# 6 0.0000 0.0000 0.0000 0.0000 0.0000 16.4813
#
#
#
# Elastic Compliance Matrix: (Units=1/GPa)
#
#
# Indices 1 2 3 4 5 6 
#
# 1 0.017404 -0.000720 -0.003436 0.000000 0.000000 0.000000
# 2 -0.000720 0.045619 -0.007883 0.000000 0.000000 0.000000
# 3 -0.003436 -0.007883 0.007255 0.000000 0.000000 0.000000
# 4 0.000000 0.000000 0.000000 0.029366 0.000000 0.000000
# 5 0.000000 0.000000 0.000000 0.000000 0.145611 0.000000
# 6 0.000000 0.000000 0.000000 0.000000 0.000000 0.060675
#
#
# Mechanical properties :
#
#
# Convention : Reuss Voigt Hill
#
# Bulk Modulus (GPa) = 21.64529 50.04684 35.84606
# Shear Modulus (GPa) = 14.47554 25.18529 19.83042
#
# Velocity S-wave (km/s) = 2.67017 3.52204 3.12527
# Velocity P-wave (km/s) = 4.49083 6.41793 5.53884
#
# Compressibility (1/GPa) = 0.04619943
#
# Stress axis : x y z
#
# Youngs Moduli (GPa) = 57.45714 21.92050 137.83043
#
# Poissons Ratio (x) = 0.01579 0.47359
# Poissons Ratio (y) = 0.04139 1.08656
# Poissons Ratio (z) = 0.19743 0.17281
#
# Static dielectric constant tensor:
#      x y z
#    x 1.693980 0.000000 0.000000 
#    y 0.000000 1.726970 0.000000 
#    z 0.000000 0.000000 1.833690 
# 
# From -- ./inp_files/27785.got.cif
#   From: 2010.05.17/outbox.cif.g08.bks.cpg/sg20_14_cif.got.tgz:27785.got - 2010.06.03 22:52:26.
