data_PCOD9317456
_publ_section_title
;
Structure prediction by ZEFSAII (Michael W. Deem and Ramdas Pophale) SiO2 
 PCOD9317456
Probable space group: C 2 2 21
;
_chemical_formula_sum "Si O2"
_cell_formula_units_Z 64
_cell_length_a 15.106109
_cell_length_b 15.792575
_cell_length_c 12.092311
_cell_angle_alpha 90.000000
_cell_angle_beta 90.000000
_cell_angle_gamma 90.000000
_cell_volume 2884.794427
_symmetry_space_group_name_H-M "C 2 2 21"
_symmetry_group_IT_number 20
_symmetry_cell_setting 'orthorhombic'
loop_
_space_group_symop_operation_xyz
x,y,z
-x,-y,1/2+z
x,-y,-z
-x,y,1/2-z
1/2+x,1/2+y,z
1/2-x,1/2-y,1/2+z
1/2+x,1/2-y,-z
1/2-x,1/2+y,1/2-z
loop_
_atom_site_type_symbol
_atom_site_label
_atom_site_fract_x
_atom_site_fract_y
_atom_site_fract_z
Si Si1 0.618336 0.810324 0.901121
Si Si2 0.263309 0.512114 0.373100
Si Si3 0.601192 0.626773 0.837397
Si Si4 0.078860 0.872011 0.412300
Si Si5 0.787511 0.318238 0.828814
Si Si6 0.568986 0.193580 0.509874
Si Si7 0.272261 0.867830 0.395155
Si Si8 0.405513 0.931347 0.210532
O O1 0.627172 0.707959 0.908982
O O2 0.650104 0.830766 0.777797
O O3 0.518959 0.831631 0.940830
O O4 0.683810 0.852738 0.986881
O O5 0.285659 0.500000 0.500000
O O6 0.321435 0.439353 0.317772
O O7 0.282417 0.605523 0.329017
O O8 0.159441 0.492938 0.356110
O O9 0.516204 0.583356 0.897137
O O10 0.582120 0.664041 0.714408
O O11 0.070356 0.796473 0.501148
O O12 0.176511 0.910474 0.420393
O O13 0.844315 0.330334 0.940393
O O14 0.746694 0.224623 0.839124
O O15 0.573908 0.148776 0.629049
O O16 0.345192 0.910051 0.316907
O O17 0.500000 0.965676 0.250000
#
# Coordination Sequence:
#
# PCOD9317456 Si02
#       8
#     8   8   8   8   8   8   8   8
#     4  11  20  37  64  96 121 158 211 266 312 372
#     4  12  24  41  64  89 127 172 213 253 316 394
#     4  10  19  38  65  91 119 158 215 261 307 366
#     4   9  19  34  66  92 114 158 210 261 304 367
#     4  11  23  37  63  95 121 164 216 261 305 383
#     4  10  20  37  63  96 122 156 212 261 316 366
#     4  11  22  38  66  91 126 163 206 269 327 365
#     4  12  24  42  61  95 134 168 204 263 330 382
#
# _framework density 22.185289000000001
#
# number of rings (size 3 to 8) (size 9 to 14) (size 15 to 20)
#    0.000    1.250    6.250    1.125    5.250    1.000 
#    0.000    0.625    8.250    0.000    0.000    0.000 
#    0.000    0.000    0.000    0.000    0.000    0.000 
#
# Total GULP energy -178332.041711 kJ/mol
# GULP energy per Si atom -5572.876303 kJ/mol
# Density = 2.213479 g / cm^3
# Si number density = 22.185289 Si / 1000 Ang^3
#
#
#
# Elastic Constant Matrix: (Units=GPa)
#
#
# Indices 1 2 3 4 5 6 
#
# 1 83.9892 1.9515 -14.1739 0.0000 0.0000 0.0000
# 2 1.9515 35.5899 -18.7692 0.0000 0.0000 0.0000
# 3 -14.1739 -18.7692 43.3476 0.0000 0.0000 0.0000
# 4 0.0000 0.0000 0.0000 21.0899 0.0000 0.0000
# 5 0.0000 0.0000 0.0000 0.0000 21.2391 0.0000
# 6 0.0000 0.0000 0.0000 0.0000 0.0000 8.6722
#
#
#
# Elastic Compliance Matrix: (Units=1/GPa)
#
#
# Indices 1 2 3 4 5 6 
#
# 1 0.012704 0.001936 0.004992 0.000000 0.000000 0.000000
# 2 0.001936 0.036708 0.016527 0.000000 0.000000 0.000000
# 3 0.004992 0.016527 0.031858 0.000000 0.000000 0.000000
# 4 0.000000 0.000000 0.000000 0.047416 0.000000 0.000000
# 5 0.000000 0.000000 0.000000 0.000000 0.047083 0.000000
# 6 0.000000 0.000000 0.000000 0.000000 0.000000 0.115311
#
#
# Mechanical properties :
#
#
# Convention : Reuss Voigt Hill
#
# Bulk Modulus (GPa) = 7.80147 11.21594 9.50871
# Shear Modulus (GPa) = 17.42794 23.12810 20.27802
#
# Velocity S-wave (km/s) = 2.80583 3.23228 3.02657
# Velocity P-wave (km/s) = 3.74447 4.35852 4.06311
#
# Compressibility (1/GPa) = 0.12818101
#
# Stress axis : x y z
#
# Youngs Moduli (GPa) = 78.71660 27.24219 31.38941
#
# Poissons Ratio (x) = -0.05275 -0.15671
# Poissons Ratio (y) = -0.15241 -0.51878
# Poissons Ratio (z) = -0.39298 -0.45024
#
# Static dielectric constant tensor:
#      x y z
#    x 1.898250 0.000000 0.000000 
#    y 0.000000 1.854890 0.000000 
#    z 0.000000 0.000000 1.810000 
# 
# From -- ./inp_files/15339.got.cif
#   From: 2010.05.17/outbox.cif.g08.bks.cpg/sg20_8_cif.got.tgz:15339.got - 2010.06.03 22:52:26.
