data_PCOD9317331
_publ_section_title
;
Structure prediction by ZEFSAII (Michael W. Deem and Ramdas Pophale) SiO2 
 PCOD9317331
Probable space group: C 2 2 21
;
_chemical_formula_sum "Si O2"
_cell_formula_units_Z 60
_cell_length_a 10.505324
_cell_length_b 27.294849
_cell_length_c 9.751751
_cell_angle_alpha 90.000000
_cell_angle_beta 90.000000
_cell_angle_gamma 90.000000
_cell_volume 2796.229099
_symmetry_space_group_name_H-M "C 2 2 21"
_symmetry_group_IT_number 20
_symmetry_cell_setting 'orthorhombic'
loop_
_space_group_symop_operation_xyz
x,y,z
-x,-y,1/2+z
x,-y,-z
-x,y,1/2-z
1/2+x,1/2+y,z
1/2-x,1/2-y,1/2+z
1/2+x,1/2-y,-z
1/2-x,1/2+y,1/2-z
loop_
_atom_site_type_symbol
_atom_site_label
_atom_site_fract_x
_atom_site_fract_y
_atom_site_fract_z
Si Si1 0.649740 0.204877 0.784463
Si Si2 0.593610 0.462326 0.619995
Si Si3 0.845545 0.511048 0.237828
Si Si4 0.881344 0.144704 0.176726
Si Si5 0.688846 0.107120 0.409950
Si Si6 0.000000 0.325648 0.750000
Si Si7 0.211215 0.271039 0.923566
Si Si8 0.848198 0.601468 0.776413
O O1 0.500000 0.204648 0.750000
O O2 0.726487 0.226209 0.656367
O O3 0.689982 0.148369 0.813439
O O4 0.677129 0.237025 0.918823
O O5 0.560424 0.500000 0.500000
O O6 0.500000 0.472828 0.750000
O O7 0.745961 0.467447 0.650473
O O8 0.576869 0.404171 0.595366
O O9 0.821774 0.548427 0.112237
O O10 0.804177 0.454370 0.238787
O O11 0.000000 0.512894 0.250000
O O12 0.796485 0.125901 0.305551
O O13 0.809848 0.184073 0.087368
O O14 0.000000 0.169467 0.250000
O O15 0.568078 0.137288 0.354801
O O16 0.692998 0.115983 0.570391
O O17 0.907902 0.291156 0.662796
O O18 0.000000 0.597869 0.750000
#
# Coordination Sequence:
#
# PCOD9317331 Si02
#       8
#     8   8   8   8   8   4   8   8
#     4  11  26  45  68  96 132 171 221 282 341 393
#     4  10  23  41  67  92 136 180 224 264 331 395
#     4  10  21  37  61 100 130 175 215 275 326 408
#     4   9  21  41  66  95 127 174 218 270 322 404
#     4  10  19  36  63  95 130 172 214 261 331 394
#     4  10  20  38  66  92 130 166 220 264 324 402
#     4  11  25  42  72  94 130 175 222 278 343 390
#     4  10  22  37  60  92 134 165 211 273 332 385
#
# _framework density 21.457467999999999
#
# number of rings (size 3 to 8) (size 9 to 14) (size 15 to 20)
#    0.000    1.867    0.667    2.400    7.467    5.333 
#    0.000    0.000    1.467    0.000    0.000    0.000 
#    0.000    0.000    0.000    0.000    0.000    0.000 
#
# Total GULP energy -167243.552984 kJ/mol
# GULP energy per Si atom -5574.785099 kJ/mol
# Density = 2.140863 g / cm^3
# Si number density = 21.457468 Si / 1000 Ang^3
#
#
#
# Elastic Constant Matrix: (Units=GPa)
#
#
# Indices 1 2 3 4 5 6 
#
# 1 58.3096 23.8101 6.5515 0.0000 0.0000 0.0000
# 2 23.8101 97.7940 16.8617 0.0000 0.0000 0.0000
# 3 6.5515 16.8617 46.4664 0.0000 0.0000 0.0000
# 4 0.0000 0.0000 0.0000 27.3370 0.0000 0.0000
# 5 0.0000 0.0000 0.0000 0.0000 11.4892 0.0000
# 6 0.0000 0.0000 0.0000 0.0000 0.0000 18.2054
#
#
#
# Elastic Compliance Matrix: (Units=1/GPa)
#
#
# Indices 1 2 3 4 5 6 
#
# 1 0.019093 -0.004464 -0.001072 0.000000 0.000000 0.000000
# 2 -0.004464 0.011952 -0.003708 0.000000 0.000000 0.000000
# 3 -0.001072 -0.003708 0.023018 0.000000 0.000000 0.000000
# 4 0.000000 0.000000 0.000000 0.036580 0.000000 0.000000
# 5 0.000000 0.000000 0.000000 0.000000 0.087039 0.000000
# 6 0.000000 0.000000 0.000000 0.000000 0.000000 0.054929
#
#
# Mechanical properties :
#
#
# Convention : Reuss Voigt Hill
#
# Bulk Modulus (GPa) = 28.10962 33.00186 30.55574
# Shear Modulus (GPa) = 19.01462 21.76276 20.38869
#
# Velocity S-wave (km/s) = 2.98006 3.18815 3.08586
# Velocity P-wave (km/s) = 4.99696 5.38200 5.19305
#
# Compressibility (1/GPa) = 0.03557501
#
# Stress axis : x y z
#
# Youngs Moduli (GPa) = 52.37515 83.67044 43.44518
#
# Poissons Ratio (x) = 0.37348 0.04658
# Poissons Ratio (y) = 0.23379 0.16108
# Poissons Ratio (z) = 0.05616 0.31022
#
# Static dielectric constant tensor:
#      x y z
#    x 1.823050 0.000000 0.000000 
#    y 0.000000 1.800660 0.000000 
#    z 0.000000 0.000000 1.795820 
# 
# From -- ./inp_files/7580.got.cif
#   From: 2010.05.17/outbox.cif.g08.bks.cpg/sg20_4_cif.got.tgz:7580.got - 2010.06.03 22:52:26.
