data_PCOD9317947
_publ_section_title
;
Structure prediction by ZEFSAII (Michael W. Deem and Ramdas Pophale) SiO2 
 PCOD9317947
Probable space group: C 2 2 21
;
_chemical_formula_sum "Si O2"
_cell_formula_units_Z 52
_cell_length_a 15.461533
_cell_length_b 5.848705
_cell_length_c 25.764059
_cell_angle_alpha 90.000000
_cell_angle_beta 90.000000
_cell_angle_gamma 90.000000
_cell_volume 2329.842448
_symmetry_space_group_name_H-M "C 2 2 21"
_symmetry_group_IT_number 20
_symmetry_cell_setting 'orthorhombic'
loop_
_space_group_symop_operation_xyz
x,y,z
-x,-y,1/2+z
x,-y,-z
-x,y,1/2-z
1/2+x,1/2+y,z
1/2-x,1/2-y,1/2+z
1/2+x,1/2-y,-z
1/2-x,1/2+y,1/2-z
loop_
_atom_site_type_symbol
_atom_site_label
_atom_site_fract_x
_atom_site_fract_y
_atom_site_fract_z
Si Si1 0.953265 0.329815 0.390143
Si Si2 0.500000 0.483215 0.250000
Si Si3 0.657869 0.629626 0.188425
Si Si4 0.285167 0.232716 0.797602
Si Si5 0.891863 0.000000 0.000000
Si Si6 0.506614 0.000000 0.500000
Si Si7 0.872701 0.994147 0.888579
Si Si8 0.429167 0.876661 0.827728
O O1 0.863277 0.232570 0.367652
O O2 0.954579 0.443567 0.446928
O O3 0.033592 0.142052 0.388326
O O4 0.982776 0.517190 0.348081
O O5 0.564914 0.626339 0.215906
O O6 0.554040 0.321228 0.287153
O O7 0.717639 0.724602 0.235563
O O8 0.696104 0.377003 0.183746
O O9 0.312429 0.416303 0.841011
O O10 0.364649 0.058190 0.804512
O O11 0.943580 0.751748 0.007111
O O12 0.840137 0.038282 0.053242
O O13 0.887004 0.260500 0.877790
#
# Coordination Sequence:
#
# PCOD9317947 Si02
#       8
#     8   4   8   8   4   4   8   8
#     4  10  21  37  63  98 128 167 225 284 338 409
#     4  12  20  36  64  88 126 166 222 270 334 400
#     4  12  23  41  59  95 130 180 219 280 345 418
#     4  11  25  39  58  93 138 173 222 272 354 419
#     4  10  20  38  68 107 133 174 230 286 348 406
#     4  10  20  36  66 107 135 166 228 300 352 398
#     4  10  20  39  64  99 129 170 223 280 336 415
#     4  11  19  38  60  92 125 167 212 277 332 412
#
# _framework density 22.319106999999999
#
# number of rings (size 3 to 8) (size 9 to 14) (size 15 to 20)
#    0.000    1.231    4.615    2.769    0.000    0.000 
#    0.000    0.000    0.000    0.923   16.000    0.000 
#    0.000    0.000    0.000    0.000    0.000    0.000 
#
# Total GULP energy -144829.232920 kJ/mol
# GULP energy per Si atom -5570.355112 kJ/mol
# Density = 2.226831 g / cm^3
# Si number density = 22.319107 Si / 1000 Ang^3
#
#
#
# Elastic Constant Matrix: (Units=GPa)
#
#
# Indices 1 2 3 4 5 6 
#
# 1 47.6563 10.6639 24.3891 0.0000 0.0000 0.0000
# 2 10.6639 65.6748 26.9478 0.0000 0.0000 0.0000
# 3 24.3891 26.9478 143.0421 0.0000 0.0000 0.0000
# 4 0.0000 0.0000 0.0000 34.3438 0.0000 0.0000
# 5 0.0000 0.0000 0.0000 0.0000 17.4028 0.0000
# 6 0.0000 0.0000 0.0000 0.0000 0.0000 39.6338
#
#
#
# Elastic Compliance Matrix: (Units=1/GPa)
#
#
# Indices 1 2 3 4 5 6 
#
# 1 0.023315 -0.002335 -0.003535 0.000000 0.000000 0.000000
# 2 -0.002335 0.016736 -0.002755 0.000000 0.000000 0.000000
# 3 -0.003535 -0.002755 0.008113 0.000000 0.000000 0.000000
# 4 0.000000 0.000000 0.000000 0.029117 0.000000 0.000000
# 5 0.000000 0.000000 0.000000 0.000000 0.057462 0.000000
# 6 0.000000 0.000000 0.000000 0.000000 0.000000 0.025231
#
#
# Mechanical properties :
#
#
# Convention : Reuss Voigt Hill
#
# Bulk Modulus (GPa) = 32.34831 42.26385 37.30608
# Shear Modulus (GPa) = 26.66246 31.23426 28.94836
#
# Velocity S-wave (km/s) = 3.46005 3.74497 3.60533
# Velocity P-wave (km/s) = 5.52156 6.13816 5.83801
#
# Compressibility (1/GPa) = 0.03091351
#
# Stress axis : x y z
#
# Youngs Moduli (GPa) = 42.89006 59.75127 123.26321
#
# Poissons Ratio (x) = 0.13953 0.43579
# Poissons Ratio (y) = 0.10015 0.33956
# Poissons Ratio (z) = 0.15163 0.16460
#
# Static dielectric constant tensor:
#      x y z
#    x 1.853020 0.000000 0.000000 
#    y 0.000000 1.921660 0.000000 
#    z 0.000000 0.000000 1.873030 
# 
# From -- ./inp_files/30494.got.cif
#   From: 2010.05.17/outbox.cif.g08.bks.cpg/sg20_16_cif.got.tgz:30494.got - 2010.06.03 22:52:26.
