data_PCOD9317043
_publ_section_title
;
Structure prediction by ZEFSAII (Michael W. Deem and Ramdas Pophale) SiO2 
 PCOD9317043
Probable space group: C 2 2 21
;
_chemical_formula_sum "Si O2"
_cell_formula_units_Z 56
_cell_length_a 14.006027
_cell_length_b 13.329932
_cell_length_c 15.527736
_cell_angle_alpha 90.000000
_cell_angle_beta 90.000000
_cell_angle_gamma 90.000000
_cell_volume 2899.018800
_symmetry_space_group_name_H-M "C 2 2 21"
_symmetry_group_IT_number 20
_symmetry_cell_setting 'orthorhombic'
loop_
_space_group_symop_operation_xyz
x,y,z
-x,-y,1/2+z
x,-y,-z
-x,y,1/2-z
1/2+x,1/2+y,z
1/2-x,1/2-y,1/2+z
1/2+x,1/2-y,-z
1/2-x,1/2+y,1/2-z
loop_
_atom_site_type_symbol
_atom_site_label
_atom_site_fract_x
_atom_site_fract_y
_atom_site_fract_z
Si Si1 0.370688 0.730724 0.452171
Si Si2 0.566103 0.574279 0.920144
Si Si3 0.388884 0.048739 0.763587
Si Si4 0.451780 0.252442 0.840610
Si Si5 0.795032 0.432975 0.425524
Si Si6 0.212236 0.948180 0.833333
Si Si7 0.388591 0.531598 0.148773
O O1 0.415693 0.681919 0.537707
O O2 0.461008 0.776790 0.401752
O O3 0.296585 0.820381 0.461312
O O4 0.321066 0.645899 0.391533
O O5 0.667883 0.543195 0.881966
O O6 0.481912 0.540214 0.855546
O O7 0.545479 0.500000 0.000000
O O8 0.500000 0.021931 0.750000
O O9 0.323157 0.968090 0.813368
O O10 0.389169 0.155715 0.814946
O O11 0.343798 0.062243 0.668639
O O12 0.500000 0.284408 0.750000
O O13 0.409699 0.354244 0.880482
O O14 0.842719 0.500000 0.500000
O O15 0.690619 0.476973 0.407841
O O16 0.156861 0.949500 0.742632
#
# Coordination Sequence:
#
# PCOD9317043 Si02
#       7
#     8   8   8   8   8   8   8
#     4  11  21  39  61  90 125 163 208 256 316 377
#     4  10  19  33  57  93 127 149 200 267 315 359
#     4  10  21  40  64  91 119 168 211 245 308 389
#     4  11  17  35  69  88 111 164 215 245 297 380
#     4  11  24  38  58  90 128 160 206 262 314 371
#     4  10  20  35  63  91 120 156 212 261 304 374
#     4  11  19  35  62  91 117 159 210 263 306 360
#
# _framework density 19.316880999999999
#
# number of rings (size 3 to 8) (size 9 to 14) (size 15 to 20)
#    0.000    1.429    7.143    0.857    0.000    1.143 
#    0.000    5.000    0.000    0.857    0.000    0.000 
#    0.000    0.000    0.000    0.000    0.000    0.000 
#
# Total GULP energy -155892.424020 kJ/mol
# GULP energy per Si atom -5567.586572 kJ/mol
# Density = 1.927291 g / cm^3
# Si number density = 19.316881 Si / 1000 Ang^3
#
#
#
# Elastic Constant Matrix: (Units=GPa)
#
#
# Indices 1 2 3 4 5 6 
#
# 1 88.3282 30.2516 13.3411 0.0000 0.0000 0.0000
# 2 30.2516 87.3650 30.0348 0.0000 0.0000 0.0000
# 3 13.3411 30.0348 32.4344 0.0000 0.0000 0.0000
# 4 0.0000 0.0000 0.0000 29.0353 0.0000 0.0000
# 5 0.0000 0.0000 0.0000 0.0000 20.4619 0.0000
# 6 0.0000 0.0000 0.0000 0.0000 0.0000 30.2603
#
#
#
# Elastic Compliance Matrix: (Units=1/GPa)
#
#
# Indices 1 2 3 4 5 6 
#
# 1 0.012910 -0.003880 -0.001717 0.000000 0.000000 0.000000
# 2 -0.003880 0.017958 -0.015033 0.000000 0.000000 0.000000
# 3 -0.001717 -0.015033 0.045459 0.000000 0.000000 0.000000
# 4 0.000000 0.000000 0.000000 0.034441 0.000000 0.000000
# 5 0.000000 0.000000 0.000000 0.000000 0.048871 0.000000
# 6 0.000000 0.000000 0.000000 0.000000 0.000000 0.033047
#
#
# Mechanical properties :
#
#
# Convention : Reuss Voigt Hill
#
# Bulk Modulus (GPa) = 28.51808 39.48693 34.00251
# Shear Modulus (GPa) = 20.35539 24.91817 22.63678
#
# Velocity S-wave (km/s) = 3.24969 3.59551 3.42697
# Velocity P-wave (km/s) = 5.37364 6.14190 5.77057
#
# Compressibility (1/GPa) = 0.03506548
#
# Stress axis : x y z
#
# Youngs Moduli (GPa) = 77.46183 55.68568 21.99779
#
# Poissons Ratio (x) = 0.21605 0.03778
# Poissons Ratio (y) = 0.30053 0.33070
# Poissons Ratio (z) = 0.13303 0.83715
#
# Static dielectric constant tensor:
#      x y z
#    x 1.701870 0.000000 0.000000 
#    y 0.000000 1.711080 0.000000 
#    z 0.000000 0.000000 1.751970 
# 
# From -- ./inp_files/20724.got.cif
#   From: 2010.05.17/outbox.cif.g08.bks.cpg/sg20_11_cif.got.tgz:20724.got - 2010.06.03 22:52:26.
