data_PCOD9317072
_publ_section_title
;
Structure prediction by ZEFSAII (Michael W. Deem and Ramdas Pophale) SiO2 
 PCOD9317072
Probable space group: C 2 2 21
;
_chemical_formula_sum "Si O2"
_cell_formula_units_Z 60
_cell_length_a 7.546091
_cell_length_b 15.926203
_cell_length_c 21.202799
_cell_angle_alpha 90.000000
_cell_angle_beta 90.000000
_cell_angle_gamma 90.000000
_cell_volume 2548.164620
_symmetry_space_group_name_H-M "C 2 2 21"
_symmetry_group_IT_number 20
_symmetry_cell_setting 'orthorhombic'
loop_
_space_group_symop_operation_xyz
x,y,z
-x,-y,1/2+z
x,-y,-z
-x,y,1/2-z
1/2+x,1/2+y,z
1/2-x,1/2-y,1/2+z
1/2+x,1/2-y,-z
1/2-x,1/2+y,1/2-z
loop_
_atom_site_type_symbol
_atom_site_label
_atom_site_fract_x
_atom_site_fract_y
_atom_site_fract_z
Si Si1 0.119059 0.853533 0.664182
Si Si2 0.262962 0.265319 0.665945
Si Si3 0.887296 0.500000 0.500000
Si Si4 0.192705 0.565864 0.281985
Si Si5 0.117468 0.973901 0.383859
Si Si6 0.062113 0.822419 0.448553
Si Si7 0.148860 0.337621 0.951076
Si Si8 0.290573 0.892823 0.259642
O O1 0.182821 0.885354 0.731881
O O2 0.291392 0.837017 0.621526
O O3 0.975076 0.780436 0.663618
O O4 0.034735 0.937300 0.633133
O O5 0.180811 0.359232 0.667359
O O6 0.192855 0.219506 0.603420
O O7 0.220559 0.202382 0.725598
O O8 0.767123 0.485533 0.437721
O O9 0.974939 0.587814 0.478782
O O10 0.256477 0.468411 0.290352
O O11 0.000000 0.556958 0.250000
O O12 0.989636 0.904073 0.412795
O O13 0.223446 0.939543 0.323159
O O14 0.169890 0.848034 0.509939
O O15 0.923812 0.752888 0.466633
O O16 0.500000 0.881218 0.250000
#
# Coordination Sequence:
#
# PCOD9317072 Si02
#       8
#     8   8   4   8   8   8   8   8
#     4  10  19  34  55  77 104 142 179 220 272 325
#     4  11  21  36  56  80 109 142 182 227 274 324
#     4   8  16  32  54  74 104 148 176 210 268 330
#     4  10  20  35  53  76 105 139 178 222 269 323
#     4   8  17  32  51  74 105 139 177 218 270 321
#     4  10  20  35  54  80 109 141 180 225 270 323
#     4  10  19  35  56  80 109 143 181 220 268 321
#     4   9  18  33  52  75 104 140 178 220 269 327
#
# _framework density 23.546361000000001
#
# number of rings (size 3 to 8) (size 9 to 14) (size 15 to 20)
#    0.000    2.400    0.000    2.800    0.000    1.067 
#    0.000    9.333    0.000    0.000    0.000    0.000 
#    0.000    0.000    0.000    0.000    0.000    0.000 
#
# Total GULP energy -167024.577822 kJ/mol
# GULP energy per Si atom -5567.485927 kJ/mol
# Density = 2.349277 g / cm^3
# Si number density = 23.546361 Si / 1000 Ang^3
#
#
#
# Elastic Constant Matrix: (Units=GPa)
#
#
# Indices 1 2 3 4 5 6 
#
# 1 31.1554 -6.4309 5.7445 0.0000 0.0000 0.0000
# 2 -6.4309 123.0259 15.4671 0.0000 0.0000 0.0000
# 3 5.7445 15.4671 33.4900 0.0000 0.0000 0.0000
# 4 0.0000 0.0000 0.0000 36.8653 0.0000 0.0000
# 5 0.0000 0.0000 0.0000 0.0000 13.9517 0.0000
# 6 0.0000 0.0000 0.0000 0.0000 0.0000 32.0593
#
#
#
# Elastic Compliance Matrix: (Units=1/GPa)
#
#
# Indices 1 2 3 4 5 6 
#
# 1 0.033947 0.002661 -0.007052 0.000000 0.000000 0.000000
# 2 0.002661 0.008838 -0.004538 0.000000 0.000000 0.000000
# 3 -0.007052 -0.004538 0.033165 0.000000 0.000000 0.000000
# 4 0.000000 0.000000 0.000000 0.027126 0.000000 0.000000
# 5 0.000000 0.000000 0.000000 0.000000 0.071676 0.000000
# 6 0.000000 0.000000 0.000000 0.000000 0.000000 0.031192
#
#
# Mechanical properties :
#
#
# Convention : Reuss Voigt Hill
#
# Bulk Modulus (GPa) = 17.21411 24.13698 20.67554
# Shear Modulus (GPa) = 20.56212 28.10129 24.33171
#
# Velocity S-wave (km/s) = 2.95831 3.45838 3.21807
# Velocity P-wave (km/s) = 4.35837 5.12057 4.75477
#
# Compressibility (1/GPa) = 0.05809188
#
# Stress axis : x y z
#
# Youngs Moduli (GPa) = 29.45799 113.14743 30.15205
#
# Poissons Ratio (x) = -0.30109 0.21263
# Poissons Ratio (y) = -0.07839 0.13684
# Poissons Ratio (z) = 0.20773 0.51349
#
# Static dielectric constant tensor:
#      x y z
#    x 1.899580 0.000000 0.000000 
#    y 0.000000 2.081800 0.000000 
#    z 0.000000 0.000000 1.948900 
# 
# From -- ./inp_files/30200.got.cif
#   From: 2010.05.17/outbox.cif.g08.bks.cpg/sg20_16_cif.got.tgz:30200.got - 2010.06.03 22:52:26.
