data_PCOD9317722
_publ_section_title
;
Structure prediction by ZEFSAII (Michael W. Deem and Ramdas Pophale) SiO2 
 PCOD9317722
Probable space group: C 2 2 21
;
_chemical_formula_sum "Si O2"
_cell_formula_units_Z 48
_cell_length_a 15.746347
_cell_length_b 11.519950
_cell_length_c 10.409596
_cell_angle_alpha 90.000000
_cell_angle_beta 90.000000
_cell_angle_gamma 90.000000
_cell_volume 1888.270840
_symmetry_space_group_name_H-M "C 2 2 21"
_symmetry_group_IT_number 20
_symmetry_cell_setting 'orthorhombic'
loop_
_space_group_symop_operation_xyz
x,y,z
-x,-y,1/2+z
x,-y,-z
-x,y,1/2-z
1/2+x,1/2+y,z
1/2-x,1/2-y,1/2+z
1/2+x,1/2-y,-z
1/2-x,1/2+y,1/2-z
loop_
_atom_site_type_symbol
_atom_site_label
_atom_site_fract_x
_atom_site_fract_y
_atom_site_fract_z
Si Si1 0.368513 0.064829 0.132875
Si Si2 0.208808 0.189495 0.213352
Si Si3 0.002109 0.746218 0.483918
Si Si4 0.815259 0.266514 0.573090
Si Si5 0.219645 0.000000 0.500000
Si Si6 0.000000 0.605417 0.750000
Si Si7 0.431660 0.447366 0.849504
O O1 0.283808 0.095891 0.206427
O O2 0.421979 0.979559 0.222225
O O3 0.422444 0.179520 0.090587
O O4 0.350825 0.000000 0.000000
O O5 0.193803 0.206243 0.063895
O O6 0.254315 0.278983 0.312483
O O7 0.119948 0.154850 0.275546
O O8 0.915662 0.737570 0.401697
O O9 0.987187 0.675490 0.617571
O O10 0.023985 0.876943 0.532316
O O11 0.776322 0.391614 0.534825
O O12 0.149605 0.024609 0.611356
O O13 0.500000 0.496701 0.750000
#
# Coordination Sequence:
#
# PCOD9317722 Si02
#       7
#     8   8   8   8   4   4   8
#     4  10  22  35  59 101 138 166 225 283 327 403
#     4  11  23  44  66  98 137 180 225 279 340 409
#     4  11  21  40  68  94 135 179 216 275 353 402
#     4  11  24  43  71  98 133 176 228 281 343 403
#     4  10  26  42  68 100 134 172 236 284 332 410
#     4  10  20  34  62 100 132 174 214 274 344 400
#     4  11  22  47  66  91 135 185 229 270 348 410
#
# _framework density 25.420082000000001
#
# number of rings (size 3 to 8) (size 9 to 14) (size 15 to 20)
#    0.000    1.333    2.500    3.000    8.167    1.333 
#    4.500    0.000    0.000    0.000    0.000    0.000 
#    0.000    0.000    0.000    0.000    0.000    0.000 
#
# Total GULP energy -134122.525230 kJ/mol
# GULP energy per Si atom -5588.438551 kJ/mol
# Density = 2.536223 g / cm^3
# Si number density = 25.420082 Si / 1000 Ang^3
#
#
#
# Elastic Constant Matrix: (Units=GPa)
#
#
# Indices 1 2 3 4 5 6 
#
# 1 126.0776 13.4074 9.5279 0.0000 0.0000 0.0000
# 2 13.4074 50.0714 -12.1547 0.0000 0.0000 0.0000
# 3 9.5279 -12.1547 71.3610 0.0000 0.0000 0.0000
# 4 0.0000 0.0000 0.0000 4.2399 0.0000 0.0000
# 5 0.0000 0.0000 0.0000 0.0000 34.1732 0.0000
# 6 0.0000 0.0000 0.0000 0.0000 0.0000 20.2659
#
#
#
# Elastic Compliance Matrix: (Units=1/GPa)
#
#
# Indices 1 2 3 4 5 6 
#
# 1 0.008326 -0.002607 -0.001556 0.000000 0.000000 0.000000
# 2 -0.002607 0.021649 0.004036 0.000000 0.000000 0.000000
# 3 -0.001556 0.004036 0.014908 0.000000 0.000000 0.000000
# 4 0.000000 0.000000 0.000000 0.235857 0.000000 0.000000
# 5 0.000000 0.000000 0.000000 0.000000 0.029263 0.000000
# 6 0.000000 0.000000 0.000000 0.000000 0.000000 0.049344
#
#
# Mechanical properties :
#
#
# Convention : Reuss Voigt Hill
#
# Bulk Modulus (GPa) = 22.40690 29.89679 26.15184
# Shear Modulus (GPa) = 13.35190 27.51775 20.43482
#
# Velocity S-wave (km/s) = 2.29432 3.29374 2.83836
# Velocity P-wave (km/s) = 3.98150 5.12363 4.58824
#
# Compressibility (1/GPa) = 0.04462911
#
# Stress axis : x y z
#
# Youngs Moduli (GPa) = 120.09919 46.19104 67.07651
#
# Poissons Ratio (x) = 0.12043 0.10436
# Poissons Ratio (y) = 0.31312 -0.27069
# Poissons Ratio (z) = 0.18685 -0.18641
#
# Static dielectric constant tensor:
#      x y z
#    x 2.034880 0.000000 0.000000 
#    y 0.000000 2.104060 0.000000 
#    z 0.000000 0.000000 2.089510 
# 
# From -- ./inp_files/15072.got.cif
#   From: 2010.05.17/outbox.cif.g08.bks.cpg/sg20_8_cif.got.tgz:15072.got - 2010.06.03 22:52:26.
