data_PCOD9317167
_publ_section_title
;
Structure prediction by ZEFSAII (Michael W. Deem and Ramdas Pophale) SiO2 
 PCOD9317167
Probable space group: C 2 2 21
;
_chemical_formula_sum "Si O2"
_cell_formula_units_Z 48
_cell_length_a 9.875967
_cell_length_b 17.211356
_cell_length_c 14.892482
_cell_angle_alpha 90.000000
_cell_angle_beta 90.000000
_cell_angle_gamma 90.000000
_cell_volume 2531.405979
_symmetry_space_group_name_H-M "C 2 2 21"
_symmetry_group_IT_number 20
_symmetry_cell_setting 'orthorhombic'
loop_
_space_group_symop_operation_xyz
x,y,z
-x,-y,1/2+z
x,-y,-z
-x,y,1/2-z
1/2+x,1/2+y,z
1/2-x,1/2-y,1/2+z
1/2+x,1/2-y,-z
1/2-x,1/2+y,1/2-z
loop_
_atom_site_type_symbol
_atom_site_label
_atom_site_fract_x
_atom_site_fract_y
_atom_site_fract_z
Si Si1 0.193002 0.575793 0.469904
Si Si2 0.439107 0.018832 0.351658
Si Si3 0.866535 0.688035 0.867187
Si Si4 0.150055 0.716578 0.361192
Si Si5 0.161624 0.347895 0.160535
Si Si6 0.845180 0.684625 0.352238
O O1 0.277685 0.500000 0.500000
O O2 0.157975 0.622686 0.559367
O O3 0.235549 0.646055 0.404446
O O4 0.064474 0.538653 0.416910
O O5 0.500000 0.018479 0.250000
O O6 0.339006 0.091982 0.362525
O O7 0.368907 0.936030 0.368182
O O8 0.826669 0.654763 0.768965
O O9 0.776465 0.763172 0.888338
O O10 0.026787 0.701181 0.862295
O O11 0.213146 0.800666 0.379204
O O12 0.151446 0.702009 0.254428
O O13 0.992911 0.709547 0.390210
#
# Coordination Sequence:
#
# PCOD9317167 Si02
#       6
#     8   8   8   8   8   8
#     4  11  19  32  55  86 105 142 191 235 270 327
#     4  11  17  34  59  83 109 144 195 233 272 337
#     4  10  20  32  54  83 112 141 184 231 282 324
#     4   9  19  32  55  78 112 143 187 222 284 333
#     4  10  19  35  56  82 111 145 185 233 274 333
#     4   9  18  35  54  77 109 152 180 223 280 342
#
# _framework density 18.961794999999999
#
# number of rings (size 3 to 8) (size 9 to 14) (size 15 to 20)
#    0.000    2.000    6.667    0.000    0.000    2.667 
#    0.000    0.000    3.667    4.000    0.000    0.000 
#    0.000    0.000    0.000    0.000    0.000    0.000 
#
# Total GULP energy -133653.331625 kJ/mol
# GULP energy per Si atom -5568.888818 kJ/mol
# Density = 1.891864 g / cm^3
# Si number density = 18.961795 Si / 1000 Ang^3
#
#
#
# Elastic Constant Matrix: (Units=GPa)
#
#
# Indices 1 2 3 4 5 6 
#
# 1 52.3453 66.3171 11.5279 0.0000 0.0000 0.0000
# 2 66.3171 180.5473 16.3835 0.0000 0.0000 0.0000
# 3 11.5279 16.3835 48.9186 0.0000 0.0000 0.0000
# 4 0.0000 0.0000 0.0000 28.3540 0.0000 0.0000
# 5 0.0000 0.0000 0.0000 0.0000 3.4122 0.0000
# 6 0.0000 0.0000 0.0000 0.0000 0.0000 45.0949
#
#
#
# Elastic Compliance Matrix: (Units=1/GPa)
#
#
# Indices 1 2 3 4 5 6 
#
# 1 0.036568 -0.013046 -0.004248 0.000000 0.000000 0.000000
# 2 -0.013046 0.010367 -0.000398 0.000000 0.000000 0.000000
# 3 -0.004248 -0.000398 0.021576 0.000000 0.000000 0.000000
# 4 0.000000 0.000000 0.000000 0.035268 0.000000 0.000000
# 5 0.000000 0.000000 0.000000 0.000000 0.293068 0.000000
# 6 0.000000 0.000000 0.000000 0.000000 0.000000 0.022175
#
#
# Mechanical properties :
#
#
# Convention : Reuss Voigt Hill
#
# Bulk Modulus (GPa) = 30.18653 52.25202 41.21927
# Shear Modulus (GPa) = 10.74229 27.87773 19.31001
#
# Velocity S-wave (km/s) = 2.38276 3.83849 3.19464
# Velocity P-wave (km/s) = 4.85018 6.87471 5.94919
#
# Compressibility (1/GPa) = 0.03312736
#
# Stress axis : x y z
#
# Youngs Moduli (GPa) = 27.34619 96.46086 46.34702
#
# Poissons Ratio (x) = 1.25847 0.19688
# Poissons Ratio (y) = 0.35677 0.01843
# Poissons Ratio (z) = 0.11617 0.03835
#
# Static dielectric constant tensor:
#      x y z
#    x 1.659950 0.000000 0.000000 
#    y 0.000000 1.691860 0.000000 
#    z 0.000000 0.000000 1.715220 
# 
# From -- ./inp_files/19928.got.cif
#   From: 2010.05.17/outbox.cif.g08.bks.cpg/sg20_10_cif.got.tgz:19928.got - 2010.06.03 22:52:26.
