data_PCOD9317457
_publ_section_title
;
Structure prediction by ZEFSAII (Michael W. Deem and Ramdas Pophale) SiO2 
 PCOD9317457
Probable space group: C 2 2 21
;
_chemical_formula_sum "Si O2"
_cell_formula_units_Z 64
_cell_length_a 28.603066
_cell_length_b 9.482400
_cell_length_c 10.113554
_cell_angle_alpha 90.000000
_cell_angle_beta 90.000000
_cell_angle_gamma 90.000000
_cell_volume 2743.055895
_symmetry_space_group_name_H-M "C 2 2 21"
_symmetry_group_IT_number 20
_symmetry_cell_setting 'orthorhombic'
loop_
_space_group_symop_operation_xyz
x,y,z
-x,-y,1/2+z
x,-y,-z
-x,y,1/2-z
1/2+x,1/2+y,z
1/2-x,1/2-y,1/2+z
1/2+x,1/2-y,-z
1/2-x,1/2+y,1/2-z
loop_
_atom_site_type_symbol
_atom_site_label
_atom_site_fract_x
_atom_site_fract_y
_atom_site_fract_z
Si Si1 0.794046 0.602744 0.377414
Si Si2 0.542998 0.665906 0.974835
Si Si3 0.102016 0.410293 0.859990
Si Si4 0.737568 0.346184 0.939695
Si Si5 0.835694 0.207242 0.908966
Si Si6 0.307059 0.425043 0.805216
Si Si7 0.065632 0.167325 0.512792
Si Si8 0.447474 0.164546 0.745904
O O1 0.802994 0.500000 0.500000
O O2 0.845061 0.622870 0.319686
O O3 0.775876 0.746818 0.439335
O O4 0.748257 0.535139 0.312282
O O5 0.573340 0.765308 0.878233
O O6 0.553483 0.500000 0.000000
O O7 0.487900 0.677876 0.935621
O O8 0.552874 0.738888 0.115957
O O9 0.084099 0.527486 0.759183
O O10 0.098543 0.500000 0.000000
O O11 0.788667 0.299277 0.885774
O O12 0.695761 0.662443 0.169765
O O13 0.740582 0.500000 0.000000
O O14 0.890623 0.243436 0.916432
O O15 0.824094 0.154049 0.062235
O O16 0.833017 0.073011 0.811059
O O17 0.063210 0.236595 0.368636
O O18 0.075994 0.000000 0.500000
O O19 0.500000 0.107608 0.750000
#
# Coordination Sequence:
#
# PCOD9317457 Si02
#       8
#     8   8   8   8   8   8   8   8
#     4  10  20  39  60  86 121 166 215 258 332 391
#     4   9  19  37  62  92 136 170 217 286 326 399
#     4   9  19  36  59  87 120 171 217 262 329 393
#     4  11  25  38  62  95 127 165 217 276 336 395
#     4  10  21  41  61  91 124 177 215 266 349 396
#     4  10  20  39  61  83 128 164 212 267 321 409
#     4  10  19  38  65  98 129 173 224 275 341 406
#     4   9  19  37  62  92 129 176 222 260 338 406
#
# _framework density 23.331641000000001
#
# number of rings (size 3 to 8) (size 9 to 14) (size 15 to 20)
#    0.000    2.250    3.750    0.000    3.500    4.500 
#    0.000    8.750    0.000    0.000    0.000    0.000 
#    0.000    0.000    0.000    0.000    0.000    0.000 
#
# Total GULP energy -178540.474643 kJ/mol
# GULP energy per Si atom -5579.389833 kJ/mol
# Density = 2.327854 g / cm^3
# Si number density = 23.331641 Si / 1000 Ang^3
#
#
#
# Elastic Constant Matrix: (Units=GPa)
#
#
# Indices 1 2 3 4 5 6 
#
# 1 144.1398 57.3811 23.8786 0.0000 0.0000 0.0000
# 2 57.3811 114.3024 1.9721 0.0000 0.0000 0.0000
# 3 23.8786 1.9721 40.5970 0.0000 0.0000 0.0000
# 4 0.0000 0.0000 0.0000 6.2708 0.0000 0.0000
# 5 0.0000 0.0000 0.0000 0.0000 29.1292 0.0000
# 6 0.0000 0.0000 0.0000 0.0000 0.0000 20.1182
#
#
#
# Elastic Compliance Matrix: (Units=1/GPa)
#
#
# Indices 1 2 3 4 5 6 
#
# 1 0.009764 -0.004807 -0.005509 0.000000 0.000000 0.000000
# 2 -0.004807 0.011122 0.002287 0.000000 0.000000 0.000000
# 3 -0.005509 0.002287 0.027762 0.000000 0.000000 0.000000
# 4 0.000000 0.000000 0.000000 0.159470 0.000000 0.000000
# 5 0.000000 0.000000 0.000000 0.000000 0.034330 0.000000
# 6 0.000000 0.000000 0.000000 0.000000 0.000000 0.049706
#
#
# Mechanical properties :
#
#
# Convention : Reuss Voigt Hill
#
# Bulk Modulus (GPa) = 30.68461 51.72253 41.20357
# Shear Modulus (GPa) = 15.67026 25.49079 20.58053
#
# Velocity S-wave (km/s) = 2.59440 3.30895 2.97322
# Velocity P-wave (km/s) = 4.70686 6.06757 5.43001
#
# Compressibility (1/GPa) = 0.03258963
#
# Stress axis : x y z
#
# Youngs Moduli (GPa) = 102.41848 89.91035 36.02061
#
# Poissons Ratio (x) = 0.43216 0.19845
# Poissons Ratio (y) = 0.49228 -0.08237
# Poissons Ratio (z) = 0.56427 -0.20561
#
# Static dielectric constant tensor:
#      x y z
#    x 1.887870 0.000000 0.000000 
#    y 0.000000 1.877220 0.000000 
#    z 0.000000 0.000000 2.047830 
# 
# From -- ./inp_files/17246.got.cif
#   From: 2010.05.17/outbox.cif.g08.bks.cpg/sg20_9_cif.got.tgz:17246.got - 2010.06.03 22:52:26.
