data_PCOD9317616
_publ_section_title
;
Structure prediction by ZEFSAII (Michael W. Deem and Ramdas Pophale) SiO2 
 PCOD9317616
Probable space group: C 2 2 21
;
_chemical_formula_sum "Si O2"
_cell_formula_units_Z 60
_cell_length_a 26.581617
_cell_length_b 15.864547
_cell_length_c 7.562289
_cell_angle_alpha 90.000000
_cell_angle_beta 90.000000
_cell_angle_gamma 90.000000
_cell_volume 3189.057444
_symmetry_space_group_name_H-M "C 2 2 21"
_symmetry_group_IT_number 20
_symmetry_cell_setting 'orthorhombic'
loop_
_space_group_symop_operation_xyz
x,y,z
-x,-y,1/2+z
x,-y,-z
-x,y,1/2-z
1/2+x,1/2+y,z
1/2-x,1/2-y,1/2+z
1/2+x,1/2-y,-z
1/2-x,1/2+y,1/2-z
loop_
_atom_site_type_symbol
_atom_site_label
_atom_site_fract_x
_atom_site_fract_y
_atom_site_fract_z
Si Si1 0.134073 0.664577 0.820722
Si Si2 0.558370 0.026466 0.793124
Si Si3 0.863146 0.392980 0.723460
Si Si4 0.785837 0.471651 0.205142
Si Si5 0.306087 0.744840 0.825169
Si Si6 0.804213 0.186166 0.416623
Si Si7 0.336339 0.500000 0.500000
Si Si8 0.326110 0.564016 0.848588
O O1 0.084409 0.616410 0.750057
O O2 0.180503 0.610509 0.742075
O O3 0.152530 0.761209 0.813882
O O4 0.127541 0.645659 0.030795
O O5 0.500000 0.025098 0.750000
O O6 0.592458 0.952627 0.706700
O O7 0.563387 0.000000 0.000000
O O8 0.814625 0.452799 0.697762
O O9 0.846735 0.318042 0.851214
O O10 0.730850 0.454098 0.279723
O O11 0.785700 0.500000 0.000000
O O12 0.251073 0.782929 0.858853
O O13 0.306924 0.715440 0.620793
O O14 0.321957 0.658974 0.920452
O O15 0.810527 0.085262 0.416364
O O16 0.359788 0.543860 0.674729
O O17 0.339755 0.500000 0.000000
#
# Coordination Sequence:
#
# PCOD9317616 Si02
#       8
#     8   8   8   8   8   8   4   8
#     4   9  18  34  50  69  96 143 175 209 277 323
#     4   9  18  33  54  76 104 137 171 218 276 329
#     4   9  19  33  49  67 100 137 176 215 262 328
#     4  11  19  28  42  69  98 128 181 220 251 308
#     4  10  21  31  48  69  95 140 183 222 261 318
#     4  10  20  33  48  70 100 136 187 229 259 317
#     4  10  22  34  46  70  94 128 190 224 262 312
#     4  11  21  33  47  65  96 140 180 225 269 304
#
# _framework density 18.814336000000001
#
# number of rings (size 3 to 8) (size 9 to 14) (size 15 to 20)
#    0.000    2.133    2.000    2.800    5.600    2.133 
#    0.000    0.000    0.000    0.000    0.000    0.000 
#    0.000   17.067    3.333    0.000    0.000    0.000 
#
# Total GULP energy -167124.696298 kJ/mol
# GULP energy per Si atom -5570.823210 kJ/mol
# Density = 1.877151 g / cm^3
# Si number density = 18.814336 Si / 1000 Ang^3
#
#
#
# Elastic Constant Matrix: (Units=GPa)
#
#
# Indices 1 2 3 4 5 6 
#
# 1 72.5773 44.6487 4.4682 0.0000 0.0000 0.0000
# 2 44.6487 166.5817 18.4925 0.0000 0.0000 0.0000
# 3 4.4682 18.4925 37.5760 0.0000 0.0000 0.0000
# 4 0.0000 0.0000 0.0000 29.2805 0.0000 0.0000
# 5 0.0000 0.0000 0.0000 0.0000 14.1363 0.0000
# 6 0.0000 0.0000 0.0000 0.0000 0.0000 8.0278
#
#
#
# Elastic Compliance Matrix: (Units=1/GPa)
#
#
# Indices 1 2 3 4 5 6 
#
# 1 0.016501 -0.004448 0.000227 0.000000 0.000000 0.000000
# 2 -0.004448 0.007549 -0.003186 0.000000 0.000000 0.000000
# 3 0.000227 -0.003186 0.028154 0.000000 0.000000 0.000000
# 4 0.000000 0.000000 0.000000 0.034152 0.000000 0.000000
# 5 0.000000 0.000000 0.000000 0.000000 0.070740 0.000000
# 6 0.000000 0.000000 0.000000 0.000000 0.000000 0.124568
#
#
# Mechanical properties :
#
#
# Convention : Reuss Voigt Hill
#
# Bulk Modulus (GPa) = 26.74579 45.77264 36.25921
# Shear Modulus (GPa) = 16.18434 24.23062 20.20748
#
# Velocity S-wave (km/s) = 2.93612 3.59260 3.28082
# Velocity P-wave (km/s) = 5.07355 6.44906 5.80221
#
# Compressibility (1/GPa) = 0.03738906
#
# Stress axis : x y z
#
# Youngs Moduli (GPa) = 60.60342 132.46921 35.51913
#
# Poissons Ratio (x) = 0.58920 -0.00806
# Poissons Ratio (y) = 0.26956 0.11317
# Poissons Ratio (z) = -0.01375 0.42208
#
# Static dielectric constant tensor:
#      x y z
#    x 1.642170 0.000000 0.000000 
#    y 0.000000 1.756390 0.000000 
#    z 0.000000 0.000000 1.767850 
# 
# From -- ./inp_files/11189.got.cif
#   From: 2010.05.17/outbox.cif.g08.bks.cpg/sg20_6_cif.got.tgz:11189.got - 2010.06.03 22:52:26.
