data_PCOD9317873
_publ_section_title
;
Structure prediction by ZEFSAII (Michael W. Deem and Ramdas Pophale) SiO2 
 PCOD9317873
Probable space group: C 2 2 21
;
_chemical_formula_sum "Si O2"
_cell_formula_units_Z 40
_cell_length_a 5.239664
_cell_length_b 18.798599
_cell_length_c 19.190416
_cell_angle_alpha 90.000000
_cell_angle_beta 90.000000
_cell_angle_gamma 90.000000
_cell_volume 1890.224167
_symmetry_space_group_name_H-M "C 2 2 21"
_symmetry_group_IT_number 20
_symmetry_cell_setting 'orthorhombic'
loop_
_space_group_symop_operation_xyz
x,y,z
-x,-y,1/2+z
x,-y,-z
-x,y,1/2-z
1/2+x,1/2+y,z
1/2-x,1/2-y,1/2+z
1/2+x,1/2-y,-z
1/2-x,1/2+y,1/2-z
loop_
_atom_site_type_symbol
_atom_site_label
_atom_site_fract_x
_atom_site_fract_y
_atom_site_fract_z
Si Si1 0.088269 0.694443 0.898054
Si Si2 0.055279 0.897567 0.552065
Si Si3 0.437001 0.807724 0.947644
Si Si4 0.000000 0.697102 0.750000
Si Si5 0.500000 0.601764 0.750000
Si Si6 0.871698 0.945617 0.102334
O O1 0.984579 0.729746 0.827263
O O2 0.359842 0.733789 0.911352
O O3 0.130307 0.608947 0.891077
O O4 0.931061 0.705328 0.968750
O O5 0.290748 0.844055 0.563257
O O6 0.012769 0.915959 0.470054
O O7 0.789296 0.862024 0.574221
O O8 0.147211 0.970778 0.587530
O O9 0.746629 0.650662 0.746159
O O10 0.488410 0.561109 0.676474
#
# Coordination Sequence:
#
# PCOD9317873 Si02
#       6
#     8   8   8   4   4   8
#     4  10  21  40  63  89 117 157 201 248 293 354
#     4  10  22  37  57  87 117 149 188 243 293 344
#     4  11  22  37  60  87 118 151 193 240 296 347
#     4  10  22  36  59  90 119 148 198 250 296 342
#     4  10  20  36  59  88 115 152 196 246 292 350
#     4   9  20  37  60  84 114 150 195 237 288 346
#
# _framework density 21.161511999999998
#
# number of rings (size 3 to 8) (size 9 to 14) (size 15 to 20)
#    0.000    2.000    0.000    3.600    0.000   14.400 
#    0.000    1.000    0.000    4.800    0.000    0.000 
#    0.000    0.000    0.000    0.000    0.000    0.000 
#
# Total GULP energy -111374.289335 kJ/mol
# GULP energy per Si atom -5568.714467 kJ/mol
# Density = 2.111335 g / cm^3
# Si number density = 21.161512 Si / 1000 Ang^3
#
#
#
# Elastic Constant Matrix: (Units=GPa)
#
#
# Indices 1 2 3 4 5 6 
#
# 1 99.9443 42.5246 8.5622 0.0000 0.0000 0.0000
# 2 42.5246 117.4402 13.3299 0.0000 0.0000 0.0000
# 3 8.5622 13.3299 118.5903 0.0000 0.0000 0.0000
# 4 0.0000 0.0000 0.0000 24.9571 0.0000 0.0000
# 5 0.0000 0.0000 0.0000 0.0000 33.9274 0.0000
# 6 0.0000 0.0000 0.0000 0.0000 0.0000 20.9940
#
#
#
# Elastic Compliance Matrix: (Units=1/GPa)
#
#
# Indices 1 2 3 4 5 6 
#
# 1 0.011845 -0.004246 -0.000378 0.000000 0.000000 0.000000
# 2 -0.004246 0.010147 -0.000834 0.000000 0.000000 0.000000
# 3 -0.000378 -0.000834 0.008553 0.000000 0.000000 0.000000
# 4 0.000000 0.000000 0.000000 0.040069 0.000000 0.000000
# 5 0.000000 0.000000 0.000000 0.000000 0.029475 0.000000
# 6 0.000000 0.000000 0.000000 0.000000 0.000000 0.047633
#
#
# Mechanical properties :
#
#
# Convention : Reuss Voigt Hill
#
# Bulk Modulus (GPa) = 50.94431 51.64535 51.29483
# Shear Modulus (GPa) = 30.27002 34.07957 32.17479
#
# Velocity S-wave (km/s) = 3.78620 4.01740 3.90351
# Velocity P-wave (km/s) = 6.57572 6.78068 6.67898
#
# Compressibility (1/GPa) = 0.01962928
#
# Stress axis : x y z
#
# Youngs Moduli (GPa) = 84.42713 98.55055 116.91225
#
# Poissons Ratio (x) = 0.41844 0.04418
# Poissons Ratio (y) = 0.35847 0.09751
# Poissons Ratio (z) = 0.03191 0.08219
#
# Static dielectric constant tensor:
#      x y z
#    x 1.786460 0.000000 0.000000 
#    y 0.000000 1.781710 0.000000 
#    z 0.000000 0.000000 1.868500 
# 
# From -- ./inp_files/22644.got.cif
#   From: 2010.05.17/outbox.cif.g08.bks.cpg/sg20_12_cif.got.tgz:22644.got - 2010.06.03 22:52:26.
