data_PCOD9317761
_publ_section_title
;
Structure prediction by ZEFSAII (Michael W. Deem and Ramdas Pophale) SiO2 
 PCOD9317761
Probable space group: C 2 2 21
;
_chemical_formula_sum "Si O2"
_cell_formula_units_Z 48
_cell_length_a 13.423539
_cell_length_b 28.678302
_cell_length_c 6.531451
_cell_angle_alpha 90.000000
_cell_angle_beta 90.000000
_cell_angle_gamma 90.000000
_cell_volume 2514.375497
_symmetry_space_group_name_H-M "C 2 2 21"
_symmetry_group_IT_number 20
_symmetry_cell_setting 'orthorhombic'
loop_
_space_group_symop_operation_xyz
x,y,z
-x,-y,1/2+z
x,-y,-z
-x,y,1/2-z
1/2+x,1/2+y,z
1/2-x,1/2-y,1/2+z
1/2+x,1/2-y,-z
1/2-x,1/2+y,1/2-z
loop_
_atom_site_type_symbol
_atom_site_label
_atom_site_fract_x
_atom_site_fract_y
_atom_site_fract_z
Si Si1 0.399398 0.602633 0.368806
Si Si2 0.500000 0.567540 0.750000
Si Si3 0.692186 0.550738 0.481883
Si Si4 0.190845 0.200147 0.235733
Si Si5 0.323046 0.859145 0.464040
Si Si6 0.500000 0.837818 0.750000
Si Si7 0.365369 0.205593 0.911668
O O1 0.500000 0.593188 0.250000
O O2 0.426734 0.595473 0.601791
O O3 0.325037 0.567098 0.254536
O O4 0.371286 0.655465 0.329662
O O5 0.585367 0.545034 0.603112
O O6 0.740621 0.500000 0.500000
O O7 0.758998 0.593694 0.565629
O O8 0.253704 0.180314 0.428843
O O9 0.128395 0.245478 0.294419
O O10 0.265703 0.209641 0.048783
O O11 0.413438 0.865674 0.627771
O O12 0.358398 0.836540 0.251050
O O13 0.549513 0.805991 0.574780
#
# Coordination Sequence:
#
# PCOD9317761 Si02
#       7
#     8   4   8   8   8   4   8
#     4   9  20  36  51  84 120 155 195 237 289 365
#     4  10  20  36  59  90 124 164 188 245 306 380
#     4  10  22  37  63  89 122 156 202 253 314 373
#     4  10  20  35  57  84 121 157 199 247 300 366
#     4  10  21  41  59  86 121 162 208 258 307 369
#     4  10  24  38  63  84 120 166 212 261 306 374
#     4  11  20  38  60  88 117 160 204 253 307 364
#
# _framework density 19.090226999999999
#
# number of rings (size 3 to 8) (size 9 to 14) (size 15 to 20)
#    0.000    2.000    1.667    1.500    3.500    1.333 
#    0.000    4.167    3.667    0.000    0.000    0.000 
#    0.000    0.000    0.000    0.000    0.000    0.000 
#
# Total GULP energy -133645.537420 kJ/mol
# GULP energy per Si atom -5568.564059 kJ/mol
# Density = 1.904678 g / cm^3
# Si number density = 19.090227 Si / 1000 Ang^3
#
#
#
# Elastic Constant Matrix: (Units=GPa)
#
#
# Indices 1 2 3 4 5 6 
#
# 1 60.7359 36.1018 37.0550 0.0000 0.0000 0.0000
# 2 36.1018 134.1558 57.1153 0.0000 0.0000 0.0000
# 3 37.0550 57.1153 113.2232 0.0000 0.0000 0.0000
# 4 0.0000 0.0000 0.0000 7.8856 0.0000 0.0000
# 5 0.0000 0.0000 0.0000 0.0000 27.5947 0.0000
# 6 0.0000 0.0000 0.0000 0.0000 0.0000 -1.8485
#
#
#
# Elastic Compliance Matrix: (Units=1/GPa)
#
#
# Indices 1 2 3 4 5 6 
#
# 1 0.021867 -0.003614 -0.005333 0.000000 0.000000 0.000000
# 2 -0.003614 0.010090 -0.003907 0.000000 0.000000 0.000000
# 3 -0.005333 -0.003907 0.012549 0.000000 0.000000 0.000000
# 4 0.000000 0.000000 0.000000 0.126813 0.000000 0.000000
# 5 0.000000 0.000000 0.000000 0.000000 0.036239 0.000000
# 6 0.000000 0.000000 0.000000 0.000000 0.000000 -0.540966
#
#
# Mechanical properties :
#
#
# Convention : Reuss Voigt Hill
#
# Bulk Modulus (GPa) = 53.20145 63.18434 58.19290
# Shear Modulus (GPa) = -16.58731 18.58255 0.99762
#
# Velocity S-wave (km/s) = -2.95089 3.12333 0.72368
# Velocity P-wave (km/s) = 4.03962 6.79533 5.58995
#
# Compressibility (1/GPa) = 0.01879648
#
# Stress axis : x y z
#
# Youngs Moduli (GPa) = 45.73158 99.10874 79.69038
#
# Poissons Ratio (x) = 0.35816 0.42502
# Poissons Ratio (y) = 0.16526 0.31136
# Poissons Ratio (z) = 0.24391 0.38723
#
# Static dielectric constant tensor:
#      x y z
#    x 1.711290 0.000000 0.000000 
#    y 0.000000 1.652150 0.000000 
#    z 0.000000 0.000000 1.755890 
# 
# From -- ./inp_files/2076.got.cif
#   From: 2010.05.17/outbox.cif.g08.bks.cpg/sg20_2_cif.got.tgz:2076.got - 2010.06.03 22:52:26.
