data_PCOD9317861
_publ_section_title
;
Structure prediction by ZEFSAII (Michael W. Deem and Ramdas Pophale) SiO2 
 PCOD9317861
Probable space group: C 2 2 21
;
_chemical_formula_sum "Si O2"
_cell_formula_units_Z 48
_cell_length_a 24.051818
_cell_length_b 8.922559
_cell_length_c 10.792955
_cell_angle_alpha 90.000000
_cell_angle_beta 90.000000
_cell_angle_gamma 90.000000
_cell_volume 2316.208780
_symmetry_space_group_name_H-M "C 2 2 21"
_symmetry_group_IT_number 20
_symmetry_cell_setting 'orthorhombic'
loop_
_space_group_symop_operation_xyz
x,y,z
-x,-y,1/2+z
x,-y,-z
-x,y,1/2-z
1/2+x,1/2+y,z
1/2-x,1/2-y,1/2+z
1/2+x,1/2-y,-z
1/2-x,1/2+y,1/2-z
loop_
_atom_site_type_symbol
_atom_site_label
_atom_site_fract_x
_atom_site_fract_y
_atom_site_fract_z
Si Si1 0.227874 0.103036 0.874808
Si Si2 0.500000 0.555728 0.750000
Si Si3 0.000000 0.568998 0.750000
Si Si4 0.817803 0.157433 0.213396
Si Si5 0.021924 0.298089 0.922847
Si Si6 0.874079 0.824274 0.521654
Si Si7 0.566327 0.692674 0.393939
O O1 0.275829 0.217324 0.836665
O O2 0.213068 0.995530 0.757780
O O3 0.173307 0.196664 0.917593
O O4 0.239876 0.000000 0.000000
O O5 0.538726 0.671761 0.822124
O O6 0.467857 0.449503 0.843939
O O7 0.982639 0.456888 0.640758
O O8 0.950863 0.672892 0.801193
O O9 0.846258 0.197609 0.344995
O O10 0.869219 0.151100 0.116745
O O11 0.071784 0.277415 0.017361
O O12 0.962820 0.247704 0.979779
O O13 0.889960 0.000000 0.500000
#
# Coordination Sequence:
#
# PCOD9317861 Si02
#       7
#     8   4   4   8   8   8   8
#     4   9  21  41  60  83 112 152 196 241 288 338
#     4  10  20  36  58  86 118 154 196 234 284 352
#     4  10  24  36  52  86 124 154 188 226 294 362
#     4  10  21  39  62  84 114 152 197 246 291 336
#     4  11  21  37  60  88 117 154 194 232 289 356
#     4   9  18  37  62  83 112 154 197 241 286 344
#     4  11  21  37  58  85 120 152 186 242 294 340
#
# _framework density 20.723520000000001
#
# number of rings (size 3 to 8) (size 9 to 14) (size 15 to 20)
#    0.000    2.333    0.000    6.000    0.000    2.667 
#    0.000   18.333    0.000    0.000    0.000    0.000 
#    0.000    0.000    0.000    0.000    0.000    0.000 
#
# Total GULP energy -133806.195434 kJ/mol
# GULP energy per Si atom -5575.258143 kJ/mol
# Density = 2.067635 g / cm^3
# Si number density = 20.723520 Si / 1000 Ang^3
#
#
#
# Elastic Constant Matrix: (Units=GPa)
#
#
# Indices 1 2 3 4 5 6 
#
# 1 84.7813 38.5176 14.8959 0.0000 0.0000 0.0000
# 2 38.5176 99.6543 31.5406 0.0000 0.0000 0.0000
# 3 14.8959 31.5406 66.4218 0.0000 0.0000 0.0000
# 4 0.0000 0.0000 0.0000 32.0735 0.0000 0.0000
# 5 0.0000 0.0000 0.0000 0.0000 15.5942 0.0000
# 6 0.0000 0.0000 0.0000 0.0000 0.0000 14.2446
#
#
#
# Elastic Compliance Matrix: (Units=1/GPa)
#
#
# Indices 1 2 3 4 5 6 
#
# 1 0.014334 -0.005323 -0.000687 0.000000 0.000000 0.000000
# 2 -0.005323 0.013786 -0.005353 0.000000 0.000000 0.000000
# 3 -0.000687 -0.005353 0.017751 0.000000 0.000000 0.000000
# 4 0.000000 0.000000 0.000000 0.031178 0.000000 0.000000
# 5 0.000000 0.000000 0.000000 0.000000 0.064126 0.000000
# 6 0.000000 0.000000 0.000000 0.000000 0.000000 0.070202
#
#
# Mechanical properties :
#
#
# Convention : Reuss Voigt Hill
#
# Bulk Modulus (GPa) = 43.20361 46.75173 44.97767
# Shear Modulus (GPa) = 20.67666 23.44268 22.05967
#
# Velocity S-wave (km/s) = 3.16213 3.36700 3.26617
# Velocity P-wave (km/s) = 5.85021 6.14201 5.99788
#
# Compressibility (1/GPa) = 0.02314621
#
# Stress axis : x y z
#
# Youngs Moduli (GPa) = 69.76410 72.53652 56.33454
#
# Poissons Ratio (x) = 0.38610 0.03870
# Poissons Ratio (y) = 0.37134 0.30154
# Poissons Ratio (z) = 0.04793 0.38827
#
# Static dielectric constant tensor:
#      x y z
#    x 1.781820 0.000000 0.000000 
#    y 0.000000 1.730910 0.000000 
#    z 0.000000 0.000000 1.879560 
# 
# From -- ./inp_files/16698.got.cif
#   From: 2010.05.17/outbox.cif.g08.bks.cpg/sg20_9_cif.got.tgz:16698.got - 2010.06.03 22:52:26.
