data_PCOD9317476
_publ_section_title
;
Structure prediction by ZEFSAII (Michael W. Deem and Ramdas Pophale) SiO2 
 PCOD9317476
Probable space group: C 2 2 21
;
_chemical_formula_sum "Si O2"
_cell_formula_units_Z 60
_cell_length_a 8.278830
_cell_length_b 15.751395
_cell_length_c 25.916323
_cell_angle_alpha 90.000000
_cell_angle_beta 90.000000
_cell_angle_gamma 90.000000
_cell_volume 3379.569416
_symmetry_space_group_name_H-M "C 2 2 21"
_symmetry_group_IT_number 20
_symmetry_cell_setting 'orthorhombic'
loop_
_space_group_symop_operation_xyz
x,y,z
-x,-y,1/2+z
x,-y,-z
-x,y,1/2-z
1/2+x,1/2+y,z
1/2-x,1/2-y,1/2+z
1/2+x,1/2-y,-z
1/2-x,1/2+y,1/2-z
loop_
_atom_site_type_symbol
_atom_site_label
_atom_site_fract_x
_atom_site_fract_y
_atom_site_fract_z
Si Si1 0.036077 0.840435 0.954836
Si Si2 0.698182 0.791927 0.801524
Si Si3 0.155720 0.720226 0.316260
Si Si4 0.328113 0.178680 0.489334
Si Si5 0.979562 0.572591 0.929829
Si Si6 0.510588 0.230282 0.855744
Si Si7 0.203579 0.000000 0.000000
Si Si8 0.038249 0.388990 0.884968
O O1 0.858233 0.834107 0.978326
O O2 0.021037 0.808310 0.896240
O O3 0.141693 0.769506 0.984564
O O4 0.103979 0.933223 0.966072
O O5 0.527893 0.741319 0.813157
O O6 0.691498 0.813557 0.741233
O O7 0.865489 0.747815 0.816049
O O8 0.670713 0.870653 0.840535
O O9 0.309156 0.775964 0.332198
O O10 0.125061 0.645619 0.358028
O O11 0.393627 0.107376 0.528266
O O12 0.421423 0.167511 0.435119
O O13 0.964923 0.647312 0.888401
O O14 0.030460 0.485032 0.903232
O O15 0.817698 0.553483 0.961692
#
# Coordination Sequence:
#
# PCOD9317476 Si02
#       8
#     8   8   8   8   8   8   4   8
#     4  11  24  36  56  89 117 167 200 243 303 364
#     4   9  20  38  62  86 112 148 207 257 297 362
#     4   9  20  37  64  86 108 156 202 251 313 351
#     4  11  22  37  58  84 127 161 203 241 301 370
#     4  11  24  37  57  92 124 164 194 247 302 372
#     4  11  21  38  62  87 118 159 204 246 310 364
#     4  12  24  36  54  84 136 154 204 250 286 360
#     4  10  19  39  60  81 123 156 195 252 299 361
#
# _framework density 17.753741000000002
#
# number of rings (size 3 to 8) (size 9 to 14) (size 15 to 20)
#    0.800    0.800    2.667    2.800    5.600    0.000 
#    0.000    2.667    0.000    0.000    0.000    0.000 
#    0.000    0.000    0.000    0.000    0.000    0.000 
#
# Total GULP energy -167087.622309 kJ/mol
# GULP energy per Si atom -5569.587410 kJ/mol
# Density = 1.771333 g / cm^3
# Si number density = 17.753741 Si / 1000 Ang^3
#
#
#
# Elastic Constant Matrix: (Units=GPa)
#
#
# Indices 1 2 3 4 5 6 
#
# 1 105.3222 16.2145 16.3390 0.0000 0.0000 0.0000
# 2 16.2145 33.1158 0.1556 0.0000 0.0000 0.0000
# 3 16.3390 0.1556 38.6313 0.0000 0.0000 0.0000
# 4 0.0000 0.0000 0.0000 11.8074 0.0000 0.0000
# 5 0.0000 0.0000 0.0000 0.0000 23.5317 0.0000
# 6 0.0000 0.0000 0.0000 0.0000 0.0000 23.1670
#
#
#
# Elastic Compliance Matrix: (Units=1/GPa)
#
#
# Indices 1 2 3 4 5 6 
#
# 1 0.011045 -0.005386 -0.004650 0.000000 0.000000 0.000000
# 2 -0.005386 0.032824 0.002146 0.000000 0.000000 0.000000
# 3 -0.004650 0.002146 0.027844 0.000000 0.000000 0.000000
# 4 0.000000 0.000000 0.000000 0.084693 0.000000 0.000000
# 5 0.000000 0.000000 0.000000 0.000000 0.042496 0.000000
# 6 0.000000 0.000000 0.000000 0.000000 0.000000 0.043165
#
#
# Mechanical properties :
#
#
# Convention : Reuss Voigt Hill
#
# Bulk Modulus (GPa) = 17.87858 26.94304 22.41081
# Shear Modulus (GPa) = 18.08377 21.32525 19.70451
#
# Velocity S-wave (km/s) = 3.19500 3.46955 3.33510
# Velocity P-wave (km/s) = 4.86856 5.59100 5.24224
#
# Compressibility (1/GPa) = 0.05593285
#
# Stress axis : x y z
#
# Youngs Moduli (GPa) = 90.53676 30.46525 35.91473
#
# Poissons Ratio (x) = 0.16409 0.16700
# Poissons Ratio (y) = 0.48765 -0.07707
# Poissons Ratio (z) = 0.42098 -0.06538
#
# Static dielectric constant tensor:
#      x y z
#    x 1.641820 0.000000 0.000000 
#    y 0.000000 1.566850 0.000000 
#    z 0.000000 0.000000 1.621630 
# 
# From -- ./inp_files/30182.got.cif
#   From: 2010.05.17/outbox.cif.g08.bks.cpg/sg20_16_cif.got.tgz:30182.got - 2010.06.03 22:52:26.
