data_PCOD9317583
_publ_section_title
;
Structure prediction by ZEFSAII (Michael W. Deem and Ramdas Pophale) SiO2 
 PCOD9317583
Probable space group: C 2 2 21
;
_chemical_formula_sum "Si O2"
_cell_formula_units_Z 56
_cell_length_a 22.513804
_cell_length_b 5.040180
_cell_length_c 25.097895
_cell_angle_alpha 90.000000
_cell_angle_beta 90.000000
_cell_angle_gamma 90.000000
_cell_volume 2847.949117
_symmetry_space_group_name_H-M "C 2 2 21"
_symmetry_group_IT_number 20
_symmetry_cell_setting 'orthorhombic'
loop_
_space_group_symop_operation_xyz
x,y,z
-x,-y,1/2+z
x,-y,-z
-x,y,1/2-z
1/2+x,1/2+y,z
1/2-x,1/2-y,1/2+z
1/2+x,1/2-y,-z
1/2-x,1/2+y,1/2-z
loop_
_atom_site_type_symbol
_atom_site_label
_atom_site_fract_x
_atom_site_fract_y
_atom_site_fract_z
Si Si1 0.476121 0.820393 0.913938
Si Si2 0.907522 0.835934 0.890992
Si Si3 0.413559 0.500000 0.000000
Si Si4 0.849219 0.387481 0.327685
Si Si5 0.000000 0.250483 0.750000
Si Si6 0.234129 0.765203 0.284683
Si Si7 0.617487 0.979348 0.290103
Si Si8 0.920962 0.099836 0.651529
O O1 0.455621 0.719707 0.972031
O O2 0.540280 0.723424 0.896061
O O3 0.460953 0.124637 0.902558
O O4 0.630599 0.812941 0.837063
O O5 0.878744 0.874115 0.949801
O O6 0.875719 0.709419 0.840977
O O7 0.932653 0.127360 0.879192
O O8 0.778953 0.341528 0.332213
O O9 0.864198 0.338917 0.265169
O O10 0.890886 0.182008 0.358530
O O11 0.949979 0.428212 0.779257
O O12 0.963781 0.094111 0.704098
O O13 0.257680 0.490777 0.259546
O O14 0.165561 0.713385 0.297009
#
# Coordination Sequence:
#
# PCOD9317583 Si02
#       8
#     8   8   4   8   4   8   8   8
#     4  10  20  34  50  75 109 141 170 216 270 341
#     4  10  20  34  49  79 107 143 176 216 275 336
#     4   8  22  32  56  68 120 136 172 222 270 344
#     4  10  22  34  50  75 108 151 187 222 253 313
#     4  10  20  30  48  78 112 142 168 208 274 312
#     4  10  20  37  52  72 107 153 196 221 254 309
#     4  10  21  33  54  77 113 151 181 225 267 331
#     4  11  21  32  52  75 110 141 174 218 266 319
#
# _framework density 19.663273
#
# number of rings (size 3 to 8) (size 9 to 14) (size 15 to 20)
#    0.857    1.143    1.429    3.857    4.000    2.857 
#    0.000    0.000    0.000    0.000    0.000    0.000 
#    8.571    0.000    0.000    0.000    0.000    0.000 
#
# Total GULP energy -155942.809927 kJ/mol
# GULP energy per Si atom -5569.386069 kJ/mol
# Density = 1.961852 g / cm^3
# Si number density = 19.663273 Si / 1000 Ang^3
#
#
#
# Elastic Constant Matrix: (Units=GPa)
#
#
# Indices 1 2 3 4 5 6 
#
# 1 81.1038 26.2868 -5.3725 0.0000 0.0000 0.0000
# 2 26.2868 50.4107 4.7310 0.0000 0.0000 0.0000
# 3 -5.3725 4.7310 60.4252 0.0000 0.0000 0.0000
# 4 0.0000 0.0000 0.0000 25.4113 0.0000 0.0000
# 5 0.0000 0.0000 0.0000 0.0000 13.8822 0.0000
# 6 0.0000 0.0000 0.0000 0.0000 0.0000 28.2154
#
#
#
# Elastic Compliance Matrix: (Units=1/GPa)
#
#
# Indices 1 2 3 4 5 6 
#
# 1 0.015067 -0.008041 0.001969 0.000000 0.000000 0.000000
# 2 -0.008041 0.024276 -0.002616 0.000000 0.000000 0.000000
# 3 0.001969 -0.002616 0.016929 0.000000 0.000000 0.000000
# 4 0.000000 0.000000 0.000000 0.039353 0.000000 0.000000
# 5 0.000000 0.000000 0.000000 0.000000 0.072035 0.000000
# 6 0.000000 0.000000 0.000000 0.000000 0.000000 0.035442
#
#
# Mechanical properties :
#
#
# Convention : Reuss Voigt Hill
#
# Bulk Modulus (GPa) = 25.70957 27.02560 26.36758
# Shear Modulus (GPa) = 21.41862 24.58805 23.00334
#
# Velocity S-wave (km/s) = 3.30399 3.54001 3.42404
# Velocity P-wave (km/s) = 5.25913 5.52114 5.39173
#
# Compressibility (1/GPa) = 0.03889603
#
# Stress axis : x y z
#
# Youngs Moduli (GPa) = 66.37182 41.19341 59.06931
#
# Poissons Ratio (x) = 0.33125 -0.11632
# Poissons Ratio (y) = 0.53372 0.15450
# Poissons Ratio (z) = -0.13070 0.10775
#
# Static dielectric constant tensor:
#      x y z
#    x 1.743180 0.000000 0.000000 
#    y 0.000000 1.719590 0.000000 
#    z 0.000000 0.000000 1.739470 
# 
# From -- ./inp_files/29592.got.cif
#   From: 2010.05.17/outbox.cif.g08.bks.cpg/sg20_15_cif.got.tgz:29592.got - 2010.06.03 22:52:26.
