data_PCOD9317395
_publ_section_title
;
Structure prediction by ZEFSAII (Michael W. Deem and Ramdas Pophale) SiO2 
 PCOD9317395
Probable space group: C 2 2 21
;
_chemical_formula_sum "Si O2"
_cell_formula_units_Z 28
_cell_length_a 28.986621
_cell_length_b 5.579461
_cell_length_c 7.414790
_cell_angle_alpha 90.000000
_cell_angle_beta 90.000000
_cell_angle_gamma 90.000000
_cell_volume 1199.191921
_symmetry_space_group_name_H-M "C 2 2 21"
_symmetry_group_IT_number 20
_symmetry_cell_setting 'orthorhombic'
loop_
_space_group_symop_operation_xyz
x,y,z
-x,-y,1/2+z
x,-y,-z
-x,y,1/2-z
1/2+x,1/2+y,z
1/2-x,1/2-y,1/2+z
1/2+x,1/2-y,-z
1/2-x,1/2+y,1/2-z
loop_
_atom_site_type_symbol
_atom_site_label
_atom_site_fract_x
_atom_site_fract_y
_atom_site_fract_z
Si Si1 0.053355 0.788722 0.714041
Si Si2 0.587464 0.208067 0.301901
Si Si3 0.185451 0.185101 0.647666
Si Si4 0.732921 0.500000 0.000000
O O1 0.065565 0.748324 0.501674
O O2 0.064646 0.523393 0.789260
O O3 0.000000 0.840513 0.750000
O O4 0.080662 0.025729 0.780590
O O5 0.641858 0.146965 0.315425
O O6 0.231517 0.296007 0.562770
O O7 0.201610 0.069899 0.832921
O O8 0.167241 0.000000 0.500000
#
# Coordination Sequence:
#
# PCOD9317395 Si02
#       4
#     8   8   8   4
#     4  10  19  37  64  91 124 175 231 278 361 417
#     4  10  22  39  64  93 134 183 218 298 356 418
#     4  12  24  45  70 103 148 184 242 298 369 428
#     4  12  26  42  74 108 140 196 242 300 362 446
#
# _framework density 23.349056999999998
#
# number of rings (size 3 to 8) (size 9 to 14) (size 15 to 20)
#    0.000    1.143    5.714    2.571    0.000    0.000 
#    0.000    8.571    0.000    0.000    0.000    0.000 
#    0.000    0.000    0.000    0.000    0.000    0.000 
#
# Total GULP energy -78194.793564 kJ/mol
# GULP energy per Si atom -5585.342397 kJ/mol
# Density = 2.329591 g / cm^3
# Si number density = 23.349057 Si / 1000 Ang^3
#
#
#
# Elastic Constant Matrix: (Units=GPa)
#
#
# Indices 1 2 3 4 5 6 
#
# 1 125.3507 0.5433 19.6686 0.0000 0.0000 0.0000
# 2 0.5433 145.6659 11.5933 0.0000 0.0000 0.0000
# 3 19.6686 11.5933 95.8024 0.0000 0.0000 0.0000
# 4 0.0000 0.0000 0.0000 10.7059 0.0000 0.0000
# 5 0.0000 0.0000 0.0000 0.0000 34.5424 0.0000
# 6 0.0000 0.0000 0.0000 0.0000 0.0000 52.9259
#
#
#
# Elastic Compliance Matrix: (Units=1/GPa)
#
#
# Indices 1 2 3 4 5 6 
#
# 1 0.008245 0.000105 -0.001705 0.000000 0.000000 0.000000
# 2 0.000105 0.006933 -0.000861 0.000000 0.000000 0.000000
# 3 -0.001705 -0.000861 0.010892 0.000000 0.000000 0.000000
# 4 0.000000 0.000000 0.000000 0.093406 0.000000 0.000000
# 5 0.000000 0.000000 0.000000 0.000000 0.028950 0.000000
# 6 0.000000 0.000000 0.000000 0.000000 0.000000 0.018894
#
#
# Mechanical properties :
#
#
# Convention : Reuss Voigt Hill
#
# Bulk Modulus (GPa) = 47.28495 47.82548 47.55521
# Shear Modulus (GPa) = 27.88746 41.96909 34.92828
#
# Velocity S-wave (km/s) = 3.45972 4.24425 3.87191
# Velocity P-wave (km/s) = 6.02120 6.67424 6.35611
#
# Compressibility (1/GPa) = 0.02114838
#
# Stress axis : x y z
#
# Youngs Moduli (GPa) = 121.28927 144.23513 91.80705
#
# Poissons Ratio (x) = -0.01514 0.15657
# Poissons Ratio (y) = -0.01273 0.07900
# Poissons Ratio (z) = 0.20684 0.12412
#
# Static dielectric constant tensor:
#      x y z
#    x 1.779260 0.000000 0.000000 
#    y 0.000000 1.972060 0.000000 
#    z 0.000000 0.000000 1.844290 
# 
# From -- ./inp_files/5047.got.cif
#   From: 2010.05.17/outbox.cif.g08.bks.cpg/sg20_3_cif.got.tgz:5047.got - 2010.06.03 22:52:26.
