data_PCOD9317710
_publ_section_title
;
Structure prediction by ZEFSAII (Michael W. Deem and Ramdas Pophale) SiO2 
 PCOD9317710
Probable space group: C 2 2 21
;
_chemical_formula_sum "Si O2"
_cell_formula_units_Z 64
_cell_length_a 17.961235
_cell_length_b 8.526396
_cell_length_c 18.201154
_cell_angle_alpha 90.000000
_cell_angle_beta 90.000000
_cell_angle_gamma 90.000000
_cell_volume 2787.408490
_symmetry_space_group_name_H-M "C 2 2 21"
_symmetry_group_IT_number 20
_symmetry_cell_setting 'orthorhombic'
loop_
_space_group_symop_operation_xyz
x,y,z
-x,-y,1/2+z
x,-y,-z
-x,y,1/2-z
1/2+x,1/2+y,z
1/2-x,1/2-y,1/2+z
1/2+x,1/2-y,-z
1/2-x,1/2+y,1/2-z
loop_
_atom_site_type_symbol
_atom_site_label
_atom_site_fract_x
_atom_site_fract_y
_atom_site_fract_z
Si Si1 0.998243 0.057042 0.159090
Si Si2 0.103213 0.343815 0.209563
Si Si3 0.254696 0.144493 0.865747
Si Si4 0.256477 0.177683 0.225770
Si Si5 0.399039 0.364056 0.441432
Si Si6 0.929327 0.236881 0.799041
Si Si7 0.914274 0.675709 0.887937
Si Si8 0.476338 0.927272 0.596549
O O1 0.049644 0.198655 0.188061
O O2 0.942515 0.147432 0.104647
O O3 0.054923 0.930183 0.127625
O O4 0.939910 0.950944 0.204323
O O5 0.188328 0.287296 0.195904
O O6 0.089914 0.365542 0.298127
O O7 0.077830 0.491372 0.159439
O O8 0.248070 0.992719 0.811572
O O9 0.254908 0.298094 0.813190
O O10 0.185991 0.143501 0.919432
O O11 0.330969 0.142330 0.910412
O O12 0.343352 0.224782 0.215203
O O13 0.411674 0.500000 0.500000
O O14 0.427277 0.187494 0.453005
O O15 0.000000 0.293816 0.750000
O O16 0.955370 0.317634 0.874250
O O17 0.976112 0.575187 0.928069
#
# Coordination Sequence:
#
# PCOD9317710 Si02
#       8
#     8   8   8   8   8   8   8   8
#     4  10  20  36  58  84 116 156 199 245 297 353
#     4  10  20  34  58  92 132 152 183 238 313 378
#     4  11  24  38  59  91 129 163 195 247 315 367
#     4  11  23  35  57  93 132 158 193 245 315 386
#     4  11  25  44  62  81 117 165 219 255 294 360
#     4  11  20  30  52  83 120 156 193 227 296 363
#     4  10  20  35  60  94 129 149 190 246 311 379
#     4  10  20  36  58  84 116 158 200 246 296 357
#
# _framework density 22.960395999999999
#
# number of rings (size 3 to 8) (size 9 to 14) (size 15 to 20)
#    0.000    1.500    2.500    4.500    8.750    0.000 
#    0.000    3.750    0.000    0.000    0.000    0.000 
#    0.000    0.000    0.000    0.000    0.000    0.000 
#
# Total GULP energy -178326.159633 kJ/mol
# GULP energy per Si atom -5572.692489 kJ/mol
# Density = 2.290814 g / cm^3
# Si number density = 22.960396 Si / 1000 Ang^3
#
#
#
# Elastic Constant Matrix: (Units=GPa)
#
#
# Indices 1 2 3 4 5 6 
#
# 1 194.8476 47.0788 21.7061 0.0000 0.0000 0.0000
# 2 47.0788 91.5511 2.6100 0.0000 0.0000 0.0000
# 3 21.7061 2.6100 18.6651 0.0000 0.0000 0.0000
# 4 0.0000 0.0000 0.0000 19.6606 0.0000 0.0000
# 5 0.0000 0.0000 0.0000 0.0000 21.1809 0.0000
# 6 0.0000 0.0000 0.0000 0.0000 0.0000 29.7808
#
#
#
# Elastic Compliance Matrix: (Units=1/GPa)
#
#
# Indices 1 2 3 4 5 6 
#
# 1 0.006742 -0.003256 -0.007385 0.000000 0.000000 0.000000
# 2 -0.003256 0.012539 0.002033 0.000000 0.000000 0.000000
# 3 -0.007385 0.002033 0.061880 0.000000 0.000000 0.000000
# 4 0.000000 0.000000 0.000000 0.050863 0.000000 0.000000
# 5 0.000000 0.000000 0.000000 0.000000 0.047212 0.000000
# 6 0.000000 0.000000 0.000000 0.000000 0.000000 0.033579
#
#
# Mechanical properties :
#
#
# Convention : Reuss Voigt Hill
#
# Bulk Modulus (GPa) = 15.63836 49.76153 32.69994
# Shear Modulus (GPa) = 19.89298 29.70239 24.79768
#
# Velocity S-wave (km/s) = 2.94667 3.60062 3.28993
# Velocity P-wave (km/s) = 4.28986 6.24546 5.35764
#
# Compressibility (1/GPa) = 0.06394532
#
# Stress axis : x y z
#
# Youngs Moduli (GPa) = 148.33155 79.74874 16.16043
#
# Poissons Ratio (x) = 0.25968 0.11934
# Poissons Ratio (y) = 0.48301 -0.03286
# Poissons Ratio (z) = 1.09539 -0.16216
#
# Static dielectric constant tensor:
#      x y z
#    x 1.849530 0.000000 0.000000 
#    y 0.000000 1.934180 0.000000 
#    z 0.000000 0.000000 2.040900 
# 
# From -- ./inp_files/27798.got.cif
#   From: 2010.05.17/outbox.cif.g08.bks.cpg/sg20_14_cif.got.tgz:27798.got - 2010.06.03 22:52:26.
