data_PCOD9317178
_publ_section_title
;
Structure prediction by ZEFSAII (Michael W. Deem and Ramdas Pophale) SiO2 
 PCOD9317178
Probable space group: C 2 2 21
;
_chemical_formula_sum "Si O2"
_cell_formula_units_Z 64
_cell_length_a 17.066406
_cell_length_b 9.282121
_cell_length_c 19.939278
_cell_angle_alpha 90.000000
_cell_angle_beta 90.000000
_cell_angle_gamma 90.000000
_cell_volume 3158.629790
_symmetry_space_group_name_H-M "C 2 2 21"
_symmetry_group_IT_number 20
_symmetry_cell_setting 'orthorhombic'
loop_
_space_group_symop_operation_xyz
x,y,z
-x,-y,1/2+z
x,-y,-z
-x,y,1/2-z
1/2+x,1/2+y,z
1/2-x,1/2-y,1/2+z
1/2+x,1/2-y,-z
1/2-x,1/2+y,1/2-z
loop_
_atom_site_type_symbol
_atom_site_label
_atom_site_fract_x
_atom_site_fract_y
_atom_site_fract_z
Si Si1 0.145870 0.543291 0.143969
Si Si2 0.894562 0.474544 0.921388
Si Si3 0.583382 0.729125 0.757884
Si Si4 0.478865 0.190116 0.610795
Si Si5 0.042483 0.718859 0.046722
Si Si6 0.761097 0.060867 0.335565
Si Si7 0.727370 0.373692 0.298150
Si Si8 0.929851 0.005131 0.624233
O O1 0.136913 0.652164 0.206149
O O2 0.084161 0.411228 0.147982
O O3 0.232448 0.477284 0.147319
O O4 0.115931 0.638509 0.081637
O O5 0.963777 0.354311 0.922985
O O6 0.817571 0.441292 0.879330
O O7 0.937071 0.613252 0.888538
O O8 0.875808 0.500000 0.000000
O O9 0.500000 0.804136 0.750000
O O10 0.634535 0.660705 0.698652
O O11 0.563196 0.601252 0.809123
O O12 0.455897 0.190015 0.531906
O O13 0.475376 0.355907 0.631351
O O14 0.044800 0.886517 0.065510
O O15 0.769283 0.220132 0.305007
O O16 0.837450 0.030231 0.380546
O O17 0.759767 0.946066 0.274757
#
# Coordination Sequence:
#
# PCOD9317178 Si02
#       8
#     8   8   8   8   8   8   8   8
#     4  10  19  35  58  84 113 157 202 229 298 362
#     4   9  21  41  65  87 116 159 208 245 298 362
#     4  10  23  40  59  84 115 160 200 240 302 362
#     4  10  19  37  59  93 119 152 200 259 295 358
#     4   9  20  37  63  87 121 157 198 249 304 363
#     4  11  23  41  60  85 124 163 201 248 304 360
#     4  11  22  38  61  84 121 157 199 252 298 358
#     4  10  21  37  59  89 118 152 197 240 304 358
#
# _framework density 20.261949999999999
#
# number of rings (size 3 to 8) (size 9 to 14) (size 15 to 20)
#    0.000    2.000    2.500    1.500    5.250    1.000 
#    4.500    0.625    0.000    0.000    0.000    0.000 
#    0.000    0.000    0.000    0.000    0.000    0.000 
#
# Total GULP energy -178484.488151 kJ/mol
# GULP energy per Si atom -5577.640255 kJ/mol
# Density = 2.021583 g / cm^3
# Si number density = 20.261950 Si / 1000 Ang^3
#
#
#
# Elastic Constant Matrix: (Units=GPa)
#
#
# Indices 1 2 3 4 5 6 
#
# 1 57.1883 14.4814 14.4487 0.0000 0.0000 0.0000
# 2 14.4814 131.1985 10.5418 0.0000 0.0000 0.0000
# 3 14.4487 10.5418 24.0910 0.0000 0.0000 0.0000
# 4 0.0000 0.0000 0.0000 23.4015 0.0000 0.0000
# 5 0.0000 0.0000 0.0000 0.0000 24.6181 0.0000
# 6 0.0000 0.0000 0.0000 0.0000 0.0000 17.4913
#
#
#
# Elastic Compliance Matrix: (Units=1/GPa)
#
#
# Indices 1 2 3 4 5 6 
#
# 1 0.020835 -0.001343 -0.011908 0.000000 0.000000 0.000000
# 2 -0.001343 0.007986 -0.002689 0.000000 0.000000 0.000000
# 3 -0.011908 -0.002689 0.049828 0.000000 0.000000 0.000000
# 4 0.000000 0.000000 0.000000 0.042732 0.000000 0.000000
# 5 0.000000 0.000000 0.000000 0.000000 0.040620 0.000000
# 6 0.000000 0.000000 0.000000 0.000000 0.000000 0.057171
#
#
# Mechanical properties :
#
#
# Convention : Reuss Voigt Hill
#
# Bulk Modulus (GPa) = 21.38191 32.38018 26.88104
# Shear Modulus (GPa) = 18.75166 24.63592 21.69379
#
# Velocity S-wave (km/s) = 3.04544 3.49072 3.27565
# Velocity P-wave (km/s) = 4.78977 5.67999 5.25377
#
# Compressibility (1/GPa) = 0.04676850
#
# Stress axis : x y z
#
# Youngs Moduli (GPa) = 47.99675 125.21370 20.06905
#
# Poissons Ratio (x) = 0.16815 0.23898
# Poissons Ratio (y) = 0.06445 0.05397
# Poissons Ratio (z) = 0.57155 0.33674
#
# Static dielectric constant tensor:
#      x y z
#    x 1.767960 0.000000 0.000000 
#    y 0.000000 1.727920 0.000000 
#    z 0.000000 0.000000 1.734760 
# 
# From -- ./inp_files/29347.got.cif
#   From: 2010.05.17/outbox.cif.g08.bks.cpg/sg20_15_cif.got.tgz:29347.got - 2010.06.03 22:52:26.
