data_PCOD9317057
_publ_section_title
;
Structure prediction by ZEFSAII (Michael W. Deem and Ramdas Pophale) SiO2 
 PCOD9317057
Probable space group: C 2 2 21
;
_chemical_formula_sum "Si O2"
_cell_formula_units_Z 52
_cell_length_a 8.910001
_cell_length_b 10.734166
_cell_length_c 30.579458
_cell_angle_alpha 90.000000
_cell_angle_beta 90.000000
_cell_angle_gamma 90.000000
_cell_volume 2924.663085
_symmetry_space_group_name_H-M "C 2 2 21"
_symmetry_group_IT_number 20
_symmetry_cell_setting 'orthorhombic'
loop_
_space_group_symop_operation_xyz
x,y,z
-x,-y,1/2+z
x,-y,-z
-x,y,1/2-z
1/2+x,1/2+y,z
1/2-x,1/2-y,1/2+z
1/2+x,1/2-y,-z
1/2-x,1/2+y,1/2-z
loop_
_atom_site_type_symbol
_atom_site_label
_atom_site_fract_x
_atom_site_fract_y
_atom_site_fract_z
Si Si1 0.499963 0.511291 0.895510
Si Si2 0.907303 0.854153 0.686758
Si Si3 0.293782 0.613576 0.826134
Si Si4 0.767851 0.878041 0.776778
Si Si5 0.500000 0.299619 0.250000
Si Si6 0.144030 0.876470 0.524269
Si Si7 0.668953 0.377431 0.025618
O O1 0.578881 0.437648 0.856181
O O2 0.376682 0.598614 0.872168
O O3 0.407914 0.419475 0.927588
O O4 0.621092 0.581133 0.925625
O O5 0.816879 0.728944 0.676363
O O6 0.818873 0.916770 0.727554
O O7 0.077552 0.825851 0.702486
O O8 0.216013 0.487664 0.809048
O O9 0.424237 0.627209 0.789613
O O10 0.633716 0.782411 0.770250
O O11 0.237368 0.749427 0.524303
O O12 0.989629 0.853024 0.498233
O O13 0.212739 0.000000 0.500000
O O14 0.733818 0.500000 0.000000
#
# Coordination Sequence:
#
# PCOD9317057 Si02
#       7
#     8   8   8   8   4   8   8
#     4   9  19  33  53  80 107 133 170 216 264 312
#     4   9  18  34  52  72 104 139 174 217 262 305
#     4  10  19  34  52  72 105 139 171 218 264 306
#     4   9  19  34  50  72  99 138 182 217 256 304
#     4  10  20  32  52  74  98 138 184 218 256 308
#     4   9  20  38  58  80 108 137 172 216 263 317
#     4   9  20  38  59  80 105 139 175 212 260 321
#
# _framework density 17.779827000000001
#
# number of rings (size 3 to 8) (size 9 to 14) (size 15 to 20)
#    0.000    3.077    0.000    1.846    0.000   10.462 
#    0.000    4.615    0.000    0.000    0.000    0.000 
#    0.000    0.000    0.000    0.000    0.000    0.000 
#
# Total GULP energy -144783.593075 kJ/mol
# GULP energy per Si atom -5568.599734 kJ/mol
# Density = 1.773936 g / cm^3
# Si number density = 17.779827 Si / 1000 Ang^3
#
#
#
# Elastic Constant Matrix: (Units=GPa)
#
#
# Indices 1 2 3 4 5 6 
#
# 1 43.1476 38.5746 20.8093 0.0000 0.0000 0.0000
# 2 38.5746 100.7216 31.2631 0.0000 0.0000 0.0000
# 3 20.8093 31.2631 89.0232 0.0000 0.0000 0.0000
# 4 0.0000 0.0000 0.0000 9.4206 0.0000 0.0000
# 5 0.0000 0.0000 0.0000 0.0000 10.2797 0.0000
# 6 0.0000 0.0000 0.0000 0.0000 0.0000 43.1469
#
#
#
# Elastic Compliance Matrix: (Units=1/GPa)
#
#
# Indices 1 2 3 4 5 6 
#
# 1 0.036510 -0.012720 -0.004067 0.000000 0.000000 0.000000
# 2 -0.012720 0.015575 -0.002496 0.000000 0.000000 0.000000
# 3 -0.004067 -0.002496 0.013060 0.000000 0.000000 0.000000
# 4 0.000000 0.000000 0.000000 0.106150 0.000000 0.000000
# 5 0.000000 0.000000 0.000000 0.000000 0.097279 0.000000
# 6 0.000000 0.000000 0.000000 0.000000 0.000000 0.023177
#
#
# Mechanical properties :
#
#
# Convention : Reuss Voigt Hill
#
# Bulk Modulus (GPa) = 37.62528 46.02072 41.82300
# Shear Modulus (GPa) = 14.74155 22.05247 18.39701
#
# Velocity S-wave (km/s) = 2.88256 3.52562 3.22018
# Velocity P-wave (km/s) = 5.68213 6.52022 6.11555
#
# Compressibility (1/GPa) = 0.02657787
#
# Stress axis : x y z
#
# Youngs Moduli (GPa) = 27.38982 64.20634 76.56773
#
# Poissons Ratio (x) = 0.81672 0.31141
# Poissons Ratio (y) = 0.34841 0.19113
# Poissons Ratio (z) = 0.11140 0.16027
#
# Static dielectric constant tensor:
#      x y z
#    x 1.589680 0.000000 0.000000 
#    y 0.000000 1.631480 0.000000 
#    z 0.000000 0.000000 1.630630 
# 
# From -- ./inp_files/30275.got.cif
#   From: 2010.05.17/outbox.cif.g08.bks.cpg/sg20_16_cif.got.tgz:30275.got - 2010.06.03 22:52:26.
