data_PCOD9317779
_publ_section_title
;
Structure prediction by ZEFSAII (Michael W. Deem and Ramdas Pophale) SiO2 
 PCOD9317779
Probable space group: C 2 2 21
;
_chemical_formula_sum "Si O2"
_cell_formula_units_Z 52
_cell_length_a 8.217174
_cell_length_b 16.681820
_cell_length_c 17.770129
_cell_angle_alpha 90.000000
_cell_angle_beta 90.000000
_cell_angle_gamma 90.000000
_cell_volume 2435.883393
_symmetry_space_group_name_H-M "C 2 2 21"
_symmetry_group_IT_number 20
_symmetry_cell_setting 'orthorhombic'
loop_
_space_group_symop_operation_xyz
x,y,z
-x,-y,1/2+z
x,-y,-z
-x,y,1/2-z
1/2+x,1/2+y,z
1/2-x,1/2-y,1/2+z
1/2+x,1/2-y,-z
1/2-x,1/2+y,1/2-z
loop_
_atom_site_type_symbol
_atom_site_label
_atom_site_fract_x
_atom_site_fract_y
_atom_site_fract_z
Si Si1 0.720683 0.614197 0.856610
Si Si2 0.500000 0.422687 0.750000
Si Si3 0.000000 0.648351 0.750000
Si Si4 0.500000 0.726305 0.750000
Si Si5 0.301238 0.712430 0.334243
Si Si6 0.831926 0.870342 0.003609
Si Si7 0.661871 0.278593 0.010741
Si Si8 0.579529 0.492146 0.386117
O O1 0.601238 0.669638 0.806179
O O2 0.606778 0.540865 0.884117
O O3 0.876268 0.600035 0.803726
O O4 0.762431 0.668151 0.929709
O O5 0.604648 0.364753 0.802705
O O6 0.388945 0.478648 0.802198
O O7 0.100177 0.709355 0.804420
O O8 0.374699 0.779052 0.797202
O O9 0.295201 0.708960 0.423678
O O10 0.978221 0.808858 0.018796
O O11 0.892758 0.933696 0.941927
O O12 0.686582 0.815596 0.974753
O O13 0.810999 0.920812 0.080090
#
# Coordination Sequence:
#
# PCOD9317779 Si02
#       8
#     8   4   4   4   8   8   8   8
#     4  10  21  37  64  90 129 163 216 259 325 371
#     4  11  21  38  64  84 126 172 204 262 314 384
#     4   9  20  36  58  90 121 164 218 266 301 386
#     4  10  21  36  56  94 125 162 210 276 299 376
#     4  10  20  35  59  91 125 161 221 259 316 365
#     4  10  22  38  64  89 127 156 219 250 319 371
#     4  11  20  37  62  94 117 170 202 270 299 381
#     4  10  21  38  59  93 121 168 196 258 317 381
#
# _framework density 21.347491000000002
#
# number of rings (size 3 to 8) (size 9 to 14) (size 15 to 20)
#    0.000    1.846    1.538    3.231    4.308    1.231 
#    0.000    0.769    0.000   16.615    0.000    0.000 
#    0.000    0.000    0.000    0.000    0.000    0.000 
#
# Total GULP energy -145220.431278 kJ/mol
# GULP energy per Si atom -5585.401203 kJ/mol
# Density = 2.129890 g / cm^3
# Si number density = 21.347491 Si / 1000 Ang^3
#
#
#
# Elastic Constant Matrix: (Units=GPa)
#
#
# Indices 1 2 3 4 5 6 
#
# 1 47.8753 21.9167 20.5845 0.0000 0.0000 0.0000
# 2 21.9167 107.2242 37.6490 0.0000 0.0000 0.0000
# 3 20.5845 37.6490 139.4231 0.0000 0.0000 0.0000
# 4 0.0000 0.0000 0.0000 32.6040 0.0000 0.0000
# 5 0.0000 0.0000 0.0000 0.0000 30.3720 0.0000
# 6 0.0000 0.0000 0.0000 0.0000 0.0000 28.2871
#
#
#
# Elastic Compliance Matrix: (Units=1/GPa)
#
#
# Indices 1 2 3 4 5 6 
#
# 1 0.023765 -0.004005 -0.002427 0.000000 0.000000 0.000000
# 2 -0.004005 0.010978 -0.002373 0.000000 0.000000 0.000000
# 3 -0.002427 -0.002373 0.008172 0.000000 0.000000 0.000000
# 4 0.000000 0.000000 0.000000 0.030671 0.000000 0.000000
# 5 0.000000 0.000000 0.000000 0.000000 0.032925 0.000000
# 6 0.000000 0.000000 0.000000 0.000000 0.000000 0.035352
#
#
# Mechanical properties :
#
#
# Convention : Reuss Voigt Hill
#
# Bulk Modulus (GPa) = 39.52028 50.53588 45.02808
# Shear Modulus (GPa) = 29.77823 32.54413 31.16118
#
# Velocity S-wave (km/s) = 3.73893 3.90871 3.82476
# Velocity P-wave (km/s) = 6.09856 6.64041 6.37525
#
# Compressibility (1/GPa) = 0.02530346
#
# Stress axis : x y z
#
# Youngs Moduli (GPa) = 42.07917 91.08953 122.37538
#
# Poissons Ratio (x) = 0.36484 0.29701
# Poissons Ratio (y) = 0.16854 0.29042
# Poissons Ratio (z) = 0.10213 0.21617
#
# Static dielectric constant tensor:
#      x y z
#    x 1.786130 0.000000 0.000000 
#    y 0.000000 1.798860 0.000000 
#    z 0.000000 0.000000 1.832030 
# 
# From -- ./inp_files/23749.got.cif
#   From: 2010.05.17/outbox.cif.g08.bks.cpg/sg20_12_cif.got.tgz:23749.got - 2010.06.03 22:52:26.
