data_PCOD9317138
_publ_section_title
;
Structure prediction by ZEFSAII (Michael W. Deem and Ramdas Pophale) SiO2 
 PCOD9317138
Probable space group: C 2 2 21
;
_chemical_formula_sum "Si O2"
_cell_formula_units_Z 56
_cell_length_a 6.799119
_cell_length_b 19.644625
_cell_length_c 16.708679
_cell_angle_alpha 90.000000
_cell_angle_beta 90.000000
_cell_angle_gamma 90.000000
_cell_volume 2231.713810
_symmetry_space_group_name_H-M "C 2 2 21"
_symmetry_group_IT_number 20
_symmetry_cell_setting 'orthorhombic'
loop_
_space_group_symop_operation_xyz
x,y,z
-x,-y,1/2+z
x,-y,-z
-x,y,1/2-z
1/2+x,1/2+y,z
1/2-x,1/2-y,1/2+z
1/2+x,1/2-y,-z
1/2-x,1/2+y,1/2-z
loop_
_atom_site_type_symbol
_atom_site_label
_atom_site_fract_x
_atom_site_fract_y
_atom_site_fract_z
Si Si1 0.586137 0.594893 0.487960
Si Si2 0.203608 0.144125 0.643873
Si Si3 0.283845 0.203138 0.087651
Si Si4 0.764658 0.729597 0.422943
Si Si5 0.768681 0.653368 0.821092
Si Si6 0.316268 0.041570 0.930655
Si Si7 0.584208 0.568553 0.160925
O O1 0.719139 0.595220 0.566924
O O2 0.625401 0.671422 0.456562
O O3 0.371765 0.570510 0.518618
O O4 0.594844 0.556626 0.402980
O O5 0.260384 0.221923 0.622849
O O6 0.291216 0.130649 0.730455
O O7 0.964961 0.145540 0.658661
O O8 0.521120 0.197542 0.089710
O O9 0.189133 0.140184 0.135881
O O10 0.234767 0.213979 0.993365
O O11 0.696790 0.767695 0.342685
O O12 0.889791 0.606618 0.882130
O O13 0.237985 0.990655 0.861660
O O14 0.429878 0.000000 0.000000
O O15 0.500000 0.567907 0.250000
#
# Coordination Sequence:
#
# PCOD9317138 Si02
#       7
#     8   8   8   8   8   8   8
#     4   9  19  36  55  80 116 151 191 245 305 357
#     4   8  16  28  50  76 109 145 186 236 291 368
#     4  10  19  35  52  89 121 153 196 252 315 359
#     4  10  19  34  62  85 118 152 190 256 312 372
#     4   9  16  28  53  81 109 144 190 238 292 364
#     4   9  18  34  54  78 114 153 201 241 289 361
#     4  11  23  34  55  85 124 159 205 259 289 355
#
# _framework density 25.092822999999999
#
# number of rings (size 3 to 8) (size 9 to 14) (size 15 to 20)
#    0.000    2.571    0.000    5.143    6.000    0.000 
#    0.000    0.000    0.000   12.857    0.000    0.000 
#    0.000    0.000    0.000    0.000    0.000    0.000 
#
# Total GULP energy -156147.686330 kJ/mol
# GULP energy per Si atom -5576.703083 kJ/mol
# Density = 2.503571 g / cm^3
# Si number density = 25.092823 Si / 1000 Ang^3
#
#
#
# Elastic Constant Matrix: (Units=GPa)
#
#
# Indices 1 2 3 4 5 6 
#
# 1 82.0165 7.1462 19.0416 0.0000 0.0000 0.0000
# 2 7.1462 112.9888 29.6310 0.0000 0.0000 0.0000
# 3 19.0416 29.6310 184.5638 0.0000 0.0000 0.0000
# 4 0.0000 0.0000 0.0000 32.1967 0.0000 0.0000
# 5 0.0000 0.0000 0.0000 0.0000 28.6661 0.0000
# 6 0.0000 0.0000 0.0000 0.0000 0.0000 12.5811
#
#
#
# Elastic Compliance Matrix: (Units=1/GPa)
#
#
# Indices 1 2 3 4 5 6 
#
# 1 0.012516 -0.000473 -0.001215 0.000000 0.000000 0.000000
# 2 -0.000473 0.009257 -0.001437 0.000000 0.000000 0.000000
# 3 -0.001215 -0.001437 0.005774 0.000000 0.000000 0.000000
# 4 0.000000 0.000000 0.000000 0.031059 0.000000 0.000000
# 5 0.000000 0.000000 0.000000 0.000000 0.034884 0.000000
# 6 0.000000 0.000000 0.000000 0.000000 0.000000 0.079484
#
#
# Mechanical properties :
#
#
# Convention : Reuss Voigt Hill
#
# Bulk Modulus (GPa) = 46.95646 54.57853 50.76749
# Shear Modulus (GPa) = 26.83478 36.27215 31.55347
#
# Velocity S-wave (km/s) = 3.27375 3.80612 3.54993
# Velocity P-wave (km/s) = 5.74836 6.41197 6.08921
#
# Compressibility (1/GPa) = 0.02129633
#
# Stress axis : x y z
#
# Youngs Moduli (GPa) = 79.89751 108.02276 173.17976
#
# Poissons Ratio (x) = 0.05108 0.21048
# Poissons Ratio (y) = 0.03778 0.24894
# Poissons Ratio (z) = 0.09711 0.15528
#
# Static dielectric constant tensor:
#      x y z
#    x 2.110010 0.000000 0.000000 
#    y 0.000000 2.014060 0.000000 
#    z 0.000000 0.000000 2.004560 
# 
# From -- ./inp_files/23856.got.cif
#   From: 2010.05.17/outbox.cif.g08.bks.cpg/sg20_12_cif.got.tgz:23856.got - 2010.06.03 22:52:26.
