data_PCOD9317914
_publ_section_title
;
Structure prediction by ZEFSAII (Michael W. Deem and Ramdas Pophale) SiO2 
 PCOD9317914
Probable space group: C 2 2 21
;
_chemical_formula_sum "Si O2"
_cell_formula_units_Z 60
_cell_length_a 12.852831
_cell_length_b 20.168977
_cell_length_c 11.834238
_cell_angle_alpha 90.000000
_cell_angle_beta 90.000000
_cell_angle_gamma 90.000000
_cell_volume 3067.771207
_symmetry_space_group_name_H-M "C 2 2 21"
_symmetry_group_IT_number 20
_symmetry_cell_setting 'orthorhombic'
loop_
_space_group_symop_operation_xyz
x,y,z
-x,-y,1/2+z
x,-y,-z
-x,y,1/2-z
1/2+x,1/2+y,z
1/2-x,1/2-y,1/2+z
1/2+x,1/2-y,-z
1/2-x,1/2+y,1/2-z
loop_
_atom_site_type_symbol
_atom_site_label
_atom_site_fract_x
_atom_site_fract_y
_atom_site_fract_z
Si Si1 0.322205 0.665082 0.628536
Si Si2 0.666895 0.513513 0.862618
Si Si3 0.601549 0.812410 0.476788
Si Si4 0.000000 0.916913 0.750000
Si Si5 0.730046 0.217932 0.300957
Si Si6 0.509587 0.932628 0.935722
Si Si7 0.166616 0.427406 0.751987
Si Si8 0.453213 0.700611 0.408502
O O1 0.352758 0.590629 0.662512
O O2 0.205190 0.657554 0.578647
O O3 0.308929 0.723825 0.719121
O O4 0.403865 0.686785 0.531943
O O5 0.586569 0.466477 0.797492
O O6 0.771666 0.488087 0.802882
O O7 0.668146 0.500000 0.000000
O O8 0.649522 0.784353 0.593936
O O9 0.513195 0.868408 0.489634
O O10 0.544634 0.753738 0.412316
O O11 0.003882 0.865016 0.645785
O O12 0.724909 0.143306 0.250107
O O13 0.849946 0.224820 0.340623
O O14 0.621298 0.937996 0.876411
O O15 0.427957 0.920847 0.835437
O O16 0.486146 0.000000 0.000000
#
# Coordination Sequence:
#
# PCOD9317914 Si02
#       8
#     8   8   8   4   8   8   8   8
#     4  11  23  40  65  95 132 174 223 277 333 406
#     4  12  23  44  66  93 129 171 220 263 332 395
#     4  10  22  38  65  96 132 176 216 287 332 395
#     4  12  24  42  68  92 122 176 222 270 324 398
#     4  10  21  41  62  93 127 173 218 269 339 391
#     4  10  20  36  61  95 126 169 220 269 334 392
#     4  10  20  38  64  87 127 174 213 266 328 401
#     4  11  22  41  66  96 129 173 222 275 329 398
#
# _framework density 19.558171000000002
#
# number of rings (size 3 to 8) (size 9 to 14) (size 15 to 20)
#    0.000    1.333    2.667    4.400    0.000    3.733 
#    0.000    2.000    0.000    0.000    0.000    0.000 
#    0.000    0.000    0.000    0.000    0.000    0.000 
#
# Total GULP energy -167164.703239 kJ/mol
# GULP energy per Si atom -5572.156775 kJ/mol
# Density = 1.951366 g / cm^3
# Si number density = 19.558171 Si / 1000 Ang^3
#
#
#
# Elastic Constant Matrix: (Units=GPa)
#
#
# Indices 1 2 3 4 5 6 
#
# 1 45.6168 3.3523 20.7237 0.0000 0.0000 0.0000
# 2 3.3523 108.9049 46.4202 0.0000 0.0000 0.0000
# 3 20.7237 46.4202 63.1972 0.0000 0.0000 0.0000
# 4 0.0000 0.0000 0.0000 32.0780 0.0000 0.0000
# 5 0.0000 0.0000 0.0000 0.0000 28.9897 0.0000
# 6 0.0000 0.0000 0.0000 0.0000 0.0000 32.0932
#
#
#
# Elastic Compliance Matrix: (Units=1/GPa)
#
#
# Indices 1 2 3 4 5 6 
#
# 1 0.027073 0.004296 -0.012033 0.000000 0.000000 0.000000
# 2 0.004296 0.014049 -0.011728 0.000000 0.000000 0.000000
# 3 -0.012033 -0.011728 0.028384 0.000000 0.000000 0.000000
# 4 0.000000 0.000000 0.000000 0.031174 0.000000 0.000000
# 5 0.000000 0.000000 0.000000 0.000000 0.034495 0.000000
# 6 0.000000 0.000000 0.000000 0.000000 0.000000 0.031159
#
#
# Mechanical properties :
#
#
# Convention : Reuss Voigt Hill
#
# Bulk Modulus (GPa) = 32.70660 39.85681 36.28171
# Shear Modulus (GPa) = 23.20649 28.44701 25.82675
#
# Velocity S-wave (km/s) = 3.44835 3.81790 3.63782
# Velocity P-wave (km/s) = 5.71086 6.31332 6.01963
#
# Compressibility (1/GPa) = 0.03057487
#
# Stress axis : x y z
#
# Youngs Moduli (GPa) = 36.93764 71.17851 35.23101
#
# Poissons Ratio (x) = -0.30576 0.42393
# Poissons Ratio (y) = -0.15867 0.41320
# Poissons Ratio (z) = 0.44447 0.83480
#
# Static dielectric constant tensor:
#      x y z
#    x 1.780400 0.000000 0.000000 
#    y 0.000000 1.660140 0.000000 
#    z 0.000000 0.000000 1.695230 
# 
# From -- ./inp_files/15307.got.cif
#   From: 2010.05.17/outbox.cif.g08.bks.cpg/sg20_8_cif.got.tgz:15307.got - 2010.06.03 22:52:26.
