data_PCOD9317046
_publ_section_title
;
Structure prediction by ZEFSAII (Michael W. Deem and Ramdas Pophale) SiO2 
 PCOD9317046
Probable space group: C 2 2 21
;
_chemical_formula_sum "Si O2"
_cell_formula_units_Z 32
_cell_length_a 5.002213
_cell_length_b 25.627571
_cell_length_c 9.657287
_cell_angle_alpha 90.000000
_cell_angle_beta 90.000000
_cell_angle_gamma 90.000000
_cell_volume 1238.011743
_symmetry_space_group_name_H-M "C 2 2 21"
_symmetry_group_IT_number 20
_symmetry_cell_setting 'orthorhombic'
loop_
_space_group_symop_operation_xyz
x,y,z
-x,-y,1/2+z
x,-y,-z
-x,y,1/2-z
1/2+x,1/2+y,z
1/2-x,1/2-y,1/2+z
1/2+x,1/2-y,-z
1/2-x,1/2+y,1/2-z
loop_
_atom_site_type_symbol
_atom_site_label
_atom_site_fract_x
_atom_site_fract_y
_atom_site_fract_z
Si Si1 0.375072 0.754957 0.913780
Si Si2 0.761472 0.517847 0.159644
Si Si3 0.709575 0.130652 0.446908
Si Si4 0.297787 0.641230 0.866820
O O1 0.335638 0.814410 0.870385
O O2 0.279617 0.703267 0.835445
O O3 0.684448 0.748182 0.951285
O O4 0.500000 0.508873 0.250000
O O5 0.813034 0.579371 0.142757
O O6 0.000000 0.493383 0.250000
O O7 0.740322 0.500000 0.000000
O O8 0.498184 0.126367 0.577689
O O9 0.013363 0.133426 0.500274
O O10 0.500000 0.618004 0.750000
#
# Coordination Sequence:
#
# PCOD9317046 Si02
#       4
#     8   8   8   8
#     4   8  16  31  51  81 128 177 223 272 326 395
#     4  12  28  51  77 107 139 181 235 297 363 426
#     4  10  21  39  61  91 131 175 227 282 338 408
#     4  10  19  33  58  95 135 179 224 273 335 403
#
# _framework density 25.847899000000002
#
# number of rings (size 3 to 8) (size 9 to 14) (size 15 to 20)
#    0.000    2.000    0.000    3.000    0.000    4.000 
#    0.000    7.500    0.000    0.000    0.000    0.000 
#    0.000    0.000    0.000    0.000    0.000    0.000 
#
# Total GULP energy -89306.533428 kJ/mol
# GULP energy per Si atom -5581.658339 kJ/mol
# Density = 2.578907 g / cm^3
# Si number density = 25.847899 Si / 1000 Ang^3
#
#
#
# Elastic Constant Matrix: (Units=GPa)
#
#
# Indices 1 2 3 4 5 6 
#
# 1 187.7780 23.2339 69.6563 0.0000 0.0000 0.0000
# 2 23.2339 109.1148 26.9824 0.0000 0.0000 0.0000
# 3 69.6563 26.9824 112.2637 0.0000 0.0000 0.0000
# 4 0.0000 0.0000 0.0000 14.0067 0.0000 0.0000
# 5 0.0000 0.0000 0.0000 0.0000 34.3557 0.0000
# 6 0.0000 0.0000 0.0000 0.0000 0.0000 40.2588
#
#
#
# Elastic Compliance Matrix: (Units=1/GPa)
#
#
# Indices 1 2 3 4 5 6 
#
# 1 0.006937 -0.000439 -0.004199 0.000000 0.000000 0.000000
# 2 -0.000439 0.009772 -0.002076 0.000000 0.000000 0.000000
# 3 -0.004199 -0.002076 0.012012 0.000000 0.000000 0.000000
# 4 0.000000 0.000000 0.000000 0.071395 0.000000 0.000000
# 5 0.000000 0.000000 0.000000 0.000000 0.029107 0.000000
# 6 0.000000 0.000000 0.000000 0.000000 0.000000 0.024839
#
#
# Mechanical properties :
#
#
# Convention : Reuss Voigt Hill
#
# Bulk Modulus (GPa) = 65.39072 72.10019 68.74545
# Shear Modulus (GPa) = 28.97080 37.00984 32.99032
#
# Velocity S-wave (km/s) = 3.35149 3.78806 3.57644
# Velocity P-wave (km/s) = 6.35058 6.86200 6.61124
#
# Compressibility (1/GPa) = 0.01529269
#
# Stress axis : x y z
#
# Youngs Moduli (GPa) = 144.14771 102.33806 83.25048
#
# Poissons Ratio (x) = 0.04491 0.34956
# Poissons Ratio (y) = 0.06326 0.17285
# Poissons Ratio (z) = 0.60527 0.21248
#
# Static dielectric constant tensor:
#      x y z
#    x 2.009580 0.000000 0.000000 
#    y 0.000000 2.043590 0.000000 
#    z 0.000000 0.000000 2.413500 
# 
# From -- ./inp_files/5127.got.cif
#   From: 2010.05.17/outbox.cif.g08.bks.cpg/sg20_3_cif.got.tgz:5127.got - 2010.06.03 22:52:26.
