data_PCOD9317019
_publ_section_title
;
Structure prediction by ZEFSAII (Michael W. Deem and Ramdas Pophale) SiO2 
 PCOD9317019
Probable space group: C 2 2 21
;
_chemical_formula_sum "Si O2"
_cell_formula_units_Z 52
_cell_length_a 33.291249
_cell_length_b 13.669031
_cell_length_c 5.237467
_cell_angle_alpha 90.000000
_cell_angle_beta 90.000000
_cell_angle_gamma 90.000000
_cell_volume 2383.357096
_symmetry_space_group_name_H-M "C 2 2 21"
_symmetry_group_IT_number 20
_symmetry_cell_setting 'orthorhombic'
loop_
_space_group_symop_operation_xyz
x,y,z
-x,-y,1/2+z
x,-y,-z
-x,y,1/2-z
1/2+x,1/2+y,z
1/2-x,1/2-y,1/2+z
1/2+x,1/2-y,-z
1/2-x,1/2+y,1/2-z
loop_
_atom_site_type_symbol
_atom_site_label
_atom_site_fract_x
_atom_site_fract_y
_atom_site_fract_z
Si Si1 0.455073 0.138552 0.821569
Si Si2 0.680933 0.067527 0.249827
Si Si3 0.660781 0.500000 0.000000
Si Si4 0.090150 0.883822 0.164964
Si Si5 0.765493 0.064497 0.255016
Si Si6 0.906800 0.649327 0.319434
Si Si7 0.956581 0.123158 0.160895
O O1 0.500000 0.103274 0.750000
O O2 0.424517 0.115524 0.591279
O O3 0.458094 0.257607 0.837883
O O4 0.435872 0.110488 0.093589
O O5 0.724024 0.126898 0.239675
O O6 0.639381 0.123886 0.226396
O O7 0.676297 0.000000 0.500000
O O8 0.683388 0.000000 0.000000
O O9 0.632769 0.562775 0.812041
O O10 0.688405 0.420404 0.845085
O O11 0.092815 0.766914 0.182065
O O12 0.057979 0.908195 0.382680
O O13 0.074765 0.904712 0.879941
O O14 0.753881 0.000000 0.500000
O O15 0.768586 0.000000 0.000000
O O16 0.000000 0.088797 0.250000
#
# Coordination Sequence:
#
# PCOD9317019 Si02
#       7
#     8   8   4   8   8   8   8
#     4   9  17  31  53  78 109 146 176 217 274 326
#     4  10  19  35  59  78 104 142 185 223 277 331
#     4  10  22  36  58  76 116 142 182 212 288 330
#     4  10  21  32  56  81 108 145 178 227 266 320
#     4   8  18  33  55  73  98 139 180 210 262 343
#     4  10  19  33  54  83 108 134 190 230 258 319
#     4   9  18  34  52  77 108 144 186 220 262 315
#
# _framework density 21.817964
#
# number of rings (size 3 to 8) (size 9 to 14) (size 15 to 20)
#    0.462    2.154    0.000    1.846    2.154    3.692 
#    0.000    1.538    6.769    9.231    0.000    0.000 
#    0.000    0.000    0.000    0.000    0.000    0.000 
#
# Total GULP energy -144744.893553 kJ/mol
# GULP energy per Si atom -5567.111291 kJ/mol
# Density = 2.176831 g / cm^3
# Si number density = 21.817964 Si / 1000 Ang^3
#
#
#
# Elastic Constant Matrix: (Units=GPa)
#
#
# Indices 1 2 3 4 5 6 
#
# 1 157.4471 6.3402 40.9474 0.0000 0.0000 0.0000
# 2 6.3402 27.9258 7.6756 0.0000 0.0000 0.0000
# 3 40.9474 7.6756 141.1605 0.0000 0.0000 0.0000
# 4 0.0000 0.0000 0.0000 18.1963 0.0000 0.0000
# 5 0.0000 0.0000 0.0000 0.0000 41.9820 0.0000
# 6 0.0000 0.0000 0.0000 0.0000 0.0000 -34.3174
#
#
#
# Elastic Compliance Matrix: (Units=1/GPa)
#
#
# Indices 1 2 3 4 5 6 
#
# 1 0.006899 -0.001032 -0.001945 0.000000 0.000000 0.000000
# 2 -0.001032 0.036507 -0.001686 0.000000 0.000000 0.000000
# 3 -0.001945 -0.001686 0.007740 0.000000 0.000000 0.000000
# 4 0.000000 0.000000 0.000000 0.054956 0.000000 0.000000
# 5 0.000000 0.000000 0.000000 0.000000 0.023820 0.000000
# 6 0.000000 0.000000 0.000000 0.000000 0.000000 -0.029140
#
#
# Mechanical properties :
#
#
# Convention : Reuss Voigt Hill
#
# Bulk Modulus (GPa) = 23.91175 48.49552 36.20364
# Shear Modulus (GPa) = 40.30734 23.27686 31.79210
#
# Velocity S-wave (km/s) = 4.30285 3.26984 3.82141
# Velocity P-wave (km/s) = 5.97239 6.04412 6.00836
#
# Compressibility (1/GPa) = 0.04182045
#
# Stress axis : x y z
#
# Youngs Moduli (GPa) = 144.95405 27.39222 129.19864
#
# Poissons Ratio (x) = 0.02826 0.25130
# Poissons Ratio (y) = 0.14954 0.21780
# Poissons Ratio (z) = 0.28195 0.04618
#
# Static dielectric constant tensor:
#      x y z
#    x 1.902440 0.000000 0.000000 
#    y 0.000000 1.871330 0.000000 
#    z 0.000000 0.000000 1.771580 
# 
# From -- ./inp_files/4759.got.cif
#   From: 2010.05.17/outbox.cif.g08.bks.cpg/sg20_3_cif.got.tgz:4759.got - 2010.06.03 22:52:26.
