data_PCOD9317527
_publ_section_title
;
Structure prediction by ZEFSAII (Michael W. Deem and Ramdas Pophale) SiO2 
 PCOD9317527
Probable space group: C 2 2 21
;
_chemical_formula_sum "Si O2"
_cell_formula_units_Z 48
_cell_length_a 8.375752
_cell_length_b 13.558777
_cell_length_c 18.062892
_cell_angle_alpha 90.000000
_cell_angle_beta 90.000000
_cell_angle_gamma 90.000000
_cell_volume 2051.311491
_symmetry_space_group_name_H-M "C 2 2 21"
_symmetry_group_IT_number 20
_symmetry_cell_setting 'orthorhombic'
loop_
_space_group_symop_operation_xyz
x,y,z
-x,-y,1/2+z
x,-y,-z
-x,y,1/2-z
1/2+x,1/2+y,z
1/2-x,1/2-y,1/2+z
1/2+x,1/2-y,-z
1/2-x,1/2+y,1/2-z
loop_
_atom_site_type_symbol
_atom_site_label
_atom_site_fract_x
_atom_site_fract_y
_atom_site_fract_z
Si Si1 0.136779 0.855012 0.189524
Si Si2 0.528359 0.890808 0.533047
Si Si3 0.363632 0.383061 0.477959
Si Si4 0.339880 0.335374 0.785058
Si Si5 0.638514 0.033643 0.309513
Si Si6 0.824901 0.896897 0.951375
O O1 0.077155 0.867078 0.105639
O O2 0.203445 0.746512 0.205298
O O3 0.000000 0.879359 0.250000
O O4 0.294226 0.923768 0.185254
O O5 0.683821 0.845744 0.493028
O O6 0.578548 0.912883 0.617169
O O7 0.348384 0.848875 0.531196
O O8 0.508246 0.000000 0.500000
O O9 0.348826 0.500000 0.500000
O O10 0.509898 0.344643 0.526536
O O11 0.500000 0.288905 0.750000
O O12 0.289926 0.408594 0.720456
O O13 0.340553 0.397698 0.861855
O O14 0.500000 0.037332 0.250000
O O15 0.826579 0.000000 0.000000
#
# Coordination Sequence:
#
# PCOD9317527 Si02
#       6
#     8   8   8   8   8   8
#     4  12  28  47  72 113 150 196 257 311 377 456
#     4  10  19  40  70 102 138 184 246 293 372 443
#     4  10  21  44  70 102 142 190 244 304 374 441
#     4  12  27  49  71 108 154 198 251 313 379 451
#     4  12  23  43  79 104 145 199 245 313 377 448
#     4  10  23  42  72 107 139 195 247 300 379 450
#
# _framework density 23.399664000000001
#
# number of rings (size 3 to 8) (size 9 to 14) (size 15 to 20)
#    0.000    1.000    5.000    2.500    7.000    0.000 
#    6.000    0.000    0.000    0.000    0.000    0.000 
#    0.000    0.000    0.000    0.000    0.000    0.000 
#
# Total GULP energy -133917.205824 kJ/mol
# GULP energy per Si atom -5579.883576 kJ/mol
# Density = 2.334641 g / cm^3
# Si number density = 23.399664 Si / 1000 Ang^3
#
#
#
# Elastic Constant Matrix: (Units=GPa)
#
#
# Indices 1 2 3 4 5 6 
#
# 1 159.9016 6.2407 22.4042 0.0000 0.0000 0.0000
# 2 6.2407 59.0914 -4.0263 0.0000 0.0000 0.0000
# 3 22.4042 -4.0263 92.7237 0.0000 0.0000 0.0000
# 4 0.0000 0.0000 0.0000 7.7617 0.0000 0.0000
# 5 0.0000 0.0000 0.0000 0.0000 48.7098 0.0000
# 6 0.0000 0.0000 0.0000 0.0000 0.0000 6.9949
#
#
#
# Elastic Compliance Matrix: (Units=1/GPa)
#
#
# Indices 1 2 3 4 5 6 
#
# 1 0.006510 -0.000797 -0.001608 0.000000 0.000000 0.000000
# 2 -0.000797 0.017071 0.000934 0.000000 0.000000 0.000000
# 3 -0.001608 0.000934 0.011214 0.000000 0.000000 0.000000
# 4 0.000000 0.000000 0.000000 0.128838 0.000000 0.000000
# 5 0.000000 0.000000 0.000000 0.000000 0.020530 0.000000
# 6 0.000000 0.000000 0.000000 0.000000 0.000000 0.142962
#
#
# Mechanical properties :
#
#
# Convention : Reuss Voigt Hill
#
# Bulk Modulus (GPa) = 31.39425 40.10597 35.75011
# Shear Modulus (GPa) = 14.67637 31.83314 23.25475
#
# Velocity S-wave (km/s) = 2.50712 3.69238 3.15589
# Velocity P-wave (km/s) = 4.67189 5.94600 5.34703
#
# Compressibility (1/GPa) = 0.03185296
#
# Stress axis : x y z
#
# Youngs Moduli (GPa) = 153.60503 58.57974 89.17645
#
# Poissons Ratio (x) = 0.04669 0.14336
# Poissons Ratio (y) = 0.12244 -0.08328
# Poissons Ratio (z) = 0.24694 -0.05471
#
# Static dielectric constant tensor:
#      x y z
#    x 1.940440 0.000000 0.000000 
#    y 0.000000 1.910600 0.000000 
#    z 0.000000 0.000000 1.915070 
# 
# From -- ./inp_files/23466.got.cif
#   From: 2010.05.17/outbox.cif.g08.bks.cpg/sg20_12_cif.got.tgz:23466.got - 2010.06.03 22:52:26.
