data_PCOD9317093
_publ_section_title
;
Structure prediction by ZEFSAII (Michael W. Deem and Ramdas Pophale) SiO2 
 PCOD9317093
Probable space group: C 2 2 21
;
_chemical_formula_sum "Si O2"
_cell_formula_units_Z 48
_cell_length_a 25.990114
_cell_length_b 10.310155
_cell_length_c 7.628409
_cell_angle_alpha 90.000000
_cell_angle_beta 90.000000
_cell_angle_gamma 90.000000
_cell_volume 2044.124524
_symmetry_space_group_name_H-M "C 2 2 21"
_symmetry_group_IT_number 20
_symmetry_cell_setting 'orthorhombic'
loop_
_space_group_symop_operation_xyz
x,y,z
-x,-y,1/2+z
x,-y,-z
-x,y,1/2-z
1/2+x,1/2+y,z
1/2-x,1/2-y,1/2+z
1/2+x,1/2-y,-z
1/2-x,1/2+y,1/2-z
loop_
_atom_site_type_symbol
_atom_site_label
_atom_site_fract_x
_atom_site_fract_y
_atom_site_fract_z
Si Si1 0.676024 0.353875 0.483376
Si Si2 0.688825 0.000000 0.500000
Si Si3 0.259244 0.280781 0.668669
Si Si4 0.640952 0.654380 0.017142
Si Si5 0.390734 0.177078 0.841978
Si Si6 0.466159 0.645641 0.577356
Si Si7 0.000000 0.318990 0.250000
O O1 0.658525 0.500000 0.500000
O O2 0.711330 0.316328 0.653068
O O3 0.718305 0.336475 0.330492
O O4 0.627337 0.257760 0.486069
O O5 0.724449 0.102392 0.401716
O O6 0.652227 0.065657 0.646908
O O7 0.306151 0.266518 0.529597
O O8 0.614906 0.707474 0.198242
O O9 0.652298 0.500000 0.000000
O O10 0.593820 0.679757 0.886989
O O11 0.446082 0.114636 0.803533
O O12 0.465813 0.500000 0.500000
O O13 0.500000 0.653128 0.750000
O O14 0.489116 0.734636 0.423708
#
# Coordination Sequence:
#
# PCOD9317093 Si02
#       7
#     8   4   8   8   8   8   4
#     4  10  23  37  60  95 127 171 214 261 332 398
#     4  10  20  40  64  90 120 172 222 260 328 392
#     4  10  21  38  60  87 133 169 213 269 317 400
#     4   9  18  34  58  90 126 175 212 264 338 394
#     4   9  21  38  63  88 124 168 218 272 328 394
#     4  10  19  34  56  88 126 168 214 264 336 402
#     4  10  20  40  60  86 122 166 212 290 324 388
#
# _framework density 23.481935
#
# number of rings (size 3 to 8) (size 9 to 14) (size 15 to 20)
#    0.000    2.333    1.667    0.000    7.000    0.667 
#   12.000    0.000    1.833    0.000    0.000    1.167 
#    0.000    0.000    0.000    0.000    0.000    0.000 
#
# Total GULP energy -133643.184776 kJ/mol
# GULP energy per Si atom -5568.466032 kJ/mol
# Density = 2.342849 g / cm^3
# Si number density = 23.481935 Si / 1000 Ang^3
#
#
#
# Elastic Constant Matrix: (Units=GPa)
#
#
# Indices 1 2 3 4 5 6 
#
# 1 127.2494 7.2568 30.1698 0.0000 0.0000 0.0000
# 2 7.2568 40.8116 -5.7848 0.0000 0.0000 0.0000
# 3 30.1698 -5.7848 107.9826 0.0000 0.0000 0.0000
# 4 0.0000 0.0000 0.0000 22.5916 0.0000 0.0000
# 5 0.0000 0.0000 0.0000 0.0000 32.6540 0.0000
# 6 0.0000 0.0000 0.0000 0.0000 0.0000 19.3256
#
#
#
# Elastic Compliance Matrix: (Units=1/GPa)
#
#
# Indices 1 2 3 4 5 6 
#
# 1 0.008556 -0.001874 -0.002491 0.000000 0.000000 0.000000
# 2 -0.001874 0.025101 0.001868 0.000000 0.000000 0.000000
# 3 -0.002491 0.001868 0.010057 0.000000 0.000000 0.000000
# 4 0.000000 0.000000 0.000000 0.044264 0.000000 0.000000
# 5 0.000000 0.000000 0.000000 0.000000 0.030624 0.000000
# 6 0.000000 0.000000 0.000000 0.000000 0.000000 0.051745
#
#
# Mechanical properties :
#
#
# Convention : Reuss Voigt Hill
#
# Bulk Modulus (GPa) = 25.82649 37.70300 31.76475
# Shear Modulus (GPa) = 26.56076 31.20769 28.88423
#
# Velocity S-wave (km/s) = 3.36685 3.64951 3.51103
# Velocity P-wave (km/s) = 5.11240 5.81804 5.47660
#
# Compressibility (1/GPa) = 0.03871993
#
# Stress axis : x y z
#
# Youngs Moduli (GPa) = 116.87622 39.83906 99.43514
#
# Poissons Ratio (x) = 0.07468 0.24769
# Poissons Ratio (y) = 0.21908 -0.18579
# Poissons Ratio (z) = 0.29113 -0.07444
#
# Static dielectric constant tensor:
#      x y z
#    x 1.982610 0.000000 0.000000 
#    y 0.000000 1.880350 0.000000 
#    z 0.000000 0.000000 1.976410 
# 
# From -- ./inp_files/10669.got.cif
#   From: 2010.05.17/outbox.cif.g08.bks.cpg/sg20_6_cif.got.tgz:10669.got - 2010.06.03 22:52:26.
