data_PCOD9317356
_publ_section_title
;
Structure prediction by ZEFSAII (Michael W. Deem and Ramdas Pophale) SiO2 
 PCOD9317356
Probable space group: C 2 2 21
;
_chemical_formula_sum "Si O2"
_cell_formula_units_Z 52
_cell_length_a 21.743706
_cell_length_b 8.201172
_cell_length_c 16.235367
_cell_angle_alpha 90.000000
_cell_angle_beta 90.000000
_cell_angle_gamma 90.000000
_cell_volume 2895.153520
_symmetry_space_group_name_H-M "C 2 2 21"
_symmetry_group_IT_number 20
_symmetry_cell_setting 'orthorhombic'
loop_
_space_group_symop_operation_xyz
x,y,z
-x,-y,1/2+z
x,-y,-z
-x,y,1/2-z
1/2+x,1/2+y,z
1/2-x,1/2-y,1/2+z
1/2+x,1/2-y,-z
1/2-x,1/2+y,1/2-z
loop_
_atom_site_type_symbol
_atom_site_label
_atom_site_fract_x
_atom_site_fract_y
_atom_site_fract_z
Si Si1 0.368740 0.328916 0.037104
Si Si2 0.292511 0.000000 0.000000
Si Si3 0.999905 0.313432 0.987848
Si Si4 0.052644 0.800165 0.181417
Si Si5 0.720092 0.418476 0.840275
Si Si6 0.330000 0.695193 0.777644
Si Si7 0.595539 0.391210 0.917329
O O1 0.439310 0.298263 0.012105
O O2 0.362189 0.343446 0.135450
O O3 0.346142 0.500000 0.000000
O O4 0.331745 0.166649 0.009335
O O5 0.251630 0.010243 0.917519
O O6 0.031066 0.296847 0.898592
O O7 0.981910 0.500000 0.000000
O O8 0.048335 0.247580 0.054830
O O9 0.116180 0.733538 0.219793
O O10 0.000000 0.799277 0.250000
O O11 0.065775 0.983442 0.148118
O O12 0.695470 0.540360 0.771215
O O13 0.772115 0.306762 0.800152
O O14 0.660154 0.331681 0.879846
O O15 0.607094 0.500000 0.000000
#
# Coordination Sequence:
#
# PCOD9317356 Si02
#       7
#     8   4   8   8   8   8   8
#     4  11  22  39  63  93 123 161 204 252 317 369
#     4  10  22  40  62  88 126 162 206 252 294 372
#     4  11  22  38  61  90 122 153 203 257 309 373
#     4  10  19  37  60  83 117 154 199 246 309 356
#     4  10  21  40  59  86 122 158 208 245 307 359
#     4  10  23  37  62  87 120 164 198 259 303 362
#     4   9  19  37  60  83 110 160 197 238 298 366
#
# _framework density 17.961051999999999
#
# number of rings (size 3 to 8) (size 9 to 14) (size 15 to 20)
#    0.000    1.846    3.077    1.385    2.154    1.231 
#    0.000    3.846    0.000    0.000    0.000    0.000 
#    0.000    0.000    0.000    0.000    0.000    0.000 
#
# Total GULP energy -144973.139154 kJ/mol
# GULP energy per Si atom -5575.889967 kJ/mol
# Density = 1.792017 g / cm^3
# Si number density = 17.961052 Si / 1000 Ang^3
#
#
#
# Elastic Constant Matrix: (Units=GPa)
#
#
# Indices 1 2 3 4 5 6 
#
# 1 104.6333 26.0651 33.0525 0.0000 0.0000 0.0000
# 2 26.0651 70.3638 27.8940 0.0000 0.0000 0.0000
# 3 33.0525 27.8940 74.8100 0.0000 0.0000 0.0000
# 4 0.0000 0.0000 0.0000 22.2968 0.0000 0.0000
# 5 0.0000 0.0000 0.0000 0.0000 27.5681 0.0000
# 6 0.0000 0.0000 0.0000 0.0000 0.0000 16.9601
#
#
#
# Elastic Compliance Matrix: (Units=1/GPa)
#
#
# Indices 1 2 3 4 5 6 
#
# 1 0.011510 -0.002638 -0.004102 0.000000 0.000000 0.000000
# 2 -0.002638 0.017281 -0.005278 0.000000 0.000000 0.000000
# 3 -0.004102 -0.005278 0.017148 0.000000 0.000000 0.000000
# 4 0.000000 0.000000 0.000000 0.044849 0.000000 0.000000
# 5 0.000000 0.000000 0.000000 0.000000 0.036274 0.000000
# 6 0.000000 0.000000 0.000000 0.000000 0.000000 0.058962
#
#
# Mechanical properties :
#
#
# Convention : Reuss Voigt Hill
#
# Bulk Modulus (GPa) = 45.65494 47.09226 46.37360
# Shear Modulus (GPa) = 23.00325 24.21803 23.61064
#
# Velocity S-wave (km/s) = 3.58261 3.67599 3.62960
# Velocity P-wave (km/s) = 6.52591 6.65532 6.59093
#
# Compressibility (1/GPa) = 0.02190343
#
# Stress axis : x y z
#
# Youngs Moduli (GPa) = 86.88113 57.86579 58.31727
#
# Poissons Ratio (x) = 0.15263 0.23921
# Poissons Ratio (y) = 0.22916 0.30781
# Poissons Ratio (z) = 0.35637 0.30543
#
# Static dielectric constant tensor:
#      x y z
#    x 1.633790 0.000000 0.000000 
#    y 0.000000 1.599140 0.000000 
#    z 0.000000 0.000000 1.604820 
# 
# From -- ./inp_files/19135.got.cif
#   From: 2010.05.17/outbox.cif.g08.bks.cpg/sg20_10_cif.got.tgz:19135.got - 2010.06.03 22:52:26.
