data_PCOD9317967
_publ_section_title
;
Structure prediction by ZEFSAII (Michael W. Deem and Ramdas Pophale) SiO2 
 PCOD9317967
Probable space group: C 2 2 21
;
_chemical_formula_sum "Si O2"
_cell_formula_units_Z 60
_cell_length_a 17.856047
_cell_length_b 16.929423
_cell_length_c 8.888347
_cell_angle_alpha 90.000000
_cell_angle_beta 90.000000
_cell_angle_gamma 90.000000
_cell_volume 2686.881282
_symmetry_space_group_name_H-M "C 2 2 21"
_symmetry_group_IT_number 20
_symmetry_cell_setting 'orthorhombic'
loop_
_space_group_symop_operation_xyz
x,y,z
-x,-y,1/2+z
x,-y,-z
-x,y,1/2-z
1/2+x,1/2+y,z
1/2-x,1/2-y,1/2+z
1/2+x,1/2-y,-z
1/2-x,1/2+y,1/2-z
loop_
_atom_site_type_symbol
_atom_site_label
_atom_site_fract_x
_atom_site_fract_y
_atom_site_fract_z
Si Si1 0.924678 0.603677 0.668533
Si Si2 0.337145 0.580894 0.572552
Si Si3 0.388024 0.382229 0.130824
Si Si4 0.732997 0.500000 0.500000
Si Si5 0.793345 0.301960 0.177421
Si Si6 0.832255 0.717846 0.159163
Si Si7 0.374498 0.065611 0.332625
Si Si8 0.978465 0.086610 0.423285
O O1 0.855386 0.657454 0.719727
O O2 0.916281 0.594496 0.486692
O O3 0.913355 0.513599 0.726459
O O4 0.000000 0.633494 0.750000
O O5 0.309291 0.500000 0.500000
O O6 0.388607 0.563609 0.720131
O O7 0.267551 0.632195 0.626189
O O8 0.395213 0.619305 0.455037
O O9 0.319384 0.425941 0.045222
O O10 0.377220 0.296088 0.202630
O O11 0.457037 0.373111 0.020835
O O12 0.791128 0.534425 0.377342
O O13 0.748690 0.233610 0.264938
O O14 0.827210 0.275345 0.019818
O O15 0.867051 0.637264 0.217876
O O16 0.000000 0.087647 0.250000
O O17 0.979871 0.000000 0.500000
#
# Coordination Sequence:
#
# PCOD9317967 Si02
#       8
#     8   8   8   4   8   8   8   8
#     4  10  23  46  72 101 133 177 242 293 350 421
#     4  10  22  37  60  92 121 161 215 269 317 385
#     4  11  22  39  61  94 129 175 213 271 329 404
#     4  10  20  36  70  90 126 170 224 266 338 396
#     4  11  24  42  66  97 132 176 226 284 339 414
#     4  11  24  41  66  96 140 174 221 275 352 410
#     4  10  22  42  68  97 135 172 221 295 347 414
#     4  11  22  38  60  89 128 167 215 271 324 385
#
# _framework density 22.330721
#
# number of rings (size 3 to 8) (size 9 to 14) (size 15 to 20)
#    0.000    1.600    0.667    6.800    3.733    3.200 
#    0.000   10.000    0.000    0.000    0.000    0.000 
#    0.000    0.000    0.000    0.000    0.000    0.000 
#
# Total GULP energy -167412.959593 kJ/mol
# GULP energy per Si atom -5580.431986 kJ/mol
# Density = 2.227990 g / cm^3
# Si number density = 22.330721 Si / 1000 Ang^3
#
#
#
# Elastic Constant Matrix: (Units=GPa)
#
#
# Indices 1 2 3 4 5 6 
#
# 1 67.7787 -14.0377 -18.3131 0.0000 0.0000 0.0000
# 2 -14.0377 34.3871 -11.6604 0.0000 0.0000 0.0000
# 3 -18.3131 -11.6604 40.1280 0.0000 0.0000 0.0000
# 4 0.0000 0.0000 0.0000 31.3235 0.0000 0.0000
# 5 0.0000 0.0000 0.0000 0.0000 20.6121 0.0000
# 6 0.0000 0.0000 0.0000 0.0000 0.0000 -5.6019
#
#
#
# Elastic Compliance Matrix: (Units=1/GPa)
#
#
# Indices 1 2 3 4 5 6 
#
# 1 0.021128 0.013194 0.013476 0.000000 0.000000 0.000000
# 2 0.013194 0.040499 0.017790 0.000000 0.000000 0.000000
# 3 0.013476 0.017790 0.036240 0.000000 0.000000 0.000000
# 4 0.000000 0.000000 0.000000 0.031925 0.000000 0.000000
# 5 0.000000 0.000000 0.000000 0.000000 0.048515 0.000000
# 6 0.000000 0.000000 0.000000 0.000000 0.000000 -0.178511
#
#
# Mechanical properties :
#
#
# Convention : Reuss Voigt Hill
#
# Bulk Modulus (GPa) = 5.35368 6.03016 5.69192
# Shear Modulus (GPa) = -186.13586 21.68706 -82.22440
#
# Velocity S-wave (km/s) = -9.13975 3.11975 -6.07463
# Velocity P-wave (km/s) = 10.43923 3.96022 6.82987
#
# Compressibility (1/GPa) = 0.18678748
#
# Stress axis : x y z
#
# Youngs Moduli (GPa) = 47.33118 24.69175 27.59409
#
# Poissons Ratio (x) = -0.32579 -0.37186
# Poissons Ratio (y) = -0.62451 -0.49089
# Poissons Ratio (z) = -0.63784 -0.43926
#
# Static dielectric constant tensor:
#      x y z
#    x 1.947860 0.000000 0.000000 
#    y 0.000000 1.840750 0.000000 
#    z 0.000000 0.000000 1.976470 
# 
# From -- ./inp_files/9601.got.cif
#   From: 2010.05.17/outbox.cif.g08.bks.cpg/sg20_5_cif.got.tgz:9601.got - 2010.06.03 22:52:26.
