data_PCOD9317481
_publ_section_title
;
Structure prediction by ZEFSAII (Michael W. Deem and Ramdas Pophale) SiO2 
 PCOD9317481
Probable space group: C 2 2 21
;
_chemical_formula_sum "Si O2"
_cell_formula_units_Z 40
_cell_length_a 12.155557
_cell_length_b 15.096014
_cell_length_c 10.121349
_cell_angle_alpha 90.000000
_cell_angle_beta 90.000000
_cell_angle_gamma 90.000000
_cell_volume 1857.272184
_symmetry_space_group_name_H-M "C 2 2 21"
_symmetry_group_IT_number 20
_symmetry_cell_setting 'orthorhombic'
loop_
_space_group_symop_operation_xyz
x,y,z
-x,-y,1/2+z
x,-y,-z
-x,y,1/2-z
1/2+x,1/2+y,z
1/2-x,1/2-y,1/2+z
1/2+x,1/2-y,-z
1/2-x,1/2+y,1/2-z
loop_
_atom_site_type_symbol
_atom_site_label
_atom_site_fract_x
_atom_site_fract_y
_atom_site_fract_z
Si Si1 0.494485 0.245999 0.026160
Si Si2 0.360578 0.625758 0.131661
Si Si3 0.215709 0.051811 0.654009
Si Si4 0.456658 0.061613 0.604952
Si Si5 0.820838 0.239117 0.743713
O O1 0.588204 0.271683 0.129679
O O2 0.385664 0.233595 0.120413
O O3 0.466238 0.316200 0.910231
O O4 0.540098 0.157561 0.959679
O O5 0.360371 0.529447 0.202856
O O6 0.271997 0.690726 0.200126
O O7 0.323454 0.591727 0.985973
O O8 0.338341 0.016945 0.631576
O O9 0.225928 0.140062 0.740626
O O10 0.500000 0.069181 0.750000
O O11 0.518783 0.000000 0.500000
#
# Coordination Sequence:
#
# PCOD9317481 Si02
#       5
#     8   8   8   8   8
#     4  10  22  38  65  92 128 170 222 274 329 405
#     4  10  19  39  62  91 130 170 212 272 339 391
#     4  10  20  37  66  88 130 175 210 267 342 389
#     4  12  24  38  65 104 133 171 225 279 336 399
#     4  10  20  38  68  94 125 175 223 276 336 402
#
# _framework density 21.536961999999999
#
# number of rings (size 3 to 8) (size 9 to 14) (size 15 to 20)
#    0.000    1.600    4.000    1.200    5.600    0.000 
#    0.000    0.000   48.400    0.000    0.000    0.000 
#    0.000    0.000    0.000    0.000    0.000    0.000 
#
# Total GULP energy -111395.804276 kJ/mol
# GULP energy per Si atom -5569.790214 kJ/mol
# Density = 2.148794 g / cm^3
# Si number density = 21.536962 Si / 1000 Ang^3
#
#
#
# Elastic Constant Matrix: (Units=GPa)
#
#
# Indices 1 2 3 4 5 6 
#
# 1 27.6855 9.6608 3.1493 0.0000 0.0000 0.0000
# 2 9.6608 143.5726 30.7743 0.0000 0.0000 0.0000
# 3 3.1493 30.7743 67.8593 0.0000 0.0000 0.0000
# 4 0.0000 0.0000 0.0000 34.4662 0.0000 0.0000
# 5 0.0000 0.0000 0.0000 0.0000 16.3781 0.0000
# 6 0.0000 0.0000 0.0000 0.0000 0.0000 17.7540
#
#
#
# Elastic Compliance Matrix: (Units=1/GPa)
#
#
# Indices 1 2 3 4 5 6 
#
# 1 0.037014 -0.002351 -0.000652 0.000000 0.000000 0.000000
# 2 -0.002351 0.007864 -0.003457 0.000000 0.000000 0.000000
# 3 -0.000652 -0.003457 0.016335 0.000000 0.000000 0.000000
# 4 0.000000 0.000000 0.000000 0.029014 0.000000 0.000000
# 5 0.000000 0.000000 0.000000 0.000000 0.061057 0.000000
# 6 0.000000 0.000000 0.000000 0.000000 0.000000 0.056325
#
#
# Mechanical properties :
#
#
# Convention : Reuss Voigt Hill
#
# Bulk Modulus (GPa) = 20.70677 36.25402 28.48039
# Shear Modulus (GPa) = 21.13025 26.75521 23.94273
#
# Velocity S-wave (km/s) = 3.13567 3.52844 3.33784
# Velocity P-wave (km/s) = 4.76921 5.78531 5.30166
#
# Compressibility (1/GPa) = 0.04829339
#
# Stress axis : x y z
#
# Youngs Moduli (GPa) = 27.01645 127.15536 61.21989
#
# Poissons Ratio (x) = 0.29894 0.03989
# Poissons Ratio (y) = 0.06351 0.21166
# Poissons Ratio (z) = 0.01761 0.43963
#
# Static dielectric constant tensor:
#      x y z
#    x 1.816730 0.000000 0.000000 
#    y 0.000000 1.794510 0.000000 
#    z 0.000000 0.000000 1.803410 
# 
# From -- ./inp_files/8098.got.cif
#   From: 2010.05.17/outbox.cif.g08.bks.cpg/sg20_5_cif.got.tgz:8098.got - 2010.06.03 22:52:26.
