data_PCOD9317785
_publ_section_title
;
Structure prediction by ZEFSAII (Michael W. Deem and Ramdas Pophale) SiO2 
 PCOD9317785
Probable space group: C 2 2 21
;
_chemical_formula_sum "Si O2"
_cell_formula_units_Z 48
_cell_length_a 19.200231
_cell_length_b 14.629253
_cell_length_c 7.729800
_cell_angle_alpha 90.000000
_cell_angle_beta 90.000000
_cell_angle_gamma 90.000000
_cell_volume 2171.185159
_symmetry_space_group_name_H-M "C 2 2 21"
_symmetry_group_IT_number 20
_symmetry_cell_setting 'orthorhombic'
loop_
_space_group_symop_operation_xyz
x,y,z
-x,-y,1/2+z
x,-y,-z
-x,y,1/2-z
1/2+x,1/2+y,z
1/2-x,1/2-y,1/2+z
1/2+x,1/2-y,-z
1/2-x,1/2+y,1/2-z
loop_
_atom_site_type_symbol
_atom_site_label
_atom_site_fract_x
_atom_site_fract_y
_atom_site_fract_z
Si Si1 0.500000 0.079919 0.750000
Si Si2 0.431345 0.778134 0.505352
Si Si3 0.607193 0.000000 0.500000
Si Si4 0.323901 0.133296 0.232663
Si Si5 0.500000 0.641802 0.750000
Si Si6 0.755580 0.500000 0.500000
Si Si7 0.150793 0.057568 0.751718
Si Si8 0.823361 0.853693 0.618294
O O1 0.468738 0.141222 0.596010
O O2 0.440439 0.019594 0.835186
O O3 0.382738 0.811224 0.665433
O O4 0.485633 0.706785 0.586199
O O5 0.381422 0.723800 0.373882
O O6 0.651152 0.911972 0.553967
O O7 0.302519 0.050136 0.359598
O O8 0.250467 0.180637 0.189277
O O9 0.570641 0.584542 0.722784
O O10 0.704029 0.571339 0.594793
O O11 0.155841 0.948866 0.789445
O O12 0.177769 0.113658 0.917669
#
# Coordination Sequence:
#
# PCOD9317785 Si02
#       8
#     4   8   4   8   4   4   8   8
#     4  12  26  42  62  88 118 154 200 240 300 358
#     4  11  24  39  60  90 124 154 190 249 303 352
#     4  12  24  43  66  83 114 158 202 246 286 360
#     4  11  22  39  63  87 117 155 199 249 299 348
#     4  10  22  40  60  86 124 162 200 236 292 352
#     4  10  20  35  60  91 114 152 208 248 292 346
#     4   9  19  37  60  86 120 162 202 241 281 353
#     4   9  21  39  59  87 120 157 200 242 294 348
#
# _framework density 22.107741000000001
#
# number of rings (size 3 to 8) (size 9 to 14) (size 15 to 20)
#    0.000    1.667    0.000    5.000    0.000   10.000 
#    0.000    0.000    0.000    0.000    0.000    0.000 
#    0.000    0.000    0.000    0.000    0.000    0.000 
#
# Total GULP energy -134159.343837 kJ/mol
# GULP energy per Si atom -5589.972660 kJ/mol
# Density = 2.205742 g / cm^3
# Si number density = 22.107741 Si / 1000 Ang^3
#
#
#
# Elastic Constant Matrix: (Units=GPa)
#
#
# Indices 1 2 3 4 5 6 
#
# 1 102.0611 20.1795 30.7667 0.0000 0.0000 0.0000
# 2 20.1795 39.8261 -3.2285 0.0000 0.0000 0.0000
# 3 30.7667 -3.2285 53.3956 0.0000 0.0000 0.0000
# 4 0.0000 0.0000 0.0000 25.5655 0.0000 0.0000
# 5 0.0000 0.0000 0.0000 0.0000 48.4710 0.0000
# 6 0.0000 0.0000 0.0000 0.0000 0.0000 1.7028
#
#
#
# Elastic Compliance Matrix: (Units=1/GPa)
#
#
# Indices 1 2 3 4 5 6 
#
# 1 0.013874 -0.007716 -0.008461 0.000000 0.000000 0.000000
# 2 -0.007716 0.029524 0.006231 0.000000 0.000000 0.000000
# 3 -0.008461 0.006231 0.023980 0.000000 0.000000 0.000000
# 4 0.000000 0.000000 0.000000 0.039115 0.000000 0.000000
# 5 0.000000 0.000000 0.000000 0.000000 0.020631 0.000000
# 6 0.000000 0.000000 0.000000 0.000000 0.000000 0.587257
#
#
# Mechanical properties :
#
#
# Convention : Reuss Voigt Hill
#
# Bulk Modulus (GPa) = 21.05854 32.30203 26.68029
# Shear Modulus (GPa) = 6.66577 24.98554 15.82566
#
# Velocity S-wave (km/s) = 1.73830 3.36545 2.67843
# Velocity P-wave (km/s) = 3.68443 5.45386 4.65401
#
# Compressibility (1/GPa) = 0.04748667
#
# Stress axis : x y z
#
# Youngs Moduli (GPa) = 72.07638 33.87098 41.70134
#
# Poissons Ratio (x) = 0.26134 0.35283
# Poissons Ratio (y) = 0.55613 -0.25984
# Poissons Ratio (z) = 0.60983 -0.21105
#
# Static dielectric constant tensor:
#      x y z
#    x 1.793310 0.000000 0.000000 
#    y 0.000000 1.809630 0.000000 
#    z 0.000000 0.000000 1.831080 
# 
# From -- ./inp_files/8505.got.cif
#   From: 2010.05.17/outbox.cif.g08.bks.cpg/sg20_5_cif.got.tgz:8505.got - 2010.06.03 22:52:26.
