data_PCOD9317382
_publ_section_title
;
Structure prediction by ZEFSAII (Michael W. Deem and Ramdas Pophale) SiO2 
 PCOD9317382
Probable space group: C 2 2 21
;
_chemical_formula_sum "Si O2"
_cell_formula_units_Z 64
_cell_length_a 17.061622
_cell_length_b 11.583131
_cell_length_c 14.538298
_cell_angle_alpha 90.000000
_cell_angle_beta 90.000000
_cell_angle_gamma 90.000000
_cell_volume 2873.160258
_symmetry_space_group_name_H-M "C 2 2 21"
_symmetry_group_IT_number 20
_symmetry_cell_setting 'orthorhombic'
loop_
_space_group_symop_operation_xyz
x,y,z
-x,-y,1/2+z
x,-y,-z
-x,y,1/2-z
1/2+x,1/2+y,z
1/2-x,1/2-y,1/2+z
1/2+x,1/2-y,-z
1/2-x,1/2+y,1/2-z
loop_
_atom_site_type_symbol
_atom_site_label
_atom_site_fract_x
_atom_site_fract_y
_atom_site_fract_z
Si Si1 0.261441 0.859583 0.509605
Si Si2 0.846052 0.173329 0.182597
Si Si3 0.130992 0.753808 0.379128
Si Si4 0.978604 0.753482 0.958845
Si Si5 0.091223 0.610044 0.219337
Si Si6 0.088837 0.951453 0.241448
Si Si7 0.389409 0.305364 0.431756
Si Si8 0.420609 0.144046 0.688971
O O1 0.225613 0.832112 0.611398
O O2 0.198723 0.823996 0.431195
O O3 0.323944 0.753640 0.504398
O O4 0.278134 0.000000 0.500000
O O5 0.920763 0.192927 0.115324
O O6 0.859467 0.268105 0.262984
O O7 0.853173 0.049865 0.227617
O O8 0.075936 0.704281 0.460175
O O9 0.145042 0.654751 0.303621
O O10 0.087596 0.847133 0.314707
O O11 0.040168 0.669565 0.909415
O O12 0.036290 0.842714 0.007957
O O13 0.091902 0.695722 0.133765
O O14 0.115201 0.482412 0.190877
O O15 0.000000 0.606674 0.250000
O O16 0.119913 0.904740 0.143874
O O17 0.000000 0.998659 0.250000
O O18 0.500000 0.146182 0.750000
#
# Coordination Sequence:
#
# PCOD9317382 Si02
#       8
#     8   8   8   8   8   8   8   8
#     4  11  24  42  63  95 131 181 224 265 327 408
#     4  10  22  43  63  94 129 178 217 259 339 393
#     4  10  19  39  66  94 126 170 223 265 332 390
#     4  10  19  37  62  97 124 156 220 279 310 379
#     4  10  19  39  64  94 129 169 213 272 335 387
#     4  11  19  39  71  96 127 165 221 282 333 392
#     4  11  23  38  61 102 125 162 222 272 330 385
#     4   9  20  37  57  93 127 159 209 262 327 382
#
# _framework density 22.275124000000002
#
# number of rings (size 3 to 8) (size 9 to 14) (size 15 to 20)
#    0.000    1.750    3.750    1.875    1.750    0.000 
#   11.250    1.875    0.000    3.000    0.000    0.000 
#    0.000    0.000    0.000    0.000    0.000    0.000 
#
# Total GULP energy -178276.457542 kJ/mol
# GULP energy per Si atom -5571.139298 kJ/mol
# Density = 2.222442 g / cm^3
# Si number density = 22.275124 Si / 1000 Ang^3
#
#
#
# Elastic Constant Matrix: (Units=GPa)
#
#
# Indices 1 2 3 4 5 6 
#
# 1 38.2793 -13.5526 -4.8388 0.0000 0.0000 0.0000
# 2 -13.5526 62.9334 4.8165 0.0000 0.0000 0.0000
# 3 -4.8388 4.8165 58.4663 0.0000 0.0000 0.0000
# 4 0.0000 0.0000 0.0000 11.5321 0.0000 0.0000
# 5 0.0000 0.0000 0.0000 0.0000 31.9776 0.0000
# 6 0.0000 0.0000 0.0000 0.0000 0.0000 -26.9359
#
#
#
# Elastic Compliance Matrix: (Units=1/GPa)
#
#
# Indices 1 2 3 4 5 6 
#
# 1 0.028480 0.005991 0.001864 0.000000 0.000000 0.000000
# 2 0.005991 0.017251 -0.000925 0.000000 0.000000 0.000000
# 3 0.001864 -0.000925 0.017334 0.000000 0.000000 0.000000
# 4 0.000000 0.000000 0.000000 0.086714 0.000000 0.000000
# 5 0.000000 0.000000 0.000000 0.000000 0.031272 0.000000
# 6 0.000000 0.000000 0.000000 0.000000 0.000000 -0.037125
#
#
# Mechanical properties :
#
#
# Convention : Reuss Voigt Hill
#
# Bulk Modulus (GPa) = 13.00006 14.72549 13.86277
# Shear Modulus (GPa) = 32.11108 14.86503 23.48805
#
# Velocity S-wave (km/s) = 3.80092 2.58609 3.25076
# Velocity P-wave (km/s) = 5.01113 3.94236 4.50853
#
# Compressibility (1/GPa) = 0.07692275
#
# Stress axis : x y z
#
# Youngs Moduli (GPa) = 35.11207 57.96877 57.68897
#
# Poissons Ratio (x) = -0.34726 -0.10751
# Poissons Ratio (y) = -0.21034 0.05338
# Poissons Ratio (z) = -0.06543 0.05364
#
# Static dielectric constant tensor:
#      x y z
#    x 1.894680 0.000000 0.000000 
#    y 0.000000 1.791610 0.000000 
#    z 0.000000 0.000000 1.860720 
# 
# From -- ./inp_files/21501.got.cif
#   From: 2010.05.17/outbox.cif.g08.bks.cpg/sg20_11_cif.got.tgz:21501.got - 2010.06.03 22:52:26.
