data_PCOD9317614
_publ_section_title
;
Structure prediction by ZEFSAII (Michael W. Deem and Ramdas Pophale) SiO2 
 PCOD9317614
Probable space group: C 2 2 21
;
_chemical_formula_sum "Si O2"
_cell_formula_units_Z 44
_cell_length_a 21.533626
_cell_length_b 11.292257
_cell_length_c 8.567980
_cell_angle_alpha 90.000000
_cell_angle_beta 90.000000
_cell_angle_gamma 90.000000
_cell_volume 2083.417768
_symmetry_space_group_name_H-M "C 2 2 21"
_symmetry_group_IT_number 20
_symmetry_cell_setting 'orthorhombic'
loop_
_space_group_symop_operation_xyz
x,y,z
-x,-y,1/2+z
x,-y,-z
-x,y,1/2-z
1/2+x,1/2+y,z
1/2-x,1/2-y,1/2+z
1/2+x,1/2-y,-z
1/2-x,1/2+y,1/2-z
loop_
_atom_site_type_symbol
_atom_site_label
_atom_site_fract_x
_atom_site_fract_y
_atom_site_fract_z
Si Si1 0.240763 0.631189 0.048156
Si Si2 0.048216 0.385958 0.605067
Si Si3 0.638508 0.452135 0.715382
Si Si4 0.928160 0.000000 0.500000
Si Si5 0.164965 0.226737 0.709617
Si Si6 0.476804 0.661535 0.072315
O O1 0.294154 0.592851 0.171430
O O2 0.193313 0.717603 0.133265
O O3 0.215055 0.500000 0.000000
O O4 0.278092 0.700369 0.911449
O O5 0.062499 0.500000 0.500000
O O6 0.111453 0.318465 0.657592
O O7 0.019571 0.294802 0.480743
O O8 0.000000 0.404752 0.750000
O O9 0.614335 0.423676 0.886866
O O10 0.637098 0.594757 0.726350
O O11 0.592021 0.392217 0.591421
O O12 0.980398 0.094192 0.554408
O O13 0.500000 0.645625 0.250000
#
# Coordination Sequence:
#
# PCOD9317614 Si02
#       6
#     8   8   8   4   8   8
#     4  10  24  44  66  97 136 179 226 285 342 415
#     4  12  26  44  66  96 136 186 229 286 344 420
#     4  10  21  40  66  99 130 162 224 276 338 396
#     4  10  20  32  68 102 122 162 208 274 330 408
#     4  11  24  44  69  94 136 179 227 290 342 406
#     4  10  20  40  65  96 133 169 212 276 346 401
#
# _framework density 21.119143999999999
#
# number of rings (size 3 to 8) (size 9 to 14) (size 15 to 20)
#    0.000    1.455    1.818    2.727    3.818    5.091 
#    0.000    0.000    0.000    0.000    0.000    0.000 
#    0.000    0.000    0.000    0.000    0.000    0.000 
#
# Total GULP energy -122501.226231 kJ/mol
# GULP energy per Si atom -5568.237556 kJ/mol
# Density = 2.107108 g / cm^3
# Si number density = 21.119144 Si / 1000 Ang^3
#
#
#
# Elastic Constant Matrix: (Units=GPa)
#
#
# Indices 1 2 3 4 5 6 
#
# 1 39.5676 29.3888 21.0112 0.0000 0.0000 0.0000
# 2 29.3888 109.4178 7.8629 0.0000 0.0000 0.0000
# 3 21.0112 7.8629 60.2197 0.0000 0.0000 0.0000
# 4 0.0000 0.0000 0.0000 39.8205 0.0000 0.0000
# 5 0.0000 0.0000 0.0000 0.0000 39.0829 0.0000
# 6 0.0000 0.0000 0.0000 0.0000 0.0000 16.0727
#
#
#
# Elastic Compliance Matrix: (Units=1/GPa)
#
#
# Indices 1 2 3 4 5 6 
#
# 1 0.038931 -0.009570 -0.012334 0.000000 0.000000 0.000000
# 2 -0.009570 0.011578 0.001827 0.000000 0.000000 0.000000
# 3 -0.012334 0.001827 0.020671 0.000000 0.000000 0.000000
# 4 0.000000 0.000000 0.000000 0.025113 0.000000 0.000000
# 5 0.000000 0.000000 0.000000 0.000000 0.025587 0.000000
# 6 0.000000 0.000000 0.000000 0.000000 0.000000 0.062217
#
#
# Mechanical properties :
#
#
# Convention : Reuss Voigt Hill
#
# Bulk Modulus (GPa) = 32.23030 36.19233 34.21131
# Shear Modulus (GPa) = 21.31353 29.05802 25.18577
#
# Velocity S-wave (km/s) = 3.18024 3.71335 3.45709
# Velocity P-wave (km/s) = 5.36466 5.96319 5.67183
#
# Compressibility (1/GPa) = 0.03102671
#
# Stress axis : x y z
#
# Youngs Moduli (GPa) = 25.68639 86.36710 48.37774
#
# Poissons Ratio (x) = 0.82656 0.59668
# Poissons Ratio (y) = 0.24583 -0.08840
# Poissons Ratio (z) = 0.31681 -0.15782
#
# Static dielectric constant tensor:
#      x y z
#    x 1.801560 0.000000 0.000000 
#    y 0.000000 1.820040 0.000000 
#    z 0.000000 0.000000 1.957900 
# 
# From -- ./inp_files/10605.got.cif
#   From: 2010.05.17/outbox.cif.g08.bks.cpg/sg20_6_cif.got.tgz:10605.got - 2010.06.03 22:52:26.
