data_PCOD9317402
_publ_section_title
;
Structure prediction by ZEFSAII (Michael W. Deem and Ramdas Pophale) SiO2 
 PCOD9317402
Probable space group: C 2 2 21
;
_chemical_formula_sum "Si O2"
_cell_formula_units_Z 64
_cell_length_a 17.380624
_cell_length_b 11.293204
_cell_length_c 16.658683
_cell_angle_alpha 90.000000
_cell_angle_beta 90.000000
_cell_angle_gamma 90.000000
_cell_volume 3269.815150
_symmetry_space_group_name_H-M "C 2 2 21"
_symmetry_group_IT_number 20
_symmetry_cell_setting 'orthorhombic'
loop_
_space_group_symop_operation_xyz
x,y,z
-x,-y,1/2+z
x,-y,-z
-x,y,1/2-z
1/2+x,1/2+y,z
1/2-x,1/2-y,1/2+z
1/2+x,1/2-y,-z
1/2-x,1/2+y,1/2-z
loop_
_atom_site_type_symbol
_atom_site_label
_atom_site_fract_x
_atom_site_fract_y
_atom_site_fract_z
Si Si1 0.823027 0.612948 0.800213
Si Si2 0.603959 0.868552 0.023697
Si Si3 0.605428 0.739617 0.598611
Si Si4 0.690709 0.491173 0.096410
Si Si5 0.776834 0.741280 0.646752
Si Si6 0.585670 0.902119 0.742418
Si Si7 0.567163 0.302700 0.126194
Si Si8 0.574715 0.881876 0.448863
O O1 0.756055 0.589362 0.864074
O O2 0.796670 0.711432 0.738219
O O3 0.848141 0.498657 0.746445
O O4 0.893863 0.633357 0.859755
O O5 0.662309 0.819994 0.088515
O O6 0.517261 0.882726 0.055542
O O7 0.594971 0.776982 0.949578
O O8 0.629524 0.000000 0.000000
O O9 0.690044 0.698547 0.625124
O O10 0.594919 0.858593 0.651403
O O11 0.524915 0.674702 0.619314
O O12 0.602959 0.774763 0.505637
O O13 0.710546 0.620189 0.130264
O O14 0.612326 0.426265 0.123622
O O15 0.693036 0.500000 0.000000
O O16 0.500000 0.953968 0.750000
O O17 0.585548 0.784589 0.798454
O O18 0.598056 0.000000 0.500000
#
# Coordination Sequence:
#
# PCOD9317402 Si02
#       8
#     8   8   8   8   8   8   8   8
#     4  12  24  36  66  97 133 162 221 283 341 381
#     4  10  22  39  64  98 129 162 217 279 342 396
#     4  10  20  41  62  90 127 177 223 261 330 407
#     4  12  24  44  69  95 130 182 229 268 333 412
#     4  12  24  40  64  97 136 171 225 280 332 395
#     4  10  20  36  65  93 124 166 215 273 332 395
#     4  10  22  40  69  92 127 175 223 271 335 406
#     4  10  19  37  65  94 119 162 213 278 334 393
#
# _framework density 19.572970999999999
#
# number of rings (size 3 to 8) (size 9 to 14) (size 15 to 20)
#    0.000    1.250    3.750    2.625    3.500    0.000 
#    0.000    0.625   13.750    0.000    0.000    0.000 
#    0.000    0.000    0.000    0.000    0.000    0.000 
#
# Total GULP energy -178500.276081 kJ/mol
# GULP energy per Si atom -5578.133628 kJ/mol
# Density = 1.952842 g / cm^3
# Si number density = 19.572971 Si / 1000 Ang^3
#
#
#
# Elastic Constant Matrix: (Units=GPa)
#
#
# Indices 1 2 3 4 5 6 
#
# 1 85.9634 20.3204 36.5515 0.0000 0.0000 0.0000
# 2 20.3204 36.4244 25.5366 0.0000 0.0000 0.0000
# 3 36.5515 25.5366 109.0040 0.0000 0.0000 0.0000
# 4 0.0000 0.0000 0.0000 25.8923 0.0000 0.0000
# 5 0.0000 0.0000 0.0000 0.0000 27.9364 0.0000
# 6 0.0000 0.0000 0.0000 0.0000 0.0000 23.9601
#
#
#
# Elastic Compliance Matrix: (Units=1/GPa)
#
#
# Indices 1 2 3 4 5 6 
#
# 1 0.014458 -0.005584 -0.003540 0.000000 0.000000 0.000000
# 2 -0.005584 0.035006 -0.006329 0.000000 0.000000 0.000000
# 3 -0.003540 -0.006329 0.011844 0.000000 0.000000 0.000000
# 4 0.000000 0.000000 0.000000 0.038622 0.000000 0.000000
# 5 0.000000 0.000000 0.000000 0.000000 0.035796 0.000000
# 6 0.000000 0.000000 0.000000 0.000000 0.000000 0.041736
#
#
# Mechanical properties :
#
#
# Convention : Reuss Voigt Hill
#
# Bulk Modulus (GPa) = 32.89166 44.02319 38.45743
# Shear Modulus (GPa) = 22.88328 25.48998 24.18663
#
# Velocity S-wave (km/s) = 3.42296 3.61266 3.51909
# Velocity P-wave (km/s) = 5.69766 6.32000 6.01688
#
# Compressibility (1/GPa) = 0.03040284
#
# Stress axis : x y z
#
# Youngs Moduli (GPa) = 69.16586 28.56639 84.43388
#
# Poissons Ratio (x) = 0.15952 0.29889
# Poissons Ratio (y) = 0.38622 0.53434
# Poissons Ratio (z) = 0.24484 0.18078
#
# Static dielectric constant tensor:
#      x y z
#    x 1.753320 0.000000 0.000000 
#    y 0.000000 1.700560 0.000000 
#    z 0.000000 0.000000 1.709870 
# 
# From -- ./inp_files/24999.got.cif
#   From: 2010.05.17/outbox.cif.g08.bks.cpg/sg20_13_cif.got.tgz:24999.got - 2010.06.03 22:52:26.
