data_PCOD9317677
_publ_section_title
;
Structure prediction by ZEFSAII (Michael W. Deem and Ramdas Pophale) SiO2 
 PCOD9317677
Probable space group: C 2 2 21
;
_chemical_formula_sum "Si O2"
_cell_formula_units_Z 40
_cell_length_a 14.601633
_cell_length_b 18.433678
_cell_length_c 8.205994
_cell_angle_alpha 90.000000
_cell_angle_beta 90.000000
_cell_angle_gamma 90.000000
_cell_volume 2208.740124
_symmetry_space_group_name_H-M "C 2 2 21"
_symmetry_group_IT_number 20
_symmetry_cell_setting 'orthorhombic'
loop_
_space_group_symop_operation_xyz
x,y,z
-x,-y,1/2+z
x,-y,-z
-x,y,1/2-z
1/2+x,1/2+y,z
1/2-x,1/2-y,1/2+z
1/2+x,1/2-y,-z
1/2-x,1/2+y,1/2-z
loop_
_atom_site_type_symbol
_atom_site_label
_atom_site_fract_x
_atom_site_fract_y
_atom_site_fract_z
Si Si1 0.937933 0.211606 0.905896
Si Si2 0.105411 0.840682 0.888425
Si Si3 0.099445 0.690536 0.695012
Si Si4 0.209951 0.122771 0.790838
Si Si5 0.100942 0.010699 0.306173
O O1 0.851002 0.166952 0.841414
O O2 0.000000 0.230999 0.750000
O O3 0.907965 0.281138 0.009677
O O4 0.006266 0.164751 0.021608
O O5 0.117112 0.764839 0.796178
O O6 0.110875 0.908887 0.767718
O O7 0.177946 0.849424 0.032517
O O8 0.183182 0.637469 0.726998
O O9 0.000000 0.662686 0.750000
O O10 0.177265 0.040480 0.773181
O O11 0.000000 0.984254 0.250000
O O12 0.106681 0.000000 0.500000
#
# Coordination Sequence:
#
# PCOD9317677 Si02
#       5
#     8   8   8   8   8
#     4   9  18  33  52  78 108 136 168 213 265 314
#     4  10  20  34  54  80 108 137 171 213 266 314
#     4  10  20  35  54  77 107 141 177 215 252 303
#     4  11  20  32  53  80 110 139 172 212 260 313
#     4  12  22  34  54  81 111 137 167 213 269 320
#
# _framework density 18.109873
#
# number of rings (size 3 to 8) (size 9 to 14) (size 15 to 20)
#    0.000    1.600    0.000    9.000    0.000    0.000 
#    0.000    2.000    0.000    2.400    0.000    5.600 
#    0.000    0.000    0.000    0.000    0.000    0.000 
#
# Total GULP energy -111717.199957 kJ/mol
# GULP energy per Si atom -5585.859998 kJ/mol
# Density = 1.806865 g / cm^3
# Si number density = 18.109873 Si / 1000 Ang^3
#
#
#
# Elastic Constant Matrix: (Units=GPa)
#
#
# Indices 1 2 3 4 5 6 
#
# 1 132.2954 59.1476 20.7885 0.0000 0.0000 0.0000
# 2 59.1476 56.1706 19.1299 0.0000 0.0000 0.0000
# 3 20.7885 19.1299 71.9719 0.0000 0.0000 0.0000
# 4 0.0000 0.0000 0.0000 15.9923 0.0000 0.0000
# 5 0.0000 0.0000 0.0000 0.0000 15.1949 0.0000
# 6 0.0000 0.0000 0.0000 0.0000 0.0000 -10.3225
#
#
#
# Elastic Compliance Matrix: (Units=1/GPa)
#
#
# Indices 1 2 3 4 5 6 
#
# 1 0.014284 -0.014994 -0.000141 0.000000 0.000000 0.000000
# 2 -0.014994 0.035313 -0.005055 0.000000 0.000000 0.000000
# 3 -0.000141 -0.005055 0.015279 0.000000 0.000000 0.000000
# 4 0.000000 0.000000 0.000000 0.062530 0.000000 0.000000
# 5 0.000000 0.000000 0.000000 0.000000 0.065812 0.000000
# 6 0.000000 0.000000 0.000000 0.000000 0.000000 -0.096875
#
#
# Mechanical properties :
#
#
# Convention : Reuss Voigt Hill
#
# Bulk Modulus (GPa) = 40.82164 50.95220 45.88692
# Shear Modulus (GPa) = 34.50969 14.93104 24.72036
#
# Velocity S-wave (km/s) = 4.37002 2.87447 3.69863
# Velocity P-wave (km/s) = 6.93202 6.26202 6.60552
#
# Compressibility (1/GPa) = 0.02449681
#
# Stress axis : x y z
#
# Youngs Moduli (GPa) = 70.00660 28.31839 65.45094
#
# Poissons Ratio (x) = 0.42459 0.00921
# Poissons Ratio (y) = 1.04965 0.33087
# Poissons Ratio (z) = 0.00985 0.14316
#
# Static dielectric constant tensor:
#      x y z
#    x 1.616910 0.000000 0.000000 
#    y 0.000000 1.622620 0.000000 
#    z 0.000000 0.000000 1.665290 
# 
# From -- ./inp_files/7218.got.cif
#   From: 2010.05.17/outbox.cif.g08.bks.cpg/sg20_4_cif.got.tgz:7218.got - 2010.06.03 22:52:26.
