data_PCOD9317955
_publ_section_title
;
Structure prediction by ZEFSAII (Michael W. Deem and Ramdas Pophale) SiO2 
 PCOD9317955
Probable space group: C 2 2 21
;
_chemical_formula_sum "Si O2"
_cell_formula_units_Z 60
_cell_length_a 26.776727
_cell_length_b 9.841727
_cell_length_c 11.430824
_cell_angle_alpha 90.000000
_cell_angle_beta 90.000000
_cell_angle_gamma 90.000000
_cell_volume 3012.356328
_symmetry_space_group_name_H-M "C 2 2 21"
_symmetry_group_IT_number 20
_symmetry_cell_setting 'orthorhombic'
loop_
_space_group_symop_operation_xyz
x,y,z
-x,-y,1/2+z
x,-y,-z
-x,y,1/2-z
1/2+x,1/2+y,z
1/2-x,1/2-y,1/2+z
1/2+x,1/2-y,-z
1/2-x,1/2+y,1/2-z
loop_
_atom_site_type_symbol
_atom_site_label
_atom_site_fract_x
_atom_site_fract_y
_atom_site_fract_z
Si Si1 0.060122 0.720873 0.673572
Si Si2 0.036987 0.359272 0.061945
Si Si3 0.739294 0.102214 0.891355
Si Si4 0.757269 0.640125 0.964331
Si Si5 0.174172 0.961838 0.207823
Si Si6 0.500000 0.477467 0.750000
Si Si7 0.921184 0.883992 0.408224
Si Si8 0.669500 0.230965 0.724289
O O1 0.052987 0.652420 0.802098
O O2 0.118454 0.707206 0.654530
O O3 0.022759 0.664292 0.575702
O O4 0.040757 0.875346 0.693412
O O5 0.047129 0.500000 0.000000
O O6 0.065228 0.245921 0.985764
O O7 0.788932 0.065485 0.817565
O O8 0.689001 0.113719 0.812687
O O9 0.746547 0.257953 0.931448
O O10 0.733358 0.000000 0.000000
O O11 0.707879 0.586713 0.900203
O O12 0.786856 0.730201 0.870887
O O13 0.784543 0.500000 0.000000
O O14 0.122467 0.880374 0.189305
O O15 0.163168 0.122932 0.213601
O O16 0.528460 0.565863 0.845189
O O17 0.905141 0.000000 0.500000
#
# Coordination Sequence:
#
# PCOD9317955 Si02
#       8
#     8   8   8   8   8   4   8   8
#     4  10  21  42  63  93 130 166 217 269 327 391
#     4  10  23  42  65  91 135 172 203 271 339 383
#     4  11  24  43  63  94 133 173 213 270 328 388
#     4  11  23  41  63  91 130 173 215 267 328 388
#     4  11  23  39  67  97 127 168 227 269 324 393
#     4  10  20  36  66  98 122 154 228 274 314 396
#     4  12  21  41  70  98 121 172 226 273 325 393
#     4  11  22  40  67  94 128 174 220 271 323 391
#
# _framework density 19.917963
#
# number of rings (size 3 to 8) (size 9 to 14) (size 15 to 20)
#    0.000    1.333    6.667    0.400    1.867    2.133 
#    4.800    2.000    0.000    0.000    0.000    0.000 
#    0.000    0.000    0.000    0.000    0.000    0.000 
#
# Total GULP energy -167230.663169 kJ/mol
# GULP energy per Si atom -5574.355439 kJ/mol
# Density = 1.987263 g / cm^3
# Si number density = 19.917963 Si / 1000 Ang^3
#
#
#
# Elastic Constant Matrix: (Units=GPa)
#
#
# Indices 1 2 3 4 5 6 
#
# 1 94.3584 18.1405 12.3500 0.0000 0.0000 0.0000
# 2 18.1405 98.0579 19.1176 0.0000 0.0000 0.0000
# 3 12.3500 19.1176 38.5345 0.0000 0.0000 0.0000
# 4 0.0000 0.0000 0.0000 14.8211 0.0000 0.0000
# 5 0.0000 0.0000 0.0000 0.0000 15.4531 0.0000
# 6 0.0000 0.0000 0.0000 0.0000 0.0000 -5.5880
#
#
#
# Elastic Compliance Matrix: (Units=1/GPa)
#
#
# Indices 1 2 3 4 5 6 
#
# 1 0.011265 -0.001528 -0.002852 0.000000 0.000000 0.000000
# 2 -0.001528 0.011497 -0.005214 0.000000 0.000000 0.000000
# 3 -0.002852 -0.005214 0.029452 0.000000 0.000000 0.000000
# 4 0.000000 0.000000 0.000000 0.067471 0.000000 0.000000
# 5 0.000000 0.000000 0.000000 0.000000 0.064712 0.000000
# 6 0.000000 0.000000 0.000000 0.000000 0.000000 -0.178954
#
#
# Mechanical properties :
#
#
# Convention : Reuss Voigt Hill
#
# Bulk Modulus (GPa) = 30.28008 36.68522 33.48265
# Shear Modulus (GPa) = 140.28718 17.02675 78.65696
#
# Velocity S-wave (km/s) = 8.40151 2.92694 6.29096
# Velocity P-wave (km/s) = 10.45702 5.46633 8.34356
#
# Compressibility (1/GPa) = 0.03302501
#
# Stress axis : x y z
#
# Youngs Moduli (GPa) = 88.77086 86.97684 33.95377
#
# Poissons Ratio (x) = 0.13289 0.09685
# Poissons Ratio (y) = 0.13563 0.17705
# Poissons Ratio (z) = 0.25320 0.45352
#
# Static dielectric constant tensor:
#      x y z
#    x 1.752390 0.000000 0.000000 
#    y 0.000000 1.721140 0.000000 
#    z 0.000000 0.000000 1.737680 
# 
# From -- ./inp_files/17221.got.cif
#   From: 2010.05.17/outbox.cif.g08.bks.cpg/sg20_9_cif.got.tgz:17221.got - 2010.06.03 22:52:26.
