data_PCOD9317349
_publ_section_title
;
Structure prediction by ZEFSAII (Michael W. Deem and Ramdas Pophale) SiO2 
 PCOD9317349
Probable space group: C 2 2 21
;
_chemical_formula_sum "Si O2"
_cell_formula_units_Z 60
_cell_length_a 15.603545
_cell_length_b 32.973734
_cell_length_c 5.449869
_cell_angle_alpha 90.000000
_cell_angle_beta 90.000000
_cell_angle_gamma 90.000000
_cell_volume 2803.996525
_symmetry_space_group_name_H-M "C 2 2 21"
_symmetry_group_IT_number 20
_symmetry_cell_setting 'orthorhombic'
loop_
_space_group_symop_operation_xyz
x,y,z
-x,-y,1/2+z
x,-y,-z
-x,y,1/2-z
1/2+x,1/2+y,z
1/2-x,1/2-y,1/2+z
1/2+x,1/2-y,-z
1/2-x,1/2+y,1/2-z
loop_
_atom_site_type_symbol
_atom_site_label
_atom_site_fract_x
_atom_site_fract_y
_atom_site_fract_z
Si Si1 0.870837 0.121195 0.922441
Si Si2 0.716640 0.500000 0.000000
Si Si3 0.554337 0.200652 0.000224
Si Si4 0.202825 0.763118 0.957131
Si Si5 0.303141 0.083736 0.033128
Si Si6 0.919035 0.039107 0.122933
Si Si7 0.666705 0.879527 0.038310
Si Si8 0.144701 0.853995 0.925399
O O1 0.881404 0.072698 0.941769
O O2 0.903276 0.141527 0.170221
O O3 0.768328 0.130052 0.934026
O O4 0.906889 0.138728 0.672935
O O5 0.777047 0.538619 0.950520
O O6 0.654635 0.518958 0.209674
O O7 0.500000 0.201704 0.250000
O O8 0.612264 0.240693 0.983077
O O9 0.500000 0.197509 0.750000
O O10 0.616133 0.161514 0.012841
O O11 0.254713 0.752434 0.204474
O O12 0.191857 0.811248 0.938461
O O13 0.343425 0.090297 0.304119
O O14 0.214316 0.109261 0.063045
O O15 0.355877 0.102720 0.806676
O O16 0.000000 0.060062 0.250000
O O17 0.960648 0.000000 0.000000
#
# Coordination Sequence:
#
# PCOD9317349 Si02
#       8
#     8   4   8   8   8   8   8   8
#     4  10  21  38  59  87 120 169 231 266 310 404
#     4  12  22  38  58  94 132 170 224 298 314 394
#     4  12  26  44  69 107 142 170 223 292 356 413
#     4  12  23  41  72 102 135 185 228 276 340 421
#     4  10  20  34  62  91 123 163 228 271 315 378
#     4  12  24  37  57  86 131 177 221 282 346 393
#     4  10  19  39  61  87 126 164 208 271 328 400
#     4  10  19  37  58  84 121 162 213 269 315 380
#
# _framework density 21.398029999999999
#
# number of rings (size 3 to 8) (size 9 to 14) (size 15 to 20)
#    0.000    1.067    3.333    7.200    0.000    0.000 
#    0.000    2.000    0.000    0.000    0.000    9.333 
#    0.000    0.000    0.000    0.000    0.000    0.000 
#
# Total GULP energy -167522.403817 kJ/mol
# GULP energy per Si atom -5584.080127 kJ/mol
# Density = 2.134933 g / cm^3
# Si number density = 21.398030 Si / 1000 Ang^3
#
#
#
# Elastic Constant Matrix: (Units=GPa)
#
#
# Indices 1 2 3 4 5 6 
#
# 1 41.3641 9.1112 2.2061 0.0000 0.0000 0.0000
# 2 9.1112 105.2409 2.3905 0.0000 0.0000 0.0000
# 3 2.2061 2.3905 162.9781 0.0000 0.0000 0.0000
# 4 0.0000 0.0000 0.0000 151.1894 0.0000 0.0000
# 5 0.0000 0.0000 0.0000 0.0000 21.2314 0.0000
# 6 0.0000 0.0000 0.0000 0.0000 0.0000 34.0381
#
#
#
# Elastic Compliance Matrix: (Units=1/GPa)
#
#
# Indices 1 2 3 4 5 6 
#
# 1 0.024660 -0.002128 -0.000303 0.000000 0.000000 0.000000
# 2 -0.002128 0.009689 -0.000113 0.000000 0.000000 0.000000
# 3 -0.000303 -0.000113 0.006142 0.000000 0.000000 0.000000
# 4 0.000000 0.000000 0.000000 0.006614 0.000000 0.000000
# 5 0.000000 0.000000 0.000000 0.000000 0.047100 0.000000
# 6 0.000000 0.000000 0.000000 0.000000 0.000000 0.029379
#
#
# Mechanical properties :
#
#
# Convention : Reuss Voigt Hill
#
# Bulk Modulus (GPa) = 28.24636 37.44432 32.84534
# Shear Modulus (GPa) = 35.59404 61.01678 48.30541
#
# Velocity S-wave (km/s) = 4.08294 5.34575 4.75644
# Velocity P-wave (km/s) = 5.95452 7.45920 6.74892
#
# Compressibility (1/GPa) = 0.03540279
#
# Stress axis : x y z
#
# Youngs Moduli (GPa) = 40.55081 103.21176 162.82534
#
# Poissons Ratio (x) = 0.21965 0.04927
# Poissons Ratio (y) = 0.08630 0.01845
# Poissons Ratio (z) = 0.01227 0.01169
#
# Static dielectric constant tensor:
#      x y z
#    x 0.435360 0.000000 0.000000 
#    y 0.000000 1.738630 0.000000 
#    z 0.000000 0.000000 1.942120 
# 
# From -- ./inp_files/2906.got.cif
#   From: 2010.05.17/outbox.cif.g08.bks.cpg/sg20_2_cif.got.tgz:2906.got - 2010.06.03 22:52:26.
