data_PCOD9317655
_publ_section_title
;
Structure prediction by ZEFSAII (Michael W. Deem and Ramdas Pophale) SiO2 
 PCOD9317655
Probable space group: C 2 2 21
;
_chemical_formula_sum "Si O2"
_cell_formula_units_Z 48
_cell_length_a 29.217764
_cell_length_b 21.286550
_cell_length_c 5.052286
_cell_angle_alpha 90.000000
_cell_angle_beta 90.000000
_cell_angle_gamma 90.000000
_cell_volume 3142.246008
_symmetry_space_group_name_H-M "C 2 2 21"
_symmetry_group_IT_number 20
_symmetry_cell_setting 'orthorhombic'
loop_
_space_group_symop_operation_xyz
x,y,z
-x,-y,1/2+z
x,-y,-z
-x,y,1/2-z
1/2+x,1/2+y,z
1/2-x,1/2-y,1/2+z
1/2+x,1/2-y,-z
1/2-x,1/2+y,1/2-z
loop_
_atom_site_type_symbol
_atom_site_label
_atom_site_fract_x
_atom_site_fract_y
_atom_site_fract_z
Si Si1 0.241137 0.540965 0.760928
Si Si2 0.874167 0.138597 0.537109
Si Si3 0.337253 0.571082 0.032382
Si Si4 0.717088 0.823875 0.366071
Si Si5 0.312302 0.749020 0.629510
Si Si6 0.532907 0.571567 0.001553
O O1 0.254004 0.500000 0.500000
O O2 0.285611 0.567714 0.919097
O O3 0.215290 0.601022 0.639913
O O4 0.218355 0.500000 0.000000
O O5 0.864896 0.113731 0.831164
O O6 0.857054 0.209993 0.549221
O O7 0.926304 0.121233 0.477840
O O8 0.843734 0.099450 0.323532
O O9 0.354800 0.500000 0.000000
O O10 0.690498 0.784750 0.591328
O O11 0.770035 0.800763 0.383991
O O12 0.698656 0.800648 0.087292
O O13 0.500000 0.579519 0.750000
O O14 0.552608 0.500000 0.000000
O O15 0.500000 0.575939 0.250000
#
# Coordination Sequence:
#
# PCOD9317655 Si02
#       6
#     8   8   8   8   8   8
#     4  11  21  32  48  67  93 125 162 203 248 282
#     4  12  21  34  50  70  89 120 169 200 248 299
#     4  11  21  29  45  67  92 116 153 210 247 273
#     4  10  20  34  46  65  96 122 159 197 247 286
#     4  10  21  31  49  65  90 128 155 200 244 286
#     4  10  21  36  51  68  93 124 156 204 263 302
#
# _framework density 15.275696
#
# number of rings (size 3 to 8) (size 9 to 14) (size 15 to 20)
#    0.000    1.333    1.667    6.500    4.667    1.333 
#    0.000    0.000    0.000    0.000    0.000    0.000 
#    0.000    0.000    0.000    0.000    0.000   46.667 
#
# Total GULP energy -133842.548220 kJ/mol
# GULP energy per Si atom -5576.772843 kJ/mol
# Density = 1.524093 g / cm^3
# Si number density = 15.275696 Si / 1000 Ang^3
#
#
#
# Elastic Constant Matrix: (Units=GPa)
#
#
# Indices 1 2 3 4 5 6 
#
# 1 33.9466 18.5819 -7.8017 0.0000 0.0000 0.0000
# 2 18.5819 65.8821 5.8303 0.0000 0.0000 0.0000
# 3 -7.8017 5.8303 56.6467 0.0000 0.0000 0.0000
# 4 0.0000 0.0000 0.0000 18.8977 0.0000 0.0000
# 5 0.0000 0.0000 0.0000 0.0000 3.2524 0.0000
# 6 0.0000 0.0000 0.0000 0.0000 0.0000 10.0327
#
#
#
# Elastic Compliance Matrix: (Units=1/GPa)
#
#
# Indices 1 2 3 4 5 6 
#
# 1 0.036879 -0.010951 0.006206 0.000000 0.000000 0.000000
# 2 -0.010951 0.018570 -0.003419 0.000000 0.000000 0.000000
# 3 0.006206 -0.003419 0.018860 0.000000 0.000000 0.000000
# 4 0.000000 0.000000 0.000000 0.052916 0.000000 0.000000
# 5 0.000000 0.000000 0.000000 0.000000 0.307463 0.000000
# 6 0.000000 0.000000 0.000000 0.000000 0.000000 0.099674
#
#
# Mechanical properties :
#
#
# Convention : Reuss Voigt Hill
#
# Bulk Modulus (GPa) = 17.24717 21.07738 19.16227
# Shear Modulus (GPa) = 8.77168 15.76090 12.26629
#
# Velocity S-wave (km/s) = 2.39890 3.21559 2.83679
# Velocity P-wave (km/s) = 4.35753 5.25496 4.82715
#
# Compressibility (1/GPa) = 0.05798053
#
# Stress axis : x y z
#
# Youngs Moduli (GPa) = 27.11595 53.85069 53.02230
#
# Poissons Ratio (x) = 0.58971 -0.32907
# Poissons Ratio (y) = 0.29694 0.18131
# Poissons Ratio (z) = -0.16829 0.18414
#
# Static dielectric constant tensor:
#      x y z
#    x 1.506910 0.000000 0.000000 
#    y 0.000000 1.593560 0.000000 
#    z 0.000000 0.000000 1.518410 
# 
# From -- ./inp_files/4254.got.cif
#   From: 2010.05.17/outbox.cif.g08.bks.cpg/sg20_3_cif.got.tgz:4254.got - 2010.06.03 22:52:26.
