data_PCOD9317289
_publ_section_title
;
Structure prediction by ZEFSAII (Michael W. Deem and Ramdas Pophale) SiO2 
 PCOD9317289
Probable space group: C 2 2 21
;
_chemical_formula_sum "Si O2"
_cell_formula_units_Z 48
_cell_length_a 18.020401
_cell_length_b 13.775179
_cell_length_c 8.337654
_cell_angle_alpha 90.000000
_cell_angle_beta 90.000000
_cell_angle_gamma 90.000000
_cell_volume 2069.691283
_symmetry_space_group_name_H-M "C 2 2 21"
_symmetry_group_IT_number 20
_symmetry_cell_setting 'orthorhombic'
loop_
_space_group_symop_operation_xyz
x,y,z
-x,-y,1/2+z
x,-y,-z
-x,y,1/2-z
1/2+x,1/2+y,z
1/2-x,1/2-y,1/2+z
1/2+x,1/2-y,-z
1/2-x,1/2+y,1/2-z
loop_
_atom_site_type_symbol
_atom_site_label
_atom_site_fract_x
_atom_site_fract_y
_atom_site_fract_z
Si Si1 0.198649 0.842460 0.770304
Si Si2 0.000000 0.063171 0.750000
Si Si3 0.873689 0.638375 0.252408
Si Si4 0.377230 0.500000 0.500000
Si Si5 0.278896 0.115243 0.716284
Si Si6 0.373554 0.655039 0.921187
Si Si7 0.340149 0.000000 0.000000
Si Si8 0.107101 0.500000 0.000000
O O1 0.283321 0.872906 0.721854
O O2 0.206616 0.728901 0.815752
O O3 0.148945 0.840152 0.608208
O O4 0.167550 0.909119 0.915821
O O5 0.931647 0.021254 0.649319
O O6 0.954362 0.112841 0.894804
O O7 0.879530 0.746455 0.185197
O O8 0.890821 0.567030 0.107560
O O9 0.921464 0.593286 0.398037
O O10 0.195396 0.096297 0.657850
O O11 0.340476 0.056096 0.623075
O O12 0.292583 0.076290 0.895148
#
# Coordination Sequence:
#
# PCOD9317289 Si02
#       8
#     8   4   8   4   8   8   4   4
#     4  11  23  41  66  96 133 173 216 287 340 393
#     4  12  30  44  64  88 124 188 220 262 314 398
#     4  10  21  35  63 101 131 169 205 284 343 399
#     4  12  29  45  68  90 131 176 233 266 330 403
#     4  10  22  37  64 101 135 168 209 281 346 397
#     4  11  24  42  60  91 137 175 227 264 330 404
#     4  10  19  36  60 104 126 164 207 264 368 395
#     4  10  20  33  62 104 129 160 206 266 362 392
#
# _framework density 23.191863999999999
#
# number of rings (size 3 to 8) (size 9 to 14) (size 15 to 20)
#    0.000    1.333    3.333    1.500    9.333    0.667 
#    0.000    0.000    0.000    1.000    0.000    0.000 
#    0.000    0.000    0.000    0.000    0.000    0.000 
#
# Total GULP energy -133642.713210 kJ/mol
# GULP energy per Si atom -5568.446384 kJ/mol
# Density = 2.313908 g / cm^3
# Si number density = 23.191864 Si / 1000 Ang^3
#
#
#
# Elastic Constant Matrix: (Units=GPa)
#
#
# Indices 1 2 3 4 5 6 
#
# 1 71.0868 15.1109 17.2039 0.0000 0.0000 0.0000
# 2 15.1109 83.6405 16.3617 0.0000 0.0000 0.0000
# 3 17.2039 16.3617 96.6980 0.0000 0.0000 0.0000
# 4 0.0000 0.0000 0.0000 47.5152 0.0000 0.0000
# 5 0.0000 0.0000 0.0000 0.0000 11.3943 0.0000
# 6 0.0000 0.0000 0.0000 0.0000 0.0000 8.7397
#
#
#
# Elastic Compliance Matrix: (Units=1/GPa)
#
#
# Indices 1 2 3 4 5 6 
#
# 1 0.015109 -0.002279 -0.002302 0.000000 0.000000 0.000000
# 2 -0.002279 0.012709 -0.001745 0.000000 0.000000 0.000000
# 3 -0.002302 -0.001745 0.011046 0.000000 0.000000 0.000000
# 4 0.000000 0.000000 0.000000 0.021046 0.000000 0.000000
# 5 0.000000 0.000000 0.000000 0.000000 0.087763 0.000000
# 6 0.000000 0.000000 0.000000 0.000000 0.000000 0.114420
#
#
# Mechanical properties :
#
#
# Convention : Reuss Voigt Hill
#
# Bulk Modulus (GPa) = 38.15164 38.75315 38.45239
# Shear Modulus (GPa) = 17.63767 27.04643 22.34205
#
# Velocity S-wave (km/s) = 2.76073 3.41868 3.10717
# Velocity P-wave (km/s) = 5.16220 5.68588 5.43036
#
# Compressibility (1/GPa) = 0.02621120
#
# Stress axis : x y z
#
# Youngs Moduli (GPa) = 66.18562 78.68403 90.52754
#
# Poissons Ratio (x) = 0.17934 0.20843
# Poissons Ratio (y) = 0.15085 0.15796
# Poissons Ratio (z) = 0.15239 0.13730
#
# Static dielectric constant tensor:
#      x y z
#    x 1.880350 0.000000 0.000000 
#    y 0.000000 1.999480 0.000000 
#    z 0.000000 0.000000 2.119700 
# 
# From -- ./inp_files/9397.got.cif
#   From: 2010.05.17/outbox.cif.g08.bks.cpg/sg20_5_cif.got.tgz:9397.got - 2010.06.03 22:52:26.
