data_PCOD9317341
_publ_section_title
;
Structure prediction by ZEFSAII (Michael W. Deem and Ramdas Pophale) SiO2 
 PCOD9317341
Probable space group: C 2 2 21
;
_chemical_formula_sum "Si O2"
_cell_formula_units_Z 64
_cell_length_a 21.919484
_cell_length_b 5.611050
_cell_length_c 25.581635
_cell_angle_alpha 90.000000
_cell_angle_beta 90.000000
_cell_angle_gamma 90.000000
_cell_volume 3146.319074
_symmetry_space_group_name_H-M "C 2 2 21"
_symmetry_group_IT_number 20
_symmetry_cell_setting 'orthorhombic'
loop_
_space_group_symop_operation_xyz
x,y,z
-x,-y,1/2+z
x,-y,-z
-x,y,1/2-z
1/2+x,1/2+y,z
1/2-x,1/2-y,1/2+z
1/2+x,1/2-y,-z
1/2-x,1/2+y,1/2-z
loop_
_atom_site_type_symbol
_atom_site_label
_atom_site_fract_x
_atom_site_fract_y
_atom_site_fract_z
Si Si1 0.910906 0.901015 0.445616
Si Si2 0.257665 0.641523 0.825632
Si Si3 0.355150 0.843688 0.647061
Si Si4 0.467979 0.115058 0.051794
Si Si5 0.880354 0.787148 0.135404
Si Si6 0.338555 0.463606 0.728435
Si Si7 0.963182 0.710906 0.634531
Si Si8 0.081184 0.715582 0.690553
O O1 0.862513 0.754652 0.411653
O O2 0.970604 0.754579 0.463408
O O3 0.885255 0.000000 0.500000
O O4 0.937962 0.074267 0.400593
O O5 0.213628 0.426948 0.841964
O O6 0.307300 0.718413 0.868009
O O7 0.298484 0.580457 0.774744
O O8 0.210443 0.843445 0.809439
O O9 0.372029 0.657966 0.692972
O O10 0.405081 0.052313 0.648678
O O11 0.417867 0.264757 0.082278
O O12 0.492826 0.926500 0.093852
O O13 0.441885 0.000000 0.000000
O O14 0.899216 0.551420 0.170624
O O15 0.896790 0.050666 0.157333
O O16 0.384094 0.274787 0.755381
O O17 0.008048 0.742300 0.684004
#
# Coordination Sequence:
#
# PCOD9317341 Si02
#       8
#     8   8   8   8   8   8   8   8
#     4  11  21  40  69  99 132 178 218 286 350 422
#     4  11  22  41  66  93 133 182 234 279 334 406
#     4  11  25  40  66 103 133 180 239 281 338 421
#     4  10  19  36  68 103 127 170 228 279 350 415
#     4  10  22  38  68 102 135 173 229 286 331 402
#     4  11  22  41  69  94 130 187 234 275 336 407
#     4  10  21  41  63  99 140 169 223 284 348 409
#     4  10  22  40  68  98 138 182 224 278 347 405
#
# _framework density 20.341229999999999
#
# number of rings (size 3 to 8) (size 9 to 14) (size 15 to 20)
#    0.000    1.500    3.750    1.500    3.500    0.000 
#    0.000    3.750    0.000    4.500    6.500    0.000 
#    0.000    0.000    0.000    0.000    0.000    0.000 
#
# Total GULP energy -178389.168384 kJ/mol
# GULP energy per Si atom -5574.661512 kJ/mol
# Density = 2.029493 g / cm^3
# Si number density = 20.341230 Si / 1000 Ang^3
#
#
#
# Elastic Constant Matrix: (Units=GPa)
#
#
# Indices 1 2 3 4 5 6 
#
# 1 71.4592 4.9780 33.0285 0.0000 0.0000 0.0000
# 2 4.9780 51.5430 5.5012 0.0000 0.0000 0.0000
# 3 33.0285 5.5012 65.7919 0.0000 0.0000 0.0000
# 4 0.0000 0.0000 0.0000 31.4358 0.0000 0.0000
# 5 0.0000 0.0000 0.0000 0.0000 -2.0029 0.0000
# 6 0.0000 0.0000 0.0000 0.0000 0.0000 13.9537
#
#
#
# Elastic Compliance Matrix: (Units=1/GPa)
#
#
# Indices 1 2 3 4 5 6 
#
# 1 0.018254 -0.000792 -0.009098 0.000000 0.000000 0.000000
# 2 -0.000792 0.019610 -0.001242 0.000000 0.000000 0.000000
# 3 -0.009098 -0.001242 0.019870 0.000000 0.000000 0.000000
# 4 0.000000 0.000000 0.000000 0.031811 0.000000 0.000000
# 5 0.000000 0.000000 0.000000 0.000000 -0.499280 0.000000
# 6 0.000000 0.000000 0.000000 0.000000 0.000000 0.071665
#
#
# Mechanical properties :
#
#
# Convention : Reuss Voigt Hill
#
# Bulk Modulus (GPa) = 28.19172 30.64551 29.41861
# Shear Modulus (GPa) = -16.44837 18.36310 0.95736
#
# Velocity S-wave (km/s) = -2.84671 3.00784 0.68678
# Velocity P-wave (km/s) = 1.75626 5.21165 3.88881
#
# Compressibility (1/GPa) = 0.03547141
#
# Stress axis : x y z
#
# Youngs Moduli (GPa) = 54.78226 50.99353 50.32610
#
# Poissons Ratio (x) = 0.04039 0.45785
# Poissons Ratio (y) = 0.04339 0.06251
# Poissons Ratio (z) = 0.49839 0.06334
#
# Static dielectric constant tensor:
#      x y z
#    x 1.723640 0.000000 0.000000 
#    y 0.000000 1.820950 0.000000 
#    z 0.000000 0.000000 1.757990 
# 
# From -- ./inp_files/30544.got.cif
#   From: 2010.05.17/outbox.cif.g08.bks.cpg/sg20_16_cif.got.tgz:30544.got - 2010.06.03 22:52:26.
