data_PCOD9317507
_publ_section_title
;
Structure prediction by ZEFSAII (Michael W. Deem and Ramdas Pophale) SiO2 
 PCOD9317507
Probable space group: C 2 2 21
;
_chemical_formula_sum "Si O2"
_cell_formula_units_Z 48
_cell_length_a 14.847053
_cell_length_b 8.828218
_cell_length_c 18.211131
_cell_angle_alpha 90.000000
_cell_angle_beta 90.000000
_cell_angle_gamma 90.000000
_cell_volume 2386.987948
_symmetry_space_group_name_H-M "C 2 2 21"
_symmetry_group_IT_number 20
_symmetry_cell_setting 'orthorhombic'
loop_
_space_group_symop_operation_xyz
x,y,z
-x,-y,1/2+z
x,-y,-z
-x,y,1/2-z
1/2+x,1/2+y,z
1/2-x,1/2-y,1/2+z
1/2+x,1/2-y,-z
1/2-x,1/2+y,1/2-z
loop_
_atom_site_type_symbol
_atom_site_label
_atom_site_fract_x
_atom_site_fract_y
_atom_site_fract_z
Si Si1 0.245700 0.128699 0.686137
Si Si2 0.401237 0.652091 0.590783
Si Si3 0.636552 0.032630 0.578642
Si Si4 0.444655 0.202148 0.174809
Si Si5 0.273224 0.274513 0.836101
Si Si6 0.326712 0.654299 0.426083
O O1 0.150693 0.216185 0.685121
O O2 0.290783 0.176356 0.762981
O O3 0.307263 0.195991 0.620559
O O4 0.223709 0.952031 0.679143
O O5 0.498332 0.711005 0.612555
O O6 0.328553 0.738900 0.639803
O O7 0.367687 0.677852 0.507085
O O8 0.391565 0.473274 0.608553
O O9 0.664695 0.203039 0.599656
O O10 0.592579 0.000000 0.500000
O O11 0.576582 0.962675 0.642620
O O12 0.730263 0.934978 0.573465
O O13 0.500000 0.200895 0.250000
#
# Coordination Sequence:
#
# PCOD9317507 Si02
#       6
#     8   8   8   8   8   8
#     4  11  23  39  65  93 119 167 215 257 305 379
#     4  10  19  40  61  87 125 164 198 262 307 362
#     4  10  20  43  64  86 122 170 204 253 306 370
#     4  11  23  39  62  91 130 161 199 257 323 362
#     4  11  21  40  67  89 121 164 219 255 302 372
#     4   9  19  40  65  85 120 167 214 243 305 370
#
# _framework density 20.109024999999999
#
# number of rings (size 3 to 8) (size 9 to 14) (size 15 to 20)
#    0.000    1.667    5.000    3.000    0.000    0.667 
#    9.000    0.833    0.000    0.000    0.000    0.000 
#    0.000    0.000    0.000    0.000    0.000    0.000 
#
# Total GULP energy -133861.889850 kJ/mol
# GULP energy per Si atom -5577.578744 kJ/mol
# Density = 2.006326 g / cm^3
# Si number density = 20.109025 Si / 1000 Ang^3
#
#
#
# Elastic Constant Matrix: (Units=GPa)
#
#
# Indices 1 2 3 4 5 6 
#
# 1 41.0334 3.7912 27.6600 0.0000 0.0000 0.0000
# 2 3.7912 108.8891 33.4898 0.0000 0.0000 0.0000
# 3 27.6600 33.4898 76.7144 0.0000 0.0000 0.0000
# 4 0.0000 0.0000 0.0000 24.7982 0.0000 0.0000
# 5 0.0000 0.0000 0.0000 0.0000 23.6099 0.0000
# 6 0.0000 0.0000 0.0000 0.0000 0.0000 20.6186
#
#
#
# Elastic Compliance Matrix: (Units=1/GPa)
#
#
# Indices 1 2 3 4 5 6 
#
# 1 0.032968 0.002897 -0.013152 0.000000 0.000000 0.000000
# 2 0.002897 0.010863 -0.005787 0.000000 0.000000 0.000000
# 3 -0.013152 -0.005787 0.020303 0.000000 0.000000 0.000000
# 4 0.000000 0.000000 0.000000 0.040326 0.000000 0.000000
# 5 0.000000 0.000000 0.000000 0.000000 0.042355 0.000000
# 6 0.000000 0.000000 0.000000 0.000000 0.000000 0.048500
#
#
# Mechanical properties :
#
#
# Convention : Reuss Voigt Hill
#
# Bulk Modulus (GPa) = 31.19967 39.61323 35.40645
# Shear Modulus (GPa) = 21.00129 24.58507 22.79318
#
# Velocity S-wave (km/s) = 3.23518 3.50035 3.37037
# Velocity P-wave (km/s) = 5.43177 6.00654 5.72637
#
# Compressibility (1/GPa) = 0.03205163
#
# Stress axis : x y z
#
# Youngs Moduli (GPa) = 30.33243 92.05973 49.25272
#
# Poissons Ratio (x) = -0.26670 0.64775
# Poissons Ratio (y) = -0.08787 0.28501
# Poissons Ratio (z) = 0.39892 0.53271
#
# Static dielectric constant tensor:
#      x y z
#    x 1.695110 0.000000 0.000000 
#    y 0.000000 1.716520 0.000000 
#    z 0.000000 0.000000 1.778590 
# 
# From -- ./inp_files/24792.got.cif
#   From: 2010.05.17/outbox.cif.g08.bks.cpg/sg20_13_cif.got.tgz:24792.got - 2010.06.03 22:52:26.
