data_PCOD9317883
_publ_section_title
;
Structure prediction by ZEFSAII (Michael W. Deem and Ramdas Pophale) SiO2 
 PCOD9317883
Probable space group: C 2 2 21
;
_chemical_formula_sum "Si O2"
_cell_formula_units_Z 52
_cell_length_a 9.504171
_cell_length_b 14.491238
_cell_length_c 16.906933
_cell_angle_alpha 90.000000
_cell_angle_beta 90.000000
_cell_angle_gamma 90.000000
_cell_volume 2328.544610
_symmetry_space_group_name_H-M "C 2 2 21"
_symmetry_group_IT_number 20
_symmetry_cell_setting 'orthorhombic'
loop_
_space_group_symop_operation_xyz
x,y,z
-x,-y,1/2+z
x,-y,-z
-x,y,1/2-z
1/2+x,1/2+y,z
1/2-x,1/2-y,1/2+z
1/2+x,1/2-y,-z
1/2-x,1/2+y,1/2-z
loop_
_atom_site_type_symbol
_atom_site_label
_atom_site_fract_x
_atom_site_fract_y
_atom_site_fract_z
Si Si1 0.469370 0.866673 0.420813
Si Si2 0.771532 0.977980 0.915556
Si Si3 0.920119 0.308667 0.590974
Si Si4 0.000000 0.597694 0.250000
Si Si5 0.222827 0.143254 0.844053
Si Si6 0.353719 0.744228 0.291981
Si Si7 0.806292 0.032165 0.257139
O O1 0.371171 0.958231 0.416817
O O2 0.496386 0.835552 0.510586
O O3 0.621853 0.874583 0.380334
O O4 0.372431 0.789563 0.377400
O O5 0.721362 0.871612 0.912385
O O6 0.851919 0.989764 0.832842
O O7 0.841858 0.000000 0.000000
O O8 0.873409 0.203611 0.598525
O O9 0.998894 0.341536 0.670290
O O10 0.863092 0.534665 0.250278
O O11 0.240977 0.205851 0.764375
O O12 0.157607 0.047682 0.817054
O O13 0.500000 0.767518 0.250000
O O14 0.341351 0.634387 0.286685
#
# Coordination Sequence:
#
# PCOD9317883 Si02
#       7
#     8   8   8   4   8   8   8
#     4  10  21  37  61  85 115 158 202 238 292 359
#     4   9  17  32  57  87 116 142 193 252 289 333
#     4  10  21  37  56  90 120 145 194 251 299 341
#     4  10  20  36  60  86 120 142 196 260 298 328
#     4  11  20  37  62  86 115 157 199 240 294 358
#     4  10  21  37  58  82 119 160 196 233 290 363
#     4  11  20  36  60  89 117 155 198 248 293 351
#
# _framework density 22.331544000000001
#
# number of rings (size 3 to 8) (size 9 to 14) (size 15 to 20)
#    0.000    1.846    4.615    1.846    1.077    1.231 
#    1.385    2.308    0.000    0.000    0.000    0.000 
#    0.000    0.000    0.000    0.000    0.000    0.000 
#
# Total GULP energy -145183.032017 kJ/mol
# GULP energy per Si atom -5583.962770 kJ/mol
# Density = 2.228072 g / cm^3
# Si number density = 22.331544 Si / 1000 Ang^3
#
#
#
# Elastic Constant Matrix: (Units=GPa)
#
#
# Indices 1 2 3 4 5 6 
#
# 1 49.0831 12.1084 12.8893 0.0000 0.0000 0.0000
# 2 12.1084 93.2739 43.3693 0.0000 0.0000 0.0000
# 3 12.8893 43.3693 120.3309 0.0000 0.0000 0.0000
# 4 0.0000 0.0000 0.0000 37.8186 0.0000 0.0000
# 5 0.0000 0.0000 0.0000 0.0000 5.7394 0.0000
# 6 0.0000 0.0000 0.0000 0.0000 0.0000 19.8444
#
#
#
# Elastic Compliance Matrix: (Units=1/GPa)
#
#
# Indices 1 2 3 4 5 6 
#
# 1 0.021283 -0.002046 -0.001542 0.000000 0.000000 0.000000
# 2 -0.002046 0.013076 -0.004494 0.000000 0.000000 0.000000
# 3 -0.001542 -0.004494 0.010095 0.000000 0.000000 0.000000
# 4 0.000000 0.000000 0.000000 0.026442 0.000000 0.000000
# 5 0.000000 0.000000 0.000000 0.000000 0.174233 0.000000
# 6 0.000000 0.000000 0.000000 0.000000 0.000000 0.050392
#
#
# Mechanical properties :
#
#
# Convention : Reuss Voigt Hill
#
# Bulk Modulus (GPa) = 35.34707 44.38021 39.86364
# Shear Modulus (GPa) = 15.57070 25.63520 20.60295
#
# Velocity S-wave (km/s) = 2.64342 3.39180 3.04072
# Velocity P-wave (km/s) = 5.01792 5.93764 5.49705
#
# Compressibility (1/GPa) = 0.02829088
#
# Stress axis : x y z
#
# Youngs Moduli (GPa) = 46.98518 76.47534 99.05645
#
# Poissons Ratio (x) = 0.15645 0.15279
# Poissons Ratio (y) = 0.09612 0.44513
# Poissons Ratio (z) = 0.07247 0.34366
#
# Static dielectric constant tensor:
#      x y z
#    x 1.836080 0.000000 0.000000 
#    y 0.000000 1.807070 0.000000 
#    z 0.000000 0.000000 1.867400 
# 
# From -- ./inp_files/24366.got.cif
#   From: 2010.05.17/outbox.cif.g08.bks.cpg/sg20_13_cif.got.tgz:24366.got - 2010.06.03 22:52:26.
