data_PCOD9317969
_publ_section_title
;
Structure prediction by ZEFSAII (Michael W. Deem and Ramdas Pophale) SiO2 
 PCOD9317969
Probable space group: C 2 2 21
;
_chemical_formula_sum "Si O2"
_cell_formula_units_Z 32
_cell_length_a 28.658597
_cell_length_b 11.502090
_cell_length_c 5.189671
_cell_angle_alpha 90.000000
_cell_angle_beta 90.000000
_cell_angle_gamma 90.000000
_cell_volume 1710.690775
_symmetry_space_group_name_H-M "C 2 2 21"
_symmetry_group_IT_number 20
_symmetry_cell_setting 'orthorhombic'
loop_
_space_group_symop_operation_xyz
x,y,z
-x,-y,1/2+z
x,-y,-z
-x,y,1/2-z
1/2+x,1/2+y,z
1/2-x,1/2-y,1/2+z
1/2+x,1/2-y,-z
1/2-x,1/2+y,1/2-z
loop_
_atom_site_type_symbol
_atom_site_label
_atom_site_fract_x
_atom_site_fract_y
_atom_site_fract_z
Si Si1 0.297579 0.882931 0.124640
Si Si2 0.701044 0.645750 0.638848
Si Si3 0.948028 0.918191 0.749564
Si Si4 0.649020 0.683152 0.148233
O O1 0.249191 0.908666 0.268787
O O2 0.333179 0.814924 0.310249
O O3 0.287072 0.783759 0.909292
O O4 0.315981 0.000000 0.000000
O O5 0.679152 0.612936 0.363452
O O6 0.663030 0.641069 0.865692
O O7 0.904590 0.832457 0.720924
O O8 0.000000 0.864449 0.750000
O O9 0.946032 0.000000 0.500000
O O10 0.942866 0.000000 0.000000
#
# Coordination Sequence:
#
# PCOD9317969 Si02
#       4
#     8   8   8   8
#     4  10  21  37  54  75 114 148 180 227 269 316
#     4  10  20  37  51  81 109 144 189 216 266 325
#     4  10  21  37  59  85 112 144 179 229 289 333
#     4  10  20  37  51  81 109 141 187 220 271 331
#
# _framework density 18.705894000000001
#
# number of rings (size 3 to 8) (size 9 to 14) (size 15 to 20)
#    1.500    0.500    2.500    1.500    0.000    4.000 
#    0.000    0.000    0.000    0.000    6.500    0.000 
#    0.000    0.000    0.000    0.000    0.000    0.000 
#
# Total GULP energy -89263.817893 kJ/mol
# GULP energy per Si atom -5578.988618 kJ/mol
# Density = 1.866332 g / cm^3
# Si number density = 18.705894 Si / 1000 Ang^3
#
#
#
# Elastic Constant Matrix: (Units=GPa)
#
#
# Indices 1 2 3 4 5 6 
#
# 1 146.6599 19.1396 21.7157 0.0000 0.0000 0.0000
# 2 19.1396 47.1893 12.2721 0.0000 0.0000 0.0000
# 3 21.7157 12.2721 116.3856 0.0000 0.0000 0.0000
# 4 0.0000 0.0000 0.0000 27.3373 0.0000 0.0000
# 5 0.0000 0.0000 0.0000 0.0000 25.7692 0.0000
# 6 0.0000 0.0000 0.0000 0.0000 0.0000 58.5145
#
#
#
# Elastic Compliance Matrix: (Units=1/GPa)
#
#
# Indices 1 2 3 4 5 6 
#
# 1 0.007330 -0.002691 -0.001084 0.000000 0.000000 0.000000
# 2 -0.002691 0.022777 -0.001900 0.000000 0.000000 0.000000
# 3 -0.001084 -0.001900 0.008995 0.000000 0.000000 0.000000
# 4 0.000000 0.000000 0.000000 0.036580 0.000000 0.000000
# 5 0.000000 0.000000 0.000000 0.000000 0.038806 0.000000
# 6 0.000000 0.000000 0.000000 0.000000 0.000000 0.017090
#
#
# Mechanical properties :
#
#
# Convention : Reuss Voigt Hill
#
# Bulk Modulus (GPa) = 36.03299 46.27661 41.15480
# Shear Modulus (GPa) = 32.85636 39.46470 36.16053
#
# Velocity S-wave (km/s) = 4.19557 4.59818 4.40148
# Velocity P-wave (km/s) = 6.54027 7.27900 6.91950
#
# Compressibility (1/GPa) = 0.02775234
#
# Stress axis : x y z
#
# Youngs Moduli (GPa) = 136.42191 43.90441 111.17699
#
# Poissons Ratio (x) = 0.11815 0.12051
# Poissons Ratio (y) = 0.36714 0.21118
# Poissons Ratio (z) = 0.14787 0.08340
#
# Static dielectric constant tensor:
#      x y z
#    x 1.646630 0.000000 0.000000 
#    y 0.000000 1.729740 0.000000 
#    z 0.000000 0.000000 1.690920 
# 
# From -- ./inp_files/1824.got.cif
#   From: 2010.05.17/outbox.cif.g08.bks.cpg/sg20_1_cif.got.tgz:1824.got - 2010.06.03 22:52:26.
