data_PCOD9317147
_publ_section_title
;
Structure prediction by ZEFSAII (Michael W. Deem and Ramdas Pophale) SiO2 
 PCOD9317147
Probable space group: C 2 2 21
;
_chemical_formula_sum "Si O2"
_cell_formula_units_Z 48
_cell_length_a 12.092738
_cell_length_b 11.203425
_cell_length_c 12.383537
_cell_angle_alpha 90.000000
_cell_angle_beta 90.000000
_cell_angle_gamma 90.000000
_cell_volume 1677.722623
_symmetry_space_group_name_H-M "C 2 2 21"
_symmetry_group_IT_number 20
_symmetry_cell_setting 'orthorhombic'
loop_
_space_group_symop_operation_xyz
x,y,z
-x,-y,1/2+z
x,-y,-z
-x,y,1/2-z
1/2+x,1/2+y,z
1/2-x,1/2-y,1/2+z
1/2+x,1/2-y,-z
1/2-x,1/2+y,1/2-z
loop_
_atom_site_type_symbol
_atom_site_label
_atom_site_fract_x
_atom_site_fract_y
_atom_site_fract_z
Si Si1 0.389688 0.119597 0.699399
Si Si2 0.809434 0.220526 0.097949
Si Si3 0.807277 0.014345 0.735643
Si Si4 0.617091 0.899677 0.581310
Si Si5 0.963064 0.144253 0.409125
Si Si6 0.423418 0.273283 0.363093
O O1 0.500000 0.057355 0.750000
O O2 0.343609 0.201473 0.797675
O O3 0.279006 0.048903 0.667267
O O4 0.437479 0.214946 0.614229
O O5 0.683321 0.191305 0.115646
O O6 0.818852 0.305047 0.994490
O O7 0.904915 0.121834 0.095504
O O8 0.705793 0.967811 0.655494
O O9 0.880841 0.135550 0.728126
O O10 0.896764 0.923689 0.682723
O O11 0.526539 0.815642 0.637460
O O12 0.568098 0.000000 0.500000
O O13 0.932909 0.135445 0.534530
#
# Coordination Sequence:
#
# PCOD9317147 Si02
#       6
#     8   8   8   8   8   8
#     4   9  19  35  55  84 114 160 204 231 304 397
#     4   9  18  36  58  82 117 156 209 242 301 381
#     4  11  20  40  64  84 123 163 202 255 323 359
#     4  11  18  34  63  89 115 158 202 260 306 356
#     4  10  19  34  63  85 119 163 193 259 323 352
#     4  10  20  34  62  93 112 149 220 252 293 381
#
# _framework density 28.610213000000002
#
# number of rings (size 3 to 8) (size 9 to 14) (size 15 to 20)
#    0.000    2.000    5.000    0.500    0.000    0.000 
#    6.000    3.333   11.000    0.000    0.000    0.000 
#    0.000    0.000    0.000    0.000    0.000    0.000 
#
# Total GULP energy -133874.684589 kJ/mol
# GULP energy per Si atom -5578.111858 kJ/mol
# Density = 2.854509 g / cm^3
# Si number density = 28.610213 Si / 1000 Ang^3
#
#
#
# Elastic Constant Matrix: (Units=GPa)
#
#
# Indices 1 2 3 4 5 6 
#
# 1 197.4597 58.1923 -13.3919 0.0000 0.0000 0.0000
# 2 58.1923 143.9424 3.3089 0.0000 0.0000 0.0000
# 3 -13.3919 3.3089 37.6990 0.0000 0.0000 0.0000
# 4 0.0000 0.0000 0.0000 47.6944 0.0000 0.0000
# 5 0.0000 0.0000 0.0000 0.0000 29.8541 0.0000
# 6 0.0000 0.0000 0.0000 0.0000 0.0000 48.7071
#
#
#
# Elastic Compliance Matrix: (Units=1/GPa)
#
#
# Indices 1 2 3 4 5 6 
#
# 1 0.005946 -0.002458 0.002328 0.000000 0.000000 0.000000
# 2 -0.002458 0.007977 -0.001573 0.000000 0.000000 0.000000
# 3 0.002328 -0.001573 0.027491 0.000000 0.000000 0.000000
# 4 0.000000 0.000000 0.000000 0.020967 0.000000 0.000000
# 5 0.000000 0.000000 0.000000 0.000000 0.033496 0.000000
# 6 0.000000 0.000000 0.000000 0.000000 0.000000 0.020531
#
#
# Mechanical properties :
#
#
# Convention : Reuss Voigt Hill
#
# Bulk Modulus (GPa) = 26.30941 52.81329 39.56135
# Shear Modulus (GPa) = 37.74065 47.31726 42.52896
#
# Velocity S-wave (km/s) = 3.63593 4.07118 3.85969
# Velocity P-wave (km/s) = 5.18096 6.37173 5.80695
#
# Compressibility (1/GPa) = 0.03800921
#
# Stress axis : x y z
#
# Youngs Moduli (GPa) = 168.16723 125.36200 36.37554
#
# Poissons Ratio (x) = 0.30808 -0.08469
# Poissons Ratio (y) = 0.41327 0.05722
# Poissons Ratio (z) = -0.39151 0.19721
#
# Static dielectric constant tensor:
#      x y z
#    x 2.317950 0.000000 0.000000 
#    y 0.000000 2.627910 0.000000 
#    z 0.000000 0.000000 2.413340 
# 
# From -- ./inp_files/24318.got.cif
#   From: 2010.05.17/outbox.cif.g08.bks.cpg/sg20_13_cif.got.tgz:24318.got - 2010.06.03 22:52:26.
