data_PCOD9317107
_publ_section_title
;
Structure prediction by ZEFSAII (Michael W. Deem and Ramdas Pophale) SiO2 
 PCOD9317107
Probable space group: C 2 2 21
;
_chemical_formula_sum "Si O2"
_cell_formula_units_Z 48
_cell_length_a 7.317145
_cell_length_b 26.441992
_cell_length_c 9.882306
_cell_angle_alpha 90.000000
_cell_angle_beta 90.000000
_cell_angle_gamma 90.000000
_cell_volume 1912.027473
_symmetry_space_group_name_H-M "C 2 2 21"
_symmetry_group_IT_number 20
_symmetry_cell_setting 'orthorhombic'
loop_
_space_group_symop_operation_xyz
x,y,z
-x,-y,1/2+z
x,-y,-z
-x,y,1/2-z
1/2+x,1/2+y,z
1/2-x,1/2-y,1/2+z
1/2+x,1/2-y,-z
1/2-x,1/2+y,1/2-z
loop_
_atom_site_type_symbol
_atom_site_label
_atom_site_fract_x
_atom_site_fract_y
_atom_site_fract_z
Si Si1 0.720237 0.966438 0.729970
Si Si2 0.852099 0.623916 0.041991
Si Si3 0.716875 0.595589 0.475234
Si Si4 0.620581 0.706010 0.436380
Si Si5 0.779579 0.421667 0.223512
Si Si6 0.228076 0.730981 0.330685
O O1 0.500000 0.969255 0.750000
O O2 0.745207 0.918857 0.632196
O O3 0.772950 0.021628 0.677300
O O4 0.807975 0.951387 0.874135
O O5 0.761941 0.619652 0.893988
O O6 0.065499 0.608632 0.032981
O O7 0.846740 0.678447 0.109302
O O8 0.618355 0.645811 0.422691
O O9 0.682454 0.587126 0.633442
O O10 0.435795 0.729763 0.382533
O O11 0.771181 0.728003 0.331211
O O12 0.648419 0.721402 0.591021
O O13 0.000000 0.422520 0.250000
#
# Coordination Sequence:
#
# PCOD9317107 Si02
#       6
#     8   8   8   8   8   8
#     4   9  16  30  54  83 116 155 194 235 282 329
#     4  10  19  34  57  85 118 152 191 239 286 335
#     4  10  19  34  57  85 118 152 191 239 286 335
#     4  11  25  43  63  86 115 150 192 241 293 350
#     4   9  18  30  52  87 120 151 192 237 278 329
#     4  11  25  43  63  86 115 150 192 241 293 350
#
# _framework density 25.104240999999998
#
# number of rings (size 3 to 8) (size 9 to 14) (size 15 to 20)
#    0.000    2.000    1.667    2.000    2.333    6.000 
#    0.000    0.000    0.000    6.000    0.000    0.000 
#    0.000    0.000    0.000    0.000    0.000    0.000 
#
# Total GULP energy -134283.069293 kJ/mol
# GULP energy per Si atom -5595.127887 kJ/mol
# Density = 2.504710 g / cm^3
# Si number density = 25.104241 Si / 1000 Ang^3
#
#
#
# Elastic Constant Matrix: (Units=GPa)
#
#
# Indices 1 2 3 4 5 6 
#
# 1 49.2062 9.6561 12.5577 0.0000 0.0000 0.0000
# 2 9.6561 48.7983 -3.7330 0.0000 0.0000 0.0000
# 3 12.5577 -3.7330 80.3294 0.0000 0.0000 0.0000
# 4 0.0000 0.0000 0.0000 27.9037 0.0000 0.0000
# 5 0.0000 0.0000 0.0000 0.0000 11.0947 0.0000
# 6 0.0000 0.0000 0.0000 0.0000 0.0000 13.7788
#
#
#
# Elastic Compliance Matrix: (Units=1/GPa)
#
#
# Indices 1 2 3 4 5 6 
#
# 1 0.022179 -0.004671 -0.003684 0.000000 0.000000 0.000000
# 2 -0.004671 0.021549 0.001732 0.000000 0.000000 0.000000
# 3 -0.003684 0.001732 0.013105 0.000000 0.000000 0.000000
# 4 0.000000 0.000000 0.000000 0.035838 0.000000 0.000000
# 5 0.000000 0.000000 0.000000 0.000000 0.090133 0.000000
# 6 0.000000 0.000000 0.000000 0.000000 0.000000 0.072575
#
#
# Mechanical properties :
#
#
# Convention : Reuss Voigt Hill
#
# Bulk Modulus (GPa) = 22.94263 23.92173 23.43218
# Shear Modulus (GPa) = 17.65817 21.21233 19.43525
#
# Velocity S-wave (km/s) = 2.65503 2.90999 2.78543
# Velocity P-wave (km/s) = 4.30787 4.56513 4.43836
#
# Compressibility (1/GPa) = 0.04358699
#
# Stress axis : x y z
#
# Youngs Moduli (GPa) = 45.08677 46.40545 76.30580
#
# Poissons Ratio (x) = 0.21674 0.28113
# Poissons Ratio (y) = 0.21059 -0.13213
# Poissons Ratio (z) = 0.16611 -0.08035
#
# Static dielectric constant tensor:
#      x y z
#    x 2.085190 0.000000 0.000000 
#    y 0.000000 1.871130 0.000000 
#    z 0.000000 0.000000 1.989580 
# 
# From -- ./inp_files/6459.got.cif
#   From: 2010.05.17/outbox.cif.g08.bks.cpg/sg20_4_cif.got.tgz:6459.got - 2010.06.03 22:52:26.
