data_PCOD9317371
_publ_section_title
;
Structure prediction by ZEFSAII (Michael W. Deem and Ramdas Pophale) SiO2 
 PCOD9317371
Probable space group: C 2 2 21
;
_chemical_formula_sum "Si O2"
_cell_formula_units_Z 40
_cell_length_a 5.284100
_cell_length_b 13.610886
_cell_length_c 26.630198
_cell_angle_alpha 90.000000
_cell_angle_beta 90.000000
_cell_angle_gamma 90.000000
_cell_volume 1915.277999
_symmetry_space_group_name_H-M "C 2 2 21"
_symmetry_group_IT_number 20
_symmetry_cell_setting 'orthorhombic'
loop_
_space_group_symop_operation_xyz
x,y,z
-x,-y,1/2+z
x,-y,-z
-x,y,1/2-z
1/2+x,1/2+y,z
1/2-x,1/2-y,1/2+z
1/2+x,1/2-y,-z
1/2-x,1/2+y,1/2-z
loop_
_atom_site_type_symbol
_atom_site_label
_atom_site_fract_x
_atom_site_fract_y
_atom_site_fract_z
Si Si1 0.951052 0.225576 0.191435
Si Si2 0.453021 0.689424 0.860518
Si Si3 0.392633 0.829712 0.553440
Si Si4 0.609936 0.595970 0.030512
Si Si5 0.103403 0.958433 0.628806
O O1 0.698079 0.281956 0.173020
O O2 0.000000 0.239616 0.250000
O O3 0.196854 0.262050 0.160741
O O4 0.914849 0.110926 0.177081
O O5 0.403197 0.573299 0.861847
O O6 0.521326 0.734875 0.915142
O O7 0.117878 0.826237 0.527475
O O8 0.334294 0.914571 0.595656
O O9 0.613169 0.867423 0.517645
O O10 0.618492 0.567592 0.089396
O O11 0.536418 0.500000 0.000000
#
# Coordination Sequence:
#
# PCOD9317371 Si02
#       5
#     8   8   8   8   8
#     4  11  24  40  59  88 120 150 199 250 291 351
#     4  11  21  40  63  85 117 159 196 236 305 344
#     4   9  19  37  56  87 118 154 190 244 282 347
#     4  10  19  37  61  87 119 157 193 241 293 345
#     4   9  23  38  64  83 121 158 190 243 295 350
#
# _framework density 20.884695000000001
#
# number of rings (size 3 to 8) (size 9 to 14) (size 15 to 20)
#    1.200    0.800    2.000    1.200    2.800    1.600 
#    0.000    2.000    0.000    0.000    0.000    0.000 
#    0.000    0.000    0.000    0.000    0.000    0.000 
#
# Total GULP energy -111478.646417 kJ/mol
# GULP energy per Si atom -5573.932321 kJ/mol
# Density = 2.083716 g / cm^3
# Si number density = 20.884695 Si / 1000 Ang^3
#
#
#
# Elastic Constant Matrix: (Units=GPa)
#
#
# Indices 1 2 3 4 5 6 
#
# 1 129.2606 37.9423 -0.2525 0.0000 0.0000 0.0000
# 2 37.9423 171.8558 27.9801 0.0000 0.0000 0.0000
# 3 -0.2525 27.9801 43.9596 0.0000 0.0000 0.0000
# 4 0.0000 0.0000 0.0000 15.6646 0.0000 0.0000
# 5 0.0000 0.0000 0.0000 0.0000 -2.0239 0.0000
# 6 0.0000 0.0000 0.0000 0.0000 0.0000 1885.0711
#
#
#
# Elastic Compliance Matrix: (Units=1/GPa)
#
#
# Indices 1 2 3 4 5 6 
#
# 1 0.008345 -0.002064 0.001362 0.000000 0.000000 0.000000
# 2 -0.002064 0.007002 -0.004469 0.000000 0.000000 0.000000
# 3 0.001362 -0.004469 0.025600 0.000000 0.000000 0.000000
# 4 0.000000 0.000000 0.000000 0.063838 0.000000 0.000000
# 5 0.000000 0.000000 0.000000 0.000000 -0.494093 0.000000
# 6 0.000000 0.000000 0.000000 0.000000 0.000000 0.000530
#
#
# Mechanical properties :
#
#
# Convention : Reuss Voigt Hill
#
# Bulk Modulus (GPa) = 32.67424 52.93512 42.80468
# Shear Modulus (GPa) = -13.57835 398.36942 192.39554
#
# Velocity S-wave (km/s) = -2.55259 13.82610 9.60847
# Velocity P-wave (km/s) = 2.64413 16.74165 11.98487
#
# Compressibility (1/GPa) = 0.03060515
#
# Stress axis : x y z
#
# Youngs Moduli (GPa) = 119.83449 142.81456 39.06206
#
# Poissons Ratio (x) = 0.29478 -0.05319
# Poissons Ratio (y) = 0.24735 0.17456
# Poissons Ratio (z) = -0.16318 0.63819
#
# Static dielectric constant tensor:
#      x y z
#    x 1.783920 0.000000 0.000000 
#    y 0.000000 1.779450 0.000000 
#    z 0.000000 0.000000 1.504670 
# 
# From -- ./inp_files/29698.got.cif
#   From: 2010.05.17/outbox.cif.g08.bks.cpg/sg20_15_cif.got.tgz:29698.got - 2010.06.03 22:52:26.
