data_PCOD9317026
_publ_section_title
;
Structure prediction by ZEFSAII (Michael W. Deem and Ramdas Pophale) SiO2 
 PCOD9317026
Probable space group: C 2 2 21
;
_chemical_formula_sum "Si O2"
_cell_formula_units_Z 64
_cell_length_a 16.700118
_cell_length_b 8.362792
_cell_length_c 24.651155
_cell_angle_alpha 90.000000
_cell_angle_beta 90.000000
_cell_angle_gamma 90.000000
_cell_volume 3442.770772
_symmetry_space_group_name_H-M "C 2 2 21"
_symmetry_group_IT_number 20
_symmetry_cell_setting 'orthorhombic'
loop_
_space_group_symop_operation_xyz
x,y,z
-x,-y,1/2+z
x,-y,-z
-x,y,1/2-z
1/2+x,1/2+y,z
1/2-x,1/2-y,1/2+z
1/2+x,1/2-y,-z
1/2-x,1/2+y,1/2-z
loop_
_atom_site_type_symbol
_atom_site_label
_atom_site_fract_x
_atom_site_fract_y
_atom_site_fract_z
Si Si1 0.843744 0.291801 0.120128
Si Si2 0.665618 0.194228 0.498360
Si Si3 0.074478 0.614406 0.905812
Si Si4 0.148473 0.190692 0.997740
Si Si5 0.481508 0.694864 0.688649
Si Si6 0.076492 0.614996 0.399114
Si Si7 0.506985 0.317074 0.686978
Si Si8 0.337226 0.184596 0.378925
O O1 0.857582 0.484066 0.119763
O O2 0.753087 0.240038 0.130366
O O3 0.904927 0.215999 0.162552
O O4 0.861746 0.243924 0.057149
O O5 0.758559 0.237480 0.490575
O O6 0.609483 0.225858 0.447319
O O7 0.663899 0.000000 0.500000
O O8 0.094621 0.718958 0.958366
O O9 0.049717 0.720139 0.854146
O O10 0.149030 0.503223 0.888908
O O11 0.999186 0.495725 0.916798
O O12 0.133389 0.239156 0.935798
O O13 0.140691 0.000000 0.000000
O O14 0.500000 0.741234 0.750000
O O15 0.545727 0.778155 0.649730
O O16 0.486615 0.504009 0.684100
O O17 0.395741 0.756906 0.668286
O O18 0.500000 0.266210 0.750000
#
# Coordination Sequence:
#
# PCOD9317026 Si02
#       8
#     8   8   8   8   8   8   8   8
#     4   9  19  36  57  82 113 144 180 226 275 335
#     4   8  16  32  53  80 111 141 172 215 271 331
#     4  10  21  35  57  83 112 148 188 230 279 332
#     4  10  19  33  55  83 115 146 181 226 279 336
#     4  10  22  40  57  79 111 147 190 236 281 332
#     4   9  19  35  59  82 111 147 184 225 280 340
#     4  10  22  40  56  77 111 147 190 239 280 326
#     4  10  21  37  57  82 114 146 183 229 280 342
#
# _framework density 18.589676999999998
#
# number of rings (size 3 to 8) (size 9 to 14) (size 15 to 20)
#    0.000    2.500    0.000    1.875    0.000   14.500 
#    0.000    9.375    0.000    3.000    0.000    0.000 
#    0.000    0.000    0.000    0.000    0.000    0.000 
#
# Total GULP energy -178509.460027 kJ/mol
# GULP energy per Si atom -5578.420626 kJ/mol
# Density = 1.854737 g / cm^3
# Si number density = 18.589677 Si / 1000 Ang^3
#
#
#
# Elastic Constant Matrix: (Units=GPa)
#
#
# Indices 1 2 3 4 5 6 
#
# 1 83.2254 30.3493 68.2629 0.0000 0.0000 0.0000
# 2 30.3493 49.2564 38.8099 0.0000 0.0000 0.0000
# 3 68.2629 38.8099 147.9097 0.0000 0.0000 0.0000
# 4 0.0000 0.0000 0.0000 24.0251 0.0000 0.0000
# 5 0.0000 0.0000 0.0000 0.0000 23.2510 0.0000
# 6 0.0000 0.0000 0.0000 0.0000 0.0000 22.0610
#
#
#
# Elastic Compliance Matrix: (Units=1/GPa)
#
#
# Indices 1 2 3 4 5 6 
#
# 1 0.020937 -0.006665 -0.007914 0.000000 0.000000 0.000000
# 2 -0.006665 0.027715 -0.004196 0.000000 0.000000 0.000000
# 3 -0.007914 -0.004196 0.011514 0.000000 0.000000 0.000000
# 4 0.000000 0.000000 0.000000 0.041623 0.000000 0.000000
# 5 0.000000 0.000000 0.000000 0.000000 0.043009 0.000000
# 6 0.000000 0.000000 0.000000 0.000000 0.000000 0.045329
#
#
# Mechanical properties :
#
#
# Convention : Reuss Voigt Hill
#
# Bulk Modulus (GPa) = 44.21607 61.69284 52.95446
# Shear Modulus (GPa) = 21.25706 23.39872 22.32789
#
# Velocity S-wave (km/s) = 3.38522 3.55166 3.46944
# Velocity P-wave (km/s) = 6.25432 7.07656 6.67811
#
# Compressibility (1/GPa) = 0.02261621
#
# Stress axis : x y z
#
# Youngs Moduli (GPa) = 47.76162 36.08206 86.84771
#
# Poissons Ratio (x) = 0.24048 0.68733
# Poissons Ratio (y) = 0.31832 0.36442
# Poissons Ratio (z) = 0.37799 0.15140
#
# Static dielectric constant tensor:
#      x y z
#    x 1.662960 0.000000 0.000000 
#    y 0.000000 1.649060 0.000000 
#    z 0.000000 0.000000 1.641140 
# 
# From -- ./inp_files/27786.got.cif
#   From: 2010.05.17/outbox.cif.g08.bks.cpg/sg20_14_cif.got.tgz:27786.got - 2010.06.03 22:52:26.
