data_PCOD9317622
_publ_section_title
;
Structure prediction by ZEFSAII (Michael W. Deem and Ramdas Pophale) SiO2 
 PCOD9317622
Probable space group: C 2 2 21
;
_chemical_formula_sum "Si O2"
_cell_formula_units_Z 64
_cell_length_a 19.405029
_cell_length_b 7.428881
_cell_length_c 20.690332
_cell_angle_alpha 90.000000
_cell_angle_beta 90.000000
_cell_angle_gamma 90.000000
_cell_volume 2982.669665
_symmetry_space_group_name_H-M "C 2 2 21"
_symmetry_group_IT_number 20
_symmetry_cell_setting 'orthorhombic'
loop_
_space_group_symop_operation_xyz
x,y,z
-x,-y,1/2+z
x,-y,-z
-x,y,1/2-z
1/2+x,1/2+y,z
1/2-x,1/2-y,1/2+z
1/2+x,1/2-y,-z
1/2-x,1/2+y,1/2-z
loop_
_atom_site_type_symbol
_atom_site_label
_atom_site_fract_x
_atom_site_fract_y
_atom_site_fract_z
Si Si1 0.537289 0.216196 0.925919
Si Si2 0.694185 0.781538 0.074248
Si Si3 0.947662 0.788703 0.802926
Si Si4 0.293600 0.717555 0.185626
Si Si5 0.051895 0.792754 0.303269
Si Si6 0.793990 0.213373 0.813695
Si Si7 0.462387 0.218888 0.426346
Si Si8 0.694538 0.220531 0.073170
O O1 0.615692 0.272746 0.909378
O O2 0.483965 0.279796 0.872476
O O3 0.536211 0.998658 0.925336
O O4 0.522549 0.274226 0.999679
O O5 0.749961 0.717370 0.125608
O O6 0.694244 0.001048 0.074620
O O7 0.708803 0.725945 0.000665
O O8 0.870965 0.710195 0.806267
O O9 0.000000 0.708607 0.750000
O O10 0.938688 0.998149 0.784498
O O11 0.249148 0.752603 0.249230
O O12 0.299200 0.502004 0.176946
O O13 0.250713 0.785541 0.124029
O O14 0.128555 0.714138 0.306921
O O15 0.000000 0.712458 0.250000
O O16 0.015227 0.784054 0.372676
O O17 0.383867 0.275651 0.410394
#
# Coordination Sequence:
#
# PCOD9317622 Si02
#       8
#     8   8   8   8   8   8   8   8
#     4   9  18  33  53  75  97 124 162 206 248 292
#     4   8  15  30  51  72  93 121 162 205 239 280
#     4  10  21  34  48  72 105 135 164 201 247 301
#     4  10  20  33  51  73  97 129 166 203 243 287
#     4  10  21  34  48  72 105 135 164 201 247 301
#     4  10  20  33  51  73  97 129 166 203 243 287
#     4   9  18  33  53  75  97 124 162 206 248 292
#     4   8  15  30  51  72  93 121 162 205 239 280
#
# _framework density 21.457287000000001
#
# number of rings (size 3 to 8) (size 9 to 14) (size 15 to 20)
#    0.000    2.750    0.000    3.000    0.000    3.000 
#    0.000    2.500    0.000    2.250    0.000    0.000 
#    0.000    0.000    0.000    0.000    0.000    0.000 
#
# Total GULP energy -178705.609805 kJ/mol
# GULP energy per Si atom -5584.550306 kJ/mol
# Density = 2.140845 g / cm^3
# Si number density = 21.457287 Si / 1000 Ang^3
#
#
#
# Elastic Constant Matrix: (Units=GPa)
#
#
# Indices 1 2 3 4 5 6 
#
# 1 197.1390 -9.4230 111.7625 0.0000 0.0000 0.0000
# 2 -9.4230 61.1774 -18.2464 0.0000 0.0000 0.0000
# 3 111.7625 -18.2464 114.1667 0.0000 0.0000 0.0000
# 4 0.0000 0.0000 0.0000 17.9184 0.0000 0.0000
# 5 0.0000 0.0000 0.0000 0.0000 42.9262 0.0000
# 6 0.0000 0.0000 0.0000 0.0000 0.0000 -17.3574
#
#
#
# Elastic Compliance Matrix: (Units=1/GPa)
#
#
# Indices 1 2 3 4 5 6 
#
# 1 0.011560 -0.001674 -0.011584 0.000000 0.000000 0.000000
# 2 -0.001674 0.017407 0.004421 0.000000 0.000000 0.000000
# 3 -0.011584 0.004421 0.020806 0.000000 0.000000 0.000000
# 4 0.000000 0.000000 0.000000 0.055808 0.000000 0.000000
# 5 0.000000 0.000000 0.000000 0.000000 0.023296 0.000000
# 6 0.000000 0.000000 0.000000 0.000000 0.000000 -0.057612
#
#
# Mechanical properties :
#
#
# Convention : Reuss Voigt Hill
#
# Bulk Modulus (GPa) = 31.15495 60.07437 45.61466
# Shear Modulus (GPa) = 50.18202 27.92345 39.05273
#
# Velocity S-wave (km/s) = 4.84125 3.61134 4.27080
# Velocity P-wave (km/s) = 6.76767 6.74144 6.75456
#
# Compressibility (1/GPa) = 0.03209763
#
# Stress axis : x y z
#
# Youngs Moduli (GPa) = 86.50760 57.44943 48.06390
#
# Poissons Ratio (x) = 0.09619 0.55677
# Poissons Ratio (y) = 0.14485 -0.21250
# Poissons Ratio (z) = 1.00209 -0.25399
#
# Static dielectric constant tensor:
#      x y z
#    x 1.767930 0.000000 0.000000 
#    y 0.000000 2.093900 0.000000 
#    z 0.000000 0.000000 1.729610 
# 
# From -- ./inp_files/27789.got.cif
#   From: 2010.05.17/outbox.cif.g08.bks.cpg/sg20_14_cif.got.tgz:27789.got - 2010.06.03 22:52:26.
