data_PCOD9317089
_publ_section_title
;
Structure prediction by ZEFSAII (Michael W. Deem and Ramdas Pophale) SiO2 
 PCOD9317089
Probable space group: C 2 2 21
;
_chemical_formula_sum "Si O2"
_cell_formula_units_Z 64
_cell_length_a 17.411181
_cell_length_b 21.819874
_cell_length_c 9.001669
_cell_angle_alpha 90.000000
_cell_angle_beta 90.000000
_cell_angle_gamma 90.000000
_cell_volume 3419.822050
_symmetry_space_group_name_H-M "C 2 2 21"
_symmetry_group_IT_number 20
_symmetry_cell_setting 'orthorhombic'
loop_
_space_group_symop_operation_xyz
x,y,z
-x,-y,1/2+z
x,-y,-z
-x,y,1/2-z
1/2+x,1/2+y,z
1/2-x,1/2-y,1/2+z
1/2+x,1/2-y,-z
1/2-x,1/2+y,1/2-z
loop_
_atom_site_type_symbol
_atom_site_label
_atom_site_fract_x
_atom_site_fract_y
_atom_site_fract_z
Si Si1 0.330690 0.560985 0.082792
Si Si2 0.044616 0.348722 0.396965
Si Si3 0.916811 0.729319 0.169965
Si Si4 0.693638 0.877660 0.754970
Si Si5 0.171460 0.439401 0.439937
Si Si6 0.085140 0.126466 0.684150
Si Si7 0.166015 0.024416 0.841576
Si Si8 0.549590 0.057888 0.103385
O O1 0.270182 0.610006 0.149266
O O2 0.364111 0.525475 0.224902
O O3 0.295340 0.500000 0.000000
O O4 0.390389 0.593580 0.971131
O O5 0.073775 0.293924 0.500815
O O6 0.115258 0.393695 0.356145
O O7 0.000000 0.329848 0.250000
O O8 0.992040 0.389653 0.506535
O O9 0.848335 0.688488 0.241218
O O10 0.900595 0.801260 0.175535
O O11 0.000000 0.718354 0.250000
O O12 0.702249 0.902709 0.585421
O O13 0.630025 0.918616 0.835569
O O14 0.127838 0.500000 0.500000
O O15 0.241563 0.467311 0.346843
O O16 0.137436 0.091434 0.802377
O O17 0.000000 0.117290 0.750000
O O18 0.141966 0.000000 0.000000
O O19 0.500000 0.044431 0.250000
O O20 0.559450 0.000000 0.000000
#
# Coordination Sequence:
#
# PCOD9317089 Si02
#       8
#     8   8   8   8   8   8   8   8
#     4  10  21  38  63  97 128 153 206 265 323 389
#     4  11  22  34  57  85 126 175 226 262 293 358
#     4  10  20  45  61  81 130 175 220 255 308 367
#     4  11  19  36  60  86 128 176 205 256 309 370
#     4  10  19  34  56  85 131 169 192 260 325 363
#     4  10  24  44  69  90 118 167 206 267 332 381
#     4  10  20  40  66  97 129 152 199 261 339 394
#     4  12  22  32  52  90 127 177 227 258 298 359
#
# _framework density 18.714423
#
# number of rings (size 3 to 8) (size 9 to 14) (size 15 to 20)
#    0.000    1.500    6.250    1.125    1.750    3.500 
#    4.500    2.500    0.000    0.750    0.000    0.000 
#    0.000    0.000    0.000    0.000    0.000    0.000 
#
# Total GULP energy -178355.864930 kJ/mol
# GULP energy per Si atom -5573.620779 kJ/mol
# Density = 1.867183 g / cm^3
# Si number density = 18.714423 Si / 1000 Ang^3
#
#
#
# Elastic Constant Matrix: (Units=GPa)
#
#
# Indices 1 2 3 4 5 6 
#
# 1 58.5803 46.2562 26.9645 0.0000 0.0000 0.0000
# 2 46.2562 131.8158 50.9910 0.0000 0.0000 0.0000
# 3 26.9645 50.9910 107.7710 0.0000 0.0000 0.0000
# 4 0.0000 0.0000 0.0000 24.3773 0.0000 0.0000
# 5 0.0000 0.0000 0.0000 0.0000 34.1483 0.0000
# 6 0.0000 0.0000 0.0000 0.0000 0.0000 26.3194
#
#
#
# Elastic Compliance Matrix: (Units=1/GPa)
#
#
# Indices 1 2 3 4 5 6 
#
# 1 0.024147 -0.007511 -0.002488 0.000000 0.000000 0.000000
# 2 -0.007511 0.011622 -0.003620 0.000000 0.000000 0.000000
# 3 -0.002488 -0.003620 0.011614 0.000000 0.000000 0.000000
# 4 0.000000 0.000000 0.000000 0.041022 0.000000 0.000000
# 5 0.000000 0.000000 0.000000 0.000000 0.029284 0.000000
# 6 0.000000 0.000000 0.000000 0.000000 0.000000 0.037995
#
#
# Mechanical properties :
#
#
# Convention : Reuss Voigt Hill
#
# Bulk Modulus (GPa) = 49.63791 60.73228 55.18510
# Shear Modulus (GPa) = 26.36631 28.56601 27.46616
#
# Velocity S-wave (km/s) = 3.75757 3.91118 3.83514
# Velocity P-wave (km/s) = 6.73849 7.27454 7.01164
#
# Compressibility (1/GPa) = 0.02014589
#
# Stress axis : x y z
#
# Youngs Moduli (GPa) = 41.41370 86.04119 86.10291
#
# Poissons Ratio (x) = 0.64626 0.21420
# Poissons Ratio (y) = 0.31106 0.31167
# Poissons Ratio (z) = 0.10303 0.31145
#
# Static dielectric constant tensor:
#      x y z
#    x 1.699530 0.000000 0.000000 
#    y 0.000000 1.645450 0.000000 
#    z 0.000000 0.000000 1.682090 
# 
# From -- ./inp_files/9632.got.cif
#   From: 2010.05.17/outbox.cif.g08.bks.cpg/sg20_5_cif.got.tgz:9632.got - 2010.06.03 22:52:26.
