data_PCOD9317591
_publ_section_title
;
Structure prediction by ZEFSAII (Michael W. Deem and Ramdas Pophale) SiO2 
 PCOD9317591
Probable space group: C 2 2 21
;
_chemical_formula_sum "Si O2"
_cell_formula_units_Z 40
_cell_length_a 16.562157
_cell_length_b 32.891395
_cell_length_c 5.088855
_cell_angle_alpha 90.000000
_cell_angle_beta 90.000000
_cell_angle_gamma 90.000000
_cell_volume 2772.166218
_symmetry_space_group_name_H-M "C 2 2 21"
_symmetry_group_IT_number 20
_symmetry_cell_setting 'orthorhombic'
loop_
_space_group_symop_operation_xyz
x,y,z
-x,-y,1/2+z
x,-y,-z
-x,y,1/2-z
1/2+x,1/2+y,z
1/2-x,1/2-y,1/2+z
1/2+x,1/2-y,-z
1/2-x,1/2+y,1/2-z
loop_
_atom_site_type_symbol
_atom_site_label
_atom_site_fract_x
_atom_site_fract_y
_atom_site_fract_z
Si Si1 0.404793 0.380363 0.319060
Si Si2 0.855794 0.167919 0.171179
Si Si3 0.223153 0.725045 0.357322
Si Si4 0.947496 0.250209 0.011563
Si Si5 0.598154 0.474462 0.247601
O O1 0.500000 0.376936 0.250000
O O2 0.391250 0.362030 0.607933
O O3 0.380096 0.427319 0.283092
O O4 0.355810 0.354160 0.107621
O O5 0.769717 0.184849 0.267297
O O6 0.910496 0.208106 0.125982
O O7 0.267927 0.743790 0.612423
O O8 0.129554 0.722744 0.432405
O O9 0.000000 0.267874 0.250000
O O10 0.000000 0.242514 0.750000
O O11 0.624774 0.500000 0.500000
O O12 0.500000 0.474575 0.250000
O O13 0.626116 0.500000 0.000000
#
# Coordination Sequence:
#
# PCOD9317591 Si02
#       5
#     8   8   8   8   8
#     4  11  20  28  43  63  81 107 143 179 213 243
#     4  11  20  30  42  61  85 106 137 181 219 245
#     4  10  20  32  44  59  83 113 139 173 222 263
#     4  11  20  31  46  62  81 110 148 183 213 247
#     4   9  17  29  41  55  78 106 136 170 205 244
#
# _framework density 14.429148
#
# number of rings (size 3 to 8) (size 9 to 14) (size 15 to 20)
#    0.000    1.600    0.000    9.600    0.000    3.200 
#    0.000    0.000    0.000    0.000    0.000    0.000 
#    0.000    0.000    0.000    0.000    0.000   56.000 
#
# Total GULP energy -111589.625321 kJ/mol
# GULP energy per Si atom -5579.481266 kJ/mol
# Density = 1.439631 g / cm^3
# Si number density = 14.429148 Si / 1000 Ang^3
#
#
#
# Elastic Constant Matrix: (Units=GPa)
#
#
# Indices 1 2 3 4 5 6 
#
# 1 63.3706 24.9813 22.4236 0.0000 0.0000 0.0000
# 2 24.9813 51.4166 8.6750 0.0000 0.0000 0.0000
# 3 22.4236 8.6750 91.8068 0.0000 0.0000 0.0000
# 4 0.0000 0.0000 0.0000 16.2024 0.0000 0.0000
# 5 0.0000 0.0000 0.0000 0.0000 24.5525 0.0000
# 6 0.0000 0.0000 0.0000 0.0000 0.0000 9.4133
#
#
#
# Elastic Compliance Matrix: (Units=1/GPa)
#
#
# Indices 1 2 3 4 5 6 
#
# 1 0.021025 -0.009500 -0.004238 0.000000 0.000000 0.000000
# 2 -0.009500 0.024057 0.000047 0.000000 0.000000 0.000000
# 3 -0.004238 0.000047 0.011923 0.000000 0.000000 0.000000
# 4 0.000000 0.000000 0.000000 0.061719 0.000000 0.000000
# 5 0.000000 0.000000 0.000000 0.000000 0.040729 0.000000
# 6 0.000000 0.000000 0.000000 0.000000 0.000000 0.106232
#
#
# Mechanical properties :
#
#
# Convention : Reuss Voigt Hill
#
# Bulk Modulus (GPa) = 33.75697 35.41710 34.58703
# Shear Modulus (GPa) = 16.50490 20.06791 18.28640
#
# Velocity S-wave (km/s) = 3.38577 3.73338 3.56381
# Velocity P-wave (km/s) = 6.22337 6.57137 6.39974
#
# Compressibility (1/GPa) = 0.02962351
#
# Stress axis : x y z
#
# Youngs Moduli (GPa) = 47.56318 41.56841 83.87164
#
# Poissons Ratio (x) = 0.39490 0.35541
# Poissons Ratio (y) = 0.45185 -0.00396
# Poissons Ratio (z) = 0.20155 -0.00196
#
# Static dielectric constant tensor:
#      x y z
#    x 1.483280 0.000000 0.000000 
#    y 0.000000 1.486800 0.000000 
#    z 0.000000 0.000000 1.498710 
# 
# From -- ./inp_files/2138.got.cif
#   From: 2010.05.17/outbox.cif.g08.bks.cpg/sg20_2_cif.got.tgz:2138.got - 2010.06.03 22:52:26.
