data_PCOD9317275
_publ_section_title
;
Structure prediction by ZEFSAII (Michael W. Deem and Ramdas Pophale) SiO2 
 PCOD9317275
Probable space group: C 2 2 21
;
_chemical_formula_sum "Si O2"
_cell_formula_units_Z 48
_cell_length_a 12.629760
_cell_length_b 17.288604
_cell_length_c 9.393419
_cell_angle_alpha 90.000000
_cell_angle_beta 90.000000
_cell_angle_gamma 90.000000
_cell_volume 2051.061674
_symmetry_space_group_name_H-M "C 2 2 21"
_symmetry_group_IT_number 20
_symmetry_cell_setting 'orthorhombic'
loop_
_space_group_symop_operation_xyz
x,y,z
-x,-y,1/2+z
x,-y,-z
-x,y,1/2-z
1/2+x,1/2+y,z
1/2-x,1/2-y,1/2+z
1/2+x,1/2-y,-z
1/2-x,1/2+y,1/2-z
loop_
_atom_site_type_symbol
_atom_site_label
_atom_site_fract_x
_atom_site_fract_y
_atom_site_fract_z
Si Si1 0.264508 0.598214 0.694378
Si Si2 0.825393 0.956594 0.862546
Si Si3 0.631343 0.878110 0.019881
Si Si4 0.897238 0.651582 0.033271
Si Si5 0.396836 0.288867 0.828231
Si Si6 0.162993 0.260626 0.796749
O O1 0.313776 0.515023 0.731125
O O2 0.200776 0.609532 0.546341
O O3 0.350183 0.668193 0.709566
O O4 0.178380 0.609668 0.822902
O O5 0.708802 0.927705 0.916558
O O6 0.893697 0.880379 0.841193
O O7 0.870479 0.000000 0.000000
O O8 0.646350 0.791634 0.956383
O O9 0.506073 0.891598 0.006884
O O10 0.895065 0.739030 0.970626
O O11 0.891340 0.674935 0.197793
O O12 0.500000 0.260743 0.750000
O O13 0.285941 0.269619 0.756112
#
# Coordination Sequence:
#
# PCOD9317275 Si02
#       6
#     8   8   8   8   8   8
#     4  10  19  36  59  81 112 152 189 223 278 344
#     4   9  19  38  57  79 115 151 182 227 286 336
#     4  10  20  36  56  84 116 145 182 233 284 330
#     4  11  20  35  61  87 109 144 192 231 275 336
#     4  10  21  37  57  79 110 147 187 232 277 324
#     4  10  20  36  58  84 114 143 184 238 279 324
#
# _framework density 23.402515999999999
#
# number of rings (size 3 to 8) (size 9 to 14) (size 15 to 20)
#    0.000    2.000    0.000    7.000    0.000    0.000 
#    0.000   26.667    0.000    0.000    0.000    0.000 
#    0.000    0.000    0.000    0.000    0.000    0.000 
#
# Total GULP energy -133864.092250 kJ/mol
# GULP energy per Si atom -5577.670510 kJ/mol
# Density = 2.334925 g / cm^3
# Si number density = 23.402516 Si / 1000 Ang^3
#
#
#
# Elastic Constant Matrix: (Units=GPa)
#
#
# Indices 1 2 3 4 5 6 
#
# 1 33.7969 -22.2906 4.7079 0.0000 0.0000 0.0000
# 2 -22.2906 72.6739 -3.1097 0.0000 0.0000 0.0000
# 3 4.7079 -3.1097 57.0309 0.0000 0.0000 0.0000
# 4 0.0000 0.0000 0.0000 36.8606 0.0000 0.0000
# 5 0.0000 0.0000 0.0000 0.0000 23.4958 0.0000
# 6 0.0000 0.0000 0.0000 0.0000 0.0000 2.9584
#
#
#
# Elastic Compliance Matrix: (Units=1/GPa)
#
#
# Indices 1 2 3 4 5 6 
#
# 1 0.037436 0.011377 -0.002470 0.000000 0.000000 0.000000
# 2 0.011377 0.017250 0.000001 0.000000 0.000000 0.000000
# 3 -0.002470 0.000001 0.017738 0.000000 0.000000 0.000000
# 4 0.000000 0.000000 0.000000 0.027129 0.000000 0.000000
# 5 0.000000 0.000000 0.000000 0.000000 0.042561 0.000000
# 6 0.000000 0.000000 0.000000 0.000000 0.000000 0.338024
#
#
# Mechanical properties :
#
#
# Convention : Reuss Voigt Hill
#
# Bulk Modulus (GPa) = 11.08153 13.56854 12.32504
# Shear Modulus (GPa) = 10.15432 24.94257 17.54844
#
# Velocity S-wave (km/s) = 2.08528 3.26821 2.74131
# Velocity P-wave (km/s) = 3.24705 4.47796 3.91123
#
# Compressibility (1/GPa) = 0.09024021
#
# Stress axis : x y z
#
# Youngs Moduli (GPa) = 26.71226 57.97230 56.37511
#
# Poissons Ratio (x) = -0.65953 0.13925
# Poissons Ratio (y) = -0.30390 -0.00008
# Poissons Ratio (z) = 0.06598 -0.00008
#
# Static dielectric constant tensor:
#      x y z
#    x 1.915820 0.000000 0.000000 
#    y 0.000000 1.976070 0.000000 
#    z 0.000000 0.000000 2.169470 
# 
# From -- ./inp_files/8410.got.cif
#   From: 2010.05.17/outbox.cif.g08.bks.cpg/sg20_5_cif.got.tgz:8410.got - 2010.06.03 22:52:26.
