data_PCOD9317829
_publ_section_title
;
Structure prediction by ZEFSAII (Michael W. Deem and Ramdas Pophale) SiO2 
 PCOD9317829
Probable space group: C 2 2 21
;
_chemical_formula_sum "Si O2"
_cell_formula_units_Z 28
_cell_length_a 11.849581
_cell_length_b 24.481774
_cell_length_c 4.716295
_cell_angle_alpha 90.000000
_cell_angle_beta 90.000000
_cell_angle_gamma 90.000000
_cell_volume 1368.191350
_symmetry_space_group_name_H-M "C 2 2 21"
_symmetry_group_IT_number 20
_symmetry_cell_setting 'orthorhombic'
loop_
_space_group_symop_operation_xyz
x,y,z
-x,-y,1/2+z
x,-y,-z
-x,y,1/2-z
1/2+x,1/2+y,z
1/2-x,1/2-y,1/2+z
1/2+x,1/2-y,-z
1/2-x,1/2+y,1/2-z
loop_
_atom_site_type_symbol
_atom_site_label
_atom_site_fract_x
_atom_site_fract_y
_atom_site_fract_z
Si Si1 0.716905 0.171426 0.701765
Si Si2 0.418487 0.000000 0.000000
Si Si3 0.923439 0.774024 0.992595
Si Si4 0.866647 0.391916 0.707771
O O1 0.640975 0.225819 0.675204
O O2 0.713948 0.148008 0.386524
O O3 0.833607 0.188559 0.844081
O O4 0.661262 0.123603 0.887865
O O5 0.500000 0.023412 0.750000
O O6 0.352222 0.952771 0.833459
O O7 0.000000 0.801597 0.750000
O O8 0.000000 0.751270 0.250000
O O9 0.000000 0.380508 0.750000
#
# Coordination Sequence:
#
# PCOD9317829 Si02
#       4
#     8   4   8   8
#     4  12  23  36  57  83 111 154 195 224 285 342
#     4  10  20  36  56  84 118 148 182 232 296 350
#     4  12  24  39  57  83 121 157 196 243 279 335
#     4  11  21  35  57  85 116 148 185 233 285 346
#
# _framework density 20.464973000000001
#
# number of rings (size 3 to 8) (size 9 to 14) (size 15 to 20)
#    0.000    0.571    0.000   13.714    0.000    0.000 
#    0.000    0.000    0.000    0.000    0.000   20.000 
#    0.000    0.000    0.000    0.000    0.000    0.000 
#
# Total GULP energy -78189.975283 kJ/mol
# GULP energy per Si atom -5584.998234 kJ/mol
# Density = 2.041839 g / cm^3
# Si number density = 20.464973 Si / 1000 Ang^3
#
#
#
# Elastic Constant Matrix: (Units=GPa)
#
#
# Indices 1 2 3 4 5 6 
#
# 1 77.8744 24.3328 25.7582 0.0000 0.0000 0.0000
# 2 24.3328 73.2701 -1.1112 0.0000 0.0000 0.0000
# 3 25.7582 -1.1112 101.2989 0.0000 0.0000 0.0000
# 4 0.0000 0.0000 0.0000 40.7444 0.0000 0.0000
# 5 0.0000 0.0000 0.0000 0.0000 54.2557 0.0000
# 6 0.0000 0.0000 0.0000 0.0000 0.0000 11.4849
#
#
#
# Elastic Compliance Matrix: (Units=1/GPa)
#
#
# Indices 1 2 3 4 5 6 
#
# 1 0.015860 -0.005329 -0.004091 0.000000 0.000000 0.000000
# 2 -0.005329 0.015441 0.001524 0.000000 0.000000 0.000000
# 3 -0.004091 0.001524 0.010929 0.000000 0.000000 0.000000
# 4 0.000000 0.000000 0.000000 0.024543 0.000000 0.000000
# 5 0.000000 0.000000 0.000000 0.000000 0.018431 0.000000
# 6 0.000000 0.000000 0.000000 0.000000 0.000000 0.087070
#
#
# Mechanical properties :
#
#
# Convention : Reuss Voigt Hill
#
# Bulk Modulus (GPa) = 37.82458 38.93368 38.37913
# Shear Modulus (GPa) = 25.39639 34.86123 30.12881
#
# Velocity S-wave (km/s) = 3.52656 4.13178 3.84111
# Velocity P-wave (km/s) = 5.92494 6.46745 6.20213
#
# Compressibility (1/GPa) = 0.02643784
#
# Stress axis : x y z
#
# Youngs Moduli (GPa) = 63.05366 64.76272 91.50132
#
# Poissons Ratio (x) = 0.34512 0.37435
# Poissons Ratio (y) = 0.33601 -0.13949
# Poissons Ratio (z) = 0.25797 -0.09873
#
# Static dielectric constant tensor:
#      x y z
#    x 1.747200 0.000000 0.000000 
#    y 0.000000 1.762990 0.000000 
#    z 0.000000 0.000000 1.752800 
# 
# From -- ./inp_files/459.got.cif
#   From: 2010.05.17/outbox.cif.g08.bks.cpg/sg20_1_cif.got.tgz:459.got - 2010.06.03 22:52:26.
