data_PCOD9317900
_publ_section_title
;
Structure prediction by ZEFSAII (Michael W. Deem and Ramdas Pophale) SiO2 
 PCOD9317900
Probable space group: C 2 2 21
;
_chemical_formula_sum "Si O2"
_cell_formula_units_Z 56
_cell_length_a 18.887485
_cell_length_b 9.109307
_cell_length_c 17.522453
_cell_angle_alpha 90.000000
_cell_angle_beta 90.000000
_cell_angle_gamma 90.000000
_cell_volume 3014.771319
_symmetry_space_group_name_H-M "C 2 2 21"
_symmetry_group_IT_number 20
_symmetry_cell_setting 'orthorhombic'
loop_
_space_group_symop_operation_xyz
x,y,z
-x,-y,1/2+z
x,-y,-z
-x,y,1/2-z
1/2+x,1/2+y,z
1/2-x,1/2-y,1/2+z
1/2+x,1/2-y,-z
1/2-x,1/2+y,1/2-z
loop_
_atom_site_type_symbol
_atom_site_label
_atom_site_fract_x
_atom_site_fract_y
_atom_site_fract_z
Si Si1 0.559894 0.264401 0.893795
Si Si2 0.213620 0.591259 0.285878
Si Si3 0.927269 0.745309 0.434086
Si Si4 0.570297 0.020068 0.204074
Si Si5 0.550796 0.483019 0.412187
Si Si6 0.825981 0.921857 0.205527
Si Si7 0.666409 0.475019 0.127487
O O1 0.491605 0.370274 0.888313
O O2 0.626767 0.373559 0.888550
O O3 0.563036 0.144060 0.828393
O O4 0.560881 0.196135 0.978929
O O5 0.136912 0.538363 0.260172
O O6 0.210614 0.763628 0.303109
O O7 0.267194 0.549060 0.216532
O O8 0.251116 0.505287 0.355873
O O9 0.920343 0.621418 0.370594
O O10 0.992983 0.852017 0.412394
O O11 0.858348 0.851601 0.430745
O O12 0.500000 0.062261 0.250000
O O13 0.573739 0.500000 0.500000
O O14 0.616265 0.451084 0.357899
O O15 0.861650 0.919609 0.289558
#
# Coordination Sequence:
#
# PCOD9317900 Si02
#       7
#     8   8   8   8   8   8   8
#     4  10  22  36  58  88 119 151 196 240 283 344
#     4  10  21  37  54  91 111 146 193 250 271 353
#     4  10  20  39  59  86 117 155 193 238 288 344
#     4  12  23  35  60  88 119 154 192 240 298 338
#     4   9  20  38  60  83 113 151 193 235 283 352
#     4  10  20  36  61  78 121 144 191 237 291 332
#     4   9  20  36  63  77 114 152 192 239 283 342
#
# _framework density 18.575206999999999
#
# number of rings (size 3 to 8) (size 9 to 14) (size 15 to 20)
#    0.857    1.143    1.429    3.429    2.000    1.143 
#    0.000    2.857    0.000    3.429    0.000    0.000 
#    0.000    0.000    0.000    0.000    0.000    0.000 
#
# Total GULP energy -156026.834647 kJ/mol
# GULP energy per Si atom -5572.386952 kJ/mol
# Density = 1.853293 g / cm^3
# Si number density = 18.575207 Si / 1000 Ang^3
#
#
#
# Elastic Constant Matrix: (Units=GPa)
#
#
# Indices 1 2 3 4 5 6 
#
# 1 105.6157 21.5373 36.9307 0.0000 0.0000 0.0000
# 2 21.5373 67.7838 16.3233 0.0000 0.0000 0.0000
# 3 36.9307 16.3233 35.0147 0.0000 0.0000 0.0000
# 4 0.0000 0.0000 0.0000 22.2054 0.0000 0.0000
# 5 0.0000 0.0000 0.0000 0.0000 27.7453 0.0000
# 6 0.0000 0.0000 0.0000 0.0000 0.0000 15.5680
#
#
#
# Elastic Compliance Matrix: (Units=1/GPa)
#
#
# Indices 1 2 3 4 5 6 
#
# 1 0.015071 -0.001082 -0.015391 0.000000 0.000000 0.000000
# 2 -0.001082 0.016696 -0.006642 0.000000 0.000000 0.000000
# 3 -0.015391 -0.006642 0.047889 0.000000 0.000000 0.000000
# 4 0.000000 0.000000 0.000000 0.045034 0.000000 0.000000
# 5 0.000000 0.000000 0.000000 0.000000 0.036042 0.000000
# 6 0.000000 0.000000 0.000000 0.000000 0.000000 0.064235
#
#
# Mechanical properties :
#
#
# Convention : Reuss Voigt Hill
#
# Bulk Modulus (GPa) = 29.91727 39.77741 34.84734
# Shear Modulus (GPa) = 17.70922 22.01192 19.86057
#
# Velocity S-wave (km/s) = 3.09103 3.44614 3.27341
# Velocity P-wave (km/s) = 5.37404 6.10698 5.75220
#
# Compressibility (1/GPa) = 0.03342551
#
# Stress axis : x y z
#
# Youngs Moduli (GPa) = 66.35395 59.89404 20.88162
#
# Poissons Ratio (x) = 0.06481 0.32139
# Poissons Ratio (y) = 0.07180 0.13870
# Poissons Ratio (z) = 1.02125 0.39782
#
# Static dielectric constant tensor:
#      x y z
#    x 1.628400 0.000000 0.000000 
#    y 0.000000 1.673880 0.000000 
#    z 0.000000 0.000000 1.641240 
# 
# From -- ./inp_files/27735.got.cif
#   From: 2010.05.17/outbox.cif.g08.bks.cpg/sg20_14_cif.got.tgz:27735.got - 2010.06.03 22:52:26.
