data_PCOD9317545
_publ_section_title
;
Structure prediction by ZEFSAII (Michael W. Deem and Ramdas Pophale) SiO2 
 PCOD9317545
Probable space group: C 2 2 21
;
_chemical_formula_sum "Si O2"
_cell_formula_units_Z 40
_cell_length_a 8.245739
_cell_length_b 14.460342
_cell_length_c 14.033341
_cell_angle_alpha 90.000000
_cell_angle_beta 90.000000
_cell_angle_gamma 90.000000
_cell_volume 1673.282338
_symmetry_space_group_name_H-M "C 2 2 21"
_symmetry_group_IT_number 20
_symmetry_cell_setting 'orthorhombic'
loop_
_space_group_symop_operation_xyz
x,y,z
-x,-y,1/2+z
x,-y,-z
-x,y,1/2-z
1/2+x,1/2+y,z
1/2-x,1/2-y,1/2+z
1/2+x,1/2-y,-z
1/2-x,1/2+y,1/2-z
loop_
_atom_site_type_symbol
_atom_site_label
_atom_site_fract_x
_atom_site_fract_y
_atom_site_fract_z
Si Si1 0.257479 0.492900 0.217244
Si Si2 0.167793 0.814372 0.634539
Si Si3 0.167007 0.788035 0.294850
Si Si4 0.887085 0.732975 0.539476
Si Si5 0.560905 0.044071 0.600971
O O1 0.337536 0.589152 0.190968
O O2 0.346261 0.398112 0.188346
O O3 0.206992 0.473629 0.326179
O O4 0.093429 0.499039 0.154713
O O5 0.193233 0.738772 0.718739
O O6 0.319094 0.792817 0.563591
O O7 0.012713 0.813407 0.564527
O O8 0.229866 0.748575 0.394361
O O9 0.000000 0.752462 0.250000
O O10 0.993225 0.646633 0.578971
O O11 0.596985 0.000000 0.500000
#
# Coordination Sequence:
#
# PCOD9317545 Si02
#       5
#     8   8   8   8   8
#     4  10  23  40  71  98 142 193 238 305 371 434
#     4  12  24  44  73 107 143 192 248 306 379 432
#     4  11  25  44  66 100 147 189 245 300 362 442
#     4  11  24  44  72 106 147 189 246 311 361 453
#     4  10  19  41  69 101 138 190 242 294 372 442
#
# _framework density 23.905111000000002
#
# number of rings (size 3 to 8) (size 9 to 14) (size 15 to 20)
#    0.000    1.200    4.000    1.800    2.800    3.200 
#    0.000    0.000    0.000    0.000    0.000    0.000 
#    0.000    0.000    0.000    0.000    0.000    0.000 
#
# Total GULP energy -111665.116849 kJ/mol
# GULP energy per Si atom -5583.255842 kJ/mol
# Density = 2.385070 g / cm^3
# Si number density = 23.905111 Si / 1000 Ang^3
#
#
#
# Elastic Constant Matrix: (Units=GPa)
#
#
# Indices 1 2 3 4 5 6 
#
# 1 58.2365 3.4566 13.1854 0.0000 0.0000 0.0000
# 2 3.4566 76.3061 12.5947 0.0000 0.0000 0.0000
# 3 13.1854 12.5947 138.6802 0.0000 0.0000 0.0000
# 4 0.0000 0.0000 0.0000 29.4647 0.0000 0.0000
# 5 0.0000 0.0000 0.0000 0.0000 44.0971 0.0000
# 6 0.0000 0.0000 0.0000 0.0000 0.0000 9.2355
#
#
#
# Elastic Compliance Matrix: (Units=1/GPa)
#
#
# Indices 1 2 3 4 5 6 
#
# 1 0.017570 -0.000528 -0.001623 0.000000 0.000000 0.000000
# 2 -0.000528 0.013320 -0.001160 0.000000 0.000000 0.000000
# 3 -0.001623 -0.001160 0.007470 0.000000 0.000000 0.000000
# 4 0.000000 0.000000 0.000000 0.033939 0.000000 0.000000
# 5 0.000000 0.000000 0.000000 0.000000 0.022677 0.000000
# 6 0.000000 0.000000 0.000000 0.000000 0.000000 0.108277
#
#
# Mechanical properties :
#
#
# Convention : Reuss Voigt Hill
#
# Bulk Modulus (GPa) = 31.50546 36.85513 34.18030
# Shear Modulus (GPa) = 22.68038 32.82521 27.75279
#
# Velocity S-wave (km/s) = 3.08355 3.70962 3.41098
# Velocity P-wave (km/s) = 5.08780 5.81370 5.46282
#
# Compressibility (1/GPa) = 0.03174053
#
# Stress axis : x y z
#
# Youngs Moduli (GPa) = 56.91501 75.07273 133.86147
#
# Poissons Ratio (x) = 0.03965 0.21720
# Poissons Ratio (y) = 0.03006 0.15522
# Poissons Ratio (z) = 0.09235 0.08705
#
# Static dielectric constant tensor:
#      x y z
#    x 1.991610 0.000000 0.000000 
#    y 0.000000 1.967860 0.000000 
#    z 0.000000 0.000000 1.894980 
# 
# From -- ./inp_files/18500.got.cif
#   From: 2010.05.17/outbox.cif.g08.bks.cpg/sg20_10_cif.got.tgz:18500.got - 2010.06.03 22:52:26.
