data_PCOD9317383
_publ_section_title
;
Structure prediction by ZEFSAII (Michael W. Deem and Ramdas Pophale) SiO2 
 PCOD9317383
Probable space group: C 2 2 21
;
_chemical_formula_sum "Si O2"
_cell_formula_units_Z 60
_cell_length_a 14.902902
_cell_length_b 12.835239
_cell_length_c 14.135540
_cell_angle_alpha 90.000000
_cell_angle_beta 90.000000
_cell_angle_gamma 90.000000
_cell_volume 2703.878730
_symmetry_space_group_name_H-M "C 2 2 21"
_symmetry_group_IT_number 20
_symmetry_cell_setting 'orthorhombic'
loop_
_space_group_symop_operation_xyz
x,y,z
-x,-y,1/2+z
x,-y,-z
-x,y,1/2-z
1/2+x,1/2+y,z
1/2-x,1/2-y,1/2+z
1/2+x,1/2-y,-z
1/2-x,1/2+y,1/2-z
loop_
_atom_site_type_symbol
_atom_site_label
_atom_site_fract_x
_atom_site_fract_y
_atom_site_fract_z
Si Si1 0.519766 0.198190 0.087761
Si Si2 0.804823 0.942170 0.100045
Si Si3 0.982813 0.500000 0.000000
Si Si4 0.646890 0.057729 0.668985
Si Si5 0.692414 0.762996 0.193833
Si Si6 0.162911 0.029231 0.194652
Si Si7 0.484023 0.582930 0.580406
Si Si8 0.122009 0.662027 0.272664
O O1 0.543874 0.092823 0.037391
O O2 0.540956 0.304731 0.038279
O O3 0.567306 0.208799 0.187656
O O4 0.416879 0.182562 0.122346
O O5 0.733470 0.848300 0.119332
O O6 0.909642 0.907331 0.099352
O O7 0.809084 0.014433 0.194719
O O8 0.787925 0.000000 0.000000
O O9 0.919063 0.448639 0.079915
O O10 0.645468 0.165460 0.726406
O O11 0.748819 0.020856 0.643157
O O12 0.616483 0.962470 0.736558
O O13 0.645507 0.651592 0.169722
O O14 0.782710 0.713557 0.236027
O O15 0.077873 0.958149 0.166111
O O16 0.470040 0.500000 0.500000
#
# Coordination Sequence:
#
# PCOD9317383 Si02
#       8
#     8   8   4   8   8   8   8   8
#     4  10  19  37  63  84 119 157 215 255 309 378
#     4  10  21  39  65  93 124 165 223 269 318 389
#     4  10  22  38  60  92 118 168 210 268 312 386
#     4   9  20  36  59  86 124 156 214 257 321 378
#     4  10  19  40  62  89 125 167 205 263 326 383
#     4  10  22  39  61  94 130 171 209 263 334 389
#     4  11  23  38  60  96 130 168 211 261 322 386
#     4   9  18  35  63  86 105 166 210 253 311 382
#
# _framework density 22.190342999999999
#
# number of rings (size 3 to 8) (size 9 to 14) (size 15 to 20)
#    0.000    2.133    1.333    2.000    2.800    2.133 
#    2.400    2.667    8.800    0.000    0.000    0.000 
#    0.000    0.000    0.000    0.000    0.000    0.000 
#
# Total GULP energy -167010.067571 kJ/mol
# GULP energy per Si atom -5567.002252 kJ/mol
# Density = 2.213984 g / cm^3
# Si number density = 22.190343 Si / 1000 Ang^3
#
#
#
# Elastic Constant Matrix: (Units=GPa)
#
#
# Indices 1 2 3 4 5 6 
#
# 1 20.8721 10.2478 4.3653 0.0000 0.0000 0.0000
# 2 10.2478 185.8819 35.2048 0.0000 0.0000 0.0000
# 3 4.3653 35.2048 61.2941 0.0000 0.0000 0.0000
# 4 0.0000 0.0000 0.0000 13.7805 0.0000 0.0000
# 5 0.0000 0.0000 0.0000 0.0000 11.8053 0.0000
# 6 0.0000 0.0000 0.0000 0.0000 0.0000 -189.1096
#
#
#
# Elastic Compliance Matrix: (Units=1/GPa)
#
#
# Indices 1 2 3 4 5 6 
#
# 1 0.049506 -0.002313 -0.002197 0.000000 0.000000 0.000000
# 2 -0.002313 0.006144 -0.003364 0.000000 0.000000 0.000000
# 3 -0.002197 -0.003364 0.018404 0.000000 0.000000 0.000000
# 4 0.000000 0.000000 0.000000 0.072566 0.000000 0.000000
# 5 0.000000 0.000000 0.000000 0.000000 0.084708 0.000000
# 6 0.000000 0.000000 0.000000 0.000000 0.000000 -0.005288
#
#
# Mechanical properties :
#
#
# Convention : Reuss Voigt Hill
#
# Bulk Modulus (GPa) = 17.15126 40.85377 29.00251
# Shear Modulus (GPa) = 19.14060 -18.15609 0.49225
#
# Velocity S-wave (km/s) = 2.94013 -2.86352 0.47150
# Velocity P-wave (km/s) = 4.38996 2.74182 3.65987
#
# Compressibility (1/GPa) = 0.05830477
#
# Stress axis : x y z
#
# Youngs Moduli (GPa) = 20.19949 162.74770 54.33706
#
# Poissons Ratio (x) = 0.37646 0.11939
# Poissons Ratio (y) = 0.04672 0.18281
# Poissons Ratio (z) = 0.04438 0.54755
#
# Static dielectric constant tensor:
#      x y z
#    x 1.921230 0.000000 0.000000 
#    y 0.000000 1.906340 0.000000 
#    z 0.000000 0.000000 1.958530 
# 
# From -- ./inp_files/21467.got.cif
#   From: 2010.05.17/outbox.cif.g08.bks.cpg/sg20_11_cif.got.tgz:21467.got - 2010.06.03 22:52:26.
