data_PCOD9317588
_publ_section_title
;
Structure prediction by ZEFSAII (Michael W. Deem and Ramdas Pophale) SiO2 
 PCOD9317588
Probable space group: C 2 2 21
;
_chemical_formula_sum "Si O2"
_cell_formula_units_Z 48
_cell_length_a 13.433384
_cell_length_b 21.261354
_cell_length_c 9.191448
_cell_angle_alpha 90.000000
_cell_angle_beta 90.000000
_cell_angle_gamma 90.000000
_cell_volume 2625.187227
_symmetry_space_group_name_H-M "C 2 2 21"
_symmetry_group_IT_number 20
_symmetry_cell_setting 'orthorhombic'
loop_
_space_group_symop_operation_xyz
x,y,z
-x,-y,1/2+z
x,-y,-z
-x,y,1/2-z
1/2+x,1/2+y,z
1/2-x,1/2-y,1/2+z
1/2+x,1/2-y,-z
1/2-x,1/2+y,1/2-z
loop_
_atom_site_type_symbol
_atom_site_label
_atom_site_fract_x
_atom_site_fract_y
_atom_site_fract_z
Si Si1 0.490618 0.698423 0.405647
Si Si2 0.183142 0.368508 0.083678
Si Si3 0.396221 0.347107 0.178880
Si Si4 0.488401 0.934134 0.575518
Si Si5 0.691384 0.267603 0.068973
Si Si6 0.095834 0.670137 0.610533
O O1 0.500000 0.668126 0.250000
O O2 0.565283 0.671159 0.521450
O O3 0.377672 0.695320 0.456118
O O4 0.519940 0.771688 0.396755
O O5 0.292943 0.384193 0.149419
O O6 0.115344 0.358501 0.228718
O O7 0.123106 0.415709 0.979580
O O8 0.193632 0.303847 0.988895
O O9 0.500000 0.373156 0.250000
O O10 0.362227 0.286229 0.277113
O O11 0.500000 0.936037 0.750000
O O12 0.559519 0.881096 0.504689
O O13 0.514005 0.000000 0.500000
O O14 0.799405 0.297283 0.073118
#
# Coordination Sequence:
#
# PCOD9317588 Si02
#       6
#     8   8   8   8   8   8
#     4  11  18  29  48  77 116 150 187 240 290 354
#     4  11  20  36  58  81 118 157 204 242 300 358
#     4   9  21  33  50  81 122 152 196 235 306 366
#     4  12  27  42  62  85 119 163 207 251 302 360
#     4  10  20  31  51  82 115 159 193 238 303 365
#     4  11  21  35  54  80 121 153 197 249 295 356
#
# _framework density 18.284410000000001
#
# number of rings (size 3 to 8) (size 9 to 14) (size 15 to 20)
#    0.000    1.333    5.000    1.500    2.333    1.333 
#    0.000    0.000    0.000    0.000    0.000   18.667 
#    0.000    0.000    0.000    0.000    0.000    0.000 
#
# Total GULP energy -133643.289750 kJ/mol
# GULP energy per Si atom -5568.470406 kJ/mol
# Density = 1.824279 g / cm^3
# Si number density = 18.284410 Si / 1000 Ang^3
#
#
#
# Elastic Constant Matrix: (Units=GPa)
#
#
# Indices 1 2 3 4 5 6 
#
# 1 97.8219 3.9143 31.6236 0.0000 0.0000 0.0000
# 2 3.9143 30.3146 24.2740 0.0000 0.0000 0.0000
# 3 31.6236 24.2740 146.4565 0.0000 0.0000 0.0000
# 4 0.0000 0.0000 0.0000 19.8083 0.0000 0.0000
# 5 0.0000 0.0000 0.0000 0.0000 26.3040 0.0000
# 6 0.0000 0.0000 0.0000 0.0000 0.0000 14.6800
#
#
#
# Elastic Compliance Matrix: (Units=1/GPa)
#
#
# Indices 1 2 3 4 5 6 
#
# 1 0.010998 0.000555 -0.002467 0.000000 0.000000 0.000000
# 2 0.000555 0.038063 -0.006429 0.000000 0.000000 0.000000
# 3 -0.002467 -0.006429 0.008426 0.000000 0.000000 0.000000
# 4 0.000000 0.000000 0.000000 0.050484 0.000000 0.000000
# 5 0.000000 0.000000 0.000000 0.000000 0.038017 0.000000
# 6 0.000000 0.000000 0.000000 0.000000 0.000000 0.068120
#
#
# Mechanical properties :
#
#
# Convention : Reuss Voigt Hill
#
# Bulk Modulus (GPa) = 24.50565 43.80186 34.15376
# Shear Modulus (GPa) = 20.45904 26.47720 23.46812
#
# Velocity S-wave (km/s) = 3.34868 3.80949 3.58649
# Velocity P-wave (km/s) = 5.32758 6.58464 5.98918
#
# Compressibility (1/GPa) = 0.04080692
#
# Stress axis : x y z
#
# Youngs Moduli (GPa) = 90.92666 26.27203 118.67929
#
# Poissons Ratio (x) = -0.01458 0.29275
# Poissons Ratio (y) = -0.05047 0.76293
# Poissons Ratio (z) = 0.22429 0.16889
#
# Static dielectric constant tensor:
#      x y z
#    x 1.705460 0.000000 0.000000 
#    y 0.000000 1.599320 0.000000 
#    z 0.000000 0.000000 1.684760 
# 
# From -- ./inp_files/8438.got.cif
#   From: 2010.05.17/outbox.cif.g08.bks.cpg/sg20_5_cif.got.tgz:8438.got - 2010.06.03 22:52:26.
