data_PCOD9317467
_publ_section_title
;
Structure prediction by ZEFSAII (Michael W. Deem and Ramdas Pophale) SiO2 
 PCOD9317467
Probable space group: C 2 2 21
;
_chemical_formula_sum "Si O2"
_cell_formula_units_Z 60
_cell_length_a 16.219031
_cell_length_b 11.320998
_cell_length_c 12.893962
_cell_angle_alpha 90.000000
_cell_angle_beta 90.000000
_cell_angle_gamma 90.000000
_cell_volume 2367.532795
_symmetry_space_group_name_H-M "C 2 2 21"
_symmetry_group_IT_number 20
_symmetry_cell_setting 'orthorhombic'
loop_
_space_group_symop_operation_xyz
x,y,z
-x,-y,1/2+z
x,-y,-z
-x,y,1/2-z
1/2+x,1/2+y,z
1/2-x,1/2-y,1/2+z
1/2+x,1/2-y,-z
1/2-x,1/2+y,1/2-z
loop_
_atom_site_type_symbol
_atom_site_label
_atom_site_fract_x
_atom_site_fract_y
_atom_site_fract_z
Si Si1 0.000000 0.491323 0.750000
Si Si2 0.354383 0.358832 0.082407
Si Si3 0.914076 0.945424 0.788436
Si Si4 0.219537 0.991461 0.888168
Si Si5 0.210173 0.770898 0.208359
Si Si6 0.168723 0.365473 0.990478
Si Si7 0.387329 0.789629 0.301556
Si Si8 0.602280 0.112272 0.426651
O O1 0.925528 0.582553 0.722947
O O2 0.965615 0.408229 0.839528
O O3 0.388163 0.490913 0.105969
O O4 0.353309 0.311816 0.203449
O O5 0.263183 0.365949 0.033687
O O6 0.399411 0.246216 0.030189
O O7 0.843489 0.963345 0.702369
O O8 0.000000 0.998008 0.750000
O O9 0.924457 0.804282 0.781046
O O10 0.240848 0.127147 0.869489
O O11 0.302646 0.914149 0.889242
O O12 0.178096 0.000000 0.000000
O O13 0.292521 0.765457 0.275124
O O14 0.175576 0.673177 0.129846
O O15 0.115079 0.285314 0.071161
O O16 0.138688 0.500000 0.000000
O O17 0.587924 0.000000 0.500000
#
# Coordination Sequence:
#
# PCOD9317467 Si02
#       8
#     4   8   8   8   8   8   8   8
#     4  12  26  42  70 102 144 190 232 308 366 442
#     4  10  24  41  68 103 134 182 232 294 356 429
#     4  11  23  42  64  95 137 182 227 288 359 429
#     4  10  19  38  68  93 124 177 238 284 348 429
#     4  10  20  39  67  95 131 174 228 293 345 419
#     4  11  23  40  71 106 136 177 243 299 352 430
#     4  11  23  43  65  99 140 183 233 291 364 424
#     4  11  24  46  73 100 139 186 244 301 370 440
#
# _framework density 25.342838
#
# number of rings (size 3 to 8) (size 9 to 14) (size 15 to 20)
#    0.000    1.333    2.000    4.800    2.800    0.533 
#    0.000    3.333    0.000    0.000    0.000    0.000 
#    0.000    0.000    0.000    0.000    0.000    0.000 
#
# Total GULP energy -167257.639206 kJ/mol
# GULP energy per Si atom -5575.254640 kJ/mol
# Density = 2.528516 g / cm^3
# Si number density = 25.342838 Si / 1000 Ang^3
#
#
#
# Elastic Constant Matrix: (Units=GPa)
#
#
# Indices 1 2 3 4 5 6 
#
# 1 55.7696 6.2027 13.5361 0.0000 0.0000 0.0000
# 2 6.2027 105.5314 4.9643 0.0000 0.0000 0.0000
# 3 13.5361 4.9643 121.1689 0.0000 0.0000 0.0000
# 4 0.0000 0.0000 0.0000 32.0979 0.0000 0.0000
# 5 0.0000 0.0000 0.0000 0.0000 0.3745 0.0000
# 6 0.0000 0.0000 0.0000 0.0000 0.0000 64.9839
#
#
#
# Elastic Compliance Matrix: (Units=1/GPa)
#
#
# Indices 1 2 3 4 5 6 
#
# 1 0.018534 -0.000994 -0.002030 0.000000 0.000000 0.000000
# 2 -0.000994 0.009547 -0.000280 0.000000 0.000000 0.000000
# 3 -0.002030 -0.000280 0.008491 0.000000 0.000000 0.000000
# 4 0.000000 0.000000 0.000000 0.031155 0.000000 0.000000
# 5 0.000000 0.000000 0.000000 0.000000 2.670510 0.000000
# 6 0.000000 0.000000 0.000000 0.000000 0.000000 0.015388
#
#
# Mechanical properties :
#
#
# Convention : Reuss Voigt Hill
#
# Bulk Modulus (GPa) = 33.37209 36.87511 35.12360
# Shear Modulus (GPa) = 1.80491 36.67571 19.24031
#
# Velocity S-wave (km/s) = 0.84483 3.80831 2.75835
# Velocity P-wave (km/s) = 3.76145 5.82407 4.90246
#
# Compressibility (1/GPa) = 0.02996516
#
# Stress axis : x y z
#
# Youngs Moduli (GPa) = 53.95461 104.74002 117.76940
#
# Poissons Ratio (x) = 0.10410 0.23904
# Poissons Ratio (y) = 0.05362 0.03299
# Poissons Ratio (z) = 0.10952 0.02934
#
# Static dielectric constant tensor:
#      x y z
#    x 2.035550 0.000000 0.000000 
#    y 0.000000 2.233870 0.000000 
#    z 0.000000 0.000000 2.085590 
# 
# From -- ./inp_files/21448.got.cif
#   From: 2010.05.17/outbox.cif.g08.bks.cpg/sg20_11_cif.got.tgz:21448.got - 2010.06.03 22:52:26.
