data_PCOD9317759
_publ_section_title
;
Structure prediction by ZEFSAII (Michael W. Deem and Ramdas Pophale) SiO2 
 PCOD9317759
Probable space group: C 2 2 21
;
_chemical_formula_sum "Si O2"
_cell_formula_units_Z 28
_cell_length_a 21.633226
_cell_length_b 13.106335
_cell_length_c 5.057674
_cell_angle_alpha 90.000000
_cell_angle_beta 90.000000
_cell_angle_gamma 90.000000
_cell_volume 1434.013978
_symmetry_space_group_name_H-M "C 2 2 21"
_symmetry_group_IT_number 20
_symmetry_cell_setting 'orthorhombic'
loop_
_space_group_symop_operation_xyz
x,y,z
-x,-y,1/2+z
x,-y,-z
-x,y,1/2-z
1/2+x,1/2+y,z
1/2-x,1/2-y,1/2+z
1/2+x,1/2-y,-z
1/2-x,1/2+y,1/2-z
loop_
_atom_site_type_symbol
_atom_site_label
_atom_site_fract_x
_atom_site_fract_y
_atom_site_fract_z
Si Si1 0.765504 0.098718 0.679785
Si Si2 0.500000 0.431564 0.250000
Si Si3 0.669914 0.218198 0.947749
Si Si4 0.380752 0.690504 0.932223
O O1 0.703688 0.117837 0.845802
O O2 0.775132 0.198114 0.491642
O O3 0.825481 0.110089 0.867625
O O4 0.765769 0.000000 0.500000
O O5 0.478459 0.500000 0.500000
O O6 0.555674 0.363436 0.361213
O O7 0.626174 0.266886 0.724893
O O8 0.634003 0.218956 0.223378
#
# Coordination Sequence:
#
# PCOD9317759 Si02
#       4
#     8   4   8   8
#     4  10  20  35  57  81 112 152 176 236 283 329
#     4  12  24  36  54  84 110 156 202 214 278 356
#     4  10  20  37  51  82 113 142 190 226 280 339
#     4  10  21  36  51  76 118 145 179 233 263 336
#
# _framework density 19.525611999999999
#
# number of rings (size 3 to 8) (size 9 to 14) (size 15 to 20)
#    1.714    0.000    2.857    2.571    4.000    0.000 
#    0.000    0.000    0.000    0.000    0.000    4.000 
#    0.000    0.000    0.000    0.000    0.000    0.000 
#
# Total GULP energy -78074.466223 kJ/mol
# GULP energy per Si atom -5576.747587 kJ/mol
# Density = 1.948117 g / cm^3
# Si number density = 19.525612 Si / 1000 Ang^3
#
#
#
# Elastic Constant Matrix: (Units=GPa)
#
#
# Indices 1 2 3 4 5 6 
#
# 1 71.8044 0.6619 -1.8269 0.0000 0.0000 0.0000
# 2 0.6619 25.3715 -7.1782 0.0000 0.0000 0.0000
# 3 -1.8269 -7.1782 79.9281 0.0000 0.0000 0.0000
# 4 0.0000 0.0000 0.0000 20.5205 0.0000 0.0000
# 5 0.0000 0.0000 0.0000 0.0000 24.8517 0.0000
# 6 0.0000 0.0000 0.0000 0.0000 0.0000 12.0218
#
#
#
# Elastic Compliance Matrix: (Units=1/GPa)
#
#
# Indices 1 2 3 4 5 6 
#
# 1 0.013937 -0.000281 0.000293 0.000000 0.000000 0.000000
# 2 -0.000281 0.040448 0.003626 0.000000 0.000000 0.000000
# 3 0.000293 0.003626 0.012844 0.000000 0.000000 0.000000
# 4 0.000000 0.000000 0.000000 0.048732 0.000000 0.000000
# 5 0.000000 0.000000 0.000000 0.000000 0.040239 0.000000
# 6 0.000000 0.000000 0.000000 0.000000 0.000000 0.083183
#
#
# Mechanical properties :
#
#
# Convention : Reuss Voigt Hill
#
# Bulk Modulus (GPa) = 13.42178 17.82415 15.62296
# Shear Modulus (GPa) = 19.45991 23.84193 21.65092
#
# Velocity S-wave (km/s) = 3.16038 3.49816 3.33355
# Velocity P-wave (km/s) = 4.49513 5.04624 4.77864
#
# Compressibility (1/GPa) = 0.07450579
#
# Stress axis : x y z
#
# Youngs Moduli (GPa) = 71.75259 24.72335 77.85974
#
# Poissons Ratio (x) = 0.00694 -0.02284
# Poissons Ratio (y) = 0.02013 -0.28233
# Poissons Ratio (z) = -0.02105 -0.08965
#
# Static dielectric constant tensor:
#      x y z
#    x 1.682640 0.000000 0.000000 
#    y 0.000000 1.713510 0.000000 
#    z 0.000000 0.000000 1.742290 
# 
# From -- ./inp_files/935.got.cif
#   From: 2010.05.17/outbox.cif.g08.bks.cpg/sg20_1_cif.got.tgz:935.got - 2010.06.03 22:52:26.
