data_PCOD9317189
_publ_section_title
;
Structure prediction by ZEFSAII (Michael W. Deem and Ramdas Pophale) SiO2 
 PCOD9317189
Probable space group: C 2 2 21
;
_chemical_formula_sum "Si O2"
_cell_formula_units_Z 64
_cell_length_a 8.869152
_cell_length_b 11.027809
_cell_length_c 30.348528
_cell_angle_alpha 90.000000
_cell_angle_beta 90.000000
_cell_angle_gamma 90.000000
_cell_volume 2968.308015
_symmetry_space_group_name_H-M "C 2 2 21"
_symmetry_group_IT_number 20
_symmetry_cell_setting 'orthorhombic'
loop_
_space_group_symop_operation_xyz
x,y,z
-x,-y,1/2+z
x,-y,-z
-x,y,1/2-z
1/2+x,1/2+y,z
1/2-x,1/2-y,1/2+z
1/2+x,1/2-y,-z
1/2-x,1/2+y,1/2-z
loop_
_atom_site_type_symbol
_atom_site_label
_atom_site_fract_x
_atom_site_fract_y
_atom_site_fract_z
Si Si1 0.181250 0.680559 0.374303
Si Si2 0.672169 0.152646 0.546754
Si Si3 0.835702 0.083797 0.923647
Si Si4 0.136749 0.935909 0.125492
Si Si5 0.166099 0.922194 0.228567
Si Si6 0.953510 0.427365 0.562966
Si Si7 0.332676 0.178926 0.229537
Si Si8 0.464732 0.695325 0.501603
O O1 0.234505 0.792246 0.404229
O O2 0.292072 0.568265 0.380018
O O3 0.021282 0.637566 0.394031
O O4 0.164260 0.704950 0.322734
O O5 0.775600 0.150178 0.590663
O O6 0.561281 0.268053 0.541065
O O7 0.793314 0.148041 0.506024
O O8 0.568257 0.034735 0.550665
O O9 0.927744 0.112588 0.968169
O O10 0.963678 0.055113 0.888111
O O11 0.707923 0.986183 0.930097
O O12 0.155040 0.901309 0.176159
O O13 0.238350 0.799913 0.248780
O O14 0.000000 0.932515 0.250000
O O15 0.250258 0.049981 0.236371
O O16 0.950300 0.325745 0.525664
O O17 0.500000 0.168039 0.250000
#
# Coordination Sequence:
#
# PCOD9317189 Si02
#       8
#     8   8   8   8   8   8   8   8
#     4   9  20  37  55  82 117 151 192 241 293 352
#     4  10  20  38  58  80 114 150 188 238 291 349
#     4  10  19  35  59  85 114 152 193 238 296 354
#     4   9  20  38  58  85 120 156 198 249 302 361
#     4  10  21  39  61  88 124 163 207 259 312 369
#     4  10  21  36  57  82 111 147 190 240 289 348
#     4  10  21  37  59  86 119 160 202 248 303 363
#     4  10  21  36  56  82 112 147 191 237 288 350
#
# _framework density 21.561104
#
# number of rings (size 3 to 8) (size 9 to 14) (size 15 to 20)
#    0.000    2.250    0.000    2.625    0.000    3.500 
#    0.000   11.250    0.000    0.000    0.000    0.000 
#    0.000    0.000    0.000    0.000    0.000    0.000 
#
# Total GULP energy -178860.905548 kJ/mol
# GULP energy per Si atom -5589.403298 kJ/mol
# Density = 2.151203 g / cm^3
# Si number density = 21.561104 Si / 1000 Ang^3
#
#
#
# Elastic Constant Matrix: (Units=GPa)
#
#
# Indices 1 2 3 4 5 6 
#
# 1 89.4698 49.8229 30.1512 0.0000 0.0000 0.0000
# 2 49.8229 111.9941 48.7434 0.0000 0.0000 0.0000
# 3 30.1512 48.7434 79.1491 0.0000 0.0000 0.0000
# 4 0.0000 0.0000 0.0000 32.4872 0.0000 0.0000
# 5 0.0000 0.0000 0.0000 0.0000 15.1052 0.0000
# 6 0.0000 0.0000 0.0000 0.0000 0.0000 44.5564
#
#
#
# Elastic Compliance Matrix: (Units=1/GPa)
#
#
# Indices 1 2 3 4 5 6 
#
# 1 0.015136 -0.005771 -0.002212 0.000000 0.000000 0.000000
# 2 -0.005771 0.014399 -0.006669 0.000000 0.000000 0.000000
# 3 -0.002212 -0.006669 0.017584 0.000000 0.000000 0.000000
# 4 0.000000 0.000000 0.000000 0.030781 0.000000 0.000000
# 5 0.000000 0.000000 0.000000 0.000000 0.066202 0.000000
# 6 0.000000 0.000000 0.000000 0.000000 0.000000 0.022443
#
#
# Mechanical properties :
#
#
# Convention : Reuss Voigt Hill
#
# Bulk Modulus (GPa) = 56.13195 59.78310 57.95753
# Shear Modulus (GPa) = 24.77840 28.55613 26.66726
#
# Velocity S-wave (km/s) = 3.39369 3.64322 3.52066
# Velocity P-wave (km/s) = 6.43790 6.74425 6.59285
#
# Compressibility (1/GPa) = 0.01781517
#
# Stress axis : x y z
#
# Youngs Moduli (GPa) = 66.06770 69.44961 56.86930
#
# Poissons Ratio (x) = 0.40078 0.12580
# Poissons Ratio (y) = 0.38126 0.37927
# Poissons Ratio (z) = 0.14614 0.46317
#
# Static dielectric constant tensor:
#      x y z
#    x 1.796280 0.000000 0.000000 
#    y 0.000000 1.816500 0.000000 
#    z 0.000000 0.000000 1.791070 
# 
# From -- ./inp_files/31091.got.cif
#   From: 2010.05.17/outbox.cif.g08.bks.cpg/sg20_16_cif.got.tgz:31091.got - 2010.06.03 22:52:26.
