data_PCOD9317006
_publ_section_title
;
Structure prediction by ZEFSAII (Michael W. Deem and Ramdas Pophale) SiO2 
 PCOD9317006
Probable space group: C 2 2 21
;
_chemical_formula_sum "Si O2"
_cell_formula_units_Z 56
_cell_length_a 21.711369
_cell_length_b 5.514433
_cell_length_c 18.338578
_cell_angle_alpha 90.000000
_cell_angle_beta 90.000000
_cell_angle_gamma 90.000000
_cell_volume 2195.602567
_symmetry_space_group_name_H-M "C 2 2 21"
_symmetry_group_IT_number 20
_symmetry_cell_setting 'orthorhombic'
loop_
_space_group_symop_operation_xyz
x,y,z
-x,-y,1/2+z
x,-y,-z
-x,y,1/2-z
1/2+x,1/2+y,z
1/2-x,1/2-y,1/2+z
1/2+x,1/2-y,-z
1/2-x,1/2+y,1/2-z
loop_
_atom_site_type_symbol
_atom_site_label
_atom_site_fract_x
_atom_site_fract_y
_atom_site_fract_z
Si Si1 0.365534 0.760340 0.956584
Si Si2 0.331829 0.179326 0.715704
Si Si3 0.897353 0.765562 0.481993
Si Si4 0.026345 0.312792 0.169954
Si Si5 0.545660 0.309555 0.154798
Si Si6 0.366349 0.683290 0.787060
Si Si7 0.728171 0.796096 0.062333
O O1 0.382032 0.701212 0.872156
O O2 0.293085 0.833671 0.943173
O O3 0.371690 0.500000 0.000000
O O4 0.391336 0.000000 0.000000
O O5 0.399765 0.188064 0.678444
O O6 0.331826 0.431661 0.762505
O O7 0.284891 0.158328 0.647816
O O8 0.331539 0.932324 0.763055
O O9 0.921257 0.500000 0.500000
O O10 0.892547 0.784490 0.395161
O O11 0.837325 0.795563 0.531932
O O12 0.937671 0.000000 0.500000
O O13 0.009207 0.567196 0.135696
O O14 0.000000 0.318225 0.250000
O O15 0.010584 0.055182 0.137929
O O16 0.571346 0.314203 0.237007
O O17 0.737111 0.000000 0.000000
#
# Coordination Sequence:
#
# PCOD9317006 Si02
#       7
#     8   8   8   8   8   8   8
#     4  11  24  38  55  80 107 145 193 236 281 324
#     4  10  21  36  58  85 110 148 185 220 281 330
#     4  11  19  32  53  78 112 150 176 209 263 331
#     4  10  19  33  53  81 107 132 174 225 265 318
#     4  10  20  34  55  84 111 146 182 216 275 325
#     4  10  20  37  55  78 109 141 186 233 264 323
#     4  10  21  36  55  82 119 150 179 221 276 337
#
# _framework density 25.505528999999999
#
# number of rings (size 3 to 8) (size 9 to 14) (size 15 to 20)
#    0.000    1.714    0.000    7.714    0.000    3.429 
#    0.000    0.000    0.000    0.000    0.000  140.000 
#    0.000    0.000    0.000    0.000    0.000    0.000 
#
# Total GULP energy -155947.228052 kJ/mol
# GULP energy per Si atom -5569.543859 kJ/mol
# Density = 2.544748 g / cm^3
# Si number density = 25.505529 Si / 1000 Ang^3
#
#
#
# Elastic Constant Matrix: (Units=GPa)
#
#
# Indices 1 2 3 4 5 6 
#
# 1 53.1855 11.1567 30.8118 0.0000 0.0000 0.0000
# 2 11.1567 275.2222 68.2277 0.0000 0.0000 0.0000
# 3 30.8118 68.2277 169.2807 0.0000 0.0000 0.0000
# 4 0.0000 0.0000 0.0000 34.9654 0.0000 0.0000
# 5 0.0000 0.0000 0.0000 0.0000 45.3582 0.0000
# 6 0.0000 0.0000 0.0000 0.0000 0.0000 17.8016
#
#
#
# Elastic Compliance Matrix: (Units=1/GPa)
#
#
# Indices 1 2 3 4 5 6 
#
# 1 0.021021 0.000107 -0.003869 0.000000 0.000000 0.000000
# 2 0.000107 0.004037 -0.001647 0.000000 0.000000 0.000000
# 3 -0.003869 -0.001647 0.007275 0.000000 0.000000 0.000000
# 4 0.000000 0.000000 0.000000 0.028600 0.000000 0.000000
# 5 0.000000 0.000000 0.000000 0.000000 0.022047 0.000000
# 6 0.000000 0.000000 0.000000 0.000000 0.000000 0.056175
#
#
# Mechanical properties :
#
#
# Convention : Reuss Voigt Hill
#
# Bulk Modulus (GPa) = 46.47720 79.78675 63.13198
# Shear Modulus (GPa) = 31.81772 45.45783 38.63777
#
# Velocity S-wave (km/s) = 3.53580 4.22628 3.89637
# Velocity P-wave (km/s) = 5.91026 7.42733 6.71180
#
# Compressibility (1/GPa) = 0.02151592
#
# Stress axis : x y z
#
# Youngs Moduli (GPa) = 47.57083 247.68992 137.45077
#
# Poissons Ratio (x) = -0.02652 0.53185
# Poissons Ratio (y) = -0.00509 0.22634
# Poissons Ratio (z) = 0.18407 0.40787
#
# Static dielectric constant tensor:
#      x y z
#    x 2.103580 0.000000 0.000000 
#    y 0.000000 2.154950 0.000000 
#    z 0.000000 0.000000 1.938260 
# 
# From -- ./inp_files/22300.got.cif
#   From: 2010.05.17/outbox.cif.g08.bks.cpg/sg20_12_cif.got.tgz:22300.got - 2010.06.03 22:52:26.
