data_PCOD9317916
_publ_section_title
;
Structure prediction by ZEFSAII (Michael W. Deem and Ramdas Pophale) SiO2 
 PCOD9317916
Probable space group: C 2 2 21
;
_chemical_formula_sum "Si O2"
_cell_formula_units_Z 36
_cell_length_a 15.493372
_cell_length_b 12.819626
_cell_length_c 8.028122
_cell_angle_alpha 90.000000
_cell_angle_beta 90.000000
_cell_angle_gamma 90.000000
_cell_volume 1594.539446
_symmetry_space_group_name_H-M "C 2 2 21"
_symmetry_group_IT_number 20
_symmetry_cell_setting 'orthorhombic'
loop_
_space_group_symop_operation_xyz
x,y,z
-x,-y,1/2+z
x,-y,-z
-x,y,1/2-z
1/2+x,1/2+y,z
1/2-x,1/2-y,1/2+z
1/2+x,1/2-y,-z
1/2-x,1/2+y,1/2-z
loop_
_atom_site_type_symbol
_atom_site_label
_atom_site_fract_x
_atom_site_fract_y
_atom_site_fract_z
Si Si1 0.126055 0.560753 0.226729
Si Si2 0.749440 0.690883 0.058587
Si Si3 0.506711 0.000000 0.500000
Si Si4 0.408919 0.556007 0.321036
Si Si5 0.223375 0.094279 0.691105
O O1 0.165752 0.650158 0.342285
O O2 0.059679 0.585576 0.076999
O O3 0.206863 0.495070 0.171179
O O4 0.071613 0.483630 0.347932
O O5 0.664018 0.645252 0.150842
O O6 0.759937 0.814573 0.060575
O O7 0.741517 0.645279 0.873352
O O8 0.420936 0.500000 0.500000
O O9 0.500000 0.593355 0.250000
O O10 0.367430 0.465598 0.203510
#
# Coordination Sequence:
#
# PCOD9317916 Si02
#       5
#     8   8   4   8   8
#     4  10  20  40  57  83 117 148 183 236 286 336
#     4  10  21  39  59  82 116 151 188 233 289 335
#     4  10  20  36  62  82 110 150 188 226 290 340
#     4   9  20  41  59  80 113 152 189 234 279 335
#     4  10  21  39  59  82 116 151 188 233 289 335
#
# _framework density 22.577052999999999
#
# number of rings (size 3 to 8) (size 9 to 14) (size 15 to 20)
#    0.000    2.222    2.222    1.333    3.111    1.778 
#   12.000    0.000    0.000    0.000    0.000    0.000 
#    0.000    0.000    0.000    0.000    0.000    0.000 
#
# Total GULP energy -100373.829441 kJ/mol
# GULP energy per Si atom -5576.323858 kJ/mol
# Density = 2.252567 g / cm^3
# Si number density = 22.577053 Si / 1000 Ang^3
#
#
#
# Elastic Constant Matrix: (Units=GPa)
#
#
# Indices 1 2 3 4 5 6 
#
# 1 117.3232 5.3800 30.4099 0.0000 0.0000 0.0000
# 2 5.3800 68.0358 12.5008 0.0000 0.0000 0.0000
# 3 30.4099 12.5008 65.5061 0.0000 0.0000 0.0000
# 4 0.0000 0.0000 0.0000 35.3572 0.0000 0.0000
# 5 0.0000 0.0000 0.0000 0.0000 -69.7839 0.0000
# 6 0.0000 0.0000 0.0000 0.0000 0.0000 4.1925
#
#
#
# Elastic Compliance Matrix: (Units=1/GPa)
#
#
# Indices 1 2 3 4 5 6 
#
# 1 0.009690 0.000062 -0.004510 0.000000 0.000000 0.000000
# 2 0.000062 0.015233 -0.002936 0.000000 0.000000 0.000000
# 3 -0.004510 -0.002936 0.017920 0.000000 0.000000 0.000000
# 4 0.000000 0.000000 0.000000 0.028283 0.000000 0.000000
# 5 0.000000 0.000000 0.000000 0.000000 -0.014330 0.000000
# 6 0.000000 0.000000 0.000000 0.000000 0.000000 0.238523
#
#
# Mechanical properties :
#
#
# Convention : Reuss Voigt Hill
#
# Bulk Modulus (GPa) = 35.61902 38.60515 37.11209
# Shear Modulus (GPa) = 15.65222 7.45810 11.55516
#
# Velocity S-wave (km/s) = 2.63588 1.81950 2.26478
# Velocity P-wave (km/s) = 5.00746 4.64225 4.82831
#
# Compressibility (1/GPa) = 0.02807489
#
# Stress axis : x y z
#
# Youngs Moduli (GPa) = 103.20332 65.64850 55.80431
#
# Poissons Ratio (x) = -0.00410 0.25168
# Poissons Ratio (y) = -0.00645 0.16384
# Poissons Ratio (z) = 0.46546 0.19274
#
# Static dielectric constant tensor:
#      x y z
#    x 1.839610 0.000000 0.000000 
#    y 0.000000 1.819270 0.000000 
#    z 0.000000 0.000000 1.967050 
# 
# From -- ./inp_files/8010.got.cif
#   From: 2010.05.17/outbox.cif.g08.bks.cpg/sg20_5_cif.got.tgz:8010.got - 2010.06.03 22:52:26.
