data_PCOD9317301
_publ_section_title
;
Structure prediction by ZEFSAII (Michael W. Deem and Ramdas Pophale) SiO2 
 PCOD9317301
Probable space group: C 2 2 21
;
_chemical_formula_sum "Si O2"
_cell_formula_units_Z 56
_cell_length_a 21.267838
_cell_length_b 16.079313
_cell_length_c 8.710179
_cell_angle_alpha 90.000000
_cell_angle_beta 90.000000
_cell_angle_gamma 90.000000
_cell_volume 2978.639284
_symmetry_space_group_name_H-M "C 2 2 21"
_symmetry_group_IT_number 20
_symmetry_cell_setting 'orthorhombic'
loop_
_space_group_symop_operation_xyz
x,y,z
-x,-y,1/2+z
x,-y,-z
-x,y,1/2-z
1/2+x,1/2+y,z
1/2-x,1/2-y,1/2+z
1/2+x,1/2-y,-z
1/2-x,1/2+y,1/2-z
loop_
_atom_site_type_symbol
_atom_site_label
_atom_site_fract_x
_atom_site_fract_y
_atom_site_fract_z
Si Si1 0.060911 0.281866 0.147232
Si Si2 0.704653 0.438298 0.634264
Si Si3 0.844064 0.847291 0.587618
Si Si4 0.234576 0.791222 0.430757
Si Si5 0.989709 0.592442 0.068674
Si Si6 0.361801 0.163803 0.941389
Si Si7 0.739323 0.583161 0.844948
O O1 0.091496 0.201960 0.066862
O O2 0.111962 0.315943 0.270594
O O3 0.000000 0.261026 0.250000
O O4 0.039285 0.350255 0.024047
O O5 0.679701 0.500000 0.500000
O O6 0.656371 0.392105 0.747069
O O7 0.744599 0.364973 0.554674
O O8 0.742159 0.499726 0.746238
O O9 0.789195 0.776793 0.580818
O O10 0.819858 0.910599 0.458497
O O11 0.171016 0.743884 0.480957
O O12 0.230367 0.838994 0.270332
O O13 0.000000 0.591109 0.250000
O O14 0.993146 0.500000 0.000000
O O15 0.920940 0.629804 0.033630
O O16 0.305055 0.098374 0.929030
#
# Coordination Sequence:
#
# PCOD9317301 Si02
#       7
#     8   8   8   8   8   8   8
#     4  10  21  40  64  85 120 169 208 256 308 365
#     4  10  21  37  55  88 127 160 195 252 318 367
#     4  11  19  37  59  88 121 158 206 253 301 378
#     4  10  19  36  60  90 124 160 206 243 312 375
#     4  11  25  45  61  90 124 165 217 264 311 371
#     4  10  20  39  61  88 125 165 204 259 309 379
#     4  10  21  34  59  95 126 159 197 258 322 366
#
# _framework density 18.800530999999999
#
# number of rings (size 3 to 8) (size 9 to 14) (size 15 to 20)
#    0.000    1.714    2.857    2.571    2.000    2.286 
#    5.143    0.000    0.000    1.714    0.000    0.000 
#    0.000    0.000    0.000    0.000    0.000    0.000 
#
# Total GULP energy -156193.160818 kJ/mol
# GULP energy per Si atom -5578.327172 kJ/mol
# Density = 1.875774 g / cm^3
# Si number density = 18.800531 Si / 1000 Ang^3
#
#
#
# Elastic Constant Matrix: (Units=GPa)
#
#
# Indices 1 2 3 4 5 6 
#
# 1 75.9121 41.0060 38.7422 0.0000 0.0000 0.0000
# 2 41.0060 118.9531 49.1106 0.0000 0.0000 0.0000
# 3 38.7422 49.1106 113.2855 0.0000 0.0000 0.0000
# 4 0.0000 0.0000 0.0000 40.9625 0.0000 0.0000
# 5 0.0000 0.0000 0.0000 0.0000 16.3972 0.0000
# 6 0.0000 0.0000 0.0000 0.0000 0.0000 7.9877
#
#
#
# Elastic Compliance Matrix: (Units=1/GPa)
#
#
# Indices 1 2 3 4 5 6 
#
# 1 0.017649 -0.004375 -0.004139 0.000000 0.000000 0.000000
# 2 -0.004375 0.011324 -0.003413 0.000000 0.000000 0.000000
# 3 -0.004139 -0.003413 0.011722 0.000000 0.000000 0.000000
# 4 0.000000 0.000000 0.000000 0.024413 0.000000 0.000000
# 5 0.000000 0.000000 0.000000 0.000000 0.060986 0.000000
# 6 0.000000 0.000000 0.000000 0.000000 0.000000 0.125193
#
#
# Mechanical properties :
#
#
# Convention : Reuss Voigt Hill
#
# Bulk Modulus (GPa) = 59.37868 62.87426 61.12647
# Shear Modulus (GPa) = 17.80918 25.02226 21.41572
#
# Velocity S-wave (km/s) = 3.08111 3.65215 3.37872
# Velocity P-wave (km/s) = 6.65656 7.16238 6.91410
#
# Compressibility (1/GPa) = 0.01684106
#
# Stress axis : x y z
#
# Youngs Moduli (GPa) = 56.66086 88.30885 85.30808
#
# Poissons Ratio (x) = 0.38637 0.35309
# Poissons Ratio (y) = 0.24790 0.29114
# Poissons Ratio (z) = 0.23452 0.30138
#
# Static dielectric constant tensor:
#      x y z
#    x 1.618400 0.000000 0.000000 
#    y 0.000000 1.689840 0.000000 
#    z 0.000000 0.000000 1.698320 
# 
# From -- ./inp_files/8711.got.cif
#   From: 2010.05.17/outbox.cif.g08.bks.cpg/sg20_5_cif.got.tgz:8711.got - 2010.06.03 22:52:26.
