data_PCOD9317111
_publ_section_title
;
Structure prediction by ZEFSAII (Michael W. Deem and Ramdas Pophale) SiO2 
 PCOD9317111
Probable space group: C 2 2 21
;
_chemical_formula_sum "Si O2"
_cell_formula_units_Z 32
_cell_length_a 18.542116
_cell_length_b 5.331010
_cell_length_c 14.524605
_cell_angle_alpha 90.000000
_cell_angle_beta 90.000000
_cell_angle_gamma 90.000000
_cell_volume 1435.731144
_symmetry_space_group_name_H-M "C 2 2 21"
_symmetry_group_IT_number 20
_symmetry_cell_setting 'orthorhombic'
loop_
_space_group_symop_operation_xyz
x,y,z
-x,-y,1/2+z
x,-y,-z
-x,y,1/2-z
1/2+x,1/2+y,z
1/2-x,1/2-y,1/2+z
1/2+x,1/2-y,-z
1/2-x,1/2+y,1/2-z
loop_
_atom_site_type_symbol
_atom_site_label
_atom_site_fract_x
_atom_site_fract_y
_atom_site_fract_z
Si Si1 0.531218 0.608063 0.147442
Si Si2 0.924647 0.392931 0.696119
Si Si3 0.910019 0.000000 0.000000
Si Si4 0.186325 0.500000 0.500000
Si Si5 0.280304 0.030122 0.794469
O O1 0.500000 0.643407 0.250000
O O2 0.586426 0.376204 0.148957
O O3 0.463711 0.538956 0.085068
O O4 0.566082 0.876572 0.125803
O O5 0.862796 0.464430 0.767733
O O6 0.000000 0.359619 0.750000
O O7 0.862100 0.751078 0.009017
O O8 0.228740 0.474724 0.404189
O O9 0.236527 0.805109 0.745802
#
# Coordination Sequence:
#
# PCOD9317111 Si02
#       5
#     8   8   4   4   8
#     4  10  19  34  57  92 127 157 204 273 329 374
#     4  10  20  39  64  91 127 165 210 270 331 392
#     4  12  22  38  69 104 131 176 232 284 334 414
#     4  12  24  44  69  96 133 186 240 274 332 432
#     4  12  26  46  70  99 138 187 232 286 348 411
#
# _framework density 22.288294
#
# number of rings (size 3 to 8) (size 9 to 14) (size 15 to 20)
#    0.000    1.000    0.000   10.500    0.000    0.000 
#    0.000    7.500    0.000    0.000    0.000    0.000 
#    0.000    0.000    0.000    0.000    0.000    0.000 
#
# Total GULP energy -89445.604833 kJ/mol
# GULP energy per Si atom -5590.350302 kJ/mol
# Density = 2.223757 g / cm^3
# Si number density = 22.288294 Si / 1000 Ang^3
#
#
#
# Elastic Constant Matrix: (Units=GPa)
#
#
# Indices 1 2 3 4 5 6 
#
# 1 51.0882 -11.1329 10.0268 0.0000 0.0000 0.0000
# 2 -11.1329 165.0414 19.7280 0.0000 0.0000 0.0000
# 3 10.0268 19.7280 130.7309 0.0000 0.0000 0.0000
# 4 0.0000 0.0000 0.0000 43.8662 0.0000 0.0000
# 5 0.0000 0.0000 0.0000 0.0000 57.0066 0.0000
# 6 0.0000 0.0000 0.0000 0.0000 0.0000 46.7885
#
#
#
# Elastic Compliance Matrix: (Units=1/GPa)
#
#
# Indices 1 2 3 4 5 6 
#
# 1 0.020271 0.001582 -0.001793 0.000000 0.000000 0.000000
# 2 0.001582 0.006294 -0.001071 0.000000 0.000000 0.000000
# 3 -0.001793 -0.001071 0.007948 0.000000 0.000000 0.000000
# 4 0.000000 0.000000 0.000000 0.022797 0.000000 0.000000
# 5 0.000000 0.000000 0.000000 0.000000 0.017542 0.000000
# 6 0.000000 0.000000 0.000000 0.000000 0.000000 0.021373
#
#
# Mechanical properties :
#
#
# Convention : Reuss Voigt Hill
#
# Bulk Modulus (GPa) = 31.30143 42.67826 36.98984
# Shear Modulus (GPa) = 45.68763 51.41483 48.55123
#
# Velocity S-wave (km/s) = 4.53244 4.80814 4.67232
# Velocity P-wave (km/s) = 6.43933 7.07206 6.76310
#
# Compressibility (1/GPa) = 0.03194742
#
# Stress axis : x y z
#
# Youngs Moduli (GPa) = 49.33242 158.88617 125.81018
#
# Poissons Ratio (x) = -0.25132 0.22563
# Poissons Ratio (y) = -0.07803 0.13475
# Poissons Ratio (z) = 0.08847 0.17018
#
# Static dielectric constant tensor:
#      x y z
#    x 1.671280 0.000000 0.000000 
#    y 0.000000 -41.632750 0.000000 
#    z 0.000000 0.000000 1.747980 
# 
# From -- ./inp_files/17458.got.cif
#   From: 2010.05.17/outbox.cif.g08.bks.cpg/sg20_9_cif.got.tgz:17458.got - 2010.06.03 22:52:26.
