data_PCOD9317786
_publ_section_title
;
Structure prediction by ZEFSAII (Michael W. Deem and Ramdas Pophale) SiO2 
 PCOD9317786
Probable space group: C 2 2 21
;
_chemical_formula_sum "Si O2"
_cell_formula_units_Z 60
_cell_length_a 10.740457
_cell_length_b 18.189783
_cell_length_c 14.830196
_cell_angle_alpha 90.000000
_cell_angle_beta 90.000000
_cell_angle_gamma 90.000000
_cell_volume 2897.324705
_symmetry_space_group_name_H-M "C 2 2 21"
_symmetry_group_IT_number 20
_symmetry_cell_setting 'orthorhombic'
loop_
_space_group_symop_operation_xyz
x,y,z
-x,-y,1/2+z
x,-y,-z
-x,y,1/2-z
1/2+x,1/2+y,z
1/2-x,1/2-y,1/2+z
1/2+x,1/2-y,-z
1/2-x,1/2+y,1/2-z
loop_
_atom_site_type_symbol
_atom_site_label
_atom_site_fract_x
_atom_site_fract_y
_atom_site_fract_z
Si Si1 0.118070 0.085869 0.185535
Si Si2 0.371971 0.278134 0.560937
Si Si3 0.804693 0.916223 0.312654
Si Si4 0.000000 0.196802 0.750000
Si Si5 0.407789 0.227763 0.070058
Si Si6 0.108364 0.362370 0.175883
Si Si7 0.418133 0.050167 0.914375
Si Si8 0.394051 0.096630 0.183732
O O1 0.108223 0.138637 0.097745
O O2 0.255377 0.108903 0.221500
O O3 0.000000 0.098265 0.250000
O O4 0.136184 0.997504 0.173389
O O5 0.480916 0.256439 0.491948
O O6 0.230175 0.262036 0.529104
O O7 0.377686 0.221475 0.645311
O O8 0.728004 0.901960 0.219175
O O9 0.703988 0.902463 0.391591
O O10 0.910096 0.855503 0.307888
O O11 0.923087 0.239132 0.828262
O O12 0.412328 0.140940 0.091181
O O13 0.000000 0.364039 0.250000
O O14 0.047160 0.407078 0.093271
O O15 0.413085 0.989198 0.834504
O O16 0.401892 0.000000 0.000000
O O17 0.500000 0.121751 0.250000
#
# Coordination Sequence:
#
# PCOD9317786 Si02
#       8
#     8   8   8   4   8   8   8   8
#     4  10  21  38  62  92 123 166 211 265 321 392
#     4  11  24  42  63  96 135 165 222 273 329 391
#     4  10  21  38  65  86 124 166 216 259 318 398
#     4  12  22  42  68  88 124 176 216 260 336 402
#     4  11  25  42  64  95 131 168 217 273 328 396
#     4  10  20  38  64  95 126 169 215 269 329 393
#     4  10  20  35  60  93 124 163 210 268 324 376
#     4  10  20  38  61  87 119 162 215 258 315 386
#
# _framework density 20.708758
#
# number of rings (size 3 to 8) (size 9 to 14) (size 15 to 20)
#    0.000    1.600    2.667    3.200    0.000    6.400 
#    0.000    1.333    0.000    0.000    0.000    0.000 
#    0.000    0.000    0.000    0.000    0.000    0.000 
#
# Total GULP energy -167172.244323 kJ/mol
# GULP energy per Si atom -5572.408144 kJ/mol
# Density = 2.066162 g / cm^3
# Si number density = 20.708758 Si / 1000 Ang^3
#
#
#
# Elastic Constant Matrix: (Units=GPa)
#
#
# Indices 1 2 3 4 5 6 
#
# 1 125.2933 27.0010 29.7088 0.0000 0.0000 0.0000
# 2 27.0010 104.0818 19.0321 0.0000 0.0000 0.0000
# 3 29.7088 19.0321 53.4135 0.0000 0.0000 0.0000
# 4 0.0000 0.0000 0.0000 31.7537 0.0000 0.0000
# 5 0.0000 0.0000 0.0000 0.0000 31.9211 0.0000
# 6 0.0000 0.0000 0.0000 0.0000 0.0000 21.9405
#
#
#
# Elastic Compliance Matrix: (Units=1/GPa)
#
#
# Indices 1 2 3 4 5 6 
#
# 1 0.009434 -0.001592 -0.004680 0.000000 0.000000 0.000000
# 2 -0.001592 0.010546 -0.002872 0.000000 0.000000 0.000000
# 3 -0.004680 -0.002872 0.022348 0.000000 0.000000 0.000000
# 4 0.000000 0.000000 0.000000 0.031492 0.000000 0.000000
# 5 0.000000 0.000000 0.000000 0.000000 0.031327 0.000000
# 6 0.000000 0.000000 0.000000 0.000000 0.000000 0.045578
#
#
# Mechanical properties :
#
#
# Convention : Reuss Voigt Hill
#
# Bulk Modulus (GPa) = 41.59717 48.25251 44.92484
# Shear Modulus (GPa) = 28.24419 30.92617 29.58518
#
# Velocity S-wave (km/s) = 3.69708 3.86863 3.78382
# Velocity P-wave (km/s) = 6.19313 6.58074 6.38988
#
# Compressibility (1/GPa) = 0.02404010
#
# Stress axis : x y z
#
# Youngs Moduli (GPa) = 105.99976 94.82301 44.74579
#
# Poissons Ratio (x) = 0.15092 0.20942
# Poissons Ratio (y) = 0.16871 0.12853
# Poissons Ratio (z) = 0.49609 0.27238
#
# Static dielectric constant tensor:
#      x y z
#    x 1.764020 0.000000 0.000000 
#    y 0.000000 1.767260 0.000000 
#    z 0.000000 0.000000 1.790800 
# 
# From -- ./inp_files/20239.got.cif
#   From: 2010.05.17/outbox.cif.g08.bks.cpg/sg20_11_cif.got.tgz:20239.got - 2010.06.03 22:52:26.
