data_PCOD9317557
_publ_section_title
;
Structure prediction by ZEFSAII (Michael W. Deem and Ramdas Pophale) SiO2 
 PCOD9317557
Probable space group: C 2 2 21
;
_chemical_formula_sum "Si O2"
_cell_formula_units_Z 48
_cell_length_a 5.267988
_cell_length_b 17.711537
_cell_length_c 21.734618
_cell_angle_alpha 90.000000
_cell_angle_beta 90.000000
_cell_angle_gamma 90.000000
_cell_volume 2027.930371
_symmetry_space_group_name_H-M "C 2 2 21"
_symmetry_group_IT_number 20
_symmetry_cell_setting 'orthorhombic'
loop_
_space_group_symop_operation_xyz
x,y,z
-x,-y,1/2+z
x,-y,-z
-x,y,1/2-z
1/2+x,1/2+y,z
1/2-x,1/2-y,1/2+z
1/2+x,1/2-y,-z
1/2-x,1/2+y,1/2-z
loop_
_atom_site_type_symbol
_atom_site_label
_atom_site_fract_x
_atom_site_fract_y
_atom_site_fract_z
Si Si1 0.075401 0.003908 0.377699
Si Si2 0.612062 0.252619 0.410084
Si Si3 0.439722 0.115204 0.566227
Si Si4 0.500000 0.775788 0.250000
Si Si5 0.852864 0.137715 0.672362
Si Si6 0.763376 0.500000 0.000000
Si Si7 0.398564 0.323458 0.872336
O O1 0.134717 0.088411 0.358873
O O2 0.935920 0.948962 0.329557
O O3 0.905463 0.006642 0.439334
O O4 0.315443 0.954840 0.398095
O O5 0.729427 0.321564 0.450986
O O6 0.571524 0.303935 0.348617
O O7 0.841708 0.193924 0.408423
O O8 0.346355 0.208144 0.409314
O O9 0.650219 0.145693 0.614493
O O10 0.571231 0.075552 0.508673
O O11 0.276445 0.835214 0.234116
O O12 0.547842 0.720349 0.308046
#
# Coordination Sequence:
#
# PCOD9317557 Si02
#       7
#     8   8   8   4   8   4   8
#     4  10  23  41  67 102 135 173 226 291 337 393
#     4  10  20  41  66  92 134 177 211 272 337 388
#     4  10  19  42  68  94 126 181 221 270 326 413
#     4  10  20  44  64 104 132 194 214 266 340 412
#     4   9  20  39  67  93 134 181 225 264 322 410
#     4  10  22  40  76  90 132 174 234 274 346 396
#     4  11  24  40  68  98 142 172 219 283 337 390
#
# _framework density 23.669450999999999
#
# number of rings (size 3 to 8) (size 9 to 14) (size 15 to 20)
#    0.000    2.000    3.333    0.500    4.667    2.667 
#    3.000    0.000   14.667    0.000    0.000    0.000 
#    0.000    0.000    0.000    0.000    0.000    0.000 
#
# Total GULP energy -133824.307921 kJ/mol
# GULP energy per Si atom -5576.012830 kJ/mol
# Density = 2.361558 g / cm^3
# Si number density = 23.669451 Si / 1000 Ang^3
#
#
#
# Elastic Constant Matrix: (Units=GPa)
#
#
# Indices 1 2 3 4 5 6 
#
# 1 106.5282 51.1256 12.4685 0.0000 0.0000 0.0000
# 2 51.1256 173.9583 27.6600 0.0000 0.0000 0.0000
# 3 12.4685 27.6600 79.6880 0.0000 0.0000 0.0000
# 4 0.0000 0.0000 0.0000 26.8834 0.0000 0.0000
# 5 0.0000 0.0000 0.0000 0.0000 18.2702 0.0000
# 6 0.0000 0.0000 0.0000 0.0000 0.0000 30.9191
#
#
#
# Elastic Compliance Matrix: (Units=1/GPa)
#
#
# Indices 1 2 3 4 5 6 
#
# 1 0.010959 -0.003120 -0.000632 0.000000 0.000000 0.000000
# 2 -0.003120 0.006973 -0.001932 0.000000 0.000000 0.000000
# 3 -0.000632 -0.001932 0.013318 0.000000 0.000000 0.000000
# 4 0.000000 0.000000 0.000000 0.037198 0.000000 0.000000
# 5 0.000000 0.000000 0.000000 0.000000 0.054734 0.000000
# 6 0.000000 0.000000 0.000000 0.000000 0.000000 0.032342
#
#
# Mechanical properties :
#
#
# Convention : Reuss Voigt Hill
#
# Bulk Modulus (GPa) = 50.29696 60.29807 55.29752
# Shear Modulus (GPa) = 28.81531 33.14258 30.97894
#
# Velocity S-wave (km/s) = 3.49292 3.74602 3.62168
# Velocity P-wave (km/s) = 6.12888 6.65136 6.39546
#
# Compressibility (1/GPa) = 0.01988192
#
# Stress axis : x y z
#
# Youngs Moduli (GPa) = 91.25254 143.41571 75.08417
#
# Poissons Ratio (x) = 0.44749 0.04742
# Poissons Ratio (y) = 0.28473 0.14507
# Poissons Ratio (z) = 0.05764 0.27709
#
# Static dielectric constant tensor:
#      x y z
#    x 1.993740 0.000000 0.000000 
#    y 0.000000 1.905130 0.000000 
#    z 0.000000 0.000000 1.974900 
# 
# From -- ./inp_files/28373.got.cif
#   From: 2010.05.17/outbox.cif.g08.bks.cpg/sg20_15_cif.got.tgz:28373.got - 2010.06.03 22:52:26.
