data_PCOD9317259
_publ_section_title
;
Structure prediction by ZEFSAII (Michael W. Deem and Ramdas Pophale) SiO2 
 PCOD9317259
Probable space group: C 2 2 21
;
_chemical_formula_sum "Si O2"
_cell_formula_units_Z 64
_cell_length_a 13.987219
_cell_length_b 10.193908
_cell_length_c 24.383897
_cell_angle_alpha 90.000000
_cell_angle_beta 90.000000
_cell_angle_gamma 90.000000
_cell_volume 3476.763900
_symmetry_space_group_name_H-M "C 2 2 21"
_symmetry_group_IT_number 20
_symmetry_cell_setting 'orthorhombic'
loop_
_space_group_symop_operation_xyz
x,y,z
-x,-y,1/2+z
x,-y,-z
-x,y,1/2-z
1/2+x,1/2+y,z
1/2-x,1/2-y,1/2+z
1/2+x,1/2-y,-z
1/2-x,1/2+y,1/2-z
loop_
_atom_site_type_symbol
_atom_site_label
_atom_site_fract_x
_atom_site_fract_y
_atom_site_fract_z
Si Si1 0.108091 0.589681 0.448141
Si Si2 0.401643 0.127714 0.460386
Si Si3 0.806836 0.600618 0.729566
Si Si4 0.398421 0.398278 0.279767
Si Si5 0.685480 0.358794 0.968565
Si Si6 0.597451 0.875273 0.835637
Si Si7 0.618499 0.020858 0.331556
Si Si8 0.326953 0.648607 0.341314
O O1 0.100559 0.500000 0.500000
O O2 0.203346 0.670486 0.455931
O O3 0.114538 0.492575 0.396247
O O4 0.011169 0.669802 0.447387
O O5 0.353504 0.247075 0.491843
O O6 0.370111 0.096665 0.398197
O O7 0.396330 0.000000 0.500000
O O8 0.693645 0.612190 0.739831
O O9 0.836345 0.461583 0.703793
O O10 0.858919 0.594866 0.789084
O O11 0.842622 0.713276 0.688730
O O12 0.500000 0.391069 0.250000
O O13 0.391577 0.276831 0.321555
O O14 0.385295 0.534563 0.311332
O O15 0.646516 0.355851 0.905982
O O16 0.677695 0.500000 0.000000
O O17 0.486298 0.915374 0.822448
O O18 0.713879 0.112669 0.330614
#
# Coordination Sequence:
#
# PCOD9317259 Si02
#       8
#     8   8   8   8   8   8   8   8
#     4   8  17  34  55  78 105 141 181 218 262 322
#     4  10  20  36  57  83 108 138 183 231 270 314
#     4  11  21  35  54  80 107 137 179 226 268 315
#     4  11  22  37  53  76 109 146 178 212 265 334
#     4  10  19  36  57  79 108 144 180 221 272 327
#     4  11  21  37  59  79 105 147 186 219 266 330
#     4   9  19  35  57  77 103 142 183 217 263 324
#     4  10  21  36  55  82 111 139 177 230 276 316
#
# _framework density 18.407921999999999
#
# number of rings (size 3 to 8) (size 9 to 14) (size 15 to 20)
#    0.000    2.000    0.000    4.875    0.000    2.000 
#    0.000    1.875    0.000    0.000    0.000    0.000 
#    0.000    0.000    0.000    0.000    0.000    0.000 
#
# Total GULP energy -178140.377364 kJ/mol
# GULP energy per Si atom -5566.886793 kJ/mol
# Density = 1.836602 g / cm^3
# Si number density = 18.407922 Si / 1000 Ang^3
#
#
#
# Elastic Constant Matrix: (Units=GPa)
#
#
# Indices 1 2 3 4 5 6 
#
# 1 53.7592 22.8265 42.0356 0.0000 0.0000 0.0000
# 2 22.8265 56.4822 25.8466 0.0000 0.0000 0.0000
# 3 42.0356 25.8466 128.7767 0.0000 0.0000 0.0000
# 4 0.0000 0.0000 0.0000 36.9784 0.0000 0.0000
# 5 0.0000 0.0000 0.0000 0.0000 24.3959 0.0000
# 6 0.0000 0.0000 0.0000 0.0000 0.0000 8.3838
#
#
#
# Elastic Compliance Matrix: (Units=1/GPa)
#
#
# Indices 1 2 3 4 5 6 
#
# 1 0.027777 -0.007792 -0.007503 0.000000 0.000000 0.000000
# 2 -0.007792 0.021681 -0.001808 0.000000 0.000000 0.000000
# 3 -0.007503 -0.001808 0.010577 0.000000 0.000000 0.000000
# 4 0.000000 0.000000 0.000000 0.027043 0.000000 0.000000
# 5 0.000000 0.000000 0.000000 0.000000 0.040991 0.000000
# 6 0.000000 0.000000 0.000000 0.000000 0.000000 0.119278
#
#
# Mechanical properties :
#
#
# Convention : Reuss Voigt Hill
#
# Bulk Modulus (GPa) = 38.71631 46.71507 42.71569
# Shear Modulus (GPa) = 17.23166 23.83888 20.53527
#
# Velocity S-wave (km/s) = 3.06289 3.60256 3.34363
# Velocity P-wave (km/s) = 5.79539 6.53738 6.17754
#
# Compressibility (1/GPa) = 0.02582891
#
# Stress axis : x y z
#
# Youngs Moduli (GPa) = 36.00107 46.12288 94.54084
#
# Poissons Ratio (x) = 0.35940 0.70935
# Poissons Ratio (y) = 0.28053 0.17093
# Poissons Ratio (z) = 0.27012 0.08339
#
# Static dielectric constant tensor:
#      x y z
#    x 1.695980 0.000000 0.000000 
#    y 0.000000 1.596870 0.000000 
#    z 0.000000 0.000000 1.693890 
# 
# From -- ./inp_files/29352.got.cif
#   From: 2010.05.17/outbox.cif.g08.bks.cpg/sg20_15_cif.got.tgz:29352.got - 2010.06.03 22:52:26.
