data_PCOD9317187
_publ_section_title
;
Structure prediction by ZEFSAII (Michael W. Deem and Ramdas Pophale) SiO2 
 PCOD9317187
Probable space group: C 2 2 21
;
_chemical_formula_sum "Si O2"
_cell_formula_units_Z 52
_cell_length_a 9.332276
_cell_length_b 18.831428
_cell_length_c 14.341164
_cell_angle_alpha 90.000000
_cell_angle_beta 90.000000
_cell_angle_gamma 90.000000
_cell_volume 2520.317360
_symmetry_space_group_name_H-M "C 2 2 21"
_symmetry_group_IT_number 20
_symmetry_cell_setting 'orthorhombic'
loop_
_space_group_symop_operation_xyz
x,y,z
-x,-y,1/2+z
x,-y,-z
-x,y,1/2-z
1/2+x,1/2+y,z
1/2-x,1/2-y,1/2+z
1/2+x,1/2-y,-z
1/2-x,1/2+y,1/2-z
loop_
_atom_site_type_symbol
_atom_site_label
_atom_site_fract_x
_atom_site_fract_y
_atom_site_fract_z
Si Si1 0.189151 0.606749 0.921963
Si Si2 0.611288 0.120694 0.518470
Si Si3 0.806848 0.649496 0.782293
Si Si4 0.000000 0.216114 0.250000
Si Si5 0.500000 0.293694 0.250000
Si Si6 0.911045 0.000000 0.000000
Si Si7 0.078685 0.775401 0.450143
Si Si8 0.899175 0.877899 0.575797
O O1 0.141123 0.615079 0.814740
O O2 0.308079 0.547347 0.935960
O O3 0.273356 0.679853 0.947159
O O4 0.050975 0.592970 0.986176
O O5 0.665075 0.107157 0.623325
O O6 0.595230 0.205545 0.509772
O O7 0.734009 0.102606 0.444233
O O8 0.637716 0.658953 0.770677
O O9 0.877779 0.728500 0.784484
O O10 0.934642 0.166007 0.330709
O O11 0.537346 0.253262 0.345011
O O12 0.007041 0.948415 0.936908
O O13 0.956660 0.825737 0.493397
#
# Coordination Sequence:
#
# PCOD9317187 Si02
#       8
#     8   8   8   4   4   4   8   8
#     4  10  22  39  63  90 131 176 217 269 328 390
#     4  12  20  36  67  99 129 166 217 281 340 399
#     4  11  20  35  64 104 132 161 214 274 344 397
#     4  12  22  42  65 102 139 170 206 292 352 396
#     4  10  20  30  53  94 129 170 202 238 320 414
#     4  10  26  48  60  84 132 186 232 274 318 390
#     4  10  19  35  58  96 131 166 204 275 334 391
#     4  11  23  41  63  91 133 177 224 265 334 395
#
# _framework density 20.632321000000001
#
# number of rings (size 3 to 8) (size 9 to 14) (size 15 to 20)
#    0.000    1.231    4.615    2.769    0.000    0.615 
#    2.769    0.000    3.385    0.000    0.000    0.000 
#    0.000    0.000    0.000    0.000    0.000    0.000 
#
# Total GULP energy -145129.938617 kJ/mol
# GULP energy per Si atom -5581.920716 kJ/mol
# Density = 2.058536 g / cm^3
# Si number density = 20.632321 Si / 1000 Ang^3
#
#
#
# Elastic Constant Matrix: (Units=GPa)
#
#
# Indices 1 2 3 4 5 6 
#
# 1 141.7216 24.4825 21.7613 0.0000 0.0000 0.0000
# 2 24.4825 68.8930 12.0090 0.0000 0.0000 0.0000
# 3 21.7613 12.0090 90.0986 0.0000 0.0000 0.0000
# 4 0.0000 0.0000 0.0000 8.4451 0.0000 0.0000
# 5 0.0000 0.0000 0.0000 0.0000 19.0654 0.0000
# 6 0.0000 0.0000 0.0000 0.0000 0.0000 17.0129
#
#
#
# Elastic Compliance Matrix: (Units=1/GPa)
#
#
# Indices 1 2 3 4 5 6 
#
# 1 0.007719 -0.002476 -0.001534 0.000000 0.000000 0.000000
# 2 -0.002476 0.015655 -0.001489 0.000000 0.000000 0.000000
# 3 -0.001534 -0.001489 0.011668 0.000000 0.000000 0.000000
# 4 0.000000 0.000000 0.000000 0.118412 0.000000 0.000000
# 5 0.000000 0.000000 0.000000 0.000000 0.052451 0.000000
# 6 0.000000 0.000000 0.000000 0.000000 0.000000 0.058779
#
#
# Mechanical properties :
#
#
# Convention : Reuss Voigt Hill
#
# Bulk Modulus (GPa) = 41.58991 46.35766 43.97378
# Shear Modulus (GPa) = 17.62447 25.06870 21.34659
#
# Velocity S-wave (km/s) = 2.92587 3.48950 3.22004
# Velocity P-wave (km/s) = 5.62278 6.22517 5.93163
#
# Compressibility (1/GPa) = 0.02404429
#
# Stress axis : x y z
#
# Youngs Moduli (GPa) = 129.54390 63.87915 85.70467
#
# Poissons Ratio (x) = 0.15815 0.13151
# Poissons Ratio (y) = 0.32072 0.12758
# Poissons Ratio (z) = 0.19878 0.09509
#
# Static dielectric constant tensor:
#      x y z
#    x 1.787800 0.000000 0.000000 
#    y 0.000000 1.706560 0.000000 
#    z 0.000000 0.000000 1.761760 
# 
# From -- ./inp_files/19149.got.cif
#   From: 2010.05.17/outbox.cif.g08.bks.cpg/sg20_10_cif.got.tgz:19149.got - 2010.06.03 22:52:26.
