data_PCOD9317321
_publ_section_title
;
Structure prediction by ZEFSAII (Michael W. Deem and Ramdas Pophale) SiO2 
 PCOD9317321
Probable space group: C 2 2 21
;
_chemical_formula_sum "Si O2"
_cell_formula_units_Z 60
_cell_length_a 28.531070
_cell_length_b 12.575226
_cell_length_c 7.442701
_cell_angle_alpha 90.000000
_cell_angle_beta 90.000000
_cell_angle_gamma 90.000000
_cell_volume 2670.326898
_symmetry_space_group_name_H-M "C 2 2 21"
_symmetry_group_IT_number 20
_symmetry_cell_setting 'orthorhombic'
loop_
_space_group_symop_operation_xyz
x,y,z
-x,-y,1/2+z
x,-y,-z
-x,y,1/2-z
1/2+x,1/2+y,z
1/2-x,1/2-y,1/2+z
1/2+x,1/2-y,-z
1/2-x,1/2+y,1/2-z
loop_
_atom_site_type_symbol
_atom_site_label
_atom_site_fract_x
_atom_site_fract_y
_atom_site_fract_z
Si Si1 0.819671 0.931938 0.317005
Si Si2 0.049486 0.586140 0.849672
Si Si3 0.500000 0.378656 0.750000
Si Si4 0.418874 0.535342 0.709885
Si Si5 0.467705 0.742024 0.598848
Si Si6 0.762548 0.419882 0.746980
Si Si7 0.706475 0.760383 0.038209
Si Si8 0.650314 0.945449 0.198400
O O1 0.867017 0.959001 0.213005
O O2 0.818892 0.809943 0.382652
O O3 0.822435 0.000000 0.500000
O O4 0.773495 0.982216 0.232943
O O5 0.096216 0.559652 0.736256
O O6 0.000000 0.606204 0.750000
O O7 0.037966 0.500000 0.000000
O O8 0.064987 0.682902 0.980592
O O9 0.455220 0.452325 0.786706
O O10 0.494858 0.314454 0.565320
O O11 0.416327 0.500000 0.500000
O O12 0.440778 0.651796 0.706886
O O13 0.500000 0.797425 0.750000
O O14 0.767469 0.354803 0.563912
O O15 0.812284 0.475644 0.793663
O O16 0.741077 0.328278 0.876886
O O17 0.672730 0.826519 0.173798
O O18 0.646446 0.000000 0.000000
#
# Coordination Sequence:
#
# PCOD9317321 Si02
#       8
#     8   8   4   8   8   8   8   8
#     4   9  18  33  56  88 117 162 209 255 312 385
#     4  11  23  43  65  90 124 168 225 277 320 386
#     4  10  20  38  60  94 126 178 210 266 324 398
#     4   9  18  33  60  87 127 165 209 255 323 392
#     4  11  21  37  66  93 127 173 216 267 325 392
#     4  10  20  36  61  91 121 160 213 260 312 391
#     4  10  19  36  62  87 121 161 211 256 317 386
#     4   9  20  38  65  87 122 171 213 253 327 386
#
# _framework density 22.469159999999999
#
# number of rings (size 3 to 8) (size 9 to 14) (size 15 to 20)
#    0.000    2.133    1.333    2.000    0.000    1.067 
#    0.000    3.333   23.467    0.000    0.000    0.000 
#    0.000    0.000    0.000    0.000    0.000    0.000 
#
# Total GULP energy -167081.641454 kJ/mol
# GULP energy per Si atom -5569.388048 kJ/mol
# Density = 2.241802 g / cm^3
# Si number density = 22.469160 Si / 1000 Ang^3
#
#
#
# Elastic Constant Matrix: (Units=GPa)
#
#
# Indices 1 2 3 4 5 6 
#
# 1 148.3718 39.5681 32.7380 0.0000 0.0000 0.0000
# 2 39.5681 101.1053 20.3690 0.0000 0.0000 0.0000
# 3 32.7380 20.3690 48.8876 0.0000 0.0000 0.0000
# 4 0.0000 0.0000 0.0000 40.5565 0.0000 0.0000
# 5 0.0000 0.0000 0.0000 0.0000 -35.2115 0.0000
# 6 0.0000 0.0000 0.0000 0.0000 0.0000 -2.9424
#
#
#
# Elastic Compliance Matrix: (Units=1/GPa)
#
#
# Indices 1 2 3 4 5 6 
#
# 1 0.008390 -0.002349 -0.004640 0.000000 0.000000 0.000000
# 2 -0.002349 0.011454 -0.003200 0.000000 0.000000 0.000000
# 3 -0.004640 -0.003200 0.024895 0.000000 0.000000 0.000000
# 4 0.000000 0.000000 0.000000 0.024657 0.000000 0.000000
# 5 0.000000 0.000000 0.000000 0.000000 -0.028400 0.000000
# 6 0.000000 0.000000 0.000000 0.000000 0.000000 -0.339860
#
#
# Mechanical properties :
#
#
# Convention : Reuss Voigt Hill
#
# Bulk Modulus (GPa) = 41.04524 53.74611 47.39567
# Shear Modulus (GPa) = -18.49344 14.19316 -2.15014
#
# Velocity S-wave (km/s) = -2.87201 2.51604 -0.97929
# Velocity P-wave (km/s) = 2.70353 5.69319 4.45654
#
# Compressibility (1/GPa) = 0.02436336
#
# Stress axis : x y z
#
# Youngs Moduli (GPa) = 119.19022 87.30219 40.16823
#
# Poissons Ratio (x) = 0.20505 0.18637
# Poissons Ratio (y) = 0.27994 0.12852
# Poissons Ratio (z) = 0.55302 0.27934
#
# Static dielectric constant tensor:
#      x y z
#    x 1.970370 0.000000 0.000000 
#    y 0.000000 2.058840 0.000000 
#    z 0.000000 0.000000 1.930560 
# 
# From -- ./inp_files/11119.got.cif
#   From: 2010.05.17/outbox.cif.g08.bks.cpg/sg20_6_cif.got.tgz:11119.got - 2010.06.03 22:52:26.
