data_PCOD9317242
_publ_section_title
;
Structure prediction by ZEFSAII (Michael W. Deem and Ramdas Pophale) SiO2 
 PCOD9317242
Probable space group: C 2 2 21
;
_chemical_formula_sum "Si O2"
_cell_formula_units_Z 40
_cell_length_a 22.220917
_cell_length_b 7.243973
_cell_length_c 11.204023
_cell_angle_alpha 90.000000
_cell_angle_beta 90.000000
_cell_angle_gamma 90.000000
_cell_volume 1803.486068
_symmetry_space_group_name_H-M "C 2 2 21"
_symmetry_group_IT_number 20
_symmetry_cell_setting 'orthorhombic'
loop_
_space_group_symop_operation_xyz
x,y,z
-x,-y,1/2+z
x,-y,-z
-x,y,1/2-z
1/2+x,1/2+y,z
1/2-x,1/2-y,1/2+z
1/2+x,1/2-y,-z
1/2-x,1/2+y,1/2-z
loop_
_atom_site_type_symbol
_atom_site_label
_atom_site_fract_x
_atom_site_fract_y
_atom_site_fract_z
Si Si1 0.502753 0.176353 0.620984
Si Si2 0.328912 0.262132 0.303922
Si Si3 0.140477 0.436631 0.374513
Si Si4 0.460230 0.763142 0.632211
Si Si5 0.212010 0.921805 0.628242
O O1 0.500000 0.274565 0.750000
O O2 0.570607 0.105592 0.608375
O O3 0.486931 0.279961 0.498872
O O4 0.461795 0.990349 0.632203
O O5 0.392630 0.315464 0.361650
O O6 0.279026 0.161610 0.384424
O O7 0.296392 0.423938 0.229671
O O8 0.349396 0.105803 0.211499
O O9 0.168054 0.500000 0.500000
O O10 0.170993 0.249269 0.333647
O O11 0.500000 0.713688 0.750000
O O12 0.192110 0.000000 0.500000
#
# Coordination Sequence:
#
# PCOD9317242 Si02
#       5
#     8   8   8   8   8
#     4  10  19  35  69 103 128 186 226 282 373 415
#     4  12  24  44  65 102 142 181 242 297 356 433
#     4  12  21  42  70  96 138 176 239 289 353 440
#     4  10  19  36  67  97 132 181 228 287 359 418
#     4  12  28  41  70 102 135 195 237 294 364 428
#
# _framework density 22.179266999999999
#
# number of rings (size 3 to 8) (size 9 to 14) (size 15 to 20)
#    0.000    0.800   10.000    0.000    2.800    0.000 
#    0.000    1.000    0.000    0.000    0.000    0.000 
#    0.000    0.000    0.000    0.000    0.000    0.000 
#
# Total GULP energy -111679.415751 kJ/mol
# GULP energy per Si atom -5583.970788 kJ/mol
# Density = 2.212879 g / cm^3
# Si number density = 22.179267 Si / 1000 Ang^3
#
#
#
# Elastic Constant Matrix: (Units=GPa)
#
#
# Indices 1 2 3 4 5 6 
#
# 1 89.1412 12.6545 3.7107 0.0000 0.0000 0.0000
# 2 12.6545 84.5039 17.8300 0.0000 0.0000 0.0000
# 3 3.7107 17.8300 130.7703 0.0000 0.0000 0.0000
# 4 0.0000 0.0000 0.0000 2.6924 0.0000 0.0000
# 5 0.0000 0.0000 0.0000 0.0000 31.7199 0.0000
# 6 0.0000 0.0000 0.0000 0.0000 0.0000 -122.0135
#
#
#
# Elastic Compliance Matrix: (Units=1/GPa)
#
#
# Indices 1 2 3 4 5 6 
#
# 1 0.011463 -0.001697 -0.000094 0.000000 0.000000 0.000000
# 2 -0.001697 0.012435 -0.001647 0.000000 0.000000 0.000000
# 3 -0.000094 -0.001647 0.007874 0.000000 0.000000 0.000000
# 4 0.000000 0.000000 0.000000 0.371418 0.000000 0.000000
# 5 0.000000 0.000000 0.000000 0.000000 0.031526 0.000000
# 6 0.000000 0.000000 0.000000 0.000000 0.000000 -0.008196
#
#
# Mechanical properties :
#
#
# Convention : Reuss Voigt Hill
#
# Bulk Modulus (GPa) = 40.16623 41.42287 40.79455
# Shear Modulus (GPa) = 11.32002 0.49445 5.90724
#
# Velocity S-wave (km/s) = 2.26163 0.47267 1.63376
# Velocity P-wave (km/s) = 4.99691 4.36060 4.68956
#
# Compressibility (1/GPa) = 0.02489654
#
# Stress axis : x y z
#
# Youngs Moduli (GPa) = 87.23767 80.41524 126.99579
#
# Poissons Ratio (x) = 0.13645 0.01193
# Poissons Ratio (y) = 0.14802 0.20921
# Poissons Ratio (z) = 0.00819 0.13247
#
# Static dielectric constant tensor:
#      x y z
#    x 1.831440 0.000000 0.000000 
#    y 0.000000 1.779310 0.000000 
#    z 0.000000 0.000000 2.021940 
# 
# From -- ./inp_files/16175.got.cif
#   From: 2010.05.17/outbox.cif.g08.bks.cpg/sg20_9_cif.got.tgz:16175.got - 2010.06.03 22:52:26.
