data_PCOD9317700
_publ_section_title
;
Structure prediction by ZEFSAII (Michael W. Deem and Ramdas Pophale) SiO2 
 PCOD9317700
Probable space group: C 2 2 21
;
_chemical_formula_sum "Si O2"
_cell_formula_units_Z 64
_cell_length_a 10.587704
_cell_length_b 26.071329
_cell_length_c 11.270705
_cell_angle_alpha 90.000000
_cell_angle_beta 90.000000
_cell_angle_gamma 90.000000
_cell_volume 3111.114852
_symmetry_space_group_name_H-M "C 2 2 21"
_symmetry_group_IT_number 20
_symmetry_cell_setting 'orthorhombic'
loop_
_space_group_symop_operation_xyz
x,y,z
-x,-y,1/2+z
x,-y,-z
-x,y,1/2-z
1/2+x,1/2+y,z
1/2-x,1/2-y,1/2+z
1/2+x,1/2-y,-z
1/2-x,1/2+y,1/2-z
loop_
_atom_site_type_symbol
_atom_site_label
_atom_site_fract_x
_atom_site_fract_y
_atom_site_fract_z
Si Si1 0.409197 0.901836 0.846751
Si Si2 0.306808 0.260609 0.229914
Si Si3 0.968262 0.350815 0.432520
Si Si4 0.989209 0.248688 0.552114
Si Si5 0.309731 0.559056 0.528092
Si Si6 0.206603 0.627528 0.732224
Si Si7 0.806834 0.838858 0.768322
Si Si8 0.497122 0.361764 0.558568
O O1 0.500000 0.930015 0.750000
O O2 0.303207 0.928138 0.932108
O O3 0.327910 0.860799 0.771213
O O4 0.500889 0.875072 0.941164
O O5 0.367775 0.246128 0.102588
O O6 0.401521 0.244886 0.334356
O O7 0.289702 0.321585 0.243790
O O8 0.191018 0.222859 0.258657
O O9 0.861426 0.380608 0.358727
O O10 0.946464 0.290654 0.456713
O O11 0.095035 0.353903 0.354967
O O12 0.975452 0.190778 0.510369
O O13 0.334056 0.500000 0.500000
O O14 0.264995 0.579943 0.658449
O O15 0.440437 0.590087 0.509514
O O16 0.903436 0.858747 0.670142
O O17 0.860319 0.859738 0.892486
#
# Coordination Sequence:
#
# PCOD9317700 Si02
#       8
#     8   8   8   8   8   8   8   8
#     4  10  20  38  62  96 123 160 212 267 334 409
#     4  11  21  32  52  87 131 169 210 254 317 404
#     4  10  20  34  57  90 128 169 202 259 333 402
#     4  11  21  32  52  87 131 171 203 255 326 399
#     4  10  22  44  68  86 121 174 222 285 342 382
#     4  10  21  37  57  87 126 164 219 268 320 390
#     4  10  20  34  59  89 120 164 209 253 312 399
#     4  10  21  37  59  87 120 163 224 264 313 393
#
# _framework density 20.571404000000001
#
# number of rings (size 3 to 8) (size 9 to 14) (size 15 to 20)
#    0.000    1.750    2.500    2.250    0.000    6.000 
#    4.500    0.000   11.000    0.750    0.000    0.000 
#    0.000    0.000    0.000    0.000    0.000    0.000 
#
# Total GULP energy -178232.369809 kJ/mol
# GULP energy per Si atom -5569.761557 kJ/mol
# Density = 2.052458 g / cm^3
# Si number density = 20.571404 Si / 1000 Ang^3
#
#
#
# Elastic Constant Matrix: (Units=GPa)
#
#
# Indices 1 2 3 4 5 6 
#
# 1 34.2438 16.2807 34.3155 0.0000 0.0000 0.0000
# 2 16.2807 106.2941 30.2443 0.0000 0.0000 0.0000
# 3 34.3155 30.2443 88.8119 0.0000 0.0000 0.0000
# 4 0.0000 0.0000 0.0000 25.2910 0.0000 0.0000
# 5 0.0000 0.0000 0.0000 0.0000 25.2965 0.0000
# 6 0.0000 0.0000 0.0000 0.0000 0.0000 19.7461
#
#
#
# Elastic Compliance Matrix: (Units=1/GPa)
#
#
# Indices 1 2 3 4 5 6 
#
# 1 0.048158 -0.002305 -0.017823 0.000000 0.000000 0.000000
# 2 -0.002305 0.010528 -0.002694 0.000000 0.000000 0.000000
# 3 -0.017823 -0.002694 0.019064 0.000000 0.000000 0.000000
# 4 0.000000 0.000000 0.000000 0.039540 0.000000 0.000000
# 5 0.000000 0.000000 0.000000 0.000000 0.039531 0.000000
# 6 0.000000 0.000000 0.000000 0.000000 0.000000 0.050643
#
#
# Mechanical properties :
#
#
# Convention : Reuss Voigt Hill
#
# Bulk Modulus (GPa) = 31.14755 43.44786 37.29771
# Shear Modulus (GPa) = 18.95308 23.96734 21.46021
#
# Velocity S-wave (km/s) = 3.03864 3.41703 3.23337
# Velocity P-wave (km/s) = 5.24263 6.06090 5.66655
#
# Compressibility (1/GPa) = 0.03210526
#
# Stress axis : x y z
#
# Youngs Moduli (GPa) = 20.76488 94.98855 52.45575
#
# Poissons Ratio (x) = 0.21896 0.93490
# Poissons Ratio (y) = 0.04786 0.14134
# Poissons Ratio (z) = 0.37008 0.25594
#
# Static dielectric constant tensor:
#      x y z
#    x 1.836910 0.000000 0.000000 
#    y 0.000000 1.723800 0.000000 
#    z 0.000000 0.000000 1.788340 
# 
# From -- ./inp_files/14532.got.cif
#   From: 2010.05.17/outbox.cif.g08.bks.cpg/sg20_8_cif.got.tgz:14532.got - 2010.06.03 22:52:26.
