data_PCOD9317741
_publ_section_title
;
Structure prediction by ZEFSAII (Michael W. Deem and Ramdas Pophale) SiO2 
 PCOD9317741
Probable space group: C 2 2 21
;
_chemical_formula_sum "Si O2"
_cell_formula_units_Z 32
_cell_length_a 11.961500
_cell_length_b 8.091338
_cell_length_c 16.166243
_cell_angle_alpha 90.000000
_cell_angle_beta 90.000000
_cell_angle_gamma 90.000000
_cell_volume 1564.642384
_symmetry_space_group_name_H-M "C 2 2 21"
_symmetry_group_IT_number 20
_symmetry_cell_setting 'orthorhombic'
loop_
_space_group_symop_operation_xyz
x,y,z
-x,-y,1/2+z
x,-y,-z
-x,y,1/2-z
1/2+x,1/2+y,z
1/2-x,1/2-y,1/2+z
1/2+x,1/2-y,-z
1/2-x,1/2+y,1/2-z
loop_
_atom_site_type_symbol
_atom_site_label
_atom_site_fract_x
_atom_site_fract_y
_atom_site_fract_z
Si Si1 0.319060 0.380230 0.434404
Si Si2 0.598758 0.952893 0.863079
Si Si3 0.301413 0.646781 0.945386
Si Si4 0.644967 0.926269 0.669371
O O1 0.378274 0.500000 0.500000
O O2 0.391374 0.230570 0.400584
O O3 0.223575 0.292217 0.489788
O O4 0.255555 0.482586 0.363675
O O5 0.637252 0.937075 0.767897
O O6 0.469912 0.007250 0.864447
O O7 0.684357 0.069964 0.911738
O O8 0.354402 0.739251 0.866769
O O9 0.354905 0.500000 0.000000
#
# Coordination Sequence:
#
# PCOD9317741 Si02
#       4
#     8   8   8   8
#     4   9  19  34  53  77 104 135 171 213 256 304
#     4  10  20  35  55  77 104 138 173 213 260 307
#     4   9  19  34  53  77 104 135 171 213 256 304
#     4  10  20  35  55  77 104 138 173 213 260 307
#
# _framework density 20.451958000000001
#
# number of rings (size 3 to 8) (size 9 to 14) (size 15 to 20)
#    0.000    2.500    0.000    1.500    0.000   10.000 
#    0.000    7.500    0.000   27.000    0.000    0.000 
#    0.000    0.000    0.000    0.000    0.000    0.000 
#
# Total GULP energy -89150.602579 kJ/mol
# GULP energy per Si atom -5571.912661 kJ/mol
# Density = 2.040541 g / cm^3
# Si number density = 20.451958 Si / 1000 Ang^3
#
#
#
# Elastic Constant Matrix: (Units=GPa)
#
#
# Indices 1 2 3 4 5 6 
#
# 1 54.9656 1.5125 16.0809 0.0000 0.0000 0.0000
# 2 1.5125 60.7941 15.3183 0.0000 0.0000 0.0000
# 3 16.0809 15.3183 81.4575 0.0000 0.0000 0.0000
# 4 0.0000 0.0000 0.0000 35.4561 0.0000 0.0000
# 5 0.0000 0.0000 0.0000 0.0000 10.0453 0.0000
# 6 0.0000 0.0000 0.0000 0.0000 0.0000 15.8902
#
#
#
# Elastic Compliance Matrix: (Units=1/GPa)
#
#
# Indices 1 2 3 4 5 6 
#
# 1 0.019323 0.000504 -0.003910 0.000000 0.000000 0.000000
# 2 0.000504 0.017280 -0.003349 0.000000 0.000000 0.000000
# 3 -0.003910 -0.003349 0.013678 0.000000 0.000000 0.000000
# 4 0.000000 0.000000 0.000000 0.028204 0.000000 0.000000
# 5 0.000000 0.000000 0.000000 0.000000 0.099549 0.000000
# 6 0.000000 0.000000 0.000000 0.000000 0.000000 0.062932
#
#
# Mechanical properties :
#
#
# Convention : Reuss Voigt Hill
#
# Bulk Modulus (GPa) = 27.19412 29.22676 28.21044
# Shear Modulus (GPa) = 18.74538 23.23202 20.98870
#
# Velocity S-wave (km/s) = 3.03075 3.37401 3.20698
# Velocity P-wave (km/s) = 5.05695 5.43140 5.24752
#
# Compressibility (1/GPa) = 0.03677265
#
# Stress axis : x y z
#
# Youngs Moduli (GPa) = 51.75157 57.86937 73.11036
#
# Poissons Ratio (x) = -0.02919 0.28583
# Poissons Ratio (y) = -0.02610 0.24486
# Poissons Ratio (z) = 0.20232 0.19381
#
# Static dielectric constant tensor:
#      x y z
#    x 1.747620 0.000000 0.000000 
#    y 0.000000 1.739490 0.000000 
#    z 0.000000 0.000000 1.801860 
# 
# From -- ./inp_files/18349.got.cif
#   From: 2010.05.17/outbox.cif.g08.bks.cpg/sg20_10_cif.got.tgz:18349.got - 2010.06.03 22:52:26.
