data_PCOD9317078
_publ_section_title
;
Structure prediction by ZEFSAII (Michael W. Deem and Ramdas Pophale) SiO2 
 PCOD9317078
Probable space group: C 2 2 21
;
_chemical_formula_sum "Si O2"
_cell_formula_units_Z 64
_cell_length_a 20.039798
_cell_length_b 27.491054
_cell_length_c 5.519982
_cell_angle_alpha 90.000000
_cell_angle_beta 90.000000
_cell_angle_gamma 90.000000
_cell_volume 3041.041816
_symmetry_space_group_name_H-M "C 2 2 21"
_symmetry_group_IT_number 20
_symmetry_cell_setting 'orthorhombic'
loop_
_space_group_symop_operation_xyz
x,y,z
-x,-y,1/2+z
x,-y,-z
-x,y,1/2-z
1/2+x,1/2+y,z
1/2-x,1/2-y,1/2+z
1/2+x,1/2-y,-z
1/2-x,1/2+y,1/2-z
loop_
_atom_site_type_symbol
_atom_site_label
_atom_site_fract_x
_atom_site_fract_y
_atom_site_fract_z
Si Si1 0.739261 0.026889 0.751105
Si Si2 0.800034 0.803905 0.053938
Si Si3 0.536839 0.780612 0.002849
Si Si4 0.390405 0.508978 0.245367
Si Si5 0.666488 0.204532 0.246405
Si Si6 0.964578 0.163275 0.501298
Si Si7 0.654223 0.617755 0.216713
Si Si8 0.780060 0.369262 0.077468
O O1 0.712439 0.082377 0.739107
O O2 0.718932 0.000000 0.500000
O O3 0.821030 0.023050 0.751323
O O4 0.718689 0.000000 0.000000
O O5 0.841667 0.756179 0.119449
O O6 0.759700 0.828159 0.273248
O O7 0.741619 0.792024 0.859814
O O8 0.846903 0.844285 0.935036
O O9 0.500000 0.793922 0.750000
O O10 0.612437 0.799206 0.966085
O O11 0.539305 0.721774 0.009327
O O12 0.500000 0.796462 0.250000
O O13 0.423640 0.500000 0.500000
O O14 0.370430 0.564838 0.228304
O O15 0.428563 0.500000 0.000000
O O16 0.662782 0.159803 0.434163
O O17 0.891143 0.140849 0.491263
O O18 0.000000 0.148959 0.750000
O O19 0.000000 0.146907 0.250000
O O20 0.729962 0.612546 0.131470
#
# Coordination Sequence:
#
# PCOD9317078 Si02
#       8
#     8   8   8   8   8   8   8   8
#     4  10  19  35  54  82 117 155 209 246 304 388
#     4  11  23  36  57  90 131 166 202 261 334 397
#     4  10  24  42  64  82 119 176 224 264 300 364
#     4  10  19  34  55  85 111 148 208 250 308 394
#     4  11  24  37  57  93 131 169 213 263 330 394
#     4  10  24  40  58  85 113 155 221 283 312 366
#     4  11  23  36  62  84 117 165 211 265 332 384
#     4  11  22  36  58  89 122 168 200 263 326 399
#
# _framework density 21.045418999999999
#
# number of rings (size 3 to 8) (size 9 to 14) (size 15 to 20)
#    0.000    1.500    3.750    2.250   12.250    0.000 
#    0.000    0.000    0.000    1.500    0.000    0.000 
#    0.000    0.000    4.250    0.000    0.000    0.000 
#
# Total GULP energy -178770.053645 kJ/mol
# GULP energy per Si atom -5586.564176 kJ/mol
# Density = 2.099752 g / cm^3
# Si number density = 21.045419 Si / 1000 Ang^3
#
#
#
# Elastic Constant Matrix: (Units=GPa)
#
#
# Indices 1 2 3 4 5 6 
#
# 1 46.7228 25.7837 30.2049 0.0000 0.0000 0.0000
# 2 25.7837 98.6703 53.8979 0.0000 0.0000 0.0000
# 3 30.2049 53.8979 157.6284 0.0000 0.0000 0.0000
# 4 0.0000 0.0000 0.0000 23.1839 0.0000 0.0000
# 5 0.0000 0.0000 0.0000 0.0000 29.9463 0.0000
# 6 0.0000 0.0000 0.0000 0.0000 0.0000 -9.1327
#
#
#
# Elastic Compliance Matrix: (Units=1/GPa)
#
#
# Indices 1 2 3 4 5 6 
#
# 1 0.026345 -0.005074 -0.003313 0.000000 0.000000 0.000000
# 2 -0.005074 0.013440 -0.003623 0.000000 0.000000 0.000000
# 3 -0.003313 -0.003623 0.008218 0.000000 0.000000 0.000000
# 4 0.000000 0.000000 0.000000 0.043133 0.000000 0.000000
# 5 0.000000 0.000000 0.000000 0.000000 0.033393 0.000000
# 6 0.000000 0.000000 0.000000 0.000000 0.000000 -0.109497
#
#
# Mechanical properties :
#
#
# Convention : Reuss Voigt Hill
#
# Bulk Modulus (GPa) = 41.69939 58.08827 49.89383
# Shear Modulus (GPa) = 106.27574 21.67516 63.97545
#
# Velocity S-wave (km/s) = 7.11392 3.21272 5.51949
# Velocity P-wave (km/s) = 9.34528 6.43610 8.02364
#
# Compressibility (1/GPa) = 0.02398116
#
# Stress axis : x y z
#
# Youngs Moduli (GPa) = 37.95784 74.40537 121.68772
#
# Poissons Ratio (x) = 0.37757 0.40317
# Poissons Ratio (y) = 0.19262 0.44089
# Poissons Ratio (z) = 0.12576 0.26958
#
# Static dielectric constant tensor:
#      x y z
#    x 1.780210 0.000000 0.000000 
#    y 0.000000 1.769600 0.000000 
#    z 0.000000 0.000000 1.859640 
# 
# From -- ./inp_files/3392.got.cif
#   From: 2010.05.17/outbox.cif.g08.bks.cpg/sg20_2_cif.got.tgz:3392.got - 2010.06.03 22:52:26.
