data_PCOD9317811
_publ_section_title
;
Structure prediction by ZEFSAII (Michael W. Deem and Ramdas Pophale) SiO2 
 PCOD9317811
Probable space group: C 2 2 21
;
_chemical_formula_sum "Si O2"
_cell_formula_units_Z 48
_cell_length_a 26.616910
_cell_length_b 5.540696
_cell_length_c 14.934402
_cell_angle_alpha 90.000000
_cell_angle_beta 90.000000
_cell_angle_gamma 90.000000
_cell_volume 2202.468957
_symmetry_space_group_name_H-M "C 2 2 21"
_symmetry_group_IT_number 20
_symmetry_cell_setting 'orthorhombic'
loop_
_space_group_symop_operation_xyz
x,y,z
-x,-y,1/2+z
x,-y,-z
-x,y,1/2-z
1/2+x,1/2+y,z
1/2-x,1/2-y,1/2+z
1/2+x,1/2-y,-z
1/2-x,1/2+y,1/2-z
loop_
_atom_site_type_symbol
_atom_site_label
_atom_site_fract_x
_atom_site_fract_y
_atom_site_fract_z
Si Si1 0.536527 0.671756 0.085201
Si Si2 0.220172 0.311318 0.257385
Si Si3 0.052238 0.181871 0.750339
Si Si4 0.885209 0.431230 0.307705
Si Si5 0.572696 0.290418 0.620854
Si Si6 0.321911 0.251072 0.954743
O O1 0.535931 0.515449 0.176414
O O2 0.582512 0.848648 0.106908
O O3 0.481144 0.788180 0.083068
O O4 0.543431 0.500000 0.000000
O O5 0.248526 0.569584 0.265276
O O6 0.172243 0.353260 0.192512
O O7 0.197577 0.253685 0.354217
O O8 0.102772 0.288984 0.793170
O O9 0.066507 0.067695 0.655055
O O10 0.000000 0.336655 0.750000
O O11 0.910299 0.338694 0.213427
O O12 0.617556 0.258162 0.552139
O O13 0.304727 0.500000 0.000000
O O14 0.306476 0.000000 0.000000
#
# Coordination Sequence:
#
# PCOD9317811 Si02
#       6
#     8   8   8   8   8   8
#     4  10  20  36  53  91 134 171 208 257 317 392
#     4  11  26  46  74  96 123 174 231 280 336 408
#     4   9  18  34  60  85 121 169 216 255 304 396
#     4  10  21  37  63  85 121 164 227 265 323 392
#     4   9  20  35  61  91 131 170 209 253 321 400
#     4  11  24  42  69 104 137 166 211 285 342 383
#
# _framework density 21.793721000000001
#
# number of rings (size 3 to 8) (size 9 to 14) (size 15 to 20)
#    0.000    2.000    0.000    4.000   11.667    0.667 
#    3.000    2.500    3.667    0.000    0.000    0.000 
#    0.000    0.000    0.000    0.000    0.000    0.000 
#
# Total GULP energy -133755.412672 kJ/mol
# GULP energy per Si atom -5573.142195 kJ/mol
# Density = 2.174412 g / cm^3
# Si number density = 21.793721 Si / 1000 Ang^3
#
#
#
# Elastic Constant Matrix: (Units=GPa)
#
#
# Indices 1 2 3 4 5 6 
#
# 1 106.4240 36.2806 -0.9712 0.0000 0.0000 0.0000
# 2 36.2806 78.4034 2.5806 0.0000 0.0000 0.0000
# 3 -0.9712 2.5806 44.7875 0.0000 0.0000 0.0000
# 4 0.0000 0.0000 0.0000 35.8925 0.0000 0.0000
# 5 0.0000 0.0000 0.0000 0.0000 14.6830 0.0000
# 6 0.0000 0.0000 0.0000 0.0000 0.0000 4.0608
#
#
#
# Elastic Compliance Matrix: (Units=1/GPa)
#
#
# Indices 1 2 3 4 5 6 
#
# 1 0.011169 -0.005186 0.000541 0.000000 0.000000 0.000000
# 2 -0.005186 0.015187 -0.000988 0.000000 0.000000 0.000000
# 3 0.000541 -0.000988 0.022396 0.000000 0.000000 0.000000
# 4 0.000000 0.000000 0.000000 0.027861 0.000000 0.000000
# 5 0.000000 0.000000 0.000000 0.000000 0.068106 0.000000
# 6 0.000000 0.000000 0.000000 0.000000 0.000000 0.246257
#
#
# Mechanical properties :
#
#
# Convention : Reuss Voigt Hill
#
# Bulk Modulus (GPa) = 26.67593 33.93276 30.30434
# Shear Modulus (GPa) = 12.05579 23.70893 17.88236
#
# Velocity S-wave (km/s) = 2.35452 3.30188 2.86759
# Velocity P-wave (km/s) = 4.43379 5.49002 4.98993
#
# Compressibility (1/GPa) = 0.03748698
#
# Stress axis : x y z
#
# Youngs Moduli (GPa) = 89.53060 65.84585 44.65029
#
# Poissons Ratio (x) = 0.34150 -0.02416
# Poissons Ratio (y) = 0.46434 0.04409
# Poissons Ratio (z) = -0.04844 0.06502
#
# Static dielectric constant tensor:
#      x y z
#    x 1.875910 0.000000 0.000000 
#    y 0.000000 2.002930 0.000000 
#    z 0.000000 0.000000 1.760630 
# 
# From -- ./inp_files/17806.got.cif
#   From: 2010.05.17/outbox.cif.g08.bks.cpg/sg20_9_cif.got.tgz:17806.got - 2010.06.03 22:52:26.
