data_PCOD9317724
_publ_section_title
;
Structure prediction by ZEFSAII (Michael W. Deem and Ramdas Pophale) SiO2 
 PCOD9317724
Probable space group: C 2 2 21
;
_chemical_formula_sum "Si O2"
_cell_formula_units_Z 56
_cell_length_a 9.569742
_cell_length_b 18.639777
_cell_length_c 15.970394
_cell_angle_alpha 90.000000
_cell_angle_beta 90.000000
_cell_angle_gamma 90.000000
_cell_volume 2848.764654
_symmetry_space_group_name_H-M "C 2 2 21"
_symmetry_group_IT_number 20
_symmetry_cell_setting 'orthorhombic'
loop_
_space_group_symop_operation_xyz
x,y,z
-x,-y,1/2+z
x,-y,-z
-x,y,1/2-z
1/2+x,1/2+y,z
1/2-x,1/2-y,1/2+z
1/2+x,1/2-y,-z
1/2-x,1/2+y,1/2-z
loop_
_atom_site_type_symbol
_atom_site_label
_atom_site_fract_x
_atom_site_fract_y
_atom_site_fract_z
Si Si1 0.429114 0.289299 0.428988
Si Si2 0.529923 0.067393 0.937006
Si Si3 0.084894 0.680532 0.324989
Si Si4 0.500000 0.102508 0.750000
Si Si5 0.205494 0.826649 0.244399
Si Si6 0.849801 0.098503 0.908955
Si Si7 0.235072 0.628490 0.472167
Si Si8 0.547970 0.500000 0.000000
O O1 0.477990 0.213135 0.394180
O O2 0.359647 0.327659 0.347619
O O3 0.567343 0.334809 0.450418
O O4 0.315657 0.298734 0.501131
O O5 0.507486 0.057492 0.836636
O O6 0.690152 0.095202 0.940336
O O7 0.400752 0.115824 0.969673
O O8 0.522474 0.000000 0.000000
O O9 0.162477 0.749776 0.284346
O O10 0.187506 0.631676 0.376661
O O11 0.000000 0.645164 0.250000
O O12 0.632476 0.155005 0.742006
O O13 0.149184 0.884812 0.310247
O O14 0.940623 0.028395 0.929585
O O15 0.347482 0.565442 0.482339
#
# Coordination Sequence:
#
# PCOD9317724 Si02
#       8
#     8   8   8   4   8   8   8   4
#     4   9  18  35  58  87 107 147 201 246 295 356
#     4  11  21  37  55  90 118 154 204 249 300 357
#     4   9  20  37  59  85 122 153 190 251 309 365
#     4  10  20  34  62  88 116 156 206 262 294 362
#     4   9  17  35  59  87 110 150 200 251 299 354
#     4   9  18  32  58  81 116 147 193 248 291 344
#     4  11  21  36  60  86 118 160 200 243 301 362
#     4  10  20  36  56  84 122 160 202 236 288 374
#
# _framework density 19.657643
#
# number of rings (size 3 to 8) (size 9 to 14) (size 15 to 20)
#    0.000    2.286    2.857    1.286    0.000    3.429 
#    1.286    0.000    3.143    0.000    0.000    0.000 
#    0.000    0.000    0.000    0.000    0.000    0.000 
#
# Total GULP energy -155941.661498 kJ/mol
# GULP energy per Si atom -5569.345053 kJ/mol
# Density = 1.961290 g / cm^3
# Si number density = 19.657643 Si / 1000 Ang^3
#
#
#
# Elastic Constant Matrix: (Units=GPa)
#
#
# Indices 1 2 3 4 5 6 
#
# 1 129.6896 16.0167 33.3582 0.0000 0.0000 0.0000
# 2 16.0167 12.4596 14.2001 0.0000 0.0000 0.0000
# 3 33.3582 14.2001 82.6985 0.0000 0.0000 0.0000
# 4 0.0000 0.0000 0.0000 14.2526 0.0000 0.0000
# 5 0.0000 0.0000 0.0000 0.0000 32.0352 0.0000
# 6 0.0000 0.0000 0.0000 0.0000 0.0000 -2.3502
#
#
#
# Elastic Compliance Matrix: (Units=1/GPa)
#
#
# Indices 1 2 3 4 5 6 
#
# 1 0.009463 -0.009716 -0.002149 0.000000 0.000000 0.000000
# 2 -0.009716 0.109763 -0.014928 0.000000 0.000000 0.000000
# 3 -0.002149 -0.014928 0.015522 0.000000 0.000000 0.000000
# 4 0.000000 0.000000 0.000000 0.070163 0.000000 0.000000
# 5 0.000000 0.000000 0.000000 0.000000 0.031216 0.000000
# 6 0.000000 0.000000 0.000000 0.000000 0.000000 -0.425488
#
#
# Mechanical properties :
#
#
# Convention : Reuss Voigt Hill
#
# Bulk Modulus (GPa) = 12.32097 39.11085 25.71591
# Shear Modulus (GPa) = -45.98938 19.53902 -13.22518
#
# Velocity S-wave (km/s) = -4.84210 3.15614 -2.59661
# Velocity P-wave (km/s) = 4.99799 5.76375 2.02990
#
# Compressibility (1/GPa) = 0.08116243
#
# Stress axis : x y z
#
# Youngs Moduli (GPa) = 105.67048 9.11053 64.42367
#
# Poissons Ratio (x) = 0.08852 0.13844
# Poissons Ratio (y) = 1.02669 0.96173
# Poissons Ratio (z) = 0.22708 0.13600
#
# Static dielectric constant tensor:
#      x y z
#    x 1.723200 0.000000 0.000000 
#    y 0.000000 1.710540 0.000000 
#    z 0.000000 0.000000 1.709150 
# 
# From -- ./inp_files/19261.got.cif
#   From: 2010.05.17/outbox.cif.g08.bks.cpg/sg20_10_cif.got.tgz:19261.got - 2010.06.03 22:52:26.
