data_PCOD9317744
_publ_section_title
;
Structure prediction by ZEFSAII (Michael W. Deem and Ramdas Pophale) SiO2 
 PCOD9317744
Probable space group: C 2 2 21
;
_chemical_formula_sum "Si O2"
_cell_formula_units_Z 48
_cell_length_a 13.958578
_cell_length_b 6.273024
_cell_length_c 22.608639
_cell_angle_alpha 90.000000
_cell_angle_beta 90.000000
_cell_angle_gamma 90.000000
_cell_volume 1979.668835
_symmetry_space_group_name_H-M "C 2 2 21"
_symmetry_group_IT_number 20
_symmetry_cell_setting 'orthorhombic'
loop_
_space_group_symop_operation_xyz
x,y,z
-x,-y,1/2+z
x,-y,-z
-x,y,1/2-z
1/2+x,1/2+y,z
1/2-x,1/2-y,1/2+z
1/2+x,1/2-y,-z
1/2-x,1/2+y,1/2-z
loop_
_atom_site_type_symbol
_atom_site_label
_atom_site_fract_x
_atom_site_fract_y
_atom_site_fract_z
Si Si1 0.773750 0.083666 0.329582
Si Si2 0.958955 0.143590 0.654476
Si Si3 0.281627 0.836739 0.049431
Si Si4 0.981194 0.763551 0.916831
Si Si5 0.163964 0.476161 0.099851
Si Si6 0.924661 0.501814 0.798837
O O1 0.782627 0.325678 0.352753
O O2 0.688520 0.015584 0.285607
O O3 0.880718 0.006141 0.313235
O O4 0.742274 0.959240 0.389471
O O5 0.896942 0.344577 0.633577
O O6 0.045525 0.256468 0.687761
O O7 0.000411 0.008029 0.599958
O O8 0.394246 0.789334 0.040362
O O9 0.233194 0.608144 0.057994
O O10 0.246687 0.000000 0.000000
O O11 0.083849 0.665733 0.932834
O O12 0.946335 0.651085 0.855327
O O13 0.000000 0.575141 0.750000
#
# Coordination Sequence:
#
# PCOD9317744 Si02
#       6
#     8   8   8   8   8   8
#     4   9  19  37  56  76 113 151 181 237 287 333
#     4   9  18  36  56  78 107 148 187 225 284 340
#     4  10  20  35  55  85 110 146 192 228 286 344
#     4   9  19  37  56  78 116 148 185 237 285 338
#     4   9  18  36  57  76 109 148 183 229 282 336
#     4  10  20  35  55  84 110 145 190 232 291 345
#
# _framework density 24.246476999999999
#
# number of rings (size 3 to 8) (size 9 to 14) (size 15 to 20)
#    0.000    2.667    0.000    1.000    0.000    1.333 
#   18.000    0.000    0.000    0.000    0.000    0.000 
#    0.000    0.000    0.000    0.000    0.000    0.000 
#
# Total GULP energy -133984.847907 kJ/mol
# GULP energy per Si atom -5582.701996 kJ/mol
# Density = 2.419129 g / cm^3
# Si number density = 24.246477 Si / 1000 Ang^3
#
#
#
# Elastic Constant Matrix: (Units=GPa)
#
#
# Indices 1 2 3 4 5 6 
#
# 1 82.4387 9.4180 -1.1994 0.0000 0.0000 0.0000
# 2 9.4180 96.6891 13.5567 0.0000 0.0000 0.0000
# 3 -1.1994 13.5567 30.1958 0.0000 0.0000 0.0000
# 4 0.0000 0.0000 0.0000 16.2903 0.0000 0.0000
# 5 0.0000 0.0000 0.0000 0.0000 9.8606 0.0000
# 6 0.0000 0.0000 0.0000 0.0000 0.0000 10.5815
#
#
#
# Elastic Compliance Matrix: (Units=1/GPa)
#
#
# Indices 1 2 3 4 5 6 
#
# 1 0.012301 -0.001352 0.001095 0.000000 0.000000 0.000000
# 2 -0.001352 0.011186 -0.005076 0.000000 0.000000 0.000000
# 3 0.001095 -0.005076 0.035439 0.000000 0.000000 0.000000
# 4 0.000000 0.000000 0.000000 0.061386 0.000000 0.000000
# 5 0.000000 0.000000 0.000000 0.000000 0.101414 0.000000
# 6 0.000000 0.000000 0.000000 0.000000 0.000000 0.094504
#
#
# Mechanical properties :
#
#
# Convention : Reuss Voigt Hill
#
# Bulk Modulus (GPa) = 20.72025 28.09713 24.40869
# Shear Modulus (GPa) = 14.57806 19.84970 17.21388
#
# Velocity S-wave (km/s) = 2.45469 2.86433 2.66739
# Velocity P-wave (km/s) = 4.07409 4.74895 4.42440
#
# Compressibility (1/GPa) = 0.04826196
#
# Stress axis : x y z
#
# Youngs Moduli (GPa) = 81.29691 89.39949 28.21715
#
# Poissons Ratio (x) = 0.12084 -0.03091
# Poissons Ratio (y) = 0.10989 0.14322
# Poissons Ratio (z) = -0.08906 0.45376
#
# Static dielectric constant tensor:
#      x y z
#    x 1.981820 0.000000 0.000000 
#    y 0.000000 1.930630 0.000000 
#    z 0.000000 0.000000 1.967970 
# 
# From -- ./inp_files/29809.got.cif
#   From: 2010.05.17/outbox.cif.g08.bks.cpg/sg20_15_cif.got.tgz:29809.got - 2010.06.03 22:52:26.
