data_PCOD9317658
_publ_section_title
;
Structure prediction by ZEFSAII (Michael W. Deem and Ramdas Pophale) SiO2 
 PCOD9317658
Probable space group: C 2 2 21
;
_chemical_formula_sum "Si O2"
_cell_formula_units_Z 60
_cell_length_a 26.721376
_cell_length_b 5.483100
_cell_length_c 20.068604
_cell_angle_alpha 90.000000
_cell_angle_beta 90.000000
_cell_angle_gamma 90.000000
_cell_volume 2940.371117
_symmetry_space_group_name_H-M "C 2 2 21"
_symmetry_group_IT_number 20
_symmetry_cell_setting 'orthorhombic'
loop_
_space_group_symop_operation_xyz
x,y,z
-x,-y,1/2+z
x,-y,-z
-x,y,1/2-z
1/2+x,1/2+y,z
1/2-x,1/2-y,1/2+z
1/2+x,1/2-y,-z
1/2-x,1/2+y,1/2-z
loop_
_atom_site_type_symbol
_atom_site_label
_atom_site_fract_x
_atom_site_fract_y
_atom_site_fract_z
Si Si1 0.464829 0.199874 0.183071
Si Si2 0.441788 0.697890 0.227821
Si Si3 0.128961 0.798658 0.088601
Si Si4 0.857596 0.466111 0.293721
Si Si5 0.705828 0.000000 0.000000
Si Si6 0.268978 0.063053 0.782471
Si Si7 0.983265 0.754514 0.460077
Si Si8 0.708996 0.326729 0.892094
O O1 0.500000 0.183174 0.250000
O O2 0.430054 0.434295 0.197445
O O3 0.493068 0.245521 0.113918
O O4 0.440265 0.933179 0.179952
O O5 0.500000 0.677861 0.250000
O O6 0.403945 0.781693 0.285889
O O7 0.125221 0.702079 0.165020
O O8 0.168684 0.631472 0.050816
O O9 0.075969 0.780380 0.053852
O O10 0.156494 0.055766 0.084801
O O11 0.828315 0.490641 0.223998
O O12 0.811885 0.355403 0.336214
O O13 0.734092 0.806385 0.045662
O O14 0.244638 0.840220 0.738657
O O15 0.244604 0.016674 0.854931
O O16 0.992239 0.500000 0.500000
O O17 0.999054 0.000000 0.500000
#
# Coordination Sequence:
#
# PCOD9317658 Si02
#       8
#     8   8   8   8   4   8   8   8
#     4  10  22  39  58  83 124 157 207 254 300 362
#     4  10  21  35  55  87 116 159 205 252 308 361
#     4  11  20  35  53  83 125 165 195 242 306 391
#     4  10  22  34  60  84 125 159 201 258 309 366
#     4  10  20  34  48  86 114 170 200 238 296 378
#     4  10  20  38  54  87 117 162 200 245 307 360
#     4  12  25  39  60  89 126 166 208 247 318 390
#     4  10  21  33  57  80 127 162 204 245 308 376
#
# _framework density 20.405588000000002
#
# number of rings (size 3 to 8) (size 9 to 14) (size 15 to 20)
#    0.000    1.600    2.000    3.600    7.467    0.000 
#    0.000    0.000    0.000    0.000    1.733    1.867 
#    0.000    0.000    0.000    0.000    0.000    0.000 
#
# Total GULP energy -167052.663713 kJ/mol
# GULP energy per Si atom -5568.422124 kJ/mol
# Density = 2.035914 g / cm^3
# Si number density = 20.405588 Si / 1000 Ang^3
#
#
#
# Elastic Constant Matrix: (Units=GPa)
#
#
# Indices 1 2 3 4 5 6 
#
# 1 36.6028 -5.1124 19.9906 0.0000 0.0000 0.0000
# 2 -5.1124 107.4846 25.3861 0.0000 0.0000 0.0000
# 3 19.9906 25.3861 83.0712 0.0000 0.0000 0.0000
# 4 0.0000 0.0000 0.0000 93.3178 0.0000 0.0000
# 5 0.0000 0.0000 0.0000 0.0000 0.5542 0.0000
# 6 0.0000 0.0000 0.0000 0.0000 0.0000 10.8053
#
#
#
# Elastic Compliance Matrix: (Units=1/GPa)
#
#
# Indices 1 2 3 4 5 6 
#
# 1 0.032755 0.003686 -0.009009 0.000000 0.000000 0.000000
# 2 0.003686 0.010442 -0.004078 0.000000 0.000000 0.000000
# 3 -0.009009 -0.004078 0.015452 0.000000 0.000000 0.000000
# 4 0.000000 0.000000 0.000000 0.010716 0.000000 0.000000
# 5 0.000000 0.000000 0.000000 0.000000 1.804313 0.000000
# 6 0.000000 0.000000 0.000000 0.000000 0.000000 0.092547
#
#
# Mechanical properties :
#
#
# Convention : Reuss Voigt Hill
#
# Bulk Modulus (GPa) = 25.09581 34.18746 29.64164
# Shear Modulus (GPa) = 2.50212 33.39510 17.94861
#
# Velocity S-wave (km/s) = 1.10854 4.04984 2.96901
# Velocity P-wave (km/s) = 3.73680 6.21760 5.12944
#
# Compressibility (1/GPa) = 0.03984729
#
# Stress axis : x y z
#
# Youngs Moduli (GPa) = 30.52957 95.76604 64.71672
#
# Poissons Ratio (x) = -0.35296 0.58301
# Poissons Ratio (y) = -0.11252 0.26391
# Poissons Ratio (z) = 0.27503 0.39053
#
# Static dielectric constant tensor:
#      x y z
#    x 1.672370 0.000000 0.000000 
#    y 0.000000 2.057430 0.000000 
#    z 0.000000 0.000000 1.839110 
# 
# From -- ./inp_files/25699.got.cif
#   From: 2010.05.17/outbox.cif.g08.bks.cpg/sg20_13_cif.got.tgz:25699.got - 2010.06.03 22:52:26.
