data_PCOD9317946
_publ_section_title
;
Structure prediction by ZEFSAII (Michael W. Deem and Ramdas Pophale) SiO2 
 PCOD9317946
Probable space group: C 2 2 21
;
_chemical_formula_sum "Si O2"
_cell_formula_units_Z 40
_cell_length_a 24.766513
_cell_length_b 7.577244
_cell_length_c 9.107180
_cell_angle_alpha 90.000000
_cell_angle_beta 90.000000
_cell_angle_gamma 90.000000
_cell_volume 1709.070812
_symmetry_space_group_name_H-M "C 2 2 21"
_symmetry_group_IT_number 20
_symmetry_cell_setting 'orthorhombic'
loop_
_space_group_symop_operation_xyz
x,y,z
-x,-y,1/2+z
x,-y,-z
-x,y,1/2-z
1/2+x,1/2+y,z
1/2-x,1/2-y,1/2+z
1/2+x,1/2-y,-z
1/2-x,1/2+y,1/2-z
loop_
_atom_site_type_symbol
_atom_site_label
_atom_site_fract_x
_atom_site_fract_y
_atom_site_fract_z
Si Si1 0.541601 0.500000 0.500000
Si Si2 0.809739 0.585070 0.860378
Si Si3 0.403562 0.259784 0.417623
Si Si4 0.217014 0.347586 0.900272
Si Si5 0.895645 0.146865 0.270626
Si Si6 0.000000 0.255824 0.750000
O O1 0.574710 0.380870 0.615499
O O2 0.510287 0.628578 0.610675
O O3 0.789835 0.424817 0.761009
O O4 0.755516 0.682708 0.910158
O O5 0.844867 0.729684 0.771755
O O6 0.839488 0.500000 0.000000
O O7 0.344411 0.184316 0.444573
O O8 0.389467 0.446041 0.334343
O O9 0.425234 0.272360 0.585614
O O10 0.444221 0.157615 0.306468
O O11 0.241995 0.500000 0.000000
#
# Coordination Sequence:
#
# PCOD9317946 Si02
#       6
#     4   8   8   8   8   4
#     4  10  20  36  66 102 128 170 226 280 330 402
#     4  12  27  41  67 102 138 180 223 273 336 407
#     4  10  22  42  70  94 133 177 228 279 333 393
#     4  12  25  45  67  96 138 181 226 272 338 401
#     4  10  22  40  66  99 136 173 224 274 336 394
#     4  10  20  38  68  98 132 170 228 282 330 398
#
# _framework density 23.404530999999999
#
# number of rings (size 3 to 8) (size 9 to 14) (size 15 to 20)
#    0.000    1.200    2.000    4.800    9.800    0.000 
#    0.000    0.000    4.400    0.000    0.000    0.000 
#    0.000    0.000    0.000    0.000    0.000    0.000 
#
# Total GULP energy -111502.411557 kJ/mol
# GULP energy per Si atom -5575.120578 kJ/mol
# Density = 2.335126 g / cm^3
# Si number density = 23.404531 Si / 1000 Ang^3
#
#
#
# Elastic Constant Matrix: (Units=GPa)
#
#
# Indices 1 2 3 4 5 6 
#
# 1 80.7287 12.0191 36.9778 0.0000 0.0000 0.0000
# 2 12.0191 52.7118 32.9042 0.0000 0.0000 0.0000
# 3 36.9778 32.9042 184.6667 0.0000 0.0000 0.0000
# 4 0.0000 0.0000 0.0000 39.2985 0.0000 0.0000
# 5 0.0000 0.0000 0.0000 0.0000********** 0.0000
# 6 0.0000 0.0000 0.0000 0.0000 0.0000 18.6892
#
#
#
# Elastic Compliance Matrix: (Units=1/GPa)
#
#
# Indices 1 2 3 4 5 6 
#
# 1 0.013756 -0.001595 -0.002470 0.000000 0.000000 0.000000
# 2 -0.001595 0.021530 -0.003517 0.000000 0.000000 0.000000
# 3 -0.002470 -0.003517 0.006537 0.000000 0.000000 0.000000
# 4 0.000000 0.000000 0.000000 0.025446 0.000000 0.000000
# 5 0.000000 0.000000 0.000000 0.000000 -0.000015 0.000000
# 6 0.000000 0.000000 0.000000 0.000000 0.000000 0.053507
#
#
# Mechanical properties :
#
#
# Convention : Reuss Voigt Hill
#
# Bulk Modulus (GPa) = 37.51094 53.54549 45.52822
# Shear Modulus (GPa) = 34.52776 -13430.94192 -6698.20708
#
# Velocity S-wave (km/s) = 3.84508 -75.83578 -53.55502
# Velocity P-wave (km/s) = 5.98121 87.43660 61.68219
#
# Compressibility (1/GPa) = 0.02665889
#
# Stress axis : x y z
#
# Youngs Moduli (GPa) = 72.69476 46.44668 152.98697
#
# Poissons Ratio (x) = 0.07406 0.37794
# Poissons Ratio (y) = 0.11591 0.53805
# Poissons Ratio (z) = 0.17959 0.16335
#
# Static dielectric constant tensor:
#      x y z
#    x 0.000000 0.000000 0.000000 
#    y 0.000000 0.000000 0.000000 
#    z 0.000000 0.000000 0.000000 
# 
# From -- ./inp_files/10538.got.cif
#   From: 2010.05.17/outbox.cif.g08.bks.cpg/sg20_6_cif.got.tgz:10538.got - 2010.06.03 22:52:26.
