data_PCOD9317727
_publ_section_title
;
Structure prediction by ZEFSAII (Michael W. Deem and Ramdas Pophale) SiO2 
 PCOD9317727
Probable space group: C 2 2 21
;
_chemical_formula_sum "Si O2"
_cell_formula_units_Z 56
_cell_length_a 12.575538
_cell_length_b 8.468700
_cell_length_c 20.601013
_cell_angle_alpha 90.000000
_cell_angle_beta 90.000000
_cell_angle_gamma 90.000000
_cell_volume 2193.976131
_symmetry_space_group_name_H-M "C 2 2 21"
_symmetry_group_IT_number 20
_symmetry_cell_setting 'orthorhombic'
loop_
_space_group_symop_operation_xyz
x,y,z
-x,-y,1/2+z
x,-y,-z
-x,y,1/2-z
1/2+x,1/2+y,z
1/2-x,1/2-y,1/2+z
1/2+x,1/2-y,-z
1/2-x,1/2+y,1/2-z
loop_
_atom_site_type_symbol
_atom_site_label
_atom_site_fract_x
_atom_site_fract_y
_atom_site_fract_z
Si Si1 0.878527 0.236667 0.394253
Si Si2 0.252366 0.696011 0.585959
Si Si3 0.414885 0.000000 0.000000
Si Si4 0.734167 0.964221 0.693398
Si Si5 0.910976 0.483012 0.696124
Si Si6 0.081025 0.000000 0.000000
Si Si7 0.313952 0.455118 0.070061
Si Si8 0.958940 0.711533 0.119447
O O1 0.835333 0.130358 0.334266
O O2 0.928198 0.387169 0.359388
O O3 0.774305 0.314675 0.430282
O O4 0.946051 0.137626 0.445993
O O5 0.157647 0.616701 0.543247
O O6 0.237445 0.630568 0.657956
O O7 0.352265 0.614002 0.550147
O O8 0.243672 0.883696 0.588355
O O9 0.471234 0.116253 0.051624
O O10 0.702700 0.985285 0.768211
O O11 0.635970 0.870771 0.660264
O O12 0.000000 0.518502 0.750000
O O13 0.939610 0.315316 0.664106
O O14 0.413388 0.385065 0.108372
O O15 0.359121 0.500000 0.000000
#
# Coordination Sequence:
#
# PCOD9317727 Si02
#       8
#     8   8   4   8   8   4   8   8
#     4  10  20  34  62  94 127 168 210 274 332 383
#     4   9  15  28  56  91 126 153 202 263 318 374
#     4   9  14  28  50  80 114 167 198 230 310 385
#     4   8  18  35  59  85 118 164 216 261 309 376
#     4  10  21  40  61  88 126 177 223 259 325 394
#     4   9  16  32  54  96 134 151 198 282 330 371
#     4  11  17  30  58 102 129 155 211 259 324 404
#     4   9  18  32  56  84 120 166 203 254 317 386
#
# _framework density 25.524433999999999
#
# number of rings (size 3 to 8) (size 9 to 14) (size 15 to 20)
#    0.000    2.571    2.857    1.714    0.000    1.143 
#    1.286    0.000    0.000   42.000    3.714    2.000 
#    0.000    0.000    0.000    0.000    0.000    0.000 
#
# Total GULP energy -156365.153336 kJ/mol
# GULP energy per Si atom -5584.469762 kJ/mol
# Density = 2.546634 g / cm^3
# Si number density = 25.524434 Si / 1000 Ang^3
#
#
#
# Elastic Constant Matrix: (Units=GPa)
#
#
# Indices 1 2 3 4 5 6 
#
# 1 45.9176 20.0184 15.4230 0.0000 0.0000 0.0000
# 2 20.0184 132.6384 31.0408 0.0000 0.0000 0.0000
# 3 15.4230 31.0408 86.7122 0.0000 0.0000 0.0000
# 4 0.0000 0.0000 0.0000 41.8842 0.0000 0.0000
# 5 0.0000 0.0000 0.0000 0.0000 -20.7040 0.0000
# 6 0.0000 0.0000 0.0000 0.0000 0.0000 154.2195
#
#
#
# Elastic Compliance Matrix: (Units=1/GPa)
#
#
# Indices 1 2 3 4 5 6 
#
# 1 0.024128 -0.002878 -0.003261 0.000000 0.000000 0.000000
# 2 -0.002878 0.008572 -0.002557 0.000000 0.000000 0.000000
# 3 -0.003261 -0.002557 0.013028 0.000000 0.000000 0.000000
# 4 0.000000 0.000000 0.000000 0.023875 0.000000 0.000000
# 5 0.000000 0.000000 0.000000 0.000000 -0.048300 0.000000
# 6 0.000000 0.000000 0.000000 0.000000 0.000000 0.006484
#
#
# Mechanical properties :
#
#
# Convention : Reuss Voigt Hill
#
# Bulk Modulus (GPa) = 35.29115 44.24807 39.76961
# Shear Modulus (GPa) = 91.53248 48.33233 69.93241
#
# Velocity S-wave (km/s) = 5.99488 4.35624 5.24001
# Velocity P-wave (km/s) = 7.85968 6.53266 7.22669
#
# Compressibility (1/GPa) = 0.02833571
#
# Stress axis : x y z
#
# Youngs Moduli (GPa) = 41.44501 116.65852 76.75982
#
# Poissons Ratio (x) = 0.33579 0.25033
# Poissons Ratio (y) = 0.11929 0.19625
# Poissons Ratio (z) = 0.13516 0.29825
#
# Static dielectric constant tensor:
#      x y z
#    x 2.228190 0.000000 0.000000 
#    y 0.000000 1.990210 0.000000 
#    z 0.000000 0.000000 1.978290 
# 
# From -- ./inp_files/27626.got.cif
#   From: 2010.05.17/outbox.cif.g08.bks.cpg/sg20_14_cif.got.tgz:27626.got - 2010.06.03 22:52:26.
