data_PCOD9317227
_publ_section_title
;
Structure prediction by ZEFSAII (Michael W. Deem and Ramdas Pophale) SiO2 
 PCOD9317227
Probable space group: C 2 2 21
;
_chemical_formula_sum "Si O2"
_cell_formula_units_Z 64
_cell_length_a 30.774293
_cell_length_b 7.718971
_cell_length_c 11.942564
_cell_angle_alpha 90.000000
_cell_angle_beta 90.000000
_cell_angle_gamma 90.000000
_cell_volume 2836.906818
_symmetry_space_group_name_H-M "C 2 2 21"
_symmetry_group_IT_number 20
_symmetry_cell_setting 'orthorhombic'
loop_
_space_group_symop_operation_xyz
x,y,z
-x,-y,1/2+z
x,-y,-z
-x,y,1/2-z
1/2+x,1/2+y,z
1/2-x,1/2-y,1/2+z
1/2+x,1/2-y,-z
1/2-x,1/2+y,1/2-z
loop_
_atom_site_type_symbol
_atom_site_label
_atom_site_fract_x
_atom_site_fract_y
_atom_site_fract_z
Si Si1 0.624662 0.154197 0.077770
Si Si2 0.682888 0.191681 0.277590
Si Si3 0.767112 0.670250 0.784334
Si Si4 0.689809 0.656562 0.070717
Si Si5 0.994491 0.910088 0.622819
Si Si6 0.412505 0.626461 0.105017
Si Si7 0.902214 0.986571 0.654687
Si Si8 0.671878 0.796586 0.475063
O O1 0.641635 0.128580 0.205059
O O2 0.595137 0.326247 0.094909
O O3 0.669554 0.203236 0.014041
O O4 0.606077 0.000000 0.000000
O O5 0.715193 0.326023 0.217007
O O6 0.672867 0.273862 0.398573
O O7 0.712471 0.020107 0.285289
O O8 0.782922 0.756715 0.668303
O O9 0.788922 0.759115 0.893415
O O10 0.644578 0.584150 0.121311
O O11 0.711248 0.500000 0.000000
O O12 0.000000 0.997147 0.750000
O O13 0.038658 0.795911 0.619508
O O14 0.997133 0.000000 0.500000
O O15 0.943493 0.864669 0.627495
O O16 0.402936 0.507963 0.212233
O O17 0.373154 0.757453 0.087336
O O18 0.412467 0.500000 0.000000
O O19 0.674514 0.000000 0.500000
#
# Coordination Sequence:
#
# PCOD9317227 Si02
#       8
#     8   8   8   8   8   8   8   8
#     4  11  22  38  57  87 123 160 209 270 324 386
#     4  11  26  39  59  87 123 167 217 271 326 386
#     4  11  24  41  59  85 122 166 217 269 322 383
#     4  10  21  36  62  83 116 160 206 256 319 383
#     4   9  18  33  57  92 122 151 200 264 314 375
#     4  10  19  35  63  91 124 161 210 263 312 389
#     4  10  20  37  62  92 121 164 213 258 326 397
#     4  10  23  42  60  87 125 169 212 263 330 395
#
# _framework density 22.559782999999999
#
# number of rings (size 3 to 8) (size 9 to 14) (size 15 to 20)
#    0.000    1.750    2.500    1.875    5.250    1.500 
#    0.000    0.000    0.000    6.750    0.000   15.750 
#    0.000    0.000    0.000    0.000    0.000    0.000 
#
# Total GULP energy -178185.834606 kJ/mol
# GULP energy per Si atom -5568.307331 kJ/mol
# Density = 2.250844 g / cm^3
# Si number density = 22.559783 Si / 1000 Ang^3
#
#
#
# Elastic Constant Matrix: (Units=GPa)
#
#
# Indices 1 2 3 4 5 6 
#
# 1 97.5244 -4.8143 19.2420 0.0000 0.0000 0.0000
# 2 -4.8143 26.6155 0.4975 0.0000 0.0000 0.0000
# 3 19.2420 0.4975 161.1174 0.0000 0.0000 0.0000
# 4 0.0000 0.0000 0.0000 34.2124 0.0000 0.0000
# 5 0.0000 0.0000 0.0000 0.0000 35.4752 0.0000
# 6 0.0000 0.0000 0.0000 0.0000 0.0000 10.1855
#
#
#
# Elastic Compliance Matrix: (Units=1/GPa)
#
#
# Indices 1 2 3 4 5 6 
#
# 1 0.010601 0.001941 -0.001272 0.000000 0.000000 0.000000
# 2 0.001941 0.037930 -0.000349 0.000000 0.000000 0.000000
# 3 -0.001272 -0.000349 0.006360 0.000000 0.000000 0.000000
# 4 0.000000 0.000000 0.000000 0.029229 0.000000 0.000000
# 5 0.000000 0.000000 0.000000 0.000000 0.028189 0.000000
# 6 0.000000 0.000000 0.000000 0.000000 0.000000 0.098179
#
#
# Mechanical properties :
#
#
# Convention : Reuss Voigt Hill
#
# Bulk Modulus (GPa) = 18.00808 35.01196 26.51002
# Shear Modulus (GPa) = 21.89561 33.99678 27.94620
#
# Velocity S-wave (km/s) = 3.11876 3.88617 3.52342
# Velocity P-wave (km/s) = 4.57915 5.97409 5.32252
#
# Compressibility (1/GPa) = 0.05553064
#
# Stress axis : x y z
#
# Youngs Moduli (GPa) = 94.33390 26.36451 157.24146
#
# Poissons Ratio (x) = -0.05118 0.20001
# Poissons Ratio (y) = -0.18313 0.05487
# Poissons Ratio (z) = 0.11999 0.00920
#
# Static dielectric constant tensor:
#      x y z
#    x 1.880380 0.000000 0.000000 
#    y 0.000000 1.915990 0.000000 
#    z 0.000000 0.000000 2.004570 
# 
# From -- ./inp_files/17273.got.cif
#   From: 2010.05.17/outbox.cif.g08.bks.cpg/sg20_9_cif.got.tgz:17273.got - 2010.06.03 22:52:26.
