data_PCOD9317944
_publ_section_title
;
Structure prediction by ZEFSAII (Michael W. Deem and Ramdas Pophale) SiO2 
 PCOD9317944
Probable space group: C 2 2 21
;
_chemical_formula_sum "Si O2"
_cell_formula_units_Z 64
_cell_length_a 26.018856
_cell_length_b 8.656249
_cell_length_c 13.923727
_cell_angle_alpha 90.000000
_cell_angle_beta 90.000000
_cell_angle_gamma 90.000000
_cell_volume 3135.981108
_symmetry_space_group_name_H-M "C 2 2 21"
_symmetry_group_IT_number 20
_symmetry_cell_setting 'orthorhombic'
loop_
_space_group_symop_operation_xyz
x,y,z
-x,-y,1/2+z
x,-y,-z
-x,y,1/2-z
1/2+x,1/2+y,z
1/2-x,1/2-y,1/2+z
1/2+x,1/2-y,-z
1/2-x,1/2+y,1/2-z
loop_
_atom_site_type_symbol
_atom_site_label
_atom_site_fract_x
_atom_site_fract_y
_atom_site_fract_z
Si Si1 0.768665 0.857267 0.835140
Si Si2 0.151722 0.964897 0.231670
Si Si3 0.416326 0.992036 0.888373
Si Si4 0.945260 0.254664 0.752087
Si Si5 0.125937 0.261714 0.109113
Si Si6 0.793636 0.158922 0.546540
Si Si7 0.180948 0.451530 0.252564
Si Si8 0.973541 0.546565 0.611503
O O1 0.745295 0.801366 0.937070
O O2 0.791859 0.700908 0.791879
O O3 0.813746 0.985844 0.823693
O O4 0.722621 0.917326 0.766730
O O5 0.103894 0.850313 0.237606
O O6 0.188529 0.890524 0.151983
O O7 0.131763 0.123483 0.184607
O O8 0.437420 0.825136 0.857835
O O9 0.366236 0.015902 0.823716
O O10 0.467531 0.091491 0.861474
O O11 0.404043 0.000000 0.000000
O O12 0.952596 0.402283 0.677924
O O13 0.000000 0.170562 0.750000
O O14 0.157258 0.408004 0.149593
O O15 0.067544 0.316480 0.108884
O O16 0.155793 0.206810 0.013905
O O17 0.771737 0.000000 0.500000
O O18 0.977512 0.500000 0.500000
#
# Coordination Sequence:
#
# PCOD9317944 Si02
#       8
#     8   8   8   8   8   8   8   8
#     4  11  23  40  62  90 127 166 212 266 319 381
#     4  10  21  41  60  90 129 164 209 259 324 384
#     4  10  22  40  63  92 128 170 216 262 333 397
#     4  10  20  39  65  92 126 171 211 265 334 392
#     4  10  22  36  63  96 122 162 213 273 322 370
#     4  10  21  39  61  91 128 165 210 263 323 382
#     4  11  23  40  60  90 125 170 215 268 319 386
#     4  10  20  36  65  99 126 160 215 273 327 393
#
# _framework density 20.408284999999999
#
# number of rings (size 3 to 8) (size 9 to 14) (size 15 to 20)
#    0.000    1.750    2.500    1.500    1.750    0.500 
#    4.500    1.250    0.000    2.250    0.000    0.000 
#    0.000    0.000    0.000    0.000    0.000    0.000 
#
# Total GULP energy -178242.119340 kJ/mol
# GULP energy per Si atom -5570.066229 kJ/mol
# Density = 2.036184 g / cm^3
# Si number density = 20.408285 Si / 1000 Ang^3
#
#
#
# Elastic Constant Matrix: (Units=GPa)
#
#
# Indices 1 2 3 4 5 6 
#
# 1 126.7567 50.6807 38.5611 0.0000 0.0000 0.0000
# 2 50.6807 55.0568 26.6767 0.0000 0.0000 0.0000
# 3 38.5611 26.6767 56.6250 0.0000 0.0000 0.0000
# 4 0.0000 0.0000 0.0000 22.9734 0.0000 0.0000
# 5 0.0000 0.0000 0.0000 0.0000 25.0922 0.0000
# 6 0.0000 0.0000 0.0000 0.0000 0.0000 40.7934
#
#
#
# Elastic Compliance Matrix: (Units=1/GPa)
#
#
# Indices 1 2 3 4 5 6 
#
# 1 0.013225 -0.010120 -0.004238 0.000000 0.000000 0.000000
# 2 -0.010120 0.031280 -0.007845 0.000000 0.000000 0.000000
# 3 -0.004238 -0.007845 0.024242 0.000000 0.000000 0.000000
# 4 0.000000 0.000000 0.000000 0.043529 0.000000 0.000000
# 5 0.000000 0.000000 0.000000 0.000000 0.039853 0.000000
# 6 0.000000 0.000000 0.000000 0.000000 0.000000 0.024514
#
#
# Mechanical properties :
#
#
# Convention : Reuss Voigt Hill
#
# Bulk Modulus (GPa) = 41.08360 52.25284 46.66822
# Shear Modulus (GPa) = 21.81873 25.93980 23.87927
#
# Velocity S-wave (km/s) = 3.27327 3.56904 3.42435
# Velocity P-wave (km/s) = 5.87029 6.53019 6.20901
#
# Compressibility (1/GPa) = 0.02434061
#
# Stress axis : x y z
#
# Youngs Moduli (GPa) = 75.61602 31.96968 41.25086
#
# Poissons Ratio (x) = 0.32353 0.17483
# Poissons Ratio (y) = 0.76524 0.32360
# Poissons Ratio (z) = 0.32048 0.25079
#
# Static dielectric constant tensor:
#      x y z
#    x 1.826300 0.000000 0.000000 
#    y 0.000000 1.771180 0.000000 
#    z 0.000000 0.000000 1.746860 
# 
# From -- ./inp_files/22058.got.cif
#   From: 2010.05.17/outbox.cif.g08.bks.cpg/sg20_12_cif.got.tgz:22058.got - 2010.06.03 22:52:26.
