data_PCOD9317732
_publ_section_title
;
Structure prediction by ZEFSAII (Michael W. Deem and Ramdas Pophale) SiO2 
 PCOD9317732
Probable space group: C 2 2 21
;
_chemical_formula_sum "Si O2"
_cell_formula_units_Z 60
_cell_length_a 5.973454
_cell_length_b 28.258215
_cell_length_c 17.282259
_cell_angle_alpha 90.000000
_cell_angle_beta 90.000000
_cell_angle_gamma 90.000000
_cell_volume 2917.230585
_symmetry_space_group_name_H-M "C 2 2 21"
_symmetry_group_IT_number 20
_symmetry_cell_setting 'orthorhombic'
loop_
_space_group_symop_operation_xyz
x,y,z
-x,-y,1/2+z
x,-y,-z
-x,y,1/2-z
1/2+x,1/2+y,z
1/2-x,1/2-y,1/2+z
1/2+x,1/2-y,-z
1/2-x,1/2+y,1/2-z
loop_
_atom_site_type_symbol
_atom_site_label
_atom_site_fract_x
_atom_site_fract_y
_atom_site_fract_z
Si Si1 0.905352 0.006429 0.172744
Si Si2 0.751913 0.541455 0.940261
Si Si3 0.521158 0.727182 0.012717
Si Si4 0.704927 0.397762 0.619926
Si Si5 0.591685 0.625632 0.540551
Si Si6 0.891056 0.820303 0.667709
Si Si7 0.118784 0.415036 0.171852
Si Si8 0.500000 0.850129 0.750000
O O1 0.788165 0.046025 0.121542
O O2 0.000000 0.030155 0.250000
O O3 0.751300 0.962537 0.196349
O O4 0.105500 0.985848 0.123092
O O5 0.586636 0.582806 0.971859
O O6 0.946757 0.567473 0.893732
O O7 0.821166 0.500000 0.000000
O O8 0.526150 0.714743 0.103356
O O9 0.770774 0.750160 0.999860
O O10 0.516574 0.677210 0.966684
O O11 0.759279 0.379276 0.533728
O O12 0.465608 0.372653 0.638566
O O13 0.848090 0.381225 0.693505
O O14 0.710894 0.617825 0.623222
O O15 0.632170 0.819234 0.687522
O O16 0.000000 0.810985 0.750000
O O17 0.000000 0.396171 0.250000
#
# Coordination Sequence:
#
# PCOD9317732 Si02
#       8
#     8   8   8   8   8   8   8   4
#     4  11  21  37  54  88 135 175 229 278 329 406
#     4  11  23  40  63  92 132 181 229 282 342 403
#     4  11  27  48  77 109 137 180 237 299 367 425
#     4  10  21  36  58  98 132 179 223 280 354 418
#     4  10  25  44  69  94 139 173 232 293 349 425
#     4   9  21  40  65  97 138 176 216 286 364 433
#     4  11  25  40  63  92 131 191 234 283 338 404
#     4  10  20  34  66  96 138 180 210 278 364 430
#
# _framework density 20.567453
#
# number of rings (size 3 to 8) (size 9 to 14) (size 15 to 20)
#    0.000    1.600    2.667    1.200   10.267    2.133 
#    0.000    0.667    2.933    0.000    0.000    0.000 
#    0.000    0.000    0.000    0.000    0.000    0.000 
#
# Total GULP energy -167100.723687 kJ/mol
# GULP energy per Si atom -5570.024123 kJ/mol
# Density = 2.052064 g / cm^3
# Si number density = 20.567453 Si / 1000 Ang^3
#
#
#
# Elastic Constant Matrix: (Units=GPa)
#
#
# Indices 1 2 3 4 5 6 
#
# 1 64.7929 28.8047 32.8071 0.0000 0.0000 0.0000
# 2 28.8047 77.3217 38.7156 0.0000 0.0000 0.0000
# 3 32.8071 38.7156 116.0088 0.0000 0.0000 0.0000
# 4 0.0000 0.0000 0.0000 26.0738 0.0000 0.0000
# 5 0.0000 0.0000 0.0000 0.0000 29.7128 0.0000
# 6 0.0000 0.0000 0.0000 0.0000 0.0000 0.5385
#
#
#
# Elastic Compliance Matrix: (Units=1/GPa)
#
#
# Indices 1 2 3 4 5 6 
#
# 1 0.019777 -0.005483 -0.003763 0.000000 0.000000 0.000000
# 2 -0.005483 0.017048 -0.004139 0.000000 0.000000 0.000000
# 3 -0.003763 -0.004139 0.011065 0.000000 0.000000 0.000000
# 4 0.000000 0.000000 0.000000 0.038353 0.000000 0.000000
# 5 0.000000 0.000000 0.000000 0.000000 0.033656 0.000000
# 6 0.000000 0.000000 0.000000 0.000000 0.000000 1.857009
#
#
# Mechanical properties :
#
#
# Convention : Reuss Voigt Hill
#
# Bulk Modulus (GPa) = 47.34796 50.97534 49.16165
# Shear Modulus (GPa) = 2.48667 21.78474 12.13571
#
# Velocity S-wave (km/s) = 1.10075 3.25804 2.43172
# Velocity P-wave (km/s) = 4.96853 6.24431 5.64259
#
# Compressibility (1/GPa) = 0.02112023
#
# Stress axis : x y z
#
# Youngs Moduli (GPa) = 50.56431 58.65788 90.37176
#
# Poissons Ratio (x) = 0.32164 0.34006
# Poissons Ratio (y) = 0.27726 0.37403
# Poissons Ratio (z) = 0.19027 0.24277
#
# Static dielectric constant tensor:
#      x y z
#    x 1.908420 0.000000 0.000000 
#    y 0.000000 1.750230 0.000000 
#    z 0.000000 0.000000 1.750830 
# 
# From -- ./inp_files/22923.got.cif
#   From: 2010.05.17/outbox.cif.g08.bks.cpg/sg20_12_cif.got.tgz:22923.got - 2010.06.03 22:52:26.
