data_PCOD9317069
_publ_section_title
;
Structure prediction by ZEFSAII (Michael W. Deem and Ramdas Pophale) SiO2 
 PCOD9317069
Probable space group: C 2 2 21
;
_chemical_formula_sum "Si O2"
_cell_formula_units_Z 64
_cell_length_a 13.807901
_cell_length_b 27.549370
_cell_length_c 9.700274
_cell_angle_alpha 90.000000
_cell_angle_beta 90.000000
_cell_angle_gamma 90.000000
_cell_volume 3689.974273
_symmetry_space_group_name_H-M "C 2 2 21"
_symmetry_group_IT_number 20
_symmetry_cell_setting 'orthorhombic'
loop_
_space_group_symop_operation_xyz
x,y,z
-x,-y,1/2+z
x,-y,-z
-x,y,1/2-z
1/2+x,1/2+y,z
1/2-x,1/2-y,1/2+z
1/2+x,1/2-y,-z
1/2-x,1/2+y,1/2-z
loop_
_atom_site_type_symbol
_atom_site_label
_atom_site_fract_x
_atom_site_fract_y
_atom_site_fract_z
Si Si1 0.577583 0.781952 0.639201
Si Si2 0.596333 0.949991 0.923038
Si Si3 0.728240 0.138178 0.003000
Si Si4 0.560603 0.682655 0.121842
Si Si5 0.377816 0.047618 0.097891
Si Si6 0.440316 0.206660 0.619833
Si Si7 0.242294 0.640771 0.335541
Si Si8 0.576995 0.328749 0.361963
O O1 0.500000 0.801109 0.750000
O O2 0.520509 0.785429 0.497177
O O3 0.669149 0.815981 0.631569
O O4 0.604423 0.726723 0.681521
O O5 0.671185 0.912703 0.990366
O O6 0.615514 0.962180 0.762338
O O7 0.485196 0.931936 0.937832
O O8 0.601805 0.000000 0.000000
O O9 0.751509 0.143881 0.167363
O O10 0.649433 0.176381 0.941742
O O11 0.825978 0.143343 0.911252
O O12 0.500000 0.663682 0.250000
O O13 0.591950 0.738177 0.155218
O O14 0.654932 0.651368 0.099090
O O15 0.489450 0.679715 0.994502
O O16 0.300835 0.091312 0.100318
O O17 0.360353 0.000000 0.000000
O O18 0.500000 0.185560 0.750000
O O19 0.500000 0.349232 0.250000
#
# Coordination Sequence:
#
# PCOD9317069 Si02
#       8
#     8   8   8   8   8   8   8   8
#     4  10  19  34  54  79 113 151 187 229 281 335
#     4   9  19  37  58  81 113 143 171 223 295 348
#     4  11  20  36  58  81 109 152 194 228 279 347
#     4  10  20  37  54  77 110 153 193 231 276 322
#     4   9  19  36  58  85 111 136 178 231 282 344
#     4  10  21  34  51  82 122 146 183 236 277 333
#     4  11  20  33  62  82 105 153 196 228 274 345
#     4  10  22  37  53  78 117 153 189 238 277 318
#
# _framework density 17.344294999999999
#
# number of rings (size 3 to 8) (size 9 to 14) (size 15 to 20)
#    0.000    2.000    2.500    1.500    1.750    1.000 
#    9.000    0.000    0.000    0.750    0.000    0.000 
#    0.000    0.000    0.000    0.000    0.000    0.000 
#
# Total GULP energy -178140.551661 kJ/mol
# GULP energy per Si atom -5566.892239 kJ/mol
# Density = 1.730482 g / cm^3
# Si number density = 17.344295 Si / 1000 Ang^3
#
#
#
# Elastic Constant Matrix: (Units=GPa)
#
#
# Indices 1 2 3 4 5 6 
#
# 1 116.5846 57.4634 32.0043 0.0000 0.0000 0.0000
# 2 57.4634 59.4521 16.2628 0.0000 0.0000 0.0000
# 3 32.0043 16.2628 50.6351 0.0000 0.0000 0.0000
# 4 0.0000 0.0000 0.0000 23.4942 0.0000 0.0000
# 5 0.0000 0.0000 0.0000 0.0000 30.2103 0.0000
# 6 0.0000 0.0000 0.0000 0.0000 0.0000 39.1666
#
#
#
# Elastic Compliance Matrix: (Units=1/GPa)
#
#
# Indices 1 2 3 4 5 6 
#
# 1 0.018083 -0.015734 -0.006376 0.000000 0.000000 0.000000
# 2 -0.015734 0.032130 -0.000375 0.000000 0.000000 0.000000
# 3 -0.006376 -0.000375 0.023900 0.000000 0.000000 0.000000
# 4 0.000000 0.000000 0.000000 0.042564 0.000000 0.000000
# 5 0.000000 0.000000 0.000000 0.000000 0.033101 0.000000
# 6 0.000000 0.000000 0.000000 0.000000 0.000000 0.025532
#
#
# Mechanical properties :
#
#
# Convention : Reuss Voigt Hill
#
# Bulk Modulus (GPa) = 34.31319 48.68142 41.49730
# Shear Modulus (GPa) = 21.73975 26.63697 24.18836
#
# Velocity S-wave (km/s) = 3.54421 3.92315 3.73849
# Velocity P-wave (km/s) = 6.04774 6.97496 6.52783
#
# Compressibility (1/GPa) = 0.02914331
#
# Stress axis : x y z
#
# Youngs Moduli (GPa) = 55.30106 31.12331 41.84170
#
# Poissons Ratio (x) = 0.48969 0.26679
# Poissons Ratio (y) = 0.87010 0.01568
# Poissons Ratio (z) = 0.35260 0.01167
#
# Static dielectric constant tensor:
#      x y z
#    x 1.585550 0.000000 0.000000 
#    y 0.000000 1.599090 0.000000 
#    z 0.000000 0.000000 1.553820 
# 
# From -- ./inp_files/7691.got.cif
#   From: 2010.05.17/outbox.cif.g08.bks.cpg/sg20_4_cif.got.tgz:7691.got - 2010.06.03 22:52:26.
