data_PCOD9317685
_publ_section_title
;
Structure prediction by ZEFSAII (Michael W. Deem and Ramdas Pophale) SiO2 
 PCOD9317685
Probable space group: C 2 2 21
;
_chemical_formula_sum "Si O2"
_cell_formula_units_Z 64
_cell_length_a 14.014999
_cell_length_b 8.442518
_cell_length_c 24.381615
_cell_angle_alpha 90.000000
_cell_angle_beta 90.000000
_cell_angle_gamma 90.000000
_cell_volume 2884.878557
_symmetry_space_group_name_H-M "C 2 2 21"
_symmetry_group_IT_number 20
_symmetry_cell_setting 'orthorhombic'
loop_
_space_group_symop_operation_xyz
x,y,z
-x,-y,1/2+z
x,-y,-z
-x,y,1/2-z
1/2+x,1/2+y,z
1/2-x,1/2-y,1/2+z
1/2+x,1/2-y,-z
1/2-x,1/2+y,1/2-z
loop_
_atom_site_type_symbol
_atom_site_label
_atom_site_fract_x
_atom_site_fract_y
_atom_site_fract_z
Si Si1 0.602587 0.319076 0.100173
Si Si2 0.061790 0.377315 0.797414
Si Si3 0.423172 0.107168 0.868421
Si Si4 0.906805 0.801254 0.595343
Si Si5 0.257338 0.749986 0.826320
Si Si6 0.228461 0.190749 0.996740
Si Si7 0.292094 0.923758 0.223960
Si Si8 0.892819 0.705096 0.075088
O O1 0.608392 0.243174 0.160180
O O2 0.597237 0.509074 0.100851
O O3 0.502468 0.257199 0.073905
O O4 0.692677 0.265700 0.063542
O O5 0.132741 0.489758 0.764356
O O6 0.000000 0.293537 0.750000
O O7 0.991294 0.489033 0.832985
O O8 0.487213 0.238288 0.896784
O O9 0.348892 0.172183 0.823161
O O10 0.383239 0.984814 0.913755
O O11 0.840307 0.718221 0.641317
O O12 0.855792 0.757625 0.538426
O O13 0.271270 0.666369 0.768070
O O14 0.341931 0.725537 0.869932
O O15 0.247794 0.934389 0.810496
O O16 0.328026 0.247899 0.022767
O O17 0.228511 0.000000 0.000000
#
# Coordination Sequence:
#
# PCOD9317685 Si02
#       8
#     8   8   8   8   8   8   8   8
#     4  10  21  38  65  91 121 161 204 258 312 370
#     4   9  18  36  57  85 122 165 203 242 301 374
#     4   9  18  36  59  85 112 162 201 246 303 368
#     4  10  20  37  60  87 122 155 205 262 310 359
#     4  10  21  35  55  84 123 162 202 255 304 365
#     4   9  20  39  63  85 118 157 197 251 312 370
#     4  10  20  34  55  83 125 163 204 252 303 366
#     4   9  20  39  62  83 117 157 200 247 313 371
#
# _framework density 22.184640999999999
#
# number of rings (size 3 to 8) (size 9 to 14) (size 15 to 20)
#    0.000    2.500    1.250    0.750    1.750    2.000 
#    2.250    1.875    8.250    3.000    0.000    0.000 
#    0.000    0.000    0.000    0.000    0.000    0.000 
#
# Total GULP energy -178568.167361 kJ/mol
# GULP energy per Si atom -5580.255230 kJ/mol
# Density = 2.213415 g / cm^3
# Si number density = 22.184641 Si / 1000 Ang^3
#
#
#
# Elastic Constant Matrix: (Units=GPa)
#
#
# Indices 1 2 3 4 5 6 
#
# 1 74.5987 -2.6096 45.2542 0.0000 0.0000 0.0000
# 2 -2.6096 7.0085 17.3333 0.0000 0.0000 0.0000
# 3 45.2542 17.3333 113.4189 0.0000 0.0000 0.0000
# 4 0.0000 0.0000 0.0000 26.0260 0.0000 0.0000
# 5 0.0000 0.0000 0.0000 0.0000 46.6581 0.0000
# 6 0.0000 0.0000 0.0000 0.0000 0.0000 28.7639
#
#
#
# Elastic Compliance Matrix: (Units=1/GPa)
#
#
# Indices 1 2 3 4 5 6 
#
# 1 0.027989 0.061155 -0.020514 0.000000 0.000000 0.000000
# 2 0.061155 0.363008 -0.079878 0.000000 0.000000 0.000000
# 3 -0.020514 -0.079878 0.029209 0.000000 0.000000 0.000000
# 4 0.000000 0.000000 0.000000 0.038423 0.000000 0.000000
# 5 0.000000 0.000000 0.000000 0.000000 0.021432 0.000000
# 6 0.000000 0.000000 0.000000 0.000000 0.000000 0.034766
#
#
# Mechanical properties :
#
#
# Convention : Reuss Voigt Hill
#
# Bulk Modulus (GPa) = 2.92625 34.99798 18.96212
# Shear Modulus (GPa) = 7.07002 29.29283 18.18142
#
# Velocity S-wave (km/s) = 1.78713 3.63769 2.86588
# Velocity P-wave (km/s) = 2.36227 5.78392 4.41781
#
# Compressibility (1/GPa) = 0.34173382
#
# Stress axis : x y z
#
# Youngs Moduli (GPa) = 35.72883 2.75476 34.23581
#
# Poissons Ratio (x) = -0.16847 0.70230
# Poissons Ratio (y) = -2.18501 2.73469
# Poissons Ratio (z) = 0.73293 0.22004
#
# Static dielectric constant tensor:
#      x y z
#    x 1.867170 0.000000 0.000000 
#    y 0.000000 1.810000 0.000000 
#    z 0.000000 0.000000 1.842980 
# 
# From -- ./inp_files/29336.got.cif
#   From: 2010.05.17/outbox.cif.g08.bks.cpg/sg20_15_cif.got.tgz:29336.got - 2010.06.03 22:52:26.
