data_PCOD9317887
_publ_section_title
;
Structure prediction by ZEFSAII (Michael W. Deem and Ramdas Pophale) SiO2 
 PCOD9317887
Probable space group: C 2 2 21
;
_chemical_formula_sum "Si O2"
_cell_formula_units_Z 64
_cell_length_a 29.866347
_cell_length_b 9.408354
_cell_length_c 11.249381
_cell_angle_alpha 90.000000
_cell_angle_beta 90.000000
_cell_angle_gamma 90.000000
_cell_volume 3160.999174
_symmetry_space_group_name_H-M "C 2 2 21"
_symmetry_group_IT_number 20
_symmetry_cell_setting 'orthorhombic'
loop_
_space_group_symop_operation_xyz
x,y,z
-x,-y,1/2+z
x,-y,-z
-x,y,1/2-z
1/2+x,1/2+y,z
1/2-x,1/2-y,1/2+z
1/2+x,1/2-y,-z
1/2-x,1/2+y,1/2-z
loop_
_atom_site_type_symbol
_atom_site_label
_atom_site_fract_x
_atom_site_fract_y
_atom_site_fract_z
Si Si1 0.627090 0.364721 0.870108
Si Si2 0.302235 0.864072 0.761300
Si Si3 0.714224 0.711361 0.524629
Si Si4 0.796030 0.946420 0.805048
Si Si5 0.975467 0.086504 0.378028
Si Si6 0.020113 0.570433 0.880132
Si Si7 0.876964 0.536391 0.632993
Si Si8 0.199598 0.845536 0.047145
O O1 0.664900 0.441452 0.791373
O O2 0.578331 0.432791 0.863576
O O3 0.624872 0.201105 0.831125
O O4 0.648591 0.347525 0.001440
O O5 0.307305 0.835095 0.899953
O O6 0.254433 0.940483 0.744084
O O7 0.298334 0.720105 0.679317
O O8 0.344603 0.947791 0.715390
O O9 0.699279 0.691857 0.390127
O O10 0.702450 0.574738 0.602762
O O11 0.767937 0.735905 0.523069
O O12 0.980657 0.257559 0.397282
O O13 0.000000 0.052064 0.250000
O O14 0.988839 0.000000 0.500000
O O15 0.070254 0.506337 0.869776
O O16 0.000000 0.542539 0.750000
O O17 0.999940 0.500000 0.000000
O O18 0.860279 0.500000 0.500000
O O19 0.216657 0.000000 0.000000
#
# Coordination Sequence:
#
# PCOD9317887 Si02
#       8
#     8   8   8   8   8   8   8   8
#     4  11  20  39  63  86 119 159 206 249 309 375
#     4  11  21  32  56  82 116 156 205 253 297 353
#     4  10  22  37  50  78 118 161 201 249 304 355
#     4  10  22  37  54  78 119 162 201 248 307 361
#     4  10  23  44  70 101 130 165 212 276 334 390
#     4   9  20  41  68  97 129 164 206 260 325 389
#     4  10  20  36  60  88 117 153 199 250 301 356
#     4  11  21  33  55  83 111 156 211 255 293 351
#
# _framework density 20.246762
#
# number of rings (size 3 to 8) (size 9 to 14) (size 15 to 20)
#    0.000    1.750    2.500    1.875    1.750    1.500 
#    2.250    3.750    0.000    0.000    0.000    0.000 
#    0.000    0.000    0.000    0.000    0.000    0.000 
#
# Total GULP energy -178223.814405 kJ/mol
# GULP energy per Si atom -5569.494200 kJ/mol
# Density = 2.020068 g / cm^3
# Si number density = 20.246762 Si / 1000 Ang^3
#
#
#
# Elastic Constant Matrix: (Units=GPa)
#
#
# Indices 1 2 3 4 5 6 
#
# 1 85.8940 21.4856 53.7270 0.0000 0.0000 0.0000
# 2 21.4856 43.8147 27.3926 0.0000 0.0000 0.0000
# 3 53.7270 27.3926 127.3070 0.0000 0.0000 0.0000
# 4 0.0000 0.0000 0.0000 32.9493 0.0000 0.0000
# 5 0.0000 0.0000 0.0000 0.0000 32.4056 0.0000
# 6 0.0000 0.0000 0.0000 0.0000 0.0000 19.0573
#
#
#
# Elastic Compliance Matrix: (Units=1/GPa)
#
#
# Indices 1 2 3 4 5 6 
#
# 1 0.016496 -0.004317 -0.006033 0.000000 0.000000 0.000000
# 2 -0.004317 0.027501 -0.004095 0.000000 0.000000 0.000000
# 3 -0.006033 -0.004095 0.011282 0.000000 0.000000 0.000000
# 4 0.000000 0.000000 0.000000 0.030350 0.000000 0.000000
# 5 0.000000 0.000000 0.000000 0.000000 0.030859 0.000000
# 6 0.000000 0.000000 0.000000 0.000000 0.000000 0.052473
#
#
# Mechanical properties :
#
#
# Convention : Reuss Voigt Hill
#
# Bulk Modulus (GPa) = 37.89609 51.35845 44.62727
# Shear Modulus (GPa) = 24.19583 27.17648 25.68616
#
# Velocity S-wave (km/s) = 3.46070 3.66767 3.56568
# Velocity P-wave (km/s) = 5.89290 6.58460 6.24833
#
# Compressibility (1/GPa) = 0.02638795
#
# Stress axis : x y z
#
# Youngs Moduli (GPa) = 60.62204 36.36247 88.63571
#
# Poissons Ratio (x) = 0.15699 0.53471
# Poissons Ratio (y) = 0.26173 0.36299
# Poissons Ratio (z) = 0.36571 0.14891
#
# Static dielectric constant tensor:
#      x y z
#    x 1.691660 0.000000 0.000000 
#    y 0.000000 1.860130 0.000000 
#    z 0.000000 0.000000 1.787480 
# 
# From -- ./inp_files/17239.got.cif
#   From: 2010.05.17/outbox.cif.g08.bks.cpg/sg20_9_cif.got.tgz:17239.got - 2010.06.03 22:52:26.
