data_PCOD9317781
_publ_section_title
;
Structure prediction by ZEFSAII (Michael W. Deem and Ramdas Pophale) SiO2 
 PCOD9317781
Probable space group: C 2 2 21
;
_chemical_formula_sum "Si O2"
_cell_formula_units_Z 48
_cell_length_a 26.570759
_cell_length_b 6.131955
_cell_length_c 13.667046
_cell_angle_alpha 90.000000
_cell_angle_beta 90.000000
_cell_angle_gamma 90.000000
_cell_volume 2226.781351
_symmetry_space_group_name_H-M "C 2 2 21"
_symmetry_group_IT_number 20
_symmetry_cell_setting 'orthorhombic'
loop_
_space_group_symop_operation_xyz
x,y,z
-x,-y,1/2+z
x,-y,-z
-x,y,1/2-z
1/2+x,1/2+y,z
1/2-x,1/2-y,1/2+z
1/2+x,1/2-y,-z
1/2-x,1/2+y,1/2-z
loop_
_atom_site_type_symbol
_atom_site_label
_atom_site_fract_x
_atom_site_fract_y
_atom_site_fract_z
Si Si1 0.856478 0.617987 0.100493
Si Si2 0.913661 0.326790 0.256142
Si Si3 0.263948 0.141767 0.855593
Si Si4 0.500000 0.871953 0.750000
Si Si5 0.735897 0.000000 0.000000
Si Si6 0.185541 0.809833 0.843957
Si Si7 0.938998 0.949442 0.110395
O O1 0.880249 0.490609 0.191410
O O2 0.797549 0.566550 0.111715
O O3 0.881853 0.853371 0.102823
O O4 0.872659 0.500000 0.000000
O O5 0.958092 0.472572 0.299207
O O6 0.873907 0.205627 0.325246
O O7 0.937248 0.158178 0.179494
O O8 0.268337 0.342581 0.929950
O O9 0.284300 0.220766 0.751494
O O10 0.207037 0.054017 0.855827
O O11 0.526726 0.726079 0.667128
O O12 0.701732 0.155454 0.932697
O O13 0.955701 0.000000 0.000000
#
# Coordination Sequence:
#
# PCOD9317781 Si02
#       7
#     8   8   8   4   4   8   8
#     4  10  20  35  60 101 134 163 219 277 331 410
#     4  10  23  41  65  97 135 174 218 289 342 401
#     4  11  24  40  65 100 138 186 230 281 332 405
#     4  10  24  44  68 102 134 168 234 286 356 422
#     4  12  24  44  66  92 146 194 234 276 340 404
#     4  11  24  42  66  99 140 181 234 277 338 408
#     4  11  22  41  71 100 135 174 223 286 360 412
#
# _framework density 21.555776000000002
#
# number of rings (size 3 to 8) (size 9 to 14) (size 15 to 20)
#    0.000    1.333    3.333    2.000    2.333    4.000 
#    1.500    3.333    0.000    0.000    0.000    0.000 
#    0.000    0.000    0.000    0.000    0.000    0.000 
#
# Total GULP energy -134104.272811 kJ/mol
# GULP energy per Si atom -5587.678034 kJ/mol
# Density = 2.150671 g / cm^3
# Si number density = 21.555776 Si / 1000 Ang^3
#
#
#
# Elastic Constant Matrix: (Units=GPa)
#
#
# Indices 1 2 3 4 5 6 
#
# 1 105.2242 35.4732 26.1163 0.0000 0.0000 0.0000
# 2 35.4732 76.8306 32.8795 0.0000 0.0000 0.0000
# 3 26.1163 32.8795 96.1565 0.0000 0.0000 0.0000
# 4 0.0000 0.0000 0.0000 36.6327 0.0000 0.0000
# 5 0.0000 0.0000 0.0000 0.0000 11.9263 0.0000
# 6 0.0000 0.0000 0.0000 0.0000 0.0000 1.2704
#
#
#
# Elastic Compliance Matrix: (Units=1/GPa)
#
#
# Indices 1 2 3 4 5 6 
#
# 1 0.011443 -0.004631 -0.001524 0.000000 0.000000 0.000000
# 2 -0.004631 0.017121 -0.004596 0.000000 0.000000 0.000000
# 3 -0.001524 -0.004596 0.012385 0.000000 0.000000 0.000000
# 4 0.000000 0.000000 0.000000 0.027298 0.000000 0.000000
# 5 0.000000 0.000000 0.000000 0.000000 0.083848 0.000000
# 6 0.000000 0.000000 0.000000 0.000000 0.000000 0.787127
#
#
# Mechanical properties :
#
#
# Convention : Reuss Voigt Hill
#
# Bulk Modulus (GPa) = 51.42554 51.90547 51.66551
# Shear Modulus (GPa) = 5.16952 22.21538 13.69245
#
# Velocity S-wave (km/s) = 1.55029 3.21378 2.52307
# Velocity P-wave (km/s) = 5.20704 6.15655 5.70159
#
# Compressibility (1/GPa) = 0.01944559
#
# Stress axis : x y z
#
# Youngs Moduli (GPa) = 87.38905 58.40831 80.73982
#
# Poissons Ratio (x) = 0.27049 0.12308
# Poissons Ratio (y) = 0.40470 0.37112
# Poissons Ratio (z) = 0.13322 0.26847
#
# Static dielectric constant tensor:
#      x y z
#    x 1.826680 0.000000 0.000000 
#    y 0.000000 1.794460 0.000000 
#    z 0.000000 0.000000 1.780310 
# 
# From -- ./inp_files/22183.got.cif
#   From: 2010.05.17/outbox.cif.g08.bks.cpg/sg20_12_cif.got.tgz:22183.got - 2010.06.03 22:52:26.
