data_PCOD9317831
_publ_section_title
;
Structure prediction by ZEFSAII (Michael W. Deem and Ramdas Pophale) SiO2 
 PCOD9317831
Probable space group: C 2 2 21
;
_chemical_formula_sum "Si O2"
_cell_formula_units_Z 64
_cell_length_a 9.560204
_cell_length_b 29.232379
_cell_length_c 10.121274
_cell_angle_alpha 90.000000
_cell_angle_beta 90.000000
_cell_angle_gamma 90.000000
_cell_volume 2828.567209
_symmetry_space_group_name_H-M "C 2 2 21"
_symmetry_group_IT_number 20
_symmetry_cell_setting 'orthorhombic'
loop_
_space_group_symop_operation_xyz
x,y,z
-x,-y,1/2+z
x,-y,-z
-x,y,1/2-z
1/2+x,1/2+y,z
1/2-x,1/2-y,1/2+z
1/2+x,1/2-y,-z
1/2-x,1/2+y,1/2-z
loop_
_atom_site_type_symbol
_atom_site_label
_atom_site_fract_x
_atom_site_fract_y
_atom_site_fract_z
Si Si1 0.411395 0.079920 0.124653
Si Si2 0.706225 0.297454 0.694238
Si Si3 0.073084 0.462483 0.107287
Si Si4 0.217413 0.298029 0.377832
Si Si5 0.986087 0.167946 0.951592
Si Si6 0.790271 0.633532 0.671270
Si Si7 0.620304 0.612192 0.152323
Si Si8 0.481934 0.178896 0.448749
O O1 0.500000 0.064014 0.250000
O O2 0.249076 0.078552 0.155105
O O3 0.450968 0.055878 0.989191
O O4 0.453479 0.132522 0.106672
O O5 0.686608 0.243833 0.722018
O O6 0.604953 0.310074 0.570775
O O7 0.669353 0.337173 0.797127
O O8 0.867841 0.301652 0.651844
O O9 0.176330 0.419354 0.139246
O O10 0.000000 0.473029 0.250000
O O11 0.136315 0.500000 0.000000
O O12 0.382275 0.300593 0.411752
O O13 0.176049 0.347141 0.316192
O O14 0.112887 0.291354 0.501404
O O15 0.868935 0.150617 0.850207
O O16 0.058187 0.122271 0.009825
O O17 0.885596 0.662786 0.571314
O O18 0.500000 0.596702 0.250000
#
# Coordination Sequence:
#
# PCOD9317831 Si02
#       8
#     8   8   8   8   8   8   8   8
#     4  11  20  40  71 101 136 179 232 285 355 423
#     4  10  22  36  53  87 137 179 252 301 333 385
#     4  11  25  47  78 116 139 169 225 295 360 441
#     4  12  21  36  59  88 130 192 241 296 345 395
#     4  10  22  38  56  90 127 191 235 287 340 410
#     4  10  23  41  61  92 132 171 222 280 354 414
#     4  10  21  37  59  91 133 189 236 286 342 405
#     4  10  20  36  56  85 123 176 232 286 345 390
#
# _framework density 22.626294999999999
#
# number of rings (size 3 to 8) (size 9 to 14) (size 15 to 20)
#    0.000    1.500    2.500    3.375    1.750    5.000 
#    4.500    0.000    0.000    0.750    3.250    0.000 
#    0.000    0.000    0.000    0.000    0.000    0.000 
#
# Total GULP energy -178560.221646 kJ/mol
# GULP energy per Si atom -5580.006926 kJ/mol
# Density = 2.257480 g / cm^3
# Si number density = 22.626295 Si / 1000 Ang^3
#
#
#
# Elastic Constant Matrix: (Units=GPa)
#
#
# Indices 1 2 3 4 5 6 
#
# 1 156.3504 18.1757 29.6743 0.0000 0.0000 0.0000
# 2 18.1757 72.9306 11.0363 0.0000 0.0000 0.0000
# 3 29.6743 11.0363 89.5498 0.0000 0.0000 0.0000
# 4 0.0000 0.0000 0.0000 11.7203 0.0000 0.0000
# 5 0.0000 0.0000 0.0000 0.0000 40.3337 0.0000
# 6 0.0000 0.0000 0.0000 0.0000 0.0000 84.9001
#
#
#
# Elastic Compliance Matrix: (Units=1/GPa)
#
#
# Indices 1 2 3 4 5 6 
#
# 1 0.006965 -0.001413 -0.002134 0.000000 0.000000 0.000000
# 2 -0.001413 0.014259 -0.001289 0.000000 0.000000 0.000000
# 3 -0.002134 -0.001289 0.012033 0.000000 0.000000 0.000000
# 4 0.000000 0.000000 0.000000 0.085322 0.000000 0.000000
# 5 0.000000 0.000000 0.000000 0.000000 0.024793 0.000000
# 6 0.000000 0.000000 0.000000 0.000000 0.000000 0.011779
#
#
# Mechanical properties :
#
#
# Convention : Reuss Voigt Hill
#
# Bulk Modulus (GPa) = 42.39967 48.51150 45.45559
# Shear Modulus (GPa) = 28.95453 44.72044 36.83748
#
# Velocity S-wave (km/s) = 3.58115 4.45059 4.03933
# Velocity P-wave (km/s) = 5.98993 6.92078 6.47211
#
# Compressibility (1/GPa) = 0.02358509
#
# Stress axis : x y z
#
# Youngs Moduli (GPa) = 143.57197 70.13183 83.10500
#
# Poissons Ratio (x) = 0.09909 0.17734
# Poissons Ratio (y) = 0.20286 0.10713
# Poissons Ratio (z) = 0.30637 0.09041
#
# Static dielectric constant tensor:
#      x y z
#    x 1.864440 0.000000 0.000000 
#    y 0.000000 1.868250 0.000000 
#    z 0.000000 0.000000 1.879440 
# 
# From -- ./inp_files/13399.got.cif
#   From: 2010.05.17/outbox.cif.g08.bks.cpg/sg20_7_cif.got.tgz:13399.got - 2010.06.03 22:52:26.
