data_PCOD9317276
_publ_section_title
;
Structure prediction by ZEFSAII (Michael W. Deem and Ramdas Pophale) SiO2 
 PCOD9317276
Probable space group: C 2 2 21
;
_chemical_formula_sum "Si O2"
_cell_formula_units_Z 48
_cell_length_a 11.682013
_cell_length_b 9.102799
_cell_length_c 16.802900
_cell_angle_alpha 90.000000
_cell_angle_beta 90.000000
_cell_angle_gamma 90.000000
_cell_volume 1786.803856
_symmetry_space_group_name_H-M "C 2 2 21"
_symmetry_group_IT_number 20
_symmetry_cell_setting 'orthorhombic'
loop_
_space_group_symop_operation_xyz
x,y,z
-x,-y,1/2+z
x,-y,-z
-x,y,1/2-z
1/2+x,1/2+y,z
1/2-x,1/2-y,1/2+z
1/2+x,1/2-y,-z
1/2-x,1/2+y,1/2-z
loop_
_atom_site_type_symbol
_atom_site_label
_atom_site_fract_x
_atom_site_fract_y
_atom_site_fract_z
Si Si1 0.681799 0.210869 0.542109
Si Si2 0.957434 0.939779 0.165200
Si Si3 0.545744 0.955607 0.085377
Si Si4 0.035346 0.000000 0.500000
Si Si5 0.000000 0.515061 0.750000
Si Si6 0.825938 0.227539 0.207540
Si Si7 0.741960 0.735369 0.126122
O O1 0.578652 0.103605 0.563895
O O2 0.617921 0.364252 0.521525
O O3 0.744943 0.240959 0.626459
O O4 0.738496 0.161394 0.459445
O O5 0.027909 0.954089 0.082160
O O6 0.844899 0.849047 0.141523
O O7 0.000000 0.880503 0.250000
O O8 0.917875 0.105100 0.184376
O O9 0.529866 0.057296 0.164142
O O10 0.624812 0.822583 0.112782
O O11 0.597312 0.000000 0.000000
O O12 0.106729 0.623329 0.729529
O O13 0.767309 0.162262 0.286948
#
# Coordination Sequence:
#
# PCOD9317276 Si02
#       7
#     8   8   8   4   4   8   8
#     4   9  19  39  59  83 122 150 196 244 290 343
#     4  10  19  36  59  82 114 147 190 244 286 337
#     4  10  21  37  62  85 117 161 194 237 291 356
#     4   8  18  34  64  82 104 152 192 234 294 336
#     4   8  16  36  58  78 110 154 198 228 290 346
#     4   9  17  35  59  80 110 153 192 235 286 345
#     4  10  22  38  57  90 112 153 201 232 289 352
#
# _framework density 26.863609
#
# number of rings (size 3 to 8) (size 9 to 14) (size 15 to 20)
#    0.000    2.667    0.833    0.000    9.333    0.000 
#   15.000    0.000    3.667    0.000    0.000    0.000 
#    0.000    0.000    0.000    0.000    0.000    0.000 
#
# Total GULP energy -133883.502353 kJ/mol
# GULP energy per Si atom -5578.479265 kJ/mol
# Density = 2.680247 g / cm^3
# Si number density = 26.863609 Si / 1000 Ang^3
#
#
#
# Elastic Constant Matrix: (Units=GPa)
#
#
# Indices 1 2 3 4 5 6 
#
# 1 53.3456 10.2046 67.4326 0.0000 0.0000 0.0000
# 2 10.2046 36.7829 29.6597 0.0000 0.0000 0.0000
# 3 67.4326 29.6597 367.9935 0.0000 0.0000 0.0000
# 4 0.0000 0.0000 0.0000 39.3136 0.0000 0.0000
# 5 0.0000 0.0000 0.0000 0.0000 38.2106 0.0000
# 6 0.0000 0.0000 0.0000 0.0000 0.0000 19.5430
#
#
#
# Elastic Compliance Matrix: (Units=1/GPa)
#
#
# Indices 1 2 3 4 5 6 
#
# 1 0.024797 -0.003439 -0.004267 0.000000 0.000000 0.000000
# 2 -0.003439 0.029553 -0.001752 0.000000 0.000000 0.000000
# 3 -0.004267 -0.001752 0.003640 0.000000 0.000000 0.000000
# 4 0.000000 0.000000 0.000000 0.025436 0.000000 0.000000
# 5 0.000000 0.000000 0.000000 0.000000 0.026171 0.000000
# 6 0.000000 0.000000 0.000000 0.000000 0.000000 0.051169
#
#
# Mechanical properties :
#
#
# Convention : Reuss Voigt Hill
#
# Bulk Modulus (GPa) = 25.59133 74.74619 50.16876
# Shear Modulus (GPa) = 25.94611 42.80179 34.37395
#
# Velocity S-wave (km/s) = 3.11118 3.99595 3.58099
# Velocity P-wave (km/s) = 4.73846 7.01248 5.98447
#
# Compressibility (1/GPa) = 0.03907573
#
# Stress axis : x y z
#
# Youngs Moduli (GPa) = 40.32749 33.83734 274.68896
#
# Poissons Ratio (x) = 0.11636 1.17202
# Poissons Ratio (y) = 0.13868 0.48119
# Poissons Ratio (z) = 0.17207 0.05928
#
# Static dielectric constant tensor:
#      x y z
#    x 2.066450 0.000000 0.000000 
#    y 0.000000 2.181210 0.000000 
#    z 0.000000 0.000000 2.352490 
# 
# From -- ./inp_files/20691.got.cif
#   From: 2010.05.17/outbox.cif.g08.bks.cpg/sg20_11_cif.got.tgz:20691.got - 2010.06.03 22:52:26.
