data_PCOD9317963
_publ_section_title
;
Structure prediction by ZEFSAII (Michael W. Deem and Ramdas Pophale) SiO2 
 PCOD9317963
Probable space group: C 2 2 21
;
_chemical_formula_sum "Si O2"
_cell_formula_units_Z 56
_cell_length_a 11.998220
_cell_length_b 15.181505
_cell_length_c 13.814482
_cell_angle_alpha 90.000000
_cell_angle_beta 90.000000
_cell_angle_gamma 90.000000
_cell_volume 2516.322221
_symmetry_space_group_name_H-M "C 2 2 21"
_symmetry_group_IT_number 20
_symmetry_cell_setting 'orthorhombic'
loop_
_space_group_symop_operation_xyz
x,y,z
-x,-y,1/2+z
x,-y,-z
-x,y,1/2-z
1/2+x,1/2+y,z
1/2-x,1/2-y,1/2+z
1/2+x,1/2-y,-z
1/2-x,1/2+y,1/2-z
loop_
_atom_site_type_symbol
_atom_site_label
_atom_site_fract_x
_atom_site_fract_y
_atom_site_fract_z
Si Si1 0.440159 0.854376 0.977407
Si Si2 0.722491 0.183626 0.294023
Si Si3 0.226270 0.080240 0.929975
Si Si4 0.629989 0.371317 0.258373
Si Si5 0.259740 0.917642 0.429783
Si Si6 0.625680 0.735898 0.047728
Si Si7 0.094452 0.454770 0.830353
O O1 0.360700 0.829635 0.886509
O O2 0.535566 0.913112 0.925506
O O3 0.358066 0.901670 0.053657
O O4 0.502730 0.773057 0.027911
O O5 0.692442 0.277856 0.249071
O O6 0.841771 0.193865 0.347723
O O7 0.689718 0.109094 0.215918
O O8 0.185171 0.065715 0.821623
O O9 0.159070 0.164505 0.968414
O O10 0.199110 0.000000 0.000000
O O11 0.500000 0.356682 0.250000
O O12 0.651592 0.407218 0.364919
O O13 0.294127 0.821388 0.465482
O O14 0.246473 0.000000 0.500000
O O15 0.357210 0.950806 0.357757
O O16 0.000000 0.461059 0.750000
#
# Coordination Sequence:
#
# PCOD9317963 Si02
#       7
#     8   8   8   8   8   8   8
#     4  10  20  38  70 101 135 179 228 294 356 410
#     4   9  20  38  66  96 130 189 232 269 353 445
#     4  11  26  42  71 106 144 182 246 293 350 437
#     4  11  24  43  66  93 132 187 234 282 347 426
#     4  11  24  39  66  99 137 176 236 288 351 425
#     4  10  21  40  64 101 142 176 227 293 353 415
#     4  10  20  36  68  96 139 180 225 286 363 423
#
# _framework density 22.254702999999999
#
# number of rings (size 3 to 8) (size 9 to 14) (size 15 to 20)
#    0.000    1.714    1.429    3.000    8.000    0.571 
#    0.000    2.143    0.000    0.857    0.000    0.000 
#    0.000    0.000    0.000    0.000    0.000    0.000 
#
# Total GULP energy -156422.220443 kJ/mol
# GULP energy per Si atom -5586.507873 kJ/mol
# Density = 2.220405 g / cm^3
# Si number density = 22.254703 Si / 1000 Ang^3
#
#
#
# Elastic Constant Matrix: (Units=GPa)
#
#
# Indices 1 2 3 4 5 6 
#
# 1 22.2480 -6.9928 11.8456 0.0000 0.0000 0.0000
# 2 -6.9928 84.1298 13.8443 0.0000 0.0000 0.0000
# 3 11.8456 13.8443 63.3334 0.0000 0.0000 0.0000
# 4 0.0000 0.0000 0.0000 34.1939 0.0000 0.0000
# 5 0.0000 0.0000 0.0000 0.0000 26.0981 0.0000
# 6 0.0000 0.0000 0.0000 0.0000 0.0000 26.0062
#
#
#
# Elastic Compliance Matrix: (Units=1/GPa)
#
#
# Indices 1 2 3 4 5 6 
#
# 1 0.052909 0.006251 -0.011262 0.000000 0.000000 0.000000
# 2 0.006251 0.013068 -0.004026 0.000000 0.000000 0.000000
# 3 -0.011262 -0.004026 0.018776 0.000000 0.000000 0.000000
# 4 0.000000 0.000000 0.000000 0.029245 0.000000 0.000000
# 5 0.000000 0.000000 0.000000 0.000000 0.038317 0.000000
# 6 0.000000 0.000000 0.000000 0.000000 0.000000 0.038452
#
#
# Mechanical properties :
#
#
# Convention : Reuss Voigt Hill
#
# Bulk Modulus (GPa) = 14.99718 23.01172 19.00445
# Shear Modulus (GPa) = 21.63861 27.32724 24.48293
#
# Velocity S-wave (km/s) = 3.12158 3.50799 3.32041
# Velocity P-wave (km/s) = 4.44363 5.17403 4.82268
#
# Compressibility (1/GPa) = 0.06667922
#
# Stress axis : x y z
#
# Youngs Moduli (GPa) = 18.90037 76.52001 53.25968
#
# Poissons Ratio (x) = -0.47833 0.59983
# Poissons Ratio (y) = -0.11815 0.21442
# Poissons Ratio (z) = 0.21286 0.30806
#
# Static dielectric constant tensor:
#      x y z
#    x 1.837490 0.000000 0.000000 
#    y 0.000000 1.808680 0.000000 
#    z 0.000000 0.000000 1.893910 
# 
# From -- ./inp_files/20044.got.cif
#   From: 2010.05.17/outbox.cif.g08.bks.cpg/sg20_11_cif.got.tgz:20044.got - 2010.06.03 22:52:26.
