data_PCOD9317051
_publ_section_title
;
Structure prediction by ZEFSAII (Michael W. Deem and Ramdas Pophale) SiO2 
 PCOD9317051
Probable space group: C 2 2 21
;
_chemical_formula_sum "Si O2"
_cell_formula_units_Z 64
_cell_length_a 7.231518
_cell_length_b 14.205251
_cell_length_c 27.520283
_cell_angle_alpha 90.000000
_cell_angle_beta 90.000000
_cell_angle_gamma 90.000000
_cell_volume 2827.035610
_symmetry_space_group_name_H-M "C 2 2 21"
_symmetry_group_IT_number 20
_symmetry_cell_setting 'orthorhombic'
loop_
_space_group_symop_operation_xyz
x,y,z
-x,-y,1/2+z
x,-y,-z
-x,y,1/2-z
1/2+x,1/2+y,z
1/2-x,1/2-y,1/2+z
1/2+x,1/2-y,-z
1/2-x,1/2+y,1/2-z
loop_
_atom_site_type_symbol
_atom_site_label
_atom_site_fract_x
_atom_site_fract_y
_atom_site_fract_z
Si Si1 0.254210 0.619717 0.334192
Si Si2 0.495520 0.900303 0.392801
Si Si3 0.449085 0.367656 0.484189
Si Si4 0.824978 0.580903 0.361125
Si Si5 0.376694 0.183526 0.705070
Si Si6 0.167277 0.971176 0.928916
Si Si7 0.177988 0.228759 0.437024
Si Si8 0.777204 0.506767 0.259744
O O1 0.039982 0.606152 0.349654
O O2 0.281805 0.726899 0.318685
O O3 0.370217 0.589022 0.381301
O O4 0.301915 0.551362 0.289057
O O5 0.502439 0.865896 0.336633
O O6 0.514579 0.803257 0.423003
O O7 0.335446 0.979446 0.388725
O O8 0.666187 0.960568 0.413589
O O9 0.484405 0.456963 0.449868
O O10 0.300038 0.403059 0.525150
O O11 0.358095 0.287190 0.452357
O O12 0.615028 0.331480 0.516754
O O13 0.736400 0.661826 0.393129
O O14 0.737427 0.566768 0.307955
O O15 0.500000 0.215885 0.750000
O O16 0.242688 0.101880 0.726148
O O17 0.000000 0.509369 0.250000
#
# Coordination Sequence:
#
# PCOD9317051 Si02
#       8
#     8   8   8   8   8   8   8   8
#     4  10  19  35  68  91 130 178 212 270 329 403
#     4   9  20  39  62  91 121 176 208 269 334 397
#     4  10  23  40  62  91 121 167 214 283 332 401
#     4   9  20  39  63  90 129 175 215 273 334 395
#     4  10  19  33  61  95 129 173 217 259 321 408
#     4   9  19  41  61  81 129 160 211 272 342 372
#     4  11  23  41  65  94 126 164 232 273 340 412
#     4   8  17  36  57  94 126 164 217 257 318 390
#
# _framework density 22.638556000000001
#
# number of rings (size 3 to 8) (size 9 to 14) (size 15 to 20)
#    0.000    2.500    0.000    3.000    5.250    0.000 
#    4.500    5.000    2.750    0.000    0.000    0.000 
#    0.000    0.000    0.000    0.000    0.000    0.000 
#
# Total GULP energy -178507.452118 kJ/mol
# GULP energy per Si atom -5578.357879 kJ/mol
# Density = 2.258703 g / cm^3
# Si number density = 22.638556 Si / 1000 Ang^3
#
#
#
# Elastic Constant Matrix: (Units=GPa)
#
#
# Indices 1 2 3 4 5 6 
#
# 1 42.4288 25.2459 42.0801 0.0000 0.0000 0.0000
# 2 25.2459 141.5379 76.9381 0.0000 0.0000 0.0000
# 3 42.0801 76.9381 129.3252 0.0000 0.0000 0.0000
# 4 0.0000 0.0000 0.0000 60.1042 0.0000 0.0000
# 5 0.0000 0.0000 0.0000 0.0000 27.9497 0.0000
# 6 0.0000 0.0000 0.0000 0.0000 0.0000 5.3584
#
#
#
# Elastic Compliance Matrix: (Units=1/GPa)
#
#
# Indices 1 2 3 4 5 6 
#
# 1 0.034799 -0.000077 -0.011277 0.000000 0.000000 0.000000
# 2 -0.000077 0.010442 -0.006187 0.000000 0.000000 0.000000
# 3 -0.011277 -0.006187 0.015083 0.000000 0.000000 0.000000
# 4 0.000000 0.000000 0.000000 0.016638 0.000000 0.000000
# 5 0.000000 0.000000 0.000000 0.000000 0.035779 0.000000
# 6 0.000000 0.000000 0.000000 0.000000 0.000000 0.186623
#
#
# Mechanical properties :
#
#
# Convention : Reuss Voigt Hill
#
# Bulk Modulus (GPa) = 39.61750 66.86890 53.24320
# Shear Modulus (GPa) = 14.58318 29.95097 22.26707
#
# Velocity S-wave (km/s) = 2.54081 3.64126 3.13963
# Velocity P-wave (km/s) = 5.11328 6.87606 6.05912
#
# Compressibility (1/GPa) = 0.02524137
#
# Stress axis : x y z
#
# Youngs Moduli (GPa) = 28.73623 95.76431 66.30052
#
# Poissons Ratio (x) = 0.00736 0.74769
# Poissons Ratio (y) = 0.00221 0.41022
# Poissons Ratio (z) = 0.32407 0.59252
#
# Static dielectric constant tensor:
#      x y z
#    x 1.879980 0.000000 0.000000 
#    y 0.000000 1.882350 0.000000 
#    z 0.000000 0.000000 1.833780 
# 
# From -- ./inp_files/28922.got.cif
#   From: 2010.05.17/outbox.cif.g08.bks.cpg/sg20_15_cif.got.tgz:28922.got - 2010.06.03 22:52:26.
