data_PCOD9317071
_publ_section_title
;
Structure prediction by ZEFSAII (Michael W. Deem and Ramdas Pophale) SiO2 
 PCOD9317071
Probable space group: C 2 2 21
;
_chemical_formula_sum "Si O2"
_cell_formula_units_Z 64
_cell_length_a 7.647040
_cell_length_b 11.688062
_cell_length_c 30.638716
_cell_angle_alpha 90.000000
_cell_angle_beta 90.000000
_cell_angle_gamma 90.000000
_cell_volume 2738.460176
_symmetry_space_group_name_H-M "C 2 2 21"
_symmetry_group_IT_number 20
_symmetry_cell_setting 'orthorhombic'
loop_
_space_group_symop_operation_xyz
x,y,z
-x,-y,1/2+z
x,-y,-z
-x,y,1/2-z
1/2+x,1/2+y,z
1/2-x,1/2-y,1/2+z
1/2+x,1/2-y,-z
1/2-x,1/2+y,1/2-z
loop_
_atom_site_type_symbol
_atom_site_label
_atom_site_fract_x
_atom_site_fract_y
_atom_site_fract_z
Si Si1 0.102190 0.128023 0.500565
Si Si2 0.735213 0.875629 0.523023
Si Si3 0.906295 0.664135 0.796207
Si Si4 0.730726 0.526842 0.155343
Si Si5 0.440429 0.350831 0.403793
Si Si6 0.969941 0.610409 0.396283
Si Si7 0.213892 0.412272 0.145634
Si Si8 0.096124 0.912708 0.704202
O O1 0.942280 0.129006 0.465987
O O2 0.001237 0.130294 0.547057
O O3 0.201071 0.250740 0.499376
O O4 0.190496 0.000000 0.500000
O O5 0.598024 0.878231 0.562519
O O6 0.708758 0.000000 0.500000
O O7 0.051826 0.656725 0.834684
O O8 0.817688 0.788168 0.794336
O O9 0.000000 0.648326 0.750000
O O10 0.773893 0.563305 0.806775
O O11 0.685526 0.449023 0.113474
O O12 0.560129 0.593416 0.169007
O O13 0.900595 0.599945 0.145061
O O14 0.358432 0.225803 0.396965
O O15 0.616626 0.351930 0.374262
O O16 0.854709 0.497330 0.392373
O O17 0.278252 0.490411 0.186085
O O18 0.000000 0.933843 0.750000
#
# Coordination Sequence:
#
# PCOD9317071 Si02
#       8
#     8   8   8   8   8   8   8   8
#     4  10  22  39  58  83 113 145 185 231 280 333
#     4  10  22  39  58  83 113 145 185 231 280 333
#     4  10  20  34  53  78 107 140 178 219 265 318
#     4  10  19  34  55  76 106 142 176 220 271 316
#     4  10  21  37  56  80 109 141 180 224 271 324
#     4  10  21  37  56  80 109 141 180 224 271 324
#     4  10  21  36  55  80 108 140 180 220 267 320
#     4  10  20  34  53  78 107 140 178 219 265 318
#
# _framework density 23.370798000000001
#
# number of rings (size 3 to 8) (size 9 to 14) (size 15 to 20)
#    0.000    2.000    0.000    3.750    0.000    4.500 
#    0.000    6.250    0.000   12.000    0.000    0.000 
#    0.000    0.000    0.000    0.000    0.000    0.000 
#
# Total GULP energy -178604.567695 kJ/mol
# GULP energy per Si atom -5581.392740 kJ/mol
# Density = 2.331760 g / cm^3
# Si number density = 23.370798 Si / 1000 Ang^3
#
#
#
# Elastic Constant Matrix: (Units=GPa)
#
#
# Indices 1 2 3 4 5 6 
#
# 1 40.6500 19.0922 -8.5374 0.0000 0.0000 0.0000
# 2 19.0922 145.1092 12.0533 0.0000 0.0000 0.0000
# 3 -8.5374 12.0533 48.9046 0.0000 0.0000 0.0000
# 4 0.0000 0.0000 0.0000 -5.4573 0.0000 0.0000
# 5 0.0000 0.0000 0.0000 0.0000 33.0520 0.0000
# 6 0.0000 0.0000 0.0000 0.0000 0.0000 -9.2733
#
#
#
# Elastic Compliance Matrix: (Units=1/GPa)
#
#
# Indices 1 2 3 4 5 6 
#
# 1 0.027779 -0.004142 0.005870 0.000000 0.000000 0.000000
# 2 -0.004142 0.007653 -0.002609 0.000000 0.000000 0.000000
# 3 0.005870 -0.002609 0.022116 0.000000 0.000000 0.000000
# 4 0.000000 0.000000 0.000000 -0.183240 0.000000 0.000000
# 5 0.000000 0.000000 0.000000 0.000000 0.030255 0.000000
# 6 0.000000 0.000000 0.000000 0.000000 0.000000 -0.107837
#
#
# Mechanical properties :
#
#
# Convention : Reuss Voigt Hill
#
# Bulk Modulus (GPa) = 17.92605 31.09777 24.51191
# Shear Modulus (GPa) = -27.33507 17.80132 -4.76687
#
# Velocity S-wave (km/s) = -3.42369 2.76287 -1.42972
# Velocity P-wave (km/s) = 2.81814 4.84903 2.79026
#
# Compressibility (1/GPa) = 0.05578473
#
# Stress axis : x y z
#
# Youngs Moduli (GPa) = 35.99876 130.66532 45.21635
#
# Poissons Ratio (x) = 0.54128 -0.26544
# Poissons Ratio (y) = 0.14912 0.11799
# Poissons Ratio (z) = -0.21133 0.34096
#
# Static dielectric constant tensor:
#      x y z
#    x 1.843410 0.000000 0.000000 
#    y 0.000000 1.908740 0.000000 
#    z 0.000000 0.000000 1.891930 
# 
# From -- ./inp_files/17252.got.cif
#   From: 2010.05.17/outbox.cif.g08.bks.cpg/sg20_9_cif.got.tgz:17252.got - 2010.06.03 22:52:26.
