data_PCOD9317647
_publ_section_title
;
Structure prediction by ZEFSAII (Michael W. Deem and Ramdas Pophale) SiO2 
 PCOD9317647
Probable space group: C 2 2 21
;
_chemical_formula_sum "Si O2"
_cell_formula_units_Z 64
_cell_length_a 9.280634
_cell_length_b 21.531779
_cell_length_c 17.941439
_cell_angle_alpha 90.000000
_cell_angle_beta 90.000000
_cell_angle_gamma 90.000000
_cell_volume 3585.211925
_symmetry_space_group_name_H-M "C 2 2 21"
_symmetry_group_IT_number 20
_symmetry_cell_setting 'orthorhombic'
loop_
_space_group_symop_operation_xyz
x,y,z
-x,-y,1/2+z
x,-y,-z
-x,y,1/2-z
1/2+x,1/2+y,z
1/2-x,1/2-y,1/2+z
1/2+x,1/2-y,-z
1/2-x,1/2+y,1/2-z
loop_
_atom_site_type_symbol
_atom_site_label
_atom_site_fract_x
_atom_site_fract_y
_atom_site_fract_z
Si Si1 0.055296 0.489745 0.832098
Si Si2 0.800740 0.925061 0.186686
Si Si3 0.892547 0.589993 0.930573
Si Si4 0.061388 0.680554 0.832217
Si Si5 0.264170 0.274431 0.575243
Si Si6 0.890490 0.107665 0.644835
Si Si7 0.531031 0.133263 0.405831
Si Si8 0.447655 0.267341 0.427229
O O1 0.220984 0.510715 0.831243
O O2 0.000000 0.507208 0.750000
O O3 0.969957 0.531839 0.891755
O O4 0.022823 0.418591 0.849780
O O5 0.686487 0.871414 0.167308
O O6 0.832718 0.913823 0.274359
O O7 0.947907 0.918075 0.141583
O O8 0.721739 0.584408 0.917378
O O9 0.938022 0.651632 0.884434
O O10 0.950319 0.601854 0.013093
O O11 0.131511 0.741355 0.866841
O O12 0.000000 0.688587 0.750000
O O13 0.188718 0.336279 0.607504
O O14 0.353812 0.283418 0.499727
O O15 0.121277 0.232093 0.558917
O O16 0.907652 0.182304 0.635433
O O17 0.428506 0.194199 0.408358
#
# Coordination Sequence:
#
# PCOD9317647 Si02
#       8
#     8   8   8   8   8   8   8   8
#     4  11  22  41  58  85 119 167 214 253 298 374
#     4  10  20  33  60  88 118 156 210 265 291 352
#     4  11  19  35  64  88 114 160 209 257 305 364
#     4  11  18  33  54  89 123 157 200 250 297 364
#     4  10  20  36  57  88 122 161 193 252 310 377
#     4  11  18  34  60  96 117 152 206 256 318 354
#     4  10  22  37  62  85 119 164 199 252 312 377
#     4  10  20  36  60  86 126 153 192 259 314 378
#
# _framework density 17.851106999999999
#
# number of rings (size 3 to 8) (size 9 to 14) (size 15 to 20)
#    0.750    0.750    6.250    1.125    0.000    0.000 
#    4.500    0.000    2.750    3.000    0.000    0.000 
#    0.000    0.000    0.000    0.000    0.000    0.000 
#
# Total GULP energy -178225.996361 kJ/mol
# GULP energy per Si atom -5569.562386 kJ/mol
# Density = 1.781048 g / cm^3
# Si number density = 17.851107 Si / 1000 Ang^3
#
#
#
# Elastic Constant Matrix: (Units=GPa)
#
#
# Indices 1 2 3 4 5 6 
#
# 1 99.6570 34.3835 18.3153 0.0000 0.0000 0.0000
# 2 34.3835 88.6834 16.5996 0.0000 0.0000 0.0000
# 3 18.3153 16.5996 32.3363 0.0000 0.0000 0.0000
# 4 0.0000 0.0000 0.0000 24.0587 0.0000 0.0000
# 5 0.0000 0.0000 0.0000 0.0000 25.5925 0.0000
# 6 0.0000 0.0000 0.0000 0.0000 0.0000 20.9985
#
#
#
# Elastic Compliance Matrix: (Units=1/GPa)
#
#
# Indices 1 2 3 4 5 6 
#
# 1 0.012270 -0.003824 -0.004987 0.000000 0.000000 0.000000
# 2 -0.003824 0.013666 -0.004850 0.000000 0.000000 0.000000
# 3 -0.004987 -0.004850 0.036239 0.000000 0.000000 0.000000
# 4 0.000000 0.000000 0.000000 0.041565 0.000000 0.000000
# 5 0.000000 0.000000 0.000000 0.000000 0.039074 0.000000
# 6 0.000000 0.000000 0.000000 0.000000 0.000000 0.047622
#
#
# Mechanical properties :
#
#
# Convention : Reuss Voigt Hill
#
# Bulk Modulus (GPa) = 28.69046 39.91927 34.30486
# Shear Modulus (GPa) = 21.79825 24.22184 23.01005
#
# Velocity S-wave (km/s) = 3.49824 3.68758 3.59416
# Velocity P-wave (km/s) = 5.69420 6.36725 6.04011
#
# Compressibility (1/GPa) = 0.03485479
#
# Stress axis : x y z
#
# Youngs Moduli (GPa) = 81.49803 73.17226 27.59451
#
# Poissons Ratio (x) = 0.27980 0.13761
# Poissons Ratio (y) = 0.31164 0.13382
# Poissons Ratio (z) = 0.40642 0.35486
#
# Static dielectric constant tensor:
#      x y z
#    x 1.637000 0.000000 0.000000 
#    y 0.000000 1.629960 0.000000 
#    z 0.000000 0.000000 1.603420 
# 
# From -- ./inp_files/23931.got.cif
#   From: 2010.05.17/outbox.cif.g08.bks.cpg/sg20_12_cif.got.tgz:23931.got - 2010.06.03 22:52:26.
