data_PCOD9317271
_publ_section_title
;
Structure prediction by ZEFSAII (Michael W. Deem and Ramdas Pophale) SiO2 
 PCOD9317271
Probable space group: C 2 2 21
;
_chemical_formula_sum "Si O2"
_cell_formula_units_Z 44
_cell_length_a 19.510700
_cell_length_b 12.385584
_cell_length_c 8.118590
_cell_angle_alpha 90.000000
_cell_angle_beta 90.000000
_cell_angle_gamma 90.000000
_cell_volume 1961.868751
_symmetry_space_group_name_H-M "C 2 2 21"
_symmetry_group_IT_number 20
_symmetry_cell_setting 'orthorhombic'
loop_
_space_group_symop_operation_xyz
x,y,z
-x,-y,1/2+z
x,-y,-z
-x,y,1/2-z
1/2+x,1/2+y,z
1/2-x,1/2-y,1/2+z
1/2+x,1/2-y,-z
1/2-x,1/2+y,1/2-z
loop_
_atom_site_type_symbol
_atom_site_label
_atom_site_fract_x
_atom_site_fract_y
_atom_site_fract_z
Si Si1 0.573455 0.325695 0.386932
Si Si2 0.457133 0.256489 0.590319
Si Si3 0.597981 0.560423 0.284586
Si Si4 0.752143 0.000000 0.500000
Si Si5 0.756384 0.561328 0.332311
Si Si6 0.326055 0.272427 0.407368
O O1 0.505299 0.258256 0.429209
O O2 0.562974 0.448498 0.327719
O O3 0.598251 0.348978 0.572914
O O4 0.629673 0.283106 0.260537
O O5 0.500000 0.213796 0.750000
O O6 0.439416 0.382291 0.633423
O O7 0.380479 0.221287 0.539167
O O8 0.678284 0.534789 0.281514
O O9 0.707474 0.977092 0.664452
O O10 0.794718 0.887007 0.467089
O O11 0.773178 0.500000 0.500000
O O12 0.767394 0.686675 0.368697
#
# Coordination Sequence:
#
# PCOD9317271 Si02
#       6
#     8   8   8   4   8   8
#     4  10  20  35  58  93 137 172 223 283 340 422
#     4  10  22  36  60  97 134 178 224 280 358 423
#     4  10  19  36  58  94 135 178 215 279 356 421
#     4  12  26  42  68 106 140 188 234 286 362 418
#     4  12  26  46  68 100 143 186 241 293 348 424
#     4  12  24  42  68  99 141 184 236 285 355 425
#
# _framework density 22.427595
#
# number of rings (size 3 to 8) (size 9 to 14) (size 15 to 20)
#    0.000    1.091    5.455    0.545    5.091   11.636 
#    3.273    0.000    0.000    2.182    0.000    0.000 
#    0.000    0.000    0.000    0.000    0.000    0.000 
#
# Total GULP energy -122479.220768 kJ/mol
# GULP energy per Si atom -5567.237308 kJ/mol
# Density = 2.237655 g / cm^3
# Si number density = 22.427595 Si / 1000 Ang^3
#
#
#
# Elastic Constant Matrix: (Units=GPa)
#
#
# Indices 1 2 3 4 5 6 
#
# 1 54.5186 26.2848 21.1018 0.0000 0.0000 0.0000
# 2 26.2848 62.3737 41.5963 0.0000 0.0000 0.0000
# 3 21.1018 41.5963 138.5613 0.0000 0.0000 0.0000
# 4 0.0000 0.0000 0.0000 17.4120 0.0000 0.0000
# 5 0.0000 0.0000 0.0000 0.0000 19.5603 0.0000
# 6 0.0000 0.0000 0.0000 0.0000 0.0000 9.1030
#
#
#
# Elastic Compliance Matrix: (Units=1/GPa)
#
#
# Indices 1 2 3 4 5 6 
#
# 1 0.023080 -0.009230 -0.000744 0.000000 0.000000 0.000000
# 2 -0.009230 0.023737 -0.005720 0.000000 0.000000 0.000000
# 3 -0.000744 -0.005720 0.009048 0.000000 0.000000 0.000000
# 4 0.000000 0.000000 0.000000 0.057432 0.000000 0.000000
# 5 0.000000 0.000000 0.000000 0.000000 0.051124 0.000000
# 6 0.000000 0.000000 0.000000 0.000000 0.000000 0.109854
#
#
# Mechanical properties :
#
#
# Convention : Reuss Voigt Hill
#
# Bulk Modulus (GPa) = 40.85616 48.15771 44.50693
# Shear Modulus (GPa) = 15.93264 20.31311 18.12287
#
# Velocity S-wave (km/s) = 2.66823 3.01278 2.84573
# Velocity P-wave (km/s) = 5.26774 5.79841 5.53944
#
# Compressibility (1/GPa) = 0.02447611
#
# Stress axis : x y z
#
# Youngs Moduli (GPa) = 43.32678 42.12883 110.52740
#
# Poissons Ratio (x) = 0.38885 0.08224
# Poissons Ratio (y) = 0.39991 0.63223
# Poissons Ratio (z) = 0.03224 0.24098
#
# Static dielectric constant tensor:
#      x y z
#    x 1.980160 0.000000 0.000000 
#    y 0.000000 1.790940 0.000000 
#    z 0.000000 0.000000 2.028320 
# 
# From -- ./inp_files/10584.got.cif
#   From: 2010.05.17/outbox.cif.g08.bks.cpg/sg20_6_cif.got.tgz:10584.got - 2010.06.03 22:52:26.
