data_PCOD9317450
_publ_section_title
;
Structure prediction by ZEFSAII (Michael W. Deem and Ramdas Pophale) SiO2 
 PCOD9317450
Probable space group: C 2 2 21
;
_chemical_formula_sum "Si O2"
_cell_formula_units_Z 60
_cell_length_a 14.548454
_cell_length_b 7.946817
_cell_length_c 22.857061
_cell_angle_alpha 90.000000
_cell_angle_beta 90.000000
_cell_angle_gamma 90.000000
_cell_volume 2642.594001
_symmetry_space_group_name_H-M "C 2 2 21"
_symmetry_group_IT_number 20
_symmetry_cell_setting 'orthorhombic'
loop_
_space_group_symop_operation_xyz
x,y,z
-x,-y,1/2+z
x,-y,-z
-x,y,1/2-z
1/2+x,1/2+y,z
1/2-x,1/2-y,1/2+z
1/2+x,1/2-y,-z
1/2-x,1/2+y,1/2-z
loop_
_atom_site_type_symbol
_atom_site_label
_atom_site_fract_x
_atom_site_fract_y
_atom_site_fract_z
Si Si1 0.985432 0.704270 0.994886
Si Si2 0.171860 0.180788 0.064400
Si Si3 0.725648 0.967233 0.658077
Si Si4 0.293760 0.680932 0.032236
Si Si5 0.832248 0.526892 0.371942
Si Si6 0.532075 0.151615 0.377868
Si Si7 0.299323 0.257689 0.266634
Si Si8 0.000000 0.182694 0.750000
O O1 0.073962 0.790728 0.966018
O O2 0.896164 0.754987 0.958142
O O3 0.994292 0.500000 0.000000
O O4 0.969542 0.761998 0.062691
O O5 0.193218 0.032971 0.109906
O O6 0.192091 0.343038 0.105343
O O7 0.244490 0.191885 0.012172
O O8 0.629368 0.941251 0.625152
O O9 0.731685 0.814067 0.704742
O O10 0.727607 0.132613 0.697487
O O11 0.228579 0.649186 0.087396
O O12 0.298345 0.500000 0.000000
O O13 0.819082 0.592288 0.306279
O O14 0.940642 0.541405 0.383745
O O15 0.519468 0.232803 0.313590
O O16 0.392971 0.371899 0.261584
#
# Coordination Sequence:
#
# PCOD9317450 Si02
#       8
#     8   8   8   8   8   8   8   4
#     4  12  22  39  63  91 130 166 211 259 312 381
#     4  11  21  39  60  90 126 167 203 258 315 377
#     4  11  23  41  65  95 127 163 217 265 320 381
#     4  10  22  39  59  88 121 165 203 250 316 369
#     4  10  20  39  64  87 123 163 209 253 316 376
#     4  10  19  38  64  89 120 168 208 254 312 380
#     4  10  22  41  64  92 120 167 212 268 319 377
#     4   8  20  40  62  80 122 164 214 250 322 372
#
# _framework density 22.704964
#
# number of rings (size 3 to 8) (size 9 to 14) (size 15 to 20)
#    0.000    1.600    4.000    1.200    1.867    0.000 
#    4.800    2.000    0.000    0.000    0.000    0.000 
#    0.000    0.000    0.000    0.000    0.000    0.000 
#
# Total GULP energy -167268.345416 kJ/mol
# GULP energy per Si atom -5575.611514 kJ/mol
# Density = 2.265329 g / cm^3
# Si number density = 22.704964 Si / 1000 Ang^3
#
#
#
# Elastic Constant Matrix: (Units=GPa)
#
#
# Indices 1 2 3 4 5 6 
#
# 1 112.8168 18.8791 53.3634 0.0000 0.0000 0.0000
# 2 18.8791 53.8788 29.9980 0.0000 0.0000 0.0000
# 3 53.3634 29.9980 142.3379 0.0000 0.0000 0.0000
# 4 0.0000 0.0000 0.0000 36.4148 0.0000 0.0000
# 5 0.0000 0.0000 0.0000 0.0000 47.0467 0.0000
# 6 0.0000 0.0000 0.0000 0.0000 0.0000 4.2858
#
#
#
# Elastic Compliance Matrix: (Units=1/GPa)
#
#
# Indices 1 2 3 4 5 6 
#
# 1 0.010919 -0.001752 -0.003724 0.000000 0.000000 0.000000
# 2 -0.001752 0.021309 -0.003834 0.000000 0.000000 0.000000
# 3 -0.003724 -0.003834 0.009230 0.000000 0.000000 0.000000
# 4 0.000000 0.000000 0.000000 0.027461 0.000000 0.000000
# 5 0.000000 0.000000 0.000000 0.000000 0.021255 0.000000
# 6 0.000000 0.000000 0.000000 0.000000 0.000000 0.233330
#
#
# Mechanical properties :
#
#
# Convention : Reuss Voigt Hill
#
# Bulk Modulus (GPa) = 43.78983 57.05715 50.42349
# Shear Modulus (GPa) = 14.29643 31.33565 22.81604
#
# Velocity S-wave (km/s) = 2.51203 3.71903 3.17344
# Velocity P-wave (km/s) = 5.26707 6.60500 5.97361
#
# Compressibility (1/GPa) = 0.02283635
#
# Stress axis : x y z
#
# Youngs Moduli (GPa) = 91.58549 46.92894 108.34517
#
# Poissons Ratio (x) = 0.08224 0.40350
# Poissons Ratio (y) = 0.16050 0.41538
# Poissons Ratio (z) = 0.34108 0.17992
#
# Static dielectric constant tensor:
#      x y z
#    x 1.841110 0.000000 0.000000 
#    y 0.000000 1.869680 0.000000 
#    z 0.000000 0.000000 1.871910 
# 
# From -- ./inp_files/29316.got.cif
#   From: 2010.05.17/outbox.cif.g08.bks.cpg/sg20_15_cif.got.tgz:29316.got - 2010.06.03 22:52:26.
