data_PCOD9317676
_publ_section_title
;
Structure prediction by ZEFSAII (Michael W. Deem and Ramdas Pophale) SiO2 
 PCOD9317676
Probable space group: C 2 2 21
;
_chemical_formula_sum "Si O2"
_cell_formula_units_Z 64
_cell_length_a 22.406681
_cell_length_b 9.674996
_cell_length_c 16.043095
_cell_angle_alpha 90.000000
_cell_angle_beta 90.000000
_cell_angle_gamma 90.000000
_cell_volume 3477.895115
_symmetry_space_group_name_H-M "C 2 2 21"
_symmetry_group_IT_number 20
_symmetry_cell_setting 'orthorhombic'
loop_
_space_group_symop_operation_xyz
x,y,z
-x,-y,1/2+z
x,-y,-z
-x,y,1/2-z
1/2+x,1/2+y,z
1/2-x,1/2-y,1/2+z
1/2+x,1/2-y,-z
1/2-x,1/2+y,1/2-z
loop_
_atom_site_type_symbol
_atom_site_label
_atom_site_fract_x
_atom_site_fract_y
_atom_site_fract_z
Si Si1 0.669907 0.341814 0.317926
Si Si2 0.726814 0.342673 0.866010
Si Si3 0.449495 0.163659 0.820197
Si Si4 0.550505 0.163659 0.320197
Si Si5 0.370542 0.665015 0.500000
Si Si6 0.330093 0.341814 0.817926
Si Si7 0.773186 0.842673 0.366010
Si Si8 0.009725 0.338235 0.000000
O O1 0.716835 0.257466 0.374214
O O2 0.608561 0.258087 0.309266
O O3 0.660118 0.500000 0.345069
O O4 0.702298 0.345738 0.228040
O O5 0.702298 0.345738 0.771960
O O6 0.743761 0.500000 0.889268
O O7 0.670847 0.299605 0.921582
O O8 0.500000 0.193938 0.750000
O O9 0.391439 0.258087 0.809266
O O10 0.474127 0.186305 0.913966
O O11 0.434568 1.000000 0.811800
O O12 0.500000 0.193938 0.250000
O O13 0.525873 0.186305 0.413966
O O14 0.381267 0.500000 0.500000
O O15 0.329153 0.700395 0.578418
O O16 0.431810 0.745239 0.500000
O O17 0.283165 0.257466 0.874214
O O18 0.026674 0.500000 0.000000
#
# Coordination Sequence:
#
# PCOD9317676 Si02
#       8
#     8   8   8   8   8   8   8   8
#     4  10  20  34  54  79 105 136 175 216 259 308
#     4   9  19  35  54  77 105 136 170 212 263 316
#     4  10  21  37  56  77 106 144 178 213 262 314
#     4  10  21  37  56  77 106 144 178 213 262 314
#     4  10  20  35  56  79 103 134 172 216 265 310
#     4  10  20  34  54  79 105 136 175 216 259 308
#     4   9  19  35  54  77 105 136 170 212 263 316
#     4  10  22  37  54  79 107 138 178 218 259 314
#
# _framework density 18.401935999999999
#
# number of rings (size 3 to 8) (size 9 to 14) (size 15 to 20)
#    0.000    2.250    0.000    2.250    0.000    4.500 
#    0.000    5.000    0.000    0.000    0.000    0.000 
#    0.000    0.000    0.000    0.000    0.000    0.000 
#
# Total GULP energy -178509.910034 kJ/mol
# GULP energy per Si atom -5578.434689 kJ/mol
# Density = 1.836005 g / cm^3
# Si number density = 18.401936 Si / 1000 Ang^3
#
#
#
# Elastic Constant Matrix: (Units=GPa)
#
#
# Indices 1 2 3 4 5 6 
#
# 1 128.9912 102.5223 11.8133 0.0000 0.0000 0.0000
# 2 102.5223 114.8620 26.3296 0.0000 0.0000 0.0000
# 3 11.8133 26.3296 50.8947 0.0000 0.0000 0.0000
# 4 0.0000 0.0000 0.0000 5.0863 0.0000 0.0000
# 5 0.0000 0.0000 0.0000 0.0000 8.5412 0.0000
# 6 0.0000 0.0000 0.0000 0.0000 0.0000 46.2335
#
#
#
# Elastic Compliance Matrix: (Units=1/GPa)
#
#
# Indices 1 2 3 4 5 6 
#
# 1 0.029038 -0.027652 0.007566 0.000000 0.000000 0.000000
# 2 -0.027652 0.036211 -0.012315 0.000000 0.000000 0.000000
# 3 0.007566 -0.012315 0.024263 0.000000 0.000000 0.000000
# 4 0.000000 0.000000 0.000000 0.196607 0.000000 0.000000
# 5 0.000000 0.000000 0.000000 0.000000 0.117080 0.000000
# 6 0.000000 0.000000 0.000000 0.000000 0.000000 0.021629
#
#
# Mechanical properties :
#
#
# Convention : Reuss Voigt Hill
#
# Bulk Modulus (GPa) = 40.47172 64.00870 52.24021
# Shear Modulus (GPa) = 10.04285 22.24437 16.14361
#
# Velocity S-wave (km/s) = 2.33866 3.48056 2.96510
# Velocity P-wave (km/s) = 5.41603 7.14224 6.33818
#
# Compressibility (1/GPa) = 0.02470861
#
# Stress axis : x y z
#
# Youngs Moduli (GPa) = 34.43787 27.61616 41.21486
#
# Poissons Ratio (x) = 0.76366 -0.31181
# Poissons Ratio (y) = 0.95229 0.50754
# Poissons Ratio (z) = -0.26054 0.34008
#
# Static dielectric constant tensor:
#      x y z
#    x 1.587640 0.000000 0.000000 
#    y 0.000000 1.634500 0.000000 
#    z 0.000000 0.000000 1.673940 
# 
# From -- ./inp_files/23934.got.cif
#   From: 2010.05.17/outbox.cif.g08.bks.cpg/sg20_12_cif.got.tgz:23934.got - 2010.06.03 22:52:26.
