data_PCOD9317374
_publ_section_title
;
Structure prediction by ZEFSAII (Michael W. Deem and Ramdas Pophale) SiO2 
 PCOD9317374
Probable space group: C 2 2 21
;
_chemical_formula_sum "Si O2"
_cell_formula_units_Z 56
_cell_length_a 8.556348
_cell_length_b 15.979764
_cell_length_c 21.093184
_cell_angle_alpha 90.000000
_cell_angle_beta 90.000000
_cell_angle_gamma 90.000000
_cell_volume 2884.037758
_symmetry_space_group_name_H-M "C 2 2 21"
_symmetry_group_IT_number 20
_symmetry_cell_setting 'orthorhombic'
loop_
_space_group_symop_operation_xyz
x,y,z
-x,-y,1/2+z
x,-y,-z
-x,y,1/2-z
1/2+x,1/2+y,z
1/2-x,1/2-y,1/2+z
1/2+x,1/2-y,-z
1/2-x,1/2+y,1/2-z
loop_
_atom_site_type_symbol
_atom_site_label
_atom_site_fract_x
_atom_site_fract_y
_atom_site_fract_z
Si Si1 0.908834 0.038991 0.156111
Si Si2 0.098858 0.412258 0.597519
Si Si3 0.959133 0.144484 0.029750
Si Si4 0.500000 0.921841 0.250000
Si Si5 0.877542 0.432673 0.375911
Si Si6 0.336962 0.500000 0.500000
Si Si7 0.397016 0.181277 0.503937
Si Si8 0.232673 0.946408 0.784331
O O1 0.940737 0.099005 0.097180
O O2 0.819918 0.085007 0.214935
O O3 0.077546 0.015627 0.183819
O O4 0.801137 0.961137 0.134825
O O5 0.224246 0.462767 0.554331
O O6 0.187094 0.387171 0.662742
O O7 0.966850 0.478706 0.618094
O O8 0.011706 0.343923 0.554187
O O9 0.784397 0.171380 0.012671
O O10 0.045652 0.076637 0.984731
O O11 0.064234 0.226721 0.028427
O O12 0.441487 0.881360 0.315149
O O13 0.644254 0.980902 0.269608
O O14 0.918075 0.384431 0.439441
#
# Coordination Sequence:
#
# PCOD9317374 Si02
#       8
#     8   8   8   4   8   4   8   8
#     4  10  19  37  61  92 120 164 215 265 308 382
#     4  11  20  36  64  93 124 162 210 258 326 380
#     4  12  26  40  60  93 125 173 213 266 326 380
#     4   8  18  34  60  96 120 162 206 260 312 380
#     4  10  19  37  62  90 123 167 206 259 313 383
#     4  12  22  38  64  90 120 160 212 260 318 394
#     4  12  25  40  59  90 135 164 210 270 321 381
#     4   9  19  34  61  93 125 156 217 264 306 378
#
# _framework density 19.417221000000001
#
# number of rings (size 3 to 8) (size 9 to 14) (size 15 to 20)
#    0.000    1.429    4.286    1.714    0.000    0.000 
#    0.000    1.429    0.000    0.000    0.000    4.000 
#    0.000    0.000    0.000    0.000    0.000    0.000 
#
# Total GULP energy -156007.608738 kJ/mol
# GULP energy per Si atom -5571.700312 kJ/mol
# Density = 1.937303 g / cm^3
# Si number density = 19.417221 Si / 1000 Ang^3
#
#
#
# Elastic Constant Matrix: (Units=GPa)
#
#
# Indices 1 2 3 4 5 6 
#
# 1 115.3853 17.4217 13.2570 0.0000 0.0000 0.0000
# 2 17.4217 45.5144 -3.8837 0.0000 0.0000 0.0000
# 3 13.2570 -3.8837 52.3391 0.0000 0.0000 0.0000
# 4 0.0000 0.0000 0.0000 -1.0100 0.0000 0.0000
# 5 0.0000 0.0000 0.0000 0.0000 37.7628 0.0000
# 6 0.0000 0.0000 0.0000 0.0000 0.0000 23.7845
#
#
#
# Elastic Compliance Matrix: (Units=1/GPa)
#
#
# Indices 1 2 3 4 5 6 
#
# 1 0.009566 -0.003893 -0.002712 0.000000 0.000000 0.000000
# 2 -0.003893 0.023695 0.002744 0.000000 0.000000 0.000000
# 3 -0.002712 0.002744 0.019997 0.000000 0.000000 0.000000
# 4 0.000000 0.000000 0.000000 -0.990065 0.000000 0.000000
# 5 0.000000 0.000000 0.000000 0.000000 0.026481 0.000000
# 6 0.000000 0.000000 0.000000 0.000000 0.000000 0.042044
#
#
# Mechanical properties :
#
#
# Convention : Reuss Voigt Hill
#
# Bulk Modulus (GPa) = 21.96017 29.64764 25.80391
# Shear Modulus (GPa) = -5.91449 24.53705 9.31128
#
# Velocity S-wave (km/s) = -1.74717 3.55868 2.19221
# Velocity P-wave (km/s) = 2.69519 5.67340 4.44137
#
# Compressibility (1/GPa) = 0.04553699
#
# Stress axis : x y z
#
# Youngs Moduli (GPa) = 104.53718 42.20238 50.00827
#
# Poissons Ratio (x) = 0.16429 0.13561
# Poissons Ratio (y) = 0.40696 -0.13724
# Poissons Ratio (z) = 0.28349 -0.11582
#
# Static dielectric constant tensor:
#      x y z
#    x 1.729590 0.000000 0.000000 
#    y 0.000000 1.624390 0.000000 
#    z 0.000000 0.000000 1.761880 
# 
# From -- ./inp_files/26765.got.cif
#   From: 2010.05.17/outbox.cif.g08.bks.cpg/sg20_14_cif.got.tgz:26765.got - 2010.06.03 22:52:26.
