data_PCOD9317067
_publ_section_title
;
Structure prediction by ZEFSAII (Michael W. Deem and Ramdas Pophale) SiO2 
 PCOD9317067
Probable space group: C 2 2 21
;
_chemical_formula_sum "Si O2"
_cell_formula_units_Z 48
_cell_length_a 32.368938
_cell_length_b 5.205145
_cell_length_c 14.659164
_cell_angle_alpha 90.000000
_cell_angle_beta 90.000000
_cell_angle_gamma 90.000000
_cell_volume 2469.849478
_symmetry_space_group_name_H-M "C 2 2 21"
_symmetry_group_IT_number 20
_symmetry_cell_setting 'orthorhombic'
loop_
_space_group_symop_operation_xyz
x,y,z
-x,-y,1/2+z
x,-y,-z
-x,y,1/2-z
1/2+x,1/2+y,z
1/2-x,1/2-y,1/2+z
1/2+x,1/2-y,-z
1/2-x,1/2+y,1/2-z
loop_
_atom_site_type_symbol
_atom_site_label
_atom_site_fract_x
_atom_site_fract_y
_atom_site_fract_z
Si Si1 0.829584 0.758722 0.059183
Si Si2 0.452514 0.108990 0.775046
Si Si3 0.602716 0.096663 0.907332
Si Si4 0.776336 0.181839 0.758152
Si Si5 0.910649 0.892315 0.164344
Si Si6 0.144392 0.902879 0.151467
O O1 0.802333 0.745672 0.151062
O O2 0.876928 0.820790 0.088441
O O3 0.827596 0.500000 0.000000
O O4 0.814724 0.000000 0.000000
O O5 0.500000 0.149091 0.750000
O O6 0.427792 0.105248 0.678882
O O7 0.433967 0.336008 0.837911
O O8 0.443099 0.837294 0.822445
O O9 0.626356 0.366581 0.908427
O O10 0.636240 0.874849 0.890236
O O11 0.581121 0.000000 0.000000
O O12 0.754175 0.442412 0.725411
O O13 0.808648 0.077572 0.682924
O O14 0.883049 0.908579 0.256268
#
# Coordination Sequence:
#
# PCOD9317067 Si02
#       6
#     8   8   8   8   8   8
#     4  11  22  39  61  85 113 150 195 244 286 334
#     4  10  19  34  56  82 112 148 186 229 282 342
#     4  10  19  34  54  78 107 143 187 231 269 316
#     4  11  22  39  60  83 114 150 185 228 289 352
#     4   9  19  35  56  78 106 146 188 222 271 341
#     4   9  19  35  55  76 102 143 185 216 264 335
#
# _framework density 19.434383
#
# number of rings (size 3 to 8) (size 9 to 14) (size 15 to 20)
#    0.000    2.000    0.000    4.000    0.000    5.333 
#    0.000   10.833    0.000    2.000    0.000    0.000 
#    0.000    0.000    0.000    0.000    0.000    0.000 
#
# Total GULP energy -133879.040888 kJ/mol
# GULP energy per Si atom -5578.293370 kJ/mol
# Density = 1.939015 g / cm^3
# Si number density = 19.434383 Si / 1000 Ang^3
#
#
#
# Elastic Constant Matrix: (Units=GPa)
#
#
# Indices 1 2 3 4 5 6 
#
# 1 83.7667 37.7761 18.7484 0.0000 0.0000 0.0000
# 2 37.7761 149.8224 38.4289 0.0000 0.0000 0.0000
# 3 18.7484 38.4289 65.6199 0.0000 0.0000 0.0000
# 4 0.0000 0.0000 0.0000 32.1324 0.0000 0.0000
# 5 0.0000 0.0000 0.0000 0.0000 13.6135 0.0000
# 6 0.0000 0.0000 0.0000 0.0000 0.0000 14.2128
#
#
#
# Elastic Compliance Matrix: (Units=1/GPa)
#
#
# Indices 1 2 3 4 5 6 
#
# 1 0.013742 -0.002892 -0.002232 0.000000 0.000000 0.000000
# 2 -0.002892 0.008463 -0.004130 0.000000 0.000000 0.000000
# 3 -0.002232 -0.004130 0.018296 0.000000 0.000000 0.000000
# 4 0.000000 0.000000 0.000000 0.031121 0.000000 0.000000
# 5 0.000000 0.000000 0.000000 0.000000 0.073457 0.000000
# 6 0.000000 0.000000 0.000000 0.000000 0.000000 0.070359
#
#
# Mechanical properties :
#
#
# Convention : Reuss Voigt Hill
#
# Bulk Modulus (GPa) = 45.47202 54.34620 49.90911
# Shear Modulus (GPa) = 20.72303 25.60876 23.16590
#
# Velocity S-wave (km/s) = 3.26898 3.63396 3.45629
# Velocity P-wave (km/s) = 6.13977 6.75516 6.45480
#
# Compressibility (1/GPa) = 0.02199154
#
# Stress axis : x y z
#
# Youngs Moduli (GPa) = 72.77018 118.15956 54.65765
#
# Poissons Ratio (x) = 0.34175 0.12202
# Poissons Ratio (y) = 0.21047 0.22573
# Poissons Ratio (z) = 0.16245 0.48799
#
# Static dielectric constant tensor:
#      x y z
#    x 1.653060 0.000000 0.000000 
#    y 0.000000 1.662160 0.000000 
#    z 0.000000 0.000000 1.732300 
# 
# From -- ./inp_files/17778.got.cif
#   From: 2010.05.17/outbox.cif.g08.bks.cpg/sg20_9_cif.got.tgz:17778.got - 2010.06.03 22:52:26.
