data_PCOD9317812
_publ_section_title
;
Structure prediction by ZEFSAII (Michael W. Deem and Ramdas Pophale) SiO2 
 PCOD9317812
Probable space group: C 2 2 21
;
_chemical_formula_sum "Si O2"
_cell_formula_units_Z 28
_cell_length_a 11.951047
_cell_length_b 24.087097
_cell_length_c 5.230221
_cell_angle_alpha 90.000000
_cell_angle_beta 90.000000
_cell_angle_gamma 90.000000
_cell_volume 1505.602947
_symmetry_space_group_name_H-M "C 2 2 21"
_symmetry_group_IT_number 20
_symmetry_cell_setting 'orthorhombic'
loop_
_space_group_symop_operation_xyz
x,y,z
-x,-y,1/2+z
x,-y,-z
-x,y,1/2-z
1/2+x,1/2+y,z
1/2-x,1/2-y,1/2+z
1/2+x,1/2-y,-z
1/2-x,1/2+y,1/2-z
loop_
_atom_site_type_symbol
_atom_site_label
_atom_site_fract_x
_atom_site_fract_y
_atom_site_fract_z
Si Si1 0.629637 0.821174 0.744401
Si Si2 0.343262 0.632689 0.085191
Si Si3 0.000000 0.964945 0.750000
Si Si4 0.326263 0.302985 0.421926
O O1 0.500000 0.834348 0.750000
O O2 0.291506 0.866469 0.618674
O O3 0.351655 0.761038 0.624699
O O4 0.307258 0.812150 0.028429
O O5 0.402107 0.575102 0.144290
O O6 0.376847 0.674568 0.314361
O O7 0.367169 0.659835 0.812678
O O8 0.963983 0.000000 0.500000
#
# Coordination Sequence:
#
# PCOD9317812 Si02
#       4
#     8   8   4   8
#     4  10  21  35  59  90 132 167 210 235 308 395
#     4  10  22  39  57  86 124 156 208 263 316 360
#     4  12  26  44  70  88 114 168 224 286 324 362
#     4  10  20  36  53  93 126 169 192 247 298 388
#
# _framework density 18.597200000000001
#
# number of rings (size 3 to 8) (size 9 to 14) (size 15 to 20)
#    1.714    0.000    2.857    1.714    4.000    1.143 
#    0.000    0.000    0.000    1.714    0.000    0.000 
#    0.000    0.000    0.000    0.000    0.000    0.000 
#
# Total GULP energy -77963.693037 kJ/mol
# GULP energy per Si atom -5568.835217 kJ/mol
# Density = 1.855487 g / cm^3
# Si number density = 18.597200 Si / 1000 Ang^3
#
#
#
# Elastic Constant Matrix: (Units=GPa)
#
#
# Indices 1 2 3 4 5 6 
#
# 1 144.4591 30.0445 15.0290 0.0000 0.0000 0.0000
# 2 30.0445 56.9580 8.0870 0.0000 0.0000 0.0000
# 3 15.0290 8.0870 101.2386 0.0000 0.0000 0.0000
# 4 0.0000 0.0000 0.0000 -3.7155 0.0000 0.0000
# 5 0.0000 0.0000 0.0000 0.0000 10.9477 0.0000
# 6 0.0000 0.0000 0.0000 0.0000 0.0000 14.3803
#
#
#
# Elastic Compliance Matrix: (Units=1/GPa)
#
#
# Indices 1 2 3 4 5 6 
#
# 1 0.007846 -0.004019 -0.000844 0.000000 0.000000 0.000000
# 2 -0.004019 0.019817 -0.000986 0.000000 0.000000 0.000000
# 3 -0.000844 -0.000986 0.010082 0.000000 0.000000 0.000000
# 4 0.000000 0.000000 0.000000 -0.269144 0.000000 0.000000
# 5 0.000000 0.000000 0.000000 0.000000 0.091344 0.000000
# 6 0.000000 0.000000 0.000000 0.000000 0.000000 0.069540
#
#
# Mechanical properties :
#
#
# Convention : Reuss Voigt Hill
#
# Bulk Modulus (GPa) = 38.39282 45.44186 41.91734
# Shear Modulus (GPa) = -99.72909 20.95550 -39.38679
#
# Velocity S-wave (km/s) = -7.33091 3.36044 -4.60704
# Velocity P-wave (km/s) = 7.13913 6.28845 2.38983
#
# Compressibility (1/GPa) = 0.02604654
#
# Stress axis : x y z
#
# Youngs Moduli (GPa) = 127.45364 50.46246 99.18962
#
# Poissons Ratio (x) = 0.20280 0.08369
# Poissons Ratio (y) = 0.51222 0.09784
# Poissons Ratio (z) = 0.10754 0.04977
#
# Static dielectric constant tensor:
#      x y z
#    x 1.814470 0.000000 0.000000 
#    y 0.000000 1.604580 0.000000 
#    z 0.000000 0.000000 1.689830 
# 
# From -- ./inp_files/1301.got.cif
#   From: 2010.05.17/outbox.cif.g08.bks.cpg/sg20_1_cif.got.tgz:1301.got - 2010.06.03 22:52:26.
