data_PCOD9317448
_publ_section_title
;
Structure prediction by ZEFSAII (Michael W. Deem and Ramdas Pophale) SiO2 
 PCOD9317448
Probable space group: C 2 2 21
;
_chemical_formula_sum "Si O2"
_cell_formula_units_Z 40
_cell_length_a 21.815953
_cell_length_b 14.634091
_cell_length_c 5.901723
_cell_angle_alpha 90.000000
_cell_angle_beta 90.000000
_cell_angle_gamma 90.000000
_cell_volume 1884.164264
_symmetry_space_group_name_H-M "C 2 2 21"
_symmetry_group_IT_number 20
_symmetry_cell_setting 'orthorhombic'
loop_
_space_group_symop_operation_xyz
x,y,z
-x,-y,1/2+z
x,-y,-z
-x,y,1/2-z
1/2+x,1/2+y,z
1/2-x,1/2-y,1/2+z
1/2+x,1/2-y,-z
1/2-x,1/2+y,1/2-z
loop_
_atom_site_type_symbol
_atom_site_label
_atom_site_fract_x
_atom_site_fract_y
_atom_site_fract_z
Si Si1 0.849835 0.000000 0.000000
Si Si2 0.439803 0.195953 0.404754
Si Si3 0.675373 0.794565 0.575792
Si Si4 0.779988 0.872499 0.344095
Si Si5 0.383990 0.663448 0.288690
Si Si6 0.969372 0.500000 0.500000
O O1 0.804084 0.948820 0.173051
O O2 0.891526 0.074760 0.129709
O O3 0.500000 0.206009 0.250000
O O4 0.379269 0.187750 0.249706
O O5 0.435577 0.284277 0.567516
O O6 0.439480 0.099490 0.535159
O O7 0.715604 0.876747 0.474967
O O8 0.720226 0.722619 0.702604
O O9 0.644051 0.740848 0.371423
O O10 0.832899 0.865453 0.530270
O O11 0.000000 0.486491 0.750000
#
# Coordination Sequence:
#
# PCOD9317448 Si02
#       6
#     4   8   8   8   8   4
#     4  10  22  36  65 102 134 184 221 288 362 444
#     4  10  24  42  71 102 132 185 233 293 358 431
#     4  10  20  37  68  96 129 173 227 281 346 424
#     4  10  19  38  63  98 133 173 221 284 349 428
#     4  10  21  39  66  97 134 179 228 284 357 428
#     4  10  24  46  75 102 148 184 239 306 360 428
#
# _framework density 21.229571
#
# number of rings (size 3 to 8) (size 9 to 14) (size 15 to 20)
#    0.000    2.000    2.000    0.600    5.600    0.000 
#    0.000    6.000    0.000    0.000  187.200    0.000 
#    0.000    0.000    0.000    0.000    0.000    0.000 
#
# Total GULP energy -111468.512891 kJ/mol
# GULP energy per Si atom -5573.425645 kJ/mol
# Density = 2.118125 g / cm^3
# Si number density = 21.229571 Si / 1000 Ang^3
#
#
#
# Elastic Constant Matrix: (Units=GPa)
#
#
# Indices 1 2 3 4 5 6 
#
# 1 62.1719 47.3184 21.6392 0.0000 0.0000 0.0000
# 2 47.3184 137.0343 56.8014 0.0000 0.0000 0.0000
# 3 21.6392 56.8014 104.7759 0.0000 0.0000 0.0000
# 4 0.0000 0.0000 0.0000 43.6308 0.0000 0.0000
# 5 0.0000 0.0000 0.0000 0.0000 26.1608 0.0000
# 6 0.0000 0.0000 0.0000 0.0000 0.0000 21.7868
#
#
#
# Elastic Compliance Matrix: (Units=1/GPa)
#
#
# Indices 1 2 3 4 5 6 
#
# 1 0.021843 -0.007317 -0.000545 0.000000 0.000000 0.000000
# 2 -0.007317 0.011863 -0.004920 0.000000 0.000000 0.000000
# 3 -0.000545 -0.004920 0.012324 0.000000 0.000000 0.000000
# 4 0.000000 0.000000 0.000000 0.022920 0.000000 0.000000
# 5 0.000000 0.000000 0.000000 0.000000 0.038225 0.000000
# 6 0.000000 0.000000 0.000000 0.000000 0.000000 0.045899
#
#
# Mechanical properties :
#
#
# Convention : Reuss Voigt Hill
#
# Bulk Modulus (GPa) = 48.85920 61.72225 55.29073
# Shear Modulus (GPa) = 26.96005 30.19721 28.57863
#
# Velocity S-wave (km/s) = 3.56747 3.77558 3.67300
# Velocity P-wave (km/s) = 6.32723 6.93855 6.63993
#
# Compressibility (1/GPa) = 0.02046697
#
# Stress axis : x y z
#
# Youngs Moduli (GPa) = 45.78217 84.29303 81.14197
#
# Poissons Ratio (x) = 0.61674 0.04419
# Poissons Ratio (y) = 0.33497 0.39925
# Poissons Ratio (z) = 0.02493 0.41475
#
# Static dielectric constant tensor:
#      x y z
#    x 1.764150 0.000000 0.000000 
#    y 0.000000 1.791650 0.000000 
#    z 0.000000 0.000000 1.717900 
# 
# From -- ./inp_files/3669.got.cif
#   From: 2010.05.17/outbox.cif.g08.bks.cpg/sg20_2_cif.got.tgz:3669.got - 2010.06.03 22:52:26.
