data_PCOD9317347
_publ_section_title
;
Structure prediction by ZEFSAII (Michael W. Deem and Ramdas Pophale) SiO2 
 PCOD9317347
Probable space group: C 2 2 21
;
_chemical_formula_sum "Si O2"
_cell_formula_units_Z 40
_cell_length_a 29.526590
_cell_length_b 9.942255
_cell_length_c 7.298980
_cell_angle_alpha 90.000000
_cell_angle_beta 90.000000
_cell_angle_gamma 90.000000
_cell_volume 2142.695043
_symmetry_space_group_name_H-M "C 2 2 21"
_symmetry_group_IT_number 20
_symmetry_cell_setting 'orthorhombic'
loop_
_space_group_symop_operation_xyz
x,y,z
-x,-y,1/2+z
x,-y,-z
-x,y,1/2-z
1/2+x,1/2+y,z
1/2-x,1/2-y,1/2+z
1/2+x,1/2-y,-z
1/2-x,1/2+y,1/2-z
loop_
_atom_site_type_symbol
_atom_site_label
_atom_site_fract_x
_atom_site_fract_y
_atom_site_fract_z
Si Si1 0.747056 0.500000 0.000000
Si Si2 0.675415 0.787279 0.464747
Si Si3 0.334176 0.431711 0.257117
Si Si4 0.453388 0.108686 0.660812
Si Si5 0.369959 0.698599 0.386171
Si Si6 0.601298 0.000000 0.500000
O O1 0.778876 0.369114 0.998797
O O2 0.713490 0.492597 0.173265
O O3 0.672617 0.645258 0.567869
O O4 0.663969 0.778354 0.249089
O O5 0.634171 0.875852 0.542217
O O6 0.370555 0.551745 0.286403
O O7 0.348706 0.324756 0.414491
O O8 0.500000 0.161258 0.750000
O O9 0.417821 0.225270 0.604243
O O10 0.461661 0.000000 0.500000
O O11 0.428591 0.031437 0.825299
#
# Coordination Sequence:
#
# PCOD9317347 Si02
#       6
#     4   8   8   8   8   4
#     4   9  22  32  54  90 106 144 200 230 268 341
#     4  10  19  37  57  78 116 147 186 234 278 332
#     4  10  21  38  56  78 115 153 186 231 279 335
#     4  11  20  35  61  86 113 140 182 239 282 335
#     4   9  21  37  56  79 112 150 184 226 284 344
#     4   9  20  36  56  88 108 144 190 226 288 335
#
# _framework density 18.66808
#
# number of rings (size 3 to 8) (size 9 to 14) (size 15 to 20)
#    0.000    2.400    1.000    1.800    5.600    0.000 
#    0.000    0.000   17.600    0.000    0.000    0.000 
#    0.000    0.000    0.000    0.000    0.000    0.000 
#
# Total GULP energy -111445.915416 kJ/mol
# GULP energy per Si atom -5572.295771 kJ/mol
# Density = 1.862559 g / cm^3
# Si number density = 18.668080 Si / 1000 Ang^3
#
#
#
# Elastic Constant Matrix: (Units=GPa)
#
#
# Indices 1 2 3 4 5 6 
#
# 1 108.2496 34.4530 28.5358 0.0000 0.0000 0.0000
# 2 34.4530 73.0664 11.9678 0.0000 0.0000 0.0000
# 3 28.5358 11.9678 52.1322 0.0000 0.0000 0.0000
# 4 0.0000 0.0000 0.0000 26.2652 0.0000 0.0000
# 5 0.0000 0.0000 0.0000 0.0000 8.7541 0.0000
# 6 0.0000 0.0000 0.0000 0.0000 0.0000 11.4596
#
#
#
# Elastic Compliance Matrix: (Units=1/GPa)
#
#
# Indices 1 2 3 4 5 6 
#
# 1 0.012261 -0.004865 -0.005595 0.000000 0.000000 0.000000
# 2 -0.004865 0.016151 -0.001045 0.000000 0.000000 0.000000
# 3 -0.005595 -0.001045 0.022484 0.000000 0.000000 0.000000
# 4 0.000000 0.000000 0.000000 0.038073 0.000000 0.000000
# 5 0.000000 0.000000 0.000000 0.000000 0.114232 0.000000
# 6 0.000000 0.000000 0.000000 0.000000 0.000000 0.087263
#
#
# Mechanical properties :
#
#
# Convention : Reuss Voigt Hill
#
# Bulk Modulus (GPa) = 35.85805 42.59573 39.22689
# Shear Modulus (GPa) = 15.49092 19.86188 17.67640
#
# Velocity S-wave (km/s) = 2.88376 3.26536 3.08048
# Velocity P-wave (km/s) = 5.50800 6.08964 5.80611
#
# Compressibility (1/GPa) = 0.02788774
#
# Stress axis : x y z
#
# Youngs Moduli (GPa) = 81.55840 61.91425 44.47576
#
# Poissons Ratio (x) = 0.30122 0.24882
# Poissons Ratio (y) = 0.39679 0.04647
# Poissons Ratio (z) = 0.45628 0.06469
#
# Static dielectric constant tensor:
#      x y z
#    x 1.628510 0.000000 0.000000 
#    y 0.000000 1.715360 0.000000 
#    z 0.000000 0.000000 1.649070 
# 
# From -- ./inp_files/10994.got.cif
#   From: 2010.05.17/outbox.cif.g08.bks.cpg/sg20_6_cif.got.tgz:10994.got - 2010.06.03 22:52:26.
