data_PCOD9317340
_publ_section_title
;
Structure prediction by ZEFSAII (Michael W. Deem and Ramdas Pophale) SiO2 
 PCOD9317340
Probable space group: C 2 2 21
;
_chemical_formula_sum "Si O2"
_cell_formula_units_Z 32
_cell_length_a 5.212063
_cell_length_b 18.688054
_cell_length_c 14.526418
_cell_angle_alpha 90.000000
_cell_angle_beta 90.000000
_cell_angle_gamma 90.000000
_cell_volume 1414.921265
_symmetry_space_group_name_H-M "C 2 2 21"
_symmetry_group_IT_number 20
_symmetry_cell_setting 'orthorhombic'
loop_
_space_group_symop_operation_xyz
x,y,z
-x,-y,1/2+z
x,-y,-z
-x,y,1/2-z
1/2+x,1/2+y,z
1/2-x,1/2-y,1/2+z
1/2+x,1/2-y,-z
1/2-x,1/2+y,1/2-z
loop_
_atom_site_type_symbol
_atom_site_label
_atom_site_fract_x
_atom_site_fract_y
_atom_site_fract_z
Si Si1 0.484058 0.060360 0.919799
Si Si2 0.758164 0.859027 0.806445
Si Si3 0.481076 0.494873 0.110697
Si Si4 0.997043 0.709335 0.019416
O O1 0.255920 0.031952 0.856336
O O2 0.758580 0.061945 0.871878
O O3 0.429655 0.135376 0.967833
O O4 0.518816 0.000000 0.000000
O O5 0.500000 0.878416 0.750000
O O6 0.643523 0.809394 0.886087
O O7 0.000000 0.827126 0.750000
O O8 0.885644 0.929801 0.851236
O O9 0.518679 0.500000 0.000000
O O10 0.224918 0.751448 0.966446
#
# Coordination Sequence:
#
# PCOD9317340 Si02
#       4
#     8   8   8   8
#     4  10  19  36  67  95 134 161 239 281 318 397
#     4  12  25  42  68 108 146 179 231 302 358 408
#     4  10  19  36  67  95 135 168 227 279 331 405
#     4  12  25  42  68 108 135 192 243 280 343 433
#
# _framework density 22.616102000000001
#
# number of rings (size 3 to 8) (size 9 to 14) (size 15 to 20)
#    0.000    1.000    5.000    4.500    7.000    0.000 
#    0.000    0.000    0.000   22.500    0.000    0.000 
#    0.000    0.000    0.000    0.000    0.000    0.000 
#
# Total GULP energy -89322.087435 kJ/mol
# GULP energy per Si atom -5582.630465 kJ/mol
# Density = 2.256463 g / cm^3
# Si number density = 22.616102 Si / 1000 Ang^3
#
#
#
# Elastic Constant Matrix: (Units=GPa)
#
#
# Indices 1 2 3 4 5 6 
#
# 1 146.6505 4.4040 3.0414 0.0000 0.0000 0.0000
# 2 4.4040 80.0393 0.9133 0.0000 0.0000 0.0000
# 3 3.0414 0.9133 60.8536 0.0000 0.0000 0.0000
# 4 0.0000 0.0000 0.0000 15.8814 0.0000 0.0000
# 5 0.0000 0.0000 0.0000 0.0000 20.5872 0.0000
# 6 0.0000 0.0000 0.0000 0.0000 0.0000 7.8126
#
#
#
# Elastic Compliance Matrix: (Units=1/GPa)
#
#
# Indices 1 2 3 4 5 6 
#
# 1 0.006837 -0.000372 -0.000336 0.000000 0.000000 0.000000
# 2 -0.000372 0.012516 -0.000169 0.000000 0.000000 0.000000
# 3 -0.000336 -0.000169 0.016452 0.000000 0.000000 0.000000
# 4 0.000000 0.000000 0.000000 0.062967 0.000000 0.000000
# 5 0.000000 0.000000 0.000000 0.000000 0.048574 0.000000
# 6 0.000000 0.000000 0.000000 0.000000 0.000000 0.127998
#
#
# Mechanical properties :
#
#
# Convention : Reuss Voigt Hill
#
# Bulk Modulus (GPa) = 29.36842 33.80674 31.58758
# Shear Modulus (GPa) = 17.33407 27.46856 22.40131
#
# Velocity S-wave (km/s) = 2.77148 3.48883 3.15064
# Velocity P-wave (km/s) = 4.82238 5.58657 5.21848
#
# Compressibility (1/GPa) = 0.03405018
#
# Stress axis : x y z
#
# Youngs Moduli (GPa) = 146.26110 79.89595 60.78202
#
# Poissons Ratio (x) = 0.02975 0.02043
# Poissons Ratio (y) = 0.05446 0.01029
# Poissons Ratio (z) = 0.04916 0.01352
#
# Static dielectric constant tensor:
#      x y z
#    x 1.957130 0.000000 0.000000 
#    y 0.000000 1.866910 0.000000 
#    z 0.000000 0.000000 1.760700 
# 
# From -- ./inp_files/17444.got.cif
#   From: 2010.05.17/outbox.cif.g08.bks.cpg/sg20_9_cif.got.tgz:17444.got - 2010.06.03 22:52:26.
