data_PCOD9317008
_publ_section_title
;
Structure prediction by ZEFSAII (Michael W. Deem and Ramdas Pophale) SiO2 
 PCOD9317008
Probable space group: C 2 2 21
;
_chemical_formula_sum "Si O2"
_cell_formula_units_Z 40
_cell_length_a 5.093733
_cell_length_b 25.518207
_cell_length_c 16.215974
_cell_angle_alpha 90.000000
_cell_angle_beta 90.000000
_cell_angle_gamma 90.000000
_cell_volume 2107.799864
_symmetry_space_group_name_H-M "C 2 2 21"
_symmetry_group_IT_number 20
_symmetry_cell_setting 'orthorhombic'
loop_
_space_group_symop_operation_xyz
x,y,z
-x,-y,1/2+z
x,-y,-z
-x,y,1/2-z
1/2+x,1/2+y,z
1/2-x,1/2-y,1/2+z
1/2+x,1/2-y,-z
1/2-x,1/2+y,1/2-z
loop_
_atom_site_type_symbol
_atom_site_label
_atom_site_fract_x
_atom_site_fract_y
_atom_site_fract_z
Si Si1 0.250007 0.902119 0.690126
Si Si2 0.249041 0.787976 0.689822
Si Si3 0.616632 0.005635 0.905694
Si Si4 0.889420 0.062785 0.656372
Si Si5 0.250434 0.674879 0.689815
O O1 0.500000 0.902478 0.750000
O O2 0.241349 0.844696 0.646885
O O3 0.000000 0.908189 0.750000
O O4 0.280865 0.950512 0.629353
O O5 0.500000 0.788314 0.750000
O O6 0.239464 0.731514 0.645110
O O7 0.000000 0.787425 0.750000
O O8 0.364270 0.026103 0.855173
O O9 0.863744 0.044842 0.897815
O O10 0.533996 0.000000 0.000000
O O11 0.792439 0.121994 0.638724
O O12 0.000000 0.060191 0.750000
O O13 0.500000 0.677648 0.750000
O O14 0.000000 0.668385 0.750000
#
# Coordination Sequence:
#
# PCOD9317008 Si02
#       5
#     8   8   8   8   8
#     4  10  19  33  54  75  99 134 175 212 249 306
#     4   8  15  27  46  74 100 123 159 211 259 294
#     4  12  24  36  51  76 111 142 173 218 269 312
#     4  11  21  36  57  78 101 136 178 217 258 315
#     4   9  16  28  49  77 102 123 160 216 262 297
#
# _framework density 18.977134
#
# number of rings (size 3 to 8) (size 9 to 14) (size 15 to 20)
#    0.000    2.000    0.000    6.600    0.000    0.000 
#    0.000    0.000    0.000    2.400    0.000    0.000 
#    0.000    0.000    0.000    0.000    0.000    0.000 
#
# Total GULP energy -111451.617528 kJ/mol
# GULP energy per Si atom -5572.580876 kJ/mol
# Density = 1.893394 g / cm^3
# Si number density = 18.977134 Si / 1000 Ang^3
#
#
#
# Elastic Constant Matrix: (Units=GPa)
#
#
# Indices 1 2 3 4 5 6 
#
# 1 141.7242 31.9682 8.4794 0.0000 0.0000 0.0000
# 2 31.9682 186.6268 40.7309 0.0000 0.0000 0.0000
# 3 8.4794 40.7309 33.0360 0.0000 0.0000 0.0000
# 4 0.0000 0.0000 0.0000 -3.4565 0.0000 0.0000
# 5 0.0000 0.0000 0.0000 0.0000 14.6850 0.0000
# 6 0.0000 0.0000 0.0000 0.0000 0.0000 16.3249
#
#
#
# Elastic Compliance Matrix: (Units=1/GPa)
#
#
# Indices 1 2 3 4 5 6 
#
# 1 0.007345 -0.001158 -0.000457 0.000000 0.000000 0.000000
# 2 -0.001158 0.007514 -0.008966 0.000000 0.000000 0.000000
# 3 -0.000457 -0.008966 0.041442 0.000000 0.000000 0.000000
# 4 0.000000 0.000000 0.000000 -0.289309 0.000000 0.000000
# 5 0.000000 0.000000 0.000000 0.000000 0.068097 0.000000
# 6 0.000000 0.000000 0.000000 0.000000 0.000000 0.061256
#
#
# Mechanical properties :
#
#
# Convention : Reuss Voigt Hill
#
# Bulk Modulus (GPa) = 28.46012 58.19378 43.32695
# Shear Modulus (GPa) = -70.64122 24.19125 -23.22499
#
# Velocity S-wave (km/s) = -6.10780 3.57425 -3.50214
# Velocity P-wave (km/s) = 5.89157 6.91126 2.55488
#
# Compressibility (1/GPa) = 0.03513689
#
# Stress axis : x y z
#
# Youngs Moduli (GPa) = 136.15475 133.09197 24.13004
#
# Poissons Ratio (x) = 0.15417 0.01103
# Poissons Ratio (y) = 0.15772 0.21636
# Poissons Ratio (z) = 0.06222 1.19335
#
# Static dielectric constant tensor:
#      x y z
#    x 1.638290 0.000000 0.000000 
#    y 0.000000 1.786540 0.000000 
#    z 0.000000 0.000000 1.601730 
# 
# From -- ./inp_files/17623.got.cif
#   From: 2010.05.17/outbox.cif.g08.bks.cpg/sg20_9_cif.got.tgz:17623.got - 2010.06.03 22:52:26.
