data_PCOD9317168
_publ_section_title
;
Structure prediction by ZEFSAII (Michael W. Deem and Ramdas Pophale) SiO2 
 PCOD9317168
Probable space group: C 2 2 21
;
_chemical_formula_sum "Si O2"
_cell_formula_units_Z 64
_cell_length_a 9.983270
_cell_length_b 30.408061
_cell_length_c 9.725243
_cell_angle_alpha 90.000000
_cell_angle_beta 90.000000
_cell_angle_gamma 90.000000
_cell_volume 2952.310331
_symmetry_space_group_name_H-M "C 2 2 21"
_symmetry_group_IT_number 20
_symmetry_cell_setting 'orthorhombic'
loop_
_space_group_symop_operation_xyz
x,y,z
-x,-y,1/2+z
x,-y,-z
-x,y,1/2-z
1/2+x,1/2+y,z
1/2-x,1/2-y,1/2+z
1/2+x,1/2-y,-z
1/2-x,1/2+y,1/2-z
loop_
_atom_site_type_symbol
_atom_site_label
_atom_site_fract_x
_atom_site_fract_y
_atom_site_fract_z
Si Si1 0.149607 0.440559 0.793177
Si Si2 0.485074 0.648655 0.081362
Si Si3 0.143629 0.288024 0.787158
Si Si4 0.964949 0.662880 0.541431
Si Si5 0.755538 0.400586 0.433599
Si Si6 0.220779 0.363011 0.583745
Si Si7 0.633810 0.486620 0.339030
Si Si8 0.584408 0.257148 0.616597
O O1 0.152871 0.424574 0.951380
O O2 0.197479 0.400673 0.695988
O O3 0.255391 0.479690 0.783382
O O4 0.000000 0.452882 0.750000
O O5 0.500000 0.643633 0.250000
O O6 0.368800 0.618645 0.020661
O O7 0.630621 0.635859 0.025876
O O8 0.444124 0.698180 0.033331
O O9 0.204784 0.315000 0.659073
O O10 0.257531 0.256968 0.849795
O O11 0.000000 0.267244 0.750000
O O12 0.106149 0.326198 0.895641
O O13 0.850039 0.638173 0.626325
O O14 0.097775 0.634595 0.520524
O O15 0.020102 0.710966 0.578699
O O16 0.695847 0.437692 0.336079
O O17 0.609271 0.500000 0.500000
O O18 0.500000 0.489674 0.250000
O O19 0.500000 0.268568 0.750000
#
# Coordination Sequence:
#
# PCOD9317168 Si02
#       8
#     8   8   8   8   8   8   8   8
#     4  11  19  38  68 100 125 161 222 286 345 411
#     4  11  19  33  61  92 126 172 218 279 326 401
#     4  10  19  35  56  85 117 163 214 277 321 385
#     4  11  22  35  62  89 126 169 210 277 333 402
#     4  11  21  41  64  94 136 171 217 276 351 414
#     4  11  19  34  61  94 124 158 229 269 335 398
#     4  10  26  45  73 107 139 176 225 288 361 431
#     4  11  22  37  53  86 125 169 230 268 329 386
#
# _framework density 21.67794
#
# number of rings (size 3 to 8) (size 9 to 14) (size 15 to 20)
#    0.000    1.250    7.500    0.375    5.250    0.000 
#    0.000    5.000    0.000    0.000    0.000    0.000 
#    0.000    0.000    0.000    0.000    0.000    0.000 
#
# Total GULP energy -178561.692912 kJ/mol
# GULP energy per Si atom -5580.052903 kJ/mol
# Density = 2.162860 g / cm^3
# Si number density = 21.677940 Si / 1000 Ang^3
#
#
#
# Elastic Constant Matrix: (Units=GPa)
#
#
# Indices 1 2 3 4 5 6 
#
# 1 196.3278 57.8175 25.1429 0.0000 0.0000 0.0000
# 2 57.8175 108.6637 13.9825 0.0000 0.0000 0.0000
# 3 25.1429 13.9825 20.0628 0.0000 0.0000 0.0000
# 4 0.0000 0.0000 0.0000 21.9429 0.0000 0.0000
# 5 0.0000 0.0000 0.0000 0.0000 17.8903 0.0000
# 6 0.0000 0.0000 0.0000 0.0000 0.0000 35.6714
#
#
#
# Elastic Compliance Matrix: (Units=1/GPa)
#
#
# Indices 1 2 3 4 5 6 
#
# 1 0.006738 -0.002745 -0.006532 0.000000 0.000000 0.000000
# 2 -0.002745 0.011227 -0.004385 0.000000 0.000000 0.000000
# 3 -0.006532 -0.004385 0.061085 0.000000 0.000000 0.000000
# 4 0.000000 0.000000 0.000000 0.045573 0.000000 0.000000
# 5 0.000000 0.000000 0.000000 0.000000 0.055896 0.000000
# 6 0.000000 0.000000 0.000000 0.000000 0.000000 0.028034
#
#
# Mechanical properties :
#
#
# Convention : Reuss Voigt Hill
#
# Bulk Modulus (GPa) = 19.33187 57.66000 38.49594
# Shear Modulus (GPa) = 19.75357 30.30835 25.03096
#
# Velocity S-wave (km/s) = 3.02193 3.74320 3.40174
# Velocity P-wave (km/s) = 4.59491 6.73337 5.76418
#
# Compressibility (1/GPa) = 0.05172805
#
# Stress axis : x y z
#
# Youngs Moduli (GPa) = 148.40461 89.06763 16.37062
#
# Poissons Ratio (x) = 0.24448 0.10693
# Poissons Ratio (y) = 0.40735 0.07178
# Poissons Ratio (z) = 0.96931 0.39056
#
# Static dielectric constant tensor:
#      x y z
#    x 1.785750 0.000000 0.000000 
#    y 0.000000 1.833620 0.000000 
#    z 0.000000 0.000000 1.866060 
# 
# From -- ./inp_files/13395.got.cif
#   From: 2010.05.17/outbox.cif.g08.bks.cpg/sg20_7_cif.got.tgz:13395.got - 2010.06.03 22:52:26.
