data_PCOD9317928
_publ_section_title
;
Structure prediction by ZEFSAII (Michael W. Deem and Ramdas Pophale) SiO2 
 PCOD9317928
Probable space group: C 2 2 21
;
_chemical_formula_sum "Si O2"
_cell_formula_units_Z 48
_cell_length_a 25.297556
_cell_length_b 6.786258
_cell_length_c 13.708605
_cell_angle_alpha 90.000000
_cell_angle_beta 90.000000
_cell_angle_gamma 90.000000
_cell_volume 2353.434932
_symmetry_space_group_name_H-M "C 2 2 21"
_symmetry_group_IT_number 20
_symmetry_cell_setting 'orthorhombic'
loop_
_space_group_symop_operation_xyz
x,y,z
-x,-y,1/2+z
x,-y,-z
-x,y,1/2-z
1/2+x,1/2+y,z
1/2-x,1/2-y,1/2+z
1/2+x,1/2-y,-z
1/2-x,1/2+y,1/2-z
loop_
_atom_site_type_symbol
_atom_site_label
_atom_site_fract_x
_atom_site_fract_y
_atom_site_fract_z
Si Si1 0.750492 0.547391 0.896529
Si Si2 0.839389 0.641737 0.406250
Si Si3 0.484307 0.467109 0.109740
Si Si4 0.958209 0.582054 0.389174
Si Si5 0.429342 0.317594 0.709223
Si Si6 0.191643 0.716230 0.779663
O O1 0.697249 0.670619 0.918546
O O2 0.787213 0.682214 0.828831
O O3 0.732403 0.350378 0.840056
O O4 0.776272 0.500000 0.000000
O O5 0.838259 0.500000 0.500000
O O6 0.900615 0.685756 0.387115
O O7 0.815570 0.502227 0.322851
O O8 0.495230 0.237293 0.130632
O O9 0.542114 0.566346 0.121719
O O10 0.449917 0.578444 0.191704
O O11 0.464842 0.500000 0.000000
O O12 0.965548 0.500000 0.500000
O O13 0.950327 0.403471 0.313054
O O14 0.366318 0.312138 0.711283
#
# Coordination Sequence:
#
# PCOD9317928 Si02
#       6
#     8   8   8   8   8   8
#     4  12  23  38  67  95 131 175 218 269 321 387
#     4  10  20  36  63 101 124 162 217 272 324 377
#     4  11  22  41  67  96 126 169 221 269 327 392
#     4  10  20  38  67  94 129 163 215 277 327 380
#     4  10  24  41  65  94 132 168 219 266 333 388
#     4  11  23  41  62  95 134 171 217 269 321 390
#
# _framework density 20.395719
#
# number of rings (size 3 to 8) (size 9 to 14) (size 15 to 20)
#    0.000    1.333    5.000    1.000    0.000    4.000 
#    0.000    2.500   14.667    0.000    0.000    0.000 
#    0.000    0.000    0.000    0.000    0.000    0.000 
#
# Total GULP energy -133959.623300 kJ/mol
# GULP energy per Si atom -5581.650971 kJ/mol
# Density = 2.034930 g / cm^3
# Si number density = 20.395719 Si / 1000 Ang^3
#
#
#
# Elastic Constant Matrix: (Units=GPa)
#
#
# Indices 1 2 3 4 5 6 
#
# 1 37.9489 -2.1749 7.7547 0.0000 0.0000 0.0000
# 2 -2.1749 58.7741 4.9680 0.0000 0.0000 0.0000
# 3 7.7547 4.9680 96.6555 0.0000 0.0000 0.0000
# 4 0.0000 0.0000 0.0000 33.8989 0.0000 0.0000
# 5 0.0000 0.0000 0.0000 0.0000 24.5470 0.0000
# 6 0.0000 0.0000 0.0000 0.0000 0.0000 27.4705
#
#
#
# Elastic Compliance Matrix: (Units=1/GPa)
#
#
# Indices 1 2 3 4 5 6 
#
# 1 0.026872 0.001182 -0.002217 0.000000 0.000000 0.000000
# 2 0.001182 0.017141 -0.000976 0.000000 0.000000 0.000000
# 3 -0.002217 -0.000976 0.010574 0.000000 0.000000 0.000000
# 4 0.000000 0.000000 0.000000 0.029499 0.000000 0.000000
# 5 0.000000 0.000000 0.000000 0.000000 0.040738 0.000000
# 6 0.000000 0.000000 0.000000 0.000000 0.000000 0.036403
#
#
# Mechanical properties :
#
#
# Convention : Reuss Voigt Hill
#
# Bulk Modulus (GPa) = 19.77654 23.83045 21.80350
# Shear Modulus (GPa) = 27.45695 29.37200 28.41448
#
# Velocity S-wave (km/s) = 3.67306 3.79899 3.73655
# Velocity P-wave (km/s) = 5.26364 5.56350 5.41565
#
# Compressibility (1/GPa) = 0.05056496
#
# Stress axis : x y z
#
# Youngs Moduli (GPa) = 37.21358 58.34134 94.57140
#
# Poissons Ratio (x) = -0.06895 0.20963
# Poissons Ratio (y) = -0.04398 0.09228
# Poissons Ratio (z) = 0.08249 0.05693
#
# Static dielectric constant tensor:
#      x y z
#    x 1.707780 0.000000 0.000000 
#    y 0.000000 1.757190 0.000000 
#    z 0.000000 0.000000 1.783390 
# 
# From -- ./inp_files/22146.got.cif
#   From: 2010.05.17/outbox.cif.g08.bks.cpg/sg20_12_cif.got.tgz:22146.got - 2010.06.03 22:52:26.
