data_PCOD9317686
_publ_section_title
;
Structure prediction by ZEFSAII (Michael W. Deem and Ramdas Pophale) SiO2 
 PCOD9317686
Probable space group: C 2 2 21
;
_chemical_formula_sum "Si O2"
_cell_formula_units_Z 64
_cell_length_a 21.133354
_cell_length_b 8.718380
_cell_length_c 19.775791
_cell_angle_alpha 90.000000
_cell_angle_beta 90.000000
_cell_angle_gamma 90.000000
_cell_volume 3643.662020
_symmetry_space_group_name_H-M "C 2 2 21"
_symmetry_group_IT_number 20
_symmetry_cell_setting 'orthorhombic'
loop_
_space_group_symop_operation_xyz
x,y,z
-x,-y,1/2+z
x,-y,-z
-x,y,1/2-z
1/2+x,1/2+y,z
1/2-x,1/2-y,1/2+z
1/2+x,1/2-y,-z
1/2-x,1/2+y,1/2-z
loop_
_atom_site_type_symbol
_atom_site_label
_atom_site_fract_x
_atom_site_fract_y
_atom_site_fract_z
Si Si1 0.619502 0.815427 0.423986
Si Si2 0.565863 0.185324 0.282963
Si Si3 0.689376 0.682370 0.789356
Si Si4 0.880498 0.315427 0.923986
Si Si5 0.239745 0.317107 0.077689
Si Si6 0.065863 0.685324 0.717037
Si Si7 0.810624 0.817630 0.710644
Si Si8 0.760255 0.317107 0.577689
O O1 0.597743 0.774941 0.500000
O O2 0.573986 0.773285 0.362103
O O3 0.687900 0.738807 0.412899
O O4 0.628277 0.000000 0.421924
O O5 0.500000 0.236159 0.250000
O O6 0.625762 0.252958 0.243682
O O7 0.573986 0.226715 0.362103
O O8 0.568754 0.000000 0.278272
O O9 0.750000 0.750000 0.750000
O O10 0.690880 0.500000 0.784157
O O11 0.697112 0.735183 0.866746
O O12 0.812100 0.238807 0.912899
O O13 0.197112 0.235183 0.133254
O O14 0.237074 0.500000 0.087290
O O15 0.222337 0.281876 1.000000
O O16 0.125762 0.752958 0.756318
O O17 0.000000 0.736159 0.750000
#
# Coordination Sequence:
#
# PCOD9317686 Si02
#       8
#     8   8   8   8   8   8   8   8
#     4   9  17  31  53  79 107 144 188 232 279 334
#     4  10  21  37  56  81 115 152 191 235 284 340
#     4  12  23  36  57  83 113 148 189 234 282 334
#     4   9  17  31  53  79 107 144 188 232 279 334
#     4  10  20  34  55  84 114 144 183 234 287 337
#     4  10  21  37  56  81 115 152 191 235 284 340
#     4  12  23  36  57  83 113 148 189 234 282 334
#     4  10  20  34  55  84 114 144 183 234 287 337
#
# _framework density 17.564744999999998
#
# number of rings (size 3 to 8) (size 9 to 14) (size 15 to 20)
#    0.000    1.750    2.500    3.000    0.000    2.000 
#    0.000    1.250    0.000    4.500    0.000    0.000 
#    0.000    0.000    0.000    0.000    0.000    0.000 
#
# Total GULP energy -178648.642846 kJ/mol
# GULP energy per Si atom -5582.770089 kJ/mol
# Density = 1.752477 g / cm^3
# Si number density = 17.564745 Si / 1000 Ang^3
#
#
#
# Elastic Constant Matrix: (Units=GPa)
#
#
# Indices 1 2 3 4 5 6 
#
# 1 123.0557 37.6962 86.8689 0.0000 0.0000 0.0000
# 2 37.6962 37.4760 46.9574 0.0000 0.0000 0.0000
# 3 86.8689 46.9574 158.0277 0.0000 0.0000 0.0000
# 4 0.0000 0.0000 0.0000 24.4783 0.0000 0.0000
# 5 0.0000 0.0000 0.0000 0.0000 28.3544 0.0000
# 6 0.0000 0.0000 0.0000 0.0000 0.0000 23.1232
#
#
#
# Elastic Compliance Matrix: (Units=1/GPa)
#
#
# Indices 1 2 3 4 5 6 
#
# 1 0.014430 -0.007290 -0.005766 0.000000 0.000000 0.000000
# 2 -0.007290 0.046195 -0.009719 0.000000 0.000000 0.000000
# 3 -0.005766 -0.009719 0.012386 0.000000 0.000000 0.000000
# 4 0.000000 0.000000 0.000000 0.040853 0.000000 0.000000
# 5 0.000000 0.000000 0.000000 0.000000 0.035268 0.000000
# 6 0.000000 0.000000 0.000000 0.000000 0.000000 0.043247
#
#
# Mechanical properties :
#
#
# Convention : Reuss Voigt Hill
#
# Bulk Modulus (GPa) = 36.41670 73.51159 54.96414
# Shear Modulus (GPa) = 20.23623 24.99365 22.61494
#
# Velocity S-wave (km/s) = 3.39793 3.77629 3.59209
# Velocity P-wave (km/s) = 6.01435 7.80746 6.96882
#
# Compressibility (1/GPa) = 0.02745993
#
# Stress axis : x y z
#
# Youngs Moduli (GPa) = 69.30002 21.64744 80.73790
#
# Poissons Ratio (x) = 0.15781 0.46554
# Poissons Ratio (y) = 0.50519 0.78472
# Poissons Ratio (z) = 0.39959 0.21040
#
# Static dielectric constant tensor:
#      x y z
#    x 1.551640 0.000000 0.000000 
#    y 0.000000 1.587860 0.000000 
#    z 0.000000 0.000000 1.635570 
# 
# From -- ./inp_files/27948.got.cif
#   From: 2010.05.17/outbox.cif.g08.bks.cpg/sg20_14_cif.got.tgz:27948.got - 2010.06.03 22:52:26.
