data_PCOD9317434
_publ_section_title
;
Structure prediction by ZEFSAII (Michael W. Deem and Ramdas Pophale) SiO2 
 PCOD9317434
Probable space group: C 2 2 21
;
_chemical_formula_sum "Si O2"
_cell_formula_units_Z 48
_cell_length_a 11.334647
_cell_length_b 14.120255
_cell_length_c 12.148195
_cell_angle_alpha 90.000000
_cell_angle_beta 90.000000
_cell_angle_gamma 90.000000
_cell_volume 1944.295601
_symmetry_space_group_name_H-M "C 2 2 21"
_symmetry_group_IT_number 20
_symmetry_cell_setting 'orthorhombic'
loop_
_space_group_symop_operation_xyz
x,y,z
-x,-y,1/2+z
x,-y,-z
-x,y,1/2-z
1/2+x,1/2+y,z
1/2-x,1/2-y,1/2+z
1/2+x,1/2-y,-z
1/2-x,1/2+y,1/2-z
loop_
_atom_site_type_symbol
_atom_site_label
_atom_site_fract_x
_atom_site_fract_y
_atom_site_fract_z
Si Si1 0.397717 0.287750 0.838436
Si Si2 0.232848 0.979815 0.623791
Si Si3 0.397582 0.003644 0.183337
Si Si4 0.816014 0.093248 0.549490
Si Si5 0.611298 0.817840 0.559927
Si Si6 0.669300 0.677515 0.740948
O O1 0.500000 0.295546 0.750000
O O2 0.358748 0.392982 0.876390
O O3 0.288292 0.231714 0.782415
O O4 0.433908 0.229326 0.948063
O O5 0.327544 0.948417 0.715788
O O6 0.275303 0.000000 0.500000
O O7 0.190569 0.081023 0.672053
O O8 0.500000 0.949241 0.250000
O O9 0.443325 0.083078 0.099256
O O10 0.300179 0.947134 0.114667
O O11 0.752348 0.160103 0.461325
O O12 0.887593 0.145198 0.643348
O O13 0.875255 0.000000 0.500000
O O14 0.604983 0.749110 0.662037
#
# Coordination Sequence:
#
# PCOD9317434 Si02
#       6
#     8   8   8   8   8   8
#     4  11  24  43  69  98 138 186 236 283 353 430
#     4  11  22  39  69  96 136 181 229 292 351 417
#     4  10  21  37  61  97 134 168 220 284 350 416
#     4   8  18  33  56  86 124 164 206 267 333 405
#     4  10  19  38  61  90 131 168 220 279 336 409
#     4  10  20  37  67  91 126 172 220 281 341 400
#
# _framework density 24.687604
#
# number of rings (size 3 to 8) (size 9 to 14) (size 15 to 20)
#    0.000    2.000    3.333    0.000    0.000    9.333 
#    0.000    0.833   11.000    0.000    0.000    0.000 
#    0.000    0.000    0.000    0.000    0.000    0.000 
#
# Total GULP energy -134071.488408 kJ/mol
# GULP energy per Si atom -5586.312017 kJ/mol
# Density = 2.463141 g / cm^3
# Si number density = 24.687604 Si / 1000 Ang^3
#
#
#
# Elastic Constant Matrix: (Units=GPa)
#
#
# Indices 1 2 3 4 5 6 
#
# 1 39.8829 21.6073 37.5103 0.0000 0.0000 0.0000
# 2 21.6073 122.8003 54.6307 0.0000 0.0000 0.0000
# 3 37.5103 54.6307 164.2673 0.0000 0.0000 0.0000
# 4 0.0000 0.0000 0.0000 60.3639 0.0000 0.0000
# 5 0.0000 0.0000 0.0000 0.0000 24.4368 0.0000
# 6 0.0000 0.0000 0.0000 0.0000 0.0000 10.0842
#
#
#
# Elastic Compliance Matrix: (Units=1/GPa)
#
#
# Indices 1 2 3 4 5 6 
#
# 1 0.032765 -0.002860 -0.006531 0.000000 0.000000 0.000000
# 2 -0.002860 0.009807 -0.002608 0.000000 0.000000 0.000000
# 3 -0.006531 -0.002608 0.008446 0.000000 0.000000 0.000000
# 4 0.000000 0.000000 0.000000 0.016566 0.000000 0.000000
# 5 0.000000 0.000000 0.000000 0.000000 0.040922 0.000000
# 6 0.000000 0.000000 0.000000 0.000000 0.000000 0.099165
#
#
# Mechanical properties :
#
#
# Convention : Reuss Voigt Hill
#
# Bulk Modulus (GPa) = 37.00924 61.60523 49.30724
# Shear Modulus (GPa) = 20.77482 33.19048 26.98265
#
# Velocity S-wave (km/s) = 2.90402 3.67061 3.30959
# Velocity P-wave (km/s) = 5.12524 6.55535 5.88390
#
# Compressibility (1/GPa) = 0.02702028
#
# Stress axis : x y z
#
# Youngs Moduli (GPa) = 30.52042 101.96859 118.39311
#
# Poissons Ratio (x) = 0.29161 0.77320
# Poissons Ratio (y) = 0.08728 0.30883
# Poissons Ratio (z) = 0.19932 0.26598
#
# Static dielectric constant tensor:
#      x y z
#    x 2.007790 0.000000 0.000000 
#    y 0.000000 1.985020 0.000000 
#    z 0.000000 0.000000 1.957510 
# 
# From -- ./inp_files/15047.got.cif
#   From: 2010.05.17/outbox.cif.g08.bks.cpg/sg20_8_cif.got.tgz:15047.got - 2010.06.03 22:52:26.
