data_PCOD9317090
_publ_section_title
;
Structure prediction by ZEFSAII (Michael W. Deem and Ramdas Pophale) SiO2 
 PCOD9317090
Probable space group: C 2 2 21
;
_chemical_formula_sum "Si O2"
_cell_formula_units_Z 40
_cell_length_a 4.989695
_cell_length_b 23.626826
_cell_length_c 16.488303
_cell_angle_alpha 90.000000
_cell_angle_beta 90.000000
_cell_angle_gamma 90.000000
_cell_volume 1943.816850
_symmetry_space_group_name_H-M "C 2 2 21"
_symmetry_group_IT_number 20
_symmetry_cell_setting 'orthorhombic'
loop_
_space_group_symop_operation_xyz
x,y,z
-x,-y,1/2+z
x,-y,-z
-x,y,1/2-z
1/2+x,1/2+y,z
1/2-x,1/2-y,1/2+z
1/2+x,1/2-y,-z
1/2-x,1/2+y,1/2-z
loop_
_atom_site_type_symbol
_atom_site_label
_atom_site_fract_x
_atom_site_fract_y
_atom_site_fract_z
Si Si1 0.741800 0.193092 0.804120
Si Si2 0.550334 0.363217 0.657696
Si Si3 0.049161 0.294269 0.594443
Si Si4 0.547943 0.867781 0.442141
Si Si5 0.446771 0.565954 0.005663
O O1 0.500000 0.221829 0.750000
O O2 0.888869 0.232019 0.872457
O O3 0.562723 0.148070 0.853773
O O4 0.000000 0.174839 0.750000
O O5 0.500000 0.377416 0.750000
O O6 0.303296 0.328431 0.624227
O O7 0.559735 0.417268 0.600055
O O8 0.802624 0.322900 0.641096
O O9 0.024080 0.311099 0.499507
O O10 0.839851 0.894863 0.456683
O O11 0.343701 0.914928 0.475018
O O12 0.504203 0.500000 0.000000
#
# Coordination Sequence:
#
# PCOD9317090 Si02
#       5
#     8   8   8   8   8
#     4  12  24  38  58  88 127 166 197 238 297 367
#     4  10  19  34  56  86 113 141 191 248 291 337
#     4  10  21  36  57  82 115 153 189 232 287 348
#     4  10  23  40  60  86 117 154 201 246 292 360
#     4  10  21  40  63  84 113 156 201 250 304 354
#
# _framework density 20.578071999999999
#
# number of rings (size 3 to 8) (size 9 to 14) (size 15 to 20)
#    0.000    1.600    0.000    5.400    0.000    6.400 
#    0.000    3.000    0.000    2.400    0.000    0.000 
#    0.000    0.000    0.000    0.000    0.000    0.000 
#
# Total GULP energy -111571.539973 kJ/mol
# GULP energy per Si atom -5578.576999 kJ/mol
# Density = 2.053124 g / cm^3
# Si number density = 20.578072 Si / 1000 Ang^3
#
#
#
# Elastic Constant Matrix: (Units=GPa)
#
#
# Indices 1 2 3 4 5 6 
#
# 1 129.8575 0.4627 20.1564 0.0000 0.0000 0.0000
# 2 0.4627 35.3814 15.5200 0.0000 0.0000 0.0000
# 3 20.1564 15.5200 76.8085 0.0000 0.0000 0.0000
# 4 0.0000 0.0000 0.0000 9.2012 0.0000 0.0000
# 5 0.0000 0.0000 0.0000 0.0000 34.8247 0.0000
# 6 0.0000 0.0000 0.0000 0.0000 0.0000 9.3377
#
#
#
# Elastic Compliance Matrix: (Units=1/GPa)
#
#
# Indices 1 2 3 4 5 6 
#
# 1 0.008054 0.000902 -0.002296 0.000000 0.000000 0.000000
# 2 0.000902 0.031113 -0.006523 0.000000 0.000000 0.000000
# 3 -0.002296 -0.006523 0.014940 0.000000 0.000000 0.000000
# 4 0.000000 0.000000 0.000000 0.108681 0.000000 0.000000
# 5 0.000000 0.000000 0.000000 0.000000 0.028715 0.000000
# 6 0.000000 0.000000 0.000000 0.000000 0.000000 0.107092
#
#
# Mechanical properties :
#
#
# Convention : Reuss Voigt Hill
#
# Bulk Modulus (GPa) = 26.12868 34.92506 30.52687
# Shear Modulus (GPa) = 15.28175 24.39996 19.84086
#
# Velocity S-wave (km/s) = 2.72807 3.44717 3.10849
# Velocity P-wave (km/s) = 4.75900 5.73174 5.26787
#
# Compressibility (1/GPa) = 0.03827212
#
# Stress axis : x y z
#
# Youngs Moduli (GPa) = 124.16386 32.14084 66.93458
#
# Poissons Ratio (x) = -0.02898 0.15366
# Poissons Ratio (y) = -0.11196 0.43664
# Poissons Ratio (z) = 0.28505 0.20967
#
# Static dielectric constant tensor:
#      x y z
#    x 1.722220 0.000000 0.000000 
#    y 0.000000 1.727450 0.000000 
#    z 0.000000 0.000000 1.838440 
# 
# From -- ./inp_files/17621.got.cif
#   From: 2010.05.17/outbox.cif.g08.bks.cpg/sg20_9_cif.got.tgz:17621.got - 2010.06.03 22:52:26.
