data_PCOD9317165
_publ_section_title
;
Structure prediction by ZEFSAII (Michael W. Deem and Ramdas Pophale) SiO2 
 PCOD9317165
Probable space group: C 2 2 21
;
_chemical_formula_sum "Si O2"
_cell_formula_units_Z 64
_cell_length_a 8.663777
_cell_length_b 14.568477
_cell_length_c 28.976579
_cell_angle_alpha 90.000000
_cell_angle_beta 90.000000
_cell_angle_gamma 90.000000
_cell_volume 3657.366890
_symmetry_space_group_name_H-M "C 2 2 21"
_symmetry_group_IT_number 20
_symmetry_cell_setting 'orthorhombic'
loop_
_space_group_symop_operation_xyz
x,y,z
-x,-y,1/2+z
x,-y,-z
-x,y,1/2-z
1/2+x,1/2+y,z
1/2-x,1/2-y,1/2+z
1/2+x,1/2-y,-z
1/2-x,1/2+y,1/2-z
loop_
_atom_site_type_symbol
_atom_site_label
_atom_site_fract_x
_atom_site_fract_y
_atom_site_fract_z
Si Si1 0.813752 0.394260 0.004293
Si Si2 0.314743 0.257419 0.676637
Si Si3 0.684533 0.749477 0.574261
Si Si4 0.313752 0.894260 0.495707
Si Si5 0.814200 0.117582 0.750000
Si Si6 0.315467 0.250523 0.425739
Si Si7 0.185257 0.757419 0.676637
Si Si8 0.187224 0.907682 0.750000
O O1 0.741894 0.341374 0.047715
O O2 1.000000 0.391527 0.008659
O O3 0.765812 0.500000 0.000000
O O4 0.771486 0.334742 0.959047
O O5 0.256831 0.258169 0.624561
O O6 0.247208 0.172254 0.705504
O O7 0.500000 0.252321 0.677796
O O8 0.266223 0.348414 0.705257
O O9 0.741894 0.658626 0.547715
O O10 0.500000 0.747638 0.577977
O O11 0.271486 0.834742 0.540953
O O12 0.265812 0.000000 0.500000
O O13 0.752792 0.172254 0.705504
O O14 0.000000 0.119571 0.750000
O O15 0.759609 0.012257 0.750000
O O16 0.243169 0.241831 0.375439
O O17 0.233777 0.848414 0.705257
O O18 0.000000 0.910040 0.750000
#
# Coordination Sequence:
#
# PCOD9317165 Si02
#       8
#     8   8   8   8   8   8   8   8
#     4   9  19  36  55  76 104 136 171 213 259 306
#     4  10  20  36  54  75 105 139 171 206 255 308
#     4  10  20  34  53  78 105 135 172 212 255 302
#     4   9  19  36  55  76 104 136 171 213 259 306
#     4  10  19  35  56  79 104 131 171 218 258 300
#     4  10  20  34  53  78 105 135 172 212 255 302
#     4  10  20  36  54  75 105 139 171 206 255 308
#     4   8  18  35  54  75 102 135 169 208 254 304
#
# _framework density 17.498926999999998
#
# number of rings (size 3 to 8) (size 9 to 14) (size 15 to 20)
#    0.000    2.500    0.000    2.625    0.000    3.500 
#    0.000   12.500    0.000    0.000    0.000    0.000 
#    0.000    0.000    0.000    0.000    0.000    0.000 
#
# Total GULP energy -178541.588970 kJ/mol
# GULP energy per Si atom -5579.424655 kJ/mol
# Density = 1.745910 g / cm^3
# Si number density = 17.498927 Si / 1000 Ang^3
#
#
#
# Elastic Constant Matrix: (Units=GPa)
#
#
# Indices 1 2 3 4 5 6 
#
# 1 41.6271 37.5511 43.9606 0.0000 0.0000 0.0000
# 2 37.5511 170.9854 76.7201 0.0000 0.0000 0.0000
# 3 43.9606 76.7201 161.6720 0.0000 0.0000 0.0000
# 4 0.0000 0.0000 0.0000 5.8179 0.0000 0.0000
# 5 0.0000 0.0000 0.0000 0.0000 17.3022 0.0000
# 6 0.0000 0.0000 0.0000 0.0000 0.0000 23.6910
#
#
#
# Elastic Compliance Matrix: (Units=1/GPa)
#
#
# Indices 1 2 3 4 5 6 
#
# 1 0.036227 -0.004493 -0.007719 0.000000 0.000000 0.000000
# 2 -0.004493 0.007988 -0.002569 0.000000 0.000000 0.000000
# 3 -0.007719 -0.002569 0.009503 0.000000 0.000000 0.000000
# 4 0.000000 0.000000 0.000000 0.171882 0.000000 0.000000
# 5 0.000000 0.000000 0.000000 0.000000 0.057796 0.000000
# 6 0.000000 0.000000 0.000000 0.000000 0.000000 0.042210
#
#
# Mechanical properties :
#
#
# Convention : Reuss Voigt Hill
#
# Bulk Modulus (GPa) = 41.39508 76.74980 59.07244
# Shear Modulus (GPa) = 13.76580 23.76574 18.76577
#
# Velocity S-wave (km/s) = 2.80780 3.68927 3.27830
# Velocity P-wave (km/s) = 5.84968 7.88052 6.93979
#
# Compressibility (1/GPa) = 0.02415746
#
# Stress axis : x y z
#
# Youngs Moduli (GPa) = 27.60384 125.19132 105.22791
#
# Poissons Ratio (x) = 0.56245 0.81221
# Poissons Ratio (y) = 0.12402 0.27032
# Poissons Ratio (z) = 0.21306 0.32160
#
# Static dielectric constant tensor:
#      x y z
#    x 1.587790 0.000000 0.000000 
#    y 0.000000 1.588400 0.000000 
#    z 0.000000 0.000000 1.562700 
# 
# From -- ./inp_files/31100.got.cif
#   From: 2010.05.17/outbox.cif.g08.bks.cpg/sg20_16_cif.got.tgz:31100.got - 2010.06.03 22:52:26.
