data_PCOD9317152
_publ_section_title
;
Structure prediction by ZEFSAII (Michael W. Deem and Ramdas Pophale) SiO2 
 PCOD9317152
Probable space group: C 2 2 21
;
_chemical_formula_sum "Si O2"
_cell_formula_units_Z 60
_cell_length_a 13.325812
_cell_length_b 17.402677
_cell_length_c 11.689237
_cell_angle_alpha 90.000000
_cell_angle_beta 90.000000
_cell_angle_gamma 90.000000
_cell_volume 2710.790192
_symmetry_space_group_name_H-M "C 2 2 21"
_symmetry_group_IT_number 20
_symmetry_cell_setting 'orthorhombic'
loop_
_space_group_symop_operation_xyz
x,y,z
-x,-y,1/2+z
x,-y,-z
-x,y,1/2-z
1/2+x,1/2+y,z
1/2-x,1/2-y,1/2+z
1/2+x,1/2-y,-z
1/2-x,1/2+y,1/2-z
loop_
_atom_site_type_symbol
_atom_site_label
_atom_site_fract_x
_atom_site_fract_y
_atom_site_fract_z
Si Si1 0.269586 0.910201 0.296270
Si Si2 0.825659 0.930640 0.440200
Si Si3 0.780392 0.349123 0.862333
Si Si4 0.619280 0.000000 0.000000
Si Si5 0.380092 0.855331 0.631329
Si Si6 0.039494 0.216325 0.965908
Si Si7 0.609511 0.757956 0.201465
Si Si8 0.820079 0.187235 0.983735
O O1 0.223641 0.946463 0.182522
O O2 0.340030 0.837629 0.258158
O O3 0.187075 0.867982 0.373976
O O4 0.321144 0.966739 0.388433
O O5 0.745584 0.910105 0.539902
O O6 0.894285 0.855708 0.429361
O O7 0.884944 0.000000 0.500000
O O8 0.854529 0.375176 0.762601
O O9 0.681810 0.316018 0.794575
O O10 0.810459 0.273572 0.934755
O O11 0.571040 0.924422 0.942626
O O12 0.450997 0.780558 0.630816
O O13 0.270026 0.836013 0.570107
O O14 0.935751 0.186426 0.018865
O O15 0.092256 0.264496 0.066569
O O16 0.500000 0.747490 0.250000
#
# Coordination Sequence:
#
# PCOD9317152 Si02
#       8
#     8   8   8   4   8   8   8   8
#     4  10  21  40  65  89 128 166 204 261 313 366
#     4  11  23  40  59  91 127 165 207 255 312 374
#     4  10  21  36  61  92 123 162 208 254 309 372
#     4  10  20  40  64  88 118 166 208 252 314 364
#     4  11  20  40  63  88 123 162 209 257 307 379
#     4  11  21  38  65  91 123 161 207 259 312 371
#     4  10  19  34  64  95 120 163 207 259 303 369
#     4  10  21  37  65  95 116 161 210 256 313 370
#
# _framework density 22.133766999999999
#
# number of rings (size 3 to 8) (size 9 to 14) (size 15 to 20)
#    0.000    1.600    5.333    3.200    1.867    2.133 
#    4.800    0.000   17.600    0.000    0.000    0.000 
#    0.000    0.000    0.000    0.000    0.000    0.000 
#
# Total GULP energy -167048.734339 kJ/mol
# GULP energy per Si atom -5568.291145 kJ/mol
# Density = 2.208339 g / cm^3
# Si number density = 22.133767 Si / 1000 Ang^3
#
#
#
# Elastic Constant Matrix: (Units=GPa)
#
#
# Indices 1 2 3 4 5 6 
#
# 1 17.3993 -19.2627 20.5846 0.0000 0.0000 0.0000
# 2 -19.2627 80.2916 21.1372 0.0000 0.0000 0.0000
# 3 20.5846 21.1372 104.4943 0.0000 0.0000 0.0000
# 4 0.0000 0.0000 0.0000 21.2226 0.0000 0.0000
# 5 0.0000 0.0000 0.0000 0.0000 14.5918 0.0000
# 6 0.0000 0.0000 0.0000 0.0000 0.0000 -7.3534
#
#
#
# Elastic Compliance Matrix: (Units=1/GPa)
#
#
# Indices 1 2 3 4 5 6 
#
# 1 0.163275 0.050318 -0.042342 0.000000 0.000000 0.000000
# 2 0.050318 0.028662 -0.015710 0.000000 0.000000 0.000000
# 3 -0.042342 -0.015710 0.021089 0.000000 0.000000 0.000000
# 4 0.000000 0.000000 0.000000 0.047120 0.000000 0.000000
# 5 0.000000 0.000000 0.000000 0.000000 0.068532 0.000000
# 6 0.000000 0.000000 0.000000 0.000000 0.000000 -0.135992
#
#
# Mechanical properties :
#
#
# Convention : Reuss Voigt Hill
#
# Bulk Modulus (GPa) = 5.06183 27.45592 16.25887
# Shear Modulus (GPa) = 18.24776 17.67393 17.96085
#
# Velocity S-wave (km/s) = 2.87441 2.82885 2.85172
# Velocity P-wave (km/s) = 3.64804 4.80638 4.26670
#
# Compressibility (1/GPa) = 0.19755712
#
# Stress axis : x y z
#
# Youngs Moduli (GPa) = 6.12465 34.88919 47.41843
#
# Poissons Ratio (x) = -1.75556 2.00780
# Poissons Ratio (y) = -0.30818 0.74495
# Poissons Ratio (z) = 0.25933 0.54811
#
# Static dielectric constant tensor:
#      x y z
#    x 1.851500 0.000000 0.000000 
#    y 0.000000 2.024800 0.000000 
#    z 0.000000 0.000000 1.892650 
# 
# From -- ./inp_files/15305.got.cif
#   From: 2010.05.17/outbox.cif.g08.bks.cpg/sg20_8_cif.got.tgz:15305.got - 2010.06.03 22:52:26.
