data_PCOD9317530
_publ_section_title
;
Structure prediction by ZEFSAII (Michael W. Deem and Ramdas Pophale) SiO2 
 PCOD9317530
Probable space group: C 2 2 21
;
_chemical_formula_sum "Si O2"
_cell_formula_units_Z 56
_cell_length_a 8.223937
_cell_length_b 14.098882
_cell_length_c 18.961238
_cell_angle_alpha 90.000000
_cell_angle_beta 90.000000
_cell_angle_gamma 90.000000
_cell_volume 2198.523641
_symmetry_space_group_name_H-M "C 2 2 21"
_symmetry_group_IT_number 20
_symmetry_cell_setting 'orthorhombic'
loop_
_space_group_symop_operation_xyz
x,y,z
-x,-y,1/2+z
x,-y,-z
-x,y,1/2-z
1/2+x,1/2+y,z
1/2-x,1/2-y,1/2+z
1/2+x,1/2-y,-z
1/2-x,1/2+y,1/2-z
loop_
_atom_site_type_symbol
_atom_site_label
_atom_site_fract_x
_atom_site_fract_y
_atom_site_fract_z
Si Si1 0.327198 0.534116 0.574670
Si Si2 0.000000 0.764483 0.250000
Si Si3 0.893593 0.822415 0.596119
Si Si4 0.263520 0.234938 0.950917
Si Si5 0.631878 0.124589 0.147805
Si Si6 0.500000 0.983374 0.250000
Si Si7 0.790548 0.663570 0.683040
Si Si8 0.798205 0.032236 0.925384
O O1 0.254117 0.500000 0.500000
O O2 0.352423 0.432677 0.612582
O O3 0.242153 0.634122 0.591504
O O4 0.517029 0.562437 0.562312
O O5 0.866272 0.700485 0.289341
O O6 0.900410 0.824559 0.194864
O O7 0.772262 0.791148 0.532083
O O8 0.870733 0.763819 0.668135
O O9 0.069453 0.791005 0.564908
O O10 0.125296 0.307231 0.920141
O O11 0.499074 0.050851 0.180648
O O12 0.778698 0.053461 0.130513
O O13 0.646065 0.909068 0.241284
O O14 0.811162 0.612457 0.608144
O O15 0.731031 0.000000 0.000000
#
# Coordination Sequence:
#
# PCOD9317530 Si02
#       8
#     8   4   8   8   8   4   8   8
#     4   9  20  39  65 103 150 182 235 284 365 463
#     4  11  26  44  70  95 142 209 250 304 367 456
#     4  11  25  44  73 113 151 195 243 317 390 461
#     4  11  23  43  76 107 154 189 240 312 392 464
#     4  10  21  43  70  99 143 192 245 305 376 447
#     4   9  24  46  68 101 138 185 264 306 357 456
#     4  11  25  45  71 102 142 195 252 311 375 450
#     4  10  19  40  71 105 138 186 232 308 381 447
#
# _framework density 25.471637999999999
#
# number of rings (size 3 to 8) (size 9 to 14) (size 15 to 20)
#    0.000    1.714    1.429    1.714    8.000    0.000 
#    7.714    5.000    3.143    1.714    0.000    0.000 
#    0.000    0.000    0.000    0.000    0.000    0.000 
#
# Total GULP energy -155943.705697 kJ/mol
# GULP energy per Si atom -5569.418061 kJ/mol
# Density = 2.541366 g / cm^3
# Si number density = 25.471638 Si / 1000 Ang^3
#
#
#
# Elastic Constant Matrix: (Units=GPa)
#
#
# Indices 1 2 3 4 5 6 
#
# 1 85.0164 36.8917 24.1245 0.0000 0.0000 0.0000
# 2 36.8917 171.0794 22.4990 0.0000 0.0000 0.0000
# 3 24.1245 22.4990 55.8168 0.0000 0.0000 0.0000
# 4 0.0000 0.0000 0.0000 44.9521 0.0000 0.0000
# 5 0.0000 0.0000 0.0000 0.0000 25.1587 0.0000
# 6 0.0000 0.0000 0.0000 0.0000 0.0000 15.7915
#
#
#
# Elastic Compliance Matrix: (Units=1/GPa)
#
#
# Indices 1 2 3 4 5 6 
#
# 1 0.014279 -0.002394 -0.005206 0.000000 0.000000 0.000000
# 2 -0.002394 0.006574 -0.001615 0.000000 0.000000 0.000000
# 3 -0.005206 -0.001615 0.020817 0.000000 0.000000 0.000000
# 4 0.000000 0.000000 0.000000 0.022246 0.000000 0.000000
# 5 0.000000 0.000000 0.000000 0.000000 0.039748 0.000000
# 6 0.000000 0.000000 0.000000 0.000000 0.000000 0.063325
#
#
# Mechanical properties :
#
#
# Convention : Reuss Voigt Hill
#
# Bulk Modulus (GPa) = 43.03229 53.21588 48.12409
# Shear Modulus (GPa) = 25.88446 32.40695 29.14570
#
# Velocity S-wave (km/s) = 3.19126 3.57077 3.38633
# Velocity P-wave (km/s) = 5.52356 6.15939 5.85012
#
# Compressibility (1/GPa) = 0.02323836
#
# Stress axis : x y z
#
# Youngs Moduli (GPa) = 70.03386 152.11532 48.03776
#
# Poissons Ratio (x) = 0.36423 0.25010
# Poissons Ratio (y) = 0.16769 0.07758
# Poissons Ratio (z) = 0.36462 0.24566
#
# Static dielectric constant tensor:
#      x y z
#    x 2.013590 0.000000 0.000000 
#    y 0.000000 2.126780 0.000000 
#    z 0.000000 0.000000 2.064360 
# 
# From -- ./inp_files/26771.got.cif
#   From: 2010.05.17/outbox.cif.g08.bks.cpg/sg20_14_cif.got.tgz:26771.got - 2010.06.03 22:52:26.
