data_PCOD9317597
_publ_section_title
;
Structure prediction by ZEFSAII (Michael W. Deem and Ramdas Pophale) SiO2 
 PCOD9317597
Probable space group: C 2 2 21
;
_chemical_formula_sum "Si O2"
_cell_formula_units_Z 48
_cell_length_a 19.567620
_cell_length_b 8.719075
_cell_length_c 11.172991
_cell_angle_alpha 90.000000
_cell_angle_beta 90.000000
_cell_angle_gamma 90.000000
_cell_volume 1906.241272
_symmetry_space_group_name_H-M "C 2 2 21"
_symmetry_group_IT_number 20
_symmetry_cell_setting 'orthorhombic'
loop_
_space_group_symop_operation_xyz
x,y,z
-x,-y,1/2+z
x,-y,-z
-x,y,1/2-z
1/2+x,1/2+y,z
1/2-x,1/2-y,1/2+z
1/2+x,1/2-y,-z
1/2-x,1/2+y,1/2-z
loop_
_atom_site_type_symbol
_atom_site_label
_atom_site_fract_x
_atom_site_fract_y
_atom_site_fract_z
Si Si1 0.434315 0.388046 0.218394
Si Si2 0.710110 0.759334 0.011980
Si Si3 0.708408 0.500932 0.193734
Si Si4 0.861341 0.247931 0.982907
Si Si5 0.355463 0.958205 0.196375
Si Si6 0.926616 0.399409 0.598375
O O1 0.500000 0.489025 0.250000
O O2 0.360697 0.459610 0.241661
O O3 0.423819 0.338255 0.080265
O O4 0.443727 0.252352 0.320938
O O5 0.700264 0.667518 0.135580
O O6 0.786219 0.828921 0.017178
O O7 0.716812 0.624724 0.911914
O O8 0.642567 0.847660 0.971549
O O9 0.781006 0.481147 0.258350
O O10 0.854917 0.396154 0.894568
O O11 0.869717 0.311332 0.115833
O O12 0.410953 0.981991 0.296343
O O13 0.968797 0.500000 0.500000
#
# Coordination Sequence:
#
# PCOD9317597 Si02
#       6
#     8   8   8   8   8   8
#     4  10  20  34  53  81 110 155 192 223 276 347
#     4   8  15  30  53  78 103 138 177 234 290 323
#     4   8  15  30  54  77 102 140 183 229 282 329
#     4   8  15  30  52  77 108 144 183 226 283 334
#     4   8  15  30  51  79 105 139 184 233 287 333
#     4  10  20  32  50  82 111 142 185 236 287 337
#
# _framework density 25.180444000000001
#
# number of rings (size 3 to 8) (size 9 to 14) (size 15 to 20)
#    0.000    3.333    0.000    2.000    2.333    0.000 
#    9.000    0.000    0.000    9.000    0.000    0.000 
#    0.000    0.000    0.000    0.000    0.000    0.000 
#
# Total GULP energy -133841.226501 kJ/mol
# GULP energy per Si atom -5576.717771 kJ/mol
# Density = 2.512313 g / cm^3
# Si number density = 25.180444 Si / 1000 Ang^3
#
#
#
# Elastic Constant Matrix: (Units=GPa)
#
#
# Indices 1 2 3 4 5 6 
#
# 1 82.0649 -4.1453 13.4722 0.0000 0.0000 0.0000
# 2 -4.1453 61.1833 17.9010 0.0000 0.0000 0.0000
# 3 13.4722 17.9010 78.5194 0.0000 0.0000 0.0000
# 4 0.0000 0.0000 0.0000 26.3299 0.0000 0.0000
# 5 0.0000 0.0000 0.0000 0.0000 30.7085 0.0000
# 6 0.0000 0.0000 0.0000 0.0000 0.0000 0.2434
#
#
#
# Elastic Compliance Matrix: (Units=1/GPa)
#
#
# Indices 1 2 3 4 5 6 
#
# 1 0.012684 0.001603 -0.002542 0.000000 0.000000 0.000000
# 2 0.001603 0.017715 -0.004314 0.000000 0.000000 0.000000
# 3 -0.002542 -0.004314 0.014155 0.000000 0.000000 0.000000
# 4 0.000000 0.000000 0.000000 0.037980 0.000000 0.000000
# 5 0.000000 0.000000 0.000000 0.000000 0.032564 0.000000
# 6 0.000000 0.000000 0.000000 0.000000 0.000000 4.108711
#
#
# Mechanical properties :
#
#
# Convention : Reuss Voigt Hill
#
# Bulk Modulus (GPa) = 29.36935 30.69149 30.03042
# Shear Modulus (GPa) = 1.17767 24.42567 12.80167
#
# Velocity S-wave (km/s) = 0.68462 3.11790 2.25721
# Velocity P-wave (km/s) = 3.50911 5.01765 4.32959
#
# Compressibility (1/GPa) = 0.03404910
#
# Stress axis : x y z
#
# Youngs Moduli (GPa) = 78.84129 56.44921 70.64508
#
# Poissons Ratio (x) = -0.09049 0.17956
# Poissons Ratio (y) = -0.12638 0.30475
# Poissons Ratio (z) = 0.20039 0.24351
#
# Static dielectric constant tensor:
#      x y z
#    x 1.986500 0.000000 0.000000 
#    y 0.000000 2.096560 0.000000 
#    z 0.000000 0.000000 1.998320 
# 
# From -- ./inp_files/16259.got.cif
#   From: 2010.05.17/outbox.cif.g08.bks.cpg/sg20_9_cif.got.tgz:16259.got - 2010.06.03 22:52:26.
