data_PCOD9317714
_publ_section_title
;
Structure prediction by ZEFSAII (Michael W. Deem and Ramdas Pophale) SiO2 
 PCOD9317714
Probable space group: C 2 2 21
;
_chemical_formula_sum "Si O2"
_cell_formula_units_Z 52
_cell_length_a 16.418624
_cell_length_b 19.539582
_cell_length_c 7.394299
_cell_angle_alpha 90.000000
_cell_angle_beta 90.000000
_cell_angle_gamma 90.000000
_cell_volume 2372.187615
_symmetry_space_group_name_H-M "C 2 2 21"
_symmetry_group_IT_number 20
_symmetry_cell_setting 'orthorhombic'
loop_
_space_group_symop_operation_xyz
x,y,z
-x,-y,1/2+z
x,-y,-z
-x,y,1/2-z
1/2+x,1/2+y,z
1/2-x,1/2-y,1/2+z
1/2+x,1/2-y,-z
1/2-x,1/2+y,1/2-z
loop_
_atom_site_type_symbol
_atom_site_label
_atom_site_fract_x
_atom_site_fract_y
_atom_site_fract_z
Si Si1 0.949417 0.073068 0.034761
Si Si2 0.802599 0.049759 0.756746
Si Si3 0.000000 0.315660 0.250000
Si Si4 0.268030 0.772706 0.948170
Si Si5 0.326316 0.156744 0.677634
Si Si6 0.171909 0.903944 0.853630
Si Si7 0.552303 0.723270 0.583343
O O1 0.911674 0.089873 0.235427
O O2 0.872970 0.059160 0.901691
O O3 0.977901 0.146113 0.959925
O O4 0.995865 0.000000 0.000000
O O5 0.725340 0.088855 0.832586
O O6 0.835013 0.082507 0.568233
O O7 0.781851 0.971030 0.718263
O O8 0.921574 0.356306 0.316379
O O9 0.030889 0.267394 0.409369
O O10 0.200599 0.713478 0.967199
O O11 0.222142 0.833435 0.836276
O O12 0.350807 0.734107 0.881448
O O13 0.296090 0.807923 0.134342
O O14 0.500000 0.749067 0.750000
#
# Coordination Sequence:
#
# PCOD9317714 Si02
#       7
#     8   8   4   8   8   8   8
#     4  10  20  37  57  82 114 148 191 232 276 336
#     4   9  18  33  57  86 110 147 187 229 279 334
#     4  10  24  38  54  88 120 144 182 246 286 330
#     4  10  20  34  59  85 106 149 192 229 282 338
#     4  10  20  35  58  84 112 148 191 231 287 337
#     4   9  18  32  56  87 113 139 188 239 273 329
#     4  11  24  39  56  82 116 151 189 237 283 333
#
# _framework density 21.920696
#
# number of rings (size 3 to 8) (size 9 to 14) (size 15 to 20)
#    0.000    2.154    1.538    1.846    2.154    1.231 
#    1.385    0.000    1.692    0.000    8.000    0.000 
#    0.000    0.000    0.000    0.000    0.000    0.000 
#
# Total GULP energy -145148.111342 kJ/mol
# GULP energy per Si atom -5582.619667 kJ/mol
# Density = 2.187080 g / cm^3
# Si number density = 21.920696 Si / 1000 Ang^3
#
#
#
# Elastic Constant Matrix: (Units=GPa)
#
#
# Indices 1 2 3 4 5 6 
#
# 1 71.6297 11.4343 -3.9830 0.0000 0.0000 0.0000
# 2 11.4343 90.6179 0.1011 0.0000 0.0000 0.0000
# 3 -3.9830 0.1011 69.3584 0.0000 0.0000 0.0000
# 4 0.0000 0.0000 0.0000 14.8226 0.0000 0.0000
# 5 0.0000 0.0000 0.0000 0.0000 25.6405 0.0000
# 6 0.0000 0.0000 0.0000 0.0000 0.0000 21.2345
#
#
#
# Elastic Compliance Matrix: (Units=1/GPa)
#
#
# Indices 1 2 3 4 5 6 
#
# 1 0.014295 -0.001805 0.000824 0.000000 0.000000 0.000000
# 2 -0.001805 0.011263 -0.000120 0.000000 0.000000 0.000000
# 3 0.000824 -0.000120 0.014465 0.000000 0.000000 0.000000
# 4 0.000000 0.000000 0.000000 0.067464 0.000000 0.000000
# 5 0.000000 0.000000 0.000000 0.000000 0.039001 0.000000
# 6 0.000000 0.000000 0.000000 0.000000 0.000000 0.047093
#
#
# Mechanical properties :
#
#
# Convention : Reuss Voigt Hill
#
# Bulk Modulus (GPa) = 26.44052 27.41232 26.92642
# Shear Modulus (GPa) = 23.99340 27.27644 25.63492
#
# Velocity S-wave (km/s) = 3.31199 3.53132 3.42342
# Velocity P-wave (km/s) = 5.16854 5.39994 5.28551
#
# Compressibility (1/GPa) = 0.03782074
#
# Stress axis : x y z
#
# Youngs Moduli (GPa) = 69.95675 88.78475 69.13083
#
# Poissons Ratio (x) = 0.16022 -0.05693
# Poissons Ratio (y) = 0.12625 0.00830
# Poissons Ratio (z) = -0.05761 0.01066
#
# Static dielectric constant tensor:
#      x y z
#    x 1.898390 0.000000 0.000000 
#    y 0.000000 1.820080 0.000000 
#    z 0.000000 0.000000 1.904430 
# 
# From -- ./inp_files/8654.got.cif
#   From: 2010.05.17/outbox.cif.g08.bks.cpg/sg20_5_cif.got.tgz:8654.got - 2010.06.03 22:52:26.
