data_PCOD9317627
_publ_section_title
;
Structure prediction by ZEFSAII (Michael W. Deem and Ramdas Pophale) SiO2 
 PCOD9317627
Probable space group: C 2 2 21
;
_chemical_formula_sum "Si O2"
_cell_formula_units_Z 48
_cell_length_a 17.479468
_cell_length_b 11.821701
_cell_length_c 13.337747
_cell_angle_alpha 90.000000
_cell_angle_beta 90.000000
_cell_angle_gamma 90.000000
_cell_volume 2756.072618
_symmetry_space_group_name_H-M "C 2 2 21"
_symmetry_group_IT_number 20
_symmetry_cell_setting 'orthorhombic'
loop_
_space_group_symop_operation_xyz
x,y,z
-x,-y,1/2+z
x,-y,-z
-x,y,1/2-z
1/2+x,1/2+y,z
1/2-x,1/2-y,1/2+z
1/2+x,1/2-y,-z
1/2-x,1/2+y,1/2-z
loop_
_atom_site_type_symbol
_atom_site_label
_atom_site_fract_x
_atom_site_fract_y
_atom_site_fract_z
Si Si1 0.685774 0.646460 0.399918
Si Si2 0.455488 0.796918 0.145504
Si Si3 0.360180 0.613243 0.877084
Si Si4 0.430184 0.050415 0.172235
Si Si5 0.343412 0.215563 0.302326
Si Si6 0.495631 0.741892 0.566324
O O1 0.619490 0.720999 0.351585
O O2 0.665414 0.516787 0.372108
O O3 0.678244 0.657858 0.520269
O O4 0.767645 0.689408 0.363853
O O5 0.500000 0.792551 0.250000
O O6 0.426721 0.925736 0.128195
O O7 0.507471 0.750338 0.053756
O O8 0.337029 0.684068 0.779181
O O9 0.451381 0.637169 0.896220
O O10 0.500000 0.045406 0.250000
O O11 0.361818 0.102089 0.237845
O O12 0.453887 0.148259 0.095793
O O13 0.415889 0.245754 0.374311
#
# Coordination Sequence:
#
# PCOD9317627 Si02
#       6
#     8   8   8   8   8   8
#     4  10  22  36  56  86 114 152 185 241 294 334
#     4  10  20  33  53  81 118 146 185 241 296 344
#     4   9  20  40  56  78 115 152 188 233 287 356
#     4   8  16  32  52  80 105 140 182 236 284 342
#     4  10  20  35  61  83 109 150 202 234 288 352
#     4   9  18  36  58  79 104 153 199 230 284 355
#
# _framework density 17.416087000000001
#
# number of rings (size 3 to 8) (size 9 to 14) (size 15 to 20)
#    0.000    2.667    0.000    2.000    2.333    2.667 
#   15.000    0.000    0.000    2.000    0.000    0.000 
#    0.000    0.000    0.000    0.000    0.000    0.000 
#
# Total GULP energy -133629.490416 kJ/mol
# GULP energy per Si atom -5567.895434 kJ/mol
# Density = 1.737645 g / cm^3
# Si number density = 17.416087 Si / 1000 Ang^3
#
#
#
# Elastic Constant Matrix: (Units=GPa)
#
#
# Indices 1 2 3 4 5 6 
#
# 1 117.7177 54.1641 69.4382 0.0000 0.0000 0.0000
# 2 54.1641 63.1510 37.4098 0.0000 0.0000 0.0000
# 3 69.4382 37.4098 98.3280 0.0000 0.0000 0.0000
# 4 0.0000 0.0000 0.0000 22.3512 0.0000 0.0000
# 5 0.0000 0.0000 0.0000 0.0000 22.6197 0.0000
# 6 0.0000 0.0000 0.0000 0.0000 0.0000 18.0073
#
#
#
# Elastic Compliance Matrix: (Units=1/GPa)
#
#
# Indices 1 2 3 4 5 6 
#
# 1 0.018888 -0.010713 -0.009263 0.000000 0.000000 0.000000
# 2 -0.010713 0.026519 -0.002524 0.000000 0.000000 0.000000
# 3 -0.009263 -0.002524 0.017671 0.000000 0.000000 0.000000
# 4 0.000000 0.000000 0.000000 0.044740 0.000000 0.000000
# 5 0.000000 0.000000 0.000000 0.000000 0.044209 0.000000
# 6 0.000000 0.000000 0.000000 0.000000 0.000000 0.055533
#
#
# Mechanical properties :
#
#
# Convention : Reuss Voigt Hill
#
# Bulk Modulus (GPa) = 55.31256 66.80232 61.05744
# Shear Modulus (GPa) = 19.33597 20.47462 19.90529
#
# Velocity S-wave (km/s) = 3.33564 3.43244 3.38439
# Velocity P-wave (km/s) = 6.83108 7.35859 7.09974
#
# Compressibility (1/GPa) = 0.01807908
#
# Stress axis : x y z
#
# Youngs Moduli (GPa) = 52.94422 37.70941 56.58871
#
# Poissons Ratio (x) = 0.40398 0.52415
# Poissons Ratio (y) = 0.56719 0.14282
# Poissons Ratio (z) = 0.49040 0.09517
#
# Static dielectric constant tensor:
#      x y z
#    x 1.575660 0.000000 0.000000 
#    y 0.000000 1.620750 0.000000 
#    z 0.000000 0.000000 1.620920 
# 
# From -- ./inp_files/14102.got.cif
#   From: 2010.05.17/outbox.cif.g08.bks.cpg/sg20_8_cif.got.tgz:14102.got - 2010.06.03 22:52:26.
