data_PCOD9317474
_publ_section_title
;
Structure prediction by ZEFSAII (Michael W. Deem and Ramdas Pophale) SiO2 
 PCOD9317474
Probable space group: C 2 2 21
;
_chemical_formula_sum "Si O2"
_cell_formula_units_Z 40
_cell_length_a 12.917698
_cell_length_b 7.891396
_cell_length_c 16.633969
_cell_angle_alpha 90.000000
_cell_angle_beta 90.000000
_cell_angle_gamma 90.000000
_cell_volume 1695.644682
_symmetry_space_group_name_H-M "C 2 2 21"
_symmetry_group_IT_number 20
_symmetry_cell_setting 'orthorhombic'
loop_
_space_group_symop_operation_xyz
x,y,z
-x,-y,1/2+z
x,-y,-z
-x,y,1/2-z
1/2+x,1/2+y,z
1/2-x,1/2-y,1/2+z
1/2+x,1/2-y,-z
1/2-x,1/2+y,1/2-z
loop_
_atom_site_type_symbol
_atom_site_label
_atom_site_fract_x
_atom_site_fract_y
_atom_site_fract_z
Si Si1 0.881628 0.373528 0.890529
Si Si2 0.102120 0.080145 0.301410
Si Si3 0.390471 0.101527 0.416739
Si Si4 0.186187 0.438140 0.238409
Si Si5 0.828194 0.750918 0.948409
O O1 0.842554 0.412332 0.801226
O O2 0.871194 0.566308 0.924982
O O3 0.000196 0.314381 0.896298
O O4 0.824415 0.252595 0.954523
O O5 0.145080 0.261944 0.271514
O O6 0.192070 0.949493 0.278770
O O7 0.102563 0.113638 0.398248
O O8 0.000000 0.043466 0.250000
O O9 0.371010 0.971938 0.344773
O O10 0.289983 0.221356 0.419986
O O11 0.397468 0.000000 0.500000
#
# Coordination Sequence:
#
# PCOD9317474 Si02
#       5
#     8   8   8   8   8
#     4  10  19  39  59  81 117 155 185 235 291 335
#     4  10  21  39  61  85 119 153 194 238 290 339
#     4  11  21  35  62  85 114 151 192 237 288 337
#     4  10  22  37  61  90 114 154 197 236 287 353
#     4   9  20  35  57  88 110 147 198 227 279 354
#
# _framework density 23.589849999999998
#
# number of rings (size 3 to 8) (size 9 to 14) (size 15 to 20)
#    0.000    2.000    2.000    3.000    2.800    0.000 
#    0.000    7.000    4.400    0.000    0.000    0.000 
#    0.000    0.000    0.000    0.000    0.000    0.000 
#
# Total GULP energy -111689.027831 kJ/mol
# GULP energy per Si atom -5584.451392 kJ/mol
# Density = 2.353616 g / cm^3
# Si number density = 23.589850 Si / 1000 Ang^3
#
#
#
# Elastic Constant Matrix: (Units=GPa)
#
#
# Indices 1 2 3 4 5 6 
#
# 1 55.1587 0.0470 -18.6756 0.0000 0.0000 0.0000
# 2 0.0470 66.1837 24.5057 0.0000 0.0000 0.0000
# 3 -18.6756 24.5057 123.4538 0.0000 0.0000 0.0000
# 4 0.0000 0.0000 0.0000 -7.3110 0.0000 0.0000
# 5 0.0000 0.0000 0.0000 0.0000 1.9401 0.0000
# 6 0.0000 0.0000 0.0000 0.0000 0.0000 11.4754
#
#
#
# Elastic Compliance Matrix: (Units=1/GPa)
#
#
# Indices 1 2 3 4 5 6 
#
# 1 0.019192 -0.001175 0.003137 0.000000 0.000000 0.000000
# 2 -0.001175 0.016380 -0.003429 0.000000 0.000000 0.000000
# 3 0.003137 -0.003429 0.009255 0.000000 0.000000 0.000000
# 4 0.000000 0.000000 0.000000 -0.136781 0.000000 0.000000
# 5 0.000000 0.000000 0.000000 0.000000 0.515432 0.000000
# 6 0.000000 0.000000 0.000000 0.000000 0.000000 0.087143
#
#
# Mechanical properties :
#
#
# Convention : Reuss Voigt Hill
#
# Bulk Modulus (GPa) = 23.87051 28.50560 26.18805
# Shear Modulus (GPa) = 9.47829 17.14885 13.31357
#
# Velocity S-wave (km/s) = 2.00666 2.69914 2.37824
# Velocity P-wave (km/s) = 3.93825 4.67161 4.32052
#
# Compressibility (1/GPa) = 0.04189269
#
# Stress axis : x y z
#
# Youngs Moduli (GPa) = 52.10372 61.05003 108.04518
#
# Poissons Ratio (x) = 0.07173 -0.33889
# Poissons Ratio (y) = 0.06122 0.37051
# Poissons Ratio (z) = -0.16343 0.20935
#
# Static dielectric constant tensor:
#      x y z
#    x 1.880390 0.000000 0.000000 
#    y 0.000000 2.599100 0.000000 
#    z 0.000000 0.000000 2.242120 
# 
# From -- ./inp_files/24081.got.cif
#   From: 2010.05.17/outbox.cif.g08.bks.cpg/sg20_13_cif.got.tgz:24081.got - 2010.06.03 22:52:26.
