data_PCOD9317994
_publ_section_title
;
Structure prediction by ZEFSAII (Michael W. Deem and Ramdas Pophale) SiO2 
 PCOD9317994
Probable space group: C 2 2 21
;
_chemical_formula_sum "Si O2"
_cell_formula_units_Z 28
_cell_length_a 16.258127
_cell_length_b 12.659766
_cell_length_c 5.485801
_cell_angle_alpha 90.000000
_cell_angle_beta 90.000000
_cell_angle_gamma 90.000000
_cell_volume 1129.109963
_symmetry_space_group_name_H-M "C 2 2 21"
_symmetry_group_IT_number 20
_symmetry_cell_setting 'orthorhombic'
loop_
_space_group_symop_operation_xyz
x,y,z
-x,-y,1/2+z
x,-y,-z
-x,y,1/2-z
1/2+x,1/2+y,z
1/2-x,1/2-y,1/2+z
1/2+x,1/2-y,-z
1/2-x,1/2+y,1/2-z
loop_
_atom_site_type_symbol
_atom_site_label
_atom_site_fract_x
_atom_site_fract_y
_atom_site_fract_z
Si Si1 0.664519 0.525023 0.251716
Si Si2 0.500000 0.380049 0.250000
Si Si3 0.201820 0.249793 0.395887
Si Si4 0.034342 0.330797 0.501037
O O1 0.711156 0.500000 0.500000
O O2 0.580497 0.454759 0.247893
O O3 0.654790 0.649419 0.277922
O O4 0.707948 0.500000 0.000000
O O5 0.505576 0.293405 0.465177
O O6 0.256675 0.280294 0.158800
O O7 0.132264 0.331173 0.478357
O O8 0.000000 0.372184 0.250000
O O9 0.000000 0.379818 0.750000
#
# Coordination Sequence:
#
# PCOD9317994 Si02
#       4
#     8   4   8   8
#     4  12  22  36  59  89 117 163 212 249 298 373
#     4  10  22  32  64  96 112 154 208 260 310 344
#     4  12  25  40  52  86 142 181 194 248 326 396
#     4  10  20  37  59  89 117 163 212 250 297 373
#
# _framework density 24.798293999999999
#
# number of rings (size 3 to 8) (size 9 to 14) (size 15 to 20)
#    0.857    0.000    2.857    6.000    2.000    0.000 
#    0.000    0.000    0.000    0.000    0.000    0.000 
#    0.000   64.000    0.000    0.000    0.000    0.000 
#
# Total GULP energy -78010.099919 kJ/mol
# GULP energy per Si atom -5572.149994 kJ/mol
# Density = 2.474185 g / cm^3
# Si number density = 24.798294 Si / 1000 Ang^3
#
#
#
# Elastic Constant Matrix: (Units=GPa)
#
#
# Indices 1 2 3 4 5 6 
#
# 1 88.6052 13.4490 76.9581 0.0000 0.0000 0.0000
# 2 13.4490 71.5694 10.1991 0.0000 0.0000 0.0000
# 3 76.9581 10.1991 290.8358 0.0000 0.0000 0.0000
# 4 0.0000 0.0000 0.0000 -10.7106 0.0000 0.0000
# 5 0.0000 0.0000 0.0000 0.0000 42.8987 0.0000
# 6 0.0000 0.0000 0.0000 0.0000 0.0000 18.4320
#
#
#
# Elastic Compliance Matrix: (Units=1/GPa)
#
#
# Indices 1 2 3 4 5 6 
#
# 1 0.015011 -0.002266 -0.003893 0.000000 0.000000 0.000000
# 2 -0.002266 0.014385 0.000095 0.000000 0.000000 0.000000
# 3 -0.003893 0.000095 0.004465 0.000000 0.000000 0.000000
# 4 0.000000 0.000000 0.000000 -0.093365 0.000000 0.000000
# 5 0.000000 0.000000 0.000000 0.000000 0.023311 0.000000
# 6 0.000000 0.000000 0.000000 0.000000 0.000000 0.054254
#
#
# Mechanical properties :
#
#
# Convention : Reuss Voigt Hill
#
# Bulk Modulus (GPa) = 46.01142 72.46919 59.24030
# Shear Modulus (GPa) = 133.57830 33.48429 83.53130
#
# Velocity S-wave (km/s) = 7.34730 3.67858 5.81011
# Velocity P-wave (km/s) = 9.51692 6.87965 8.30365
#
# Compressibility (1/GPa) = 0.02173374
#
# Stress axis : x y z
#
# Youngs Moduli (GPa) = 66.61843 69.51828 223.96222
#
# Poissons Ratio (x) = 0.15753 0.87179
# Poissons Ratio (y) = 0.15096 -0.02132
# Poissons Ratio (z) = 0.25932 -0.00662
#
# Static dielectric constant tensor:
#      x y z
#    x 1.968380 0.000000 0.000000 
#    y 0.000000 2.029230 0.000000 
#    z 0.000000 0.000000 2.058490 
# 
# From -- ./inp_files/2370.got.cif
#   From: 2010.05.17/outbox.cif.g08.bks.cpg/sg20_2_cif.got.tgz:2370.got - 2010.06.03 22:52:26.
