data_PCOD9317426
_publ_section_title
;
Structure prediction by ZEFSAII (Michael W. Deem and Ramdas Pophale) SiO2 
 PCOD9317426
Probable space group: C 2 2 21
;
_chemical_formula_sum "Si O2"
_cell_formula_units_Z 48
_cell_length_a 15.433619
_cell_length_b 8.976916
_cell_length_c 17.121090
_cell_angle_alpha 90.000000
_cell_angle_beta 90.000000
_cell_angle_gamma 90.000000
_cell_volume 2372.063694
_symmetry_space_group_name_H-M "C 2 2 21"
_symmetry_group_IT_number 20
_symmetry_cell_setting 'orthorhombic'
loop_
_space_group_symop_operation_xyz
x,y,z
-x,-y,1/2+z
x,-y,-z
-x,y,1/2-z
1/2+x,1/2+y,z
1/2-x,1/2-y,1/2+z
1/2+x,1/2-y,-z
1/2-x,1/2+y,1/2-z
loop_
_atom_site_type_symbol
_atom_site_label
_atom_site_fract_x
_atom_site_fract_y
_atom_site_fract_z
Si Si1 0.870834 0.900157 0.821031
Si Si2 0.680608 0.268902 0.843510
Si Si3 0.462120 0.553890 0.413772
Si Si4 0.625031 0.762911 0.688832
Si Si5 0.058661 0.274506 0.860454
Si Si6 0.706973 0.950043 0.914739
O O1 0.862960 0.815908 0.738792
O O2 0.871730 0.081188 0.810733
O O3 0.785018 0.866168 0.871229
O O4 0.958024 0.868338 0.869385
O O5 0.623309 0.346552 0.909817
O O6 0.781160 0.318057 0.837720
O O7 0.683417 0.094691 0.863170
O O8 0.487452 0.500000 0.500000
O O9 0.438682 0.402808 0.368339
O O10 0.599657 0.811845 0.776084
O O11 0.543020 0.812446 0.637029
O O12 0.120665 0.352567 0.921817
O O13 0.737648 0.000000 0.000000
#
# Coordination Sequence:
#
# PCOD9317426 Si02
#       6
#     8   8   8   8   8   8
#     4  10  20  39  62  86 115 158 205 249 286 360
#     4  11  21  38  60  90 115 154 208 251 289 358
#     4  11  22  38  62  89 119 157 200 247 302 359
#     4   9  19  36  60  83 109 154 202 241 289 355
#     4  10  19  38  60  79 118 158 193 237 305 358
#     4  11  23  39  59  90 128 157 192 252 316 354
#
# _framework density 20.235543
#
# number of rings (size 3 to 8) (size 9 to 14) (size 15 to 20)
#    0.000    1.667    3.333    2.000    0.000    0.000 
#    6.000    0.833    0.000    0.000    0.000    0.000 
#    0.000    0.000    0.000    0.000    0.000    0.000 
#
# Total GULP energy -133921.933667 kJ/mol
# GULP energy per Si atom -5580.080569 kJ/mol
# Density = 2.018949 g / cm^3
# Si number density = 20.235543 Si / 1000 Ang^3
#
#
#
# Elastic Constant Matrix: (Units=GPa)
#
#
# Indices 1 2 3 4 5 6 
#
# 1 143.1284 32.7207 25.9904 0.0000 0.0000 0.0000
# 2 32.7207 24.3846 6.7267 0.0000 0.0000 0.0000
# 3 25.9904 6.7267 67.6491 0.0000 0.0000 0.0000
# 4 0.0000 0.0000 0.0000 24.0112 0.0000 0.0000
# 5 0.0000 0.0000 0.0000 0.0000 17.2460 0.0000
# 6 0.0000 0.0000 0.0000 0.0000 0.0000 23.2176
#
#
#
# Elastic Compliance Matrix: (Units=1/GPa)
#
#
# Indices 1 2 3 4 5 6 
#
# 1 0.010543 -0.013398 -0.002718 0.000000 0.000000 0.000000
# 2 -0.013398 0.059191 -0.000738 0.000000 0.000000 0.000000
# 3 -0.002718 -0.000738 0.015900 0.000000 0.000000 0.000000
# 4 0.000000 0.000000 0.000000 0.041647 0.000000 0.000000
# 5 0.000000 0.000000 0.000000 0.000000 0.057985 0.000000
# 6 0.000000 0.000000 0.000000 0.000000 0.000000 0.043071
#
#
# Mechanical properties :
#
#
# Convention : Reuss Voigt Hill
#
# Bulk Modulus (GPa) = 19.25841 40.67085 29.96463
# Shear Modulus (GPa) = 17.89843 24.20992 21.05417
#
# Velocity S-wave (km/s) = 2.97729 3.46266 3.22911
# Velocity P-wave (km/s) = 4.62134 6.01075 5.36124
#
# Compressibility (1/GPa) = 0.05192535
#
# Stress axis : x y z
#
# Youngs Moduli (GPa) = 94.84770 16.89445 62.89313
#
# Poissons Ratio (x) = 0.22635 0.17097
# Poissons Ratio (y) = 1.27074 0.04644
# Poissons Ratio (z) = 0.25784 0.01247
#
# Static dielectric constant tensor:
#      x y z
#    x 1.740500 0.000000 0.000000 
#    y 0.000000 1.709410 0.000000 
#    z 0.000000 0.000000 1.757740 
# 
# From -- ./inp_files/24794.got.cif
#   From: 2010.05.17/outbox.cif.g08.bks.cpg/sg20_13_cif.got.tgz:24794.got - 2010.06.03 22:52:26.
