data_PCOD9317790
_publ_section_title
;
Structure prediction by ZEFSAII (Michael W. Deem and Ramdas Pophale) SiO2 
 PCOD9317790
Probable space group: C 2 2 21
;
_chemical_formula_sum "Si O2"
_cell_formula_units_Z 48
_cell_length_a 9.770245
_cell_length_b 23.119295
_cell_length_c 9.858567
_cell_angle_alpha 90.000000
_cell_angle_beta 90.000000
_cell_angle_gamma 90.000000
_cell_volume 2226.864711
_symmetry_space_group_name_H-M "C 2 2 21"
_symmetry_group_IT_number 20
_symmetry_cell_setting 'orthorhombic'
loop_
_space_group_symop_operation_xyz
x,y,z
-x,-y,1/2+z
x,-y,-z
-x,y,1/2-z
1/2+x,1/2+y,z
1/2-x,1/2-y,1/2+z
1/2+x,1/2-y,-z
1/2-x,1/2+y,1/2-z
loop_
_atom_site_type_symbol
_atom_site_label
_atom_site_fract_x
_atom_site_fract_y
_atom_site_fract_z
Si Si1 0.165453 0.138612 0.268848
Si Si2 0.273555 0.870008 0.263277
Si Si3 0.774905 0.069479 0.500687
Si Si4 0.525735 0.211453 0.903206
Si Si5 0.402526 0.567131 0.972479
Si Si6 0.732643 0.258868 0.114666
O O1 0.168138 0.100316 0.404002
O O2 0.238741 0.198773 0.307367
O O3 0.000000 0.144960 0.250000
O O4 0.232914 0.103478 0.143202
O O5 0.311290 0.901436 0.122146
O O6 0.393728 0.847793 0.364697
O O7 0.172914 0.912366 0.339144
O O8 0.371942 0.782106 0.042698
O O9 0.935715 0.078825 0.535734
O O10 0.750750 0.000000 0.500000
O O11 0.500000 0.233825 0.750000
O O12 0.799945 0.189957 0.719570
O O13 0.620796 0.248454 0.000213
O O14 0.387198 0.500000 0.000000
#
# Coordination Sequence:
#
# PCOD9317790 Si02
#       6
#     8   8   8   8   8   8
#     4  10  20  35  61  90 142 185 224 290 353 414
#     4  11  22  36  65  94 136 178 232 289 352 414
#     4  10  22  36  59  99 141 184 235 302 353 408
#     4  10  24  44  67  99 142 179 232 284 347 430
#     4  10  20  36  59  95 139 185 244 297 349 416
#     4  11  24  41  69 101 139 180 234 280 363 424
#
# _framework density 21.554970000000001
#
# number of rings (size 3 to 8) (size 9 to 14) (size 15 to 20)
#    0.000    1.667    1.667    3.000    9.333    4.000 
#    0.000    2.500    0.000    9.000    0.000    0.000 
#    0.000    0.000    0.000    0.000    0.000    0.000 
#
# Total GULP energy -133850.132440 kJ/mol
# GULP energy per Si atom -5577.088852 kJ/mol
# Density = 2.150591 g / cm^3
# Si number density = 21.554970 Si / 1000 Ang^3
#
#
#
# Elastic Constant Matrix: (Units=GPa)
#
#
# Indices 1 2 3 4 5 6 
#
# 1 65.6863 21.9434 29.6741 0.0000 0.0000 0.0000
# 2 21.9434 90.4619 26.5194 0.0000 0.0000 0.0000
# 3 29.6741 26.5194 90.4286 0.0000 0.0000 0.0000
# 4 0.0000 0.0000 0.0000 38.6956 0.0000 0.0000
# 5 0.0000 0.0000 0.0000 0.0000 35.6240 0.0000
# 6 0.0000 0.0000 0.0000 0.0000 0.0000 33.7950
#
#
#
# Elastic Compliance Matrix: (Units=1/GPa)
#
#
# Indices 1 2 3 4 5 6 
#
# 1 0.018578 -0.002975 -0.005224 0.000000 0.000000 0.000000
# 2 -0.002975 0.012571 -0.002710 0.000000 0.000000 0.000000
# 3 -0.005224 -0.002710 0.013567 0.000000 0.000000 0.000000
# 4 0.000000 0.000000 0.000000 0.025843 0.000000 0.000000
# 5 0.000000 0.000000 0.000000 0.000000 0.028071 0.000000
# 6 0.000000 0.000000 0.000000 0.000000 0.000000 0.029590
#
#
# Mechanical properties :
#
#
# Convention : Reuss Voigt Hill
#
# Bulk Modulus (GPa) = 43.67279 44.76119 44.21699
# Shear Modulus (GPa) = 31.71182 32.85224 32.28203
#
# Velocity S-wave (km/s) = 3.83979 3.90823 3.87416
# Velocity P-wave (km/s) = 6.32169 6.41691 6.36948
#
# Compressibility (1/GPa) = 0.02289755
#
# Stress axis : x y z
#
# Youngs Moduli (GPa) = 53.82838 79.55102 73.70595
#
# Poissons Ratio (x) = 0.23666 0.38502
# Poissons Ratio (y) = 0.16014 0.19976
# Poissons Ratio (z) = 0.28119 0.21560
#
# Static dielectric constant tensor:
#      x y z
#    x 1.843080 0.000000 0.000000 
#    y 0.000000 1.814200 0.000000 
#    z 0.000000 0.000000 1.818400 
# 
# From -- ./inp_files/7410.got.cif
#   From: 2010.05.17/outbox.cif.g08.bks.cpg/sg20_4_cif.got.tgz:7410.got - 2010.06.03 22:52:26.
