data_PCOD9317927
_publ_section_title
;
Structure prediction by ZEFSAII (Michael W. Deem and Ramdas Pophale) SiO2 
 PCOD9317927
Probable space group: C 2 2 21
;
_chemical_formula_sum "Si O2"
_cell_formula_units_Z 60
_cell_length_a 9.028493
_cell_length_b 16.672912
_cell_length_c 18.507403
_cell_angle_alpha 90.000000
_cell_angle_beta 90.000000
_cell_angle_gamma 90.000000
_cell_volume 2785.942865
_symmetry_space_group_name_H-M "C 2 2 21"
_symmetry_group_IT_number 20
_symmetry_cell_setting 'orthorhombic'
loop_
_space_group_symop_operation_xyz
x,y,z
-x,-y,1/2+z
x,-y,-z
-x,y,1/2-z
1/2+x,1/2+y,z
1/2-x,1/2-y,1/2+z
1/2+x,1/2-y,-z
1/2-x,1/2+y,1/2-z
loop_
_atom_site_type_symbol
_atom_site_label
_atom_site_fract_x
_atom_site_fract_y
_atom_site_fract_z
Si Si1 0.715270 0.000000 0.000000
Si Si2 0.224176 0.580909 0.545285
Si Si3 0.971267 0.340246 0.536542
Si Si4 0.695690 0.380648 0.404729
Si Si5 0.018081 0.369289 0.332560
Si Si6 0.482700 0.330978 0.514120
Si Si7 0.057989 0.812227 0.824240
Si Si8 0.905946 0.735458 0.178236
O O1 0.814350 0.971828 0.067578
O O2 0.615715 0.076002 0.025155
O O3 0.207999 0.500000 0.500000
O O4 0.148668 0.586152 0.623968
O O5 0.390562 0.610205 0.537755
O O6 0.129486 0.644381 0.500029
O O7 0.921060 0.258517 0.497111
O O8 0.004835 0.315011 0.618210
O O9 0.644470 0.335459 0.478654
O O10 0.608096 0.328928 0.345790
O O11 0.865173 0.379648 0.376415
O O12 0.000000 0.397166 0.250000
O O13 0.033501 0.272448 0.329260
O O14 0.470136 0.352822 0.598136
O O15 0.234448 0.794140 0.817856
O O16 0.000000 0.851703 0.750000
O O17 0.000000 0.728973 0.250000
#
# Coordination Sequence:
#
# PCOD9317927 Si02
#       8
#     4   8   8   8   8   8   8   8
#     4  12  22  40  68 104 132 170 234 290 344 414
#     4  12  23  42  68  98 129 179 229 281 341 408
#     4  11  21  39  69  95 125 172 234 282 333 414
#     4  10  23  40  66  97 135 179 224 285 345 418
#     4  10  21  39  66  99 133 174 224 279 339 413
#     4  11  24  40  69  97 135 174 234 284 342 420
#     4  10  20  36  62  98 135 171 222 286 350 397
#     4  10  22  41  65 100 136 178 238 287 344 428
#
# _framework density 21.536695000000002
#
# number of rings (size 3 to 8) (size 9 to 14) (size 15 to 20)
#    0.000    1.333    4.667    0.800    2.800    7.467 
#    0.000    2.667    2.933    0.000    0.000    0.933 
#    0.000    0.000    0.000    0.000    0.000    0.000 
#
# Total GULP energy -167101.401651 kJ/mol
# GULP energy per Si atom -5570.046722 kJ/mol
# Density = 2.148768 g / cm^3
# Si number density = 21.536695 Si / 1000 Ang^3
#
#
#
# Elastic Constant Matrix: (Units=GPa)
#
#
# Indices 1 2 3 4 5 6 
#
# 1 91.8325 37.7609 57.4976 0.0000 0.0000 0.0000
# 2 37.7609 69.6198 27.4945 0.0000 0.0000 0.0000
# 3 57.4976 27.4945 182.2295 0.0000 0.0000 0.0000
# 4 0.0000 0.0000 0.0000 20.7519 0.0000 0.0000
# 5 0.0000 0.0000 0.0000 0.0000 19.8352 0.0000
# 6 0.0000 0.0000 0.0000 0.0000 0.0000 27.4504
#
#
#
# Elastic Compliance Matrix: (Units=1/GPa)
#
#
# Indices 1 2 3 4 5 6 
#
# 1 0.016456 -0.007310 -0.004089 0.000000 0.000000 0.000000
# 2 -0.007310 0.018521 -0.000488 0.000000 0.000000 0.000000
# 3 -0.004089 -0.000488 0.006851 0.000000 0.000000 0.000000
# 4 0.000000 0.000000 0.000000 0.048188 0.000000 0.000000
# 5 0.000000 0.000000 0.000000 0.000000 0.050415 0.000000
# 6 0.000000 0.000000 0.000000 0.000000 0.000000 0.036429
#
#
# Mechanical properties :
#
#
# Convention : Reuss Voigt Hill
#
# Bulk Modulus (GPa) = 55.39057 65.46534 60.42796
# Shear Modulus (GPa) = 24.19498 28.33610 26.26554
#
# Velocity S-wave (km/s) = 3.35540 3.63121 3.49603
# Velocity P-wave (km/s) = 6.38644 6.93138 6.66448
#
# Compressibility (1/GPa) = 0.01805362
#
# Stress axis : x y z
#
# Youngs Moduli (GPa) = 60.76930 53.99132 145.95514
#
# Poissons Ratio (x) = 0.39470 0.59683
# Poissons Ratio (y) = 0.44425 0.07121
# Poissons Ratio (z) = 0.24850 0.02634
#
# Static dielectric constant tensor:
#      x y z
#    x 1.888430 0.000000 0.000000 
#    y 0.000000 1.858620 0.000000 
#    z 0.000000 0.000000 1.828030 
# 
# From -- ./inp_files/23788.got.cif
#   From: 2010.05.17/outbox.cif.g08.bks.cpg/sg20_12_cif.got.tgz:23788.got - 2010.06.03 22:52:26.
