data_PCOD9317400
_publ_section_title
;
Structure prediction by ZEFSAII (Michael W. Deem and Ramdas Pophale) SiO2 
 PCOD9317400
Probable space group: C 2 2 21
;
_chemical_formula_sum "Si O2"
_cell_formula_units_Z 44
_cell_length_a 14.532721
_cell_length_b 7.137117
_cell_length_c 17.236830
_cell_angle_alpha 90.000000
_cell_angle_beta 90.000000
_cell_angle_gamma 90.000000
_cell_volume 1787.833829
_symmetry_space_group_name_H-M "C 2 2 21"
_symmetry_group_IT_number 20
_symmetry_cell_setting 'orthorhombic'
loop_
_space_group_symop_operation_xyz
x,y,z
-x,-y,1/2+z
x,-y,-z
-x,y,1/2-z
1/2+x,1/2+y,z
1/2-x,1/2-y,1/2+z
1/2+x,1/2-y,-z
1/2-x,1/2+y,1/2-z
loop_
_atom_site_type_symbol
_atom_site_label
_atom_site_fract_x
_atom_site_fract_y
_atom_site_fract_z
Si Si1 0.070413 0.000000 0.500000
Si Si2 0.116443 0.292304 0.814279
Si Si3 0.203015 0.129805 0.377669
Si Si4 0.466171 0.127125 0.073308
Si Si5 0.600531 0.364101 0.773371
Si Si6 0.285727 0.812739 0.844744
O O1 0.135784 0.863197 0.549969
O O2 0.018041 0.849316 0.447196
O O3 0.195130 0.289039 0.881047
O O4 0.170634 0.370523 0.738908
O O5 0.031089 0.401884 0.851444
O O6 0.088812 0.087659 0.784805
O O7 0.155969 0.208168 0.301336
O O8 0.205615 0.908011 0.360353
O O9 0.358689 0.098084 0.095481
O O10 0.491934 0.000000 0.000000
O O11 0.500000 0.292965 0.750000
O O12 0.675175 0.333071 0.842180
#
# Coordination Sequence:
#
# PCOD9317400 Si02
#       6
#     4   8   8   8   8   8
#     4  10  22  42  60  84 138 166 204 260 316 380
#     4  10  20  39  65  89 127 166 210 265 318 373
#     4   9  20  38  61  89 122 162 202 263 313 372
#     4  11  24  42  65  95 130 172 212 261 324 390
#     4  10  19  37  65  90 117 163 214 257 316 375
#     4   9  20  41  65  91 125 166 213 267 319 377
#
# _framework density 24.610786000000001
#
# number of rings (size 3 to 8) (size 9 to 14) (size 15 to 20)
#    0.000    2.182    0.000    3.818    3.818    0.000 
#    6.545    0.909    2.000    0.000    0.000    0.000 
#    0.000    0.000    0.000    0.000    0.000    0.000 
#
# Total GULP energy -122591.582148 kJ/mol
# GULP energy per Si atom -5572.344643 kJ/mol
# Density = 2.455477 g / cm^3
# Si number density = 24.610786 Si / 1000 Ang^3
#
#
#
# Elastic Constant Matrix: (Units=GPa)
#
#
# Indices 1 2 3 4 5 6 
#
# 1 151.4437 18.3900 18.5003 0.0000 0.0000 0.0000
# 2 18.3900 70.9183 18.3795 0.0000 0.0000 0.0000
# 3 18.5003 18.3795 64.9891 0.0000 0.0000 0.0000
# 4 0.0000 0.0000 0.0000 30.7269 0.0000 0.0000
# 5 0.0000 0.0000 0.0000 0.0000 13.8898 0.0000
# 6 0.0000 0.0000 0.0000 0.0000 0.0000 8.3466
#
#
#
# Elastic Compliance Matrix: (Units=1/GPa)
#
#
# Indices 1 2 3 4 5 6 
#
# 1 0.006967 -0.001395 -0.001589 0.000000 0.000000 0.000000
# 2 -0.001395 0.015495 -0.003985 0.000000 0.000000 0.000000
# 3 -0.001589 -0.003985 0.016966 0.000000 0.000000 0.000000
# 4 0.000000 0.000000 0.000000 0.032545 0.000000 0.000000
# 5 0.000000 0.000000 0.000000 0.000000 0.071995 0.000000
# 6 0.000000 0.000000 0.000000 0.000000 0.000000 0.119809
#
#
# Mechanical properties :
#
#
# Convention : Reuss Voigt Hill
#
# Bulk Modulus (GPa) = 39.22951 44.21008 41.71980
# Shear Modulus (GPa) = 17.46961 26.06475 21.76718
#
# Velocity S-wave (km/s) = 2.66716 3.25788 2.97721
# Velocity P-wave (km/s) = 5.04575 5.67048 5.36721
#
# Compressibility (1/GPa) = 0.02549101
#
# Stress axis : x y z
#
# Youngs Moduli (GPa) = 143.54289 64.53604 58.93976
#
# Poissons Ratio (x) = 0.09001 0.09364
# Poissons Ratio (y) = 0.20021 0.23488
# Poissons Ratio (z) = 0.22805 0.25719
#
# Static dielectric constant tensor:
#      x y z
#    x 2.076600 0.000000 0.000000 
#    y 0.000000 1.986570 0.000000 
#    z 0.000000 0.000000 2.072270 
# 
# From -- ./inp_files/24756.got.cif
#   From: 2010.05.17/outbox.cif.g08.bks.cpg/sg20_13_cif.got.tgz:24756.got - 2010.06.03 22:52:26.
