data_PCOD9317988
_publ_section_title
;
Structure prediction by ZEFSAII (Michael W. Deem and Ramdas Pophale) SiO2 
 PCOD9317988
Probable space group: C 2 2 21
;
_chemical_formula_sum "Si O2"
_cell_formula_units_Z 44
_cell_length_a 22.387470
_cell_length_b 16.391528
_cell_length_c 5.957334
_cell_angle_alpha 90.000000
_cell_angle_beta 90.000000
_cell_angle_gamma 90.000000
_cell_volume 2186.132126
_symmetry_space_group_name_H-M "C 2 2 21"
_symmetry_group_IT_number 20
_symmetry_cell_setting 'orthorhombic'
loop_
_space_group_symop_operation_xyz
x,y,z
-x,-y,1/2+z
x,-y,-z
-x,y,1/2-z
1/2+x,1/2+y,z
1/2-x,1/2-y,1/2+z
1/2+x,1/2-y,-z
1/2-x,1/2+y,1/2-z
loop_
_atom_site_type_symbol
_atom_site_label
_atom_site_fract_x
_atom_site_fract_y
_atom_site_fract_z
Si Si1 0.055815 0.176329 0.590145
Si Si2 0.967092 0.000000 0.000000
Si Si3 0.177747 0.770289 0.460992
Si Si4 0.000000 0.305956 0.250000
Si Si5 0.371617 0.860928 0.295585
Si Si6 0.773485 0.372430 0.668654
Si Si7 0.313384 0.000000 0.000000
O O1 0.118908 0.207657 0.682119
O O2 0.030420 0.245578 0.427093
O O3 0.000000 0.165532 0.750000
O O4 0.067093 0.086315 0.491523
O O5 0.000000 0.001233 0.250000
O O6 0.152683 0.722864 0.680782
O O7 0.218093 0.705622 0.330684
O O8 0.216122 0.849426 0.522199
O O9 0.057353 0.356133 0.162125
O O10 0.332368 0.876848 0.514957
O O11 0.354373 0.932227 0.120348
O O12 0.773077 0.453117 0.818108
#
# Coordination Sequence:
#
# PCOD9317988 Si02
#       7
#     8   4   8   4   8   8   4
#     4  10  20  37  58  90 125 159 209 263 320 392
#     4  10  20  38  59  86 133 168 202 268 336 386
#     4  10  21  36  64  90 117 163 219 253 321 377
#     4  10  20  38  66  90 112 164 214 250 320 384
#     4  10  21  40  62  88 122 160 206 267 310 382
#     4  11  20  41  62  89 125 167 206 268 309 383
#     4  10  24  40  57  90 129 166 204 258 330 366
#
# _framework density 20.126871000000001
#
# number of rings (size 3 to 8) (size 9 to 14) (size 15 to 20)
#    0.000    1.818    2.727    1.636    0.000    0.000 
#    6.545    0.909    0.000    0.000    0.000    0.000 
#    0.000    0.000    0.000    0.000    0.000    0.000 
#
# Total GULP energy -122519.701783 kJ/mol
# GULP energy per Si atom -5569.077354 kJ/mol
# Density = 2.008106 g / cm^3
# Si number density = 20.126871 Si / 1000 Ang^3
#
#
#
# Elastic Constant Matrix: (Units=GPa)
#
#
# Indices 1 2 3 4 5 6 
#
# 1 122.8111 32.1083 16.2077 0.0000 0.0000 0.0000
# 2 32.1083 80.2451 6.2109 0.0000 0.0000 0.0000
# 3 16.2077 6.2109 46.2475 0.0000 0.0000 0.0000
# 4 0.0000 0.0000 0.0000 229.4178 0.0000 0.0000
# 5 0.0000 0.0000 0.0000 0.0000 21.3211 0.0000
# 6 0.0000 0.0000 0.0000 0.0000 0.0000 15.5160
#
#
#
# Elastic Compliance Matrix: (Units=1/GPa)
#
#
# Indices 1 2 3 4 5 6 
#
# 1 0.009447 -0.003561 -0.002833 0.000000 0.000000 0.000000
# 2 -0.003561 0.013935 -0.000623 0.000000 0.000000 0.000000
# 3 -0.002833 -0.000623 0.022699 0.000000 0.000000 0.000000
# 4 0.000000 0.000000 0.000000 0.004359 0.000000 0.000000
# 5 0.000000 0.000000 0.000000 0.000000 0.046902 0.000000
# 6 0.000000 0.000000 0.000000 0.000000 0.000000 0.064450
#
#
# Mechanical properties :
#
#
# Convention : Reuss Voigt Hill
#
# Bulk Modulus (GPa) = 31.20374 39.81748 35.51061
# Shear Modulus (GPa) = 26.80844 66.23612 46.52228
#
# Velocity S-wave (km/s) = 3.65358 5.74289 4.81297
# Velocity P-wave (km/s) = 5.77368 7.98752 6.96907
#
# Compressibility (1/GPa) = 0.03204744
#
# Stress axis : x y z
#
# Youngs Moduli (GPa) = 105.84920 71.76224 44.05433
#
# Poissons Ratio (x) = 0.25554 0.12479
# Poissons Ratio (y) = 0.37692 0.02747
# Poissons Ratio (z) = 0.29984 0.04474
#
# Static dielectric constant tensor:
#      x y z
#    x 0.465250 0.000000 0.000000 
#    y 0.000000 1.737080 0.000000 
#    z 0.000000 0.000000 1.768970 
# 
# From -- ./inp_files/3735.got.cif
#   From: 2010.05.17/outbox.cif.g08.bks.cpg/sg20_2_cif.got.tgz:3735.got - 2010.06.03 22:52:26.
