data_PCOD9317218
_publ_section_title
;
Structure prediction by ZEFSAII (Michael W. Deem and Ramdas Pophale) SiO2 
 PCOD9317218
Probable space group: C 2 2 21
;
_chemical_formula_sum "Si O2"
_cell_formula_units_Z 32
_cell_length_a 5.964487
_cell_length_b 17.056861
_cell_length_c 15.720173
_cell_angle_alpha 90.000000
_cell_angle_beta 90.000000
_cell_angle_gamma 90.000000
_cell_volume 1599.298492
_symmetry_space_group_name_H-M "C 2 2 21"
_symmetry_group_IT_number 20
_symmetry_cell_setting 'orthorhombic'
loop_
_space_group_symop_operation_xyz
x,y,z
-x,-y,1/2+z
x,-y,-z
-x,y,1/2-z
1/2+x,1/2+y,z
1/2-x,1/2-y,1/2+z
1/2+x,1/2-y,-z
1/2-x,1/2+y,1/2-z
loop_
_atom_site_type_symbol
_atom_site_label
_atom_site_fract_x
_atom_site_fract_y
_atom_site_fract_z
Si Si1 0.187910 0.767562 0.886834
Si Si2 0.319073 0.598670 0.113317
Si Si3 0.874086 0.000000 0.500000
Si Si4 0.950404 0.643200 0.974713
Si Si5 0.500000 0.153398 0.250000
O O1 0.365436 0.790229 0.814553
O O2 0.985966 0.828472 0.876133
O O3 0.076481 0.682324 0.895153
O O4 0.311658 0.788643 0.975930
O O5 0.172251 0.598234 0.198573
O O6 0.473132 0.528887 0.078486
O O7 0.141760 0.614125 0.038655
O O8 0.720069 0.071212 0.533494
#
# Coordination Sequence:
#
# PCOD9317218 Si02
#       5
#     8   8   4   8   4
#     4  10  19  35  61  98 120 157 210 268 304 371
#     4  10  20  38  58 100 121 162 207 265 310 376
#     4  10  22  34  62 100 126 160 210 268 306 376
#     4  10  19  35  61  98 119 157 209 261 310 365
#     4  10  22  34  62 100 124 162 210 264 324 362
#
# _framework density 20.008773000000001
#
# number of rings (size 3 to 8) (size 9 to 14) (size 15 to 20)
#    0.000    2.000    2.500    1.500    0.000    0.000 
#    0.000    0.000    0.000    0.000  292.500    0.000 
#    0.000    0.000    0.000    0.000    0.000    0.000 
#
# Total GULP energy -89243.677646 kJ/mol
# GULP energy per Si atom -5577.729853 kJ/mol
# Density = 1.996323 g / cm^3
# Si number density = 20.008773 Si / 1000 Ang^3
#
#
#
# Elastic Constant Matrix: (Units=GPa)
#
#
# Indices 1 2 3 4 5 6 
#
# 1 127.6795 54.7172 45.0433 0.0000 0.0000 0.0000
# 2 54.7172 94.5143 50.1573 0.0000 0.0000 0.0000
# 3 45.0433 50.1573 74.9466 0.0000 0.0000 0.0000
# 4 0.0000 0.0000 0.0000 12.5874 0.0000 0.0000
# 5 0.0000 0.0000 0.0000 0.0000 46.2954 0.0000
# 6 0.0000 0.0000 0.0000 0.0000 0.0000 27.2053
#
#
#
# Elastic Compliance Matrix: (Units=1/GPa)
#
#
# Indices 1 2 3 4 5 6 
#
# 1 0.011025 -0.004445 -0.003651 0.000000 0.000000 0.000000
# 2 -0.004445 0.018200 -0.009509 0.000000 0.000000 0.000000
# 3 -0.003651 -0.009509 0.021901 0.000000 0.000000 0.000000
# 4 0.000000 0.000000 0.000000 0.079445 0.000000 0.000000
# 5 0.000000 0.000000 0.000000 0.000000 0.021600 0.000000
# 6 0.000000 0.000000 0.000000 0.000000 0.000000 0.036758
#
#
# Mechanical properties :
#
#
# Convention : Reuss Voigt Hill
#
# Bulk Modulus (GPa) = 62.83042 66.33066 64.58054
# Shear Modulus (GPa) = 21.79182 27.03244 24.41213
#
# Velocity S-wave (km/s) = 3.30375 3.67962 3.49674
# Velocity P-wave (km/s) = 6.78400 7.16070 6.97489
#
# Compressibility (1/GPa) = 0.01591586
#
# Stress axis : x y z
#
# Youngs Moduli (GPa) = 90.70127 54.94554 45.66039
#
# Poissons Ratio (x) = 0.24424 0.16672
# Poissons Ratio (y) = 0.40318 0.43416
# Poissons Ratio (z) = 0.33118 0.52245
#
# Static dielectric constant tensor:
#      x y z
#    x 1.743410 0.000000 0.000000 
#    y 0.000000 1.701980 0.000000 
#    z 0.000000 0.000000 1.729370 
# 
# From -- ./inp_files/17455.got.cif
#   From: 2010.05.17/outbox.cif.g08.bks.cpg/sg20_9_cif.got.tgz:17455.got - 2010.06.03 22:52:26.
