data_PCOD9317839
_publ_section_title
;
Structure prediction by ZEFSAII (Michael W. Deem and Ramdas Pophale) SiO2 
 PCOD9317839
Probable space group: C 2 2 21
;
_chemical_formula_sum "Si O2"
_cell_formula_units_Z 48
_cell_length_a 10.924081
_cell_length_b 19.652591
_cell_length_c 8.664900
_cell_angle_alpha 90.000000
_cell_angle_beta 90.000000
_cell_angle_gamma 90.000000
_cell_volume 1860.237019
_symmetry_space_group_name_H-M "C 2 2 21"
_symmetry_group_IT_number 20
_symmetry_cell_setting 'orthorhombic'
loop_
_space_group_symop_operation_xyz
x,y,z
-x,-y,1/2+z
x,-y,-z
-x,y,1/2-z
1/2+x,1/2+y,z
1/2-x,1/2-y,1/2+z
1/2+x,1/2-y,-z
1/2-x,1/2+y,1/2-z
loop_
_atom_site_type_symbol
_atom_site_label
_atom_site_fract_x
_atom_site_fract_y
_atom_site_fract_z
Si Si1 0.870045 0.787414 0.983017
Si Si2 0.468914 0.156941 0.923638
Si Si3 0.716520 0.427486 0.079240
Si Si4 0.847748 0.940329 0.063007
Si Si5 0.287885 0.679197 0.352617
Si Si6 0.620649 0.920721 0.837308
O O1 0.970653 0.729702 0.008748
O O2 0.855718 0.797577 0.800551
O O3 0.882945 0.861470 0.049701
O O4 0.754671 0.746319 0.055449
O O5 0.500000 0.169629 0.750000
O O6 0.340222 0.117428 0.910267
O O7 0.561240 0.108871 0.009591
O O8 0.674496 0.442572 0.252650
O O9 0.741111 0.500000 0.000000
O O10 0.645661 0.376120 0.962365
O O11 0.745454 0.948872 0.918628
O O12 0.937695 0.000000 0.000000
O O13 0.171633 0.636412 0.279589
O O14 0.500000 0.954693 0.750000
#
# Coordination Sequence:
#
# PCOD9317839 Si02
#       6
#     8   8   8   8   8   8
#     4  10  20  36  57  82 111 158 194 250 282 342
#     4  11  22  38  56  87 120 158 197 237 296 352
#     4  11  21  37  54  82 120 156 193 237 292 356
#     4  11  24  39  58  83 118 156 200 241 297 352
#     4  10  21  34  57  78 118 149 202 236 283 347
#     4  11  20  37  54  85 116 151 192 231 291 350
#
# _framework density 25.803163999999999
#
# number of rings (size 3 to 8) (size 9 to 14) (size 15 to 20)
#    0.000    1.333    5.000    4.000    2.333    0.667 
#    3.000    0.000    0.000    0.000    4.333    0.000 
#    0.000    0.000    0.000    0.000    0.000    0.000 
#
# Total GULP energy -133779.303665 kJ/mol
# GULP energy per Si atom -5574.137653 kJ/mol
# Density = 2.574444 g / cm^3
# Si number density = 25.803164 Si / 1000 Ang^3
#
#
#
# Elastic Constant Matrix: (Units=GPa)
#
#
# Indices 1 2 3 4 5 6 
#
# 1 34.2926 -14.4673 3.3984 0.0000 0.0000 0.0000
# 2 -14.4673 141.5093 54.0329 0.0000 0.0000 0.0000
# 3 3.3984 54.0329 143.4318 0.0000 0.0000 0.0000
# 4 0.0000 0.0000 0.0000 55.8967 0.0000 0.0000
# 5 0.0000 0.0000 0.0000 0.0000 -0.9909 0.0000
# 6 0.0000 0.0000 0.0000 0.0000 0.0000 8.0283
#
#
#
# Elastic Compliance Matrix: (Units=1/GPa)
#
#
# Indices 1 2 3 4 5 6 
#
# 1 0.031089 0.004041 -0.002259 0.000000 0.000000 0.000000
# 2 0.004041 0.008779 -0.003403 0.000000 0.000000 0.000000
# 3 -0.002259 -0.003403 0.008307 0.000000 0.000000 0.000000
# 4 0.000000 0.000000 0.000000 0.017890 0.000000 0.000000
# 5 0.000000 0.000000 0.000000 0.000000 -1.009145 0.000000
# 6 0.000000 0.000000 0.000000 0.000000 0.000000 0.124560
#
#
# Mechanical properties :
#
#
# Convention : Reuss Voigt Hill
#
# Bulk Modulus (GPa) = 22.25475 45.01797 33.63636
# Shear Modulus (GPa) = -6.24767 31.00477 12.37855
#
# Velocity S-wave (km/s) = -1.55773 3.47015 2.19265
# Velocity P-wave (km/s) = 2.32554 5.79142 4.41297
#
# Compressibility (1/GPa) = 0.04493422
#
# Stress axis : x y z
#
# Youngs Moduli (GPa) = 32.16524 113.90579 120.37404
#
# Poissons Ratio (x) = -0.46029 0.27192
# Poissons Ratio (y) = -0.12998 0.40963
# Poissons Ratio (z) = 0.07266 0.38762
#
# Static dielectric constant tensor:
#      x y z
#    x 2.394980 0.000000 0.000000 
#    y 0.000000 2.048740 0.000000 
#    z 0.000000 0.000000 2.021030 
# 
# From -- ./inp_files/8428.got.cif
#   From: 2010.05.17/outbox.cif.g08.bks.cpg/sg20_5_cif.got.tgz:8428.got - 2010.06.03 22:52:26.
