data_PCOD9317745
_publ_section_title
;
Structure prediction by ZEFSAII (Michael W. Deem and Ramdas Pophale) SiO2 
 PCOD9317745
Probable space group: C 2 2 21
;
_chemical_formula_sum "Si O2"
_cell_formula_units_Z 52
_cell_length_a 25.867356
_cell_length_b 11.711623
_cell_length_c 9.109551
_cell_angle_alpha 90.000000
_cell_angle_beta 90.000000
_cell_angle_gamma 90.000000
_cell_volume 2759.726829
_symmetry_space_group_name_H-M "C 2 2 21"
_symmetry_group_IT_number 20
_symmetry_cell_setting 'orthorhombic'
loop_
_space_group_symop_operation_xyz
x,y,z
-x,-y,1/2+z
x,-y,-z
-x,y,1/2-z
1/2+x,1/2+y,z
1/2-x,1/2-y,1/2+z
1/2+x,1/2-y,-z
1/2-x,1/2+y,1/2-z
loop_
_atom_site_type_symbol
_atom_site_label
_atom_site_fract_x
_atom_site_fract_y
_atom_site_fract_z
Si Si1 0.387671 0.699916 0.890081
Si Si2 0.258786 0.088620 0.687628
Si Si3 0.723372 0.703757 0.988899
Si Si4 0.109486 0.127974 0.942203
Si Si5 0.995974 0.876491 0.074759
Si Si6 0.174328 0.000000 0.500000
Si Si7 0.317510 0.921947 0.866124
O O1 0.387624 0.635294 0.733873
O O2 0.446791 0.706187 0.943445
O O3 0.356197 0.815544 0.858460
O O4 0.358523 0.615800 0.001786
O O5 0.267602 0.169080 0.547428
O O6 0.210277 0.011802 0.642371
O O7 0.306294 0.007445 0.732005
O O8 0.242709 0.169126 0.825470
O O9 0.760658 0.625179 0.088678
O O10 0.662223 0.683129 0.000267
O O11 0.051460 0.171613 0.978843
O O12 0.110083 0.000000 0.000000
O O13 0.000000 0.896431 0.250000
O O14 0.986430 0.000000 0.000000
O O15 0.336009 0.000000 0.000000
#
# Coordination Sequence:
#
# PCOD9317745 Si02
#       7
#     8   8   8   8   8   4   8
#     4  11  21  37  59  82 117 149 196 233 289 355
#     4  11  25  35  58  85 120 156 195 234 295 348
#     4  11  21  39  54  85 121 151 192 240 288 353
#     4  10  20  35  55  84 117 144 183 245 300 341
#     4   9  19  35  56  83 111 148 187 243 298 344
#     4  12  22  32  60  88 110 158 192 236 282 354
#     4  10  23  40  56  86 119 158 195 238 287 355
#
# _framework density 18.842444
#
# number of rings (size 3 to 8) (size 9 to 14) (size 15 to 20)
#    0.000    1.538    3.846    1.385    4.308    0.000 
#    0.000    0.000    0.000    5.538    0.000    0.000 
#    0.000    0.000    0.000    0.000    0.000    0.000 
#
# Total GULP energy -144897.111715 kJ/mol
# GULP energy per Si atom -5572.965835 kJ/mol
# Density = 1.879956 g / cm^3
# Si number density = 18.842444 Si / 1000 Ang^3
#
#
#
# Elastic Constant Matrix: (Units=GPa)
#
#
# Indices 1 2 3 4 5 6 
#
# 1 156.9561 59.1199 26.9296 0.0000 0.0000 0.0000
# 2 59.1199 98.9397 44.3010 0.0000 0.0000 0.0000
# 3 26.9296 44.3010 52.6942 0.0000 0.0000 0.0000
# 4 0.0000 0.0000 0.0000 35.9245 0.0000 0.0000
# 5 0.0000 0.0000 0.0000 0.0000 13.8170 0.0000
# 6 0.0000 0.0000 0.0000 0.0000 0.0000 -0.0337
#
#
#
# Elastic Compliance Matrix: (Units=1/GPa)
#
#
# Indices 1 2 3 4 5 6 
#
# 1 0.008222 -0.004862 -0.000115 0.000000 0.000000 0.000000
# 2 -0.004862 0.019083 -0.013559 0.000000 0.000000 0.000000
# 3 -0.000115 -0.013559 0.030436 0.000000 0.000000 0.000000
# 4 0.000000 0.000000 0.000000 0.027836 0.000000 0.000000
# 5 0.000000 0.000000 0.000000 0.000000 0.072375 0.000000
# 6 0.000000 0.000000 0.000000 0.000000 0.000000-29.632809
#
#
# Mechanical properties :
#
#
# Convention : Reuss Voigt Hill
#
# Bulk Modulus (GPa) = 48.37937 63.25456 55.81696
# Shear Modulus (GPa) = -0.16989 21.82419 10.82715
#
# Velocity S-wave (km/s) = -0.30060 3.40699 2.39971
# Velocity P-wave (km/s) = 5.06073 7.00856 6.11273
#
# Compressibility (1/GPa) = 0.02066997
#
# Stress axis : x y z
#
# Youngs Moduli (GPa) = 121.62357 52.40154 32.85634
#
# Poissons Ratio (x) = 0.25476 0.00377
# Poissons Ratio (y) = 0.59129 0.44551
# Poissons Ratio (z) = 0.01395 0.71052
#
# Static dielectric constant tensor:
#      x y z
#    x 1.724590 0.000000 0.000000 
#    y 0.000000 1.668520 0.000000 
#    z 0.000000 0.000000 1.691540 
# 
# From -- ./inp_files/11095.got.cif
#   From: 2010.05.17/outbox.cif.g08.bks.cpg/sg20_6_cif.got.tgz:11095.got - 2010.06.03 22:52:26.
