data_PCOD9317800
_publ_section_title
;
Structure prediction by ZEFSAII (Michael W. Deem and Ramdas Pophale) SiO2 
 PCOD9317800
Probable space group: C 2 2 21
;
_chemical_formula_sum "Si O2"
_cell_formula_units_Z 40
_cell_length_a 15.192361
_cell_length_b 12.665993
_cell_length_c 9.206502
_cell_angle_alpha 90.000000
_cell_angle_beta 90.000000
_cell_angle_gamma 90.000000
_cell_volume 1771.573466
_symmetry_space_group_name_H-M "C 2 2 21"
_symmetry_group_IT_number 20
_symmetry_cell_setting 'orthorhombic'
loop_
_space_group_symop_operation_xyz
x,y,z
-x,-y,1/2+z
x,-y,-z
-x,y,1/2-z
1/2+x,1/2+y,z
1/2-x,1/2-y,1/2+z
1/2+x,1/2-y,-z
1/2-x,1/2+y,1/2-z
loop_
_atom_site_type_symbol
_atom_site_label
_atom_site_fract_x
_atom_site_fract_y
_atom_site_fract_z
Si Si1 0.000000 0.447556 0.250000
Si Si2 0.870118 0.500000 0.000000
Si Si3 0.094676 0.904193 0.083284
Si Si4 0.608699 0.594718 0.595829
Si Si5 0.194253 0.732950 0.565912
Si Si6 0.861497 0.287558 0.391740
O O1 0.933285 0.376496 0.349713
O O2 0.065110 0.508771 0.359365
O O3 0.815962 0.390485 0.022090
O O4 0.141028 0.889595 0.238886
O O5 0.993581 0.932178 0.110470
O O6 0.091265 0.807809 0.972951
O O7 0.138547 0.000000 0.000000
O O8 0.649663 0.500000 0.500000
O O9 0.616380 0.703719 0.511380
O O10 0.181173 0.743252 0.737463
O O11 0.278770 0.796472 0.502776
#
# Coordination Sequence:
#
# PCOD9317800 Si02
#       6
#     4   4   8   8   8   8
#     4  10  24  46  70  98 136 188 236 284 356 430
#     4  10  24  44  70  98 140 180 230 288 352 428
#     4  10  20  35  64  91 127 176 221 279 344 405
#     4  10  21  39  62  97 133 173 227 280 340 413
#     4  11  24  42  64  97 135 177 226 291 351 410
#     4  11  23  42  66  94 136 178 234 285 347 415
#
# _framework density 22.578799
#
# number of rings (size 3 to 8) (size 9 to 14) (size 15 to 20)
#    0.000    1.600    0.000    4.800    1.400    8.000 
#    9.000    0.000    0.000    0.000    0.000    0.000 
#    0.000    0.000    0.000    0.000    0.000    0.000 
#
# Total GULP energy -111441.288662 kJ/mol
# GULP energy per Si atom -5572.064433 kJ/mol
# Density = 2.252741 g / cm^3
# Si number density = 22.578799 Si / 1000 Ang^3
#
#
#
# Elastic Constant Matrix: (Units=GPa)
#
#
# Indices 1 2 3 4 5 6 
#
# 1 78.2074 10.1753 23.0404 0.0000 0.0000 0.0000
# 2 10.1753 79.9389 46.5296 0.0000 0.0000 0.0000
# 3 23.0404 46.5296 134.0498 0.0000 0.0000 0.0000
# 4 0.0000 0.0000 0.0000 23.0277 0.0000 0.0000
# 5 0.0000 0.0000 0.0000 0.0000 41.2628 0.0000
# 6 0.0000 0.0000 0.0000 0.0000 0.0000 -0.5715
#
#
#
# Elastic Compliance Matrix: (Units=1/GPa)
#
#
# Indices 1 2 3 4 5 6 
#
# 1 0.013482 -0.000460 -0.002158 0.000000 0.000000 0.000000
# 2 -0.000460 0.015693 -0.005368 0.000000 0.000000 0.000000
# 3 -0.002158 -0.005368 0.009694 0.000000 0.000000 0.000000
# 4 0.000000 0.000000 0.000000 0.043426 0.000000 0.000000
# 5 0.000000 0.000000 0.000000 0.000000 0.024235 0.000000
# 6 0.000000 0.000000 0.000000 0.000000 0.000000 -1.749656
#
#
# Mechanical properties :
#
#
# Convention : Reuss Voigt Hill
#
# Bulk Modulus (GPa) = 43.67348 50.18743 46.93045
# Shear Modulus (GPa) = -3.08733 26.90717 11.90992
#
# Velocity S-wave (km/s) = -1.17061 3.45585 2.29919
# Velocity P-wave (km/s) = 4.19018 6.18060 5.28003
#
# Compressibility (1/GPa) = 0.02289719
#
# Stress axis : x y z
#
# Youngs Moduli (GPa) = 74.17288 63.72423 103.15679
#
# Poissons Ratio (x) = 0.02933 0.22256
# Poissons Ratio (y) = 0.03414 0.55374
# Poissons Ratio (z) = 0.16003 0.34207
#
# Static dielectric constant tensor:
#      x y z
#    x 2.000820 0.000000 0.000000 
#    y 0.000000 1.719430 0.000000 
#    z 0.000000 0.000000 2.052840 
# 
# From -- ./inp_files/9155.got.cif
#   From: 2010.05.17/outbox.cif.g08.bks.cpg/sg20_5_cif.got.tgz:9155.got - 2010.06.03 22:52:26.
