data_PCOD9317734
_publ_section_title
;
Structure prediction by ZEFSAII (Michael W. Deem and Ramdas Pophale) SiO2 
 PCOD9317734
Probable space group: C 2 2 21
;
_chemical_formula_sum "Si O2"
_cell_formula_units_Z 48
_cell_length_a 9.341809
_cell_length_b 13.592077
_cell_length_c 18.522225
_cell_angle_alpha 90.000000
_cell_angle_beta 90.000000
_cell_angle_gamma 90.000000
_cell_volume 2351.851874
_symmetry_space_group_name_H-M "C 2 2 21"
_symmetry_group_IT_number 20
_symmetry_cell_setting 'orthorhombic'
loop_
_space_group_symop_operation_xyz
x,y,z
-x,-y,1/2+z
x,-y,-z
-x,y,1/2-z
1/2+x,1/2+y,z
1/2-x,1/2-y,1/2+z
1/2+x,1/2-y,-z
1/2-x,1/2+y,1/2-z
loop_
_atom_site_type_symbol
_atom_site_label
_atom_site_fract_x
_atom_site_fract_y
_atom_site_fract_z
Si Si1 0.987937 0.033391 0.124016
Si Si2 0.727358 0.809936 0.315826
Si Si3 0.000000 0.186959 0.250000
Si Si4 0.785964 0.826644 0.958046
Si Si5 0.500000 0.385399 0.250000
Si Si6 0.187617 0.512094 0.598191
Si Si7 0.550792 0.153544 0.475436
O O1 0.019497 0.123030 0.178571
O O2 0.871740 0.075731 0.067781
O O3 0.939705 0.951818 0.183229
O O4 0.140391 0.002629 0.089205
O O5 0.634565 0.755976 0.257517
O O6 0.722923 0.744099 0.387771
O O7 0.675019 0.921260 0.330718
O O8 0.885104 0.819178 0.287970
O O9 0.621377 0.844266 0.980978
O O10 0.879590 0.761721 0.014610
O O11 0.118987 0.584704 0.538298
O O12 0.106518 0.408111 0.593903
#
# Coordination Sequence:
#
# PCOD9317734 Si02
#       7
#     8   8   4   8   4   8   8
#     4   9  18  35  56  75 104 141 176 217 269 318
#     4   9  19  34  52  77 106 135 175 219 264 317
#     4   9  18  32  54  79 102 136 174 217 268 320
#     4  10  20  35  55  80 106 140 182 220 263 316
#     4   9  18  34  54  79 106 136 170 215 272 320
#     4   9  19  36  52  73 106 139 175 219 261 310
#     4  10  20  35  53  76 106 139 178 218 261 309
#
# _framework density 20.409448999999999
#
# number of rings (size 3 to 8) (size 9 to 14) (size 15 to 20)
#    0.000    2.667    0.000    1.000    0.000    2.667 
#    0.000   13.333    0.000    0.000    0.000    0.000 
#    0.000    0.000    0.000    0.000    0.000    0.000 
#
# Total GULP energy -133627.035437 kJ/mol
# GULP energy per Si atom -5567.793143 kJ/mol
# Density = 2.036300 g / cm^3
# Si number density = 20.409449 Si / 1000 Ang^3
#
#
#
# Elastic Constant Matrix: (Units=GPa)
#
#
# Indices 1 2 3 4 5 6 
#
# 1 104.8038 35.7564 22.7146 0.0000 0.0000 0.0000
# 2 35.7564 41.1546 17.0357 0.0000 0.0000 0.0000
# 3 22.7146 17.0357 32.3213 0.0000 0.0000 0.0000
# 4 0.0000 0.0000 0.0000 -16.7437 0.0000 0.0000
# 5 0.0000 0.0000 0.0000 0.0000 32.8505 0.0000
# 6 0.0000 0.0000 0.0000 0.0000 0.0000 43.7854
#
#
#
# Elastic Compliance Matrix: (Units=1/GPa)
#
#
# Indices 1 2 3 4 5 6 
#
# 1 0.014033 -0.010373 -0.004395 0.000000 0.000000 0.000000
# 2 -0.010373 0.038748 -0.013133 0.000000 0.000000 0.000000
# 3 -0.004395 -0.013133 0.040950 0.000000 0.000000 0.000000
# 4 0.000000 0.000000 0.000000 -0.059724 0.000000 0.000000
# 5 0.000000 0.000000 0.000000 0.000000 0.030441 0.000000
# 6 0.000000 0.000000 0.000000 0.000000 0.000000 0.022839
#
#
# Mechanical properties :
#
#
# Convention : Reuss Voigt Hill
#
# Bulk Modulus (GPa) = 26.36501 36.58810 31.47656
# Shear Modulus (GPa) = 32.10671 18.82996 25.46833
#
# Velocity S-wave (km/s) = 3.97057 3.04074 3.53635
# Velocity P-wave (km/s) = 5.82809 5.50401 5.66837
#
# Compressibility (1/GPa) = 0.03792906
#
# Stress axis : x y z
#
# Youngs Moduli (GPa) = 71.25931 25.80806 24.42021
#
# Poissons Ratio (x) = 0.26772 0.10732
# Poissons Ratio (y) = 0.73920 0.32070
# Poissons Ratio (z) = 0.31316 0.33893
#
# Static dielectric constant tensor:
#      x y z
#    x 1.691160 0.000000 0.000000 
#    y 0.000000 1.775390 0.000000 
#    z 0.000000 0.000000 1.599330 
# 
# From -- ./inp_files/23533.got.cif
#   From: 2010.05.17/outbox.cif.g08.bks.cpg/sg20_12_cif.got.tgz:23533.got - 2010.06.03 22:52:26.
