data_PCOD9317482
_publ_section_title
;
Structure prediction by ZEFSAII (Michael W. Deem and Ramdas Pophale) SiO2 
 PCOD9317482
Probable space group: C 2 2 21
;
_chemical_formula_sum "Si O2"
_cell_formula_units_Z 44
_cell_length_a 11.503415
_cell_length_b 7.273231
_cell_length_c 18.862658
_cell_angle_alpha 90.000000
_cell_angle_beta 90.000000
_cell_angle_gamma 90.000000
_cell_volume 1578.181905
_symmetry_space_group_name_H-M "C 2 2 21"
_symmetry_group_IT_number 20
_symmetry_cell_setting 'orthorhombic'
loop_
_space_group_symop_operation_xyz
x,y,z
-x,-y,1/2+z
x,-y,-z
-x,y,1/2-z
1/2+x,1/2+y,z
1/2-x,1/2-y,1/2+z
1/2+x,1/2-y,-z
1/2-x,1/2+y,1/2-z
loop_
_atom_site_type_symbol
_atom_site_label
_atom_site_fract_x
_atom_site_fract_y
_atom_site_fract_z
Si Si1 0.677504 0.796988 0.467661
Si Si2 0.209524 0.490844 0.801890
Si Si3 0.891713 0.914353 0.304977
Si Si4 0.134527 0.500000 0.000000
Si Si5 0.515262 0.935897 0.361323
Si Si6 0.419065 0.657196 0.891889
O O1 0.789956 0.671648 0.473842
O O2 0.622487 0.813237 0.389000
O O3 0.594798 0.699633 0.525766
O O4 0.698014 0.000000 0.500000
O O5 0.160604 0.288418 0.813812
O O6 0.284069 0.481600 0.729753
O O7 0.087284 0.605853 0.804561
O O8 0.301621 0.572024 0.858621
O O9 0.963655 0.958238 0.375914
O O10 0.000000 0.922328 0.250000
O O11 0.057992 0.556912 0.933857
O O12 0.564909 0.143210 0.353658
#
# Coordination Sequence:
#
# PCOD9317482 Si02
#       6
#     8   8   8   4   8   8
#     4  10  21  39  59  91 126 160 206 256 311 382
#     4  10  19  39  63  83 120 164 197 256 312 354
#     4   9  20  37  59  83 113 156 202 250 306 357
#     4  12  20  38  64  90 126 170 204 248 318 376
#     4  10  20  38  61  87 128 159 198 264 307 370
#     4   9  17  36  61  81 116 159 194 250 316 355
#
# _framework density 27.880181
#
# number of rings (size 3 to 8) (size 9 to 14) (size 15 to 20)
#    0.000    2.182    4.545    0.000    0.000    0.000 
#    4.909   20.909    0.000    0.000    0.000    0.000 
#    0.000    0.000    0.000    0.000    0.000    0.000 
#
# Total GULP energy -123115.596143 kJ/mol
# GULP energy per Si atom -5596.163461 kJ/mol
# Density = 2.781672 g / cm^3
# Si number density = 27.880181 Si / 1000 Ang^3
#
#
#
# Elastic Constant Matrix: (Units=GPa)
#
#
# Indices 1 2 3 4 5 6 
#
# 1 181.5531 62.0292 50.8261 0.0000 0.0000 0.0000
# 2 62.0292 108.5752 13.5460 0.0000 0.0000 0.0000
# 3 50.8261 13.5460 41.9181 0.0000 0.0000 0.0000
# 4 0.0000 0.0000 0.0000 29.7993 0.0000 0.0000
# 5 0.0000 0.0000 0.0000 0.0000 73.7517 0.0000
# 6 0.0000 0.0000 0.0000 0.0000 0.0000 57.1197
#
#
#
# Elastic Compliance Matrix: (Units=1/GPa)
#
#
# Indices 1 2 3 4 5 6 
#
# 1 0.010003 -0.004378 -0.010714 0.000000 0.000000 0.000000
# 2 -0.004378 0.011513 0.001588 0.000000 0.000000 0.000000
# 3 -0.010714 0.001588 0.036334 0.000000 0.000000 0.000000
# 4 0.000000 0.000000 0.000000 0.033558 0.000000 0.000000
# 5 0.000000 0.000000 0.000000 0.000000 0.013559 0.000000
# 6 0.000000 0.000000 0.000000 0.000000 0.000000 0.017507
#
#
# Mechanical properties :
#
#
# Convention : Reuss Voigt Hill
#
# Bulk Modulus (GPa) = 32.42355 64.98323 48.70339
# Shear Modulus (GPa) = 31.29607 45.84382 38.56995
#
# Velocity S-wave (km/s) = 3.35404 4.05942 3.72347
# Velocity P-wave (km/s) = 5.16278 6.73279 5.99936
#
# Compressibility (1/GPa) = 0.03084178
#
# Stress axis : x y z
#
# Youngs Moduli (GPa) = 99.96607 86.85557 27.52236
#
# Poissons Ratio (x) = 0.38027 0.29488
# Poissons Ratio (y) = 0.43767 -0.04371
# Poissons Ratio (z) = 1.07107 -0.13793
#
# Static dielectric constant tensor:
#      x y z
#    x 2.181950 0.000000 0.000000 
#    y 0.000000 2.234320 0.000000 
#    z 0.000000 0.000000 2.264640 
# 
# From -- ./inp_files/28642.got.cif
#   From: 2010.05.17/outbox.cif.g08.bks.cpg/sg20_15_cif.got.tgz:28642.got - 2010.06.03 22:52:26.
