data_PCOD9317704
_publ_section_title
;
Structure prediction by ZEFSAII (Michael W. Deem and Ramdas Pophale) SiO2 
 PCOD9317704
Probable space group: C 2 2 21
;
_chemical_formula_sum "Si O2"
_cell_formula_units_Z 60
_cell_length_a 12.890680
_cell_length_b 13.930299
_cell_length_c 15.026300
_cell_angle_alpha 90.000000
_cell_angle_beta 90.000000
_cell_angle_gamma 90.000000
_cell_volume 2698.288119
_symmetry_space_group_name_H-M "C 2 2 21"
_symmetry_group_IT_number 20
_symmetry_cell_setting 'orthorhombic'
loop_
_space_group_symop_operation_xyz
x,y,z
-x,-y,1/2+z
x,-y,-z
-x,y,1/2-z
1/2+x,1/2+y,z
1/2-x,1/2-y,1/2+z
1/2+x,1/2-y,-z
1/2-x,1/2+y,1/2-z
loop_
_atom_site_type_symbol
_atom_site_label
_atom_site_fract_x
_atom_site_fract_y
_atom_site_fract_z
Si Si1 0.904907 0.095896 0.696897
Si Si2 0.138263 0.222062 0.976157
Si Si3 0.528002 0.575512 0.081547
Si Si4 0.172607 0.203722 0.372764
Si Si5 0.854547 0.616816 0.258984
Si Si6 0.809383 0.415357 0.183536
Si Si7 0.333670 0.000000 0.000000
Si Si8 0.470445 0.843971 0.903046
O O1 0.884866 0.166443 0.615497
O O2 0.794025 0.093455 0.743041
O O3 0.000000 0.136333 0.750000
O O4 0.938948 0.991705 0.662671
O O5 0.248222 0.273728 0.956734
O O6 0.033391 0.285051 0.977661
O O7 0.123544 0.145518 0.054602
O O8 0.425465 0.638264 0.101815
O O9 0.509211 0.500000 0.000000
O O10 0.244645 0.149054 0.299940
O O11 0.144040 0.309803 0.333119
O O12 0.865432 0.507133 0.224577
O O13 0.887409 0.683562 0.174769
O O14 0.934936 0.623762 0.339946
O O15 0.776282 0.454112 0.084452
O O16 0.407400 0.920058 0.959359
#
# Coordination Sequence:
#
# PCOD9317704 Si02
#       8
#     8   8   8   8   8   8   4   8
#     4  10  21  34  60  82 115 153 195 243 298 343
#     4   9  20  34  58  86 109 154 198 238 282 364
#     4  10  21  39  58  86 124 154 194 252 304 347
#     4  10  20  36  61  83 122 151 201 245 301 352
#     4   9  19  36  57  85 113 151 195 244 285 353
#     4  10  21  34  62  85 118 153 201 243 293 359
#     4  10  20  34  58  86 110 158 190 244 294 350
#     4   9  18  35  59  80 114 145 198 236 287 349
#
# _framework density 22.236321
#
# number of rings (size 3 to 8) (size 9 to 14) (size 15 to 20)
#    0.000    2.400    0.000    1.600   10.267    0.000 
#    4.800    0.000   23.467    0.000    0.000    0.000 
#    0.000    0.000    0.000    0.000    0.000    0.000 
#
# Total GULP energy -167081.094096 kJ/mol
# GULP energy per Si atom -5569.369803 kJ/mol
# Density = 2.218571 g / cm^3
# Si number density = 22.236321 Si / 1000 Ang^3
#
#
#
# Elastic Constant Matrix: (Units=GPa)
#
#
# Indices 1 2 3 4 5 6 
#
# 1 48.4575 34.5009 -2.0350 0.0000 0.0000 0.0000
# 2 34.5009 110.4488 8.2214 0.0000 0.0000 0.0000
# 3 -2.0350 8.2214 38.1373 0.0000 0.0000 0.0000
# 4 0.0000 0.0000 0.0000 25.0211 0.0000 0.0000
# 5 0.0000 0.0000 0.0000 0.0000 37.9208 0.0000
# 6 0.0000 0.0000 0.0000 0.0000 0.0000 38.3428
#
#
#
# Elastic Compliance Matrix: (Units=1/GPa)
#
#
# Indices 1 2 3 4 5 6 
#
# 1 0.026943 -0.008662 0.003305 0.000000 0.000000 0.000000
# 2 -0.008662 0.011986 -0.003046 0.000000 0.000000 0.000000
# 3 0.003305 -0.003046 0.027054 0.000000 0.000000 0.000000
# 4 0.000000 0.000000 0.000000 0.039966 0.000000 0.000000
# 5 0.000000 0.000000 0.000000 0.000000 0.026371 0.000000
# 6 0.000000 0.000000 0.000000 0.000000 0.000000 0.026080
#
#
# Mechanical properties :
#
#
# Convention : Reuss Voigt Hill
#
# Bulk Modulus (GPa) = 20.33488 30.93538 25.63513
# Shear Modulus (GPa) = 26.09608 30.68069 28.38838
#
# Velocity S-wave (km/s) = 3.42947 3.71854 3.57692
# Velocity P-wave (km/s) = 4.98462 5.69025 5.34908
#
# Compressibility (1/GPa) = 0.04917659
#
# Stress axis : x y z
#
# Youngs Moduli (GPa) = 37.11579 83.42719 36.96305
#
# Poissons Ratio (x) = 0.72266 -0.12216
# Poissons Ratio (y) = 0.32150 0.11260
# Poissons Ratio (z) = -0.12267 0.25413
#
# Static dielectric constant tensor:
#      x y z
#    x 1.979150 0.000000 0.000000 
#    y 0.000000 1.848810 0.000000 
#    z 0.000000 0.000000 1.863820 
# 
# From -- ./inp_files/20931.got.cif
#   From: 2010.05.17/outbox.cif.g08.bks.cpg/sg20_11_cif.got.tgz:20931.got - 2010.06.03 22:52:26.
