data_PCOD9317385
_publ_section_title
;
Structure prediction by ZEFSAII (Michael W. Deem and Ramdas Pophale) SiO2 
 PCOD9317385
Probable space group: C 2 2 21
;
_chemical_formula_sum "Si O2"
_cell_formula_units_Z 32
_cell_length_a 10.725458
_cell_length_b 9.674903
_cell_length_c 12.524067
_cell_angle_alpha 90.000000
_cell_angle_beta 90.000000
_cell_angle_gamma 90.000000
_cell_volume 1299.594451
_symmetry_space_group_name_H-M "C 2 2 21"
_symmetry_group_IT_number 20
_symmetry_cell_setting 'orthorhombic'
loop_
_space_group_symop_operation_xyz
x,y,z
-x,-y,1/2+z
x,-y,-z
-x,y,1/2-z
1/2+x,1/2+y,z
1/2-x,1/2-y,1/2+z
1/2+x,1/2-y,-z
1/2-x,1/2+y,1/2-z
loop_
_atom_site_type_symbol
_atom_site_label
_atom_site_fract_x
_atom_site_fract_y
_atom_site_fract_z
Si Si1 0.418177 0.474157 0.118356
Si Si2 0.794177 0.601930 0.282908
Si Si3 0.467027 0.836868 0.908441
Si Si4 0.565462 0.770919 0.351739
O O1 0.303516 0.478301 0.199828
O O2 0.482441 0.327357 0.118335
O O3 0.496269 0.615503 0.135442
O O4 0.363500 0.500000 0.000000
O O5 0.851633 0.615937 0.165533
O O6 0.705586 0.728623 0.320793
O O7 0.908026 0.594333 0.365306
O O8 0.444727 0.844834 0.034950
O O9 0.500000 0.838091 0.250000
#
# Coordination Sequence:
#
# PCOD9317385 Si02
#       4
#     8   8   8   8
#     4   8  18  36  58  90 121 161 206 265 312 370
#     4   9  21  33  62  94 117 166 215 250 328 384
#     4  10  19  37  63  85 129 170 201 273 325 363
#     4   9  20  33  59  91 124 163 216 260 309 388
#
# _framework density 24.623066000000001
#
# number of rings (size 3 to 8) (size 9 to 14) (size 15 to 20)
#    1.500    1.500    0.000    0.000    7.000    0.000 
#    0.000    0.000   16.500    0.000    0.000    0.000 
#    0.000    0.000    0.000    0.000    0.000    0.000 
#
# Total GULP energy -89308.512253 kJ/mol
# GULP energy per Si atom -5581.782016 kJ/mol
# Density = 2.456702 g / cm^3
# Si number density = 24.623066 Si / 1000 Ang^3
#
#
#
# Elastic Constant Matrix: (Units=GPa)
#
#
# Indices 1 2 3 4 5 6 
#
# 1 83.8804 4.4729 67.4211 0.0000 0.0000 0.0000
# 2 4.4729 85.3018 20.5807 0.0000 0.0000 0.0000
# 3 67.4211 20.5807 238.8709 0.0000 0.0000 0.0000
# 4 0.0000 0.0000 0.0000 40.0631 0.0000 0.0000
# 5 0.0000 0.0000 0.0000 0.0000 37.3674 0.0000
# 6 0.0000 0.0000 0.0000 0.0000 0.0000 -2.2690
#
#
#
# Elastic Compliance Matrix: (Units=1/GPa)
#
#
# Indices 1 2 3 4 5 6 
#
# 1 0.015425 0.000247 -0.004375 0.000000 0.000000 0.000000
# 2 0.000247 0.011976 -0.001101 0.000000 0.000000 0.000000
# 3 -0.004375 -0.001101 0.005516 0.000000 0.000000 0.000000
# 4 0.000000 0.000000 0.000000 0.024961 0.000000 0.000000
# 5 0.000000 0.000000 0.000000 0.000000 0.026761 0.000000
# 6 0.000000 0.000000 0.000000 0.000000 0.000000 -0.440721
#
#
# Mechanical properties :
#
#
# Convention : Reuss Voigt Hill
#
# Bulk Modulus (GPa) = 44.52830 65.88919 55.20874
# Shear Modulus (GPa) = -14.78693 36.07085 10.64196
#
# Velocity S-wave (km/s) = -2.45323 3.83158 2.08118
# Velocity P-wave (km/s) = 3.17786 6.81116 5.31463
#
# Compressibility (1/GPa) = 0.02245763
#
# Stress axis : x y z
#
# Youngs Moduli (GPa) = 64.82949 83.50111 181.28771
#
# Poissons Ratio (x) = -0.02060 0.79313
# Poissons Ratio (y) = -0.01599 0.19968
# Poissons Ratio (z) = 0.28363 0.09197
#
# Static dielectric constant tensor:
#      x y z
#    x 1.882250 0.000000 0.000000 
#    y 0.000000 2.092440 0.000000 
#    z 0.000000 0.000000 1.958460 
# 
# From -- ./inp_files/14762.got.cif
#   From: 2010.05.17/outbox.cif.g08.bks.cpg/sg20_8_cif.got.tgz:14762.got - 2010.06.03 22:52:26.
