data_PCOD9317261
_publ_section_title
;
Structure prediction by ZEFSAII (Michael W. Deem and Ramdas Pophale) SiO2 
 PCOD9317261
Probable space group: C 2 2 21
;
_chemical_formula_sum "Si O2"
_cell_formula_units_Z 56
_cell_length_a 8.111766
_cell_length_b 15.872590
_cell_length_c 22.806564
_cell_angle_alpha 90.000000
_cell_angle_beta 90.000000
_cell_angle_gamma 90.000000
_cell_volume 2936.453124
_symmetry_space_group_name_H-M "C 2 2 21"
_symmetry_group_IT_number 20
_symmetry_cell_setting 'orthorhombic'
loop_
_space_group_symop_operation_xyz
x,y,z
-x,-y,1/2+z
x,-y,-z
-x,y,1/2-z
1/2+x,1/2+y,z
1/2-x,1/2-y,1/2+z
1/2+x,1/2-y,-z
1/2-x,1/2+y,1/2-z
loop_
_atom_site_type_symbol
_atom_site_label
_atom_site_fract_x
_atom_site_fract_y
_atom_site_fract_z
Si Si1 0.087340 0.802243 0.414323
Si Si2 0.195030 0.278619 0.974993
Si Si3 0.191072 0.914409 0.730150
Si Si4 0.071935 0.159382 0.378414
Si Si5 0.707438 0.482614 0.376884
Si Si6 0.012101 0.552675 0.445883
Si Si7 0.198724 0.348834 0.650107
O O1 0.919979 0.796349 0.452007
O O2 0.229069 0.774638 0.460733
O O3 0.128694 0.893357 0.389622
O O4 0.086472 0.732425 0.363007
O O5 0.083390 0.363094 0.968223
O O6 0.346210 0.288070 0.929621
O O7 0.182351 0.840676 0.680887
O O8 0.299521 0.888961 0.785394
O O9 0.000000 0.926950 0.750000
O O10 0.242128 0.995229 0.691423
O O11 0.886629 0.179037 0.361697
O O12 0.086796 0.059991 0.395232
O O13 0.872719 0.496692 0.413973
O O14 0.081164 0.500000 0.500000
O O15 0.141964 0.583178 0.397867
#
# Coordination Sequence:
#
# PCOD9317261 Si02
#       7
#     8   8   8   8   8   8   8
#     4  11  21  35  56  88 118 154 189 253 297 353
#     4  10  20  36  55  85 119 152 192 236 309 350
#     4   8  17  37  61  77 108 155 200 238 287 360
#     4   8  18  38  59  77 108 163 193 240 285 363
#     4   9  19  36  61  76 115 152 197 240 292 339
#     4  10  19  36  57  86 117 156 195 239 289 370
#     4  10  20  36  59  82 117 151 196 242 304 344
#
# _framework density 19.070627000000002
#
# number of rings (size 3 to 8) (size 9 to 14) (size 15 to 20)
#    0.857    1.714    1.429    0.857    0.000    0.571 
#    7.714    1.429    9.429    0.000    0.000    0.000 
#    0.000    0.000    0.000    0.000    0.000    0.000 
#
# Total GULP energy -155931.996652 kJ/mol
# GULP energy per Si atom -5568.999880 kJ/mol
# Density = 1.902722 g / cm^3
# Si number density = 19.070627 Si / 1000 Ang^3
#
#
#
# Elastic Constant Matrix: (Units=GPa)
#
#
# Indices 1 2 3 4 5 6 
#
# 1 24.8844 10.2120 8.3655 0.0000 0.0000 0.0000
# 2 10.2120 53.9753 37.3160 0.0000 0.0000 0.0000
# 3 8.3655 37.3160 105.5970 0.0000 0.0000 0.0000
# 4 0.0000 0.0000 0.0000 30.1083 0.0000 0.0000
# 5 0.0000 0.0000 0.0000 0.0000 33.4274 0.0000
# 6 0.0000 0.0000 0.0000 0.0000 0.0000 19.5666
#
#
#
# Elastic Compliance Matrix: (Units=1/GPa)
#
#
# Indices 1 2 3 4 5 6 
#
# 1 0.043609 -0.007758 -0.000713 0.000000 0.000000 0.000000
# 2 -0.007758 0.025897 -0.008537 0.000000 0.000000 0.000000
# 3 -0.000713 -0.008537 0.012543 0.000000 0.000000 0.000000
# 4 0.000000 0.000000 0.000000 0.033213 0.000000 0.000000
# 5 0.000000 0.000000 0.000000 0.000000 0.029916 0.000000
# 6 0.000000 0.000000 0.000000 0.000000 0.000000 0.051108
#
#
# Mechanical properties :
#
#
# Convention : Reuss Voigt Hill
#
# Bulk Modulus (GPa) = 20.81878 32.91597 26.86737
# Shear Modulus (GPa) = 20.29943 25.19134 22.74538
#
# Velocity S-wave (km/s) = 3.26611 3.63843 3.45728
# Velocity P-wave (km/s) = 5.01634 5.91172 5.48234
#
# Compressibility (1/GPa) = 0.04803356
#
# Stress axis : x y z
#
# Youngs Moduli (GPa) = 22.93096 38.61500 79.72423
#
# Poissons Ratio (x) = 0.29956 0.05687
# Poissons Ratio (y) = 0.17789 0.68059
# Poissons Ratio (z) = 0.01636 0.32965
#
# Static dielectric constant tensor:
#      x y z
#    x 1.682520 0.000000 0.000000 
#    y 0.000000 1.648180 0.000000 
#    z 0.000000 0.000000 1.702060 
# 
# From -- ./inp_files/26837.got.cif
#   From: 2010.05.17/outbox.cif.g08.bks.cpg/sg20_14_cif.got.tgz:26837.got - 2010.06.03 22:52:26.
