data_PCOD9317632
_publ_section_title
;
Structure prediction by ZEFSAII (Michael W. Deem and Ramdas Pophale) SiO2 
 PCOD9317632
Probable space group: C 2 2 21
;
_chemical_formula_sum "Si O2"
_cell_formula_units_Z 36
_cell_length_a 19.381510
_cell_length_b 10.391746
_cell_length_c 9.533169
_cell_angle_alpha 90.000000
_cell_angle_beta 90.000000
_cell_angle_gamma 90.000000
_cell_volume 1920.053919
_symmetry_space_group_name_H-M "C 2 2 21"
_symmetry_group_IT_number 20
_symmetry_cell_setting 'orthorhombic'
loop_
_space_group_symop_operation_xyz
x,y,z
-x,-y,1/2+z
x,-y,-z
-x,y,1/2-z
1/2+x,1/2+y,z
1/2-x,1/2-y,1/2+z
1/2+x,1/2-y,-z
1/2-x,1/2+y,1/2-z
loop_
_atom_site_type_symbol
_atom_site_label
_atom_site_fract_x
_atom_site_fract_y
_atom_site_fract_z
Si Si1 0.680008 0.347541 0.028704
Si Si2 0.778809 0.333999 0.283028
Si Si3 0.204385 0.000000 0.500000
Si Si4 0.396798 0.703870 0.148388
Si Si5 0.962871 0.141688 0.444198
O O1 0.720818 0.313451 0.167347
O O2 0.680951 0.500000 0.000000
O O3 0.715238 0.278879 0.897025
O O4 0.599981 0.306919 0.037654
O O5 0.753937 0.454678 0.373960
O O6 0.852067 0.325222 0.201834
O O7 0.154540 0.888194 0.561163
O O8 0.426249 0.634818 0.290215
O O9 0.467795 0.724729 0.064643
O O10 0.981968 0.000000 0.500000
#
# Coordination Sequence:
#
# PCOD9317632 Si02
#       5
#     8   8   4   8   8
#     4  10  21  36  57  89 120 149 194 247 294 352
#     4  11  21  36  55  86 121 155 193 234 295 351
#     4  12  20  34  58  84 120 154 192 228 292 354
#     4  10  20  33  54  88 116 148 187 239 295 352
#     4   9  17  33  54  82 119 145 176 242 303 341
#
# _framework density 18.749472999999998
#
# number of rings (size 3 to 8) (size 9 to 14) (size 15 to 20)
#    0.000    1.778    3.333    4.000    0.000    0.000 
#    0.000    0.000    0.000    0.000   46.222    0.000 
#    0.000    0.000    0.000    0.000    0.000    0.000 
#
# Total GULP energy -100241.644707 kJ/mol
# GULP energy per Si atom -5568.980262 kJ/mol
# Density = 1.870680 g / cm^3
# Si number density = 18.749473 Si / 1000 Ang^3
#
#
#
# Elastic Constant Matrix: (Units=GPa)
#
#
# Indices 1 2 3 4 5 6 
#
# 1 176.0114 40.2259 69.3864 0.0000 0.0000 0.0000
# 2 40.2259 18.8582 12.2976 0.0000 0.0000 0.0000
# 3 69.3864 12.2976 64.1651 0.0000 0.0000 0.0000
# 4 0.0000 0.0000 0.0000 35.4886 0.0000 0.0000
# 5 0.0000 0.0000 0.0000 0.0000 29.4687 0.0000
# 6 0.0000 0.0000 0.0000 0.0000 0.0000 25.8891
#
#
#
# Elastic Compliance Matrix: (Units=1/GPa)
#
#
# Indices 1 2 3 4 5 6 
#
# 1 0.017532 -0.028610 -0.013476 0.000000 0.000000 0.000000
# 2 -0.028610 0.107289 0.010376 0.000000 0.000000 0.000000
# 3 -0.013476 0.010376 0.028169 0.000000 0.000000 0.000000
# 4 0.000000 0.000000 0.000000 0.028178 0.000000 0.000000
# 5 0.000000 0.000000 0.000000 0.000000 0.033934 0.000000
# 6 0.000000 0.000000 0.000000 0.000000 0.000000 0.038626
#
#
# Mechanical properties :
#
#
# Convention : Reuss Voigt Hill
#
# Bulk Modulus (GPa) = 11.16449 55.87271 33.51860
# Shear Modulus (GPa) = 14.40898 27.31095 20.85997
#
# Velocity S-wave (km/s) = 2.77519 3.82072 3.33913
# Velocity P-wave (km/s) = 4.02944 7.02340 5.72558
#
# Compressibility (1/GPa) = 0.08956971
#
# Stress axis : x y z
#
# Youngs Moduli (GPa) = 57.03694 9.32061 35.50054
#
# Poissons Ratio (x) = 0.26667 0.47840
# Poissons Ratio (y) = 1.63185 -0.36835
# Poissons Ratio (z) = 0.76862 -0.09671
#
# Static dielectric constant tensor:
#      x y z
#    x 1.699340 0.000000 0.000000 
#    y 0.000000 1.641310 0.000000 
#    z 0.000000 0.000000 1.720390 
# 
# From -- ./inp_files/7176.got.cif
#   From: 2010.05.17/outbox.cif.g08.bks.cpg/sg20_4_cif.got.tgz:7176.got - 2010.06.03 22:52:26.
