data_PCOD9317194
_publ_section_title
;
Structure prediction by ZEFSAII (Michael W. Deem and Ramdas Pophale) SiO2 
 PCOD9317194
Probable space group: C 2 2 21
;
_chemical_formula_sum "Si O2"
_cell_formula_units_Z 64
_cell_length_a 17.304071
_cell_length_b 7.130954
_cell_length_c 20.821736
_cell_angle_alpha 90.000000
_cell_angle_beta 90.000000
_cell_angle_gamma 90.000000
_cell_volume 2569.288417
_symmetry_space_group_name_H-M "C 2 2 21"
_symmetry_group_IT_number 20
_symmetry_cell_setting 'orthorhombic'
loop_
_space_group_symop_operation_xyz
x,y,z
-x,-y,1/2+z
x,-y,-z
-x,y,1/2-z
1/2+x,1/2+y,z
1/2-x,1/2-y,1/2+z
1/2+x,1/2-y,-z
1/2-x,1/2+y,1/2-z
loop_
_atom_site_type_symbol
_atom_site_label
_atom_site_fract_x
_atom_site_fract_y
_atom_site_fract_z
Si Si1 0.318661 0.203814 0.239266
Si Si2 0.139247 0.530102 0.122908
Si Si3 0.695713 0.482873 0.588156
Si Si4 0.436865 0.323228 0.153807
Si Si5 0.048443 0.854500 0.053578
Si Si6 0.515706 0.892567 0.342880
Si Si7 0.335365 0.803113 0.205250
Si Si8 0.098628 0.695750 0.523204
O O1 0.341609 0.129826 0.309331
O O2 0.386153 0.349292 0.218705
O O3 0.230020 0.270211 0.240564
O O4 0.322199 0.024595 0.192005
O O5 0.216458 0.453318 0.089885
O O6 0.105840 0.691772 0.075890
O O7 0.074493 0.376591 0.141063
O O8 0.634510 0.644959 0.604428
O O9 0.687851 0.339537 0.649420
O O10 0.665410 0.347024 0.532371
O O11 0.506702 0.436092 0.118957
O O12 0.474250 0.118775 0.164339
O O13 0.975048 0.757473 0.018649
O O14 0.077985 0.000000 0.000000
O O15 0.570994 0.798051 0.288755
O O16 0.560896 0.838662 0.407259
O O17 0.130957 0.500000 0.500000
#
# Coordination Sequence:
#
# PCOD9317194 Si02
#       8
#     8   8   8   8   8   8   8   8
#     4  10  19  35  60  85 121 151 199 251 299 363
#     4  10  21  37  60  89 121 154 199 252 312 348
#     4  10  21  36  61  89 117 152 208 251 295 362
#     4  10  19  35  60  88 112 157 201 239 299 368
#     4  11  22  39  63  87 118 162 204 251 308 369
#     4   9  20  36  61  83 114 157 197 233 308 359
#     4   9  19  34  58  84 114 156 190 240 294 359
#     4  11  19  37  63  81 114 160 205 242 298 371
#
# _framework density 24.909623
#
# number of rings (size 3 to 8) (size 9 to 14) (size 15 to 20)
#    0.000    2.000    3.750    1.500    0.000    5.000 
#    0.000    2.500   22.000    9.000    0.000    0.000 
#    0.000    0.000    0.000    0.000    0.000    0.000 
#
# Total GULP energy -178319.554702 kJ/mol
# GULP energy per Si atom -5572.486084 kJ/mol
# Density = 2.485293 g / cm^3
# Si number density = 24.909623 Si / 1000 Ang^3
#
#
#
# Elastic Constant Matrix: (Units=GPa)
#
#
# Indices 1 2 3 4 5 6 
#
# 1 139.9466 7.9182 -3.0793 0.0000 0.0000 0.0000
# 2 7.9182 63.9928 4.8145 0.0000 0.0000 0.0000
# 3 -3.0793 4.8145 50.6297 0.0000 0.0000 0.0000
# 4 0.0000 0.0000 0.0000 35.3380 0.0000 0.0000
# 5 0.0000 0.0000 0.0000 0.0000 39.1643 0.0000
# 6 0.0000 0.0000 0.0000 0.0000 0.0000 28.7645
#
#
#
# Elastic Compliance Matrix: (Units=1/GPa)
#
#
# Indices 1 2 3 4 5 6 
#
# 1 0.007210 -0.000932 0.000527 0.000000 0.000000 0.000000
# 2 -0.000932 0.015860 -0.001565 0.000000 0.000000 0.000000
# 3 0.000527 -0.001565 0.019932 0.000000 0.000000 0.000000
# 4 0.000000 0.000000 0.000000 0.028298 0.000000 0.000000
# 5 0.000000 0.000000 0.000000 0.000000 0.025533 0.000000
# 6 0.000000 0.000000 0.000000 0.000000 0.000000 0.034765
#
#
# Mechanical properties :
#
#
# Convention : Reuss Voigt Hill
#
# Bulk Modulus (GPa) = 25.59981 30.43067 28.01524
# Shear Modulus (GPa) = 33.65680 36.98107 35.31893
#
# Velocity S-wave (km/s) = 3.67980 3.85724 3.76956
# Velocity P-wave (km/s) = 5.32484 5.66398 5.49703
#
# Compressibility (1/GPa) = 0.03906279
#
# Stress axis : x y z
#
# Youngs Moduli (GPa) = 138.69821 63.05252 50.17033
#
# Poissons Ratio (x) = 0.05875 -0.02645
# Poissons Ratio (y) = 0.12924 0.07851
# Poissons Ratio (z) = -0.07311 0.09867
#
# Static dielectric constant tensor:
#      x y z
#    x 2.049880 0.000000 0.000000 
#    y 0.000000 2.018750 0.000000 
#    z 0.000000 0.000000 2.168880 
# 
# From -- ./inp_files/27772.got.cif
#   From: 2010.05.17/outbox.cif.g08.bks.cpg/sg20_14_cif.got.tgz:27772.got - 2010.06.03 22:52:26.
