data_PCOD9317986
_publ_section_title
;
Structure prediction by ZEFSAII (Michael W. Deem and Ramdas Pophale) SiO2 
 PCOD9317986
Probable space group: C 2 2 21
;
_chemical_formula_sum "Si O2"
_cell_formula_units_Z 60
_cell_length_a 14.124720
_cell_length_b 7.451237
_cell_length_c 25.845219
_cell_angle_alpha 90.000000
_cell_angle_beta 90.000000
_cell_angle_gamma 90.000000
_cell_volume 2720.122364
_symmetry_space_group_name_H-M "C 2 2 21"
_symmetry_group_IT_number 20
_symmetry_cell_setting 'orthorhombic'
loop_
_space_group_symop_operation_xyz
x,y,z
-x,-y,1/2+z
x,-y,-z
-x,y,1/2-z
1/2+x,1/2+y,z
1/2-x,1/2-y,1/2+z
1/2+x,1/2-y,-z
1/2-x,1/2+y,1/2-z
loop_
_atom_site_type_symbol
_atom_site_label
_atom_site_fract_x
_atom_site_fract_y
_atom_site_fract_z
Si Si1 0.129906 0.725812 0.369404
Si Si2 0.239877 0.000000 0.500000
Si Si3 0.869385 0.855460 0.906082
Si Si4 0.710111 0.830662 0.200200
Si Si5 0.567828 0.671583 0.127855
Si Si6 0.959495 0.824382 0.307682
Si Si7 0.727080 0.633096 0.048348
Si Si8 0.238488 0.768650 0.690402
O O1 0.208910 0.700040 0.323883
O O2 0.173893 0.630528 0.419794
O O3 0.026106 0.701846 0.344874
O O4 0.129311 0.935826 0.387095
O O5 0.177044 0.122405 0.461760
O O6 0.292310 0.156881 0.532183
O O7 0.808088 0.742676 0.865159
O O8 0.974735 0.778642 0.903743
O O9 0.623869 0.820561 0.160302
O O10 0.683461 0.800289 0.259388
O O11 0.759582 0.019996 0.199197
O O12 0.535097 0.526497 0.170433
O O13 0.643343 0.585944 0.088356
O O14 0.847979 0.786277 0.307963
O O15 0.000000 0.811617 0.250000
O O16 0.726811 0.500000 0.000000
#
# Coordination Sequence:
#
# PCOD9317986 Si02
#       8
#     8   4   8   8   8   8   8   8
#     4   8  18  40  60  85 127 163 207 265 319 387
#     4  10  22  46  68  84 136 170 212 276 336 382
#     4   9  21  39  65  87 120 174 206 258 333 383
#     4  10  20  37  58  87 125 164 206 262 313 387
#     4  10  23  40  65  93 125 161 224 261 321 404
#     4  11  21  39  65  92 127 176 208 259 332 389
#     4  10  22  42  71  98 123 172 224 274 329 387
#     4  11  22  38  61  91 127 174 211 255 325 378
#
# _framework density 22.057832000000001
#
# number of rings (size 3 to 8) (size 9 to 14) (size 15 to 20)
#    0.000    2.133    1.333    1.600    6.533    0.000 
#    4.800    0.000    2.933    0.000    0.000    0.000 
#    0.000    0.000    0.000    0.000    0.000    0.000 
#
# Total GULP energy -167336.993344 kJ/mol
# GULP energy per Si atom -5577.899778 kJ/mol
# Density = 2.200763 g / cm^3
# Si number density = 22.057832 Si / 1000 Ang^3
#
#
#
# Elastic Constant Matrix: (Units=GPa)
#
#
# Indices 1 2 3 4 5 6 
#
# 1 74.9838 -6.2808 21.4608 0.0000 0.0000 0.0000
# 2 -6.2808 34.2840 9.3723 0.0000 0.0000 0.0000
# 3 21.4608 9.3723 81.6176 0.0000 0.0000 0.0000
# 4 0.0000 0.0000 0.0000 27.1582 0.0000 0.0000
# 5 0.0000 0.0000 0.0000 0.0000 5.7631 0.0000
# 6 0.0000 0.0000 0.0000 0.0000 0.0000 18.7923
#
#
#
# Elastic Compliance Matrix: (Units=1/GPa)
#
#
# Indices 1 2 3 4 5 6 
#
# 1 0.014917 0.003928 -0.004373 0.000000 0.000000 0.000000
# 2 0.003928 0.031148 -0.004610 0.000000 0.000000 0.000000
# 3 -0.004373 -0.004610 0.013932 0.000000 0.000000 0.000000
# 4 0.000000 0.000000 0.000000 0.036821 0.000000 0.000000
# 5 0.000000 0.000000 0.000000 0.000000 0.173518 0.000000
# 6 0.000000 0.000000 0.000000 0.000000 0.000000 0.053213
#
#
# Mechanical properties :
#
#
# Convention : Reuss Voigt Hill
#
# Bulk Modulus (GPa) = 20.04537 26.66558 23.35547
# Shear Modulus (GPa) = 14.27400 21.43159 17.85280
#
# Velocity S-wave (km/s) = 2.54661 3.12045 2.84802
# Velocity P-wave (km/s) = 4.21359 5.00980 4.62885
#
# Compressibility (1/GPa) = 0.04988684
#
# Stress axis : x y z
#
# Youngs Moduli (GPa) = 67.03786 32.10486 71.77943
#
# Poissons Ratio (x) = -0.12612 0.31392
# Poissons Ratio (y) = -0.26335 0.33088
# Poissons Ratio (z) = 0.29318 0.14799
#
# Static dielectric constant tensor:
#      x y z
#    x 1.842650 0.000000 0.000000 
#    y 0.000000 1.879490 0.000000 
#    z 0.000000 0.000000 1.858970 
# 
# From -- ./inp_files/29311.got.cif
#   From: 2010.05.17/outbox.cif.g08.bks.cpg/sg20_15_cif.got.tgz:29311.got - 2010.06.03 22:52:26.
