data_PCOD9317529
_publ_section_title
;
Structure prediction by ZEFSAII (Michael W. Deem and Ramdas Pophale) SiO2 
 PCOD9317529
Probable space group: C 2 2 21
;
_chemical_formula_sum "Si O2"
_cell_formula_units_Z 64
_cell_length_a 8.424647
_cell_length_b 26.595599
_cell_length_c 11.349748
_cell_angle_alpha 90.000000
_cell_angle_beta 90.000000
_cell_angle_gamma 90.000000
_cell_volume 2543.007891
_symmetry_space_group_name_H-M "C 2 2 21"
_symmetry_group_IT_number 20
_symmetry_cell_setting 'orthorhombic'
loop_
_space_group_symop_operation_xyz
x,y,z
-x,-y,1/2+z
x,-y,-z
-x,y,1/2-z
1/2+x,1/2+y,z
1/2-x,1/2-y,1/2+z
1/2+x,1/2-y,-z
1/2-x,1/2+y,1/2-z
loop_
_atom_site_type_symbol
_atom_site_label
_atom_site_fract_x
_atom_site_fract_y
_atom_site_fract_z
Si Si1 0.884817 0.534213 0.565130
Si Si2 0.173603 0.887059 0.306531
Si Si3 0.168380 0.209037 0.530017
Si Si4 0.374749 0.599405 0.389418
Si Si5 0.234479 0.927431 0.656293
Si Si6 0.864538 0.622291 0.918707
Si Si7 0.061154 0.328254 0.879862
Si Si8 0.609925 0.283882 0.856825
O O1 0.028444 0.500000 0.500000
O O2 0.736279 0.560656 0.638454
O O3 0.809155 0.527925 0.419957
O O4 0.001042 0.580888 0.597712
O O5 0.166905 0.844827 0.407401
O O6 0.293370 0.864323 0.207716
O O7 0.000000 0.892945 0.250000
O O8 0.292645 0.205361 0.422392
O O9 0.237109 0.250121 0.619413
O O10 0.998134 0.218387 0.474115
O O11 0.286849 0.564408 0.294267
O O12 0.559629 0.586090 0.389313
O O13 0.286137 0.600224 0.511253
O O14 0.358315 0.656626 0.338461
O O15 0.360228 0.883392 0.636884
O O16 0.940795 0.663668 0.008904
O O17 0.000000 0.314535 0.750000
O O18 0.500000 0.265618 0.750000
#
# Coordination Sequence:
#
# PCOD9317529 Si02
#       8
#     8   8   8   8   8   8   8   8
#     4  11  25  47  71 108 147 183 238 302 362 443
#     4  12  26  50  76 104 150 199 245 296 376 451
#     4  12  28  45  68 105 146 193 243 312 367 432
#     4  11  20  42  69 102 136 185 247 288 358 429
#     4  10  19  40  70  96 133 182 228 294 355 422
#     4  11  24  40  76 104 135 196 235 291 371 439
#     4  11  21  40  68  99 134 188 244 293 364 439
#     4  12  27  42  67 102 145 186 247 310 356 427
#
# _framework density 25.167045999999999
#
# number of rings (size 3 to 8) (size 9 to 14) (size 15 to 20)
#    0.000    0.750    6.250    1.875    3.500    1.000 
#    6.750    1.250    0.000    0.000    0.000    0.000 
#    0.000    0.000    0.000    0.000    0.000    0.000 
#
# Total GULP energy -178665.427980 kJ/mol
# GULP energy per Si atom -5583.294624 kJ/mol
# Density = 2.510976 g / cm^3
# Si number density = 25.167046 Si / 1000 Ang^3
#
#
#
# Elastic Constant Matrix: (Units=GPa)
#
#
# Indices 1 2 3 4 5 6 
#
# 1 75.0968 19.2485 35.7599 0.0000 0.0000 0.0000
# 2 19.2485 84.3706 32.5522 0.0000 0.0000 0.0000
# 3 35.7599 32.5522 120.7259 0.0000 0.0000 0.0000
# 4 0.0000 0.0000 0.0000 18.9818 0.0000 0.0000
# 5 0.0000 0.0000 0.0000 0.0000 40.2556 0.0000
# 6 0.0000 0.0000 0.0000 0.0000 0.0000 -64.2853
#
#
#
# Elastic Compliance Matrix: (Units=1/GPa)
#
#
# Indices 1 2 3 4 5 6 
#
# 1 0.015802 -0.002008 -0.004139 0.000000 0.000000 0.000000
# 2 -0.002008 0.013484 -0.003041 0.000000 0.000000 0.000000
# 3 -0.004139 -0.003041 0.010329 0.000000 0.000000 0.000000
# 4 0.000000 0.000000 0.000000 0.052682 0.000000 0.000000
# 5 0.000000 0.000000 0.000000 0.000000 0.024841 0.000000
# 6 0.000000 0.000000 0.000000 0.000000 0.000000 -0.015556
#
#
# Mechanical properties :
#
#
# Convention : Reuss Voigt Hill
#
# Bulk Modulus (GPa) = 47.08414 50.59048 48.83731
# Shear Modulus (GPa) = 39.35813 11.83259 25.59536
#
# Velocity S-wave (km/s) = 3.95888 2.17067 3.19253
# Velocity P-wave (km/s) = 6.29652 5.14081 5.74779
#
# Compressibility (1/GPa) = 0.02123857
#
# Stress axis : x y z
#
# Youngs Moduli (GPa) = 63.28368 74.16267 96.81255
#
# Poissons Ratio (x) = 0.14892 0.40072
# Poissons Ratio (y) = 0.12708 0.29440
# Poissons Ratio (z) = 0.26194 0.22553
#
# Static dielectric constant tensor:
#      x y z
#    x 1.972130 0.000000 0.000000 
#    y 0.000000 2.005060 0.000000 
#    z 0.000000 0.000000 2.044580 
# 
# From -- ./inp_files/13410.got.cif
#   From: 2010.05.17/outbox.cif.g08.bks.cpg/sg20_7_cif.got.tgz:13410.got - 2010.06.03 22:52:26.
