data_PCOD9317888
_publ_section_title
;
Structure prediction by ZEFSAII (Michael W. Deem and Ramdas Pophale) SiO2 
 PCOD9317888
Probable space group: C 2 2 21
;
_chemical_formula_sum "Si O2"
_cell_formula_units_Z 56
_cell_length_a 22.028009
_cell_length_b 5.144729
_cell_length_c 21.772371
_cell_angle_alpha 90.000000
_cell_angle_beta 90.000000
_cell_angle_gamma 90.000000
_cell_volume 2467.422237
_symmetry_space_group_name_H-M "C 2 2 21"
_symmetry_group_IT_number 20
_symmetry_cell_setting 'orthorhombic'
loop_
_space_group_symop_operation_xyz
x,y,z
-x,-y,1/2+z
x,-y,-z
-x,y,1/2-z
1/2+x,1/2+y,z
1/2-x,1/2-y,1/2+z
1/2+x,1/2-y,-z
1/2-x,1/2+y,1/2-z
loop_
_atom_site_type_symbol
_atom_site_label
_atom_site_fract_x
_atom_site_fract_y
_atom_site_fract_z
Si Si1 0.383500 0.491676 0.830688
Si Si2 0.322512 0.010885 0.225379
Si Si3 0.900886 0.577602 0.667932
Si Si4 0.707433 0.424038 0.429182
Si Si5 0.891202 0.932946 0.569536
Si Si6 0.768770 0.079844 0.628320
Si Si7 0.474936 0.573477 0.662977
O O1 0.363279 0.202806 0.811164
O O2 0.359158 0.549287 0.899452
O O3 0.454729 0.540649 0.826052
O O4 0.346790 0.704430 0.791205
O O5 0.338263 0.958898 0.295995
O O6 0.255669 0.969830 0.197370
O O7 0.946088 0.344117 0.682381
O O8 0.892089 0.636212 0.595094
O O9 0.935932 0.836245 0.690767
O O10 0.708818 0.500000 0.500000
O O11 0.746112 0.641911 0.393785
O O12 0.735478 0.143142 0.412856
O O13 0.839470 0.053487 0.613792
O O14 0.956020 0.043857 0.591018
O O15 0.877315 0.000000 0.500000
#
# Coordination Sequence:
#
# PCOD9317888 Si02
#       7
#     8   8   8   8   8   8   8
#     4  10  21  37  62  88 125 156 201 250 311 360
#     4  10  21  40  62  92 122 154 200 262 308 365
#     4  10  23  40  59  92 120 160 206 244 312 356
#     4  10  20  36  60  88 118 152 206 252 307 354
#     4  10  24  43  63  87 127 164 211 247 301 373
#     4  10  22  39  61  90 117 160 200 255 307 360
#     4  10  23  39  58  94 116 162 205 238 304 364
#
# _framework density 22.695751000000001
#
# number of rings (size 3 to 8) (size 9 to 14) (size 15 to 20)
#    0.857    1.143    0.000    3.000    2.000    4.571 
#    2.571    0.000    6.286    0.000    0.000    0.000 
#    0.000    0.000    0.000    0.000    0.000    0.000 
#
# Total GULP energy -156459.452762 kJ/mol
# GULP energy per Si atom -5587.837599 kJ/mol
# Density = 2.264409 g / cm^3
# Si number density = 22.695751 Si / 1000 Ang^3
#
#
#
# Elastic Constant Matrix: (Units=GPa)
#
#
# Indices 1 2 3 4 5 6 
#
# 1 108.7098 31.6259 54.7950 0.0000 0.0000 0.0000
# 2 31.6259 114.3414 19.9483 0.0000 0.0000 0.0000
# 3 54.7950 19.9483 108.1074 0.0000 0.0000 0.0000
# 4 0.0000 0.0000 0.0000 24.8294 0.0000 0.0000
# 5 0.0000 0.0000 0.0000 0.0000 26.0918 0.0000
# 6 0.0000 0.0000 0.0000 0.0000 0.0000 25.6765
#
#
#
# Elastic Compliance Matrix: (Units=1/GPa)
#
#
# Indices 1 2 3 4 5 6 
#
# 1 0.013029 -0.002533 -0.006136 0.000000 0.000000 0.000000
# 2 -0.002533 0.009529 -0.000474 0.000000 0.000000 0.000000
# 3 -0.006136 -0.000474 0.012448 0.000000 0.000000 0.000000
# 4 0.000000 0.000000 0.000000 0.040275 0.000000 0.000000
# 5 0.000000 0.000000 0.000000 0.000000 0.038326 0.000000
# 6 0.000000 0.000000 0.000000 0.000000 0.000000 0.038946
#
#
# Mechanical properties :
#
#
# Convention : Reuss Voigt Hill
#
# Bulk Modulus (GPa) = 59.81550 60.43300 60.12425
# Shear Modulus (GPa) = 28.34256 30.30550 29.32403
#
# Velocity S-wave (km/s) = 3.53768 3.65813 3.59841
# Velocity P-wave (km/s) = 6.56502 6.67292 6.61919
#
# Compressibility (1/GPa) = 0.01671807
#
# Stress axis : x y z
#
# Youngs Moduli (GPa) = 76.75359 104.94123 80.33535
#
# Poissons Ratio (x) = 0.26582 0.49296
# Poissons Ratio (y) = 0.19442 0.03811
# Poissons Ratio (z) = 0.47098 0.04979
#
# Static dielectric constant tensor:
#      x y z
#    x 1.814860 0.000000 0.000000 
#    y 0.000000 1.878140 0.000000 
#    z 0.000000 0.000000 1.882930 
# 
# From -- ./inp_files/29585.got.cif
#   From: 2010.05.17/outbox.cif.g08.bks.cpg/sg20_15_cif.got.tgz:29585.got - 2010.06.03 22:52:26.
