data_PCOD9317599
_publ_section_title
;
Structure prediction by ZEFSAII (Michael W. Deem and Ramdas Pophale) SiO2 
 PCOD9317599
Probable space group: C 2 2 21
;
_chemical_formula_sum "Si O2"
_cell_formula_units_Z 56
_cell_length_a 22.861288
_cell_length_b 29.014665
_cell_length_c 5.200235
_cell_angle_alpha 90.000000
_cell_angle_beta 90.000000
_cell_angle_gamma 90.000000
_cell_volume 3449.381465
_symmetry_space_group_name_H-M "C 2 2 21"
_symmetry_group_IT_number 20
_symmetry_cell_setting 'orthorhombic'
loop_
_space_group_symop_operation_xyz
x,y,z
-x,-y,1/2+z
x,-y,-z
-x,y,1/2-z
1/2+x,1/2+y,z
1/2-x,1/2-y,1/2+z
1/2+x,1/2-y,-z
1/2-x,1/2+y,1/2-z
loop_
_atom_site_type_symbol
_atom_site_label
_atom_site_fract_x
_atom_site_fract_y
_atom_site_fract_z
Si Si1 0.220462 0.948356 0.972543
Si Si2 0.960011 0.233167 0.000474
Si Si3 0.540348 0.626791 0.497380
Si Si4 0.761167 0.645068 0.858562
Si Si5 0.763344 0.193749 0.149699
Si Si6 0.161850 0.280124 0.533644
Si Si7 0.858144 0.052271 0.970760
O O1 0.169637 0.944507 0.187624
O O2 0.263674 0.907493 0.054657
O O3 0.191711 0.942862 0.691353
O O4 0.245036 0.000000 0.000000
O O5 0.938382 0.179927 0.016325
O O6 0.000000 0.242146 0.250000
O O7 0.905015 0.266588 0.968225
O O8 0.000000 0.236370 0.750000
O O9 0.500000 0.618775 0.250000
O O10 0.593122 0.590963 0.498659
O O11 0.500000 0.621863 0.750000
O O12 0.721763 0.669967 0.078882
O O13 0.821808 0.672914 0.885036
O O14 0.735734 0.657201 0.580801
O O15 0.802878 0.237456 0.090836
O O16 0.696556 0.211745 0.197317
O O17 0.881895 0.000000 0.000000
#
# Coordination Sequence:
#
# PCOD9317599 Si02
#       7
#     8   8   8   8   8   8   8
#     4  10  21  35  51  76 106 129 163 206 263 328
#     4  10  24  36  50  71 104 145 173 213 263 308
#     4  10  21  36  47  68  91 125 177 222 260 297
#     4  10  20  32  51  79  99 132 169 200 264 306
#     4  10  20  32  51  83 100 131 168 221 261 298
#     4  10  21  34  53  75 110 126 183 206 265 313
#     4  10  21  35  52  71  93 132 169 213 268 308
#
# _framework density 16.234795999999999
#
# number of rings (size 3 to 8) (size 9 to 14) (size 15 to 20)
#    0.857    1.143    1.429    1.714    6.000    0.571 
#    0.000    0.000    0.000    0.000    0.000    0.000 
#    0.000    1.143    0.000    0.000    0.571    0.000 
#
# Total GULP energy -156010.668929 kJ/mol
# GULP energy per Si atom -5571.809605 kJ/mol
# Density = 1.619784 g / cm^3
# Si number density = 16.234796 Si / 1000 Ang^3
#
#
#
# Elastic Constant Matrix: (Units=GPa)
#
#
# Indices 1 2 3 4 5 6 
#
# 1 44.6346 36.0578 3.6968 0.0000 0.0000 0.0000
# 2 36.0578 92.5586 10.8870 0.0000 0.0000 0.0000
# 3 3.6968 10.8870 94.3103 0.0000 0.0000 0.0000
# 4 0.0000 0.0000 0.0000 27.5791 0.0000 0.0000
# 5 0.0000 0.0000 0.0000 0.0000 12.3202 0.0000
# 6 0.0000 0.0000 0.0000 0.0000 0.0000 24.6745
#
#
#
# Elastic Compliance Matrix: (Units=1/GPa)
#
#
# Indices 1 2 3 4 5 6 
#
# 1 0.032696 -0.012760 0.000191 0.000000 0.000000 0.000000
# 2 -0.012760 0.015932 -0.001339 0.000000 0.000000 0.000000
# 3 0.000191 -0.001339 0.010750 0.000000 0.000000 0.000000
# 4 0.000000 0.000000 0.000000 0.036259 0.000000 0.000000
# 5 0.000000 0.000000 0.000000 0.000000 0.081168 0.000000
# 6 0.000000 0.000000 0.000000 0.000000 0.000000 0.040528
#
#
# Mechanical properties :
#
#
# Convention : Reuss Voigt Hill
#
# Bulk Modulus (GPa) = 31.68185 36.97630 34.32907
# Shear Modulus (GPa) = 19.55644 24.97221 22.26432
#
# Velocity S-wave (km/s) = 3.47450 3.92623 3.70725
# Velocity P-wave (km/s) = 5.97104 6.58628 6.28619
#
# Compressibility (1/GPa) = 0.03156381
#
# Stress axis : x y z
#
# Youngs Moduli (GPa) = 30.58447 62.76557 93.01999
#
# Poissons Ratio (x) = 0.80088 -0.01780
# Poissons Ratio (y) = 0.39026 0.12456
# Poissons Ratio (z) = -0.00585 0.08405
#
# Static dielectric constant tensor:
#      x y z
#    x 1.511670 0.000000 0.000000 
#    y 0.000000 1.580320 0.000000 
#    z 0.000000 0.000000 1.572210 
# 
# From -- ./inp_files/3369.got.cif
#   From: 2010.05.17/outbox.cif.g08.bks.cpg/sg20_2_cif.got.tgz:3369.got - 2010.06.03 22:52:26.
