data_PCOD9317370
_publ_section_title
;
Structure prediction by ZEFSAII (Michael W. Deem and Ramdas Pophale) SiO2 
 PCOD9317370
Probable space group: C 2 2 21
;
_chemical_formula_sum "Si O2"
_cell_formula_units_Z 56
_cell_length_a 7.464629
_cell_length_b 22.678950
_cell_length_c 17.171174
_cell_angle_alpha 90.000000
_cell_angle_beta 90.000000
_cell_angle_gamma 90.000000
_cell_volume 2906.907151
_symmetry_space_group_name_H-M "C 2 2 21"
_symmetry_group_IT_number 20
_symmetry_cell_setting 'orthorhombic'
loop_
_space_group_symop_operation_xyz
x,y,z
-x,-y,1/2+z
x,-y,-z
-x,y,1/2-z
1/2+x,1/2+y,z
1/2-x,1/2-y,1/2+z
1/2+x,1/2-y,-z
1/2-x,1/2+y,1/2-z
loop_
_atom_site_type_symbol
_atom_site_label
_atom_site_fract_x
_atom_site_fract_y
_atom_site_fract_z
Si Si1 0.293982 0.333902 0.270949
Si Si2 0.079695 0.494740 0.590180
Si Si3 0.696366 0.080644 0.852783
Si Si4 0.384884 0.276354 0.680300
Si Si5 0.565623 0.819564 0.417529
Si Si6 0.050952 0.943604 0.049904
Si Si7 0.775800 0.368091 0.932102
O O1 0.500000 0.333210 0.250000
O O2 0.215794 0.393216 0.233259
O O3 0.211714 0.277791 0.225152
O O4 0.235433 0.330555 0.360353
O O5 0.018527 0.500000 0.500000
O O6 0.265610 0.532705 0.591557
O O7 0.124610 0.426241 0.599591
O O8 0.923420 0.522291 0.641567
O O9 0.581842 0.130659 0.897911
O O10 0.891703 0.074446 0.892465
O O11 0.500000 0.303788 0.750000
O O12 0.493077 0.243340 0.611183
O O13 0.274451 0.326599 0.638774
O O14 0.613406 0.828714 0.506670
O O15 0.115198 0.894937 0.986489
O O16 0.986463 0.000000 0.000000
#
# Coordination Sequence:
#
# PCOD9317370 Si02
#       7
#     8   8   8   8   8   8   8
#     4  10  22  37  59  87 119 159 206 260 315 363
#     4   9  18  34  57  85 125 151 200 255 298 366
#     4  11  18  34  61  84 121 156 197 250 317 358
#     4   9  21  39  60  84 127 164 198 258 317 367
#     4  10  20  35  57  89 112 155 203 258 299 355
#     4   9  19  31  55  87 119 155 197 245 304 357
#     4  10  19  37  61  86 124 159 204 254 306 374
#
# _framework density 19.26446
#
# number of rings (size 3 to 8) (size 9 to 14) (size 15 to 20)
#    0.000    2.571    2.857    2.571    0.000    3.429 
#    0.000    1.429   12.571    0.000    0.000    0.000 
#    0.000    0.000    0.000    0.000    0.000    0.000 
#
# Total GULP energy -156106.503514 kJ/mol
# GULP energy per Si atom -5575.232268 kJ/mol
# Density = 1.922061 g / cm^3
# Si number density = 19.264460 Si / 1000 Ang^3
#
#
#
# Elastic Constant Matrix: (Units=GPa)
#
#
# Indices 1 2 3 4 5 6 
#
# 1 50.2499 -7.2702 7.5363 0.0000 0.0000 0.0000
# 2 -7.2702 71.5210 31.8800 0.0000 0.0000 0.0000
# 3 7.5363 31.8800 58.3139 0.0000 0.0000 0.0000
# 4 0.0000 0.0000 0.0000 17.0557 0.0000 0.0000
# 5 0.0000 0.0000 0.0000 0.0000 22.5432 0.0000
# 6 0.0000 0.0000 0.0000 0.0000 0.0000 9.2477
#
#
#
# Elastic Compliance Matrix: (Units=1/GPa)
#
#
# Indices 1 2 3 4 5 6 
#
# 1 0.021332 0.004492 -0.005213 0.000000 0.000000 0.000000
# 2 0.004492 0.019433 -0.011204 0.000000 0.000000 0.000000
# 3 -0.005213 -0.011204 0.023948 0.000000 0.000000 0.000000
# 4 0.000000 0.000000 0.000000 0.058631 0.000000 0.000000
# 5 0.000000 0.000000 0.000000 0.000000 0.044359 0.000000
# 6 0.000000 0.000000 0.000000 0.000000 0.000000 0.108135
#
#
# Mechanical properties :
#
#
# Convention : Reuss Voigt Hill
#
# Bulk Modulus (GPa) = 24.47229 27.15299 25.81264
# Shear Modulus (GPa) = 15.95866 19.63190 17.79528
#
# Velocity S-wave (km/s) = 2.88131 3.19576 3.04260
# Velocity P-wave (km/s) = 4.87855 5.26712 5.07655
#
# Compressibility (1/GPa) = 0.04086254
#
# Stress axis : x y z
#
# Youngs Moduli (GPa) = 46.87744 51.45936 41.75777
#
# Poissons Ratio (x) = -0.23115 0.21767
# Poissons Ratio (y) = -0.21057 0.46787
# Poissons Ratio (z) = 0.24435 0.57657
#
# Static dielectric constant tensor:
#      x y z
#    x 1.720220 0.000000 0.000000 
#    y 0.000000 1.681080 0.000000 
#    z 0.000000 0.000000 1.665540 
# 
# From -- ./inp_files/23846.got.cif
#   From: 2010.05.17/outbox.cif.g08.bks.cpg/sg20_12_cif.got.tgz:23846.got - 2010.06.03 22:52:26.
