data_PCOD9317012
_publ_section_title
;
Structure prediction by ZEFSAII (Michael W. Deem and Ramdas Pophale) SiO2 
 PCOD9317012
Probable space group: C 2 2 21
;
_chemical_formula_sum "Si O2"
_cell_formula_units_Z 40
_cell_length_a 26.372449
_cell_length_b 15.402000
_cell_length_c 5.076410
_cell_angle_alpha 90.000000
_cell_angle_beta 90.000000
_cell_angle_gamma 90.000000
_cell_volume 2061.979158
_symmetry_space_group_name_H-M "C 2 2 21"
_symmetry_group_IT_number 20
_symmetry_cell_setting 'orthorhombic'
loop_
_space_group_symop_operation_xyz
x,y,z
-x,-y,1/2+z
x,-y,-z
-x,y,1/2-z
1/2+x,1/2+y,z
1/2-x,1/2-y,1/2+z
1/2+x,1/2-y,-z
1/2-x,1/2+y,1/2-z
loop_
_atom_site_type_symbol
_atom_site_label
_atom_site_fract_x
_atom_site_fract_y
_atom_site_fract_z
Si Si1 0.533151 0.895454 0.997138
Si Si2 0.751961 0.691013 0.329262
Si Si3 0.140071 0.697568 0.049446
Si Si4 0.644727 0.685406 0.444308
Si Si5 0.444704 0.437349 0.752732
O O1 0.500000 0.867794 0.750000
O O2 0.588866 0.856699 0.962419
O O3 0.500000 0.868846 0.250000
O O4 0.537252 0.000000 0.000000
O O5 0.752544 0.773520 0.531872
O O6 0.807478 0.650118 0.368256
O O7 0.700651 0.642570 0.416235
O O8 0.135297 0.776464 0.263786
O O9 0.147381 0.733870 0.756002
O O10 0.600908 0.626169 0.323909
O O11 0.436433 0.500000 0.500000
O O12 0.500000 0.391395 0.750000
O O13 0.449028 0.500000 0.000000
#
# Coordination Sequence:
#
# PCOD9317012 Si02
#       5
#     8   8   8   8   8
#     4  10  21  36  52  73 106 141 169 208 263 310
#     4   8  16  30  49  74 102 129 159 207 262 296
#     4  10  19  33  54  78 102 131 172 214 251 302
#     4  10  19  33  55  78 101 132 173 213 250 303
#     4  10  21  36  51  71 104 139 167 206 261 307
#
# _framework density 19.398835999999999
#
# number of rings (size 3 to 8) (size 9 to 14) (size 15 to 20)
#    0.000    2.400    0.000    2.400    0.000    2.400 
#    0.000    1.000    0.000    3.600    0.000    0.000 
#    0.000    0.000    0.000    0.000    0.000    0.000 
#
# Total GULP energy -111364.118072 kJ/mol
# GULP energy per Si atom -5568.205904 kJ/mol
# Density = 1.935468 g / cm^3
# Si number density = 19.398836 Si / 1000 Ang^3
#
#
#
# Elastic Constant Matrix: (Units=GPa)
#
#
# Indices 1 2 3 4 5 6 
#
# 1 220.5485 38.6548 27.7535 0.0000 0.0000 0.0000
# 2 38.6548 10.2968 5.9230 0.0000 0.0000 0.0000
# 3 27.7535 5.9230 122.4414 0.0000 0.0000 0.0000
# 4 0.0000 0.0000 0.0000 944.2521 0.0000 0.0000
# 5 0.0000 0.0000 0.0000 0.0000 30.1494 0.0000
# 6 0.0000 0.0000 0.0000 0.0000 0.0000 -108.1044
#
#
#
# Elastic Compliance Matrix: (Units=1/GPa)
#
#
# Indices 1 2 3 4 5 6 
#
# 1 0.013301 -0.049579 -0.000617 0.000000 0.000000 0.000000
# 2 -0.049579 0.284697 -0.002534 0.000000 0.000000 0.000000
# 3 -0.000617 -0.002534 0.008430 0.000000 0.000000 0.000000
# 4 0.000000 0.000000 0.000000 0.001059 0.000000 0.000000
# 5 0.000000 0.000000 0.000000 0.000000 0.033168 0.000000
# 6 0.000000 0.000000 0.000000 0.000000 0.000000 -0.009250
#
#
# Mechanical properties :
#
#
# Convention : Reuss Voigt Hill
#
# Bulk Modulus (GPa) = 4.97591 55.32771 30.15181
# Shear Modulus (GPa) = 9.92352 191.98978 100.95665
#
# Velocity S-wave (km/s) = 2.26421 9.95915 7.22188
# Velocity P-wave (km/s) = 3.06694 12.68185 9.22592
#
# Compressibility (1/GPa) = 0.20096842
#
# Stress axis : x y z
#
# Youngs Moduli (GPa) = 75.18055 3.51251 118.63071
#
# Poissons Ratio (x) = 0.17415 0.07315
# Poissons Ratio (y) = 3.72738 0.30061
# Poissons Ratio (z) = 0.04636 0.00890
#
# Static dielectric constant tensor:
#      x y z
#    x 0.169160 0.000000 0.000000 
#    y 0.000000 1.646620 0.000000 
#    z 0.000000 0.000000 1.659560 
# 
# From -- ./inp_files/1883.got.cif
#   From: 2010.05.17/outbox.cif.g08.bks.cpg/sg20_1_cif.got.tgz:1883.got - 2010.06.03 22:52:26.
