data_PCOD9317824
_publ_section_title
;
Structure prediction by ZEFSAII (Michael W. Deem and Ramdas Pophale) SiO2 
 PCOD9317824
Probable space group: C 2 2 21
;
_chemical_formula_sum "Si O2"
_cell_formula_units_Z 36
_cell_length_a 8.309166
_cell_length_b 13.413172
_cell_length_c 13.421911
_cell_angle_alpha 90.000000
_cell_angle_beta 90.000000
_cell_angle_gamma 90.000000
_cell_volume 1495.902485
_symmetry_space_group_name_H-M "C 2 2 21"
_symmetry_group_IT_number 20
_symmetry_cell_setting 'orthorhombic'
loop_
_space_group_symop_operation_xyz
x,y,z
-x,-y,1/2+z
x,-y,-z
-x,y,1/2-z
1/2+x,1/2+y,z
1/2-x,1/2-y,1/2+z
1/2+x,1/2-y,-z
1/2-x,1/2+y,1/2-z
loop_
_atom_site_type_symbol
_atom_site_label
_atom_site_fract_x
_atom_site_fract_y
_atom_site_fract_z
Si Si1 0.702741 0.694253 0.945990
Si Si2 0.329918 0.673726 0.895996
Si Si3 0.626429 0.000000 0.000000
Si Si4 0.314888 0.928472 0.217952
Si Si5 0.360993 0.874763 0.679812
O O1 0.513744 0.677000 0.930253
O O2 0.793289 0.601397 0.896818
O O3 0.741757 0.791579 0.876429
O O4 0.747836 0.727714 0.057048
O O5 0.296112 0.647574 0.781372
O O6 0.238645 0.580944 0.946494
O O7 0.551321 0.063190 0.090136
O O8 0.500000 0.911474 0.250000
O O9 0.273784 0.040620 0.253967
O O10 0.500000 0.831476 0.750000
#
# Coordination Sequence:
#
# PCOD9317824 Si02
#       5
#     8   8   4   8   8
#     4  11  21  37  59  83 113 147 186 230 276 332
#     4  10  20  36  56  81 112 149 187 232 281 328
#     4   8  18  34  52  76 114 146 186 238 278 320
#     4  10  20  36  56  81 111 146 187 230 278 333
#     4   9  18  34  55  80 110 149 185 225 279 331
#
# _framework density 24.065740999999999
#
# number of rings (size 3 to 8) (size 9 to 14) (size 15 to 20)
#    0.000    2.222    0.000    3.333    0.000    1.778 
#    0.000   13.333    0.000    0.000    0.000    0.000 
#    0.000    0.000    0.000    0.000    0.000    0.000 
#
# Total GULP energy -100467.543046 kJ/mol
# GULP energy per Si atom -5581.530169 kJ/mol
# Density = 2.401097 g / cm^3
# Si number density = 24.065741 Si / 1000 Ang^3
#
#
#
# Elastic Constant Matrix: (Units=GPa)
#
#
# Indices 1 2 3 4 5 6 
#
# 1 72.0037 -6.4736 -23.6656 0.0000 0.0000 0.0000
# 2 -6.4736 77.1579 16.7069 0.0000 0.0000 0.0000
# 3 -23.6656 16.7069 51.3351 0.0000 0.0000 0.0000
# 4 0.0000 0.0000 0.0000 51.9765 0.0000 0.0000
# 5 0.0000 0.0000 0.0000 0.0000 34.0354 0.0000
# 6 0.0000 0.0000 0.0000 0.0000 0.0000 33.5246
#
#
#
# Elastic Compliance Matrix: (Units=1/GPa)
#
#
# Indices 1 2 3 4 5 6 
#
# 1 0.016374 -0.000280 0.007640 0.000000 0.000000 0.000000
# 2 -0.000280 0.013948 -0.004669 0.000000 0.000000 0.000000
# 3 0.007640 -0.004669 0.024521 0.000000 0.000000 0.000000
# 4 0.000000 0.000000 0.000000 0.019239 0.000000 0.000000
# 5 0.000000 0.000000 0.000000 0.000000 0.029381 0.000000
# 6 0.000000 0.000000 0.000000 0.000000 0.000000 0.029829
#
#
# Mechanical properties :
#
#
# Convention : Reuss Voigt Hill
#
# Bulk Modulus (GPa) = 16.60461 19.29246 17.94854
# Shear Modulus (GPa) = 33.78706 38.16922 35.97814
#
# Velocity S-wave (km/s) = 3.75099 3.98683 3.87071
# Velocity P-wave (km/s) = 5.06701 5.40621 5.23936
#
# Compressibility (1/GPa) = 0.06022422
#
# Stress axis : x y z
#
# Youngs Moduli (GPa) = 61.07276 71.69603 40.78114
#
# Poissons Ratio (x) = 0.02011 -0.31155
# Poissons Ratio (y) = 0.01713 0.19039
# Poissons Ratio (z) = -0.46658 0.33472
#
# Static dielectric constant tensor:
#      x y z
#    x 1.897170 0.000000 0.000000 
#    y 0.000000 1.973270 0.000000 
#    z 0.000000 0.000000 2.059160 
# 
# From -- ./inp_files/18407.got.cif
#   From: 2010.05.17/outbox.cif.g08.bks.cpg/sg20_10_cif.got.tgz:18407.got - 2010.06.03 22:52:26.
