data_PCOD9317760
_publ_section_title
;
Structure prediction by ZEFSAII (Michael W. Deem and Ramdas Pophale) SiO2 
 PCOD9317760
Probable space group: C 2 2 21
;
_chemical_formula_sum "Si O2"
_cell_formula_units_Z 48
_cell_length_a 8.094477
_cell_length_b 19.587662
_cell_length_c 15.072941
_cell_angle_alpha 90.000000
_cell_angle_beta 90.000000
_cell_angle_gamma 90.000000
_cell_volume 2389.843126
_symmetry_space_group_name_H-M "C 2 2 21"
_symmetry_group_IT_number 20
_symmetry_cell_setting 'orthorhombic'
loop_
_space_group_symop_operation_xyz
x,y,z
-x,-y,1/2+z
x,-y,-z
-x,y,1/2-z
1/2+x,1/2+y,z
1/2-x,1/2-y,1/2+z
1/2+x,1/2-y,-z
1/2-x,1/2+y,1/2-z
loop_
_atom_site_type_symbol
_atom_site_label
_atom_site_fract_x
_atom_site_fract_y
_atom_site_fract_z
Si Si1 0.579308 0.920576 0.153085
Si Si2 0.901843 0.207254 0.457596
Si Si3 0.425362 0.070493 0.347750
Si Si4 0.228712 0.288231 0.883076
Si Si5 0.306347 0.078421 0.999346
Si Si6 0.187747 0.718259 0.790146
O O1 0.500000 0.927367 0.250000
O O2 0.429314 0.907379 0.084079
O O3 0.701402 0.856512 0.164753
O O4 0.649871 0.995525 0.131329
O O5 0.883125 0.260627 0.537484
O O6 0.835024 0.134919 0.492434
O O7 0.795837 0.229264 0.371098
O O8 0.087265 0.211901 0.422568
O O9 0.500000 0.070633 0.250000
O O10 0.306375 0.134211 0.357338
O O11 0.573985 0.081591 0.416122
O O12 0.209457 0.240582 0.795868
O O13 0.244359 0.000000 0.000000
O O14 0.000000 0.720555 0.750000
#
# Coordination Sequence:
#
# PCOD9317760 Si02
#       6
#     8   8   8   8   8   8
#     4   9  17  33  57  80 104 141 185 228 275 332
#     4  11  21  36  55  80 115 149 187 230 280 335
#     4  10  20  35  57  83 108 141 190 235 277 334
#     4  11  22  35  57  85 114 150 187 232 280 334
#     4  10  20  36  57  80 110 148 188 233 283 333
#     4   9  18  33  54  80 108 141 181 224 275 328
#
# _framework density 20.085001999999999
#
# number of rings (size 3 to 8) (size 9 to 14) (size 15 to 20)
#    0.000    2.000    0.000    6.000    0.000    0.000 
#    0.000    4.167    0.000    0.000    0.000   25.667 
#    0.000    0.000    0.000    0.000    0.000    0.000 
#
# Total GULP energy -133881.527695 kJ/mol
# GULP energy per Si atom -5578.396987 kJ/mol
# Density = 2.003929 g / cm^3
# Si number density = 20.085002 Si / 1000 Ang^3
#
#
#
# Elastic Constant Matrix: (Units=GPa)
#
#
# Indices 1 2 3 4 5 6 
#
# 1 32.2057 39.7858 24.4954 0.0000 0.0000 0.0000
# 2 39.7858 163.5286 45.3238 0.0000 0.0000 0.0000
# 3 24.4954 45.3238 99.0145 0.0000 0.0000 0.0000
# 4 0.0000 0.0000 0.0000 33.7275 0.0000 0.0000
# 5 0.0000 0.0000 0.0000 0.0000 22.2879 0.0000
# 6 0.0000 0.0000 0.0000 0.0000 0.0000 44.8873
#
#
#
# Elastic Compliance Matrix: (Units=1/GPa)
#
#
# Indices 1 2 3 4 5 6 
#
# 1 0.048953 -0.009796 -0.007626 0.000000 0.000000 0.000000
# 2 -0.009796 0.008964 -0.001680 0.000000 0.000000 0.000000
# 3 -0.007626 -0.001680 0.012755 0.000000 0.000000 0.000000
# 4 0.000000 0.000000 0.000000 0.029649 0.000000 0.000000
# 5 0.000000 0.000000 0.000000 0.000000 0.044867 0.000000
# 6 0.000000 0.000000 0.000000 0.000000 0.000000 0.022278
#
#
# Mechanical properties :
#
#
# Convention : Reuss Voigt Hill
#
# Bulk Modulus (GPa) = 30.80018 57.10655 43.95336
# Shear Modulus (GPa) = 23.09532 32.52348 27.80940
#
# Velocity S-wave (km/s) = 3.39467 4.02841 3.72504
# Velocity P-wave (km/s) = 5.54375 7.08037 6.35865
#
# Compressibility (1/GPa) = 0.03246734
#
# Stress axis : x y z
#
# Youngs Moduli (GPa) = 20.42780 111.55588 78.39986
#
# Poissons Ratio (x) = 1.09284 0.59790
# Poissons Ratio (y) = 0.20012 0.13169
# Poissons Ratio (z) = 0.15579 0.18739
#
# Static dielectric constant tensor:
#      x y z
#    x 1.699390 0.000000 0.000000 
#    y 0.000000 1.794170 0.000000 
#    z 0.000000 0.000000 1.702090 
# 
# From -- ./inp_files/18865.got.cif
#   From: 2010.05.17/outbox.cif.g08.bks.cpg/sg20_10_cif.got.tgz:18865.got - 2010.06.03 22:52:26.
