data_PCOD9317691
_publ_section_title
;
Structure prediction by ZEFSAII (Michael W. Deem and Ramdas Pophale) SiO2 
 PCOD9317691
Probable space group: C 2 2 21
;
_chemical_formula_sum "Si O2"
_cell_formula_units_Z 56
_cell_length_a 13.322441
_cell_length_b 10.960376
_cell_length_c 17.355307
_cell_angle_alpha 90.000000
_cell_angle_beta 90.000000
_cell_angle_gamma 90.000000
_cell_volume 2534.203924
_symmetry_space_group_name_H-M "C 2 2 21"
_symmetry_group_IT_number 20
_symmetry_cell_setting 'orthorhombic'
loop_
_space_group_symop_operation_xyz
x,y,z
-x,-y,1/2+z
x,-y,-z
-x,y,1/2-z
1/2+x,1/2+y,z
1/2-x,1/2-y,1/2+z
1/2+x,1/2-y,-z
1/2-x,1/2+y,1/2-z
loop_
_atom_site_type_symbol
_atom_site_label
_atom_site_fract_x
_atom_site_fract_y
_atom_site_fract_z
Si Si1 0.608938 0.233719 0.717431
Si Si2 0.639348 0.562107 0.915534
Si Si3 0.772697 0.050990 0.140614
Si Si4 0.389253 0.044712 0.221725
Si Si5 0.776693 0.823552 0.642508
Si Si6 0.258390 0.268237 0.979266
Si Si7 0.421645 0.612816 0.940012
O O1 0.500000 0.266379 0.750000
O O2 0.648767 0.340994 0.662957
O O3 0.602919 0.093856 0.690091
O O4 0.683828 0.239694 0.789857
O O5 0.662904 0.452918 0.857185
O O6 0.531745 0.625796 0.904976
O O7 0.640936 0.500000 0.000000
O O8 0.726036 0.662732 0.920545
O O9 0.688650 0.042754 0.206042
O O10 0.838672 0.931982 0.121771
O O11 0.728283 0.105643 0.061265
O O12 0.500000 0.081473 0.250000
O O13 0.337226 0.134785 0.160342
O O14 0.795470 0.763100 0.559839
O O15 0.373263 0.280687 0.008382
O O16 0.429812 0.500000 0.000000
#
# Coordination Sequence:
#
# PCOD9317691 Si02
#       7
#     8   8   8   8   8   8   8
#     4  10  20  36  58  80 108 148 190 234 284 336
#     4   9  18  33  53  78 107 139 180 229 277 328
#     4  10  20  36  57  81 111 148 193 238 283 340
#     4  10  22  38  54  80 118 154 190 238 298 358
#     4  10  20  36  57  81 111 148 193 238 283 340
#     4  10  20  34  56  84 114 146 184 236 290 340
#     4   9  18  33  53  78 107 139 180 229 277 328
#
# _framework density 22.097669
#
# number of rings (size 3 to 8) (size 9 to 14) (size 15 to 20)
#    0.000    2.286    0.000    2.571    0.000    2.286 
#    0.000    1.429    0.000   13.714    0.000    0.000 
#    0.000    0.000    0.000    0.000    0.000    0.000 
#
# Total GULP energy -156128.438840 kJ/mol
# GULP energy per Si atom -5576.015673 kJ/mol
# Density = 2.204737 g / cm^3
# Si number density = 22.097669 Si / 1000 Ang^3
#
#
#
# Elastic Constant Matrix: (Units=GPa)
#
#
# Indices 1 2 3 4 5 6 
#
# 1 119.1312 27.4538 9.2618 0.0000 0.0000 0.0000
# 2 27.4538 64.6105 8.6400 0.0000 0.0000 0.0000
# 3 9.2618 8.6400 59.8845 0.0000 0.0000 0.0000
# 4 0.0000 0.0000 0.0000 23.6574 0.0000 0.0000
# 5 0.0000 0.0000 0.0000 0.0000 25.0793 0.0000
# 6 0.0000 0.0000 0.0000 0.0000 0.0000 20.8057
#
#
#
# Elastic Compliance Matrix: (Units=1/GPa)
#
#
# Indices 1 2 3 4 5 6 
#
# 1 0.009352 -0.003855 -0.000890 0.000000 0.000000 0.000000
# 2 -0.003855 0.017371 -0.001910 0.000000 0.000000 0.000000
# 3 -0.000890 -0.001910 0.017112 0.000000 0.000000 0.000000
# 4 0.000000 0.000000 0.000000 0.042270 0.000000 0.000000
# 5 0.000000 0.000000 0.000000 0.000000 0.039874 0.000000
# 6 0.000000 0.000000 0.000000 0.000000 0.000000 0.048064
#
#
# Mechanical properties :
#
#
# Convention : Reuss Voigt Hill
#
# Bulk Modulus (GPa) = 32.76036 37.14859 34.95447
# Shear Modulus (GPa) = 25.31313 27.12654 26.21984
#
# Velocity S-wave (km/s) = 3.38821 3.50748 3.44836
# Velocity P-wave (km/s) = 5.49218 5.76635 5.63094
#
# Compressibility (1/GPa) = 0.03052469
#
# Stress axis : x y z
#
# Youngs Moduli (GPa) = 106.93358 57.56842 58.43833
#
# Poissons Ratio (x) = 0.22190 0.05202
# Poissons Ratio (y) = 0.41218 0.11162
# Poissons Ratio (z) = 0.09519 0.10996
#
# Static dielectric constant tensor:
#      x y z
#    x 1.836890 0.000000 0.000000 
#    y 0.000000 1.858960 0.000000 
#    z 0.000000 0.000000 1.851720 
# 
# From -- ./inp_files/27166.got.cif
#   From: 2010.05.17/outbox.cif.g08.bks.cpg/sg20_14_cif.got.tgz:27166.got - 2010.06.03 22:52:26.
