data_PCOD9317075
_publ_section_title
;
Structure prediction by ZEFSAII (Michael W. Deem and Ramdas Pophale) SiO2 
 PCOD9317075
Probable space group: C 2 2 21
;
_chemical_formula_sum "Si O2"
_cell_formula_units_Z 36
_cell_length_a 12.729954
_cell_length_b 9.020443
_cell_length_c 13.795272
_cell_angle_alpha 90.000000
_cell_angle_beta 90.000000
_cell_angle_gamma 90.000000
_cell_volume 1584.108662
_symmetry_space_group_name_H-M "C 2 2 21"
_symmetry_group_IT_number 20
_symmetry_cell_setting 'orthorhombic'
loop_
_space_group_symop_operation_xyz
x,y,z
-x,-y,1/2+z
x,-y,-z
-x,y,1/2-z
1/2+x,1/2+y,z
1/2-x,1/2-y,1/2+z
1/2+x,1/2-y,-z
1/2-x,1/2+y,1/2-z
loop_
_atom_site_type_symbol
_atom_site_label
_atom_site_fract_x
_atom_site_fract_y
_atom_site_fract_z
Si Si1 0.623213 0.879880 0.925269
Si Si2 0.500000 0.113438 0.250000
Si Si3 0.187163 0.806050 0.340132
Si Si4 0.318298 0.654761 0.196485
Si Si5 0.549893 0.672302 0.479805
O O1 0.554706 0.962796 0.841374
O O2 0.717941 0.800445 0.870056
O O3 0.544359 0.771514 0.980674
O O4 0.664730 0.000000 0.000000
O O5 0.590399 0.217548 0.292915
O O6 0.292273 0.726547 0.300200
O O7 0.153127 0.799016 0.452467
O O8 0.186176 0.975730 0.303772
O O9 0.419122 0.696303 0.132338
O O10 0.524548 0.500000 0.500000
#
# Coordination Sequence:
#
# PCOD9317075 Si02
#       5
#     8   4   8   8   8
#     4  10  19  34  55  80 107 139 177 223 264 303
#     4   8  18  34  52  74 108 142 176 218 264 314
#     4   9  18  35  55  77 105 141 178 219 263 309
#     4  10  20  36  56  78 107 140 176 218 263 314
#     4   9  19  36  54  75 108 145 178 215 264 319
#
# _framework density 22.725712999999999
#
# number of rings (size 3 to 8) (size 9 to 14) (size 15 to 20)
#    0.000    2.667    0.000    2.000    0.000    5.333 
#    0.000   18.889    0.000    1.333    0.000    0.000 
#    0.000    0.000    0.000    0.000    0.000    0.000 
#
# Total GULP energy -100369.469191 kJ/mol
# GULP energy per Si atom -5576.081622 kJ/mol
# Density = 2.267399 g / cm^3
# Si number density = 22.725713 Si / 1000 Ang^3
#
#
#
# Elastic Constant Matrix: (Units=GPa)
#
#
# Indices 1 2 3 4 5 6 
#
# 1 52.6904 4.7917 -7.7155 0.0000 0.0000 0.0000
# 2 4.7917 24.9793 5.5304 0.0000 0.0000 0.0000
# 3 -7.7155 5.5304 38.0461 0.0000 0.0000 0.0000
# 4 0.0000 0.0000 0.0000 24.3531 0.0000 0.0000
# 5 0.0000 0.0000 0.0000 0.0000 31.7716 0.0000
# 6 0.0000 0.0000 0.0000 0.0000 0.0000 27.6887
#
#
#
# Elastic Compliance Matrix: (Units=1/GPa)
#
#
# Indices 1 2 3 4 5 6 
#
# 1 0.020129 -0.004924 0.004798 0.000000 0.000000 0.000000
# 2 -0.004924 0.042569 -0.007186 0.000000 0.000000 0.000000
# 3 0.004798 -0.007186 0.028301 0.000000 0.000000 0.000000
# 4 0.000000 0.000000 0.000000 0.041062 0.000000 0.000000
# 5 0.000000 0.000000 0.000000 0.000000 0.031475 0.000000
# 6 0.000000 0.000000 0.000000 0.000000 0.000000 0.036116
#
#
# Mechanical properties :
#
#
# Convention : Reuss Voigt Hill
#
# Bulk Modulus (GPa) = 13.09328 13.43656 13.26492
# Shear Modulus (GPa) = 20.85641 24.30330 22.57985
#
# Velocity S-wave (km/s) = 3.03272 3.27374 3.15553
# Velocity P-wave (km/s) = 4.24701 4.49613 4.37335
#
# Compressibility (1/GPa) = 0.07637507
#
# Stress axis : x y z
#
# Youngs Moduli (GPa) = 49.67938 23.49150 35.33391
#
# Poissons Ratio (x) = 0.11566 -0.16952
# Poissons Ratio (y) = 0.24460 0.25392
# Poissons Ratio (z) = -0.23835 0.16881
#
# Static dielectric constant tensor:
#      x y z
#    x 1.869270 0.000000 0.000000 
#    y 0.000000 1.807000 0.000000 
#    z 0.000000 0.000000 1.945000 
# 
# From -- ./inp_files/18408.got.cif
#   From: 2010.05.17/outbox.cif.g08.bks.cpg/sg20_10_cif.got.tgz:18408.got - 2010.06.03 22:52:26.
