data_PCOD9317805
_publ_section_title
;
Structure prediction by ZEFSAII (Michael W. Deem and Ramdas Pophale) SiO2 
 PCOD9317805
Probable space group: C 2 2 21
;
_chemical_formula_sum "Si O2"
_cell_formula_units_Z 48
_cell_length_a 28.391161
_cell_length_b 8.387037
_cell_length_c 9.950005
_cell_angle_alpha 90.000000
_cell_angle_beta 90.000000
_cell_angle_gamma 90.000000
_cell_volume 2369.272482
_symmetry_space_group_name_H-M "C 2 2 21"
_symmetry_group_IT_number 20
_symmetry_cell_setting 'orthorhombic'
loop_
_space_group_symop_operation_xyz
x,y,z
-x,-y,1/2+z
x,-y,-z
-x,y,1/2-z
1/2+x,1/2+y,z
1/2-x,1/2-y,1/2+z
1/2+x,1/2-y,-z
1/2-x,1/2+y,1/2-z
loop_
_atom_site_type_symbol
_atom_site_label
_atom_site_fract_x
_atom_site_fract_y
_atom_site_fract_z
Si Si1 0.075623 0.701184 0.890096
Si Si2 0.101107 0.000000 0.000000
Si Si3 0.300237 0.000000 0.000000
Si Si4 0.949644 0.621135 0.300145
Si Si5 0.826498 0.571061 0.706578
Si Si6 0.271511 0.658554 0.908276
Si Si7 0.353795 0.267793 0.291359
O O1 0.051823 0.571948 0.792679
O O2 0.130407 0.668523 0.854541
O O3 0.070596 0.891123 0.897919
O O4 0.060056 0.656594 0.042224
O O5 0.133291 0.109514 0.906919
O O6 0.271935 0.164587 0.025640
O O7 0.329989 0.959994 0.133476
O O8 0.904042 0.703607 0.233213
O O9 0.000000 0.678836 0.250000
O O10 0.776092 0.644941 0.677227
O O11 0.829639 0.391433 0.648353
O O12 0.318046 0.659878 0.815412
O O13 0.273289 0.500000 0.000000
#
# Coordination Sequence:
#
# PCOD9317805 Si02
#       7
#     8   4   4   8   8   8   8
#     4   9  20  36  64  97 124 165 216 266 330 400
#     4  10  20  35  68  92 134 168 216 270 336 395
#     4  10  26  43  58  94 132 188 228 284 330 391
#     4   9  18  39  68  92 124 168 223 269 334 403
#     4  10  23  42  61  92 133 176 229 267 326 410
#     4  11  26  39  62  92 135 180 227 274 337 398
#     4   9  22  41  61  96 131 174 219 278 330 400
#
# _framework density 20.259383
#
# number of rings (size 3 to 8) (size 9 to 14) (size 15 to 20)
#    0.000    2.333    0.000    1.000   14.000    1.333 
#    0.000   18.333    7.333    0.000    0.000    0.000 
#    0.000    0.000    0.000    0.000    0.000    0.000 
#
# Total GULP energy -133636.243703 kJ/mol
# GULP energy per Si atom -5568.176821 kJ/mol
# Density = 2.021327 g / cm^3
# Si number density = 20.259383 Si / 1000 Ang^3
#
#
#
# Elastic Constant Matrix: (Units=GPa)
#
#
# Indices 1 2 3 4 5 6 
#
# 1 152.9549 27.2892 50.8026 0.0000 0.0000 0.0000
# 2 27.2892 114.7102 30.2686 0.0000 0.0000 0.0000
# 3 50.8026 30.2686 66.8584 0.0000 0.0000 0.0000
# 4 0.0000 0.0000 0.0000 24.5364 0.0000 0.0000
# 5 0.0000 0.0000 0.0000 0.0000 8.8765 0.0000
# 6 0.0000 0.0000 0.0000 0.0000 0.0000 8.4413
#
#
#
# Elastic Compliance Matrix: (Units=1/GPa)
#
#
# Indices 1 2 3 4 5 6 
#
# 1 0.008759 -0.000372 -0.006487 0.000000 0.000000 0.000000
# 2 -0.000372 0.009916 -0.004207 0.000000 0.000000 0.000000
# 3 -0.006487 -0.004207 0.021791 0.000000 0.000000 0.000000
# 4 0.000000 0.000000 0.000000 0.040756 0.000000 0.000000
# 5 0.000000 0.000000 0.000000 0.000000 0.112657 0.000000
# 6 0.000000 0.000000 0.000000 0.000000 0.000000 0.118465
#
#
# Mechanical properties :
#
#
# Convention : Reuss Voigt Hill
#
# Bulk Modulus (GPa) = 54.54262 61.24939 57.89601
# Shear Modulus (GPa) = 14.68056 23.44838 19.06447
#
# Velocity S-wave (km/s) = 2.69482 3.40576 3.07093
# Velocity P-wave (km/s) = 6.05502 6.76490 6.41978
#
# Compressibility (1/GPa) = 0.01833428
#
# Stress axis : x y z
#
# Youngs Moduli (GPa) = 114.17017 100.84585 45.89122
#
# Poissons Ratio (x) = 0.03751 0.29770
# Poissons Ratio (y) = 0.04247 0.19305
# Poissons Ratio (z) = 0.74063 0.42422
#
# Static dielectric constant tensor:
#      x y z
#    x 1.703720 0.000000 0.000000 
#    y 0.000000 1.823420 0.000000 
#    z 0.000000 0.000000 1.780820 
# 
# From -- ./inp_files/11508.got.cif
#   From: 2010.05.17/outbox.cif.g08.bks.cpg/sg20_6_cif.got.tgz:11508.got - 2010.06.03 22:52:26.
