data_PCOD9317619
_publ_section_title
;
Structure prediction by ZEFSAII (Michael W. Deem and Ramdas Pophale) SiO2 
 PCOD9317619
Probable space group: C 2 2 21
;
_chemical_formula_sum "Si O2"
_cell_formula_units_Z 60
_cell_length_a 7.212652
_cell_length_b 11.877855
_cell_length_c 27.310464
_cell_angle_alpha 90.000000
_cell_angle_beta 90.000000
_cell_angle_gamma 90.000000
_cell_volume 2339.710245
_symmetry_space_group_name_H-M "C 2 2 21"
_symmetry_group_IT_number 20
_symmetry_cell_setting 'orthorhombic'
loop_
_space_group_symop_operation_xyz
x,y,z
-x,-y,1/2+z
x,-y,-z
-x,y,1/2-z
1/2+x,1/2+y,z
1/2-x,1/2-y,1/2+z
1/2+x,1/2-y,-z
1/2-x,1/2+y,1/2-z
loop_
_atom_site_type_symbol
_atom_site_label
_atom_site_fract_x
_atom_site_fract_y
_atom_site_fract_z
Si Si1 0.270354 0.441282 0.397639
Si Si2 0.711781 0.848008 0.732846
Si Si3 0.691836 0.369662 0.665797
Si Si4 0.505693 0.790610 0.530617
Si Si5 0.597681 0.280840 0.569012
Si Si6 0.605087 0.818309 0.631596
Si Si7 0.762232 0.000000 0.500000
Si Si8 0.534568 0.439185 0.199189
O O1 0.120377 0.347110 0.411863
O O2 0.368720 0.465733 0.450101
O O3 0.379132 0.392531 0.350731
O O4 0.184625 0.558956 0.381780
O O5 0.500000 0.875976 0.750000
O O6 0.815593 0.804376 0.781958
O O7 0.699161 0.777557 0.682187
O O8 0.825120 0.960212 0.716579
O O9 0.557850 0.344644 0.619689
O O10 0.894987 0.347120 0.646293
O O11 0.649552 0.497022 0.681107
O O12 0.483109 0.717697 0.481083
O O13 0.299227 0.817595 0.548599
O O14 0.606089 0.748632 0.580821
O O15 0.622637 0.898906 0.514492
O O16 0.500000 0.373100 0.250000
#
# Coordination Sequence:
#
# PCOD9317619 Si02
#       8
#     8   8   8   8   8   8   4   8
#     4   9  17  31  49  69  94 128 161 195 244 298
#     4   8  14  27  49  70  91 126 167 195 232 293
#     4   9  17  29  48  73  96 122 162 207 244 280
#     4   9  18  32  48  69  94 126 161 200 246 291
#     4  10  20  33  49  72 102 126 157 207 252 287
#     4   8  15  30  50  65  88 130 168 189 228 306
#     4   8  16  32  52  64  86 130 172 190 226 308
#     4   9  17  30  51  75  99 126 164 206 238 280
#
# _framework density 25.644200000000001
#
# number of rings (size 3 to 8) (size 9 to 14) (size 15 to 20)
#    0.000    3.200    0.000    0.000    0.000    4.267 
#    0.000    8.667    0.000   24.800    0.000    0.000 
#    0.000    0.000    0.000    0.000    0.000    0.000 
#
# Total GULP energy -167248.966739 kJ/mol
# GULP energy per Si atom -5574.965558 kJ/mol
# Density = 2.558583 g / cm^3
# Si number density = 25.644200 Si / 1000 Ang^3
#
#
#
# Elastic Constant Matrix: (Units=GPa)
#
#
# Indices 1 2 3 4 5 6 
#
# 1 68.8072 25.5418 48.5029 0.0000 0.0000 0.0000
# 2 25.5418 64.5252 48.6840 0.0000 0.0000 0.0000
# 3 48.5029 48.6840 288.8849 0.0000 0.0000 0.0000
# 4 0.0000 0.0000 0.0000 51.1007 0.0000 0.0000
# 5 0.0000 0.0000 0.0000 0.0000 52.4869 0.0000
# 6 0.0000 0.0000 0.0000 0.0000 0.0000 15.9098
#
#
#
# Elastic Compliance Matrix: (Units=1/GPa)
#
#
# Indices 1 2 3 4 5 6 
#
# 1 0.018081 -0.005576 -0.002096 0.000000 0.000000 0.000000
# 2 -0.005576 0.019475 -0.002346 0.000000 0.000000 0.000000
# 3 -0.002096 -0.002346 0.004209 0.000000 0.000000 0.000000
# 4 0.000000 0.000000 0.000000 0.019569 0.000000 0.000000
# 5 0.000000 0.000000 0.000000 0.000000 0.019052 0.000000
# 6 0.000000 0.000000 0.000000 0.000000 0.000000 0.062854
#
#
# Mechanical properties :
#
#
# Convention : Reuss Voigt Hill
#
# Bulk Modulus (GPa) = 46.02092 74.18609 60.10350
# Shear Modulus (GPa) = 29.32240 43.86540 36.59390
#
# Velocity S-wave (km/s) = 3.38514 4.14035 3.78164
# Velocity P-wave (km/s) = 5.76747 7.20059 6.52351
#
# Compressibility (1/GPa) = 0.02172925
#
# Stress axis : x y z
#
# Youngs Moduli (GPa) = 55.30792 51.34842 237.59521
#
# Poissons Ratio (x) = 0.28630 0.49801
# Poissons Ratio (y) = 0.30837 0.55736
# Poissons Ratio (z) = 0.11593 0.12046
#
# Static dielectric constant tensor:
#      x y z
#    x 2.059380 0.000000 0.000000 
#    y 0.000000 2.081980 0.000000 
#    z 0.000000 0.000000 2.159650 
# 
# From -- ./inp_files/30193.got.cif
#   From: 2010.05.17/outbox.cif.g08.bks.cpg/sg20_16_cif.got.tgz:30193.got - 2010.06.03 22:52:26.
