data_PCOD9317438
_publ_section_title
;
Structure prediction by ZEFSAII (Michael W. Deem and Ramdas Pophale) SiO2 
 PCOD9317438
Probable space group: C 2 2 21
;
_chemical_formula_sum "Si O2"
_cell_formula_units_Z 56
_cell_length_a 16.184017
_cell_length_b 5.247220
_cell_length_c 29.961183
_cell_angle_alpha 90.000000
_cell_angle_beta 90.000000
_cell_angle_gamma 90.000000
_cell_volume 2544.336548
_symmetry_space_group_name_H-M "C 2 2 21"
_symmetry_group_IT_number 20
_symmetry_cell_setting 'orthorhombic'
loop_
_space_group_symop_operation_xyz
x,y,z
-x,-y,1/2+z
x,-y,-z
-x,y,1/2-z
1/2+x,1/2+y,z
1/2-x,1/2-y,1/2+z
1/2+x,1/2-y,-z
1/2-x,1/2+y,1/2-z
loop_
_atom_site_type_symbol
_atom_site_label
_atom_site_fract_x
_atom_site_fract_y
_atom_site_fract_z
Si Si1 0.293313 0.802832 0.736147
Si Si2 0.445887 0.840497 0.873911
Si Si3 0.309964 0.785039 0.159286
Si Si4 0.212402 0.500000 0.000000
Si Si5 0.060710 0.928048 0.287288
Si Si6 0.838751 0.030442 0.070418
Si Si7 0.485980 0.835527 0.045159
Si Si8 0.110272 0.000000 0.000000
O O1 0.234096 0.598193 0.762284
O O2 0.274181 0.698504 0.686765
O O3 0.382030 0.763743 0.758230
O O4 0.483195 0.710268 0.829606
O O5 0.410825 0.641529 0.909431
O O6 0.361899 0.967503 0.854093
O O7 0.495197 0.034518 0.905927
O O8 0.376060 0.625398 0.189334
O O9 0.294269 0.645131 0.113199
O O10 0.271681 0.405526 0.039417
O O11 0.162137 0.751109 0.014279
O O12 0.000000 0.043360 0.250000
O O13 0.891020 0.242845 0.044190
O O14 0.550655 0.606802 0.038769
O O15 0.497893 0.000000 0.000000
#
# Coordination Sequence:
#
# PCOD9317438 Si02
#       8
#     8   8   8   4   8   8   8   4
#     4  10  19  38  62  85 124 166 210 261 331 384
#     4  10  20  40  69  95 130 174 240 272 327 412
#     4   9  20  38  61  93 125 173 217 277 326 405
#     4  12  27  44  67 102 138 174 228 284 343 400
#     4  10  21  38  62  96 131 171 221 281 333 396
#     4  10  23  40  72  94 129 175 238 276 324 404
#     4  11  22  44  71  98 134 188 227 267 347 419
#     4  12  27  44  63 100 146 180 210 282 359 406
#
# _framework density 22.009665999999999
#
# number of rings (size 3 to 8) (size 9 to 14) (size 15 to 20)
#    0.000    1.714    2.143    2.143    5.000    0.571 
#    2.571    0.000    0.000    0.000    0.000    0.000 
#    0.000    0.000    0.000    0.000    0.000    0.000 
#
# Total GULP energy -155998.887632 kJ/mol
# GULP energy per Si atom -5571.388844 kJ/mol
# Density = 2.195957 g / cm^3
# Si number density = 22.009666 Si / 1000 Ang^3
#
#
#
# Elastic Constant Matrix: (Units=GPa)
#
#
# Indices 1 2 3 4 5 6 
#
# 1 41.8366 8.6745 51.3701 0.0000 0.0000 0.0000
# 2 8.6745 64.5407 32.1719 0.0000 0.0000 0.0000
# 3 51.3701 32.1719 107.1846 0.0000 0.0000 0.0000
# 4 0.0000 0.0000 0.0000 39.3079 0.0000 0.0000
# 5 0.0000 0.0000 0.0000 0.0000 28.1436 0.0000
# 6 0.0000 0.0000 0.0000 0.0000 0.0000 6.3278
#
#
#
# Elastic Compliance Matrix: (Units=1/GPa)
#
#
# Indices 1 2 3 4 5 6 
#
# 1 0.061021 0.007499 -0.031496 0.000000 0.000000 0.000000
# 2 0.007499 0.019142 -0.009339 0.000000 0.000000 0.000000
# 3 -0.031496 -0.009339 0.027228 0.000000 0.000000 0.000000
# 4 0.000000 0.000000 0.000000 0.025440 0.000000 0.000000
# 5 0.000000 0.000000 0.000000 0.000000 0.035532 0.000000
# 6 0.000000 0.000000 0.000000 0.000000 0.000000 0.158033
#
#
# Mechanical properties :
#
#
# Convention : Reuss Voigt Hill
#
# Bulk Modulus (GPa) = 24.55971 44.22164 34.39067
# Shear Modulus (GPa) = 12.29583 22.84554 17.57068
#
# Velocity S-wave (km/s) = 2.36615 3.22526 2.82851
# Velocity P-wave (km/s) = 4.31830 5.83140 5.13094
#
# Compressibility (1/GPa) = 0.04071710
#
# Stress axis : x y z
#
# Youngs Moduli (GPa) = 16.38774 52.24206 36.72680
#
# Poissons Ratio (x) = -0.39174 1.15676
# Poissons Ratio (y) = -0.12289 0.34300
# Poissons Ratio (z) = 0.51615 0.48790
#
# Static dielectric constant tensor:
#      x y z
#    x 1.818030 0.000000 0.000000 
#    y 0.000000 1.941420 0.000000 
#    z 0.000000 0.000000 1.856560 
# 
# From -- ./inp_files/31309.got.cif
#   From: 2010.05.17/outbox.cif.g08.bks.cpg/sg20_16_cif.got.tgz:31309.got - 2010.06.03 22:52:26.
