data_PCOD9317666
_publ_section_title
;
Structure prediction by ZEFSAII (Michael W. Deem and Ramdas Pophale) SiO2 
 PCOD9317666
Probable space group: C 2 2 21
;
_chemical_formula_sum "Si O2"
_cell_formula_units_Z 64
_cell_length_a 21.104554
_cell_length_b 7.624609
_cell_length_c 20.363489
_cell_angle_alpha 90.000000
_cell_angle_beta 90.000000
_cell_angle_gamma 90.000000
_cell_volume 3276.769906
_symmetry_space_group_name_H-M "C 2 2 21"
_symmetry_group_IT_number 20
_symmetry_cell_setting 'orthorhombic'
loop_
_space_group_symop_operation_xyz
x,y,z
-x,-y,1/2+z
x,-y,-z
-x,y,1/2-z
1/2+x,1/2+y,z
1/2-x,1/2-y,1/2+z
1/2+x,1/2-y,-z
1/2-x,1/2+y,1/2-z
loop_
_atom_site_type_symbol
_atom_site_label
_atom_site_fract_x
_atom_site_fract_y
_atom_site_fract_z
Si Si1 0.917428 0.460559 0.076228
Si Si2 0.976158 0.464389 0.322698
Si Si3 0.917428 0.960559 0.923772
Si Si4 0.164371 0.459739 0.193685
Si Si5 0.300601 0.039279 0.840050
Si Si6 0.523842 0.464389 0.822698
Si Si7 0.164371 0.959740 0.806315
Si Si8 0.800601 0.960722 0.840050
O O1 0.917086 0.250000 0.082713
O O2 0.850673 0.525154 0.106309
O O3 0.974954 0.525592 0.121898
O O4 0.924876 0.500000 0.000000
O O5 0.903601 0.523785 0.331135
O O6 0.976688 0.250000 0.324183
O O7 0.000000 0.514283 0.250000
O O8 0.850673 0.025154 0.893691
O O9 0.974954 0.025592 0.878102
O O10 0.924876 0.000000 0.000000
O O11 0.178435 0.526920 0.267666
O O12 0.159117 0.250000 0.198995
O O13 0.226792 0.496679 0.151289
O O14 0.304812 0.250000 0.838175
O O15 0.226792 0.996680 0.848711
O O16 0.500000 0.514284 0.750000
O O17 0.596399 0.523785 0.831135
O O18 0.178436 0.026921 0.732334
#
# Coordination Sequence:
#
# PCOD9317666 Si02
#       8
#     8   8   8   8   8   8   8   8
#     4  10  20  34  52  73 100 134 169 205 248 299
#     4   9  15  29  53  76  96 126 169 208 244 293
#     4  10  20  34  52  73 100 134 169 205 248 299
#     4   9  16  28  51  77  97 121 161 207 246 287
#     4   9  17  30  48  72 100 128 158 200 248 293
#     4   9  15  29  53  76  96 126 169 208 244 293
#     4   9  16  28  51  77  97 121 161 207 246 287
#     4   9  17  30  48  72 100 128 158 200 248 293
#
# _framework density 19.531428999999999
#
# number of rings (size 3 to 8) (size 9 to 14) (size 15 to 20)
#    0.000    2.750    2.500    0.000    0.000    1.000 
#    0.000    2.500    0.000    7.500    0.000    0.000 
#    0.000    0.000    0.000    0.000    0.000    0.000 
#
# Total GULP energy -178443.163447 kJ/mol
# GULP energy per Si atom -5576.348858 kJ/mol
# Density = 1.948697 g / cm^3
# Si number density = 19.531429 Si / 1000 Ang^3
#
#
#
# Elastic Constant Matrix: (Units=GPa)
#
#
# Indices 1 2 3 4 5 6 
#
# 1 237.3039 7.3790 109.0663 0.0000 0.0000 0.0000
# 2 7.3790 35.5525 0.4417 0.0000 0.0000 0.0000
# 3 109.0663 0.4417 128.9852 0.0000 0.0000 0.0000
# 4 0.0000 0.0000 0.0000 15.2751 0.0000 0.0000
# 5 0.0000 0.0000 0.0000 0.0000 27.9008 0.0000
# 6 0.0000 0.0000 0.0000 0.0000 0.0000 13.6165
#
#
#
# Elastic Compliance Matrix: (Units=1/GPa)
#
#
# Indices 1 2 3 4 5 6 
#
# 1 0.006959 -0.001371 -0.005880 0.000000 0.000000 0.000000
# 2 -0.001371 0.028399 0.001062 0.000000 0.000000 0.000000
# 3 -0.005880 0.001062 0.012721 0.000000 0.000000 0.000000
# 4 0.000000 0.000000 0.000000 0.065466 0.000000 0.000000
# 5 0.000000 0.000000 0.000000 0.000000 0.035841 0.000000
# 6 0.000000 0.000000 0.000000 0.000000 0.000000 0.073440
#
#
# Mechanical properties :
#
#
# Convention : Reuss Voigt Hill
#
# Bulk Modulus (GPa) = 28.01017 70.62396 49.31706
# Shear Modulus (GPa) = 20.23442 30.35547 25.29494
#
# Velocity S-wave (km/s) = 3.22218 3.94659 3.60264
# Velocity P-wave (km/s) = 5.31182 7.55017 6.52765
#
# Compressibility (1/GPa) = 0.03570132
#
# Stress axis : x y z
#
# Youngs Moduli (GPa) = 143.70010 35.21277 78.61142
#
# Poissons Ratio (x) = 0.04829 0.46220
# Poissons Ratio (y) = 0.19705 -0.08351
# Poissons Ratio (z) = 0.84490 -0.03741
#
# Static dielectric constant tensor:
#      x y z
#    x 1.712170 0.000000 0.000000 
#    y 0.000000 1.746290 0.000000 
#    z 0.000000 0.000000 1.646370 
# 
# From -- ./inp_files/27961.got.cif
#   From: 2010.05.17/outbox.cif.g08.bks.cpg/sg20_14_cif.got.tgz:27961.got - 2010.06.03 22:52:26.
