data_PCOD9317865
_publ_section_title
;
Structure prediction by ZEFSAII (Michael W. Deem and Ramdas Pophale) SiO2 
 PCOD9317865
Probable space group: C 2 2 21
;
_chemical_formula_sum "Si O2"
_cell_formula_units_Z 40
_cell_length_a 5.190186
_cell_length_b 27.076043
_cell_length_c 10.911144
_cell_angle_alpha 90.000000
_cell_angle_beta 90.000000
_cell_angle_gamma 90.000000
_cell_volume 1533.339785
_symmetry_space_group_name_H-M "C 2 2 21"
_symmetry_group_IT_number 20
_symmetry_cell_setting 'orthorhombic'
loop_
_space_group_symop_operation_xyz
x,y,z
-x,-y,1/2+z
x,-y,-z
-x,y,1/2-z
1/2+x,1/2+y,z
1/2-x,1/2-y,1/2+z
1/2+x,1/2-y,-z
1/2-x,1/2+y,1/2-z
loop_
_atom_site_type_symbol
_atom_site_label
_atom_site_fract_x
_atom_site_fract_y
_atom_site_fract_z
Si Si1 0.717330 0.410090 0.120176
Si Si2 0.306991 0.198688 0.918377
Si Si3 0.813404 0.195793 0.083892
Si Si4 0.500000 0.044285 0.250000
Si Si5 0.500000 0.392008 0.750000
Si Si6 0.210257 0.454260 0.108255
O O1 0.721401 0.351864 0.145290
O O2 0.481508 0.437266 0.053007
O O3 0.746829 0.434754 0.252604
O O4 0.981014 0.422688 0.052782
O O5 0.277927 0.251011 0.848939
O O6 0.585476 0.191754 0.983044
O O7 0.092083 0.202376 0.023088
O O8 0.850073 0.146530 0.161016
O O9 0.243442 0.074148 0.210111
O O10 0.613214 0.009366 0.138442
#
# Coordination Sequence:
#
# PCOD9317865 Si02
#       6
#     8   8   8   4   4   8
#     4   9  16  30  56  81 108 141 182 224 287 340
#     4  10  20  39  57  81 120 152 180 244 297 337
#     4  10  23  37  56  83 116 154 193 228 288 351
#     4  10  20  36  59  82 119 150 192 250 288 324
#     4  12  22  38  61  84 111 160 204 230 274 368
#     4   9  18  32  54  86 108 142 189 238 285 323
#
# _framework density 26.086849999999998
#
# number of rings (size 3 to 8) (size 9 to 14) (size 15 to 20)
#    0.000    2.400    0.000    4.800    0.000    1.600 
#    0.000    6.000    0.000   49.200    0.000    0.000 
#    0.000    0.000    0.000    0.000    0.000    0.000 
#
# Total GULP energy -111541.163163 kJ/mol
# GULP energy per Si atom -5577.058158 kJ/mol
# Density = 2.602747 g / cm^3
# Si number density = 26.086850 Si / 1000 Ang^3
#
#
#
# Elastic Constant Matrix: (Units=GPa)
#
#
# Indices 1 2 3 4 5 6 
#
# 1 201.4778 59.8772 15.9451 0.0000 0.0000 0.0000
# 2 59.8772 204.1280 30.3562 0.0000 0.0000 0.0000
# 3 15.9451 30.3562 26.2532 0.0000 0.0000 0.0000
# 4 0.0000 0.0000 0.0000 -65.4956 0.0000 0.0000
# 5 0.0000 0.0000 0.0000 0.0000 28.3864 0.0000
# 6 0.0000 0.0000 0.0000 0.0000 0.0000 46.1855
#
#
#
# Elastic Compliance Matrix: (Units=1/GPa)
#
#
# Indices 1 2 3 4 5 6 
#
# 1 0.005506 -0.001350 -0.001783 0.000000 0.000000 0.000000
# 2 -0.001350 0.006247 -0.006404 0.000000 0.000000 0.000000
# 3 -0.001783 -0.006404 0.046578 0.000000 0.000000 0.000000
# 4 0.000000 0.000000 0.000000 -0.015268 0.000000 0.000000
# 5 0.000000 0.000000 0.000000 0.000000 0.035228 0.000000
# 6 0.000000 0.000000 0.000000 0.000000 0.000000 0.021652
#
#
# Mechanical properties :
#
#
# Convention : Reuss Voigt Hill
#
# Bulk Modulus (GPa) = 25.47278 71.57954 48.52616
# Shear Modulus (GPa) = 37.84969 23.52728 30.68849
#
# Velocity S-wave (km/s) = 3.81321 3.00639 3.43359
# Velocity P-wave (km/s) = 5.40123 6.28886 5.86187
#
# Compressibility (1/GPa) = 0.03925759
#
# Stress axis : x y z
#
# Youngs Moduli (GPa) = 181.63364 160.07371 21.46937
#
# Poissons Ratio (x) = 0.21607 0.03828
# Poissons Ratio (y) = 0.24517 0.13748
# Poissons Ratio (z) = 0.32387 1.02506
#
# Static dielectric constant tensor:
#      x y z
#    x 2.470950 0.000000 0.000000 
#    y 0.000000 2.190080 0.000000 
#    z 0.000000 0.000000 2.043330 
# 
# From -- ./inp_files/17673.got.cif
#   From: 2010.05.17/outbox.cif.g08.bks.cpg/sg20_9_cif.got.tgz:17673.got - 2010.06.03 22:52:26.
