data_PCOD9317549
_publ_section_title
;
Structure prediction by ZEFSAII (Michael W. Deem and Ramdas Pophale) SiO2 
 PCOD9317549
Probable space group: C 2 2 21
;
_chemical_formula_sum "Si O2"
_cell_formula_units_Z 60
_cell_length_a 11.563477
_cell_length_b 28.202583
_cell_length_c 7.248066
_cell_angle_alpha 90.000000
_cell_angle_beta 90.000000
_cell_angle_gamma 90.000000
_cell_volume 2363.738703
_symmetry_space_group_name_H-M "C 2 2 21"
_symmetry_group_IT_number 20
_symmetry_cell_setting 'orthorhombic'
loop_
_space_group_symop_operation_xyz
x,y,z
-x,-y,1/2+z
x,-y,-z
-x,y,1/2-z
1/2+x,1/2+y,z
1/2-x,1/2-y,1/2+z
1/2+x,1/2-y,-z
1/2-x,1/2+y,1/2-z
loop_
_atom_site_type_symbol
_atom_site_label
_atom_site_fract_x
_atom_site_fract_y
_atom_site_fract_z
Si Si1 0.968423 0.440944 0.547035
Si Si2 0.742252 0.689486 0.444246
Si Si3 0.000000 0.089369 0.250000
Si Si4 0.766181 0.708235 0.042881
Si Si5 0.780378 0.445895 0.020822
Si Si6 0.390889 0.632527 0.613258
Si Si7 0.767927 0.920309 0.896020
Si Si8 0.489865 0.166359 0.529822
O O1 0.833106 0.449605 0.500478
O O2 0.000000 0.460691 0.750000
O O3 0.083801 0.449380 0.426192
O O4 0.963903 0.384564 0.551929
O O5 0.706102 0.698330 0.235418
O O6 0.697270 0.736918 0.538230
O O7 0.719133 0.633572 0.476150
O O8 0.879858 0.697030 0.474878
O O9 0.101852 0.061398 0.358317
O O10 0.942751 0.120682 0.410752
O O11 0.685233 0.680813 0.894592
O O12 0.887427 0.681726 0.041606
O O13 0.779000 0.421156 0.817243
O O14 0.737195 0.500000 0.000000
O O15 0.698593 0.411820 0.141871
O O16 0.500000 0.634722 0.750000
O O17 0.500000 0.163872 0.750000
#
# Coordination Sequence:
#
# PCOD9317549 Si02
#       8
#     8   8   4   8   8   8   8   8
#     4   9  17  37  67  90 127 175 223 281 354 419
#     4  11  23  40  66  95 135 188 235 289 354 434
#     4  10  20  42  72  96 142 200 224 282 374 416
#     4  12  23  44  62  98 133 183 242 285 367 419
#     4  10  19  41  72  98 133 186 230 292 372 431
#     4  11  25  45  70 103 140 184 237 304 353 437
#     4   9  19  39  66  95 135 183 224 287 353 428
#     4  11  22  38  62  95 136 183 230 296 352 423
#
# _framework density 25.383519
#
# number of rings (size 3 to 8) (size 9 to 14) (size 15 to 20)
#    0.000    1.600    4.000    2.800    0.000    5.333 
#    7.200    2.000    0.000    0.000    0.000    0.000 
#    0.000    0.000    0.000    0.000    0.000    0.000 
#
# Total GULP energy -167334.041404 kJ/mol
# GULP energy per Si atom -5577.801380 kJ/mol
# Density = 2.532574 g / cm^3
# Si number density = 25.383519 Si / 1000 Ang^3
#
#
#
# Elastic Constant Matrix: (Units=GPa)
#
#
# Indices 1 2 3 4 5 6 
#
# 1 152.3780 22.2058 5.7618 0.0000 0.0000 0.0000
# 2 22.2058 134.2854 25.1329 0.0000 0.0000 0.0000
# 3 5.7618 25.1329 63.2675 0.0000 0.0000 0.0000
# 4 0.0000 0.0000 0.0000 -7.7204 0.0000 0.0000
# 5 0.0000 0.0000 0.0000 0.0000 46.4638 0.0000
# 6 0.0000 0.0000 0.0000 0.0000 0.0000 1.8720
#
#
#
# Elastic Compliance Matrix: (Units=1/GPa)
#
#
# Indices 1 2 3 4 5 6 
#
# 1 0.006727 -0.001078 -0.000184 0.000000 0.000000 0.000000
# 2 -0.001078 0.008218 -0.003166 0.000000 0.000000 0.000000
# 3 -0.000184 -0.003166 0.017081 0.000000 0.000000 0.000000
# 4 0.000000 0.000000 0.000000 -0.129527 0.000000 0.000000
# 5 0.000000 0.000000 0.000000 0.000000 0.021522 0.000000
# 6 0.000000 0.000000 0.000000 0.000000 0.000000 0.534193
#
#
# Mechanical properties :
#
#
# Convention : Reuss Voigt Hill
#
# Bulk Modulus (GPa) = 43.16349 50.68133 46.92241
# Shear Modulus (GPa) = 10.53090 27.91175 19.22133
#
# Velocity S-wave (km/s) = 2.03905 3.31962 2.75478
# Velocity P-wave (km/s) = 4.75238 5.89090 5.35200
#
# Compressibility (1/GPa) = 0.02316773
#
# Stress axis : x y z
#
# Youngs Moduli (GPa) = 148.66194 121.68903 58.54621
#
# Poissons Ratio (x) = 0.13116 0.01080
# Poissons Ratio (y) = 0.16023 0.18538
# Poissons Ratio (z) = 0.02742 0.38530
#
# Static dielectric constant tensor:
#      x y z
#    x 2.085910 0.000000 0.000000 
#    y 0.000000 2.001680 0.000000 
#    z 0.000000 0.000000 2.016580 
# 
# From -- ./inp_files/7582.got.cif
#   From: 2010.05.17/outbox.cif.g08.bks.cpg/sg20_4_cif.got.tgz:7582.got - 2010.06.03 22:52:26.
