data_PCOD9317546
_publ_section_title
;
Structure prediction by ZEFSAII (Michael W. Deem and Ramdas Pophale) SiO2 
 PCOD9317546
Probable space group: C 2 2 21
;
_chemical_formula_sum "Si O2"
_cell_formula_units_Z 56
_cell_length_a 9.484957
_cell_length_b 14.374403
_cell_length_c 15.180594
_cell_angle_alpha 90.000000
_cell_angle_beta 90.000000
_cell_angle_gamma 90.000000
_cell_volume 2069.731209
_symmetry_space_group_name_H-M "C 2 2 21"
_symmetry_group_IT_number 20
_symmetry_cell_setting 'orthorhombic'
loop_
_space_group_symop_operation_xyz
x,y,z
-x,-y,1/2+z
x,-y,-z
-x,y,1/2-z
1/2+x,1/2+y,z
1/2-x,1/2-y,1/2+z
1/2+x,1/2-y,-z
1/2-x,1/2+y,1/2-z
loop_
_atom_site_type_symbol
_atom_site_label
_atom_site_fract_x
_atom_site_fract_y
_atom_site_fract_z
Si Si1 0.205044 0.485199 0.356392
Si Si2 0.253612 0.370219 0.197330
Si Si3 0.607383 0.300464 0.866085
Si Si4 0.333216 0.179469 0.979202
Si Si5 0.758849 0.297312 0.688411
Si Si6 0.953019 0.585954 0.431200
Si Si7 0.469875 0.513951 0.104107
O O1 0.174391 0.433992 0.266500
O O2 0.373798 0.492830 0.359694
O O3 0.175938 0.422767 0.441154
O O4 0.089045 0.563170 0.371172
O O5 0.128394 0.311466 0.149125
O O6 0.331917 0.287772 0.253874
O O7 0.359042 0.439021 0.144844
O O8 0.664371 0.333645 0.769691
O O9 0.716475 0.311935 0.946169
O O10 0.304251 0.239059 0.893193
O O11 0.489963 0.180253 0.019914
O O12 0.520406 0.373013 0.615769
O O13 0.913800 0.500000 0.500000
O O14 0.836305 0.618946 0.361892
O O15 0.461545 0.500000 0.000000
#
# Coordination Sequence:
#
# PCOD9317546 Si02
#       7
#     8   8   8   8   8   8   8
#     4  10  19  41  69 101 146 193 247 307 384 471
#     4   9  24  43  75 108 139 203 260 308 393 474
#     4  10  22  44  73 107 151 194 256 318 389 463
#     4  10  19  41  71  99 142 196 241 314 375 464
#     4   9  23  45  73 109 142 201 260 305 395 479
#     4  10  20  40  76 102 143 205 243 307 398 459
#     4  12  21  42  75 107 149 202 257 321 396 467
#
# _framework density 27.056650999999999
#
# number of rings (size 3 to 8) (size 9 to 14) (size 15 to 20)
#    0.857    1.143    2.857    0.857    0.000    4.000 
#    0.000    7.143    6.286    1.714    0.000    0.000 
#    0.000    0.000    0.000    0.000    0.000    0.000 
#
# Total GULP energy -156015.849131 kJ/mol
# GULP energy per Si atom -5571.994612 kJ/mol
# Density = 2.699507 g / cm^3
# Si number density = 27.056651 Si / 1000 Ang^3
#
#
#
# Elastic Constant Matrix: (Units=GPa)
#
#
# Indices 1 2 3 4 5 6 
#
# 1 102.1301 86.3049 65.2294 0.0000 0.0000 0.0000
# 2 86.3049 162.4391 91.4519 0.0000 0.0000 0.0000
# 3 65.2294 91.4519 196.7365 0.0000 0.0000 0.0000
# 4 0.0000 0.0000 0.0000 37.6022 0.0000 0.0000
# 5 0.0000 0.0000 0.0000 0.0000 16.1379 0.0000
# 6 0.0000 0.0000 0.0000 0.0000 0.0000 62.3266
#
#
#
# Elastic Compliance Matrix: (Units=1/GPa)
#
#
# Indices 1 2 3 4 5 6 
#
# 1 0.018393 -0.008586 -0.002107 0.000000 0.000000 0.000000
# 2 -0.008586 0.012346 -0.002892 0.000000 0.000000 0.000000
# 3 -0.002107 -0.002892 0.007126 0.000000 0.000000 0.000000
# 4 0.000000 0.000000 0.000000 0.026594 0.000000 0.000000
# 5 0.000000 0.000000 0.000000 0.000000 0.061966 0.000000
# 6 0.000000 0.000000 0.000000 0.000000 0.000000 0.016045
#
#
# Mechanical properties :
#
#
# Convention : Reuss Voigt Hill
#
# Bulk Modulus (GPa) = 93.50791 105.25311 99.38051
# Shear Modulus (GPa) = 28.86749 37.76796 33.31772
#
# Velocity S-wave (km/s) = 3.26993 3.74021 3.51295
# Velocity P-wave (km/s) = 6.99226 7.59195 7.29826
#
# Compressibility (1/GPa) = 0.01069428
#
# Stress axis : x y z
#
# Youngs Moduli (GPa) = 54.36935 80.99613 140.32928
#
# Poissons Ratio (x) = 0.69542 0.29569
# Poissons Ratio (y) = 0.46681 0.40589
# Poissons Ratio (z) = 0.11456 0.23427
#
# Static dielectric constant tensor:
#      x y z
#    x 2.217060 0.000000 0.000000 
#    y 0.000000 2.305690 0.000000 
#    z 0.000000 0.000000 2.072670 
# 
# From -- ./inp_files/21532.got.cif
#   From: 2010.05.17/outbox.cif.g08.bks.cpg/sg20_11_cif.got.tgz:21532.got - 2010.06.03 22:52:26.
