data_PCOD9317506
_publ_section_title
;
Structure prediction by ZEFSAII (Michael W. Deem and Ramdas Pophale) SiO2 
 PCOD9317506
Probable space group: C 2 2 21
;
_chemical_formula_sum "Si O2"
_cell_formula_units_Z 40
_cell_length_a 17.638202
_cell_length_b 7.660701
_cell_length_c 15.915451
_cell_angle_alpha 90.000000
_cell_angle_beta 90.000000
_cell_angle_gamma 90.000000
_cell_volume 2150.511522
_symmetry_space_group_name_H-M "C 2 2 21"
_symmetry_group_IT_number 20
_symmetry_cell_setting 'orthorhombic'
loop_
_space_group_symop_operation_xyz
x,y,z
-x,-y,1/2+z
x,-y,-z
-x,y,1/2-z
1/2+x,1/2+y,z
1/2-x,1/2-y,1/2+z
1/2+x,1/2-y,-z
1/2-x,1/2+y,1/2-z
loop_
_atom_site_type_symbol
_atom_site_label
_atom_site_fract_x
_atom_site_fract_y
_atom_site_fract_z
Si Si1 0.841279 0.842037 0.066564
Si Si2 0.089411 0.000000 0.000000
Si Si3 0.579152 0.000000 0.500000
Si Si4 0.970770 0.516549 0.659051
Si Si5 0.993236 0.889692 0.158566
Si Si6 0.331131 0.842061 0.433601
O O1 0.869667 0.664551 0.023214
O O2 0.755104 0.822554 0.096831
O O3 0.904577 0.875676 0.136769
O O4 0.843918 0.000000 0.000000
O O5 0.035884 0.979148 0.081318
O O6 0.140211 0.169136 0.018759
O O7 0.526064 0.949070 0.420624
O O8 0.970037 0.304761 0.662656
O O9 0.890785 0.603475 0.637646
O O10 0.000000 0.575275 0.750000
O O11 0.000000 0.973267 0.250000
O O12 0.333190 0.000000 0.500000
#
# Coordination Sequence:
#
# PCOD9317506 Si02
#       6
#     8   4   4   8   8   8
#     4  10  21  37  60  84 117 152 193 244 300 343
#     4  12  21  38  63  86 120 158 202 242 293 354
#     4  10  19  40  59  84 118 158 198 238 293 352
#     4  10  20  38  65  86 119 160 203 243 291 354
#     4  10  21  39  61  89 119 158 204 247 287 355
#     4  11  21  38  59  88 115 153 194 247 297 347
#
# _framework density 18.600224999999998
#
# number of rings (size 3 to 8) (size 9 to 14) (size 15 to 20)
#    0.000    1.600    4.000    1.800    0.000    0.800 
#    0.000    8.000    0.000    0.000    0.000    0.000 
#    0.000    0.000    0.000    0.000    0.000    0.000 
#
# Total GULP energy -111648.559605 kJ/mol
# GULP energy per Si atom -5582.427980 kJ/mol
# Density = 1.855789 g / cm^3
# Si number density = 18.600225 Si / 1000 Ang^3
#
#
#
# Elastic Constant Matrix: (Units=GPa)
#
#
# Indices 1 2 3 4 5 6 
#
# 1 161.5033 62.7685 70.4736 0.0000 0.0000 0.0000
# 2 62.7685 80.4021 36.5088 0.0000 0.0000 0.0000
# 3 70.4736 36.5088 130.5343 0.0000 0.0000 0.0000
# 4 0.0000 0.0000 0.0000 14.9502 0.0000 0.0000
# 5 0.0000 0.0000 0.0000 0.0000 -1.4607 0.0000
# 6 0.0000 0.0000 0.0000 0.0000 0.0000 33.2784
#
#
#
# Elastic Compliance Matrix: (Units=1/GPa)
#
#
# Indices 1 2 3 4 5 6 
#
# 1 0.010305 -0.006321 -0.003795 0.000000 0.000000 0.000000
# 2 -0.006321 0.018125 -0.001656 0.000000 0.000000 0.000000
# 3 -0.003795 -0.001656 0.010173 0.000000 0.000000 0.000000
# 4 0.000000 0.000000 0.000000 0.066889 0.000000 0.000000
# 5 0.000000 0.000000 0.000000 0.000000 -0.684602 0.000000
# 6 0.000000 0.000000 0.000000 0.000000 0.000000 0.030050
#
#
# Mechanical properties :
#
#
# Convention : Reuss Voigt Hill
#
# Bulk Modulus (GPa) = 66.41773 79.10461 72.76117
# Shear Modulus (GPa) = -9.60621 22.86617 6.62998
#
# Velocity S-wave (km/s) = -2.27503 3.51001 1.89003
# Velocity P-wave (km/s) = 5.37443 7.68427 6.63071
#
# Compressibility (1/GPa) = 0.01505622
#
# Stress axis : x y z
#
# Youngs Moduli (GPa) = 97.04227 55.17365 98.29760
#
# Poissons Ratio (x) = 0.34877 0.37308
# Poissons Ratio (y) = 0.61344 0.16282
# Poissons Ratio (z) = 0.36831 0.09139
#
# Static dielectric constant tensor:
#      x y z
#    x 1.633990 0.000000 0.000000 
#    y 0.000000 1.673140 0.000000 
#    z 0.000000 0.000000 1.638890 
# 
# From -- ./inp_files/18737.got.cif
#   From: 2010.05.17/outbox.cif.g08.bks.cpg/sg20_10_cif.got.tgz:18737.got - 2010.06.03 22:52:26.
