data_PCOD9317730
_publ_section_title
;
Structure prediction by ZEFSAII (Michael W. Deem and Ramdas Pophale) SiO2 
 PCOD9317730
Probable space group: C 2 2 21
;
_chemical_formula_sum "Si O2"
_cell_formula_units_Z 48
_cell_length_a 16.739095
_cell_length_b 5.229522
_cell_length_c 20.998649
_cell_angle_alpha 90.000000
_cell_angle_beta 90.000000
_cell_angle_gamma 90.000000
_cell_volume 1838.168514
_symmetry_space_group_name_H-M "C 2 2 21"
_symmetry_group_IT_number 20
_symmetry_cell_setting 'orthorhombic'
loop_
_space_group_symop_operation_xyz
x,y,z
-x,-y,1/2+z
x,-y,-z
-x,y,1/2-z
1/2+x,1/2+y,z
1/2-x,1/2-y,1/2+z
1/2+x,1/2-y,-z
1/2-x,1/2+y,1/2-z
loop_
_atom_site_type_symbol
_atom_site_label
_atom_site_fract_x
_atom_site_fract_y
_atom_site_fract_z
Si Si1 0.284112 0.257439 0.724075
Si Si2 0.761076 0.489316 0.405858
Si Si3 0.932746 0.343692 0.601771
Si Si4 0.480301 0.631666 0.325073
Si Si5 0.104956 0.702602 0.443279
Si Si6 0.863156 0.316841 0.160142
O O1 0.279194 0.548072 0.748575
O O2 0.282620 0.215639 0.649540
O O3 0.358279 0.147266 0.764321
O O4 0.846603 0.593647 0.430203
O O5 0.685532 0.377038 0.444679
O O6 0.719598 0.721600 0.368046
O O7 0.927967 0.102740 0.649867
O O8 0.007163 0.263241 0.555190
O O9 0.953227 0.598190 0.643640
O O10 0.500000 0.614899 0.250000
O O11 0.569463 0.610573 0.355772
O O12 0.118797 0.500000 0.500000
O O13 0.114236 0.571508 0.374699
#
# Coordination Sequence:
#
# PCOD9317730 Si02
#       6
#     8   8   8   8   8   8
#     4  10  20  34  65 104 142 181 236 298 358 450
#     4  11  23  43  71 104 141 191 243 299 377 442
#     4  11  26  44  69 105 145 187 249 299 366 443
#     4  11  23  42  68 108 150 193 234 302 370 448
#     4  11  25  50  70 102 145 198 247 314 369 448
#     4  10  22  41  70  99 147 190 246 295 383 437
#
# _framework density 26.112950000000001
#
# number of rings (size 3 to 8) (size 9 to 14) (size 15 to 20)
#    0.000    1.333    3.333    1.500    2.333    7.333 
#    3.000    0.000    0.000    0.000    0.000    0.000 
#    0.000    0.000    0.000    0.000    0.000    0.000 
#
# Total GULP energy -133617.251235 kJ/mol
# GULP energy per Si atom -5567.385468 kJ/mol
# Density = 2.605352 g / cm^3
# Si number density = 26.112950 Si / 1000 Ang^3
#
#
#
# Elastic Constant Matrix: (Units=GPa)
#
#
# Indices 1 2 3 4 5 6 
#
# 1 216.5617 48.9140 57.6223 0.0000 0.0000 0.0000
# 2 48.9140 133.7680 29.9521 0.0000 0.0000 0.0000
# 3 57.6223 29.9521 58.8365 0.0000 0.0000 0.0000
# 4 0.0000 0.0000 0.0000 30.0347 0.0000 0.0000
# 5 0.0000 0.0000 0.0000 0.0000 -210.0579 0.0000
# 6 0.0000 0.0000 0.0000 0.0000 0.0000 21.6006
#
#
#
# Elastic Compliance Matrix: (Units=1/GPa)
#
#
# Indices 1 2 3 4 5 6 
#
# 1 0.006374 -0.001053 -0.005706 0.000000 0.000000 0.000000
# 2 -0.001053 0.008611 -0.003353 0.000000 0.000000 0.000000
# 3 -0.005706 -0.003353 0.024291 0.000000 0.000000 0.000000
# 4 0.000000 0.000000 0.000000 0.033295 0.000000 0.000000
# 5 0.000000 0.000000 0.000000 0.000000 -0.004761 0.000000
# 6 0.000000 0.000000 0.000000 0.000000 0.000000 0.046295
#
#
# Mechanical properties :
#
#
# Convention : Reuss Voigt Hill
#
# Bulk Modulus (GPa) = 52.48507 75.79367 64.13937
# Shear Modulus (GPa) = 35.54162 -13.50601 11.01781
#
# Velocity S-wave (km/s) = 3.69327 -2.27670 2.05632
# Velocity P-wave (km/s) = 6.19112 4.70926 5.50032
#
# Compressibility (1/GPa) = 0.01905304
#
# Stress axis : x y z
#
# Youngs Moduli (GPa) = 156.89382 116.12600 41.16691
#
# Poissons Ratio (x) = 0.12228 0.23491
# Poissons Ratio (y) = 0.16520 0.13801
# Poissons Ratio (z) = 0.89526 0.38932
#
# Static dielectric constant tensor:
#      x y z
#    x 2.250160 0.000000 0.000000 
#    y 0.000000 2.114060 0.000000 
#    z 0.000000 0.000000 2.021800 
# 
# From -- ./inp_files/29420.got.cif
#   From: 2010.05.17/outbox.cif.g08.bks.cpg/sg20_15_cif.got.tgz:29420.got - 2010.06.03 22:52:26.
