data_PCOD9317063
_publ_section_title
;
Structure prediction by ZEFSAII (Michael W. Deem and Ramdas Pophale) SiO2 
 PCOD9317063
Probable space group: C 2 2 21
;
_chemical_formula_sum "Si O2"
_cell_formula_units_Z 52
_cell_length_a 15.660593
_cell_length_b 22.404841
_cell_length_c 8.716734
_cell_angle_alpha 90.000000
_cell_angle_beta 90.000000
_cell_angle_gamma 90.000000
_cell_volume 3058.467447
_symmetry_space_group_name_H-M "C 2 2 21"
_symmetry_group_IT_number 20
_symmetry_cell_setting 'orthorhombic'
loop_
_space_group_symop_operation_xyz
x,y,z
-x,-y,1/2+z
x,-y,-z
-x,y,1/2-z
1/2+x,1/2+y,z
1/2-x,1/2-y,1/2+z
1/2+x,1/2-y,-z
1/2-x,1/2+y,1/2-z
loop_
_atom_site_type_symbol
_atom_site_label
_atom_site_fract_x
_atom_site_fract_y
_atom_site_fract_z
Si Si1 0.162069 0.042408 0.225547
Si Si2 0.712623 0.000000 0.000000
Si Si3 0.636683 0.659089 0.396577
Si Si4 0.970252 0.808228 0.411488
Si Si5 0.656830 0.418305 0.113532
Si Si6 0.095267 0.734049 0.818522
Si Si7 0.287865 0.121848 0.626622
O O1 0.230536 0.022416 0.354743
O O2 0.115971 0.098747 0.301914
O O3 0.117826 0.979733 0.182908
O O4 0.190604 0.066902 0.058113
O O5 0.669874 0.938946 0.059348
O O6 0.555908 0.672991 0.501332
O O7 0.643446 0.715506 0.282699
O O8 0.720100 0.646866 0.500179
O O9 0.913010 0.866823 0.390361
O O10 0.918252 0.761890 0.513733
O O11 0.000000 0.782604 0.250000
O O12 0.731948 0.397126 0.225913
O O13 0.146480 0.672996 0.828550
O O14 0.000000 0.726202 0.750000
#
# Coordination Sequence:
#
# PCOD9317063 Si02
#       7
#     8   4   8   8   8   8   8
#     4   9  18  34  50  79 114 145 185 223 271 322
#     4   8  18  36  56  82 110 134 186 248 272 326
#     4  10  20  34  51  76 113 145 181 228 271 331
#     4  11  21  37  49  76 117 146 184 230 270 326
#     4  10  19  34  53  78 109 150 185 226 266 334
#     4  10  23  38  55  80 112 145 184 239 281 332
#     4  10  20  36  60  80 105 147 187 226 290 337
#
# _framework density 17.001978000000001
#
# number of rings (size 3 to 8) (size 9 to 14) (size 15 to 20)
#    0.000    2.154    3.077    0.000    2.154    0.000 
#    5.538    4.615    0.000    4.615    0.000    0.000 
#    0.000    0.000    0.000    0.000    0.000    0.000 
#
# Total GULP energy -144762.873109 kJ/mol
# GULP energy per Si atom -5567.802812 kJ/mol
# Density = 1.696328 g / cm^3
# Si number density = 17.001978 Si / 1000 Ang^3
#
#
#
# Elastic Constant Matrix: (Units=GPa)
#
#
# Indices 1 2 3 4 5 6 
#
# 1 27.1118 30.6167 14.0190 0.0000 0.0000 0.0000
# 2 30.6167 114.1497 33.2332 0.0000 0.0000 0.0000
# 3 14.0190 33.2332 108.8184 0.0000 0.0000 0.0000
# 4 0.0000 0.0000 0.0000 23.7683 0.0000 0.0000
# 5 0.0000 0.0000 0.0000 0.0000 6.7692 0.0000
# 6 0.0000 0.0000 0.0000 0.0000 0.0000 5.8460
#
#
#
# Elastic Compliance Matrix: (Units=1/GPa)
#
#
# Indices 1 2 3 4 5 6 
#
# 1 0.053657 -0.013587 -0.002763 0.000000 0.000000 0.000000
# 2 -0.013587 0.013056 -0.002237 0.000000 0.000000 0.000000
# 3 -0.002763 -0.002237 0.010229 0.000000 0.000000 0.000000
# 4 0.000000 0.000000 0.000000 0.042073 0.000000 0.000000
# 5 0.000000 0.000000 0.000000 0.000000 0.147728 0.000000
# 6 0.000000 0.000000 0.000000 0.000000 0.000000 0.171056
#
#
# Mechanical properties :
#
#
# Convention : Reuss Voigt Hill
#
# Bulk Modulus (GPa) = 25.14629 45.09083 35.11856
# Shear Modulus (GPa) = 10.24111 18.75743 14.49927
#
# Velocity S-wave (km/s) = 2.45694 3.32512 2.92344
# Velocity P-wave (km/s) = 4.78237 6.42810 5.66531
#
# Compressibility (1/GPa) = 0.03976730
#
# Stress axis : x y z
#
# Youngs Moduli (GPa) = 18.63699 76.59345 97.76390
#
# Poissons Ratio (x) = 1.04069 0.27012
# Poissons Ratio (y) = 0.25322 0.21868
# Poissons Ratio (z) = 0.05149 0.17133
#
# Static dielectric constant tensor:
#      x y z
#    x 1.534430 0.000000 0.000000 
#    y 0.000000 1.584370 0.000000 
#    z 0.000000 0.000000 1.617780 
# 
# From -- ./inp_files/8679.got.cif
#   From: 2010.05.17/outbox.cif.g08.bks.cpg/sg20_5_cif.got.tgz:8679.got - 2010.06.03 22:52:26.
