data_PCOD9317541
_publ_section_title
;
Structure prediction by ZEFSAII (Michael W. Deem and Ramdas Pophale) SiO2 
 PCOD9317541
Probable space group: C 2 2 21
;
_chemical_formula_sum "Si O2"
_cell_formula_units_Z 56
_cell_length_a 18.280006
_cell_length_b 5.177754
_cell_length_c 26.295971
_cell_angle_alpha 90.000000
_cell_angle_beta 90.000000
_cell_angle_gamma 90.000000
_cell_volume 2488.897199
_symmetry_space_group_name_H-M "C 2 2 21"
_symmetry_group_IT_number 20
_symmetry_cell_setting 'orthorhombic'
loop_
_space_group_symop_operation_xyz
x,y,z
-x,-y,1/2+z
x,-y,-z
-x,y,1/2-z
1/2+x,1/2+y,z
1/2-x,1/2-y,1/2+z
1/2+x,1/2-y,-z
1/2-x,1/2+y,1/2-z
loop_
_atom_site_type_symbol
_atom_site_label
_atom_site_fract_x
_atom_site_fract_y
_atom_site_fract_z
Si Si1 0.533287 0.084959 0.350425
Si Si2 0.791114 0.560860 0.941953
Si Si3 0.031088 0.424494 0.053044
Si Si4 0.065367 0.979697 0.187497
Si Si5 0.879697 0.942069 0.423637
Si Si6 0.352171 0.560621 0.888308
Si Si7 0.399865 0.315541 0.792299
O O1 0.517290 0.889487 0.396511
O O2 0.462925 0.181930 0.318706
O O3 0.565818 0.322943 0.383654
O O4 0.593723 0.981996 0.310610
O O5 0.704221 0.595774 0.937458
O O6 0.809324 0.312213 0.907264
O O7 0.831964 0.820378 0.923835
O O8 0.810485 0.500000 0.000000
O O9 0.081366 0.174385 0.046271
O O10 0.080638 0.670438 0.067392
O O11 0.992937 0.500000 0.000000
O O12 0.108347 0.023867 0.135392
O O13 0.110460 0.081584 0.235645
O O14 0.985556 0.112028 0.195593
O O15 0.344134 0.451239 0.831040
#
# Coordination Sequence:
#
# PCOD9317541 Si02
#       7
#     8   8   8   8   8   8   8
#     4  10  21  41  64 100 140 160 222 264 332 414
#     4  12  25  44  66  89 125 182 228 271 322 379
#     4  11  22  39  64  95 131 166 204 272 343 384
#     4   9  21  37  68 101 125 168 205 266 346 393
#     4  11  23  44  64  97 128 164 227 278 313 399
#     4  11  24  43  63  94 129 169 225 269 313 395
#     4  10  19  41  65  97 129 172 202 270 333 405
#
# _framework density 22.499924
#
# number of rings (size 3 to 8) (size 9 to 14) (size 15 to 20)
#    0.000    1.429    2.857    2.571    0.000    5.143 
#    2.571    1.429    0.000    0.000    0.000    0.000 
#    0.000    0.000    0.000    0.000    0.000    0.000 
#
# Total GULP energy -156057.197029 kJ/mol
# GULP energy per Si atom -5573.471322 kJ/mol
# Density = 2.244871 g / cm^3
# Si number density = 22.499924 Si / 1000 Ang^3
#
#
#
# Elastic Constant Matrix: (Units=GPa)
#
#
# Indices 1 2 3 4 5 6 
#
# 1 45.3151 19.2314 3.3423 0.0000 0.0000 0.0000
# 2 19.2314 120.5536 25.1500 0.0000 0.0000 0.0000
# 3 3.3423 25.1500 141.6498 0.0000 0.0000 0.0000
# 4 0.0000 0.0000 0.0000 25.9421 0.0000 0.0000
# 5 0.0000 0.0000 0.0000 0.0000 26.3939 0.0000
# 6 0.0000 0.0000 0.0000 0.0000 0.0000 20.4168
#
#
#
# Elastic Compliance Matrix: (Units=1/GPa)
#
#
# Indices 1 2 3 4 5 6 
#
# 1 0.023672 -0.003801 0.000116 0.000000 0.000000 0.000000
# 2 -0.003801 0.009224 -0.001548 0.000000 0.000000 0.000000
# 3 0.000116 -0.001548 0.007332 0.000000 0.000000 0.000000
# 4 0.000000 0.000000 0.000000 0.038547 0.000000 0.000000
# 5 0.000000 0.000000 0.000000 0.000000 0.037888 0.000000
# 6 0.000000 0.000000 0.000000 0.000000 0.000000 0.048979
#
#
# Mechanical properties :
#
#
# Convention : Reuss Voigt Hill
#
# Bulk Modulus (GPa) = 33.59840 44.77396 39.18618
# Shear Modulus (GPa) = 26.87764 31.87022 29.37393
#
# Velocity S-wave (km/s) = 3.46000 3.76767 3.61711
# Velocity P-wave (km/s) = 5.56122 6.23458 5.90750
#
# Compressibility (1/GPa) = 0.02976332
#
# Stress axis : x y z
#
# Youngs Moduli (GPa) = 42.24395 108.40915 136.39234
#
# Poissons Ratio (x) = 0.41201 -0.01585
# Poissons Ratio (y) = 0.16055 0.21115
# Poissons Ratio (z) = -0.00491 0.16783
#
# Static dielectric constant tensor:
#      x y z
#    x 1.830610 0.000000 0.000000 
#    y 0.000000 2.120390 0.000000 
#    z 0.000000 0.000000 1.891920 
# 
# From -- ./inp_files/29522.got.cif
#   From: 2010.05.17/outbox.cif.g08.bks.cpg/sg20_15_cif.got.tgz:29522.got - 2010.06.03 22:52:26.
