data_PCOD9317972
_publ_section_title
;
Structure prediction by ZEFSAII (Michael W. Deem and Ramdas Pophale) SiO2 
 PCOD9317972
Probable space group: C 2 2 21
;
_chemical_formula_sum "Si O2"
_cell_formula_units_Z 40
_cell_length_a 4.991346
_cell_length_b 25.385860
_cell_length_c 13.308432
_cell_angle_alpha 90.000000
_cell_angle_beta 90.000000
_cell_angle_gamma 90.000000
_cell_volume 1686.306239
_symmetry_space_group_name_H-M "C 2 2 21"
_symmetry_group_IT_number 20
_symmetry_cell_setting 'orthorhombic'
loop_
_space_group_symop_operation_xyz
x,y,z
-x,-y,1/2+z
x,-y,-z
-x,y,1/2-z
1/2+x,1/2+y,z
1/2-x,1/2-y,1/2+z
1/2+x,1/2-y,-z
1/2-x,1/2+y,1/2-z
loop_
_atom_site_type_symbol
_atom_site_label
_atom_site_fract_x
_atom_site_fract_y
_atom_site_fract_z
Si Si1 0.125482 0.059701 0.043752
Si Si2 0.933538 0.735678 0.138827
Si Si3 0.368990 0.909998 0.443692
Si Si4 0.068029 0.697990 0.585596
Si Si5 0.261858 0.492733 0.808003
O O1 0.426052 0.079485 0.036015
O O2 0.950044 0.051881 0.142980
O O3 0.936361 0.097244 0.977487
O O4 0.122405 0.000000 0.000000
O O5 0.141140 0.783501 0.119401
O O6 0.000000 0.713354 0.250000
O O7 0.637549 0.759829 0.132082
O O8 0.962239 0.700979 0.036917
O O9 0.481945 0.860479 0.384765
O O10 0.364451 0.964579 0.383269
O O11 0.500000 0.523883 0.750000
O O12 0.000000 0.473082 0.750000
#
# Coordination Sequence:
#
# PCOD9317972 Si02
#       5
#     8   8   8   8   8
#     4  10  20  37  56  76 112 158 188 224 288 345
#     4  10  21  40  61  84 120 155 188 239 301 361
#     4  11  21  37  59  83 114 152 195 241 288 348
#     4  10  22  38  61  90 115 152 198 239 297 358
#     4  11  22  36  56  85 118 153 198 247 294 342
#
# _framework density 23.720485
#
# number of rings (size 3 to 8) (size 9 to 14) (size 15 to 20)
#    0.000    1.600    0.000    7.200    0.000    2.400 
#    0.000    3.000    0.000    2.400    0.000    0.000 
#    0.000    0.000    0.000    0.000    0.000    0.000 
#
# Total GULP energy -111585.640463 kJ/mol
# GULP energy per Si atom -5579.282023 kJ/mol
# Density = 2.366650 g / cm^3
# Si number density = 23.720485 Si / 1000 Ang^3
#
#
#
# Elastic Constant Matrix: (Units=GPa)
#
#
# Indices 1 2 3 4 5 6 
#
# 1 131.2972 2.1486 17.7858 0.0000 0.0000 0.0000
# 2 2.1486 34.0779 -20.2802 0.0000 0.0000 0.0000
# 3 17.7858 -20.2802 87.7164 0.0000 0.0000 0.0000
# 4 0.0000 0.0000 0.0000 2.4797 0.0000 0.0000
# 5 0.0000 0.0000 0.0000 0.0000 44.4745 0.0000
# 6 0.0000 0.0000 0.0000 0.0000 0.0000 21.7125
#
#
#
# Elastic Compliance Matrix: (Units=1/GPa)
#
#
# Indices 1 2 3 4 5 6 
#
# 1 0.007914 -0.001686 -0.001994 0.000000 0.000000 0.000000
# 2 -0.001686 0.034385 0.008292 0.000000 0.000000 0.000000
# 3 -0.001994 0.008292 0.013722 0.000000 0.000000 0.000000
# 4 0.000000 0.000000 0.000000 0.403278 0.000000 0.000000
# 5 0.000000 0.000000 0.000000 0.000000 0.022485 0.000000
# 6 0.000000 0.000000 0.000000 0.000000 0.000000 0.046056
#
#
# Mechanical properties :
#
#
# Convention : Reuss Voigt Hill
#
# Bulk Modulus (GPa) = 15.32704 28.04443 21.68574
# Shear Modulus (GPa) = 9.25298 30.62916 19.94107
#
# Velocity S-wave (km/s) = 1.97720 3.59730 2.90257
# Velocity P-wave (km/s) = 3.41877 5.39469 4.51611
#
# Compressibility (1/GPa) = 0.06524418
#
# Stress axis : x y z
#
# Youngs Moduli (GPa) = 126.35715 29.08209 72.87634
#
# Poissons Ratio (x) = 0.04903 0.14535
# Poissons Ratio (y) = 0.21303 -0.60428
# Poissons Ratio (z) = 0.25202 -0.24114
#
# Static dielectric constant tensor:
#      x y z
#    x 1.861460 0.000000 0.000000 
#    y 0.000000 1.867790 0.000000 
#    z 0.000000 0.000000 2.185620 
# 
# From -- ./inp_files/17703.got.cif
#   From: 2010.05.17/outbox.cif.g08.bks.cpg/sg20_9_cif.got.tgz:17703.got - 2010.06.03 22:52:26.
