data_PCOD9317174
_publ_section_title
;
Structure prediction by ZEFSAII (Michael W. Deem and Ramdas Pophale) SiO2 
 PCOD9317174
Probable space group: C 2 2 21
;
_chemical_formula_sum "Si O2"
_cell_formula_units_Z 64
_cell_length_a 23.273162
_cell_length_b 13.648213
_cell_length_c 9.213913
_cell_angle_alpha 90.000000
_cell_angle_beta 90.000000
_cell_angle_gamma 90.000000
_cell_volume 2926.680348
_symmetry_space_group_name_H-M "C 2 2 21"
_symmetry_group_IT_number 20
_symmetry_cell_setting 'orthorhombic'
loop_
_space_group_symop_operation_xyz
x,y,z
-x,-y,1/2+z
x,-y,-z
-x,y,1/2-z
1/2+x,1/2+y,z
1/2-x,1/2-y,1/2+z
1/2+x,1/2-y,-z
1/2-x,1/2+y,1/2-z
loop_
_atom_site_type_symbol
_atom_site_label
_atom_site_fract_x
_atom_site_fract_y
_atom_site_fract_z
Si Si1 0.400307 0.281901 0.864627
Si Si2 0.255464 0.117955 0.700790
Si Si3 0.273832 0.061566 0.143906
Si Si4 0.437961 0.490448 0.826717
Si Si5 0.061695 0.798134 0.321047
Si Si6 0.269172 0.246237 0.958470
Si Si7 0.112504 0.605236 0.180749
Si Si8 0.892172 0.608414 0.665190
O O1 0.402208 0.391543 0.800359
O O2 0.337245 0.253406 0.925850
O O3 0.418236 0.200175 0.749050
O O4 0.440364 0.283613 0.006135
O O5 0.239882 0.205403 0.812436
O O6 0.243028 0.151429 0.537904
O O7 0.324589 0.108325 0.706571
O O8 0.234513 0.014347 0.765535
O O9 0.324274 0.092635 0.252248
O O10 0.251223 0.161131 0.072515
O O11 0.294137 0.000000 0.000000
O O12 0.500000 0.480027 0.750000
O O13 0.409486 0.595822 0.788360
O O14 0.447333 0.500000 0.000000
O O15 0.088744 0.701269 0.255660
O O16 0.000000 0.807354 0.250000
O O17 0.083953 0.498386 0.209633
O O18 0.108065 0.618317 0.008098
#
# Coordination Sequence:
#
# PCOD9317174 Si02
#       8
#     8   8   8   8   8   8   8   8
#     4  10  20  38  61  88 120 159 197 254 312 368
#     4   9  20  34  56  83 114 152 202 238 303 356
#     4   9  18  35  59  81 110 158 201 244 305 365
#     4   9  20  38  60  85 118 153 200 243 308 379
#     4  10  21  37  59  86 114 154 206 248 304 376
#     4  10  19  35  57  85 115 154 199 252 294 364
#     4  10  19  36  61  81 117 152 201 246 297 368
#     4   9  21  36  56  87 118 154 198 247 303 368
#
# _framework density 21.86778
#
# number of rings (size 3 to 8) (size 9 to 14) (size 15 to 20)
#    0.000    2.500    1.250    0.750    1.750    3.000 
#    0.000   10.625    0.000    0.000    0.000    0.000 
#    0.000    0.000    0.000    0.000    0.000    0.000 
#
# Total GULP energy -178287.452919 kJ/mol
# GULP energy per Si atom -5571.482904 kJ/mol
# Density = 2.181801 g / cm^3
# Si number density = 21.867780 Si / 1000 Ang^3
#
#
#
# Elastic Constant Matrix: (Units=GPa)
#
#
# Indices 1 2 3 4 5 6 
#
# 1 13.0622 16.6445 4.8564 0.0000 0.0000 0.0000
# 2 16.6445 191.6660 76.9669 0.0000 0.0000 0.0000
# 3 4.8564 76.9669 64.3395 0.0000 0.0000 0.0000
# 4 0.0000 0.0000 0.0000 39.4887 0.0000 0.0000
# 5 0.0000 0.0000 0.0000 0.0000 8.5011 0.0000
# 6 0.0000 0.0000 0.0000 0.0000 0.0000 42.1147
#
#
#
# Elastic Compliance Matrix: (Units=1/GPa)
#
#
# Indices 1 2 3 4 5 6 
#
# 1 0.086829 -0.009446 0.004746 0.000000 0.000000 0.000000
# 2 -0.009446 0.011069 -0.012528 0.000000 0.000000 0.000000
# 3 0.004746 -0.012528 0.030171 0.000000 0.000000 0.000000
# 4 0.000000 0.000000 0.000000 0.025324 0.000000 0.000000
# 5 0.000000 0.000000 0.000000 0.000000 0.117632 0.000000
# 6 0.000000 0.000000 0.000000 0.000000 0.000000 0.023745
#
#
# Mechanical properties :
#
#
# Convention : Reuss Voigt Hill
#
# Bulk Modulus (GPa) = 10.68233 51.77816 31.23025
# Shear Modulus (GPa) = 13.87237 29.39421 21.63329
#
# Velocity S-wave (km/s) = 2.52141 3.67028 3.14869
# Velocity P-wave (km/s) = 3.65681 6.45682 5.24704
#
# Compressibility (1/GPa) = 0.09361252
#
# Stress axis : x y z
#
# Youngs Moduli (GPa) = 11.51692 90.34639 33.14453
#
# Poissons Ratio (x) = 0.85344 -0.15731
# Poissons Ratio (y) = 0.10879 0.41523
# Poissons Ratio (z) = -0.05466 1.13184
#
# Static dielectric constant tensor:
#      x y z
#    x 1.894790 0.000000 0.000000 
#    y 0.000000 1.919500 0.000000 
#    z 0.000000 0.000000 1.796320 
# 
# From -- ./inp_files/11634.got.cif
#   From: 2010.05.17/outbox.cif.g08.bks.cpg/sg20_6_cif.got.tgz:11634.got - 2010.06.03 22:52:26.
