data_PCOD9317307
_publ_section_title
;
Structure prediction by ZEFSAII (Michael W. Deem and Ramdas Pophale) SiO2 
 PCOD9317307
Probable space group: C 2 2 21
;
_chemical_formula_sum "Si O2"
_cell_formula_units_Z 48
_cell_length_a 15.272871
_cell_length_b 9.405392
_cell_length_c 16.959351
_cell_angle_alpha 90.000000
_cell_angle_beta 90.000000
_cell_angle_gamma 90.000000
_cell_volume 2436.165638
_symmetry_space_group_name_H-M "C 2 2 21"
_symmetry_group_IT_number 20
_symmetry_cell_setting 'orthorhombic'
loop_
_space_group_symop_operation_xyz
x,y,z
-x,-y,1/2+z
x,-y,-z
-x,y,1/2-z
1/2+x,1/2+y,z
1/2-x,1/2-y,1/2+z
1/2+x,1/2-y,-z
1/2-x,1/2+y,1/2-z
loop_
_atom_site_type_symbol
_atom_site_label
_atom_site_fract_x
_atom_site_fract_y
_atom_site_fract_z
Si Si1 0.994832 0.652873 0.427078
Si Si2 0.319597 0.010052 0.914453
Si Si3 0.896665 0.784793 0.844171
Si Si4 0.006278 0.954883 0.154891
Si Si5 0.826625 0.142136 0.327453
Si Si6 0.933510 0.367959 0.392856
O O1 0.089571 0.576953 0.422956
O O2 0.996767 0.804089 0.386388
O O3 0.932089 0.537394 0.384938
O O4 0.964347 0.663594 0.517690
O O5 0.339474 0.174279 0.894212
O O6 0.263660 0.933381 0.847194
O O7 0.274601 0.000000 0.000000
O O8 0.847541 0.818932 0.762800
O O9 0.989766 0.699643 0.838295
O O10 0.929863 0.938130 0.874528
O O11 0.000000 0.940656 0.250000
O O12 0.098277 0.034218 0.142062
O O13 0.844044 0.288467 0.373964
#
# Coordination Sequence:
#
# PCOD9317307 Si02
#       6
#     8   8   8   8   8   8
#     4  10  19  36  61  84 120 160 195 242 308 377
#     4  11  22  40  59  86 121 165 202 246 315 366
#     4   9  19  40  58  81 121 157 199 242 305 366
#     4   9  20  36  59  93 115 155 208 246 300 361
#     4  10  22  35  62  87 117 158 199 255 300 349
#     4   9  18  37  58  86 117 158 202 242 300 355
#
# _framework density 19.703092000000002
#
# number of rings (size 3 to 8) (size 9 to 14) (size 15 to 20)
#    0.000    2.333    3.333    1.500    2.333    7.333 
#    0.000    1.667    0.000    0.000    0.000    0.000 
#    0.000    0.000    0.000    0.000    0.000    0.000 
#
# Total GULP energy -133758.050609 kJ/mol
# GULP energy per Si atom -5573.252109 kJ/mol
# Density = 1.965825 g / cm^3
# Si number density = 19.703092 Si / 1000 Ang^3
#
#
#
# Elastic Constant Matrix: (Units=GPa)
#
#
# Indices 1 2 3 4 5 6 
#
# 1 22.9189 22.1379 4.7486 0.0000 0.0000 0.0000
# 2 22.1379 177.7943 58.1596 0.0000 0.0000 0.0000
# 3 4.7486 58.1596 41.5175 0.0000 0.0000 0.0000
# 4 0.0000 0.0000 0.0000 41.4501 0.0000 0.0000
# 5 0.0000 0.0000 0.0000 0.0000 14.3054 0.0000
# 6 0.0000 0.0000 0.0000 0.0000 0.0000 22.3546
#
#
#
# Elastic Compliance Matrix: (Units=1/GPa)
#
#
# Indices 1 2 3 4 5 6 
#
# 1 0.050286 -0.008085 0.005574 0.000000 0.000000 0.000000
# 2 -0.008085 0.011682 -0.015439 0.000000 0.000000 0.000000
# 3 0.005574 -0.015439 0.045077 0.000000 0.000000 0.000000
# 4 0.000000 0.000000 0.000000 0.024125 0.000000 0.000000
# 5 0.000000 0.000000 0.000000 0.000000 0.069904 0.000000
# 6 0.000000 0.000000 0.000000 0.000000 0.000000 0.044734
#
#
# Mechanical properties :
#
#
# Convention : Reuss Voigt Hill
#
# Bulk Modulus (GPa) = 14.05592 45.81365 29.93479
# Shear Modulus (GPa) = 16.37072 26.10100 21.23586
#
# Velocity S-wave (km/s) = 2.88561 3.64361 3.28654
# Velocity P-wave (km/s) = 4.27220 6.40341 5.44313
#
# Compressibility (1/GPa) = 0.07114438
#
# Stress axis : x y z
#
# Youngs Moduli (GPa) = 19.88605 85.60438 22.18424
#
# Poissons Ratio (x) = 0.69208 -0.12365
# Poissons Ratio (y) = 0.16077 0.34251
# Poissons Ratio (z) = -0.11084 1.32169
#
# Static dielectric constant tensor:
#      x y z
#    x 1.714780 0.000000 0.000000 
#    y 0.000000 1.700220 0.000000 
#    z 0.000000 0.000000 1.717330 
# 
# From -- ./inp_files/24811.got.cif
#   From: 2010.05.17/outbox.cif.g08.bks.cpg/sg20_13_cif.got.tgz:24811.got - 2010.06.03 22:52:26.
