data_PCOD9317573
_publ_section_title
;
Structure prediction by ZEFSAII (Michael W. Deem and Ramdas Pophale) SiO2 
 PCOD9317573
Probable space group: C 2 2 21
;
_chemical_formula_sum "Si O2"
_cell_formula_units_Z 28
_cell_length_a 13.855518
_cell_length_b 5.427859
_cell_length_c 14.650780
_cell_angle_alpha 90.000000
_cell_angle_beta 90.000000
_cell_angle_gamma 90.000000
_cell_volume 1101.823602
_symmetry_space_group_name_H-M "C 2 2 21"
_symmetry_group_IT_number 20
_symmetry_cell_setting 'orthorhombic'
loop_
_space_group_symop_operation_xyz
x,y,z
-x,-y,1/2+z
x,-y,-z
-x,y,1/2-z
1/2+x,1/2+y,z
1/2-x,1/2-y,1/2+z
1/2+x,1/2-y,-z
1/2-x,1/2+y,1/2-z
loop_
_atom_site_type_symbol
_atom_site_label
_atom_site_fract_x
_atom_site_fract_y
_atom_site_fract_z
Si Si1 0.455739 0.748576 0.054539
Si Si2 0.300122 0.198950 0.220230
Si Si3 0.252879 0.750441 0.486345
Si Si4 0.000000 0.435310 0.250000
O O1 0.494535 0.774282 0.157340
O O2 0.480937 0.500000 0.000000
O O3 0.337755 0.746399 0.055457
O O4 0.478650 0.000000 0.000000
O O5 0.268601 0.461831 0.261434
O O6 0.294013 0.245022 0.112696
O O7 0.405076 0.106392 0.250693
O O8 0.309037 0.500000 0.500000
O O9 0.309740 0.000000 0.500000
#
# Coordination Sequence:
#
# PCOD9317573 Si02
#       4
#     8   8   8   4
#     4  10  22  41  76 110 147 215 250 313 414 450
#     4  12  28  47  78 123 152 209 277 322 402 482
#     4  10  19  43  73 100 157 204 239 324 402 438
#     4  12  26  52  86 112 172 208 268 344 394 480
#
# _framework density 25.412417999999999
#
# number of rings (size 3 to 8) (size 9 to 14) (size 15 to 20)
#    0.000    1.143    5.714    1.714    4.000    4.571 
#    0.000    5.714    0.000    0.000    0.000    0.000 
#    0.000    0.000    0.000    0.000    0.000    0.000 
#
# Total GULP energy -78384.789026 kJ/mol
# GULP energy per Si atom -5598.913502 kJ/mol
# Density = 2.535458 g / cm^3
# Si number density = 25.412418 Si / 1000 Ang^3
#
#
#
# Elastic Constant Matrix: (Units=GPa)
#
#
# Indices 1 2 3 4 5 6 
#
# 1 102.5109 34.7726 -9.0752 0.0000 0.0000 0.0000
# 2 34.7726 287.2983 83.4806 0.0000 0.0000 0.0000
# 3 -9.0752 83.4806 150.6520 0.0000 0.0000 0.0000
# 4 0.0000 0.0000 0.0000 54.7984 0.0000 0.0000
# 5 0.0000 0.0000 0.0000 0.0000 -3.5851 0.0000
# 6 0.0000 0.0000 0.0000 0.0000 0.0000 -4.5483
#
#
#
# Elastic Compliance Matrix: (Units=1/GPa)
#
#
# Indices 1 2 3 4 5 6 
#
# 1 0.010483 -0.001731 0.001591 0.000000 0.000000 0.000000
# 2 -0.001731 0.004435 -0.002562 0.000000 0.000000 0.000000
# 3 0.001591 -0.002562 0.008153 0.000000 0.000000 0.000000
# 4 0.000000 0.000000 0.000000 0.018249 0.000000 0.000000
# 5 0.000000 0.000000 0.000000 0.000000 -0.278934 0.000000
# 6 0.000000 0.000000 0.000000 0.000000 0.000000 -0.219862
#
#
# Mechanical properties :
#
#
# Convention : Reuss Voigt Hill
#
# Bulk Modulus (GPa) = 56.60307 84.31303 70.45805
# Shear Modulus (GPa) = -11.20614 38.08521 13.43953
#
# Velocity S-wave (km/s) = -2.10221 3.87548 2.30218
# Velocity P-wave (km/s) = 4.05336 7.29902 5.90362
#
# Compressibility (1/GPa) = 0.01766689
#
# Stress axis : x y z
#
# Youngs Moduli (GPa) = 95.39202 225.50289 122.65302
#
# Poissons Ratio (x) = 0.39035 -0.19510
# Poissons Ratio (y) = 0.16512 0.31419
# Poissons Ratio (z) = -0.15174 0.57764
#
# Static dielectric constant tensor:
#      x y z
#    x 1.969160 0.000000 0.000000 
#    y 0.000000 2.109980 0.000000 
#    z 0.000000 0.000000 1.998590 
# 
# From -- ./inp_files/17405.got.cif
#   From: 2010.05.17/outbox.cif.g08.bks.cpg/sg20_9_cif.got.tgz:17405.got - 2010.06.03 22:52:26.
