data_PCOD9317454
_publ_section_title
;
Structure prediction by ZEFSAII (Michael W. Deem and Ramdas Pophale) SiO2 
 PCOD9317454
Probable space group: C 2 2 21
;
_chemical_formula_sum "Si O2"
_cell_formula_units_Z 48
_cell_length_a 8.553330
_cell_length_b 30.297516
_cell_length_c 8.080982
_cell_angle_alpha 90.000000
_cell_angle_beta 90.000000
_cell_angle_gamma 90.000000
_cell_volume 2094.143272
_symmetry_space_group_name_H-M "C 2 2 21"
_symmetry_group_IT_number 20
_symmetry_cell_setting 'orthorhombic'
loop_
_space_group_symop_operation_xyz
x,y,z
-x,-y,1/2+z
x,-y,-z
-x,y,1/2-z
1/2+x,1/2+y,z
1/2-x,1/2-y,1/2+z
1/2+x,1/2-y,-z
1/2-x,1/2+y,1/2-z
loop_
_atom_site_type_symbol
_atom_site_label
_atom_site_fract_x
_atom_site_fract_y
_atom_site_fract_z
Si Si1 0.000000 0.170585 0.750000
Si Si2 0.000000 0.511973 0.750000
Si Si3 0.732044 0.620928 0.985061
Si Si4 0.206962 0.291768 0.068460
Si Si5 0.672591 0.302757 0.791893
Si Si6 0.755962 0.500000 0.500000
Si Si7 0.693200 0.469272 0.847999
Si Si8 0.000000 0.635722 0.750000
O O1 0.908729 0.138719 0.626166
O O2 0.873256 0.200284 0.842476
O O3 0.876451 0.530791 0.610510
O O4 0.656613 0.478427 0.652094
O O5 0.877125 0.609544 0.864501
O O6 0.769059 0.663371 0.096707
O O7 0.677535 0.580701 0.096647
O O8 0.145709 0.243701 0.117220
O O9 0.099125 0.331184 0.134402
O O10 0.235466 0.294301 0.875307
O O11 0.500000 0.321472 0.750000
O O12 0.121898 0.519780 0.341747
O O13 0.636155 0.500000 0.000000
#
# Coordination Sequence:
#
# PCOD9317454 Si02
#       8
#     4   4   8   8   8   4   8   4
#     4  10  22  46  67  94 136 192 216 282 351 422
#     4   8  14  31  57  88 134 170 212 276 351 399
#     4  11  25  42  68 100 145 176 236 289 353 415
#     4  11  23  42  70  93 138 178 231 277 344 420
#     4  12  25  43  69  99 134 187 232 279 345 425
#     4   8  16  34  58  90 132 178 220 278 350 410
#     4  10  19  38  64  97 136 182 232 285 352 419
#     4  10  24  43  64 112 132 178 230 296 344 411
#
# _framework density 22.921067000000001
#
# number of rings (size 3 to 8) (size 9 to 14) (size 15 to 20)
#    1.000    0.667    3.333    2.000    0.000    4.000 
#    6.000    0.000    1.833    0.000    0.000    1.167 
#    0.000    0.000    0.000    0.000    0.000    0.000 
#
# Total GULP energy -133838.119157 kJ/mol
# GULP energy per Si atom -5576.588298 kJ/mol
# Density = 2.286890 g / cm^3
# Si number density = 22.921067 Si / 1000 Ang^3
#
#
#
# Elastic Constant Matrix: (Units=GPa)
#
#
# Indices 1 2 3 4 5 6 
#
# 1 59.0388 9.9420 24.7306 0.0000 0.0000 0.0000
# 2 9.9420 74.3244 56.1527 0.0000 0.0000 0.0000
# 3 24.7306 56.1527 175.5051 0.0000 0.0000 0.0000
# 4 0.0000 0.0000 0.0000 32.2493 0.0000 0.0000
# 5 0.0000 0.0000 0.0000 0.0000 39.4566 0.0000
# 6 0.0000 0.0000 0.0000 0.0000 0.0000 17.0155
#
#
#
# Elastic Compliance Matrix: (Units=1/GPa)
#
#
# Indices 1 2 3 4 5 6 
#
# 1 0.018024 -0.000649 -0.002332 0.000000 0.000000 0.000000
# 2 -0.000649 0.017767 -0.005593 0.000000 0.000000 0.000000
# 3 -0.002332 -0.005593 0.007816 0.000000 0.000000 0.000000
# 4 0.000000 0.000000 0.000000 0.031008 0.000000 0.000000
# 5 0.000000 0.000000 0.000000 0.000000 0.025344 0.000000
# 6 0.000000 0.000000 0.000000 0.000000 0.000000 0.058770
#
#
# Mechanical properties :
#
#
# Convention : Reuss Voigt Hill
#
# Bulk Modulus (GPa) = 37.79488 54.50210 46.14849
# Shear Modulus (GPa) = 27.07122 32.28047 29.67584
#
# Velocity S-wave (km/s) = 3.44039 3.75685 3.60209
# Velocity P-wave (km/s) = 5.68389 6.53057 6.12188
#
# Compressibility (1/GPa) = 0.02645861
#
# Stress axis : x y z
#
# Youngs Moduli (GPa) = 55.48088 56.28428 127.94341
#
# Poissons Ratio (x) = 0.03653 0.29838
# Poissons Ratio (y) = 0.03601 0.71559
# Poissons Ratio (z) = 0.12939 0.31480
#
# Static dielectric constant tensor:
#      x y z
#    x 1.859360 0.000000 0.000000 
#    y 0.000000 1.796000 0.000000 
#    z 0.000000 0.000000 1.904380 
# 
# From -- ./inp_files/6606.got.cif
#   From: 2010.05.17/outbox.cif.g08.bks.cpg/sg20_4_cif.got.tgz:6606.got - 2010.06.03 22:52:26.
