data_PCOD9317247
_publ_section_title
;
Structure prediction by ZEFSAII (Michael W. Deem and Ramdas Pophale) SiO2 
 PCOD9317247
Probable space group: C 2 2 21
;
_chemical_formula_sum "Si O2"
_cell_formula_units_Z 64
_cell_length_a 5.294134
_cell_length_b 30.309284
_cell_length_c 20.334646
_cell_angle_alpha 90.000000
_cell_angle_beta 90.000000
_cell_angle_gamma 90.000000
_cell_volume 3262.925988
_symmetry_space_group_name_H-M "C 2 2 21"
_symmetry_group_IT_number 20
_symmetry_cell_setting 'orthorhombic'
loop_
_space_group_symop_operation_xyz
x,y,z
-x,-y,1/2+z
x,-y,-z
-x,y,1/2-z
1/2+x,1/2+y,z
1/2-x,1/2-y,1/2+z
1/2+x,1/2-y,-z
1/2-x,1/2+y,1/2-z
loop_
_atom_site_type_symbol
_atom_site_label
_atom_site_fract_x
_atom_site_fract_y
_atom_site_fract_z
Si Si1 0.160782 0.751193 0.682903
Si Si2 0.260767 0.625787 0.068249
Si Si3 0.525292 0.237779 0.538943
Si Si4 0.742870 0.849084 0.791722
Si Si5 0.743757 0.652240 0.793291
Si Si6 0.739726 0.454292 0.461359
Si Si7 0.235680 0.652008 0.487554
Si Si8 0.240841 0.421539 0.406722
O O1 0.007026 0.752513 0.614417
O O2 0.306713 0.797808 0.685804
O O3 0.296228 0.703168 0.682073
O O4 0.000000 0.750220 0.750000
O O5 0.297281 0.619867 0.145551
O O6 0.258494 0.584215 0.018239
O O7 0.488677 0.657215 0.043107
O O8 0.986188 0.648177 0.064777
O O9 0.254150 0.240482 0.503484
O O10 0.631548 0.188136 0.537501
O O11 0.500000 0.863238 0.750000
O O12 0.000000 0.848131 0.750000
O O13 0.500000 0.641583 0.750000
O O14 0.764630 0.614343 0.848542
O O15 0.000000 0.651863 0.750000
O O16 0.735589 0.500000 0.500000
O O17 0.497728 0.448882 0.413835
O O18 0.986649 0.449304 0.415586
O O19 0.246736 0.607236 0.527109
#
# Coordination Sequence:
#
# PCOD9317247 Si02
#       8
#     8   8   8   8   8   8   8   8
#     4  10  23  40  56  84 119 166 215 254 289 353
#     4  10  21  37  61  81 115 146 190 240 302 358
#     4  12  24  36  56  81 116 155 207 262 307 341
#     4  11  22  37  55  78 111 155 203 243 282 337
#     4  11  22  37  58  84 120 167 203 236 289 350
#     4  10  21  38  66  93 114 145 187 245 312 368
#     4  10  19  36  53  81 109 146 187 238 297 344
#     4  10  20  37  59  86 122 148 190 240 286 363
#
# _framework density 19.614297000000001
#
# number of rings (size 3 to 8) (size 9 to 14) (size 15 to 20)
#    0.000    1.500    1.250    4.500    0.000    5.000 
#    0.000    0.000    0.000    4.500    0.000    0.000 
#    0.000    0.000    0.000    0.000    0.000    0.000 
#
# Total GULP energy -178282.699623 kJ/mol
# GULP energy per Si atom -5571.334363 kJ/mol
# Density = 1.956965 g / cm^3
# Si number density = 19.614297 Si / 1000 Ang^3
#
#
#
# Elastic Constant Matrix: (Units=GPa)
#
#
# Indices 1 2 3 4 5 6 
#
# 1 139.2960 29.8631 39.9018 0.0000 0.0000 0.0000
# 2 29.8631 42.4549 8.7239 0.0000 0.0000 0.0000
# 3 39.9018 8.7239 100.2204 0.0000 0.0000 0.0000
# 4 0.0000 0.0000 0.0000 42.3391 0.0000 0.0000
# 5 0.0000 0.0000 0.0000 0.0000 26.5364 0.0000
# 6 0.0000 0.0000 0.0000 0.0000 0.0000 -3.3765
#
#
#
# Elastic Compliance Matrix: (Units=1/GPa)
#
#
# Indices 1 2 3 4 5 6 
#
# 1 0.009371 -0.005931 -0.003215 0.000000 0.000000 0.000000
# 2 -0.005931 0.027737 -0.000053 0.000000 0.000000 0.000000
# 3 -0.003215 -0.000053 0.011263 0.000000 0.000000 0.000000
# 4 0.000000 0.000000 0.000000 0.023619 0.000000 0.000000
# 5 0.000000 0.000000 0.000000 0.000000 0.037684 0.000000
# 6 0.000000 0.000000 0.000000 0.000000 0.000000 -0.296161
#
#
# Mechanical properties :
#
#
# Convention : Reuss Voigt Hill
#
# Bulk Modulus (GPa) = 33.36317 48.77209 41.06763
# Shear Modulus (GPa) = -31.62607 26.66530 -2.48038
#
# Velocity S-wave (km/s) = -4.01982 3.69112 -1.12576
# Velocity P-wave (km/s) = 2.12103 6.56394 4.39241
#
# Compressibility (1/GPa) = 0.02997317
#
# Stress axis : x y z
#
# Youngs Moduli (GPa) = 106.70698 36.05239 88.78958
#
# Poissons Ratio (x) = 0.21384 0.28545
# Poissons Ratio (y) = 0.63291 0.00470
# Poissons Ratio (z) = 0.34305 0.00191
#
# Static dielectric constant tensor:
#      x y z
#    x 1.722770 0.000000 0.000000 
#    y 0.000000 1.707250 0.000000 
#    z 0.000000 0.000000 1.669040 
# 
# From -- ./inp_files/23007.got.cif
#   From: 2010.05.17/outbox.cif.g08.bks.cpg/sg20_12_cif.got.tgz:23007.got - 2010.06.03 22:52:26.
