data_PCOD9317404
_publ_section_title
;
Structure prediction by ZEFSAII (Michael W. Deem and Ramdas Pophale) SiO2 
 PCOD9317404
Probable space group: C 2 2 21
;
_chemical_formula_sum "Si O2"
_cell_formula_units_Z 48
_cell_length_a 8.111096
_cell_length_b 12.300903
_cell_length_c 17.952200
_cell_angle_alpha 90.000000
_cell_angle_beta 90.000000
_cell_angle_gamma 90.000000
_cell_volume 1791.159304
_symmetry_space_group_name_H-M "C 2 2 21"
_symmetry_group_IT_number 20
_symmetry_cell_setting 'orthorhombic'
loop_
_space_group_symop_operation_xyz
x,y,z
-x,-y,1/2+z
x,-y,-z
-x,y,1/2-z
1/2+x,1/2+y,z
1/2-x,1/2-y,1/2+z
1/2+x,1/2-y,-z
1/2-x,1/2+y,1/2-z
loop_
_atom_site_type_symbol
_atom_site_label
_atom_site_fract_x
_atom_site_fract_y
_atom_site_fract_z
Si Si1 0.252931 0.559841 0.076252
Si Si2 0.923341 0.292381 0.178992
Si Si3 0.889926 0.901402 0.180395
Si Si4 0.186039 0.657135 0.270219
Si Si5 0.875178 0.141365 0.411656
Si Si6 0.153765 0.190947 0.925700
O O1 0.248276 0.480700 0.148605
O O2 0.450931 0.582708 0.073480
O O3 0.160610 0.677003 0.078851
O O4 0.203204 0.500000 0.000000
O O5 0.835681 0.180233 0.211228
O O6 0.786454 0.352122 0.132917
O O7 0.000000 0.348338 0.250000
O O8 0.059461 0.256226 0.119919
O O9 0.838370 0.785756 0.212957
O O10 0.000000 0.948221 0.250000
O O11 0.987798 0.859885 0.106381
O O12 0.258703 0.602414 0.344745
O O13 0.000000 0.620392 0.250000
O O14 0.796806 0.155859 0.491927
#
# Coordination Sequence:
#
# PCOD9317404 Si02
#       6
#     8   8   8   8   8   8
#     4  11  23  41  68 106 137 185 254 292 358 448
#     4   9  19  35  59  98 128 178 240 278 348 438
#     4  11  22  41  68 100 137 187 238 299 355 442
#     4  10  19  37  65  96 136 183 231 285 366 427
#     4  10  22  36  67 102 134 183 238 299 358 428
#     4  11  21  39  67 100 139 182 244 297 363 428
#
# _framework density 26.798287999999999
#
# number of rings (size 3 to 8) (size 9 to 14) (size 15 to 20)
#    0.000    1.667    5.000    1.000    2.333    5.333 
#    0.000    0.000    0.000   17.000    0.000    0.000 
#    0.000    0.000    0.000    0.000    0.000    0.000 
#
# Total GULP energy -133975.610405 kJ/mol
# GULP energy per Si atom -5582.317100 kJ/mol
# Density = 2.673729 g / cm^3
# Si number density = 26.798288 Si / 1000 Ang^3
#
#
#
# Elastic Constant Matrix: (Units=GPa)
#
#
# Indices 1 2 3 4 5 6 
#
# 1 79.5802 7.0043 29.7849 0.0000 0.0000 0.0000
# 2 7.0043 126.2847 17.6186 0.0000 0.0000 0.0000
# 3 29.7849 17.6186 189.0014 0.0000 0.0000 0.0000
# 4 0.0000 0.0000 0.0000 26.6620 0.0000 0.0000
# 5 0.0000 0.0000 0.0000 0.0000 45.7310 0.0000
# 6 0.0000 0.0000 0.0000 0.0000 0.0000 35.3362
#
#
#
# Elastic Compliance Matrix: (Units=1/GPa)
#
#
# Indices 1 2 3 4 5 6 
#
# 1 0.013379 -0.000454 -0.002066 0.000000 0.000000 0.000000
# 2 -0.000454 0.008038 -0.000678 0.000000 0.000000 0.000000
# 3 -0.002066 -0.000678 0.005680 0.000000 0.000000 0.000000
# 4 0.000000 0.000000 0.000000 0.037507 0.000000 0.000000
# 5 0.000000 0.000000 0.000000 0.000000 0.021867 0.000000
# 6 0.000000 0.000000 0.000000 0.000000 0.000000 0.028300
#
#
# Mechanical properties :
#
#
# Convention : Reuss Voigt Hill
#
# Bulk Modulus (GPa) = 48.30506 55.96468 52.13487
# Shear Modulus (GPa) = 39.04222 44.24308 41.64265
#
# Velocity S-wave (km/s) = 3.82107 4.06762 3.94627
# Velocity P-wave (km/s) = 6.12633 6.55665 6.34514
#
# Compressibility (1/GPa) = 0.02070177
#
# Stress axis : x y z
#
# Youngs Moduli (GPa) = 74.74296 124.40364 176.06389
#
# Poissons Ratio (x) = 0.05646 0.36377
# Poissons Ratio (y) = 0.03392 0.11934
# Poissons Ratio (z) = 0.15443 0.08432
#
# Static dielectric constant tensor:
#      x y z
#    x 2.265520 0.000000 0.000000 
#    y 0.000000 2.165390 0.000000 
#    z 0.000000 0.000000 2.200660 
# 
# From -- ./inp_files/23448.got.cif
#   From: 2010.05.17/outbox.cif.g08.bks.cpg/sg20_12_cif.got.tgz:23448.got - 2010.06.03 22:52:26.
