data_PCOD9317464
_publ_section_title
;
Structure prediction by ZEFSAII (Michael W. Deem and Ramdas Pophale) SiO2 
 PCOD9317464
Probable space group: C 2 2 21
;
_chemical_formula_sum "Si O2"
_cell_formula_units_Z 48
_cell_length_a 9.140168
_cell_length_b 24.011935
_cell_length_c 9.154141
_cell_angle_alpha 90.000000
_cell_angle_beta 90.000000
_cell_angle_gamma 90.000000
_cell_volume 2009.087885
_symmetry_space_group_name_H-M "C 2 2 21"
_symmetry_group_IT_number 20
_symmetry_cell_setting 'orthorhombic'
loop_
_space_group_symop_operation_xyz
x,y,z
-x,-y,1/2+z
x,-y,-z
-x,y,1/2-z
1/2+x,1/2+y,z
1/2-x,1/2-y,1/2+z
1/2+x,1/2-y,-z
1/2-x,1/2+y,1/2-z
loop_
_atom_site_type_symbol
_atom_site_label
_atom_site_fract_x
_atom_site_fract_y
_atom_site_fract_z
Si Si1 0.403224 0.175657 0.385086
Si Si2 0.757425 0.932204 0.651865
Si Si3 0.009309 0.500000 0.500000
Si Si4 0.493522 0.500000 0.000000
Si Si5 0.757279 0.578948 0.503940
Si Si6 0.669038 0.751984 0.217632
Si Si7 0.709152 0.183295 0.521031
O O1 0.500000 0.146373 0.250000
O O2 0.307354 0.142156 0.503979
O O3 0.286030 0.210456 0.294542
O O4 0.542148 0.196182 0.476211
O O5 0.757691 0.925420 0.826029
O O6 0.755887 0.875833 0.551011
O O7 0.615385 0.967659 0.608302
O O8 0.898789 0.968053 0.608660
O O9 0.896669 0.545117 0.563295
O O10 0.385490 0.451974 0.063500
O O11 0.500000 0.738799 0.250000
O O12 0.710016 0.809097 0.303882
O O13 0.697047 0.732905 0.051892
#
# Coordination Sequence:
#
# PCOD9317464 Si02
#       7
#     8   8   4   4   8   8   8
#     4  10  19  38  67  97 120 176 232 267 331 416
#     4  11  21  41  66  94 131 179 219 275 335 416
#     4  10  20  34  64  98 114 162 226 272 316 392
#     4  10  26  34  62 100 130 158 228 270 324 402
#     4  11  19  39  66  90 127 173 221 268 329 415
#     4  11  24  41  69 105 132 181 229 292 342 401
#     4  11  23  43  72 102 138 182 234 281 344 419
#
# _framework density 23.891437
#
# number of rings (size 3 to 8) (size 9 to 14) (size 15 to 20)
#    0.000    1.333    5.000    2.000    2.333    0.000 
#    0.000    3.333   14.667    0.000    0.000    0.000 
#    0.000    0.000    0.000    0.000    0.000    0.000 
#
# Total GULP energy -133631.910474 kJ/mol
# GULP energy per Si atom -5567.996270 kJ/mol
# Density = 2.383706 g / cm^3
# Si number density = 23.891437 Si / 1000 Ang^3
#
#
#
# Elastic Constant Matrix: (Units=GPa)
#
#
# Indices 1 2 3 4 5 6 
#
# 1 153.0897 29.7998 35.0753 0.0000 0.0000 0.0000
# 2 29.7998 67.6863 43.4486 0.0000 0.0000 0.0000
# 3 35.0753 43.4486 120.4777 0.0000 0.0000 0.0000
# 4 0.0000 0.0000 0.0000 31.2327 0.0000 0.0000
# 5 0.0000 0.0000 0.0000 0.0000 15.1737 0.0000
# 6 0.0000 0.0000 0.0000 0.0000 0.0000 -6.6987
#
#
#
# Elastic Compliance Matrix: (Units=1/GPa)
#
#
# Indices 1 2 3 4 5 6 
#
# 1 0.007287 -0.002403 -0.001255 0.000000 0.000000 0.000000
# 2 -0.002403 0.020017 -0.006519 0.000000 0.000000 0.000000
# 3 -0.001255 -0.006519 0.011017 0.000000 0.000000 0.000000
# 4 0.000000 0.000000 0.000000 0.032018 0.000000 0.000000
# 5 0.000000 0.000000 0.000000 0.000000 0.065904 0.000000
# 6 0.000000 0.000000 0.000000 0.000000 0.000000 -0.149283
#
#
# Mechanical properties :
#
#
# Convention : Reuss Voigt Hill
#
# Bulk Modulus (GPa) = 55.65847 61.98903 58.82375
# Shear Modulus (GPa) = 375.88450 23.47020 199.67735
#
# Velocity S-wave (km/s) = 12.55674 3.13768 9.15196
# Velocity P-wave (km/s) = 15.28319 6.25533 11.67701
#
# Compressibility (1/GPa) = 0.01796672
#
# Stress axis : x y z
#
# Youngs Moduli (GPa) = 137.22339 49.95852 90.77079
#
# Poissons Ratio (x) = 0.12004 0.11393
# Poissons Ratio (y) = 0.32971 0.59175
# Poissons Ratio (z) = 0.17223 0.32569
#
# Static dielectric constant tensor:
#      x y z
#    x 1.853780 0.000000 0.000000 
#    y 0.000000 2.105060 0.000000 
#    z 0.000000 0.000000 2.101380 
# 
# From -- ./inp_files/13133.got.cif
#   From: 2010.05.17/outbox.cif.g08.bks.cpg/sg20_7_cif.got.tgz:13133.got - 2010.06.03 22:52:26.
