data_PCOD9317469
_publ_section_title
;
Structure prediction by ZEFSAII (Michael W. Deem and Ramdas Pophale) SiO2 
 PCOD9317469
Probable space group: C 2 2 21
;
_chemical_formula_sum "Si O2"
_cell_formula_units_Z 40
_cell_length_a 22.708226
_cell_length_b 7.873495
_cell_length_c 10.832133
_cell_angle_alpha 90.000000
_cell_angle_beta 90.000000
_cell_angle_gamma 90.000000
_cell_volume 1936.710681
_symmetry_space_group_name_H-M "C 2 2 21"
_symmetry_group_IT_number 20
_symmetry_cell_setting 'orthorhombic'
loop_
_space_group_symop_operation_xyz
x,y,z
-x,-y,1/2+z
x,-y,-z
-x,y,1/2-z
1/2+x,1/2+y,z
1/2-x,1/2-y,1/2+z
1/2+x,1/2-y,-z
1/2-x,1/2+y,1/2-z
loop_
_atom_site_type_symbol
_atom_site_label
_atom_site_fract_x
_atom_site_fract_y
_atom_site_fract_z
Si Si1 0.661907 0.173904 0.745435
Si Si2 0.739033 0.103458 0.128249
Si Si3 0.012606 0.296937 0.883680
Si Si4 0.135829 0.801483 0.017211
Si Si5 0.465235 0.181740 0.864853
O O1 0.702406 0.320383 0.687170
O O2 0.639673 0.221933 0.881669
O O3 0.603393 0.154291 0.663903
O O4 0.703725 0.012103 0.772824
O O5 0.695392 0.255274 0.088602
O O6 0.749656 0.000000 0.000000
O O7 0.993976 0.494199 0.874658
O O8 0.000000 0.218094 0.750000
O O9 0.978211 0.229586 0.004288
O O10 0.081264 0.280265 0.911849
O O11 0.127105 0.000000 0.000000
O O12 0.500000 0.265858 0.750000
#
# Coordination Sequence:
#
# PCOD9317469 Si02
#       5
#     8   8   8   8   8
#     4  11  22  44  71  96 136 178 228 279 335 413
#     4  10  23  42  68 102 134 179 225 280 342 406
#     4  10  21  39  63  98 126 169 220 272 335 407
#     4  11  23  43  68  95 138 176 221 282 345 401
#     4  10  19  38  69  95 122 173 220 265 337 407
#
# _framework density 20.653576000000001
#
# number of rings (size 3 to 8) (size 9 to 14) (size 15 to 20)
#    0.000    1.600    2.000    3.600    5.600    0.000 
#   32.400    0.000    0.000    0.000    0.000    0.000 
#    0.000    0.000    0.000    0.000    0.000    0.000 
#
# Total GULP energy -111685.040058 kJ/mol
# GULP energy per Si atom -5584.252003 kJ/mol
# Density = 2.060657 g / cm^3
# Si number density = 20.653576 Si / 1000 Ang^3
#
#
#
# Elastic Constant Matrix: (Units=GPa)
#
#
# Indices 1 2 3 4 5 6 
#
# 1 123.0600 39.4892 61.0479 0.0000 0.0000 0.0000
# 2 39.4892 58.7863 7.8826 0.0000 0.0000 0.0000
# 3 61.0479 7.8826 157.6945 0.0000 0.0000 0.0000
# 4 0.0000 0.0000 0.0000 9.1660 0.0000 0.0000
# 5 0.0000 0.0000 0.0000 0.0000 34.5315 0.0000
# 6 0.0000 0.0000 0.0000 0.0000 0.0000 -45.7222
#
#
#
# Elastic Compliance Matrix: (Units=1/GPa)
#
#
# Indices 1 2 3 4 5 6 
#
# 1 0.013040 -0.008137 -0.004641 0.000000 0.000000 0.000000
# 2 -0.008137 0.022203 0.002040 0.000000 0.000000 0.000000
# 3 -0.004641 0.002040 0.008036 0.000000 0.000000 0.000000
# 4 0.000000 0.000000 0.000000 0.109099 0.000000 0.000000
# 5 0.000000 0.000000 0.000000 0.000000 0.028959 0.000000
# 6 0.000000 0.000000 0.000000 0.000000 0.000000 -0.021871
#
#
# Mechanical properties :
#
#
# Convention : Reuss Voigt Hill
#
# Bulk Modulus (GPa) = 45.86553 61.82002 53.84278
# Shear Modulus (GPa) = 26.56613 15.00313 20.78463
#
# Velocity S-wave (km/s) = 3.59036 2.69814 3.17574
# Velocity P-wave (km/s) = 6.28035 6.30107 6.29072
#
# Compressibility (1/GPa) = 0.02180287
#
# Stress axis : x y z
#
# Youngs Moduli (GPa) = 76.68908 45.03869 124.43761
#
# Poissons Ratio (x) = 0.36648 0.57755
# Poissons Ratio (y) = 0.62401 -0.25387
# Poissons Ratio (z) = 0.35593 -0.09189
#
# Static dielectric constant tensor:
#      x y z
#    x 1.710720 0.000000 0.000000 
#    y 0.000000 1.735500 0.000000 
#    z 0.000000 0.000000 1.888990 
# 
# From -- ./inp_files/15564.got.cif
#   From: 2010.05.17/outbox.cif.g08.bks.cpg/sg20_8_cif.got.tgz:15564.got - 2010.06.03 22:52:26.
