data_PCOD9317990
_publ_section_title
;
Structure prediction by ZEFSAII (Michael W. Deem and Ramdas Pophale) SiO2 
 PCOD9317990
Probable space group: C 2 2 21
;
_chemical_formula_sum "Si O2"
_cell_formula_units_Z 64
_cell_length_a 8.720970
_cell_length_b 10.950721
_cell_length_c 33.901628
_cell_angle_alpha 90.000000
_cell_angle_beta 90.000000
_cell_angle_gamma 90.000000
_cell_volume 3237.636301
_symmetry_space_group_name_H-M "C 2 2 21"
_symmetry_group_IT_number 20
_symmetry_cell_setting 'orthorhombic'
loop_
_space_group_symop_operation_xyz
x,y,z
-x,-y,1/2+z
x,-y,-z
-x,y,1/2-z
1/2+x,1/2+y,z
1/2-x,1/2-y,1/2+z
1/2+x,1/2-y,-z
1/2-x,1/2+y,1/2-z
loop_
_atom_site_type_symbol
_atom_site_label
_atom_site_fract_x
_atom_site_fract_y
_atom_site_fract_z
Si Si1 0.030912 0.007614 0.603929
Si Si2 0.464843 0.868015 0.481541
Si Si3 0.194262 0.409214 0.156564
Si Si4 0.805035 0.150024 0.656527
Si Si5 0.595079 0.625937 0.523088
Si Si6 0.927364 0.489098 0.209324
Si Si7 0.966774 0.270040 0.101388
Si Si8 0.072359 0.233560 0.708995
O O1 0.185830 0.018744 0.629597
O O2 0.043697 0.101585 0.567902
O O3 0.890924 0.044518 0.632005
O O4 0.015501 0.870079 0.588920
O O5 0.522931 0.750179 0.505978
O O6 0.279792 0.862900 0.478864
O O7 0.531882 0.853184 0.437505
O O8 0.506266 0.000000 0.500000
O O9 0.291271 0.345988 0.191257
O O10 0.061175 0.487321 0.176624
O O11 0.107289 0.310827 0.129240
O O12 0.706432 0.093306 0.691989
O O13 0.687196 0.214721 0.626982
O O14 0.938757 0.229604 0.676019
O O15 0.553868 0.500000 0.500000
O O16 0.874937 0.627807 0.215871
O O17 0.000000 0.442638 0.250000
O O18 0.000000 0.187474 0.750000
#
# Coordination Sequence:
#
# PCOD9317990 Si02
#       8
#     8   8   8   8   8   8   8   8
#     4  11  22  39  63  86 120 160 196 248 299 356
#     4  11  26  43  63  92 121 159 204 252 306 368
#     4  10  21  38  57  87 119 155 194 246 298 350
#     4  10  23  36  58  93 116 155 200 244 294 355
#     4  11  24  44  64  88 122 160 202 246 307 364
#     4  10  20  37  59  83 118 157 194 241 292 349
#     4  11  22  41  61  87 124 157 200 249 299 357
#     4  10  20  37  59  86 118 155 198 243 291 352
#
# _framework density 19.767507999999999
#
# number of rings (size 3 to 8) (size 9 to 14) (size 15 to 20)
#    0.000    1.500    2.500    2.250    1.750    1.500 
#    9.000    0.000    0.000   12.000    0.000    0.000 
#    0.000    0.000    0.000    0.000    0.000    0.000 
#
# Total GULP energy -178706.835244 kJ/mol
# GULP energy per Si atom -5584.588601 kJ/mol
# Density = 1.972252 g / cm^3
# Si number density = 19.767508 Si / 1000 Ang^3
#
#
#
# Elastic Constant Matrix: (Units=GPa)
#
#
# Indices 1 2 3 4 5 6 
#
# 1 49.4220 17.0273 2.9225 0.0000 0.0000 0.0000
# 2 17.0273 86.7222 21.2206 0.0000 0.0000 0.0000
# 3 2.9225 21.2206 81.9141 0.0000 0.0000 0.0000
# 4 0.0000 0.0000 0.0000 25.0416 0.0000 0.0000
# 5 0.0000 0.0000 0.0000 0.0000 24.0277 0.0000
# 6 0.0000 0.0000 0.0000 0.0000 0.0000 8.0742
#
#
#
# Elastic Compliance Matrix: (Units=1/GPa)
#
#
# Indices 1 2 3 4 5 6 
#
# 1 0.021711 -0.004349 0.000352 0.000000 0.000000 0.000000
# 2 -0.004349 0.013183 -0.003260 0.000000 0.000000 0.000000
# 3 0.000352 -0.003260 0.013040 0.000000 0.000000 0.000000
# 4 0.000000 0.000000 0.000000 0.039934 0.000000 0.000000
# 5 0.000000 0.000000 0.000000 0.000000 0.041619 0.000000
# 6 0.000000 0.000000 0.000000 0.000000 0.000000 0.123852
#
#
# Mechanical properties :
#
#
# Convention : Reuss Voigt Hill
#
# Bulk Modulus (GPa) = 29.92206 33.37767 31.64987
# Shear Modulus (GPa) = 17.92166 23.22120 20.57143
#
# Velocity S-wave (km/s) = 3.01428 3.43113 3.22944
# Velocity P-wave (km/s) = 5.22345 5.71127 5.47280
#
# Compressibility (1/GPa) = 0.03342016
#
# Stress axis : x y z
#
# Youngs Moduli (GPa) = 46.05858 75.85716 76.68795
#
# Poissons Ratio (x) = 0.32991 -0.02700
# Poissons Ratio (y) = 0.20031 0.25000
# Poissons Ratio (z) = -0.01621 0.24729
#
# Static dielectric constant tensor:
#      x y z
#    x 1.670380 0.000000 0.000000 
#    y 0.000000 1.671650 0.000000 
#    z 0.000000 0.000000 1.692040 
# 
# From -- ./inp_files/31062.got.cif
#   From: 2010.05.17/outbox.cif.g08.bks.cpg/sg20_16_cif.got.tgz:31062.got - 2010.06.03 22:52:26.
