data_PCOD9317488
_publ_section_title
;
Structure prediction by ZEFSAII (Michael W. Deem and Ramdas Pophale) SiO2 
 PCOD9317488
Probable space group: C 2 2 21
;
_chemical_formula_sum "Si O2"
_cell_formula_units_Z 48
_cell_length_a 11.689907
_cell_length_b 16.533091
_cell_length_c 12.681304
_cell_angle_alpha 90.000000
_cell_angle_beta 90.000000
_cell_angle_gamma 90.000000
_cell_volume 2450.919380
_symmetry_space_group_name_H-M "C 2 2 21"
_symmetry_group_IT_number 20
_symmetry_cell_setting 'orthorhombic'
loop_
_space_group_symop_operation_xyz
x,y,z
-x,-y,1/2+z
x,-y,-z
-x,y,1/2-z
1/2+x,1/2+y,z
1/2-x,1/2-y,1/2+z
1/2+x,1/2-y,-z
1/2-x,1/2+y,1/2-z
loop_
_atom_site_type_symbol
_atom_site_label
_atom_site_fract_x
_atom_site_fract_y
_atom_site_fract_z
Si Si1 0.261564 0.408532 0.955077
Si Si2 0.596846 0.821622 0.116720
Si Si3 0.365062 0.933401 0.762980
Si Si4 0.355982 0.883212 0.164868
Si Si5 0.241615 0.090155 0.035158
Si Si6 0.491091 0.358338 0.622868
O O1 0.197046 0.408296 0.843367
O O2 0.389841 0.379342 0.932071
O O3 0.262243 0.500000 0.000000
O O4 0.190982 0.353004 0.036166
O O5 0.485235 0.880120 0.118582
O O6 0.645484 0.823495 0.235942
O O7 0.547901 0.732938 0.097463
O O8 0.500000 0.925261 0.750000
O O9 0.318160 0.885743 0.864834
O O10 0.336341 0.027899 0.786323
O O11 0.269695 0.861129 0.071080
O O12 0.112315 0.089225 0.075107
O O13 0.276955 0.000000 0.000000
O O14 0.500000 0.368496 0.750000
#
# Coordination Sequence:
#
# PCOD9317488 Si02
#       6
#     8   8   8   8   8   8
#     4  12  24  42  69  97 127 173 228 268 314 394
#     4  11  23  40  66  95 130 168 210 269 336 379
#     4  11  19  36  65 100 126 160 225 279 316 374
#     4  10  19  39  64  92 129 165 213 274 332 373
#     4  10  23  40  64  93 127 171 218 269 325 386
#     4  12  25  43  63  92 134 178 210 264 334 395
#
# _framework density 19.584488
#
# number of rings (size 3 to 8) (size 9 to 14) (size 15 to 20)
#    0.000    1.000    6.667    1.500    2.333    1.333 
#    0.000    0.833    0.000    0.000    0.000    0.000 
#    0.000    0.000    0.000    0.000    0.000    0.000 
#
# Total GULP energy -134041.979850 kJ/mol
# GULP energy per Si atom -5585.082494 kJ/mol
# Density = 1.953991 g / cm^3
# Si number density = 19.584488 Si / 1000 Ang^3
#
#
#
# Elastic Constant Matrix: (Units=GPa)
#
#
# Indices 1 2 3 4 5 6 
#
# 1 121.2506 4.5000 93.2758 0.0000 0.0000 0.0000
# 2 4.5000 24.2067 25.7185 0.0000 0.0000 0.0000
# 3 93.2758 25.7185 155.2642 0.0000 0.0000 0.0000
# 4 0.0000 0.0000 0.0000 10.7712 0.0000 0.0000
# 5 0.0000 0.0000 0.0000 0.0000 34.2671 0.0000
# 6 0.0000 0.0000 0.0000 0.0000 0.0000 24.6301
#
#
#
# Elastic Compliance Matrix: (Units=1/GPa)
#
#
# Indices 1 2 3 4 5 6 
#
# 1 0.016891 0.009273 -0.011683 0.000000 0.000000 0.000000
# 2 0.009273 0.055225 -0.014718 0.000000 0.000000 0.000000
# 3 -0.011683 -0.014718 0.015898 0.000000 0.000000 0.000000
# 4 0.000000 0.000000 0.000000 0.092841 0.000000 0.000000
# 5 0.000000 0.000000 0.000000 0.000000 0.029183 0.000000
# 6 0.000000 0.000000 0.000000 0.000000 0.000000 0.040601
#
#
# Mechanical properties :
#
#
# Convention : Reuss Voigt Hill
#
# Bulk Modulus (GPa) = 18.60267 60.85665 39.72966
# Shear Modulus (GPa) = 16.51182 25.74882 21.13032
#
# Velocity S-wave (km/s) = 2.90678 3.62989 3.28827
# Velocity P-wave (km/s) = 4.55907 6.97922 5.89469
#
# Compressibility (1/GPa) = 0.05375573
#
# Stress axis : x y z
#
# Youngs Moduli (GPa) = 59.20287 18.10783 62.90283
#
# Poissons Ratio (x) = -0.16792 0.73492
# Poissons Ratio (y) = -0.54899 0.92583
# Poissons Ratio (z) = 0.69169 0.26652
#
# Static dielectric constant tensor:
#      x y z
#    x 1.674160 0.000000 0.000000 
#    y 0.000000 1.728640 0.000000 
#    z 0.000000 0.000000 1.717070 
# 
# From -- ./inp_files/14132.got.cif
#   From: 2010.05.17/outbox.cif.g08.bks.cpg/sg20_8_cif.got.tgz:14132.got - 2010.06.03 22:52:26.
