data_PCOD9317346
_publ_section_title
;
Structure prediction by ZEFSAII (Michael W. Deem and Ramdas Pophale) SiO2 
 PCOD9317346
Probable space group: C 2 2 21
;
_chemical_formula_sum "Si O2"
_cell_formula_units_Z 56
_cell_length_a 11.820068
_cell_length_b 19.329318
_cell_length_c 13.943406
_cell_angle_alpha 90.000000
_cell_angle_beta 90.000000
_cell_angle_gamma 90.000000
_cell_volume 3185.703695
_symmetry_space_group_name_H-M "C 2 2 21"
_symmetry_group_IT_number 20
_symmetry_cell_setting 'orthorhombic'
loop_
_space_group_symop_operation_xyz
x,y,z
-x,-y,1/2+z
x,-y,-z
-x,y,1/2-z
1/2+x,1/2+y,z
1/2-x,1/2-y,1/2+z
1/2+x,1/2-y,-z
1/2-x,1/2+y,1/2-z
loop_
_atom_site_type_symbol
_atom_site_label
_atom_site_fract_x
_atom_site_fract_y
_atom_site_fract_z
Si Si1 0.576673 0.788564 0.891730
Si Si2 0.000000 0.475838 0.250000
Si Si3 0.252257 0.579387 0.524550
Si Si4 0.009698 0.562824 0.434649
Si Si5 0.337495 0.741823 0.807144
Si Si6 0.368983 0.301017 0.576428
Si Si7 0.000000 0.253638 0.250000
Si Si8 0.690652 0.130763 0.734631
O O1 0.564412 0.870253 0.911286
O O2 0.457424 0.755477 0.856952
O O3 0.656198 0.771924 0.801071
O O4 0.611982 0.752286 0.989800
O O5 0.961401 0.524342 0.163874
O O6 0.106571 0.427321 0.222215
O O7 0.276413 0.500000 0.500000
O O8 0.345496 0.625731 0.472142
O O9 0.240967 0.601243 0.635666
O O10 0.124577 0.589877 0.484014
O O11 0.962211 0.500000 0.500000
O O12 0.245982 0.781849 0.869145
O O13 0.292029 0.663158 0.797201
O O14 0.464042 0.290893 0.657638
O O15 0.104199 0.304301 0.278601
#
# Coordination Sequence:
#
# PCOD9317346 Si02
#       8
#     8   4   8   8   8   8   4   8
#     4  11  22  38  59  87 123 153 196 247 290 349
#     4  11  20  34  60  82 131 148 180 246 303 356
#     4  11  20  36  58  83 115 153 190 232 296 355
#     4  11  22  34  55  90 121 148 184 237 310 356
#     4  10  22  35  58  89 115 153 203 233 295 346
#     4  11  22  37  62  85 116 153 198 244 287 350
#     4   9  22  34  60  86 115 148 196 240 291 340
#     4  10  19  37  56  89 114 153 193 239 292 351
#
# _framework density 17.578534000000001
#
# number of rings (size 3 to 8) (size 9 to 14) (size 15 to 20)
#    0.000    1.429    5.714    1.714    4.000    0.000 
#    0.000    0.000    3.143    0.000    0.000    0.000 
#    0.000    0.000    0.000    0.000    0.000    0.000 
#
# Total GULP energy -156049.717102 kJ/mol
# GULP energy per Si atom -5573.204182 kJ/mol
# Density = 1.753852 g / cm^3
# Si number density = 17.578534 Si / 1000 Ang^3
#
#
#
# Elastic Constant Matrix: (Units=GPa)
#
#
# Indices 1 2 3 4 5 6 
#
# 1 46.3190 20.8032 21.7181 0.0000 0.0000 0.0000
# 2 20.8032 90.4806 15.7540 0.0000 0.0000 0.0000
# 3 21.7181 15.7540 64.3114 0.0000 0.0000 0.0000
# 4 0.0000 0.0000 0.0000 32.0521 0.0000 0.0000
# 5 0.0000 0.0000 0.0000 0.0000 29.4741 0.0000
# 6 0.0000 0.0000 0.0000 0.0000 0.0000 15.2229
#
#
#
# Elastic Compliance Matrix: (Units=1/GPa)
#
#
# Indices 1 2 3 4 5 6 
#
# 1 0.027611 -0.004935 -0.008115 0.000000 0.000000 0.000000
# 2 -0.004935 0.012427 -0.001377 0.000000 0.000000 0.000000
# 3 -0.008115 -0.001377 0.018627 0.000000 0.000000 0.000000
# 4 0.000000 0.000000 0.000000 0.031199 0.000000 0.000000
# 5 0.000000 0.000000 0.000000 0.000000 0.033928 0.000000
# 6 0.000000 0.000000 0.000000 0.000000 0.000000 0.065690
#
#
# Mechanical properties :
#
#
# Convention : Reuss Voigt Hill
#
# Bulk Modulus (GPa) = 33.54700 35.29574 34.42137
# Shear Modulus (GPa) = 21.90337 24.87220 23.38778
#
# Velocity S-wave (km/s) = 3.53374 3.76562 3.65152
# Velocity P-wave (km/s) = 5.98124 6.24732 6.11573
#
# Compressibility (1/GPa) = 0.02980893
#
# Stress axis : x y z
#
# Youngs Moduli (GPa) = 36.21724 80.47215 53.68452
#
# Poissons Ratio (x) = 0.39716 0.43567
# Poissons Ratio (y) = 0.17874 0.07395
# Poissons Ratio (z) = 0.29392 0.11084
#
# Static dielectric constant tensor:
#      x y z
#    x 1.611540 0.000000 0.000000 
#    y 0.000000 1.602150 0.000000 
#    z 0.000000 0.000000 1.637090 
# 
# From -- ./inp_files/14342.got.cif
#   From: 2010.05.17/outbox.cif.g08.bks.cpg/sg20_8_cif.got.tgz:14342.got - 2010.06.03 22:52:26.
