data_PCOD9317987
_publ_section_title
;
Structure prediction by ZEFSAII (Michael W. Deem and Ramdas Pophale) SiO2 
 PCOD9317987
Probable space group: C 2 2 21
;
_chemical_formula_sum "Si O2"
_cell_formula_units_Z 44
_cell_length_a 12.196887
_cell_length_b 12.818597
_cell_length_c 15.761938
_cell_angle_alpha 90.000000
_cell_angle_beta 90.000000
_cell_angle_gamma 90.000000
_cell_volume 2464.331391
_symmetry_space_group_name_H-M "C 2 2 21"
_symmetry_group_IT_number 20
_symmetry_cell_setting 'orthorhombic'
loop_
_space_group_symop_operation_xyz
x,y,z
-x,-y,1/2+z
x,-y,-z
-x,y,1/2-z
1/2+x,1/2+y,z
1/2-x,1/2-y,1/2+z
1/2+x,1/2-y,-z
1/2-x,1/2+y,1/2-z
loop_
_atom_site_type_symbol
_atom_site_label
_atom_site_fract_x
_atom_site_fract_y
_atom_site_fract_z
Si Si1 0.555542 0.312255 0.386504
Si Si2 0.366677 0.500000 0.000000
Si Si3 0.325715 0.708395 0.706724
Si Si4 0.688261 0.929204 0.870240
Si Si5 0.881439 0.425592 0.225131
Si Si6 0.445112 0.077775 0.074301
O O1 0.571318 0.409236 0.449030
O O2 0.630072 0.316027 0.301334
O O3 0.429602 0.313895 0.354155
O O4 0.585850 0.199718 0.428051
O O5 0.289892 0.443144 0.931318
O O6 0.302158 0.830044 0.691201
O O7 0.213459 0.647205 0.687937
O O8 0.577258 0.918365 0.924282
O O9 0.668972 0.028481 0.811077
O O10 0.908986 0.521357 0.161671
O O11 0.000000 0.376880 0.250000
O O12 0.407915 0.000000 0.000000
#
# Coordination Sequence:
#
# PCOD9317987 Si02
#       6
#     8   4   8   8   8   8
#     4  10  22  38  62  82 120 161 197 238 311 365
#     4  12  22  38  58  92 120 158 202 254 298 360
#     4  10  20  41  59  84 117 165 195 240 304 368
#     4  10  20  37  62  83 120 158 200 246 300 358
#     4  10  20  37  62  87 115 152 204 250 294 356
#     4  10  20  37  58  88 113 155 206 249 289 353
#
# _framework density 17.854741000000001
#
# number of rings (size 3 to 8) (size 9 to 14) (size 15 to 20)
#    0.000    1.818    4.545    0.000    2.545    0.000 
#    1.636    1.818    0.000    0.000    0.000    0.000 
#    0.000    0.000    0.000    0.000    0.000    0.000 
#
# Total GULP energy -122550.039832 kJ/mol
# GULP energy per Si atom -5570.456356 kJ/mol
# Density = 1.781410 g / cm^3
# Si number density = 17.854741 Si / 1000 Ang^3
#
#
#
# Elastic Constant Matrix: (Units=GPa)
#
#
# Indices 1 2 3 4 5 6 
#
# 1 95.4203 58.8974 24.2047 0.0000 0.0000 0.0000
# 2 58.8974 94.8469 36.3210 0.0000 0.0000 0.0000
# 3 24.2047 36.3210 77.1629 0.0000 0.0000 0.0000
# 4 0.0000 0.0000 0.0000 35.5521 0.0000 0.0000
# 5 0.0000 0.0000 0.0000 0.0000 15.9397 0.0000
# 6 0.0000 0.0000 0.0000 0.0000 0.0000 15.8865
#
#
#
# Elastic Compliance Matrix: (Units=1/GPa)
#
#
# Indices 1 2 3 4 5 6 
#
# 1 0.017006 -0.010390 -0.000444 0.000000 0.000000 0.000000
# 2 -0.010390 0.019210 -0.005783 0.000000 0.000000 0.000000
# 3 -0.000444 -0.005783 0.015821 0.000000 0.000000 0.000000
# 4 0.000000 0.000000 0.000000 0.028128 0.000000 0.000000
# 5 0.000000 0.000000 0.000000 0.000000 0.062736 0.000000
# 6 0.000000 0.000000 0.000000 0.000000 0.000000 0.062946
#
#
# Mechanical properties :
#
#
# Convention : Reuss Voigt Hill
#
# Bulk Modulus (GPa) = 53.18367 56.25291 54.71829
# Shear Modulus (GPa) = 20.37918 23.34280 21.86099
#
# Velocity S-wave (km/s) = 3.38211 3.61968 3.50291
# Velocity P-wave (km/s) = 6.71588 7.00312 6.86101
#
# Compressibility (1/GPa) = 0.01880276
#
# Stress axis : x y z
#
# Youngs Moduli (GPa) = 58.80355 52.05652 63.20779
#
# Poissons Ratio (x) = 0.54088 0.02805
# Poissons Ratio (y) = 0.61098 0.36553
# Poissons Ratio (z) = 0.02609 0.30104
#
# Static dielectric constant tensor:
#      x y z
#    x 1.608680 0.000000 0.000000 
#    y 0.000000 1.619740 0.000000 
#    z 0.000000 0.000000 1.618790 
# 
# From -- ./inp_files/20619.got.cif
#   From: 2010.05.17/outbox.cif.g08.bks.cpg/sg20_11_cif.got.tgz:20619.got - 2010.06.03 22:52:26.
