data_PCOD9317538
_publ_section_title
;
Structure prediction by ZEFSAII (Michael W. Deem and Ramdas Pophale) SiO2 
 PCOD9317538
Probable space group: C 2 2 21
;
_chemical_formula_sum "Si O2"
_cell_formula_units_Z 40
_cell_length_a 23.872781
_cell_length_b 9.883366
_cell_length_c 7.510385
_cell_angle_alpha 90.000000
_cell_angle_beta 90.000000
_cell_angle_gamma 90.000000
_cell_volume 1772.026013
_symmetry_space_group_name_H-M "C 2 2 21"
_symmetry_group_IT_number 20
_symmetry_cell_setting 'orthorhombic'
loop_
_space_group_symop_operation_xyz
x,y,z
-x,-y,1/2+z
x,-y,-z
-x,y,1/2-z
1/2+x,1/2+y,z
1/2-x,1/2-y,1/2+z
1/2+x,1/2-y,-z
1/2-x,1/2+y,1/2-z
loop_
_atom_site_type_symbol
_atom_site_label
_atom_site_fract_x
_atom_site_fract_y
_atom_site_fract_z
Si Si1 0.769893 0.898464 0.733997
Si Si2 0.886677 0.856564 0.594412
Si Si3 0.426832 0.645659 0.994910
Si Si4 0.194910 0.174756 0.634021
Si Si5 0.480679 0.156247 0.543522
O O1 0.819556 0.843562 0.606633
O O2 0.712458 0.825978 0.683640
O O3 0.774730 0.060891 0.744863
O O4 0.784531 0.852507 0.933848
O O5 0.904799 0.848052 0.801864
O O6 0.923203 0.737025 0.510392
O O7 0.899258 0.000000 0.500000
O O8 0.468918 0.764422 0.946960
O O9 0.456861 0.500000 0.000000
O O10 0.371529 0.646860 0.872023
O O11 0.500000 0.166497 0.750000
O O12 0.475935 0.000000 0.500000
#
# Coordination Sequence:
#
# PCOD9317538 Si02
#       5
#     8   8   8   8   8
#     4  10  22  40  61  90 124 159 206 251 304 362
#     4  10  21  39  62  90 119 159 206 252 298 363
#     4  10  19  41  64  86 120 160 207 248 300 369
#     4  10  21  41  60  92 122 159 206 254 301 367
#     4  10  23  42  60  89 124 158 204 255 308 361
#
# _framework density 22.573035000000001
#
# number of rings (size 3 to 8) (size 9 to 14) (size 15 to 20)
#    0.000    2.000    4.000    0.600    2.800    1.600 
#   14.400    0.000    0.000    0.000    0.000    0.000 
#    0.000    0.000    0.000    0.000    0.000    0.000 
#
# Total GULP energy -111704.474979 kJ/mol
# GULP energy per Si atom -5585.223749 kJ/mol
# Density = 2.252166 g / cm^3
# Si number density = 22.573035 Si / 1000 Ang^3
#
#
#
# Elastic Constant Matrix: (Units=GPa)
#
#
# Indices 1 2 3 4 5 6 
#
# 1 84.0277 77.5713 23.1883 0.0000 0.0000 0.0000
# 2 77.5713 170.9658 23.3187 0.0000 0.0000 0.0000
# 3 23.1883 23.3187 52.0705 0.0000 0.0000 0.0000
# 4 0.0000 0.0000 0.0000 35.1694 0.0000 0.0000
# 5 0.0000 0.0000 0.0000 0.0000 24.5244 0.0000
# 6 0.0000 0.0000 0.0000 0.0000 0.0000 37.3751
#
#
#
# Elastic Compliance Matrix: (Units=1/GPa)
#
#
# Indices 1 2 3 4 5 6 
#
# 1 0.021939 -0.009183 -0.005658 0.000000 0.000000 0.000000
# 2 -0.009183 0.010073 -0.000422 0.000000 0.000000 0.000000
# 3 -0.005658 -0.000422 0.021913 0.000000 0.000000 0.000000
# 4 0.000000 0.000000 0.000000 0.028434 0.000000 0.000000
# 5 0.000000 0.000000 0.000000 0.000000 0.040776 0.000000
# 6 0.000000 0.000000 0.000000 0.000000 0.000000 0.026756
#
#
# Mechanical properties :
#
#
# Convention : Reuss Voigt Hill
#
# Bulk Modulus (GPa) = 42.73320 61.69119 52.21219
# Shear Modulus (GPa) = 26.56526 31.61283 29.08904
#
# Velocity S-wave (km/s) = 3.43426 3.74634 3.59369
# Velocity P-wave (km/s) = 5.89047 6.78987 6.35610
#
# Compressibility (1/GPa) = 0.02340101
#
# Stress axis : x y z
#
# Youngs Moduli (GPa) = 45.58026 99.27469 45.63469
#
# Poissons Ratio (x) = 0.91161 0.25819
# Poissons Ratio (y) = 0.41855 0.01925
# Poissons Ratio (z) = 0.25788 0.04187
#
# Static dielectric constant tensor:
#      x y z
#    x 1.814580 0.000000 0.000000 
#    y 0.000000 1.817260 0.000000 
#    z 0.000000 0.000000 1.915180 
# 
# From -- ./inp_files/10482.got.cif
#   From: 2010.05.17/outbox.cif.g08.bks.cpg/sg20_6_cif.got.tgz:10482.got - 2010.06.03 22:52:26.
