data_PCOD9317719
_publ_section_title
;
Structure prediction by ZEFSAII (Michael W. Deem and Ramdas Pophale) SiO2 
 PCOD9317719
Probable space group: C 2 2 21
;
_chemical_formula_sum "Si O2"
_cell_formula_units_Z 60
_cell_length_a 12.421075
_cell_length_b 6.866213
_cell_length_c 29.652769
_cell_angle_alpha 90.000000
_cell_angle_beta 90.000000
_cell_angle_gamma 90.000000
_cell_volume 2528.958544
_symmetry_space_group_name_H-M "C 2 2 21"
_symmetry_group_IT_number 20
_symmetry_cell_setting 'orthorhombic'
loop_
_space_group_symop_operation_xyz
x,y,z
-x,-y,1/2+z
x,-y,-z
-x,y,1/2-z
1/2+x,1/2+y,z
1/2-x,1/2-y,1/2+z
1/2+x,1/2-y,-z
1/2-x,1/2+y,1/2-z
loop_
_atom_site_type_symbol
_atom_site_label
_atom_site_fract_x
_atom_site_fract_y
_atom_site_fract_z
Si Si1 0.498205 0.148910 0.150415
Si Si2 0.078145 0.000000 0.000000
Si Si3 0.689583 0.200785 0.411491
Si Si4 0.432189 0.543513 0.399386
Si Si5 0.225681 0.227560 0.490447
Si Si6 0.789725 0.370549 0.686288
Si Si7 0.108999 0.131555 0.732382
Si Si8 0.650253 0.665736 0.393048
O O1 0.404319 0.092767 0.115826
O O2 0.552984 0.339466 0.126258
O O3 0.603711 0.028733 0.164934
O O4 0.435938 0.214716 0.195725
O O5 0.155455 0.816267 0.008214
O O6 0.024601 0.025503 0.048384
O O7 0.811479 0.126889 0.401833
O O8 0.669335 0.184859 0.465283
O O9 0.679482 0.431181 0.398070
O O10 0.525885 0.676944 0.378972
O O11 0.178358 0.258166 0.441120
O O12 0.230358 0.000000 0.500000
O O13 0.835841 0.231772 0.724870
O O14 0.699962 0.506919 0.708237
O O15 0.726365 0.262455 0.646596
O O16 0.000000 0.025592 0.750000
#
# Coordination Sequence:
#
# PCOD9317719 Si02
#       8
#     8   4   8   8   8   8   8   8
#     4  10  21  40  67  88 128 168 212 271 336 389
#     4  10  20  34  60  94 128 184 230 262 332 400
#     4   9  19  37  62  96 132 172 217 260 317 399
#     4  10  20  35  63  94 129 176 215 265 325 398
#     4   9  19  36  62  92 137 178 223 270 323 396
#     4  11  22  44  67  94 125 171 218 271 339 400
#     4  10  23  44  64  90 127 162 215 276 332 398
#     4  10  20  39  63  93 132 176 211 267 340 386
#
# _framework density 23.725182
#
# number of rings (size 3 to 8) (size 9 to 14) (size 15 to 20)
#    0.000    2.133    2.667    0.800    4.667    2.133 
#    0.000   11.333    5.867    1.600    0.000    0.000 
#    0.000    0.000    0.000    0.000    0.000    0.000 
#
# Total GULP energy -167594.174857 kJ/mol
# GULP energy per Si atom -5586.472495 kJ/mol
# Density = 2.367118 g / cm^3
# Si number density = 23.725182 Si / 1000 Ang^3
#
#
#
# Elastic Constant Matrix: (Units=GPa)
#
#
# Indices 1 2 3 4 5 6 
#
# 1 206.7630 33.5112 83.0428 0.0000 0.0000 0.0000
# 2 33.5112 52.7943 20.0676 0.0000 0.0000 0.0000
# 3 83.0428 20.0676 154.0235 0.0000 0.0000 0.0000
# 4 0.0000 0.0000 0.0000 24.4762 0.0000 0.0000
# 5 0.0000 0.0000 0.0000 0.0000 53.6988 0.0000
# 6 0.0000 0.0000 0.0000 0.0000 0.0000 30.8108
#
#
#
# Elastic Compliance Matrix: (Units=1/GPa)
#
#
# Indices 1 2 3 4 5 6 
#
# 1 0.006591 -0.002980 -0.003165 0.000000 0.000000 0.000000
# 2 -0.002980 0.021276 -0.001165 0.000000 0.000000 0.000000
# 3 -0.003165 -0.001165 0.008351 0.000000 0.000000 0.000000
# 4 0.000000 0.000000 0.000000 0.040856 0.000000 0.000000
# 5 0.000000 0.000000 0.000000 0.000000 0.018622 0.000000
# 6 0.000000 0.000000 0.000000 0.000000 0.000000 0.032456
#
#
# Mechanical properties :
#
#
# Convention : Reuss Voigt Hill
#
# Bulk Modulus (GPa) = 46.30415 76.31380 61.30897
# Shear Modulus (GPa) = 33.33951 40.26112 36.80032
#
# Velocity S-wave (km/s) = 3.75272 4.12391 3.94268
# Velocity P-wave (km/s) = 6.19164 7.41020 6.82816
#
# Compressibility (1/GPa) = 0.02159634
#
# Stress axis : x y z
#
# Youngs Moduli (GPa) = 151.72862 47.00107 119.74869
#
# Poissons Ratio (x) = 0.14008 0.37902
# Poissons Ratio (y) = 0.45221 0.13953
# Poissons Ratio (z) = 0.48024 0.05476
#
# Static dielectric constant tensor:
#      x y z
#    x 1.892180 0.000000 0.000000 
#    y 0.000000 1.984230 0.000000 
#    z 0.000000 0.000000 1.937380 
# 
# From -- ./inp_files/31177.got.cif
#   From: 2010.05.17/outbox.cif.g08.bks.cpg/sg20_16_cif.got.tgz:31177.got - 2010.06.03 22:52:26.
