data_PCOD9317739
_publ_section_title
;
Structure prediction by ZEFSAII (Michael W. Deem and Ramdas Pophale) SiO2 
 PCOD9317739
Probable space group: C 2 2 21
;
_chemical_formula_sum "Si O2"
_cell_formula_units_Z 60
_cell_length_a 5.358758
_cell_length_b 25.274632
_cell_length_c 24.041056
_cell_angle_alpha 90.000000
_cell_angle_beta 90.000000
_cell_angle_gamma 90.000000
_cell_volume 3256.135925
_symmetry_space_group_name_H-M "C 2 2 21"
_symmetry_group_IT_number 20
_symmetry_cell_setting 'orthorhombic'
loop_
_space_group_symop_operation_xyz
x,y,z
-x,-y,1/2+z
x,-y,-z
-x,y,1/2-z
1/2+x,1/2+y,z
1/2-x,1/2-y,1/2+z
1/2+x,1/2-y,-z
1/2-x,1/2+y,1/2-z
loop_
_atom_site_type_symbol
_atom_site_label
_atom_site_fract_x
_atom_site_fract_y
_atom_site_fract_z
Si Si1 0.627774 0.309195 0.465991
Si Si2 0.988105 0.104141 0.622833
Si Si3 0.878709 0.005474 0.098743
Si Si4 0.232480 0.580487 0.419488
Si Si5 0.500491 0.023278 0.187842
Si Si6 0.985298 0.500000 0.500000
Si Si7 0.010193 0.599084 0.688154
Si Si8 0.870609 0.691873 0.039676
O O1 0.579108 0.356996 0.424855
O O2 0.886756 0.314387 0.499965
O O3 0.620383 0.251441 0.436456
O O4 0.389038 0.309350 0.506242
O O5 0.937227 0.044405 0.600664
O O6 0.732197 0.123435 0.651293
O O7 0.232483 0.100780 0.662574
O O8 0.980680 0.061822 0.078213
O O9 0.771849 0.016183 0.159900
O O10 0.677669 0.985384 0.053950
O O11 0.141653 0.554568 0.361144
O O12 0.129925 0.549953 0.474251
O O13 0.152535 0.640944 0.421115
O O14 0.500000 0.046509 0.250000
O O15 0.408545 0.962784 0.193630
O O16 0.000000 0.621952 0.750000
#
# Coordination Sequence:
#
# PCOD9317739 Si02
#       8
#     8   8   8   8   8   4   8   8
#     4  10  22  40  58  82 111 152 193 233 279 338
#     4  11  20  34  56  80 111 144 189 228 277 335
#     4  10  21  32  50  83 110 154 182 227 289 341
#     4  11  21  34  54  82 114 152 189 233 290 346
#     4   9  20  36  52  77 115 152 192 229 282 353
#     4  10  22  32  48  80 122 148 180 224 292 350
#     4  10  20  35  54  81 113 146 184 232 286 340
#     4  10  23  38  58  82 113 152 191 231 281 342
#
# _framework density 18.426748
#
# number of rings (size 3 to 8) (size 9 to 14) (size 15 to 20)
#    0.000    1.867    1.333    2.400    7.467    0.533 
#    0.000    0.000    0.000    1.600    0.000    0.000 
#    0.000    0.000    0.000    0.000    0.000    0.000 
#
# Total GULP energy -167017.310264 kJ/mol
# GULP energy per Si atom -5567.243675 kJ/mol
# Density = 1.838481 g / cm^3
# Si number density = 18.426748 Si / 1000 Ang^3
#
#
#
# Elastic Constant Matrix: (Units=GPa)
#
#
# Indices 1 2 3 4 5 6 
#
# 1 63.3699 4.9583 10.8923 0.0000 0.0000 0.0000
# 2 4.9583 77.3942 22.4215 0.0000 0.0000 0.0000
# 3 10.8923 22.4215 69.3935 0.0000 0.0000 0.0000
# 4 0.0000 0.0000 0.0000 9.3487 0.0000 0.0000
# 5 0.0000 0.0000 0.0000 0.0000 17.8009 0.0000
# 6 0.0000 0.0000 0.0000 0.0000 0.0000 20.2087
#
#
#
# Elastic Compliance Matrix: (Units=1/GPa)
#
#
# Indices 1 2 3 4 5 6 
#
# 1 0.016226 -0.000333 -0.002439 0.000000 0.000000 0.000000
# 2 -0.000333 0.014262 -0.004556 0.000000 0.000000 0.000000
# 3 -0.002439 -0.004556 0.016265 0.000000 0.000000 0.000000
# 4 0.000000 0.000000 0.000000 0.106967 0.000000 0.000000
# 5 0.000000 0.000000 0.000000 0.000000 0.056177 0.000000
# 6 0.000000 0.000000 0.000000 0.000000 0.000000 0.049484
#
#
# Mechanical properties :
#
#
# Convention : Reuss Voigt Hill
#
# Bulk Modulus (GPa) = 31.15542 31.85574 31.50558
# Shear Modulus (GPa) = 17.56012 20.93070 19.24541
#
# Velocity S-wave (km/s) = 3.09037 3.37395 3.23527
# Velocity P-wave (km/s) = 5.44778 5.70117 5.57591
#
# Compressibility (1/GPa) = 0.03209714
#
# Stress axis : x y z
#
# Youngs Moduli (GPa) = 61.63067 70.11614 61.47984
#
# Poissons Ratio (x) = 0.02334 0.14997
# Poissons Ratio (y) = 0.02051 0.28010
# Poissons Ratio (z) = 0.15034 0.31944
#
# Static dielectric constant tensor:
#      x y z
#    x 1.767830 0.000000 0.000000 
#    y 0.000000 1.661480 0.000000 
#    z 0.000000 0.000000 1.630250 
# 
# From -- ./inp_files/26248.got.cif
#   From: 2010.05.17/outbox.cif.g08.bks.cpg/sg20_14_cif.got.tgz:26248.got - 2010.06.03 22:52:26.
