data_PCOD9317607
_publ_section_title
;
Structure prediction by ZEFSAII (Michael W. Deem and Ramdas Pophale) SiO2 
 PCOD9317607
Probable space group: C 2 2 21
;
_chemical_formula_sum "Si O2"
_cell_formula_units_Z 40
_cell_length_a 18.767873
_cell_length_b 15.971651
_cell_length_c 5.406969
_cell_angle_alpha 90.000000
_cell_angle_beta 90.000000
_cell_angle_gamma 90.000000
_cell_volume 1620.760140
_symmetry_space_group_name_H-M "C 2 2 21"
_symmetry_group_IT_number 20
_symmetry_cell_setting 'orthorhombic'
loop_
_space_group_symop_operation_xyz
x,y,z
-x,-y,1/2+z
x,-y,-z
-x,y,1/2-z
1/2+x,1/2+y,z
1/2-x,1/2-y,1/2+z
1/2+x,1/2-y,-z
1/2-x,1/2+y,1/2-z
loop_
_atom_site_type_symbol
_atom_site_label
_atom_site_fract_x
_atom_site_fract_y
_atom_site_fract_z
Si Si1 0.399319 0.049279 0.238536
Si Si2 0.422902 0.783519 0.499338
Si Si3 0.177828 0.820697 0.346643
Si Si4 0.312718 0.848826 0.107878
Si Si5 0.970765 0.867988 0.995441
O O1 0.431674 0.137633 0.321460
O O2 0.391211 0.000000 0.500000
O O3 0.328355 0.083815 0.103128
O O4 0.434847 0.000000 0.000000
O O5 0.365240 0.718584 0.613724
O O6 0.384568 0.826270 0.261773
O O7 0.493075 0.725834 0.487175
O O8 0.245982 0.874602 0.274377
O O9 0.207020 0.740012 0.489939
O O10 0.114265 0.862877 0.500424
O O11 0.000000 0.909463 0.750000
O O12 0.000000 0.903864 0.250000
#
# Coordination Sequence:
#
# PCOD9317607 Si02
#       5
#     8   8   8   8   8
#     4  11  23  39  57  84 115 165 219 266 292 354
#     4  10  20  35  58  82 117 159 197 250 313 363
#     4  10  20  32  55  88 118 154 203 250 325 382
#     4  11  19  33  59  86 118 157 208 262 314 375
#     4  10  20  34  53  81 116 159 189 238 307 379
#
# _framework density 24.679779
#
# number of rings (size 3 to 8) (size 9 to 14) (size 15 to 20)
#    0.000    1.600    6.000    0.000    0.000    0.000 
#    0.000    0.000    0.000   36.000    0.000    0.000 
#    0.000    0.000   61.200    5.400    0.000    0.600 
#
# Total GULP energy -111533.796710 kJ/mol
# GULP energy per Si atom -5576.689836 kJ/mol
# Density = 2.462361 g / cm^3
# Si number density = 24.679779 Si / 1000 Ang^3
#
#
#
# Elastic Constant Matrix: (Units=GPa)
#
#
# Indices 1 2 3 4 5 6 
#
# 1 151.2491 24.6427 39.5425 0.0000 0.0000 0.0000
# 2 24.6427 91.6302 38.5205 0.0000 0.0000 0.0000
# 3 39.5425 38.5205 179.2074 0.0000 0.0000 0.0000
# 4 0.0000 0.0000 0.0000 3.0662 0.0000 0.0000
# 5 0.0000 0.0000 0.0000 0.0000 20.0993 0.0000
# 6 0.0000 0.0000 0.0000 0.0000 0.0000 -8.6106
#
#
#
# Elastic Compliance Matrix: (Units=1/GPa)
#
#
# Indices 1 2 3 4 5 6 
#
# 1 0.007174 -0.001389 -0.001284 0.000000 0.000000 0.000000
# 2 -0.001389 0.012267 -0.002330 0.000000 0.000000 0.000000
# 3 -0.001284 -0.002330 0.006364 0.000000 0.000000 0.000000
# 4 0.000000 0.000000 0.000000 0.326132 0.000000 0.000000
# 5 0.000000 0.000000 0.000000 0.000000 0.049753 0.000000
# 6 0.000000 0.000000 0.000000 0.000000 0.000000 -0.116137
#
#
# Mechanical properties :
#
#
# Convention : Reuss Voigt Hill
#
# Bulk Modulus (GPa) = 63.30237 69.72200 66.51218
# Shear Modulus (GPa) = 16.62086 24.20307 20.41196
#
# Velocity S-wave (km/s) = 2.59793 3.13498 2.87901
# Velocity P-wave (km/s) = 5.89102 6.43554 6.16929
#
# Compressibility (1/GPa) = 0.01579720
#
# Stress axis : x y z
#
# Youngs Moduli (GPa) = 139.39743 81.52177 157.12493
#
# Poissons Ratio (x) = 0.11327 0.20179
# Poissons Ratio (y) = 0.19368 0.36612
# Poissons Ratio (z) = 0.17902 0.18996
#
# Static dielectric constant tensor:
#      x y z
#    x 1.993820 0.000000 0.000000 
#    y 0.000000 1.946950 0.000000 
#    z 0.000000 0.000000 2.213830 
# 
# From -- ./inp_files/3101.got.cif
#   From: 2010.05.17/outbox.cif.g08.bks.cpg/sg20_2_cif.got.tgz:3101.got - 2010.06.03 22:52:26.
