data_PCOD9317216
_publ_section_title
;
Structure prediction by ZEFSAII (Michael W. Deem and Ramdas Pophale) SiO2 
 PCOD9317216
Probable space group: C 2 2 21
;
_chemical_formula_sum "Si O2"
_cell_formula_units_Z 28
_cell_length_a 11.435569
_cell_length_b 22.538354
_cell_length_c 4.923502
_cell_angle_alpha 90.000000
_cell_angle_beta 90.000000
_cell_angle_gamma 90.000000
_cell_volume 1268.978001
_symmetry_space_group_name_H-M "C 2 2 21"
_symmetry_group_IT_number 20
_symmetry_cell_setting 'orthorhombic'
loop_
_space_group_symop_operation_xyz
x,y,z
-x,-y,1/2+z
x,-y,-z
-x,y,1/2-z
1/2+x,1/2+y,z
1/2-x,1/2-y,1/2+z
1/2+x,1/2-y,-z
1/2-x,1/2+y,1/2-z
loop_
_atom_site_type_symbol
_atom_site_label
_atom_site_fract_x
_atom_site_fract_y
_atom_site_fract_z
Si Si1 0.676873 0.260223 0.707605
Si Si2 0.271624 0.387046 0.894949
Si Si3 0.921760 0.000000 0.000000
Si Si4 0.614586 0.865103 0.399365
O O1 0.793510 0.252862 0.520021
O O2 0.649559 0.329317 0.675712
O O3 0.600729 0.206609 0.589485
O O4 0.160183 0.386502 0.690319
O O5 0.342840 0.447190 0.883348
O O6 0.221661 0.378145 0.196374
O O7 0.000000 0.977310 0.250000
O O8 0.500000 0.889943 0.250000
#
# Coordination Sequence:
#
# PCOD9317216 Si02
#       4
#     8   8   4   8
#     4   8  16  31  53  81 117 154 186 230 287 341
#     4  10  21  39  58  86 124 155 198 253 290 347
#     4  12  26  44  64  84 112 162 214 256 300 348
#     4  10  19  35  61  91 122 156 190 237 305 369
#
# _framework density 22.065000000000001
#
# number of rings (size 3 to 8) (size 9 to 14) (size 15 to 20)
#    0.000    2.286    0.000    2.571    0.000    1.143 
#    0.000   11.429    0.000    0.000    0.000    0.000 
#    0.000    0.000    0.000    0.000    0.000    0.000 
#
# Total GULP energy -78060.448025 kJ/mol
# GULP energy per Si atom -5575.746287 kJ/mol
# Density = 2.201478 g / cm^3
# Si number density = 22.065000 Si / 1000 Ang^3
#
#
#
# Elastic Constant Matrix: (Units=GPa)
#
#
# Indices 1 2 3 4 5 6 
#
# 1 47.1859 39.1131 7.2796 0.0000 0.0000 0.0000
# 2 39.1131 118.4163 13.9935 0.0000 0.0000 0.0000
# 3 7.2796 13.9935 110.4764 0.0000 0.0000 0.0000
# 4 0.0000 0.0000 0.0000 24.5365 0.0000 0.0000
# 5 0.0000 0.0000 0.0000 0.0000 29.1503 0.0000
# 6 0.0000 0.0000 0.0000 0.0000 0.0000 6.0197
#
#
#
# Elastic Compliance Matrix: (Units=1/GPa)
#
#
# Indices 1 2 3 4 5 6 
#
# 1 0.029238 -0.009573 -0.000714 0.000000 0.000000 0.000000
# 2 -0.009573 0.011707 -0.000852 0.000000 0.000000 0.000000
# 3 -0.000714 -0.000852 0.009207 0.000000 0.000000 0.000000
# 4 0.000000 0.000000 0.000000 0.040756 0.000000 0.000000
# 5 0.000000 0.000000 0.000000 0.000000 0.034305 0.000000
# 6 0.000000 0.000000 0.000000 0.000000 0.000000 0.166121
#
#
# Mechanical properties :
#
#
# Convention : Reuss Voigt Hill
#
# Bulk Modulus (GPa) = 35.87577 44.09456 39.98516
# Shear Modulus (GPa) = 15.48451 26.32079 20.90265
#
# Velocity S-wave (km/s) = 2.65196 3.45755 3.08120
# Velocity P-wave (km/s) = 5.06672 5.99724 5.55151
#
# Compressibility (1/GPa) = 0.02787397
#
# Stress axis : x y z
#
# Youngs Moduli (GPa) = 34.20184 85.41551 108.61667
#
# Poissons Ratio (x) = 0.81769 0.07755
# Poissons Ratio (y) = 0.32742 0.09256
# Poissons Ratio (z) = 0.02442 0.07279
#
# Static dielectric constant tensor:
#      x y z
#    x 1.866670 0.000000 0.000000 
#    y 0.000000 1.833930 0.000000 
#    z 0.000000 0.000000 1.771010 
# 
# From -- ./inp_files/948.got.cif
#   From: 2010.05.17/outbox.cif.g08.bks.cpg/sg20_1_cif.got.tgz:948.got - 2010.06.03 22:52:26.
