data_PCOD9317246
_publ_section_title
;
Structure prediction by ZEFSAII (Michael W. Deem and Ramdas Pophale) SiO2 
 PCOD9317246
Probable space group: C 2 2 21
;
_chemical_formula_sum "Si O2"
_cell_formula_units_Z 64
_cell_length_a 8.003269
_cell_length_b 15.150914
_cell_length_c 25.053790
_cell_angle_alpha 90.000000
_cell_angle_beta 90.000000
_cell_angle_gamma 90.000000
_cell_volume 3037.943414
_symmetry_space_group_name_H-M "C 2 2 21"
_symmetry_group_IT_number 20
_symmetry_cell_setting 'orthorhombic'
loop_
_space_group_symop_operation_xyz
x,y,z
-x,-y,1/2+z
x,-y,-z
-x,y,1/2-z
1/2+x,1/2+y,z
1/2-x,1/2-y,1/2+z
1/2+x,1/2-y,-z
1/2-x,1/2+y,1/2-z
loop_
_atom_site_type_symbol
_atom_site_label
_atom_site_fract_x
_atom_site_fract_y
_atom_site_fract_z
Si Si1 0.300348 0.097600 0.003772
Si Si2 0.697381 0.680538 0.369112
Si Si3 0.252111 0.467045 0.788592
Si Si4 0.439003 0.454172 0.949679
Si Si5 0.077493 0.894261 0.360708
Si Si6 0.631741 0.955947 0.674543
Si Si7 0.910821 0.702986 0.103076
Si Si8 0.709116 0.131918 0.620274
O O1 0.388342 0.167586 0.042825
O O2 0.121242 0.075982 0.030525
O O3 0.272090 0.133113 0.943935
O O4 0.385065 0.000000 0.000000
O O5 0.665045 0.615981 0.319159
O O6 0.639652 0.629722 0.421775
O O7 0.620346 0.777583 0.363235
O O8 0.894684 0.696103 0.379965
O O9 0.322310 0.557820 0.813554
O O10 0.254879 0.465963 0.724790
O O11 0.057575 0.453868 0.804023
O O12 0.440712 0.530988 0.905883
O O13 0.350647 0.500000 0.000000
O O14 0.147774 0.802676 0.384854
O O15 0.885211 0.872137 0.348242
O O16 0.628285 0.039814 0.635764
O O17 0.676675 0.869066 0.641180
#
# Coordination Sequence:
#
# PCOD9317246 Si02
#       8
#     8   8   8   8   8   8   8   8
#     4  11  20  35  55  79 118 151 181 225 272 323
#     4   9  22  36  54  83 111 141 188 228 271 331
#     4   9  21  40  57  77 108 141 179 232 282 324
#     4  10  19  36  53  75 115 156 177 224 271 320
#     4  10  20  37  56  83 110 142 190 222 273 331
#     4  10  20  39  59  77 107 143 178 231 284 323
#     4  10  21  36  56  84 111 144 188 227 269 331
#     4  11  21  36  57  84 112 146 186 224 275 333
#
# _framework density 21.066884000000002
#
# number of rings (size 3 to 8) (size 9 to 14) (size 15 to 20)
#    0.000    2.000    3.750    0.000    1.750    3.000 
#    2.250    2.500    0.000    0.000    0.000    0.000 
#    0.000    0.000    0.000    0.000    0.000    0.000 
#
# Total GULP energy -178435.524698 kJ/mol
# GULP energy per Si atom -5576.110147 kJ/mol
# Density = 2.101893 g / cm^3
# Si number density = 21.066884 Si / 1000 Ang^3
#
#
#
# Elastic Constant Matrix: (Units=GPa)
#
#
# Indices 1 2 3 4 5 6 
#
# 1 9.0535 7.6142 7.4483 0.0000 0.0000 0.0000
# 2 7.6142 148.9637 25.4602 0.0000 0.0000 0.0000
# 3 7.4483 25.4602 78.2483 0.0000 0.0000 0.0000
# 4 0.0000 0.0000 0.0000 16.1042 0.0000 0.0000
# 5 0.0000 0.0000 0.0000 0.0000 18.4444 0.0000
# 6 0.0000 0.0000 0.0000 0.0000 0.0000 17.7909
#
#
#
# Elastic Compliance Matrix: (Units=1/GPa)
#
#
# Indices 1 2 3 4 5 6 
#
# 1 0.122654 -0.004526 -0.010203 0.000000 0.000000 0.000000
# 2 -0.004526 0.007275 -0.001936 0.000000 0.000000 0.000000
# 3 -0.010203 -0.001936 0.014381 0.000000 0.000000 0.000000
# 4 0.000000 0.000000 0.000000 0.062096 0.000000 0.000000
# 5 0.000000 0.000000 0.000000 0.000000 0.054217 0.000000
# 6 0.000000 0.000000 0.000000 0.000000 0.000000 0.056209
#
#
# Mechanical properties :
#
#
# Convention : Reuss Voigt Hill
#
# Bulk Modulus (GPa) = 9.01055 35.25677 22.13366
# Shear Modulus (GPa) = 12.91474 23.51742 18.21608
#
# Velocity S-wave (km/s) = 2.47864 3.34476 2.94373
# Velocity P-wave (km/s) = 3.53241 5.62926 4.69928
#
# Compressibility (1/GPa) = 0.11098096
#
# Stress axis : x y z
#
# Youngs Moduli (GPa) = 8.15303 137.45068 69.53591
#
# Poissons Ratio (x) = 0.62205 0.70945
# Poissons Ratio (y) = 0.03690 0.13465
# Poissons Ratio (z) = 0.08318 0.26617
#
# Static dielectric constant tensor:
#      x y z
#    x 1.816910 0.000000 0.000000 
#    y 0.000000 1.801460 0.000000 
#    z 0.000000 0.000000 1.757470 
# 
# From -- ./inp_files/28882.got.cif
#   From: 2010.05.17/outbox.cif.g08.bks.cpg/sg20_15_cif.got.tgz:28882.got - 2010.06.03 22:52:26.
