data_PCOD9317716
_publ_section_title
;
Structure prediction by ZEFSAII (Michael W. Deem and Ramdas Pophale) SiO2 
 PCOD9317716
Probable space group: C 2 2 21
;
_chemical_formula_sum "Si O2"
_cell_formula_units_Z 44
_cell_length_a 25.258799
_cell_length_b 11.364201
_cell_length_c 8.300260
_cell_angle_alpha 90.000000
_cell_angle_beta 90.000000
_cell_angle_gamma 90.000000
_cell_volume 2382.557003
_symmetry_space_group_name_H-M "C 2 2 21"
_symmetry_group_IT_number 20
_symmetry_cell_setting 'orthorhombic'
loop_
_space_group_symop_operation_xyz
x,y,z
-x,-y,1/2+z
x,-y,-z
-x,y,1/2-z
1/2+x,1/2+y,z
1/2-x,1/2-y,1/2+z
1/2+x,1/2-y,-z
1/2-x,1/2+y,1/2-z
loop_
_atom_site_type_symbol
_atom_site_label
_atom_site_fract_x
_atom_site_fract_y
_atom_site_fract_z
Si Si1 0.822805 0.500000 0.500000
Si Si2 0.104006 0.710624 0.883745
Si Si3 0.787672 0.323891 0.759438
Si Si4 0.502078 0.864170 0.557448
Si Si5 0.691531 0.637696 0.015820
Si Si6 0.118747 0.642379 0.514453
O O1 0.862065 0.392425 0.466649
O O2 0.791035 0.444950 0.651938
O O3 0.131605 0.831312 0.935756
O O4 0.118463 0.684570 0.698439
O O5 0.044515 0.697372 0.953120
O O6 0.731673 0.317355 0.847505
O O7 0.794997 0.212504 0.643093
O O8 0.833798 0.321456 0.895547
O O9 0.500000 0.864588 0.750000
O O10 0.560563 0.813750 0.533097
O O11 0.500327 0.000000 0.500000
O O12 0.700374 0.500000 0.000000
O O13 0.118585 0.500000 0.500000
#
# Coordination Sequence:
#
# PCOD9317716 Si02
#       6
#     4   8   8   8   8   8
#     4  10  20  34  60  84 118 158 194 248 308 374
#     4  11  21  38  57  88 125 163 203 254 311 373
#     4  11  23  40  63  89 124 159 207 258 321 370
#     4  11  20  32  57  93 128 160 199 262 324 380
#     4  11  26  41  60  88 122 167 203 257 304 380
#     4  11  20  35  61  95 125 159 200 264 323 381
#
# _framework density 18.467552999999999
#
# number of rings (size 3 to 8) (size 9 to 14) (size 15 to 20)
#    0.000    1.091    2.727    6.545    5.091    0.000 
#    0.000    0.000    0.000    6.545    0.000    0.000 
#    0.000    0.000    0.000    0.000    0.000    0.000 
#
# Total GULP energy -122575.167432 kJ/mol
# GULP energy per Si atom -5571.598520 kJ/mol
# Density = 1.842552 g / cm^3
# Si number density = 18.467553 Si / 1000 Ang^3
#
#
#
# Elastic Constant Matrix: (Units=GPa)
#
#
# Indices 1 2 3 4 5 6 
#
# 1 80.6105 -0.5609 11.7681 0.0000 0.0000 0.0000
# 2 -0.5609 51.4852 9.7863 0.0000 0.0000 0.0000
# 3 11.7681 9.7863 80.0853 0.0000 0.0000 0.0000
# 4 0.0000 0.0000 0.0000 23.5063 0.0000 0.0000
# 5 0.0000 0.0000 0.0000 0.0000 28.2603 0.0000
# 6 0.0000 0.0000 0.0000 0.0000 0.0000 1.8537
#
#
#
# Elastic Compliance Matrix: (Units=1/GPa)
#
#
# Indices 1 2 3 4 5 6 
#
# 1 0.012690 0.000504 -0.001926 0.000000 0.000000 0.000000
# 2 0.000504 0.019905 -0.002506 0.000000 0.000000 0.000000
# 3 -0.001926 -0.002506 0.013076 0.000000 0.000000 0.000000
# 4 0.000000 0.000000 0.000000 0.042542 0.000000 0.000000
# 5 0.000000 0.000000 0.000000 0.000000 0.035385 0.000000
# 6 0.000000 0.000000 0.000000 0.000000 0.000000 0.539472
#
#
# Mechanical properties :
#
#
# Convention : Reuss Voigt Hill
#
# Bulk Modulus (GPa) = 26.44508 28.24090 27.34299
# Shear Modulus (GPa) = 7.31495 23.46989 15.39242
#
# Velocity S-wave (km/s) = 1.99238 3.56880 2.89014
# Velocity P-wave (km/s) = 4.43211 5.68393 5.09660
#
# Compressibility (1/GPa) = 0.03781421
#
# Stress axis : x y z
#
# Youngs Moduli (GPa) = 78.80178 50.23866 76.47569
#
# Poissons Ratio (x) = -0.02534 0.14732
# Poissons Ratio (y) = -0.03975 0.19169
# Poissons Ratio (z) = 0.15180 0.12592
#
# Static dielectric constant tensor:
#      x y z
#    x 1.720880 0.000000 0.000000 
#    y 0.000000 1.622730 0.000000 
#    z 0.000000 0.000000 3.186480 
# 
# From -- ./inp_files/10597.got.cif
#   From: 2010.05.17/outbox.cif.g08.bks.cpg/sg20_6_cif.got.tgz:10597.got - 2010.06.03 22:52:26.
