data_PCOD9317086
_publ_section_title
;
Structure prediction by ZEFSAII (Michael W. Deem and Ramdas Pophale) SiO2 
 PCOD9317086
Probable space group: C 2 2 21
;
_chemical_formula_sum "Si O2"
_cell_formula_units_Z 60
_cell_length_a 13.582492
_cell_length_b 15.179164
_cell_length_c 15.589609
_cell_angle_alpha 90.000000
_cell_angle_beta 90.000000
_cell_angle_gamma 90.000000
_cell_volume 3214.123307
_symmetry_space_group_name_H-M "C 2 2 21"
_symmetry_group_IT_number 20
_symmetry_cell_setting 'orthorhombic'
loop_
_space_group_symop_operation_xyz
x,y,z
-x,-y,1/2+z
x,-y,-z
-x,y,1/2-z
1/2+x,1/2+y,z
1/2-x,1/2-y,1/2+z
1/2+x,1/2-y,-z
1/2-x,1/2+y,1/2-z
loop_
_atom_site_type_symbol
_atom_site_label
_atom_site_fract_x
_atom_site_fract_y
_atom_site_fract_z
Si Si1 0.835362 0.257247 0.860514
Si Si2 0.777416 0.344740 0.034538
Si Si3 0.765734 0.299626 0.675643
Si Si4 0.939327 0.103083 0.498245
Si Si5 0.447761 0.601367 0.837150
Si Si6 0.930732 0.500000 0.000000
Si Si7 0.057908 0.890115 0.664219
Si Si8 0.479622 0.112749 0.345785
O O1 0.771964 0.288292 0.778899
O O2 0.847219 0.153205 0.847428
O O3 0.939260 0.309036 0.850665
O O4 0.802807 0.278836 0.956521
O O5 0.753155 0.290170 0.121074
O O6 0.860265 0.421454 0.037561
O O7 0.676336 0.387502 0.001923
O O8 0.668501 0.356493 0.658124
O O9 0.869063 0.346871 0.649284
O O10 0.985944 0.136318 0.585482
O O11 0.993065 0.142085 0.416049
O O12 0.962784 0.000000 0.500000
O O13 0.500000 0.628343 0.750000
O O14 0.438651 0.496584 0.836440
O O15 0.993657 0.545248 0.076914
O O16 0.000000 0.863266 0.750000
O O17 0.500000 0.073621 0.250000
#
# Coordination Sequence:
#
# PCOD9317086 Si02
#       8
#     8   8   8   8   8   4   8   8
#     4  10  20  37  59  86 117 153 199 240 294 360
#     4  11  21  37  63  89 119 157 202 245 298 366
#     4  11  22  39  60  88 118 160 201 244 305 362
#     4  10  19  34  56  84 114 144 190 243 289 346
#     4  10  19  35  57  82 111 147 193 238 290 343
#     4  10  22  42  62  92 120 164 208 250 304 364
#     4  10  22  38  58  85 121 150 188 252 300 341
#     4   9  20  41  62  84 123 162 201 250 298 368
#
# _framework density 18.66761
#
# number of rings (size 3 to 8) (size 9 to 14) (size 15 to 20)
#    0.000    1.867    0.667    4.400    0.000    1.067 
#   15.600    0.667    0.000    0.000    0.000    0.000 
#    0.000    0.000    0.000    0.000    0.000    0.000 
#
# Total GULP energy -167146.915846 kJ/mol
# GULP energy per Si atom -5571.563862 kJ/mol
# Density = 1.862512 g / cm^3
# Si number density = 18.667610 Si / 1000 Ang^3
#
#
#
# Elastic Constant Matrix: (Units=GPa)
#
#
# Indices 1 2 3 4 5 6 
#
# 1 72.8318 6.8333 30.7829 0.0000 0.0000 0.0000
# 2 6.8333 44.7736 35.0332 0.0000 0.0000 0.0000
# 3 30.7829 35.0332 100.8972 0.0000 0.0000 0.0000
# 4 0.0000 0.0000 0.0000 95.9837 0.0000 0.0000
# 5 0.0000 0.0000 0.0000 0.0000 27.8861 0.0000
# 6 0.0000 0.0000 0.0000 0.0000 0.0000 27.8668
#
#
#
# Elastic Compliance Matrix: (Units=1/GPa)
#
#
# Indices 1 2 3 4 5 6 
#
# 1 0.015877 0.001877 -0.005496 0.000000 0.000000 0.000000
# 2 0.001877 0.030888 -0.011297 0.000000 0.000000 0.000000
# 3 -0.005496 -0.011297 0.015510 0.000000 0.000000 0.000000
# 4 0.000000 0.000000 0.000000 0.010418 0.000000 0.000000
# 5 0.000000 0.000000 0.000000 0.000000 0.035860 0.000000
# 6 0.000000 0.000000 0.000000 0.000000 0.000000 0.035885
#
#
# Mechanical properties :
#
#
# Convention : Reuss Voigt Hill
#
# Bulk Modulus (GPa) = 30.82330 40.42236 35.62283
# Shear Modulus (GPa) = 27.01457 40.07086 33.54272
#
# Velocity S-wave (km/s) = 3.80825 4.63811 4.24351
# Velocity P-wave (km/s) = 5.99037 7.09813 6.56765
#
# Compressibility (1/GPa) = 0.03244299
#
# Stress axis : x y z
#
# Youngs Moduli (GPa) = 62.98442 32.37523 64.47286
#
# Poissons Ratio (x) = -0.06077 0.35432
# Poissons Ratio (y) = -0.11822 0.72838
# Poissons Ratio (z) = 0.34614 0.36576
#
# Static dielectric constant tensor:
#      x y z
#    x 1.643820 0.000000 0.000000 
#    y 0.000000 1.657560 0.000000 
#    z 0.000000 0.000000 1.683650 
# 
# From -- ./inp_files/20251.got.cif
#   From: 2010.05.17/outbox.cif.g08.bks.cpg/sg20_11_cif.got.tgz:20251.got - 2010.06.03 22:52:26.
