data_PCOD9317493
_publ_section_title
;
Structure prediction by ZEFSAII (Michael W. Deem and Ramdas Pophale) SiO2 
 PCOD9317493
Probable space group: C 2 2 21
;
_chemical_formula_sum "Si O2"
_cell_formula_units_Z 36
_cell_length_a 4.733342
_cell_length_b 25.333432
_cell_length_c 10.968206
_cell_angle_alpha 90.000000
_cell_angle_beta 90.000000
_cell_angle_gamma 90.000000
_cell_volume 1315.217299
_symmetry_space_group_name_H-M "C 2 2 21"
_symmetry_group_IT_number 20
_symmetry_cell_setting 'orthorhombic'
loop_
_space_group_symop_operation_xyz
x,y,z
-x,-y,1/2+z
x,-y,-z
-x,y,1/2-z
1/2+x,1/2+y,z
1/2-x,1/2-y,1/2+z
1/2+x,1/2-y,-z
1/2-x,1/2+y,1/2-z
loop_
_atom_site_type_symbol
_atom_site_label
_atom_site_fract_x
_atom_site_fract_y
_atom_site_fract_z
Si Si1 0.893802 0.766238 0.581011
Si Si2 0.000000 0.198798 0.750000
Si Si3 0.803328 0.494532 0.868092
Si Si4 0.697544 0.891589 0.368519
Si Si5 0.697203 0.120487 0.368367
O O1 0.698632 0.751973 0.463384
O O2 0.742541 0.733876 0.689198
O O3 0.882809 0.827245 0.620238
O O4 0.094537 0.156860 0.852344
O O5 0.000000 0.494205 0.750000
O O6 0.650182 0.551144 0.867226
O O7 0.655283 0.437425 0.865299
O O8 0.957850 0.500000 0.000000
O O9 0.500000 0.889827 0.250000
O O10 0.544727 0.882864 0.498663
O O11 0.500000 0.124907 0.250000
#
# Coordination Sequence:
#
# PCOD9317493 Si02
#       5
#     8   4   8   8   8
#     4  12  26  44  68 102 143 188 238 290 357 427
#     4  12  24  38  68  98 138 188 236 290 358 436
#     4   8  16  31  62  89 124 173 219 286 342 413
#     4  10  20  39  65  93 132 177 234 287 352 426
#     4  10  19  39  65  96 135 177 228 292 348 416
#
# _framework density 27.371905000000002
#
# number of rings (size 3 to 8) (size 9 to 14) (size 15 to 20)
#    0.000    1.778    3.333    1.333    0.000    0.000 
#    0.000    0.000   14.667   13.333    0.000    0.000 
#    0.000    0.000    0.000    0.000    0.000    0.000 
#
# Total GULP energy -100622.995094 kJ/mol
# GULP energy per Si atom -5590.166394 kJ/mol
# Density = 2.730961 g / cm^3
# Si number density = 27.371905 Si / 1000 Ang^3
#
#
#
# Elastic Constant Matrix: (Units=GPa)
#
#
# Indices 1 2 3 4 5 6 
#
# 1 58.4761 37.6875 34.9001 0.0000 0.0000 0.0000
# 2 37.6875 296.9409 19.7429 0.0000 0.0000 0.0000
# 3 34.9001 19.7429 249.8049 0.0000 0.0000 0.0000
# 4 0.0000 0.0000 0.0000 38.3758 0.0000 0.0000
# 5 0.0000 0.0000 0.0000 0.0000 53.8847 0.0000
# 6 0.0000 0.0000 0.0000 0.0000 0.0000 -16.2562
#
#
#
# Elastic Compliance Matrix: (Units=1/GPa)
#
#
# Indices 1 2 3 4 5 6 
#
# 1 0.020214 -0.002390 -0.002635 0.000000 0.000000 0.000000
# 2 -0.002390 0.003668 0.000044 0.000000 0.000000 0.000000
# 3 -0.002635 0.000044 0.004368 0.000000 0.000000 0.000000
# 4 0.000000 0.000000 0.000000 0.026058 0.000000 0.000000
# 5 0.000000 0.000000 0.000000 0.000000 0.018558 0.000000
# 6 0.000000 0.000000 0.000000 0.000000 0.000000 -0.061515
#
#
# Mechanical properties :
#
#
# Convention : Reuss Voigt Hill
#
# Bulk Modulus (GPa) = 54.68303 87.76478 71.22390
# Shear Modulus (GPa) = 182.41149 49.39360 115.90254
#
# Velocity S-wave (km/s) = 8.17230 4.25259 6.51426
# Velocity P-wave (km/s) = 10.44365 7.49974 9.09165
#
# Compressibility (1/GPa) = 0.01828721
#
# Stress axis : x y z
#
# Youngs Moduli (GPa) = 49.46978 272.61849 228.94786
#
# Poissons Ratio (x) = 0.65166 0.60333
# Poissons Ratio (y) = 0.11825 -0.01009
# Poissons Ratio (z) = 0.13036 -0.01201
#
# Static dielectric constant tensor:
#      x y z
#    x 2.128330 0.000000 0.000000 
#    y 0.000000 2.130640 0.000000 
#    z 0.000000 0.000000 2.278200 
# 
# From -- ./inp_files/12037.got.cif
#   From: 2010.05.17/outbox.cif.g08.bks.cpg/sg20_7_cif.got.tgz:12037.got - 2010.06.03 22:52:26.
