data_PCOD9317694
_publ_section_title
;
Structure prediction by ZEFSAII (Michael W. Deem and Ramdas Pophale) SiO2 
 PCOD9317694
Probable space group: C 2 2 21
;
_chemical_formula_sum "Si O2"
_cell_formula_units_Z 64
_cell_length_a 20.715122
_cell_length_b 8.808593
_cell_length_c 19.525353
_cell_angle_alpha 90.000000
_cell_angle_beta 90.000000
_cell_angle_gamma 90.000000
_cell_volume 3562.812223
_symmetry_space_group_name_H-M "C 2 2 21"
_symmetry_group_IT_number 20
_symmetry_cell_setting 'orthorhombic'
loop_
_space_group_symop_operation_xyz
x,y,z
-x,-y,1/2+z
x,-y,-z
-x,y,1/2-z
1/2+x,1/2+y,z
1/2-x,1/2-y,1/2+z
1/2+x,1/2-y,-z
1/2-x,1/2+y,1/2-z
loop_
_atom_site_type_symbol
_atom_site_label
_atom_site_fract_x
_atom_site_fract_y
_atom_site_fract_z
Si Si1 0.567206 0.320049 0.709755
Si Si2 0.567206 0.679951 0.709755
Si Si3 0.311494 0.180816 0.711826
Si Si4 0.991310 0.319272 0.079187
Si Si5 0.008690 0.319272 0.579187
Si Si6 0.311494 0.819184 0.711826
Si Si7 0.865426 0.818941 0.578944
Si Si8 0.134574 0.818941 0.078944
O O1 0.500000 0.294167 0.750000
O O2 0.580171 0.500000 0.710103
O O3 0.624628 0.233999 0.747657
O O4 0.555510 0.259123 0.633396
O O5 0.500000 0.705833 0.750000
O O6 0.555510 0.740877 0.633396
O O7 0.624628 0.766001 0.747657
O O8 0.250000 0.250000 0.750000
O O9 0.319235 0.245657 0.635119
O O10 0.307577 0.000000 0.710300
O O11 0.993731 0.500000 0.091119
O O12 0.063037 0.250602 0.088388
O O13 0.972801 0.292830 1.000000
O O14 0.936963 0.250602 0.588388
O O15 0.319235 0.754343 0.635119
O O16 0.846283 0.790417 0.500000
O O17 0.869150 0.000000 0.589570
#
# Coordination Sequence:
#
# PCOD9317694 Si02
#       8
#     8   8   8   8   8   8   8   8
#     4  11  22  37  60  88 119 154 196 243 293 348
#     4  11  22  37  60  88 119 154 196 243 293 348
#     4  12  25  41  62  87 121 158 199 246 296 353
#     4  10  20  34  56  88 121 154 196 245 297 350
#     4  10  20  34  56  88 121 154 196 245 297 350
#     4  12  25  41  62  87 121 158 199 246 296 353
#     4  10  20  36  59  87 119 154 195 242 292 349
#     4  10  20  36  59  87 119 154 195 242 292 349
#
# _framework density 17.963338
#
# number of rings (size 3 to 8) (size 9 to 14) (size 15 to 20)
#    0.000    1.250    2.500    4.500    0.000    4.000 
#    0.000    1.250    0.000    7.500    0.000    0.000 
#    0.000    0.000    0.000    0.000    0.000    0.000 
#
# Total GULP energy -178885.822571 kJ/mol
# GULP energy per Si atom -5590.181955 kJ/mol
# Density = 1.792245 g / cm^3
# Si number density = 17.963338 Si / 1000 Ang^3
#
#
#
# Elastic Constant Matrix: (Units=GPa)
#
#
# Indices 1 2 3 4 5 6 
#
# 1 63.0197 49.9081 49.6168 0.0000 0.0000 0.0000
# 2 49.9081 115.1532 71.2542 0.0000 0.0000 0.0000
# 3 49.6168 71.2542 130.9565 0.0000 0.0000 0.0000
# 4 0.0000 0.0000 0.0000 35.5907 0.0000 0.0000
# 5 0.0000 0.0000 0.0000 0.0000 29.5085 0.0000
# 6 0.0000 0.0000 0.0000 0.0000 0.0000 30.9507
#
#
#
# Elastic Compliance Matrix: (Units=1/GPa)
#
#
# Indices 1 2 3 4 5 6 
#
# 1 0.026775 -0.008031 -0.005775 0.000000 0.000000 0.000000
# 2 -0.008031 0.015501 -0.005391 0.000000 0.000000 0.000000
# 3 -0.005775 -0.005391 0.012757 0.000000 0.000000 0.000000
# 4 0.000000 0.000000 0.000000 0.028097 0.000000 0.000000
# 5 0.000000 0.000000 0.000000 0.000000 0.033889 0.000000
# 6 0.000000 0.000000 0.000000 0.000000 0.000000 0.032309
#
#
# Mechanical properties :
#
#
# Convention : Reuss Voigt Hill
#
# Bulk Modulus (GPa) = 60.09986 72.29863 66.19924
# Shear Modulus (GPa) = 25.87072 28.43333 27.15202
#
# Velocity S-wave (km/s) = 3.79911 3.98282 3.89205
# Velocity P-wave (km/s) = 7.26456 7.84129 7.55843
#
# Compressibility (1/GPa) = 0.01663897
#
# Stress axis : x y z
#
# Youngs Moduli (GPa) = 37.34853 64.51272 78.38575
#
# Poissons Ratio (x) = 0.51811 0.45265
# Poissons Ratio (y) = 0.29995 0.42260
# Poissons Ratio (z) = 0.21567 0.34780
#
# Static dielectric constant tensor:
#      x y z
#    x 1.576790 0.000000 0.000000 
#    y 0.000000 1.595580 0.000000 
#    z 0.000000 0.000000 1.630950 
# 
# From -- ./inp_files/25527.got.cif
#   From: 2010.05.17/outbox.cif.g08.bks.cpg/sg20_13_cif.got.tgz:25527.got - 2010.06.03 22:52:26.
