data_PCOD9317537
_publ_section_title
;
Structure prediction by ZEFSAII (Michael W. Deem and Ramdas Pophale) SiO2 
 PCOD9317537
Probable space group: C 2 2 21
;
_chemical_formula_sum "Si O2"
_cell_formula_units_Z 56
_cell_length_a 11.426115
_cell_length_b 10.015909
_cell_length_c 20.821916
_cell_angle_alpha 90.000000
_cell_angle_beta 90.000000
_cell_angle_gamma 90.000000
_cell_volume 2382.921035
_symmetry_space_group_name_H-M "C 2 2 21"
_symmetry_group_IT_number 20
_symmetry_cell_setting 'orthorhombic'
loop_
_space_group_symop_operation_xyz
x,y,z
-x,-y,1/2+z
x,-y,-z
-x,y,1/2-z
1/2+x,1/2+y,z
1/2-x,1/2-y,1/2+z
1/2+x,1/2-y,-z
1/2-x,1/2+y,1/2-z
loop_
_atom_site_type_symbol
_atom_site_label
_atom_site_fract_x
_atom_site_fract_y
_atom_site_fract_z
Si Si1 0.422218 0.269450 0.879596
Si Si2 0.936335 0.584614 0.317121
Si Si3 0.133444 0.114307 0.179734
Si Si4 0.823152 0.163846 0.625157
Si Si5 0.135416 0.731321 0.375816
Si Si6 0.491821 0.341726 0.486822
Si Si7 0.693939 0.493228 0.318243
O O1 0.521297 0.290501 0.825738
O O2 0.317883 0.162789 0.872722
O O3 0.351300 0.409584 0.874328
O O4 0.490369 0.265299 0.946465
O O5 0.864276 0.723032 0.324954
O O6 0.833876 0.477430 0.326175
O O7 0.000000 0.566233 0.250000
O O8 0.041723 0.613038 0.365872
O O9 0.237947 0.174820 0.137979
O O10 0.170842 0.070238 0.251247
O O11 0.114260 0.972358 0.145237
O O12 0.876608 0.195779 0.554985
O O13 0.101864 0.800005 0.442414
O O14 0.129148 0.852097 0.323643
O O15 0.487903 0.500000 0.500000
#
# Coordination Sequence:
#
# PCOD9317537 Si02
#       7
#     8   8   8   8   8   8   8
#     4  11  24  42  66 100 127 174 231 276 331 407
#     4  10  19  41  63  89 127 176 218 266 329 399
#     4  12  24  41  65 100 140 175 218 279 345 402
#     4  10  24  40  69  93 130 174 226 275 338 401
#     4  11  24  40  67  98 132 181 223 273 344 397
#     4  11  21  44  68  90 129 177 229 279 332 406
#     4  11  23  41  66  95 134 173 223 274 334 408
#
# _framework density 23.50057
#
# number of rings (size 3 to 8) (size 9 to 14) (size 15 to 20)
#    0.000    1.143    4.286    2.143    4.000    1.143 
#    0.000    0.000    0.000    0.857    0.000    0.000 
#    0.000    0.000    0.000    0.000    0.000    0.000 
#
# Total GULP energy -156314.833856 kJ/mol
# GULP energy per Si atom -5582.672638 kJ/mol
# Density = 2.344708 g / cm^3
# Si number density = 23.500570 Si / 1000 Ang^3
#
#
#
# Elastic Constant Matrix: (Units=GPa)
#
#
# Indices 1 2 3 4 5 6 
#
# 1 145.0401 33.6547 13.7776 0.0000 0.0000 0.0000
# 2 33.6547 41.3470 14.1987 0.0000 0.0000 0.0000
# 3 13.7776 14.1987 62.2477 0.0000 0.0000 0.0000
# 4 0.0000 0.0000 0.0000 16.9704 0.0000 0.0000
# 5 0.0000 0.0000 0.0000 0.0000 36.3412 0.0000
# 6 0.0000 0.0000 0.0000 0.0000 0.0000 17.3863
#
#
#
# Elastic Compliance Matrix: (Units=1/GPa)
#
#
# Indices 1 2 3 4 5 6 
#
# 1 0.008506 -0.006811 -0.000329 0.000000 0.000000 0.000000
# 2 -0.006811 0.031694 -0.005722 0.000000 0.000000 0.000000
# 3 -0.000329 -0.005722 0.017443 0.000000 0.000000 0.000000
# 4 0.000000 0.000000 0.000000 0.058926 0.000000 0.000000
# 5 0.000000 0.000000 0.000000 0.000000 0.027517 0.000000
# 6 0.000000 0.000000 0.000000 0.000000 0.000000 0.057516
#
#
# Mechanical properties :
#
#
# Convention : Reuss Voigt Hill
#
# Bulk Modulus (GPa) = 31.32881 41.32189 36.32535
# Shear Modulus (GPa) = 21.01137 26.60651 23.80894
#
# Velocity S-wave (km/s) = 2.99336 3.36842 3.18641
# Velocity P-wave (km/s) = 5.03060 5.72275 5.38780
#
# Compressibility (1/GPa) = 0.03191950
#
# Stress axis : x y z
#
# Youngs Moduli (GPa) = 117.56060 31.55158 57.32984
#
# Poissons Ratio (x) = 0.21489 0.01887
# Poissons Ratio (y) = 0.80067 0.32804
# Poissons Ratio (z) = 0.03870 0.18054
#
# Static dielectric constant tensor:
#      x y z
#    x 1.941690 0.000000 0.000000 
#    y 0.000000 1.917510 0.000000 
#    z 0.000000 0.000000 1.913430 
# 
# From -- ./inp_files/27197.got.cif
#   From: 2010.05.17/outbox.cif.g08.bks.cpg/sg20_14_cif.got.tgz:27197.got - 2010.06.03 22:52:26.
