data_PCOD9317232
_publ_section_title
;
Structure prediction by ZEFSAII (Michael W. Deem and Ramdas Pophale) SiO2 
 PCOD9317232
Probable space group: C 2 2 21
;
_chemical_formula_sum "Si O2"
_cell_formula_units_Z 60
_cell_length_a 28.979833
_cell_length_b 8.676369
_cell_length_c 13.088041
_cell_angle_alpha 90.000000
_cell_angle_beta 90.000000
_cell_angle_gamma 90.000000
_cell_volume 3290.853425
_symmetry_space_group_name_H-M "C 2 2 21"
_symmetry_group_IT_number 20
_symmetry_cell_setting 'orthorhombic'
loop_
_space_group_symop_operation_xyz
x,y,z
-x,-y,1/2+z
x,-y,-z
-x,y,1/2-z
1/2+x,1/2+y,z
1/2-x,1/2-y,1/2+z
1/2+x,1/2-y,-z
1/2-x,1/2+y,1/2-z
loop_
_atom_site_type_symbol
_atom_site_label
_atom_site_fract_x
_atom_site_fract_y
_atom_site_fract_z
Si Si1 0.793237 0.058610 0.706082
Si Si2 0.648622 0.500000 0.000000
Si Si3 0.143577 0.322318 0.731141
Si Si4 0.527536 0.602375 0.900722
Si Si5 0.695516 0.934141 0.392445
Si Si6 0.657921 0.597760 0.396220
Si Si7 0.401691 0.167804 0.447556
Si Si8 0.073559 0.058309 0.687835
O O1 0.810906 0.227539 0.737836
O O2 0.739499 0.065778 0.681956
O O3 0.821113 0.003972 0.604361
O O4 0.809655 0.959323 0.802987
O O5 0.622298 0.328912 0.006712
O O6 0.156940 0.458990 0.657947
O O7 0.121263 0.364968 0.838397
O O8 0.107943 0.203245 0.679955
O O9 0.546334 0.772095 0.926639
O O10 0.559690 0.541501 0.807231
O O11 0.474590 0.590660 0.867074
O O12 0.533356 0.500000 0.000000
O O13 0.673290 0.770298 0.414708
O O14 0.712170 0.000000 0.500000
O O15 0.663807 0.500000 0.500000
O O16 0.604936 0.577477 0.357873
O O17 0.399734 0.000000 0.500000
#
# Coordination Sequence:
#
# PCOD9317232 Si02
#       8
#     8   4   8   8   8   8   8   8
#     4  10  21  41  61  85 119 161 209 252 312 368
#     4  10  20  40  64  88 126 166 192 262 322 360
#     4   9  21  39  57  85 122 162 199 252 318 363
#     4  10  19  35  64  89 118 158 205 255 312 368
#     4  12  23  38  60  88 122 160 208 263 305 366
#     4  11  24  40  62  86 121 167 208 245 309 386
#     4  10  21  36  62  95 124 154 206 258 318 374
#     4   9  20  40  59  84 121 164 198 250 307 372
#
# _framework density 18.232353
#
# number of rings (size 3 to 8) (size 9 to 14) (size 15 to 20)
#    0.000    1.867    1.333    3.600    1.867    0.000 
#    0.000    6.667    0.000    3.200    0.000    0.000 
#    0.000    0.000    0.000    0.000    0.000    0.000 
#
# Total GULP energy -167123.830807 kJ/mol
# GULP energy per Si atom -5570.794360 kJ/mol
# Density = 1.819085 g / cm^3
# Si number density = 18.232353 Si / 1000 Ang^3
#
#
#
# Elastic Constant Matrix: (Units=GPa)
#
#
# Indices 1 2 3 4 5 6 
#
# 1 102.9982 42.0540 24.3931 0.0000 0.0000 0.0000
# 2 42.0540 84.1689 47.6315 0.0000 0.0000 0.0000
# 3 24.3931 47.6315 88.9618 0.0000 0.0000 0.0000
# 4 0.0000 0.0000 0.0000 28.3084 0.0000 0.0000
# 5 0.0000 0.0000 0.0000 0.0000 -5.5963 0.0000
# 6 0.0000 0.0000 0.0000 0.0000 0.0000 -0.5299
#
#
#
# Elastic Compliance Matrix: (Units=1/GPa)
#
#
# Indices 1 2 3 4 5 6 
#
# 1 0.012198 -0.006028 -0.000117 0.000000 0.000000 0.000000
# 2 -0.006028 0.020025 -0.009069 0.000000 0.000000 0.000000
# 3 -0.000117 -0.009069 0.016128 0.000000 0.000000 0.000000
# 4 0.000000 0.000000 0.000000 0.035325 0.000000 0.000000
# 5 0.000000 0.000000 0.000000 0.000000 -0.178689 0.000000
# 6 0.000000 0.000000 0.000000 0.000000 0.000000 -1.887218
#
#
# Mechanical properties :
#
#
# Convention : Reuss Voigt Hill
#
# Bulk Modulus (GPa) = 55.79362 56.03177 55.91269
# Shear Modulus (GPa) = -2.56960 15.23981 6.33510
#
# Velocity S-wave (km/s) = -1.18845 2.89427 1.86606
# Velocity P-wave (km/s) = 5.36513 6.47826 5.94779
#
# Compressibility (1/GPa) = 0.01792320
#
# Stress axis : x y z
#
# Youngs Moduli (GPa) = 81.98072 49.93795 62.00270
#
# Poissons Ratio (x) = 0.30105 0.00725
# Poissons Ratio (y) = 0.49421 0.56228
# Poissons Ratio (z) = 0.00959 0.45287
#
# Static dielectric constant tensor:
#      x y z
#    x 1.650510 0.000000 0.000000 
#    y 0.000000 1.640910 0.000000 
#    z 0.000000 0.000000 1.663130 
# 
# From -- ./inp_files/17064.got.cif
#   From: 2010.05.17/outbox.cif.g08.bks.cpg/sg20_9_cif.got.tgz:17064.got - 2010.06.03 22:52:26.
