data_PCOD9317763
_publ_section_title
;
Structure prediction by ZEFSAII (Michael W. Deem and Ramdas Pophale) SiO2 
 PCOD9317763
Probable space group: C 2 2 21
;
_chemical_formula_sum "Si O2"
_cell_formula_units_Z 56
_cell_length_a 10.497301
_cell_length_b 19.176584
_cell_length_c 12.165734
_cell_angle_alpha 90.000000
_cell_angle_beta 90.000000
_cell_angle_gamma 90.000000
_cell_volume 2448.991141
_symmetry_space_group_name_H-M "C 2 2 21"
_symmetry_group_IT_number 20
_symmetry_cell_setting 'orthorhombic'
loop_
_space_group_symop_operation_xyz
x,y,z
-x,-y,1/2+z
x,-y,-z
-x,y,1/2-z
1/2+x,1/2+y,z
1/2-x,1/2-y,1/2+z
1/2+x,1/2-y,-z
1/2-x,1/2+y,1/2-z
loop_
_atom_site_type_symbol
_atom_site_label
_atom_site_fract_x
_atom_site_fract_y
_atom_site_fract_z
Si Si1 0.088323 0.450093 0.346309
Si Si2 0.202472 0.825393 0.799256
Si Si3 0.185601 0.819317 0.369942
Si Si4 0.062164 0.397089 0.584527
Si Si5 0.428850 0.673567 0.513102
Si Si6 0.188146 0.316295 0.922710
Si Si7 0.378197 0.564297 0.693739
O O1 0.087284 0.401380 0.453721
O O2 0.029493 0.524681 0.378528
O O3 0.235845 0.465968 0.314648
O O4 0.000000 0.419877 0.250000
O O5 0.249748 0.745982 0.813357
O O6 0.311141 0.872133 0.855568
O O7 0.209097 0.835944 0.669332
O O8 0.084647 0.833620 0.882092
O O9 0.280217 0.850977 0.460139
O O10 0.140418 0.871800 0.278057
O O11 0.064033 0.798759 0.443723
O O12 0.946998 0.346363 0.614272
O O13 0.328556 0.733516 0.552254
O O14 0.408543 0.600076 0.575970
O O15 0.500000 0.525115 0.750000
#
# Coordination Sequence:
#
# PCOD9317763 Si02
#       7
#     8   8   8   8   8   8   8
#     4  11  23  41  64  91 123 165 218 263 307 370
#     4  11  20  35  58  85 123 158 200 249 317 379
#     4  10  21  35  57  88 122 155 200 256 317 384
#     4  11  23  38  63  89 123 162 214 254 311 372
#     4  10  20  35  57  87 117 161 201 249 320 384
#     4  11  21  35  56  88 124 162 201 255 319 372
#     4  10  20  39  63  87 119 159 204 257 311 375
#
# _framework density 22.866558000000001
#
# number of rings (size 3 to 8) (size 9 to 14) (size 15 to 20)
#    0.000    1.429    4.286    2.143    0.000    0.571 
#    0.000    0.000    6.286    1.714    0.000    0.000 
#    0.000    0.000    0.000    0.000    0.000    0.000 
#
# Total GULP energy -156322.742172 kJ/mol
# GULP energy per Si atom -5582.955078 kJ/mol
# Density = 2.281451 g / cm^3
# Si number density = 22.866558 Si / 1000 Ang^3
#
#
#
# Elastic Constant Matrix: (Units=GPa)
#
#
# Indices 1 2 3 4 5 6 
#
# 1 79.6824 -3.3020 4.1946 0.0000 0.0000 0.0000
# 2 -3.3020 28.7839 7.6204 0.0000 0.0000 0.0000
# 3 4.1946 7.6204 84.8915 0.0000 0.0000 0.0000
# 4 0.0000 0.0000 0.0000 12.5788 0.0000 0.0000
# 5 0.0000 0.0000 0.0000 0.0000 36.0866 0.0000
# 6 0.0000 0.0000 0.0000 0.0000 0.0000 16.4593
#
#
#
# Elastic Compliance Matrix: (Units=1/GPa)
#
#
# Indices 1 2 3 4 5 6 
#
# 1 0.012659 0.001657 -0.000774 0.000000 0.000000 0.000000
# 2 0.001657 0.035804 -0.003296 0.000000 0.000000 0.000000
# 3 -0.000774 -0.003296 0.012114 0.000000 0.000000 0.000000
# 4 0.000000 0.000000 0.000000 0.079499 0.000000 0.000000
# 5 0.000000 0.000000 0.000000 0.000000 0.027711 0.000000
# 6 0.000000 0.000000 0.000000 0.000000 0.000000 0.060756
#
#
# Mechanical properties :
#
#
# Convention : Reuss Voigt Hill
#
# Bulk Modulus (GPa) = 17.93676 23.37599 20.65638
# Shear Modulus (GPa) = 19.84497 25.34792 22.59644
#
# Velocity S-wave (km/s) = 2.94914 3.33305 3.14696
# Velocity P-wave (km/s) = 4.41109 5.00572 4.71778
#
# Compressibility (1/GPa) = 0.05575142
#
# Stress axis : x y z
#
# Youngs Moduli (GPa) = 78.99358 27.92962 82.55001
#
# Poissons Ratio (x) = -0.04629 0.06392
# Poissons Ratio (y) = -0.13091 0.27208
# Poissons Ratio (z) = 0.06116 0.09205
#
# Static dielectric constant tensor:
#      x y z
#    x 1.952600 0.000000 0.000000 
#    y 0.000000 1.828400 0.000000 
#    z 0.000000 0.000000 1.912140 
# 
# From -- ./inp_files/14333.got.cif
#   From: 2010.05.17/outbox.cif.g08.bks.cpg/sg20_8_cif.got.tgz:14333.got - 2010.06.03 22:52:26.
