data_PCOD9317542
_publ_section_title
;
Structure prediction by ZEFSAII (Michael W. Deem and Ramdas Pophale) SiO2 
 PCOD9317542
Probable space group: C 2 2 21
;
_chemical_formula_sum "Si O2"
_cell_formula_units_Z 48
_cell_length_a 9.189286
_cell_length_b 17.215969
_cell_length_c 14.390360
_cell_angle_alpha 90.000000
_cell_angle_beta 90.000000
_cell_angle_gamma 90.000000
_cell_volume 2276.590394
_symmetry_space_group_name_H-M "C 2 2 21"
_symmetry_group_IT_number 20
_symmetry_cell_setting 'orthorhombic'
loop_
_space_group_symop_operation_xyz
x,y,z
-x,-y,1/2+z
x,-y,-z
-x,y,1/2-z
1/2+x,1/2+y,z
1/2-x,1/2-y,1/2+z
1/2+x,1/2-y,-z
1/2-x,1/2+y,1/2-z
loop_
_atom_site_type_symbol
_atom_site_label
_atom_site_fract_x
_atom_site_fract_y
_atom_site_fract_z
Si Si1 0.170176 0.493809 0.727785
Si Si2 0.232237 0.203585 0.611513
Si Si3 0.337345 0.343692 0.296457
Si Si4 0.923393 0.912810 0.651412
Si Si5 0.657864 0.523469 0.601761
Si Si6 0.451661 0.714899 0.508295
O O1 0.234108 0.579756 0.701750
O O2 0.251231 0.430473 0.662750
O O3 0.243753 0.477624 0.826763
O O4 0.000000 0.493539 0.750000
O O5 0.232507 0.217886 0.722360
O O6 0.191165 0.113349 0.608419
O O7 0.376552 0.220598 0.555187
O O8 0.103129 0.242712 0.552825
O O9 0.500000 0.357357 0.250000
O O10 0.361788 0.311596 0.400026
O O11 0.961546 0.856360 0.565807
O O12 0.000000 0.889091 0.750000
O O13 0.995742 0.996161 0.626216
O O14 0.694378 0.500000 0.500000
#
# Coordination Sequence:
#
# PCOD9317542 Si02
#       6
#     8   8   8   8   8   8
#     4  10  21  37  57  94 129 158 205 275 322 356
#     4  10  22  39  61  91 123 160 210 260 317 377
#     4   9  20  40  63  82 120 174 217 244 307 405
#     4  10  21  39  66  92 120 167 220 255 303 389
#     4  10  19  41  67  85 120 173 218 247 302 395
#     4  11  22  39  62  93 123 164 208 262 322 373
#
# _framework density 21.084161999999999
#
# number of rings (size 3 to 8) (size 9 to 14) (size 15 to 20)
#    0.000    2.000    1.667    3.500    0.000    4.000 
#    6.000    1.667    0.000    0.000    0.000    0.000 
#    0.000    0.000    0.000    0.000    0.000    0.000 
#
# Total GULP energy -133626.559522 kJ/mol
# GULP energy per Si atom -5567.773313 kJ/mol
# Density = 2.103617 g / cm^3
# Si number density = 21.084162 Si / 1000 Ang^3
#
#
#
# Elastic Constant Matrix: (Units=GPa)
#
#
# Indices 1 2 3 4 5 6 
#
# 1 73.9972 6.1185 -11.8748 0.0000 0.0000 0.0000
# 2 6.1185 31.1314 20.0688 0.0000 0.0000 0.0000
# 3 -11.8748 20.0688 111.1393 0.0000 0.0000 0.0000
# 4 0.0000 0.0000 0.0000 25.9043 0.0000 0.0000
# 5 0.0000 0.0000 0.0000 0.0000 24.1269 0.0000
# 6 0.0000 0.0000 0.0000 0.0000 0.0000 13.8549
#
#
#
# Elastic Compliance Matrix: (Units=1/GPa)
#
#
# Indices 1 2 3 4 5 6 
#
# 1 0.014236 -0.004276 0.002293 0.000000 0.000000 0.000000
# 2 -0.004276 0.037638 -0.007253 0.000000 0.000000 0.000000
# 3 0.002293 -0.007253 0.010552 0.000000 0.000000 0.000000
# 4 0.000000 0.000000 0.000000 0.038604 0.000000 0.000000
# 5 0.000000 0.000000 0.000000 0.000000 0.041448 0.000000
# 6 0.000000 0.000000 0.000000 0.000000 0.000000 0.072176
#
#
# Mechanical properties :
#
#
# Convention : Reuss Voigt Hill
#
# Bulk Modulus (GPa) = 22.75122 27.21032 24.98077
# Shear Modulus (GPa) = 20.17940 26.24093 23.21016
#
# Velocity S-wave (km/s) = 3.09704 3.53169 3.32148
# Velocity P-wave (km/s) = 4.85829 5.43728 5.15592
#
# Compressibility (1/GPa) = 0.04395369
#
# Stress axis : x y z
#
# Youngs Moduli (GPa) = 70.24645 26.56883 94.76444
#
# Poissons Ratio (x) = 0.11361 -0.21731
# Poissons Ratio (y) = 0.30038 0.68736
# Poissons Ratio (z) = -0.16109 0.19271
#
# Static dielectric constant tensor:
#      x y z
#    x 1.824280 0.000000 0.000000 
#    y 0.000000 1.805490 0.000000 
#    z 0.000000 0.000000 1.827650 
# 
# From -- ./inp_files/19025.got.cif
#   From: 2010.05.17/outbox.cif.g08.bks.cpg/sg20_10_cif.got.tgz:19025.got - 2010.06.03 22:52:26.
