data_PCOD9317263
_publ_section_title
;
Structure prediction by ZEFSAII (Michael W. Deem and Ramdas Pophale) SiO2 
 PCOD9317263
Probable space group: C 2 2 21
;
_chemical_formula_sum "Si O2"
_cell_formula_units_Z 64
_cell_length_a 22.073437
_cell_length_b 6.234212
_cell_length_c 23.607682
_cell_angle_alpha 90.000000
_cell_angle_beta 90.000000
_cell_angle_gamma 90.000000
_cell_volume 3248.664589
_symmetry_space_group_name_H-M "C 2 2 21"
_symmetry_group_IT_number 20
_symmetry_cell_setting 'orthorhombic'
loop_
_space_group_symop_operation_xyz
x,y,z
-x,-y,1/2+z
x,-y,-z
-x,y,1/2-z
1/2+x,1/2+y,z
1/2-x,1/2-y,1/2+z
1/2+x,1/2-y,-z
1/2-x,1/2+y,1/2-z
loop_
_atom_site_type_symbol
_atom_site_label
_atom_site_fract_x
_atom_site_fract_y
_atom_site_fract_z
Si Si1 0.908752 0.499083 0.231983
Si Si2 0.745348 0.000021 0.173993
Si Si3 0.375559 0.743492 0.663024
Si Si4 0.473284 0.256921 0.858934
Si Si5 0.065273 0.617348 0.443387
Si Si6 0.951165 0.066658 0.563504
Si Si7 0.679976 0.644620 0.222689
Si Si8 0.627003 0.626661 0.642956
O O1 0.914300 0.602087 0.295051
O O2 0.963671 0.375879 0.200116
O O3 0.856608 0.320629 0.241075
O O4 0.883725 0.694414 0.192320
O O5 0.713629 0.769131 0.172745
O O6 0.808843 0.990262 0.142817
O O7 0.692660 0.163991 0.158394
O O8 0.768785 0.038467 0.238317
O O9 0.405407 0.703876 0.602390
O O10 0.366965 0.523438 0.697557
O O11 0.528807 0.373885 0.892757
O O12 0.426098 0.452551 0.852017
O O13 0.453532 0.072669 0.901800
O O14 0.082070 0.500000 0.500000
O O15 0.118836 0.748578 0.415243
O O16 0.009640 0.783576 0.448923
O O17 0.929855 0.000000 0.500000
#
# Coordination Sequence:
#
# PCOD9317263 Si02
#       8
#     8   8   8   8   8   8   8   8
#     4  10  19  36  57  95 131 159 210 263 335 403
#     4  11  19  34  59  91 128 170 206 250 330 407
#     4  11  24  36  61  95 129 176 221 266 334 408
#     4  10  20  38  66  90 124 163 204 273 335 377
#     4  10  21  40  67  92 111 162 223 271 330 386
#     4  11  24  45  64  90 126 176 234 273 319 402
#     4  11  19  34  59  86 127 172 206 255 324 407
#     4  10  20  34  62  96 129 161 202 270 326 396
#
# _framework density 19.700402
#
# number of rings (size 3 to 8) (size 9 to 14) (size 15 to 20)
#    0.000    1.500    5.000    0.750    0.000    2.000 
#    0.000   15.000    0.000    4.500    0.000    0.000 
#    0.000    0.000    0.000    0.000    0.000    0.000 
#
# Total GULP energy -178248.442076 kJ/mol
# GULP energy per Si atom -5570.263815 kJ/mol
# Density = 1.965556 g / cm^3
# Si number density = 19.700402 Si / 1000 Ang^3
#
#
#
# Elastic Constant Matrix: (Units=GPa)
#
#
# Indices 1 2 3 4 5 6 
#
# 1 48.7618 9.9390 49.7174 0.0000 0.0000 0.0000
# 2 9.9390 70.9116 32.1756 0.0000 0.0000 0.0000
# 3 49.7174 32.1756 135.3458 0.0000 0.0000 0.0000
# 4 0.0000 0.0000 0.0000 38.6029 0.0000 0.0000
# 5 0.0000 0.0000 0.0000 0.0000 16.5083 0.0000
# 6 0.0000 0.0000 0.0000 0.0000 0.0000 10.6143
#
#
#
# Elastic Compliance Matrix: (Units=1/GPa)
#
#
# Indices 1 2 3 4 5 6 
#
# 1 0.032848 0.000976 -0.012298 0.000000 0.000000 0.000000
# 2 0.000976 0.015836 -0.004123 0.000000 0.000000 0.000000
# 3 -0.012298 -0.004123 0.012886 0.000000 0.000000 0.000000
# 4 0.000000 0.000000 0.000000 0.025905 0.000000 0.000000
# 5 0.000000 0.000000 0.000000 0.000000 0.060576 0.000000
# 6 0.000000 0.000000 0.000000 0.000000 0.000000 0.094212
#
#
# Mechanical properties :
#
#
# Convention : Reuss Voigt Hill
#
# Bulk Modulus (GPa) = 32.59467 48.74259 40.66863
# Shear Modulus (GPa) = 17.64409 24.02426 20.83418
#
# Velocity S-wave (km/s) = 2.99594 3.49590 3.25553
# Velocity P-wave (km/s) = 5.34309 6.41020 5.90082
#
# Compressibility (1/GPa) = 0.03067987
#
# Stress axis : x y z
#
# Youngs Moduli (GPa) = 30.44294 63.14664 77.60115
#
# Poissons Ratio (x) = -0.06165 0.95438
# Poissons Ratio (y) = -0.02972 0.31998
# Poissons Ratio (z) = 0.37440 0.26038
#
# Static dielectric constant tensor:
#      x y z
#    x 1.692680 0.000000 0.000000 
#    y 0.000000 1.728370 0.000000 
#    z 0.000000 0.000000 1.935020 
# 
# From -- ./inp_files/29612.got.cif
#   From: 2010.05.17/outbox.cif.g08.bks.cpg/sg20_15_cif.got.tgz:29612.got - 2010.06.03 22:52:26.
