data_PCOD9317860
_publ_section_title
;
Structure prediction by ZEFSAII (Michael W. Deem and Ramdas Pophale) SiO2 
 PCOD9317860
Probable space group: C 2 2 21
;
_chemical_formula_sum "Si O2"
_cell_formula_units_Z 48
_cell_length_a 8.492281
_cell_length_b 33.245378
_cell_length_c 9.169216
_cell_angle_alpha 90.000000
_cell_angle_beta 90.000000
_cell_angle_gamma 90.000000
_cell_volume 2588.736427
_symmetry_space_group_name_H-M "C 2 2 21"
_symmetry_group_IT_number 20
_symmetry_cell_setting 'orthorhombic'
loop_
_space_group_symop_operation_xyz
x,y,z
-x,-y,1/2+z
x,-y,-z
-x,y,1/2-z
1/2+x,1/2+y,z
1/2-x,1/2-y,1/2+z
1/2+x,1/2-y,-z
1/2-x,1/2+y,1/2-z
loop_
_atom_site_type_symbol
_atom_site_label
_atom_site_fract_x
_atom_site_fract_y
_atom_site_fract_z
Si Si1 0.061194 0.293941 0.089163
Si Si2 0.347240 0.881791 0.435982
Si Si3 0.555550 0.958960 0.414672
Si Si4 0.156094 0.909521 0.156965
Si Si5 0.522660 0.357319 0.577981
Si Si6 0.431029 0.277145 0.088830
O O1 0.049113 0.341530 0.060308
O O2 0.244691 0.282857 0.089612
O O3 0.000000 0.284860 0.250000
O O4 0.976296 0.266462 0.970648
O O5 0.449135 0.921353 0.469699
O O6 0.269972 0.887040 0.274082
O O7 0.197050 0.873945 0.538627
O O8 0.500000 0.965768 0.250000
O O9 0.737101 0.945085 0.406319
O O10 0.533561 0.000000 0.500000
O O11 0.000000 0.921318 0.250000
O O12 0.096849 0.882295 0.023855
O O13 0.500000 0.360317 0.750000
O O14 0.508176 0.311517 0.521364
O O15 0.500000 0.284165 0.250000
#
# Coordination Sequence:
#
# PCOD9317860 Si02
#       6
#     8   8   8   8   8   8
#     4  11  21  37  58  82 111 147 195 239 279 333
#     4   9  20  39  60  83 110 150 189 230 285 337
#     4  10  21  38  60  86 115 147 187 234 284 339
#     4   9  18  37  61  82 112 151 187 225 284 344
#     4  10  20  36  58  85 115 149 191 234 276 331
#     4  11  23  37  55  82 116 154 190 234 287 336
#
# _framework density 18.541864
#
# number of rings (size 3 to 8) (size 9 to 14) (size 15 to 20)
#    0.000    2.000    0.000    5.500    0.000    4.000 
#    0.000    9.167    0.000    0.000    0.000    1.167 
#    0.000    0.000    0.000    0.000    0.000    0.000 
#
# Total GULP energy -133990.386729 kJ/mol
# GULP energy per Si atom -5582.932780 kJ/mol
# Density = 1.849966 g / cm^3
# Si number density = 18.541864 Si / 1000 Ang^3
#
#
#
# Elastic Constant Matrix: (Units=GPa)
#
#
# Indices 1 2 3 4 5 6 
#
# 1 63.5444 63.8394 27.7126 0.0000 0.0000 0.0000
# 2 63.8394 145.1318 56.4589 0.0000 0.0000 0.0000
# 3 27.7126 56.4589 107.9676 0.0000 0.0000 0.0000
# 4 0.0000 0.0000 0.0000 22.4039 0.0000 0.0000
# 5 0.0000 0.0000 0.0000 0.0000 20.4574 0.0000
# 6 0.0000 0.0000 0.0000 0.0000 0.0000 27.2403
#
#
#
# Elastic Compliance Matrix: (Units=1/GPa)
#
#
# Indices 1 2 3 4 5 6 
#
# 1 0.028275 -0.012069 -0.000946 0.000000 0.000000 0.000000
# 2 -0.012069 0.013802 -0.004119 0.000000 0.000000 0.000000
# 3 -0.000946 -0.004119 0.011659 0.000000 0.000000 0.000000
# 4 0.000000 0.000000 0.000000 0.044635 0.000000 0.000000
# 5 0.000000 0.000000 0.000000 0.000000 0.048882 0.000000
# 6 0.000000 0.000000 0.000000 0.000000 0.000000 0.036710
#
#
# Mechanical properties :
#
#
# Convention : Reuss Voigt Hill
#
# Bulk Modulus (GPa) = 51.37145 68.07396 59.72271
# Shear Modulus (GPa) = 22.24974 25.26250 23.75612
#
# Velocity S-wave (km/s) = 3.46782 3.69515 3.58329
# Velocity P-wave (km/s) = 6.61817 7.41612 7.02848
#
# Compressibility (1/GPa) = 0.01946606
#
# Stress axis : x y z
#
# Youngs Moduli (GPa) = 35.36694 72.45456 85.77056
#
# Poissons Ratio (x) = 0.87448 0.08115
# Poissons Ratio (y) = 0.42685 0.35332
# Poissons Ratio (z) = 0.03346 0.29847
#
# Static dielectric constant tensor:
#      x y z
#    x 1.665340 0.000000 0.000000 
#    y 0.000000 1.645210 0.000000 
#    z 0.000000 0.000000 1.615650 
# 
# From -- ./inp_files/6444.got.cif
#   From: 2010.05.17/outbox.cif.g08.bks.cpg/sg20_4_cif.got.tgz:6444.got - 2010.06.03 22:52:26.
