data_PCOD9317035
_publ_section_title
;
Structure prediction by ZEFSAII (Michael W. Deem and Ramdas Pophale) SiO2 
 PCOD9317035
Probable space group: C 2 2 21
;
_chemical_formula_sum "Si O2"
_cell_formula_units_Z 60
_cell_length_a 7.628674
_cell_length_b 15.132576
_cell_length_c 24.036429
_cell_angle_alpha 90.000000
_cell_angle_beta 90.000000
_cell_angle_gamma 90.000000
_cell_volume 2774.801156
_symmetry_space_group_name_H-M "C 2 2 21"
_symmetry_group_IT_number 20
_symmetry_cell_setting 'orthorhombic'
loop_
_space_group_symop_operation_xyz
x,y,z
-x,-y,1/2+z
x,-y,-z
-x,y,1/2-z
1/2+x,1/2+y,z
1/2-x,1/2-y,1/2+z
1/2+x,1/2-y,-z
1/2-x,1/2+y,1/2-z
loop_
_atom_site_type_symbol
_atom_site_label
_atom_site_fract_x
_atom_site_fract_y
_atom_site_fract_z
Si Si1 0.050869 0.686501 0.020219
Si Si2 0.846827 0.725982 0.913128
Si Si3 0.874047 0.461261 0.116979
Si Si4 0.299822 0.721453 0.771498
Si Si5 0.629648 0.845378 0.630676
Si Si6 0.845520 0.529906 0.707512
Si Si7 0.724873 0.647111 0.322859
Si Si8 0.967116 0.500000 0.500000
O O1 0.893018 0.676483 0.065310
O O2 0.181042 0.753622 0.048425
O O3 0.998222 0.711169 0.958026
O O4 0.134703 0.588051 0.017035
O O5 0.799077 0.637527 0.878030
O O6 0.880625 0.809140 0.873250
O O7 0.793068 0.554853 0.137046
O O8 0.058282 0.454582 0.149005
O O9 0.911972 0.474522 0.051945
O O10 0.500000 0.717875 0.750000
O O11 0.288828 0.768950 0.831631
O O12 0.226383 0.622947 0.771917
O O13 0.206515 0.786560 0.728325
O O14 0.428062 0.851479 0.654456
O O15 0.704463 0.452756 0.698084
O O16 0.000000 0.499619 0.750000
#
# Coordination Sequence:
#
# PCOD9317035 Si02
#       8
#     8   8   8   8   8   8   8   4
#     4   9  18  32  54  78 105 142 184 223 267 316
#     4  10  19  33  56  82 109 140 181 228 268 315
#     4   9  17  32  55  82 105 137 184 224 258 315
#     4  10  20  36  58  82 110 140 175 225 278 318
#     4   8  16  32  54  78 103 139 179 214 262 326
#     4  11  21  35  58  82 104 142 188 221 258 323
#     4   9  18  34  55  78 106 142 181 216 260 322
#     4   8  16  32  54  74 100 144 188 218 250 318
#
# _framework density 21.623170999999999
#
# number of rings (size 3 to 8) (size 9 to 14) (size 15 to 20)
#    0.000    2.667    0.000    3.600    0.000    2.133 
#    0.000    2.000    0.000   43.200    0.000    0.000 
#    0.000    0.000    0.000    0.000    0.000    0.000 
#
# Total GULP energy -167197.483453 kJ/mol
# GULP energy per Si atom -5573.249448 kJ/mol
# Density = 2.157396 g / cm^3
# Si number density = 21.623171 Si / 1000 Ang^3
#
#
#
# Elastic Constant Matrix: (Units=GPa)
#
#
# Indices 1 2 3 4 5 6 
#
# 1 18.9193 24.8867 7.2110 0.0000 0.0000 0.0000
# 2 24.8867 172.8310 45.6854 0.0000 0.0000 0.0000
# 3 7.2110 45.6854 108.0233 0.0000 0.0000 0.0000
# 4 0.0000 0.0000 0.0000 40.8103 0.0000 0.0000
# 5 0.0000 0.0000 0.0000 0.0000 15.9747 0.0000
# 6 0.0000 0.0000 0.0000 0.0000 0.0000 20.8730
#
#
#
# Elastic Compliance Matrix: (Units=1/GPa)
#
#
# Indices 1 2 3 4 5 6 
#
# 1 0.065225 -0.009278 -0.000430 0.000000 0.000000 0.000000
# 2 -0.009278 0.007834 -0.002694 0.000000 0.000000 0.000000
# 3 -0.000430 -0.002694 0.010425 0.000000 0.000000 0.000000
# 4 0.000000 0.000000 0.000000 0.024504 0.000000 0.000000
# 5 0.000000 0.000000 0.000000 0.000000 0.062599 0.000000
# 6 0.000000 0.000000 0.000000 0.000000 0.000000 0.047909
#
#
# Mechanical properties :
#
#
# Convention : Reuss Voigt Hill
#
# Bulk Modulus (GPa) = 17.04165 50.59331 33.81748
# Shear Modulus (GPa) = 19.02156 30.33099 24.67628
#
# Velocity S-wave (km/s) = 2.96916 3.74934 3.38182
# Velocity P-wave (km/s) = 4.43316 6.49553 5.56079
#
# Compressibility (1/GPa) = 0.05867975
#
# Stress axis : x y z
#
# Youngs Moduli (GPa) = 15.33160 127.64697 95.92097
#
# Poissons Ratio (x) = 1.18435 0.04125
# Poissons Ratio (y) = 0.14225 0.25840
# Poissons Ratio (z) = 0.00659 0.34386
#
# Static dielectric constant tensor:
#      x y z
#    x 1.807340 0.000000 0.000000 
#    y 0.000000 1.854670 0.000000 
#    z 0.000000 0.000000 1.815470 
# 
# From -- ./inp_files/30185.got.cif
#   From: 2010.05.17/outbox.cif.g08.bks.cpg/sg20_16_cif.got.tgz:30185.got - 2010.06.03 22:52:26.
