data_PCOD9317198
_publ_section_title
;
Structure prediction by ZEFSAII (Michael W. Deem and Ramdas Pophale) SiO2 
 PCOD9317198
Probable space group: C 2 2 21
;
_chemical_formula_sum "Si O2"
_cell_formula_units_Z 64
_cell_length_a 15.501640
_cell_length_b 12.817764
_cell_length_c 16.991181
_cell_angle_alpha 90.000000
_cell_angle_beta 90.000000
_cell_angle_gamma 90.000000
_cell_volume 3376.085870
_symmetry_space_group_name_H-M "C 2 2 21"
_symmetry_group_IT_number 20
_symmetry_cell_setting 'orthorhombic'
loop_
_space_group_symop_operation_xyz
x,y,z
-x,-y,1/2+z
x,-y,-z
-x,y,1/2-z
1/2+x,1/2+y,z
1/2-x,1/2-y,1/2+z
1/2+x,1/2-y,-z
1/2-x,1/2+y,1/2-z
loop_
_atom_site_type_symbol
_atom_site_label
_atom_site_fract_x
_atom_site_fract_y
_atom_site_fract_z
Si Si1 0.182339 0.606249 0.472869
Si Si2 0.336201 0.862257 0.306461
Si Si3 0.600999 0.573459 0.760328
Si Si4 0.369874 0.532006 0.415503
Si Si5 0.516406 0.286038 0.840386
Si Si6 0.674444 0.230075 0.629489
Si Si7 0.246264 0.574099 0.200227
Si Si8 0.324356 0.769753 0.829270
O O1 0.135458 0.500000 0.500000
O O2 0.272069 0.569398 0.432039
O O3 0.201521 0.666760 0.553266
O O4 0.137524 0.680318 0.408518
O O5 0.427556 0.819107 0.333308
O O6 0.323018 0.834374 0.212744
O O7 0.262351 0.794937 0.349458
O O8 0.318839 0.982578 0.322259
O O9 0.500000 0.552350 0.750000
O O10 0.624963 0.561551 0.852339
O O11 0.664815 0.487082 0.721508
O O12 0.620942 0.685136 0.720143
O O13 0.405885 0.500000 0.500000
O O14 0.425955 0.625855 0.380311
O O15 0.500000 0.317592 0.750000
O O16 0.424941 0.265045 0.879574
O O17 0.730704 0.334034 0.640490
O O18 0.205936 0.635594 0.273848
#
# Coordination Sequence:
#
# PCOD9317198 Si02
#       8
#     8   8   8   8   8   8   8   8
#     4  11  22  37  59  87 119 159 203 250 303 371
#     4   9  18  35  59  85 112 154 201 241 288 364
#     4  11  22  39  60  91 124 157 202 263 305 360
#     4  11  22  34  61  88 117 158 204 246 310 369
#     4  10  19  39  62  88 117 155 205 250 298 367
#     4  10  21  34  61  86 119 150 199 255 296 349
#     4  10  19  35  60  87 112 158 205 238 295 366
#     4  10  20  35  59  85 122 153 204 245 299 366
#
# _framework density 18.956863999999999
#
# number of rings (size 3 to 8) (size 9 to 14) (size 15 to 20)
#    0.000    1.750    2.500    3.375    8.750    1.000 
#    0.000    5.625    2.750    0.000    0.000    0.000 
#    0.000    0.000    0.000    0.000    0.000    0.000 
#
# Total GULP energy -178495.162561 kJ/mol
# GULP energy per Si atom -5577.973830 kJ/mol
# Density = 1.891372 g / cm^3
# Si number density = 18.956864 Si / 1000 Ang^3
#
#
#
# Elastic Constant Matrix: (Units=GPa)
#
#
# Indices 1 2 3 4 5 6 
#
# 1 49.7844 18.2487 12.0317 0.0000 0.0000 0.0000
# 2 18.2487 138.5710 57.5606 0.0000 0.0000 0.0000
# 3 12.0317 57.5606 98.5513 0.0000 0.0000 0.0000
# 4 0.0000 0.0000 0.0000 29.8748 0.0000 0.0000
# 5 0.0000 0.0000 0.0000 0.0000 15.5803 0.0000
# 6 0.0000 0.0000 0.0000 0.0000 0.0000 17.5943
#
#
#
# Elastic Compliance Matrix: (Units=1/GPa)
#
#
# Indices 1 2 3 4 5 6 
#
# 1 0.021224 -0.002269 -0.001266 0.000000 0.000000 0.000000
# 2 -0.002269 0.009771 -0.005430 0.000000 0.000000 0.000000
# 3 -0.001266 -0.005430 0.013473 0.000000 0.000000 0.000000
# 4 0.000000 0.000000 0.000000 0.033473 0.000000 0.000000
# 5 0.000000 0.000000 0.000000 0.000000 0.064184 0.000000
# 6 0.000000 0.000000 0.000000 0.000000 0.000000 0.056836
#
#
# Mechanical properties :
#
#
# Convention : Reuss Voigt Hill
#
# Bulk Modulus (GPa) = 37.68126 51.39873 44.53999
# Shear Modulus (GPa) = 22.14968 25.88094 24.01531
#
# Velocity S-wave (km/s) = 3.42193 3.69894 3.56313
# Velocity P-wave (km/s) = 5.96099 6.73909 6.36194
#
# Compressibility (1/GPa) = 0.02653839
#
# Stress axis : x y z
#
# Youngs Moduli (GPa) = 47.11569 102.34565 74.22318
#
# Poissons Ratio (x) = 0.23225 0.09395
# Poissons Ratio (y) = 0.10692 0.40301
# Poissons Ratio (z) = 0.05964 0.55571
#
# Static dielectric constant tensor:
#      x y z
#    x 1.670660 0.000000 0.000000 
#    y 0.000000 1.696400 0.000000 
#    z 0.000000 0.000000 1.684890 
# 
# From -- ./inp_files/21519.got.cif
#   From: 2010.05.17/outbox.cif.g08.bks.cpg/sg20_11_cif.got.tgz:21519.got - 2010.06.03 22:52:26.
