data_PCOD9317299
_publ_section_title
;
Structure prediction by ZEFSAII (Michael W. Deem and Ramdas Pophale) SiO2 
 PCOD9317299
Probable space group: C 2 2 21
;
_chemical_formula_sum "Si O2"
_cell_formula_units_Z 64
_cell_length_a 8.404367
_cell_length_b 21.330594
_cell_length_c 15.240199
_cell_angle_alpha 90.000000
_cell_angle_beta 90.000000
_cell_angle_gamma 90.000000
_cell_volume 2732.112613
_symmetry_space_group_name_H-M "C 2 2 21"
_symmetry_group_IT_number 20
_symmetry_cell_setting 'orthorhombic'
loop_
_space_group_symop_operation_xyz
x,y,z
-x,-y,1/2+z
x,-y,-z
-x,y,1/2-z
1/2+x,1/2+y,z
1/2-x,1/2-y,1/2+z
1/2+x,1/2-y,-z
1/2-x,1/2+y,1/2-z
loop_
_atom_site_type_symbol
_atom_site_label
_atom_site_fract_x
_atom_site_fract_y
_atom_site_fract_z
Si Si1 0.214100 0.635393 0.803575
Si Si2 0.191765 0.093346 0.245680
Si Si3 0.460100 0.160401 0.538489
Si Si4 0.656847 0.468614 0.184985
Si Si5 0.992403 0.116161 0.944521
Si Si6 0.811829 0.769140 0.771285
Si Si7 0.276408 0.269811 0.463020
Si Si8 0.255256 0.937074 0.559066
O O1 0.052223 0.639803 0.860046
O O2 0.228185 0.580424 0.733302
O O3 0.347270 0.619747 0.876094
O O4 0.254530 0.703347 0.764159
O O5 0.253299 0.164421 0.235407
O O6 0.255092 0.061753 0.336195
O O7 0.000000 0.101119 0.250000
O O8 0.222202 0.038736 0.175624
O O9 0.336517 0.218345 0.530701
O O10 0.627709 0.187886 0.510410
O O11 0.398013 0.105654 0.476544
O O12 0.500000 0.471727 0.250000
O O13 0.605049 0.437513 0.094194
O O14 0.081242 0.181857 0.946617
O O15 0.911067 0.097346 0.035068
O O16 0.776970 0.766441 0.875042
O O17 0.000000 0.766580 0.750000
O O18 0.255577 0.000000 0.500000
#
# Coordination Sequence:
#
# PCOD9317299 Si02
#       8
#     8   8   8   8   8   8   8   8
#     4  10  19  36  60  90 117 157 207 257 313 366
#     4  10  20  34  56  89 126 160 204 254 312 375
#     4  11  23  38  60  90 123 163 206 265 316 377
#     4   9  17  34  57  89 116 152 203 256 299 361
#     4  10  22  37  65  94 119 162 211 266 307 373
#     4  11  21  35  59  91 126 164 204 262 318 370
#     4  12  23  40  60  92 126 159 214 263 319 374
#     4  11  21  39  63  92 125 170 214 255 320 382
#
# _framework density 23.425096
#
# number of rings (size 3 to 8) (size 9 to 14) (size 15 to 20)
#    0.000    1.500    3.750    4.500    0.000    0.000 
#    0.000    0.625    0.000    1.500    6.500    0.000 
#    0.000    0.000    0.000    0.000    0.000    0.000 
#
# Total GULP energy -178909.401421 kJ/mol
# GULP energy per Si atom -5590.918794 kJ/mol
# Density = 2.337178 g / cm^3
# Si number density = 23.425096 Si / 1000 Ang^3
#
#
#
# Elastic Constant Matrix: (Units=GPa)
#
#
# Indices 1 2 3 4 5 6 
#
# 1 51.0019 11.0792 -3.0801 0.0000 0.0000 0.0000
# 2 11.0792 143.8239 0.2407 0.0000 0.0000 0.0000
# 3 -3.0801 0.2407 25.8595 0.0000 0.0000 0.0000
# 4 0.0000 0.0000 0.0000 35.4753 0.0000 0.0000
# 5 0.0000 0.0000 0.0000 0.0000 14.6804 0.0000
# 6 0.0000 0.0000 0.0000 0.0000 0.0000 19.1689
#
#
#
# Elastic Compliance Matrix: (Units=1/GPa)
#
#
# Indices 1 2 3 4 5 6 
#
# 1 0.020090 -0.001552 0.002407 0.000000 0.000000 0.000000
# 2 -0.001552 0.007073 -0.000251 0.000000 0.000000 0.000000
# 3 0.002407 -0.000251 0.038960 0.000000 0.000000 0.000000
# 4 0.000000 0.000000 0.000000 0.028189 0.000000 0.000000
# 5 0.000000 0.000000 0.000000 0.000000 0.068118 0.000000
# 6 0.000000 0.000000 0.000000 0.000000 0.000000 0.052168
#
#
# Mechanical properties :
#
#
# Convention : Reuss Voigt Hill
#
# Bulk Modulus (GPa) = 14.85174 26.35166 20.60170
# Shear Modulus (GPa) = 21.20164 28.02794 24.61479
#
# Velocity S-wave (km/s) = 3.01172 3.46279 3.24510
# Velocity P-wave (km/s) = 4.29509 5.22127 4.78066
#
# Compressibility (1/GPa) = 0.06733219
#
# Stress axis : x y z
#
# Youngs Moduli (GPa) = 49.77712 141.38493 25.66760
#
# Poissons Ratio (x) = 0.21937 -0.06179
# Poissons Ratio (y) = 0.07723 0.00643
# Poissons Ratio (z) = -0.11983 0.03544
#
# Static dielectric constant tensor:
#      x y z
#    x 1.906190 0.000000 0.000000 
#    y 0.000000 1.908570 0.000000 
#    z 0.000000 0.000000 1.899140 
# 
# From -- ./inp_files/23899.got.cif
#   From: 2010.05.17/outbox.cif.g08.bks.cpg/sg20_12_cif.got.tgz:23899.got - 2010.06.03 22:52:26.
