data_PCOD9317500
_publ_section_title
;
Structure prediction by ZEFSAII (Michael W. Deem and Ramdas Pophale) SiO2 
 PCOD9317500
Probable space group: C 2 2 21
;
_chemical_formula_sum "Si O2"
_cell_formula_units_Z 48
_cell_length_a 12.472893
_cell_length_b 11.001789
_cell_length_c 14.918862
_cell_angle_alpha 90.000000
_cell_angle_beta 90.000000
_cell_angle_gamma 90.000000
_cell_volume 2047.227963
_symmetry_space_group_name_H-M "C 2 2 21"
_symmetry_group_IT_number 20
_symmetry_cell_setting 'orthorhombic'
loop_
_space_group_symop_operation_xyz
x,y,z
-x,-y,1/2+z
x,-y,-z
-x,y,1/2-z
1/2+x,1/2+y,z
1/2-x,1/2-y,1/2+z
1/2+x,1/2-y,-z
1/2-x,1/2+y,1/2-z
loop_
_atom_site_type_symbol
_atom_site_label
_atom_site_fract_x
_atom_site_fract_y
_atom_site_fract_z
Si Si1 0.238974 0.601526 0.696555
Si Si2 0.140618 0.764823 0.846429
Si Si3 0.212788 0.213796 0.509374
Si Si4 0.543408 0.522827 0.839809
Si Si5 0.955054 0.613648 0.938086
Si Si6 0.304463 0.476776 0.873686
O O1 0.206718 0.713315 0.761847
O O2 0.349385 0.598646 0.638213
O O3 0.140707 0.577781 0.630128
O O4 0.261972 0.500833 0.773955
O O5 0.210020 0.801130 0.934599
O O6 0.081446 0.886844 0.819272
O O7 0.051263 0.668790 0.879996
O O8 0.098625 0.280127 0.499467
O O9 0.232215 0.152270 0.412882
O O10 0.231133 0.094448 0.570392
O O11 0.500000 0.587097 0.750000
O O12 0.432739 0.494687 0.890201
O O13 0.986603 0.500000 0.000000
#
# Coordination Sequence:
#
# PCOD9317500 Si02
#       6
#     8   8   8   8   8   8
#     4  10  23  38  62  94 127 167 215 270 326 394
#     4  11  23  41  66  91 132 179 216 269 336 398
#     4  10  22  41  63  93 127 170 222 272 323 390
#     4  10  19  39  67  91 120 169 224 269 314 390
#     4  12  25  41  60 100 138 169 216 273 350 399
#     4   9  20  41  68  91 120 172 232 270 313 384
#
# _framework density 23.446338999999998
#
# number of rings (size 3 to 8) (size 9 to 14) (size 15 to 20)
#    0.000    1.667    1.667    2.500    7.000    1.333 
#    3.000    1.667    0.000    4.000    0.000    0.000 
#    0.000    0.000    0.000    0.000    0.000    0.000 
#
# Total GULP energy -133624.699084 kJ/mol
# GULP energy per Si atom -5567.695795 kJ/mol
# Density = 2.339297 g / cm^3
# Si number density = 23.446339 Si / 1000 Ang^3
#
#
#
# Elastic Constant Matrix: (Units=GPa)
#
#
# Indices 1 2 3 4 5 6 
#
# 1 135.1717 22.8942 29.1467 0.0000 0.0000 0.0000
# 2 22.8942 50.7211 4.3989 0.0000 0.0000 0.0000
# 3 29.1467 4.3989 87.5517 0.0000 0.0000 0.0000
# 4 0.0000 0.0000 0.0000 24.3824 0.0000 0.0000
# 5 0.0000 0.0000 0.0000 0.0000 29.6471 0.0000
# 6 0.0000 0.0000 0.0000 0.0000 0.0000 29.8081
#
#
#
# Elastic Compliance Matrix: (Units=1/GPa)
#
#
# Indices 1 2 3 4 5 6 
#
# 1 0.008593 -0.003646 -0.002677 0.000000 0.000000 0.000000
# 2 -0.003646 0.021349 0.000141 0.000000 0.000000 0.000000
# 3 -0.002677 0.000141 0.012306 0.000000 0.000000 0.000000
# 4 0.000000 0.000000 0.000000 0.041013 0.000000 0.000000
# 5 0.000000 0.000000 0.000000 0.000000 0.033730 0.000000
# 6 0.000000 0.000000 0.000000 0.000000 0.000000 0.033548
#
#
# Mechanical properties :
#
#
# Convention : Reuss Voigt Hill
#
# Bulk Modulus (GPa) = 33.46374 42.92490 38.19432
# Shear Modulus (GPa) = 28.92418 31.23450 30.07934
#
# Velocity S-wave (km/s) = 3.51612 3.65385 3.58565
# Velocity P-wave (km/s) = 5.54866 6.01234 5.78515
#
# Compressibility (1/GPa) = 0.02988309
#
# Stress axis : x y z
#
# Youngs Moduli (GPa) = 116.37473 46.83987 81.26068
#
# Poissons Ratio (x) = 0.17080 0.21757
# Poissons Ratio (y) = 0.42435 -0.01148
# Poissons Ratio (z) = 0.31159 -0.00662
#
# Static dielectric constant tensor:
#      x y z
#    x 1.924260 0.000000 0.000000 
#    y 0.000000 1.887840 0.000000 
#    z 0.000000 0.000000 2.083550 
# 
# From -- ./inp_files/24237.got.cif
#   From: 2010.05.17/outbox.cif.g08.bks.cpg/sg20_13_cif.got.tgz:24237.got - 2010.06.03 22:52:26.
