data_PCOD9317649
_publ_section_title
;
Structure prediction by ZEFSAII (Michael W. Deem and Ramdas Pophale) SiO2 
 PCOD9317649
Probable space group: C 2 2 21
;
_chemical_formula_sum "Si O2"
_cell_formula_units_Z 40
_cell_length_a 17.666279
_cell_length_b 6.165504
_cell_length_c 19.851963
_cell_angle_alpha 90.000000
_cell_angle_beta 90.000000
_cell_angle_gamma 90.000000
_cell_volume 2162.305863
_symmetry_space_group_name_H-M "C 2 2 21"
_symmetry_group_IT_number 20
_symmetry_cell_setting 'orthorhombic'
loop_
_space_group_symop_operation_xyz
x,y,z
-x,-y,1/2+z
x,-y,-z
-x,y,1/2-z
1/2+x,1/2+y,z
1/2-x,1/2-y,1/2+z
1/2+x,1/2-y,-z
1/2-x,1/2+y,1/2-z
loop_
_atom_site_type_symbol
_atom_site_label
_atom_site_fract_x
_atom_site_fract_y
_atom_site_fract_z
Si Si1 0.916124 0.367415 0.819189
Si Si2 0.648202 0.460216 0.212341
Si Si3 0.706436 0.751677 0.331662
Si Si4 0.098668 0.008788 0.420727
Si Si5 0.520908 0.249233 0.826973
O O1 0.903879 0.208108 0.755252
O O2 0.851565 0.551860 0.815550
O O3 0.901783 0.224907 0.885380
O O4 0.995459 0.497317 0.827864
O O5 0.695506 0.583296 0.270472
O O6 0.708215 0.332702 0.167190
O O7 0.603420 0.643827 0.170384
O O8 0.674590 0.634310 0.397927
O O9 0.089128 0.000000 0.500000
O O10 0.031314 0.135641 0.382141
O O11 0.500000 0.311155 0.750000
#
# Coordination Sequence:
#
# PCOD9317649 Si02
#       5
#     8   8   8   8   8
#     4  10  20  35  60  86 127 153 200 261 304 372
#     4  11  20  34  58  95 128 151 205 257 325 364
#     4  10  20  33  60  91 119 164 197 259 316 369
#     4  10  23  41  61  87 126 172 218 250 312 386
#     4  11  21  33  58  95 119 161 207 260 322 357
#
# _framework density 18.498771000000001
#
# number of rings (size 3 to 8) (size 9 to 14) (size 15 to 20)
#    0.000    1.600    8.000    0.000    2.800    3.200 
#    0.000    0.000    4.400    0.000    0.000    0.000 
#    0.000    0.000    0.000    0.000    0.000    0.000 
#
# Total GULP energy -111426.155752 kJ/mol
# GULP energy per Si atom -5571.307788 kJ/mol
# Density = 1.845667 g / cm^3
# Si number density = 18.498771 Si / 1000 Ang^3
#
#
#
# Elastic Constant Matrix: (Units=GPa)
#
#
# Indices 1 2 3 4 5 6 
#
# 1 93.8453 43.2459 37.9259 0.0000 0.0000 0.0000
# 2 43.2459 102.8063 31.2368 0.0000 0.0000 0.0000
# 3 37.9259 31.2368 105.8276 0.0000 0.0000 0.0000
# 4 0.0000 0.0000 0.0000 14.2056 0.0000 0.0000
# 5 0.0000 0.0000 0.0000 0.0000 18.4099 0.0000
# 6 0.0000 0.0000 0.0000 0.0000 0.0000 41.7264
#
#
#
# Elastic Compliance Matrix: (Units=1/GPa)
#
#
# Indices 1 2 3 4 5 6 
#
# 1 0.014435 -0.004944 -0.003714 0.000000 0.000000 0.000000
# 2 -0.004944 0.012378 -0.001882 0.000000 0.000000 0.000000
# 3 -0.003714 -0.001882 0.011336 0.000000 0.000000 0.000000
# 4 0.000000 0.000000 0.000000 0.070395 0.000000 0.000000
# 5 0.000000 0.000000 0.000000 0.000000 0.054319 0.000000
# 6 0.000000 0.000000 0.000000 0.000000 0.000000 0.023966
#
#
# Mechanical properties :
#
#
# Convention : Reuss Voigt Hill
#
# Bulk Modulus (GPa) = 58.58239 58.58850 58.58545
# Shear Modulus (GPa) = 23.40856 27.53977 25.47416
#
# Velocity S-wave (km/s) = 3.56112 3.86260 3.71492
# Velocity P-wave (km/s) = 6.97465 7.18563 7.08093
#
# Compressibility (1/GPa) = 0.01706998
#
# Stress axis : x y z
#
# Youngs Moduli (GPa) = 69.27665 80.78568 88.21607
#
# Poissons Ratio (x) = 0.39938 0.32762
# Poissons Ratio (y) = 0.34248 0.16602
# Poissons Ratio (z) = 0.25729 0.15204
#
# Static dielectric constant tensor:
#      x y z
#    x 1.722540 0.000000 0.000000 
#    y 0.000000 1.697980 0.000000 
#    z 0.000000 0.000000 1.582640 
# 
# From -- ./inp_files/22606.got.cif
#   From: 2010.05.17/outbox.cif.g08.bks.cpg/sg20_12_cif.got.tgz:22606.got - 2010.06.03 22:52:26.
