data_PCOD9317797
_publ_section_title
;
Structure prediction by ZEFSAII (Michael W. Deem and Ramdas Pophale) SiO2 
 PCOD9317797
Probable space group: C 2 2 21
;
_chemical_formula_sum "Si O2"
_cell_formula_units_Z 56
_cell_length_a 18.262448
_cell_length_b 10.112178
_cell_length_c 14.911644
_cell_angle_alpha 90.000000
_cell_angle_beta 90.000000
_cell_angle_gamma 90.000000
_cell_volume 2753.779895
_symmetry_space_group_name_H-M "C 2 2 21"
_symmetry_group_IT_number 20
_symmetry_cell_setting 'orthorhombic'
loop_
_space_group_symop_operation_xyz
x,y,z
-x,-y,1/2+z
x,-y,-z
-x,y,1/2-z
1/2+x,1/2+y,z
1/2-x,1/2-y,1/2+z
1/2+x,1/2-y,-z
1/2-x,1/2+y,1/2-z
loop_
_atom_site_type_symbol
_atom_site_label
_atom_site_fract_x
_atom_site_fract_y
_atom_site_fract_z
Si Si1 0.621259 0.657572 0.770030
Si Si2 0.679156 0.991912 0.400327
Si Si3 0.281702 0.265549 0.815573
Si Si4 0.337527 0.843618 0.371220
Si Si5 0.817329 0.956893 0.097608
Si Si6 0.920235 0.438670 0.729243
Si Si7 0.649312 0.566480 0.093796
O O1 0.699146 0.721334 0.798240
O O2 0.628784 0.621173 0.664662
O O3 0.571066 0.783008 0.791254
O O4 0.613710 0.523316 0.827776
O O5 0.630839 0.046282 0.318219
O O6 0.761122 0.055957 0.394088
O O7 0.648119 0.000000 0.500000
O O8 0.689015 0.835212 0.388694
O O9 0.322584 0.224971 0.725120
O O10 0.293130 0.414230 0.845248
O O11 0.259132 0.878001 0.414522
O O12 0.374020 0.718946 0.418446
O O13 0.382250 0.975965 0.349530
O O14 0.845351 0.000000 0.000000
O O15 0.000000 0.496032 0.750000
O O16 0.633175 0.500000 0.000000
#
# Coordination Sequence:
#
# PCOD9317797 Si02
#       7
#     8   8   8   8   8   8   8
#     4  10  20  37  54  82 121 146 192 238 283 352
#     4   9  19  33  57  84 115 145 188 234 288 360
#     4   9  17  32  52  83 117 145 174 235 304 340
#     4  10  20  36  54  84 118 146 189 237 283 353
#     4  11  21  29  57  94 123 144 177 242 311 355
#     4  11  23  40  59  77 111 166 201 232 280 333
#     4  10  20  35  63  91 115 150 178 238 315 357
#
# _framework density 20.335684000000001
#
# number of rings (size 3 to 8) (size 9 to 14) (size 15 to 20)
#    0.000    2.000    2.857    2.571    8.000    0.000 
#    0.000    2.857    0.000    0.857    0.000    0.000 
#    0.000    0.000    0.000    0.000    0.000    0.000 
#
# Total GULP energy -156081.722702 kJ/mol
# GULP energy per Si atom -5574.347239 kJ/mol
# Density = 2.028940 g / cm^3
# Si number density = 20.335684 Si / 1000 Ang^3
#
#
#
# Elastic Constant Matrix: (Units=GPa)
#
#
# Indices 1 2 3 4 5 6 
#
# 1 13.3134 -0.1823 3.5576 0.0000 0.0000 0.0000
# 2 -0.1823 119.4485 12.6357 0.0000 0.0000 0.0000
# 3 3.5576 12.6357 73.2669 0.0000 0.0000 0.0000
# 4 0.0000 0.0000 0.0000 32.0416 0.0000 0.0000
# 5 0.0000 0.0000 0.0000 0.0000 4.8063 0.0000
# 6 0.0000 0.0000 0.0000 0.0000 0.0000 5.8100
#
#
#
# Elastic Compliance Matrix: (Units=1/GPa)
#
#
# Indices 1 2 3 4 5 6 
#
# 1 0.076131 0.000517 -0.003786 0.000000 0.000000 0.000000
# 2 0.000517 0.008531 -0.001496 0.000000 0.000000 0.000000
# 3 -0.003786 -0.001496 0.014091 0.000000 0.000000 0.000000
# 4 0.000000 0.000000 0.000000 0.031209 0.000000 0.000000
# 5 0.000000 0.000000 0.000000 0.000000 0.208060 0.000000
# 6 0.000000 0.000000 0.000000 0.000000 0.000000 0.172116
#
#
# Mechanical properties :
#
#
# Convention : Reuss Voigt Hill
#
# Bulk Modulus (GPa) = 11.20801 26.45007 18.82904
# Shear Modulus (GPa) = 9.10067 21.19944 15.15005
#
# Velocity S-wave (km/s) = 2.11777 3.23224 2.73243
# Velocity P-wave (km/s) = 3.39166 5.19276 4.38567
#
# Compressibility (1/GPa) = 0.08922187
#
# Stress axis : x y z
#
# Youngs Moduli (GPa) = 13.13521 117.22111 70.96922
#
# Poissons Ratio (x) = -0.06056 0.26867
# Poissons Ratio (y) = -0.00679 0.10619
# Poissons Ratio (z) = 0.04973 0.17540
#
# Static dielectric constant tensor:
#      x y z
#    x 1.714430 0.000000 0.000000 
#    y 0.000000 1.853600 0.000000 
#    z 0.000000 0.000000 1.772690 
# 
# From -- ./inp_files/19189.got.cif
#   From: 2010.05.17/outbox.cif.g08.bks.cpg/sg20_10_cif.got.tgz:19189.got - 2010.06.03 22:52:26.
