data_PCOD9317778
_publ_section_title
;
Structure prediction by ZEFSAII (Michael W. Deem and Ramdas Pophale) SiO2 
 PCOD9317778
Probable space group: C 2 2 21
;
_chemical_formula_sum "Si O2"
_cell_formula_units_Z 40
_cell_length_a 9.182805
_cell_length_b 9.907644
_cell_length_c 17.813035
_cell_angle_alpha 90.000000
_cell_angle_beta 90.000000
_cell_angle_gamma 90.000000
_cell_volume 1620.629263
_symmetry_space_group_name_H-M "C 2 2 21"
_symmetry_group_IT_number 20
_symmetry_cell_setting 'orthorhombic'
loop_
_space_group_symop_operation_xyz
x,y,z
-x,-y,1/2+z
x,-y,-z
-x,y,1/2-z
1/2+x,1/2+y,z
1/2-x,1/2-y,1/2+z
1/2+x,1/2-y,-z
1/2-x,1/2+y,1/2-z
loop_
_atom_site_type_symbol
_atom_site_label
_atom_site_fract_x
_atom_site_fract_y
_atom_site_fract_z
Si Si1 0.156044 0.633260 0.448530
Si Si2 0.828467 0.224493 0.745825
Si Si3 0.866620 0.968413 0.810041
Si Si4 0.588311 0.937793 0.327410
Si Si5 0.992768 0.798128 0.564660
O O1 0.138816 0.500000 0.500000
O O2 0.098887 0.580997 0.368509
O O3 0.066858 0.753162 0.487026
O O4 0.325984 0.664791 0.445516
O O5 0.746785 0.362939 0.726889
O O6 0.751152 0.125283 0.683565
O O7 0.000000 0.244346 0.750000
O O8 0.805669 0.120515 0.815469
O O9 0.921721 0.913769 0.889510
O O10 0.000000 0.966773 0.750000
O O11 0.500000 0.937183 0.250000
O O12 0.508753 0.830580 0.380700
#
# Coordination Sequence:
#
# PCOD9317778 Si02
#       5
#     8   8   8   8   8
#     4  10  22  42  65  92 129 171 218 268 326 398
#     4  10  20  35  59  90 124 163 210 265 323 379
#     4  10  21  39  61  91 132 170 213 273 328 384
#     4  10  22  42  66  94 131 171 216 276 334 390
#     4  10  21  42  65  91 132 175 216 270 329 393
#
# _framework density 24.681771000000001
#
# number of rings (size 3 to 8) (size 9 to 14) (size 15 to 20)
#    0.000    2.000    0.000    4.800    0.000    3.200 
#    0.000   29.000    0.000    0.000    0.000    0.000 
#    0.000    0.000    0.000    0.000    0.000    0.000 
#
# Total GULP energy -111852.541954 kJ/mol
# GULP energy per Si atom -5592.627098 kJ/mol
# Density = 2.462559 g / cm^3
# Si number density = 24.681771 Si / 1000 Ang^3
#
#
#
# Elastic Constant Matrix: (Units=GPa)
#
#
# Indices 1 2 3 4 5 6 
#
# 1 124.5395 36.5549 27.4875 0.0000 0.0000 0.0000
# 2 36.5549 105.1301 -1.1146 0.0000 0.0000 0.0000
# 3 27.4875 -1.1146 84.0604 0.0000 0.0000 0.0000
# 4 0.0000 0.0000 0.0000 33.6924 0.0000 0.0000
# 5 0.0000 0.0000 0.0000 0.0000 41.4469 0.0000
# 6 0.0000 0.0000 0.0000 0.0000 0.0000 39.4114
#
#
#
# Elastic Compliance Matrix: (Units=1/GPa)
#
#
# Indices 1 2 3 4 5 6 
#
# 1 0.009748 -0.003424 -0.003233 0.000000 0.000000 0.000000
# 2 -0.003424 0.010716 0.001262 0.000000 0.000000 0.000000
# 3 -0.003233 0.001262 0.012970 0.000000 0.000000 0.000000
# 4 0.000000 0.000000 0.000000 0.029680 0.000000 0.000000
# 5 0.000000 0.000000 0.000000 0.000000 0.024127 0.000000
# 6 0.000000 0.000000 0.000000 0.000000 0.000000 0.025373
#
#
# Mechanical properties :
#
#
# Convention : Reuss Voigt Hill
#
# Bulk Modulus (GPa) = 44.16212 48.84284 46.50248
# Shear Modulus (GPa) = 38.18157 39.63029 38.90593
#
# Velocity S-wave (km/s) = 3.93740 4.01140 3.97457
# Velocity P-wave (km/s) = 6.21307 6.42551 6.32018
#
# Compressibility (1/GPa) = 0.02264384
#
# Stress axis : x y z
#
# Youngs Moduli (GPa) = 102.58404 93.31934 77.10025
#
# Poissons Ratio (x) = 0.31951 0.24927
# Poissons Ratio (y) = 0.35123 -0.09727
# Poissons Ratio (z) = 0.33165 -0.11774
#
# Static dielectric constant tensor:
#      x y z
#    x 1.948380 0.000000 0.000000 
#    y 0.000000 2.031460 0.000000 
#    z 0.000000 0.000000 2.016480 
# 
# From -- ./inp_files/23181.got.cif
#   From: 2010.05.17/outbox.cif.g08.bks.cpg/sg20_12_cif.got.tgz:23181.got - 2010.06.03 22:52:26.
