data_PCOD9317675
_publ_section_title
;
Structure prediction by ZEFSAII (Michael W. Deem and Ramdas Pophale) SiO2 
 PCOD9317675
Probable space group: C 2 2 21
;
_chemical_formula_sum "Si O2"
_cell_formula_units_Z 36
_cell_length_a 29.631174
_cell_length_b 5.530819
_cell_length_c 11.596174
_cell_angle_alpha 90.000000
_cell_angle_beta 90.000000
_cell_angle_gamma 90.000000
_cell_volume 1900.435035
_symmetry_space_group_name_H-M "C 2 2 21"
_symmetry_group_IT_number 20
_symmetry_cell_setting 'orthorhombic'
loop_
_space_group_symop_operation_xyz
x,y,z
-x,-y,1/2+z
x,-y,-z
-x,y,1/2-z
1/2+x,1/2+y,z
1/2-x,1/2-y,1/2+z
1/2+x,1/2-y,-z
1/2-x,1/2+y,1/2-z
loop_
_atom_site_type_symbol
_atom_site_label
_atom_site_fract_x
_atom_site_fract_y
_atom_site_fract_z
Si Si1 0.320023 0.169446 0.306201
Si Si2 0.267008 0.622143 0.880615
Si Si3 0.410714 0.012961 0.635080
Si Si4 0.294363 0.500000 0.500000
Si Si5 0.465702 0.510799 0.639931
O O1 0.310258 0.335374 0.197115
O O2 0.363472 0.003384 0.296913
O O3 0.324297 0.325837 0.422443
O O4 0.272154 0.036051 0.321999
O O5 0.280187 0.500000 0.000000
O O6 0.239278 0.859985 0.915772
O O7 0.439408 0.766799 0.656062
O O8 0.400010 0.000000 0.500000
O O9 0.436027 0.266351 0.655047
O O10 0.480240 0.500000 0.500000
O O11 0.500000 0.503702 0.750000
#
# Coordination Sequence:
#
# PCOD9317675 Si02
#       5
#     8   8   8   4   8
#     4  11  21  35  58  84 117 159 208 256 300 350
#     4  10  21  35  53  79 116 164 200 249 303 356
#     4  10  22  37  64  97 120 153 205 258 298 361
#     4  10  20  34  54  78 114 152 214 238 304 342
#     4  10  22  42  68  94 124 156 197 251 320 384
#
# _framework density 18.94303
#
# number of rings (size 3 to 8) (size 9 to 14) (size 15 to 20)
#    0.000    1.778    2.222    2.667    7.778    0.000 
#    0.000    1.111    0.000    0.000    0.000    0.000 
#    0.000    0.000    0.000    0.000    0.000    0.000 
#
# Total GULP energy -100254.084982 kJ/mol
# GULP energy per Si atom -5569.671388 kJ/mol
# Density = 1.889991 g / cm^3
# Si number density = 18.943030 Si / 1000 Ang^3
#
#
#
# Elastic Constant Matrix: (Units=GPa)
#
#
# Indices 1 2 3 4 5 6 
#
# 1 85.2362 43.8812 73.3564 0.0000 0.0000 0.0000
# 2 43.8812 110.3936 40.7819 0.0000 0.0000 0.0000
# 3 73.3564 40.7819 111.7433 0.0000 0.0000 0.0000
# 4 0.0000 0.0000 0.0000 15.5795 0.0000 0.0000
# 5 0.0000 0.0000 0.0000 0.0000 33.6129 0.0000
# 6 0.0000 0.0000 0.0000 0.0000 0.0000 221.5028
#
#
#
# Elastic Compliance Matrix: (Units=1/GPa)
#
#
# Indices 1 2 3 4 5 6 
#
# 1 0.029399 -0.005266 -0.017377 0.000000 0.000000 0.000000
# 2 -0.005266 0.011413 -0.000708 0.000000 0.000000 0.000000
# 3 -0.017377 -0.000708 0.020615 0.000000 0.000000 0.000000
# 4 0.000000 0.000000 0.000000 0.064187 0.000000 0.000000
# 5 0.000000 0.000000 0.000000 0.000000 0.029751 0.000000
# 6 0.000000 0.000000 0.000000 0.000000 0.000000 0.004515
#
#
# Mechanical properties :
#
#
# Convention : Reuss Voigt Hill
#
# Bulk Modulus (GPa) = 67.91852 69.26801 68.59326
# Shear Modulus (GPa) = 23.64157 64.09595 43.86876
#
# Velocity S-wave (km/s) = 3.53659 5.82320 4.81752
# Velocity P-wave (km/s) = 7.25317 9.04758 8.19961
#
# Compressibility (1/GPa) = 0.01472352
#
# Stress axis : x y z
#
# Youngs Moduli (GPa) = 34.01502 87.61559 48.50741
#
# Poissons Ratio (x) = 0.46141 0.84294
# Poissons Ratio (y) = 0.17913 0.03436
# Poissons Ratio (z) = 0.59110 0.06206
#
# Static dielectric constant tensor:
#      x y z
#    x 1.650320 0.000000 0.000000 
#    y 0.000000 1.705010 0.000000 
#    z 0.000000 0.000000 0.569270 
# 
# From -- ./inp_files/12040.got.cif
#   From: 2010.05.17/outbox.cif.g08.bks.cpg/sg20_7_cif.got.tgz:12040.got - 2010.06.03 22:52:26.
