data_PCOD9317354
_publ_section_title
;
Structure prediction by ZEFSAII (Michael W. Deem and Ramdas Pophale) SiO2 
 PCOD9317354
Probable space group: C 2 2 21
;
_chemical_formula_sum "Si O2"
_cell_formula_units_Z 44
_cell_length_a 5.385045
_cell_length_b 24.038152
_cell_length_c 14.078545
_cell_angle_alpha 90.000000
_cell_angle_beta 90.000000
_cell_angle_gamma 90.000000
_cell_volume 1822.418801
_symmetry_space_group_name_H-M "C 2 2 21"
_symmetry_group_IT_number 20
_symmetry_cell_setting 'orthorhombic'
loop_
_space_group_symop_operation_xyz
x,y,z
-x,-y,1/2+z
x,-y,-z
-x,y,1/2-z
1/2+x,1/2+y,z
1/2-x,1/2-y,1/2+z
1/2+x,1/2-y,-z
1/2-x,1/2+y,1/2-z
loop_
_atom_site_type_symbol
_atom_site_label
_atom_site_fract_x
_atom_site_fract_y
_atom_site_fract_z
Si Si1 0.237327 0.072535 0.110509
Si Si2 0.000000 0.365057 0.250000
Si Si3 0.182310 0.754678 0.062586
Si Si4 0.297471 0.445638 0.382277
Si Si5 0.235887 0.361425 0.889025
Si Si6 0.366722 0.646179 0.891177
O O1 0.490894 0.104037 0.136853
O O2 0.993127 0.108155 0.137093
O O3 0.220472 0.009491 0.146935
O O4 0.236104 0.063468 0.995652
O O5 0.891674 0.407110 0.172417
O O6 0.806180 0.329516 0.309999
O O7 0.108988 0.814938 0.101753
O O8 0.216872 0.703806 0.135853
O O9 0.933249 0.741760 0.999729
O O10 0.560407 0.416313 0.361730
O O11 0.250614 0.357697 0.004618
#
# Coordination Sequence:
#
# PCOD9317354 Si02
#       6
#     8   4   8   8   8   8
#     4  10  21  36  62  87 124 151 211 254 307 354
#     4  12  22  38  58  88 136 162 204 244 330 376
#     4  10  20  35  61  90 126 154 197 255 307 364
#     4  10  22  36  56  89 122 162 200 259 309 369
#     4  10  19  37  59  91 117 156 197 260 301 356
#     4  10  22  36  57  92 125 159 202 249 317 372
#
# _framework density 24.143736000000001
#
# number of rings (size 3 to 8) (size 9 to 14) (size 15 to 20)
#    0.000    1.818    1.818    3.818    5.091    1.455 
#    0.000    0.000    0.000    0.000    9.455    0.000 
#    0.000    0.000    0.000    0.000    0.000    0.000 
#
# Total GULP energy -122966.546345 kJ/mol
# GULP energy per Si atom -5589.388470 kJ/mol
# Density = 2.408878 g / cm^3
# Si number density = 24.143736 Si / 1000 Ang^3
#
#
#
# Elastic Constant Matrix: (Units=GPa)
#
#
# Indices 1 2 3 4 5 6 
#
# 1 158.0497 62.1307 13.2967 0.0000 0.0000 0.0000
# 2 62.1307 171.1105 6.2829 0.0000 0.0000 0.0000
# 3 13.2967 6.2829 62.9784 0.0000 0.0000 0.0000
# 4 0.0000 0.0000 0.0000 9.6029 0.0000 0.0000
# 5 0.0000 0.0000 0.0000 0.0000 8.3555 0.0000
# 6 0.0000 0.0000 0.0000 0.0000 0.0000 37.6237
#
#
#
# Elastic Compliance Matrix: (Units=1/GPa)
#
#
# Indices 1 2 3 4 5 6 
#
# 1 0.007487 -0.002670 -0.001314 0.000000 0.000000 0.000000
# 2 -0.002670 0.006818 -0.000116 0.000000 0.000000 0.000000
# 3 -0.001314 -0.000116 0.016168 0.000000 0.000000 0.000000
# 4 0.000000 0.000000 0.000000 0.104135 0.000000 0.000000
# 5 0.000000 0.000000 0.000000 0.000000 0.119682 0.000000
# 6 0.000000 0.000000 0.000000 0.000000 0.000000 0.026579
#
#
# Mechanical properties :
#
#
# Convention : Reuss Voigt Hill
#
# Bulk Modulus (GPa) = 44.90214 61.72878 53.31546
# Shear Modulus (GPa) = 16.86363 31.81162 24.33763
#
# Velocity S-wave (km/s) = 2.64572 3.63380 3.17839
# Velocity P-wave (km/s) = 5.28879 6.57486 5.96658
#
# Compressibility (1/GPa) = 0.02227066
#
# Stress axis : x y z
#
# Youngs Moduli (GPa) = 133.55613 146.66841 61.85212
#
# Poissons Ratio (x) = 0.39167 0.08130
# Poissons Ratio (y) = 0.35666 0.00720
# Poissons Ratio (z) = 0.17555 0.01707
#
# Static dielectric constant tensor:
#      x y z
#    x 1.974490 0.000000 0.000000 
#    y 0.000000 1.926440 0.000000 
#    z 0.000000 0.000000 1.976420 
# 
# From -- ./inp_files/22777.got.cif
#   From: 2010.05.17/outbox.cif.g08.bks.cpg/sg20_12_cif.got.tgz:22777.got - 2010.06.03 22:52:26.
