data_PCOD9317925
_publ_section_title
;
Structure prediction by ZEFSAII (Michael W. Deem and Ramdas Pophale) SiO2 
 PCOD9317925
Probable space group: C 2 2 21
;
_chemical_formula_sum "Si O2"
_cell_formula_units_Z 52
_cell_length_a 16.499152
_cell_length_b 17.289103
_cell_length_c 8.227274
_cell_angle_alpha 90.000000
_cell_angle_beta 90.000000
_cell_angle_gamma 90.000000
_cell_volume 2346.875474
_symmetry_space_group_name_H-M "C 2 2 21"
_symmetry_group_IT_number 20
_symmetry_cell_setting 'orthorhombic'
loop_
_space_group_symop_operation_xyz
x,y,z
-x,-y,1/2+z
x,-y,-z
-x,y,1/2-z
1/2+x,1/2+y,z
1/2-x,1/2-y,1/2+z
1/2+x,1/2-y,-z
1/2-x,1/2+y,1/2-z
loop_
_atom_site_type_symbol
_atom_site_label
_atom_site_fract_x
_atom_site_fract_y
_atom_site_fract_z
Si Si1 0.816015 0.929647 0.614749
Si Si2 0.809182 0.682140 0.536060
Si Si3 0.140602 0.566894 0.218049
Si Si4 0.406389 0.300261 0.780414
Si Si5 0.737199 0.675404 0.847973
Si Si6 0.000000 0.558588 0.750000
Si Si7 0.908478 0.663100 0.992170
O O1 0.727434 0.949906 0.693354
O O2 0.861874 0.882298 0.757276
O O3 0.820586 0.865211 0.472821
O O4 0.844233 0.000000 0.500000
O O5 0.843972 0.605215 0.456588
O O6 0.868032 0.735244 0.652433
O O7 0.736144 0.662475 0.658306
O O8 0.774320 0.734394 0.389631
O O9 0.098775 0.635063 0.325091
O O10 0.077526 0.496612 0.222228
O O11 0.500000 0.314124 0.750000
O O12 0.409564 0.253586 0.951454
O O13 0.822877 0.641063 0.908919
O O14 0.022900 0.614594 0.600341
#
# Coordination Sequence:
#
# PCOD9317925 Si02
#       7
#     8   8   8   8   8   4   8
#     4  10  21  42  65  93 123 170 225 280 342 393
#     4  10  20  36  62  95 124 170 222 267 333 396
#     4  11  23  36  61  95 135 180 218 271 335 406
#     4  10  21  38  67  91 124 172 223 279 336 392
#     4   9  18  35  61  87 122 160 213 272 314 398
#     4  12  24  34  56  94 144 184 212 262 338 410
#     4  10  20  37  57  85 128 171 218 258 321 400
#
# _framework density 22.157118000000001
#
# number of rings (size 3 to 8) (size 9 to 14) (size 15 to 20)
#    0.000    1.846    0.769    6.000    2.154    2.462 
#    0.000    3.846    0.000    9.231    0.000    0.000 
#    0.000    0.000    0.000    0.000    0.000    0.000 
#
# Total GULP energy -144784.869495 kJ/mol
# GULP energy per Si atom -5568.648827 kJ/mol
# Density = 2.210669 g / cm^3
# Si number density = 22.157118 Si / 1000 Ang^3
#
#
#
# Elastic Constant Matrix: (Units=GPa)
#
#
# Indices 1 2 3 4 5 6 
#
# 1 65.8515 27.7799 7.9614 0.0000 0.0000 0.0000
# 2 27.7799 78.1190 17.0499 0.0000 0.0000 0.0000
# 3 7.9614 17.0499 82.1872 0.0000 0.0000 0.0000
# 4 0.0000 0.0000 0.0000 27.2394 0.0000 0.0000
# 5 0.0000 0.0000 0.0000 0.0000 25.3143 0.0000
# 6 0.0000 0.0000 0.0000 0.0000 0.0000 41.7111
#
#
#
# Elastic Compliance Matrix: (Units=1/GPa)
#
#
# Indices 1 2 3 4 5 6 
#
# 1 0.017881 -0.006264 -0.000433 0.000000 0.000000 0.000000
# 2 -0.006264 0.015603 -0.002630 0.000000 0.000000 0.000000
# 3 -0.000433 -0.002630 0.012755 0.000000 0.000000 0.000000
# 4 0.000000 0.000000 0.000000 0.036711 0.000000 0.000000
# 5 0.000000 0.000000 0.000000 0.000000 0.039503 0.000000
# 6 0.000000 0.000000 0.000000 0.000000 0.000000 0.023974
#
#
# Mechanical properties :
#
#
# Convention : Reuss Voigt Hill
#
# Bulk Modulus (GPa) = 36.25207 36.86003 36.55605
# Shear Modulus (GPa) = 28.69021 30.41072 29.55046
#
# Velocity S-wave (km/s) = 3.60231 3.70875 3.65592
# Velocity P-wave (km/s) = 5.80509 5.91706 5.86134
#
# Compressibility (1/GPa) = 0.02758463
#
# Stress axis : x y z
#
# Youngs Moduli (GPa) = 55.92675 64.09200 78.40158
#
# Poissons Ratio (x) = 0.40148 0.03391
# Poissons Ratio (y) = 0.35033 0.20620
# Poissons Ratio (z) = 0.02419 0.16856
#
# Static dielectric constant tensor:
#      x y z
#    x 1.873890 0.000000 0.000000 
#    y 0.000000 1.927740 0.000000 
#    z 0.000000 0.000000 1.905330 
# 
# From -- ./inp_files/9530.got.cif
#   From: 2010.05.17/outbox.cif.g08.bks.cpg/sg20_5_cif.got.tgz:9530.got - 2010.06.03 22:52:26.
