data_PCOD9317032
_publ_section_title
;
Structure prediction by ZEFSAII (Michael W. Deem and Ramdas Pophale) SiO2 
 PCOD9317032
Probable space group: C 2 2 21
;
_chemical_formula_sum "Si O2"
_cell_formula_units_Z 60
_cell_length_a 11.430518
_cell_length_b 18.435490
_cell_length_c 14.789862
_cell_angle_alpha 90.000000
_cell_angle_beta 90.000000
_cell_angle_gamma 90.000000
_cell_volume 3116.626212
_symmetry_space_group_name_H-M "C 2 2 21"
_symmetry_group_IT_number 20
_symmetry_cell_setting 'orthorhombic'
loop_
_space_group_symop_operation_xyz
x,y,z
-x,-y,1/2+z
x,-y,-z
-x,y,1/2-z
1/2+x,1/2+y,z
1/2-x,1/2-y,1/2+z
1/2+x,1/2-y,-z
1/2-x,1/2+y,1/2-z
loop_
_atom_site_type_symbol
_atom_site_label
_atom_site_fract_x
_atom_site_fract_y
_atom_site_fract_z
Si Si1 0.000000 0.762018 0.250000
Si Si2 0.744338 0.814557 0.288835
Si Si3 0.241083 0.951810 0.583341
Si Si4 0.066379 0.625014 0.973284
Si Si5 0.122757 0.451618 0.214173
Si Si6 0.379982 0.801114 0.924296
Si Si7 0.859664 0.234860 0.386958
Si Si8 0.619957 0.299086 0.584648
O O1 0.885494 0.808509 0.280503
O O2 0.952084 0.712425 0.167558
O O3 0.686128 0.894416 0.281809
O O4 0.689913 0.774860 0.200946
O O5 0.698050 0.763905 0.369553
O O6 0.362891 0.923873 0.541616
O O7 0.168447 0.879137 0.599473
O O8 0.189636 0.000000 0.500000
O O9 0.277942 0.995999 0.672350
O O10 0.940039 0.639816 0.012609
O O11 0.077068 0.592714 0.873907
O O12 0.125843 0.704239 0.964795
O O13 0.000000 0.484697 0.250000
O O14 0.244535 0.819266 0.909931
O O15 0.386289 0.724720 0.979460
O O16 0.989335 0.205457 0.375103
#
# Coordination Sequence:
#
# PCOD9317032 Si02
#       8
#     4   8   8   8   8   8   8   8
#     4  10  22  32  54  92 128 146 192 264 320 348
#     4  10  20  37  61  89 118 154 201 267 308 359
#     4  10  21  36  59  82 122 165 207 241 308 384
#     4   9  17  34  56  83 115 153 199 246 300 365
#     4  10  20  38  59  85 117 163 204 253 310 375
#     4  10  19  33  55  90 121 147 199 262 310 351
#     4   9  18  32  56  87 118 146 195 261 298 351
#     4  11  20  35  61  88 118 159 211 250 309 369
#
# _framework density 19.251586
#
# number of rings (size 3 to 8) (size 9 to 14) (size 15 to 20)
#    0.000    2.133    1.333    3.600    3.733    0.000 
#    7.200    0.000    2.933    2.400    0.000    0.000 
#    0.000    0.000    0.000    0.000    0.000    0.000 
#
# Total GULP energy -167114.656672 kJ/mol
# GULP energy per Si atom -5570.488556 kJ/mol
# Density = 1.920777 g / cm^3
# Si number density = 19.251586 Si / 1000 Ang^3
#
#
#
# Elastic Constant Matrix: (Units=GPa)
#
#
# Indices 1 2 3 4 5 6 
#
# 1 119.5293 29.0431 27.2946 0.0000 0.0000 0.0000
# 2 29.0431 77.9382 23.6835 0.0000 0.0000 0.0000
# 3 27.2946 23.6835 57.3296 0.0000 0.0000 0.0000
# 4 0.0000 0.0000 0.0000 20.0925 0.0000 0.0000
# 5 0.0000 0.0000 0.0000 0.0000 24.5510 0.0000
# 6 0.0000 0.0000 0.0000 0.0000 0.0000 25.2424
#
#
#
# Elastic Compliance Matrix: (Units=1/GPa)
#
#
# Indices 1 2 3 4 5 6 
#
# 1 0.009813 -0.002558 -0.003615 0.000000 0.000000 0.000000
# 2 -0.002558 0.015340 -0.005119 0.000000 0.000000 0.000000
# 3 -0.003615 -0.005119 0.021279 0.000000 0.000000 0.000000
# 4 0.000000 0.000000 0.000000 0.049770 0.000000 0.000000
# 5 0.000000 0.000000 0.000000 0.000000 0.040731 0.000000
# 6 0.000000 0.000000 0.000000 0.000000 0.000000 0.039616
#
#
# Mechanical properties :
#
#
# Convention : Reuss Voigt Hill
#
# Bulk Modulus (GPa) = 41.93434 46.09327 44.01381
# Shear Modulus (GPa) = 24.14494 25.62892 24.88693
#
# Velocity S-wave (km/s) = 3.54528 3.65261 3.59934
# Velocity P-wave (km/s) = 6.21195 6.46400 6.33922
#
# Compressibility (1/GPa) = 0.02384680
#
# Stress axis : x y z
#
# Youngs Moduli (GPa) = 101.90255 65.19108 46.99484
#
# Poissons Ratio (x) = 0.16678 0.16990
# Poissons Ratio (y) = 0.26069 0.24056
# Poissons Ratio (z) = 0.36840 0.33371
#
# Static dielectric constant tensor:
#      x y z
#    x 1.698600 0.000000 0.000000 
#    y 0.000000 1.688340 0.000000 
#    z 0.000000 0.000000 1.759450 
# 
# From -- ./inp_files/20257.got.cif
#   From: 2010.05.17/outbox.cif.g08.bks.cpg/sg20_11_cif.got.tgz:20257.got - 2010.06.03 22:52:26.
