data_PCOD9317329
_publ_section_title
;
Structure prediction by ZEFSAII (Michael W. Deem and Ramdas Pophale) SiO2 
 PCOD9317329
Probable space group: C 2 2 21
;
_chemical_formula_sum "Si O2"
_cell_formula_units_Z 44
_cell_length_a 13.205191
_cell_length_b 13.345670
_cell_length_c 12.493944
_cell_angle_alpha 90.000000
_cell_angle_beta 90.000000
_cell_angle_gamma 90.000000
_cell_volume 2201.834255
_symmetry_space_group_name_H-M "C 2 2 21"
_symmetry_group_IT_number 20
_symmetry_cell_setting 'orthorhombic'
loop_
_space_group_symop_operation_xyz
x,y,z
-x,-y,1/2+z
x,-y,-z
-x,y,1/2-z
1/2+x,1/2+y,z
1/2-x,1/2-y,1/2+z
1/2+x,1/2-y,-z
1/2-x,1/2+y,1/2-z
loop_
_atom_site_type_symbol
_atom_site_label
_atom_site_fract_x
_atom_site_fract_y
_atom_site_fract_z
Si Si1 0.194081 0.612236 0.538456
Si Si2 0.114110 0.448029 0.248017
Si Si3 0.000000 0.208292 0.750000
Si Si4 0.309441 0.838884 0.802051
Si Si5 0.067067 0.886791 0.038570
Si Si6 0.908774 0.752044 0.666430
O O1 0.172059 0.500000 0.500000
O O2 0.133067 0.621431 0.647301
O O3 0.170944 0.672252 0.430648
O O4 0.312753 0.617861 0.565309
O O5 0.183003 0.545912 0.260923
O O6 0.118996 0.366466 0.153448
O O7 0.000000 0.487822 0.250000
O O8 0.898268 0.275495 0.747663
O O9 0.996194 0.142402 0.642687
O O10 0.194308 0.803208 0.790767
O O11 0.057580 0.807604 0.941947
O O12 0.045693 0.000000 0.000000
O O13 0.000000 0.762155 0.750000
#
# Coordination Sequence:
#
# PCOD9317329 Si02
#       6
#     8   8   4   8   8   8
#     4   8  17  36  62  83 126 175 211 248 320 390
#     4  10  19  36  63  94 130 172 214 261 317 387
#     4  12  24  38  66  96 134 164 220 274 332 384
#     4  10  21  39  62  99 132 166 217 273 325 382
#     4  10  23  43  62  94 125 177 218 268 332 388
#     4  10  23  41  69  94 128 176 224 258 324 403
#
# _framework density 19.983338
#
# number of rings (size 3 to 8) (size 9 to 14) (size 15 to 20)
#    0.000    2.182    0.909    2.182    6.364    0.000 
#    0.000    0.909    0.000    0.000    0.000    0.000 
#    0.000    0.000    0.000    0.000    0.000    0.000 
#
# Total GULP energy -122579.581538 kJ/mol
# GULP energy per Si atom -5571.799161 kJ/mol
# Density = 1.993786 g / cm^3
# Si number density = 19.983338 Si / 1000 Ang^3
#
#
#
# Elastic Constant Matrix: (Units=GPa)
#
#
# Indices 1 2 3 4 5 6 
#
# 1 75.1607 42.0187 34.9170 0.0000 0.0000 0.0000
# 2 42.0187 114.9490 52.6776 0.0000 0.0000 0.0000
# 3 34.9170 52.6776 81.6181 0.0000 0.0000 0.0000
# 4 0.0000 0.0000 0.0000 24.4792 0.0000 0.0000
# 5 0.0000 0.0000 0.0000 0.0000 32.1551 0.0000
# 6 0.0000 0.0000 0.0000 0.0000 0.0000 27.1207
#
#
#
# Elastic Compliance Matrix: (Units=1/GPa)
#
#
# Indices 1 2 3 4 5 6 
#
# 1 0.018007 -0.004334 -0.004906 0.000000 0.000000 0.000000
# 2 -0.004334 0.013396 -0.006792 0.000000 0.000000 0.000000
# 3 -0.004906 -0.006792 0.018735 0.000000 0.000000 0.000000
# 4 0.000000 0.000000 0.000000 0.040851 0.000000 0.000000
# 5 0.000000 0.000000 0.000000 0.000000 0.031099 0.000000
# 6 0.000000 0.000000 0.000000 0.000000 0.000000 0.036872
#
#
# Mechanical properties :
#
#
# Convention : Reuss Voigt Hill
#
# Bulk Modulus (GPa) = 55.32975 58.99492 57.16234
# Shear Modulus (GPa) = 25.37423 26.22529 25.79976
#
# Velocity S-wave (km/s) = 3.56725 3.62658 3.59704
# Velocity P-wave (km/s) = 6.68693 6.86456 6.77633
#
# Compressibility (1/GPa) = 0.01807346
#
# Stress axis : x y z
#
# Youngs Moduli (GPa) = 55.53383 74.64714 53.37615
#
# Poissons Ratio (x) = 0.32351 0.26189
# Poissons Ratio (y) = 0.24068 0.36254
# Poissons Ratio (z) = 0.27247 0.50701
#
# Static dielectric constant tensor:
#      x y z
#    x 1.704390 0.000000 0.000000 
#    y 0.000000 1.727570 0.000000 
#    z 0.000000 0.000000 1.774000 
# 
# From -- ./inp_files/20603.got.cif
#   From: 2010.05.17/outbox.cif.g08.bks.cpg/sg20_11_cif.got.tgz:20603.got - 2010.06.03 22:52:26.
