data_PCOD9317643
_publ_section_title
;
Structure prediction by ZEFSAII (Michael W. Deem and Ramdas Pophale) SiO2 
 PCOD9317643
Probable space group: C 2 2 21
;
_chemical_formula_sum "Si O2"
_cell_formula_units_Z 48
_cell_length_a 19.433062
_cell_length_b 13.472724
_cell_length_c 7.998839
_cell_angle_alpha 90.000000
_cell_angle_beta 90.000000
_cell_angle_gamma 90.000000
_cell_volume 2094.226278
_symmetry_space_group_name_H-M "C 2 2 21"
_symmetry_group_IT_number 20
_symmetry_cell_setting 'orthorhombic'
loop_
_space_group_symop_operation_xyz
x,y,z
-x,-y,1/2+z
x,-y,-z
-x,y,1/2-z
1/2+x,1/2+y,z
1/2-x,1/2-y,1/2+z
1/2+x,1/2-y,-z
1/2-x,1/2+y,1/2-z
loop_
_atom_site_type_symbol
_atom_site_label
_atom_site_fract_x
_atom_site_fract_y
_atom_site_fract_z
Si Si1 0.385387 0.634361 0.338053
Si Si2 0.925925 0.941421 0.176955
Si Si3 0.813092 0.382030 0.495132
Si Si4 0.968183 0.693050 0.567304
Si Si5 0.242055 0.291349 0.657249
Si Si6 0.392257 0.751451 0.982724
O O1 0.393624 0.520164 0.301908
O O2 0.446241 0.689951 0.435453
O O3 0.310156 0.653518 0.405753
O O4 0.390291 0.696382 0.162099
O O5 0.888782 0.837880 0.149718
O O6 0.000000 0.921183 0.250000
O O7 0.929887 0.000000 0.000000
O O8 0.801673 0.500000 0.500000
O O9 0.895714 0.360530 0.473050
O O10 0.782390 0.332318 0.663634
O O11 0.769421 0.322740 0.354375
O O12 0.000000 0.665381 0.750000
O O13 0.037205 0.688280 0.457117
O O14 0.176966 0.310852 0.540158
#
# Coordination Sequence:
#
# PCOD9317643 Si02
#       6
#     8   8   8   8   8   8
#     4   9  18  37  59  88 130 181 211 279 355 412
#     4  10  20  33  57  91 124 165 216 270 340 413
#     4  11  26  47  74 103 143 197 236 296 365 429
#     4   9  20  42  68  92 137 181 231 293 356 409
#     4  11  23  41  70  98 140 183 237 293 356 422
#     4  10  20  35  63  91 127 172 223 284 342 411
#
# _framework density 22.920159000000002
#
# number of rings (size 3 to 8) (size 9 to 14) (size 15 to 20)
#    0.000    2.000    1.667    2.500    4.667    0.000 
#    3.000    0.833    0.000    0.000    0.000    0.000 
#    0.000    0.000    0.000    0.000    0.000    0.000 
#
# Total GULP energy -133948.286797 kJ/mol
# GULP energy per Si atom -5581.178617 kJ/mol
# Density = 2.286799 g / cm^3
# Si number density = 22.920159 Si / 1000 Ang^3
#
#
#
# Elastic Constant Matrix: (Units=GPa)
#
#
# Indices 1 2 3 4 5 6 
#
# 1 184.7676 28.9542 27.0753 0.0000 0.0000 0.0000
# 2 28.9542 82.0828 33.6772 0.0000 0.0000 0.0000
# 3 27.0753 33.6772 58.5682 0.0000 0.0000 0.0000
# 4 0.0000 0.0000 0.0000 21.1622 0.0000 0.0000
# 5 0.0000 0.0000 0.0000 0.0000 43.1012 0.0000
# 6 0.0000 0.0000 0.0000 0.0000 0.0000 16.7027
#
#
#
# Elastic Compliance Matrix: (Units=1/GPa)
#
#
# Indices 1 2 3 4 5 6 
#
# 1 0.005903 -0.001260 -0.002005 0.000000 0.000000 0.000000
# 2 -0.001260 0.016213 -0.008740 0.000000 0.000000 0.000000
# 3 -0.002005 -0.008740 0.023027 0.000000 0.000000 0.000000
# 4 0.000000 0.000000 0.000000 0.047254 0.000000 0.000000
# 5 0.000000 0.000000 0.000000 0.000000 0.023201 0.000000
# 6 0.000000 0.000000 0.000000 0.000000 0.000000 0.059870
#
#
# Mechanical properties :
#
#
# Convention : Reuss Voigt Hill
#
# Bulk Modulus (GPa) = 47.31812 56.09244 51.70528
# Shear Modulus (GPa) = 24.21037 31.90735 28.05886
#
# Velocity S-wave (km/s) = 3.25359 3.73514 3.50265
# Velocity P-wave (km/s) = 5.89949 6.56718 6.24227
#
# Compressibility (1/GPa) = 0.02113355
#
# Stress axis : x y z
#
# Youngs Moduli (GPa) = 169.39421 61.67787 43.42811
#
# Poissons Ratio (x) = 0.07771 0.08706
# Poissons Ratio (y) = 0.21343 0.37958
# Poissons Ratio (z) = 0.33956 0.53908
#
# Static dielectric constant tensor:
#      x y z
#    x 1.857250 0.000000 0.000000 
#    y 0.000000 1.871710 0.000000 
#    z 0.000000 0.000000 1.973920 
# 
# From -- ./inp_files/9338.got.cif
#   From: 2010.05.17/outbox.cif.g08.bks.cpg/sg20_5_cif.got.tgz:9338.got - 2010.06.03 22:52:26.
