data_PCOD9317166
_publ_section_title
;
Structure prediction by ZEFSAII (Michael W. Deem and Ramdas Pophale) SiO2 
 PCOD9317166
Probable space group: C 2 2 21
;
_chemical_formula_sum "Si O2"
_cell_formula_units_Z 64
_cell_length_a 9.522054
_cell_length_b 23.497123
_cell_length_c 14.532452
_cell_angle_alpha 90.000000
_cell_angle_beta 90.000000
_cell_angle_gamma 90.000000
_cell_volume 3251.503513
_symmetry_space_group_name_H-M "C 2 2 21"
_symmetry_group_IT_number 20
_symmetry_cell_setting 'orthorhombic'
loop_
_space_group_symop_operation_xyz
x,y,z
-x,-y,1/2+z
x,-y,-z
-x,y,1/2-z
1/2+x,1/2+y,z
1/2-x,1/2-y,1/2+z
1/2+x,1/2-y,-z
1/2-x,1/2+y,1/2-z
loop_
_atom_site_type_symbol
_atom_site_label
_atom_site_fract_x
_atom_site_fract_y
_atom_site_fract_z
Si Si1 0.292332 0.164295 0.333104
Si Si2 0.645689 0.426734 0.300754
Si Si3 0.738158 0.777039 0.655557
Si Si4 0.647792 0.555381 0.297765
Si Si5 0.492152 0.317893 0.571699
Si Si6 0.989967 0.694862 0.014608
Si Si7 0.522293 0.561567 0.496912
Si Si8 0.612388 0.838583 0.171515
O O1 0.329641 0.208039 0.252441
O O2 0.265359 0.103074 0.285879
O O3 0.148615 0.179850 0.387267
O O4 0.409773 0.167385 0.409800
O O5 0.500000 0.407252 0.250000
O O6 0.676113 0.491067 0.266303
O O7 0.604333 0.430287 0.408216
O O8 0.787923 0.390150 0.296177
O O9 0.658501 0.799845 0.565908
O O10 0.773962 0.710823 0.650883
O O11 0.887494 0.808393 0.655783
O O12 0.500000 0.571908 0.250000
O O13 0.621255 0.554275 0.407717
O O14 0.475911 0.261193 0.509835
O O15 0.452925 0.377153 0.522382
O O16 0.018605 0.659489 0.921512
O O17 0.443506 0.500000 0.500000
O O18 0.500000 0.823180 0.250000
#
# Coordination Sequence:
#
# PCOD9317166 Si02
#       8
#     8   8   8   8   8   8   8   8
#     4  11  20  36  60  84 112 148 192 245 293 342
#     4  10  21  37  61  88 114 150 197 241 288 354
#     4  11  22  36  56  82 112 150 192 234 287 349
#     4   9  18  35  60  88 114 147 194 244 290 346
#     4  10  19  35  56  79 112 148 185 238 289 340
#     4  11  23  37  54  82 115 150 190 236 290 350
#     4   9  17  31  55  85 110 140 184 235 284 334
#     4  11  24  41  58  84 121 159 195 241 304 359
#
# _framework density 19.683202999999999
#
# number of rings (size 3 to 8) (size 9 to 14) (size 15 to 20)
#    0.000    1.750    0.000    7.500    0.000    3.000 
#    0.000    1.250    0.000    1.500    0.000    0.000 
#    0.000    0.000    0.000    0.000    0.000    0.000 
#
# Total GULP energy -178182.515831 kJ/mol
# GULP energy per Si atom -5568.203620 kJ/mol
# Density = 1.963840 g / cm^3
# Si number density = 19.683203 Si / 1000 Ang^3
#
#
#
# Elastic Constant Matrix: (Units=GPa)
#
#
# Indices 1 2 3 4 5 6 
#
# 1 76.0822 21.0514 13.1592 0.0000 0.0000 0.0000
# 2 21.0514 86.6875 -19.4010 0.0000 0.0000 0.0000
# 3 13.1592 -19.4010 61.4898 0.0000 0.0000 0.0000
# 4 0.0000 0.0000 0.0000 19.6317 0.0000 0.0000
# 5 0.0000 0.0000 0.0000 0.0000 29.8116 0.0000
# 6 0.0000 0.0000 0.0000 0.0000 0.0000 25.1958
#
#
#
# Elastic Compliance Matrix: (Units=1/GPa)
#
#
# Indices 1 2 3 4 5 6 
#
# 1 0.015295 -0.004785 -0.004783 0.000000 0.000000 0.000000
# 2 -0.004785 0.013909 0.005412 0.000000 0.000000 0.000000
# 3 -0.004783 0.005412 0.018994 0.000000 0.000000 0.000000
# 4 0.000000 0.000000 0.000000 0.050938 0.000000 0.000000
# 5 0.000000 0.000000 0.000000 0.000000 0.033544 0.000000
# 6 0.000000 0.000000 0.000000 0.000000 0.000000 0.039689
#
#
# Mechanical properties :
#
#
# Convention : Reuss Voigt Hill
#
# Bulk Modulus (GPa) = 25.07033 28.20875 26.63954
# Shear Modulus (GPa) = 25.77653 28.89116 27.33384
#
# Velocity S-wave (km/s) = 3.62272 3.83535 3.73055
# Velocity P-wave (km/s) = 5.50122 5.82887 5.66741
#
# Compressibility (1/GPa) = 0.03988778
#
# Stress axis : x y z
#
# Youngs Moduli (GPa) = 65.38176 71.89629 52.64792
#
# Poissons Ratio (x) = 0.34400 0.25180
# Poissons Ratio (y) = 0.31283 -0.28495
# Poissons Ratio (z) = 0.31271 -0.38913
#
# Static dielectric constant tensor:
#      x y z
#    x 1.723590 0.000000 0.000000 
#    y 0.000000 1.778050 0.000000 
#    z 0.000000 0.000000 1.702350 
# 
# From -- ./inp_files/19372.got.cif
#   From: 2010.05.17/outbox.cif.g08.bks.cpg/sg20_10_cif.got.tgz:19372.got - 2010.06.03 22:52:26.
