data_PCOD9317708
_publ_section_title
;
Structure prediction by ZEFSAII (Michael W. Deem and Ramdas Pophale) SiO2 
 PCOD9317708
Probable space group: C 2 2 21
;
_chemical_formula_sum "Si O2"
_cell_formula_units_Z 36
_cell_length_a 11.035866
_cell_length_b 10.820248
_cell_length_c 11.822813
_cell_angle_alpha 90.000000
_cell_angle_beta 90.000000
_cell_angle_gamma 90.000000
_cell_volume 1411.771642
_symmetry_space_group_name_H-M "C 2 2 21"
_symmetry_group_IT_number 20
_symmetry_cell_setting 'orthorhombic'
loop_
_space_group_symop_operation_xyz
x,y,z
-x,-y,1/2+z
x,-y,-z
-x,y,1/2-z
1/2+x,1/2+y,z
1/2-x,1/2-y,1/2+z
1/2+x,1/2-y,-z
1/2-x,1/2+y,1/2-z
loop_
_atom_site_type_symbol
_atom_site_label
_atom_site_fract_x
_atom_site_fract_y
_atom_site_fract_z
Si Si1 0.688207 0.618496 0.384288
Si Si2 0.306330 0.849630 0.822839
Si Si3 0.500000 0.966658 0.250000
Si Si4 0.907352 0.500000 0.500000
Si Si5 0.169752 0.000000 0.000000
Si Si6 0.951138 0.869207 0.098419
O O1 0.706208 0.691177 0.268634
O O2 0.814820 0.605201 0.452002
O O3 0.587355 0.665469 0.470318
O O4 0.637181 0.480200 0.362385
O O5 0.371699 0.966694 0.768147
O O6 0.246734 0.896410 0.937033
O O7 0.411011 0.750137 0.835628
O O8 0.477186 0.941853 0.390187
O O9 0.082937 0.071516 0.910708
#
# Coordination Sequence:
#
# PCOD9317708 Si02
#       6
#     8   8   4   4   4   8
#     4   8  19  39  59  88 128 175 223 275 344 411
#     4  11  22  38  66  96 132 180 225 282 347 410
#     4  10  20  34  58  92 128 170 222 272 336 408
#     4   8  16  34  54  78 120 164 210 272 330 394
#     4  10  24  42  66 102 132 172 234 282 344 426
#     4   9  21  40  62  93 136 173 221 287 340 406
#
# _framework density 25.499873999999998
#
# number of rings (size 3 to 8) (size 9 to 14) (size 15 to 20)
#    0.000    3.111    0.000    0.667    0.000   12.444 
#    0.000    2.222    0.000    8.000    0.000    0.000 
#    0.000    0.000    0.000    0.000    0.000    0.000 
#
# Total GULP energy -100205.501570 kJ/mol
# GULP energy per Si atom -5566.972309 kJ/mol
# Density = 2.544184 g / cm^3
# Si number density = 25.499874 Si / 1000 Ang^3
#
#
#
# Elastic Constant Matrix: (Units=GPa)
#
#
# Indices 1 2 3 4 5 6 
#
# 1 78.4349 31.0218 35.2338 0.0000 0.0000 0.0000
# 2 31.0218 56.8547 42.8735 0.0000 0.0000 0.0000
# 3 35.2338 42.8735 135.0311 0.0000 0.0000 0.0000
# 4 0.0000 0.0000 0.0000 -1.0234 0.0000 0.0000
# 5 0.0000 0.0000 0.0000 0.0000 36.2536 0.0000
# 6 0.0000 0.0000 0.0000 0.0000 0.0000 -12.3111
#
#
#
# Elastic Compliance Matrix: (Units=1/GPa)
#
#
# Indices 1 2 3 4 5 6 
#
# 1 0.016627 -0.007627 -0.001917 0.000000 0.000000 0.000000
# 2 -0.007627 0.026624 -0.006463 0.000000 0.000000 0.000000
# 3 -0.001917 -0.006463 0.009958 0.000000 0.000000 0.000000
# 4 0.000000 0.000000 0.000000 -0.977110 0.000000 0.000000
# 5 0.000000 0.000000 0.000000 0.000000 0.027583 0.000000
# 6 0.000000 0.000000 0.000000 0.000000 0.000000 -0.081228
#
#
# Mechanical properties :
#
#
# Convention : Reuss Voigt Hill
#
# Bulk Modulus (GPa) = 47.18065 54.28655 50.73360
# Shear Modulus (GPa) = -5.32784 15.32992 5.00104
#
# Velocity S-wave (km/s) = -1.44703 2.45455 1.40195
# Velocity P-wave (km/s) = 3.96870 5.41925 4.74968
#
# Compressibility (1/GPa) = 0.02119513
#
# Stress axis : x y z
#
# Youngs Moduli (GPa) = 60.14329 37.56015 100.42133
#
# Poissons Ratio (x) = 0.28646 0.19250
# Poissons Ratio (y) = 0.45869 0.64905
# Poissons Ratio (z) = 0.11529 0.24276
#
# Static dielectric constant tensor:
#      x y z
#    x 2.020840 0.000000 0.000000 
#    y 0.000000 2.073920 0.000000 
#    z 0.000000 0.000000 2.245810 
# 
# From -- ./inp_files/13706.got.cif
#   From: 2010.05.17/outbox.cif.g08.bks.cpg/sg20_7_cif.got.tgz:13706.got - 2010.06.03 22:52:26.
