data_PCOD9317149
_publ_section_title
;
Structure prediction by ZEFSAII (Michael W. Deem and Ramdas Pophale) SiO2 
 PCOD9317149
Probable space group: C 2 2 21
;
_chemical_formula_sum "Si O2"
_cell_formula_units_Z 56
_cell_length_a 13.677625
_cell_length_b 13.165101
_cell_length_c 11.876062
_cell_angle_alpha 90.000000
_cell_angle_beta 90.000000
_cell_angle_gamma 90.000000
_cell_volume 2138.490592
_symmetry_space_group_name_H-M "C 2 2 21"
_symmetry_group_IT_number 20
_symmetry_cell_setting 'orthorhombic'
loop_
_space_group_symop_operation_xyz
x,y,z
-x,-y,1/2+z
x,-y,-z
-x,y,1/2-z
1/2+x,1/2+y,z
1/2-x,1/2-y,1/2+z
1/2+x,1/2-y,-z
1/2-x,1/2+y,1/2-z
loop_
_atom_site_type_symbol
_atom_site_label
_atom_site_fract_x
_atom_site_fract_y
_atom_site_fract_z
Si Si1 0.388819 0.276818 0.787034
Si Si2 0.577956 0.230777 0.155804
Si Si3 0.606674 0.102668 0.953549
Si Si4 0.825809 0.441863 0.209702
Si Si5 0.399019 0.553514 0.766434
Si Si6 0.166607 0.846694 0.482888
Si Si7 0.789850 0.348446 0.836131
O O1 0.500000 0.259880 0.750000
O O2 0.337764 0.172304 0.834320
O O3 0.325659 0.321670 0.682058
O O4 0.378738 0.348862 0.894443
O O5 0.500000 0.196484 0.250000
O O6 0.589386 0.350088 0.180053
O O7 0.672847 0.177282 0.209479
O O8 0.561768 0.194391 0.028177
O O9 0.608585 0.077772 0.820876
O O10 0.722302 0.113379 0.980271
O O11 0.562189 0.000000 0.000000
O O12 0.714366 0.471030 0.245198
O O13 0.839053 0.542871 0.136325
O O14 0.500000 0.492502 0.750000
O O15 0.396368 0.590337 0.894614
O O16 0.173298 0.736426 0.422593
#
# Coordination Sequence:
#
# PCOD9317149 Si02
#       7
#     8   8   8   8   8   8   8
#     4  12  25  44  67 101 139 176 225 289 342 407
#     4  10  19  34  63  91 122 166 219 272 327 400
#     4  11  18  36  68  95 128 177 228 271 333 418
#     4  11  22  39  66  98 132 176 226 279 342 401
#     4   9  19  37  63  94 123 170 228 275 326 417
#     4  10  21  42  67  94 130 185 217 271 357 399
#     4  11  22  43  64  93 137 177 220 281 338 407
#
# _framework density 26.186695
#
# number of rings (size 3 to 8) (size 9 to 14) (size 15 to 20)
#    0.000    1.429    7.143    0.000    0.000    5.143 
#    2.571    0.000    0.000    0.000    0.000    0.000 
#    0.000    0.000    0.000    0.000    0.000    0.000 
#
# Total GULP energy -156122.694453 kJ/mol
# GULP energy per Si atom -5575.810516 kJ/mol
# Density = 2.612709 g / cm^3
# Si number density = 26.186695 Si / 1000 Ang^3
#
#
#
# Elastic Constant Matrix: (Units=GPa)
#
#
# Indices 1 2 3 4 5 6 
#
# 1 119.7870 13.0346 21.3116 0.0000 0.0000 0.0000
# 2 13.0346 135.0054 21.0149 0.0000 0.0000 0.0000
# 3 21.3116 21.0149 91.3398 0.0000 0.0000 0.0000
# 4 0.0000 0.0000 0.0000 14.1500 0.0000 0.0000
# 5 0.0000 0.0000 0.0000 0.0000 29.4925 0.0000
# 6 0.0000 0.0000 0.0000 0.0000 0.0000 23.3599
#
#
#
# Elastic Compliance Matrix: (Units=1/GPa)
#
#
# Indices 1 2 3 4 5 6 
#
# 1 0.008748 -0.000546 -0.001915 0.000000 0.000000 0.000000
# 2 -0.000546 0.007716 -0.001648 0.000000 0.000000 0.000000
# 3 -0.001915 -0.001648 0.011774 0.000000 0.000000 0.000000
# 4 0.000000 0.000000 0.000000 0.070671 0.000000 0.000000
# 5 0.000000 0.000000 0.000000 0.000000 0.033907 0.000000
# 6 0.000000 0.000000 0.000000 0.000000 0.000000 0.042808
#
#
# Mechanical properties :
#
#
# Convention : Reuss Voigt Hill
#
# Bulk Modulus (GPa) = 49.95158 50.76161 50.35659
# Shear Modulus (GPa) = 26.24423 32.78524 29.51473
#
# Velocity S-wave (km/s) = 3.16918 3.54217 3.36086
# Velocity P-wave (km/s) = 5.70160 6.01298 5.85936
#
# Compressibility (1/GPa) = 0.02001939
#
# Stress axis : x y z
#
# Youngs Moduli (GPa) = 114.30663 129.59458 84.93161
#
# Poissons Ratio (x) = 0.07082 0.16268
# Poissons Ratio (y) = 0.06247 0.13995
# Poissons Ratio (z) = 0.21895 0.21355
#
# Static dielectric constant tensor:
#      x y z
#    x 2.200070 0.000000 0.000000 
#    y 0.000000 2.275810 0.000000 
#    z 0.000000 0.000000 1.004370 
# 
# From -- ./inp_files/15147.got.cif
#   From: 2010.05.17/outbox.cif.g08.bks.cpg/sg20_8_cif.got.tgz:15147.got - 2010.06.03 22:52:26.
