data_PCOD9317461
_publ_section_title
;
Structure prediction by ZEFSAII (Michael W. Deem and Ramdas Pophale) SiO2 
 PCOD9317461
Probable space group: C 2 2 21
;
_chemical_formula_sum "Si O2"
_cell_formula_units_Z 32
_cell_length_a 14.122732
_cell_length_b 12.295876
_cell_length_c 8.208067
_cell_angle_alpha 90.000000
_cell_angle_beta 90.000000
_cell_angle_gamma 90.000000
_cell_volume 1425.342009
_symmetry_space_group_name_H-M "C 2 2 21"
_symmetry_group_IT_number 20
_symmetry_cell_setting 'orthorhombic'
loop_
_space_group_symop_operation_xyz
x,y,z
-x,-y,1/2+z
x,-y,-z
-x,y,1/2-z
1/2+x,1/2+y,z
1/2-x,1/2-y,1/2+z
1/2+x,1/2-y,-z
1/2-x,1/2+y,1/2-z
loop_
_atom_site_type_symbol
_atom_site_label
_atom_site_fract_x
_atom_site_fract_y
_atom_site_fract_z
Si Si1 0.838755 0.380377 0.435576
Si Si2 0.792300 0.279348 0.114263
Si Si3 0.432846 0.402400 0.893840
Si Si4 0.025522 0.307532 0.564253
O O1 0.817828 0.500000 0.500000
O O2 0.788462 0.362432 0.261974
O O3 0.799275 0.279711 0.544167
O O4 0.952674 0.367493 0.443121
O O5 0.853404 0.176194 0.180232
O O6 0.863858 0.328039 0.977720
O O7 0.500000 0.440250 0.750000
O O8 0.394453 0.500000 0.000000
O O9 0.485022 0.319974 0.018653
O O10 0.000000 0.331975 0.750000
#
# Coordination Sequence:
#
# PCOD9317461 Si02
#       4
#     8   8   8   8
#     4  12  24  45  71  97 137 182 224 286 349 400
#     4  10  23  44  63 102 138 170 236 283 321 423
#     4  10  19  38  66  96 134 176 222 273 336 395
#     4  10  21  41  66  98 139 176 225 281 327 412
#
# _framework density 22.450752999999999
#
# number of rings (size 3 to 8) (size 9 to 14) (size 15 to 20)
#    1.500    0.000    2.500    3.750    0.000    2.000 
#    4.500    3.750    0.000    0.000    0.000    0.000 
#    0.000    0.000    0.000    0.000    0.000    0.000 
#
# Total GULP energy -89157.584114 kJ/mol
# GULP energy per Si atom -5572.349007 kJ/mol
# Density = 2.239965 g / cm^3
# Si number density = 22.450753 Si / 1000 Ang^3
#
#
#
# Elastic Constant Matrix: (Units=GPa)
#
#
# Indices 1 2 3 4 5 6 
#
# 1 64.1699 11.0047 -8.2110 0.0000 0.0000 0.0000
# 2 11.0047 69.8206 30.0480 0.0000 0.0000 0.0000
# 3 -8.2110 30.0480 81.6354 0.0000 0.0000 0.0000
# 4 0.0000 0.0000 0.0000 38.2713 0.0000 0.0000
# 5 0.0000 0.0000 0.0000 0.0000 32.2987 0.0000
# 6 0.0000 0.0000 0.0000 0.0000 0.0000 1.3804
#
#
#
# Elastic Compliance Matrix: (Units=1/GPa)
#
#
# Indices 1 2 3 4 5 6 
#
# 1 0.016668 -0.003979 0.003141 0.000000 0.000000 0.000000
# 2 -0.003979 0.017968 -0.007014 0.000000 0.000000 0.000000
# 3 0.003141 -0.007014 0.015147 0.000000 0.000000 0.000000
# 4 0.000000 0.000000 0.000000 0.026129 0.000000 0.000000
# 5 0.000000 0.000000 0.000000 0.000000 0.030961 0.000000
# 6 0.000000 0.000000 0.000000 0.000000 0.000000 0.724441
#
#
# Mechanical properties :
#
#
# Convention : Reuss Voigt Hill
#
# Bulk Modulus (GPa) = 29.34295 31.25659 30.29977
# Shear Modulus (GPa) = 5.82494 26.57569 16.20031
#
# Velocity S-wave (km/s) = 1.61251 3.44427 2.68916
# Velocity P-wave (km/s) = 4.07004 5.45618 4.81327
#
# Compressibility (1/GPa) = 0.03407974
#
# Stress axis : x y z
#
# Youngs Moduli (GPa) = 59.99553 55.65449 66.01911
#
# Poissons Ratio (x) = 0.22144 -0.20737
# Poissons Ratio (y) = 0.23871 0.46304
# Poissons Ratio (z) = -0.18845 0.39035
#
# Static dielectric constant tensor:
#      x y z
#    x 1.867080 0.000000 0.000000 
#    y 0.000000 1.801810 0.000000 
#    z 0.000000 0.000000 1.846770 
# 
# From -- ./inp_files/6882.got.cif
#   From: 2010.05.17/outbox.cif.g08.bks.cpg/sg20_4_cif.got.tgz:6882.got - 2010.06.03 22:52:26.
