data_PCOD9317667
_publ_section_title
;
Structure prediction by ZEFSAII (Michael W. Deem and Ramdas Pophale) SiO2 
 PCOD9317667
Probable space group: C 2 2 21
;
_chemical_formula_sum "Si O2"
_cell_formula_units_Z 48
_cell_length_a 33.577619
_cell_length_b 13.037647
_cell_length_c 5.315648
_cell_angle_alpha 90.000000
_cell_angle_beta 90.000000
_cell_angle_gamma 90.000000
_cell_volume 2327.047935
_symmetry_space_group_name_H-M "C 2 2 21"
_symmetry_group_IT_number 20
_symmetry_cell_setting 'orthorhombic'
loop_
_space_group_symop_operation_xyz
x,y,z
-x,-y,1/2+z
x,-y,-z
-x,y,1/2-z
1/2+x,1/2+y,z
1/2-x,1/2-y,1/2+z
1/2+x,1/2-y,-z
1/2-x,1/2+y,1/2-z
loop_
_atom_site_type_symbol
_atom_site_label
_atom_site_fract_x
_atom_site_fract_y
_atom_site_fract_z
Si Si1 0.862264 0.500000 0.500000
Si Si2 0.220056 0.118633 0.778609
Si Si3 0.813517 0.114006 0.226027
Si Si4 0.382421 0.262170 0.893449
Si Si5 0.312951 0.107507 0.861561
Si Si6 0.500000 0.932662 0.750000
Si Si7 0.082002 0.326881 0.870906
O O1 0.831305 0.585653 0.589546
O O2 0.892709 0.567182 0.333291
O O3 0.213404 0.158484 0.498908
O O4 0.265968 0.120748 0.851783
O O5 0.201784 0.002868 0.755088
O O6 0.195778 0.167784 0.008019
O O7 0.859864 0.130558 0.163352
O O8 0.343554 0.192128 0.955247
O O9 0.405224 0.218479 0.645611
O O10 0.408090 0.251558 0.145085
O O11 0.320117 0.000000 0.000000
O O12 0.536732 0.863158 0.843144
O O13 0.511101 0.000000 0.500000
#
# Coordination Sequence:
#
# PCOD9317667 Si02
#       7
#     4   8   8   8   8   4   8
#     4  10  20  34  52  74 112 148 196 222 272 318
#     4  10  21  35  57  74 112 145 201 236 292 326
#     4  10  20  37  53  79 105 149 189 249 279 336
#     4  11  24  36  57  81 116 145 195 231 287 330
#     4  11  20  33  51  73 109 157 187 236 282 320
#     4  12  24  38  64  86 116 152 190 220 268 340
#     4  11  23  38  55  84 111 147 183 230 264 339
#
# _framework density 20.626992000000001
#
# number of rings (size 3 to 8) (size 9 to 14) (size 15 to 20)
#    0.000    1.333    4.167    3.000    2.333    1.333 
#    0.000    0.000    0.000    0.000    0.000    0.000 
#    0.000   53.333    0.000    0.000    0.000    0.000 
#
# Total GULP energy -133635.664174 kJ/mol
# GULP energy per Si atom -5568.152674 kJ/mol
# Density = 2.058004 g / cm^3
# Si number density = 20.626992 Si / 1000 Ang^3
#
#
#
# Elastic Constant Matrix: (Units=GPa)
#
#
# Indices 1 2 3 4 5 6 
#
# 1 108.4532 33.4130 24.9098 0.0000 0.0000 0.0000
# 2 33.4130 58.2413 8.9137 0.0000 0.0000 0.0000
# 3 24.9098 8.9137 125.3142 0.0000 0.0000 0.0000
# 4 0.0000 0.0000 0.0000 7.1619 0.0000 0.0000
# 5 0.0000 0.0000 0.0000 0.0000 -40.4804 0.0000
# 6 0.0000 0.0000 0.0000 0.0000 0.0000 22.5937
#
#
#
# Elastic Compliance Matrix: (Units=1/GPa)
#
#
# Indices 1 2 3 4 5 6 
#
# 1 0.011611 -0.006378 -0.001854 0.000000 0.000000 0.000000
# 2 -0.006378 0.020862 -0.000216 0.000000 0.000000 0.000000
# 3 -0.001854 -0.000216 0.008364 0.000000 0.000000 0.000000
# 4 0.000000 0.000000 0.000000 0.139627 0.000000 0.000000
# 5 0.000000 0.000000 0.000000 0.000000 -0.024703 0.000000
# 6 0.000000 0.000000 0.000000 0.000000 0.000000 0.044260
#
#
# Mechanical properties :
#
#
# Convention : Reuss Voigt Hill
#
# Bulk Modulus (GPa) = 41.76991 47.38686 44.57838
# Shear Modulus (GPa) = 22.23233 12.83987 17.53610
#
# Velocity S-wave (km/s) = 3.28659 2.49766 2.91890
# Velocity P-wave (km/s) = 5.89036 5.59829 5.74618
#
# Compressibility (1/GPa) = 0.02394068
#
# Stress axis : x y z
#
# Youngs Moduli (GPa) = 86.12256 47.93433 119.56081
#
# Poissons Ratio (x) = 0.30571 0.22172
# Poissons Ratio (y) = 0.54926 0.02585
# Poissons Ratio (z) = 0.15971 0.01036
#
# Static dielectric constant tensor:
#      x y z
#    x 1.715390 0.000000 0.000000 
#    y 0.000000 3.721030 0.000000 
#    z 0.000000 0.000000 1.941860 
# 
# From -- ./inp_files/4654.got.cif
#   From: 2010.05.17/outbox.cif.g08.bks.cpg/sg20_3_cif.got.tgz:4654.got - 2010.06.03 22:52:26.
