data_PCOD9317568
_publ_section_title
;
Structure prediction by ZEFSAII (Michael W. Deem and Ramdas Pophale) SiO2 
 PCOD9317568
Probable space group: C 2 2 21
;
_chemical_formula_sum "Si O2"
_cell_formula_units_Z 44
_cell_length_a 18.932851
_cell_length_b 8.299577
_cell_length_c 12.068810
_cell_angle_alpha 90.000000
_cell_angle_beta 90.000000
_cell_angle_gamma 90.000000
_cell_volume 1896.428292
_symmetry_space_group_name_H-M "C 2 2 21"
_symmetry_group_IT_number 20
_symmetry_cell_setting 'orthorhombic'
loop_
_space_group_symop_operation_xyz
x,y,z
-x,-y,1/2+z
x,-y,-z
-x,y,1/2-z
1/2+x,1/2+y,z
1/2-x,1/2-y,1/2+z
1/2+x,1/2-y,-z
1/2-x,1/2+y,1/2-z
loop_
_atom_site_type_symbol
_atom_site_label
_atom_site_fract_x
_atom_site_fract_y
_atom_site_fract_z
Si Si1 0.859718 0.000000 0.000000
Si Si2 0.108934 0.318424 0.947545
Si Si3 0.068316 0.398325 0.327460
Si Si4 0.322054 0.264315 0.661379
Si Si5 0.252631 0.931733 0.661207
Si Si6 0.548521 0.231824 0.424846
O O1 0.808479 0.111048 0.073723
O O2 0.908912 0.896803 0.081980
O O3 0.133369 0.208425 0.050633
O O4 0.097572 0.500000 0.000000
O O5 0.175263 0.337296 0.865661
O O6 0.034820 0.263000 0.897042
O O7 0.127454 0.312121 0.255104
O O8 0.083216 0.584139 0.358797
O O9 0.051881 0.313293 0.444134
O O10 0.000000 0.396923 0.250000
O O11 0.277910 0.405754 0.716894
O O12 0.269008 0.117667 0.637468
#
# Coordination Sequence:
#
# PCOD9317568 Si02
#       6
#     4   8   8   8   8   8
#     4  12  24  44  60  96 138 166 202 284 336 360
#     4  10  19  43  67  85 125 173 210 258 323 391
#     4  11  20  38  67  93 117 165 221 259 314 405
#     4  11  22  39  66  91 124 167 220 257 324 391
#     4  11  24  42  64  92 129 172 214 269 322 392
#     4  11  23  40  65  93 128 165 212 270 329 387
#
# _framework density 23.201511
#
# number of rings (size 3 to 8) (size 9 to 14) (size 15 to 20)
#    0.000    1.091    8.182    1.091    2.545    0.000 
#    3.273    0.909    0.000    0.000    0.000    0.000 
#    0.000    0.000    0.000    0.000    0.000    0.000 
#
# Total GULP energy -122997.543107 kJ/mol
# GULP energy per Si atom -5590.797414 kJ/mol
# Density = 2.314870 g / cm^3
# Si number density = 23.201511 Si / 1000 Ang^3
#
#
#
# Elastic Constant Matrix: (Units=GPa)
#
#
# Indices 1 2 3 4 5 6 
#
# 1 98.7860 23.6395 0.1405 0.0000 0.0000 0.0000
# 2 23.6395 22.3276 -5.7569 0.0000 0.0000 0.0000
# 3 0.1405 -5.7569 58.6111 0.0000 0.0000 0.0000
# 4 0.0000 0.0000 0.0000 32.2191 0.0000 0.0000
# 5 0.0000 0.0000 0.0000 0.0000 15.4913 0.0000
# 6 0.0000 0.0000 0.0000 0.0000 0.0000 19.6957
#
#
#
# Elastic Compliance Matrix: (Units=1/GPa)
#
#
# Indices 1 2 3 4 5 6 
#
# 1 0.013684 -0.014873 -0.001494 0.000000 0.000000 0.000000
# 2 -0.014873 0.062117 0.006137 0.000000 0.000000 0.000000
# 3 -0.001494 0.006137 0.017668 0.000000 0.000000 0.000000
# 4 0.000000 0.000000 0.000000 0.031037 0.000000 0.000000
# 5 0.000000 0.000000 0.000000 0.000000 0.064553 0.000000
# 6 0.000000 0.000000 0.000000 0.000000 0.000000 0.050772
#
#
# Mechanical properties :
#
#
# Convention : Reuss Voigt Hill
#
# Bulk Modulus (GPa) = 13.69695 23.97456 18.83576
# Shear Modulus (GPa) = 17.56677 24.26133 20.91405
#
# Velocity S-wave (km/s) = 2.75460 3.23720 3.00560
# Velocity P-wave (km/s) = 4.00417 4.93237 4.49231
#
# Compressibility (1/GPa) = 0.07300894
#
# Stress axis : x y z
#
# Youngs Moduli (GPa) = 73.07691 16.09863 56.59963
#
# Poissons Ratio (x) = 0.23944 0.08454
# Poissons Ratio (y) = 1.08690 -0.34734
# Poissons Ratio (z) = 0.10915 -0.09880
#
# Static dielectric constant tensor:
#      x y z
#    x 1.917050 0.000000 0.000000 
#    y 0.000000 1.887680 0.000000 
#    z 0.000000 0.000000 1.999550 
# 
# From -- ./inp_files/18791.got.cif
#   From: 2010.05.17/outbox.cif.g08.bks.cpg/sg20_10_cif.got.tgz:18791.got - 2010.06.03 22:52:26.
