data_PCOD9317297
_publ_section_title
;
Structure prediction by ZEFSAII (Michael W. Deem and Ramdas Pophale) SiO2 
 PCOD9317297
Probable space group: C 2 2 21
;
_chemical_formula_sum "Si O2"
_cell_formula_units_Z 64
_cell_length_a 8.927647
_cell_length_b 21.376334
_cell_length_c 18.018508
_cell_angle_alpha 90.000000
_cell_angle_beta 90.000000
_cell_angle_gamma 90.000000
_cell_volume 3438.658627
_symmetry_space_group_name_H-M "C 2 2 21"
_symmetry_group_IT_number 20
_symmetry_cell_setting 'orthorhombic'
loop_
_space_group_symop_operation_xyz
x,y,z
-x,-y,1/2+z
x,-y,-z
-x,y,1/2-z
1/2+x,1/2+y,z
1/2-x,1/2-y,1/2+z
1/2+x,1/2-y,-z
1/2-x,1/2+y,1/2-z
loop_
_atom_site_type_symbol
_atom_site_label
_atom_site_fract_x
_atom_site_fract_y
_atom_site_fract_z
Si Si1 0.368099 0.345996 0.196398
Si Si2 0.833923 0.895334 0.777273
Si Si3 0.509930 0.203867 0.563971
Si Si4 0.157003 0.417347 0.082100
Si Si5 0.407476 0.870510 0.821564
Si Si6 0.834039 0.563436 0.413606
Si Si7 0.342176 0.246681 0.790646
Si Si8 0.671564 0.244207 0.414503
O O1 0.500000 0.370754 0.250000
O O2 0.267717 0.395143 0.148704
O O3 0.269934 0.300689 0.249947
O O4 0.417103 0.297835 0.131048
O O5 0.712263 0.916931 0.716072
O O6 0.799310 0.925803 0.855825
O O7 0.808744 0.820449 0.786028
O O8 0.000000 0.906325 0.750000
O O9 0.482491 0.130469 0.580790
O O10 0.623684 0.230106 0.624819
O O11 0.580437 0.222622 0.485949
O O12 0.340424 0.231626 0.570512
O O13 0.123132 0.490495 0.088804
O O14 0.212222 0.413585 0.995775
O O15 0.500000 0.846759 0.750000
O O16 0.525098 0.899117 0.879450
O O17 0.319151 0.815852 0.861998
O O18 0.500000 0.237299 0.750000
#
# Coordination Sequence:
#
# PCOD9317297 Si02
#       8
#     8   8   8   8   8   8   8   8
#     4  11  24  38  61  90 128 160 198 257 314 375
#     4  10  21  36  60  91 122 156 192 253 306 354
#     4  11  24  36  60  89 122 158 195 249 310 366
#     4  10  22  43  60  86 117 164 206 254 303 359
#     4  10  19  36  60  87 110 151 202 247 285 349
#     4  10  22  40  67  79 117 164 216 248 292 363
#     4  11  20  39  57  88 125 158 189 246 310 364
#     4  11  21  36  56  88 121 151 197 242 303 367
#
# _framework density 18.611908
#
# number of rings (size 3 to 8) (size 9 to 14) (size 15 to 20)
#    0.000    1.500    5.000    1.125    7.000    0.500 
#    6.750    0.000    0.000    1.500    0.000    0.000 
#    0.000    0.000    0.000    0.000    0.000    0.000 
#
# Total GULP energy -178309.321333 kJ/mol
# GULP energy per Si atom -5572.166292 kJ/mol
# Density = 1.856955 g / cm^3
# Si number density = 18.611908 Si / 1000 Ang^3
#
#
#
# Elastic Constant Matrix: (Units=GPa)
#
#
# Indices 1 2 3 4 5 6 
#
# 1 59.2530 2.3811 25.8299 0.0000 0.0000 0.0000
# 2 2.3811 43.7627 21.1015 0.0000 0.0000 0.0000
# 3 25.8299 21.1015 120.3225 0.0000 0.0000 0.0000
# 4 0.0000 0.0000 0.0000 22.9791 0.0000 0.0000
# 5 0.0000 0.0000 0.0000 0.0000 37.9841 0.0000
# 6 0.0000 0.0000 0.0000 0.0000 0.0000 11.1855
#
#
#
# Elastic Compliance Matrix: (Units=1/GPa)
#
#
# Indices 1 2 3 4 5 6 
#
# 1 0.018659 0.001001 -0.004181 0.000000 0.000000 0.000000
# 2 0.001001 0.025015 -0.004602 0.000000 0.000000 0.000000
# 3 -0.004181 -0.004602 0.010016 0.000000 0.000000 0.000000
# 4 0.000000 0.000000 0.000000 0.043518 0.000000 0.000000
# 5 0.000000 0.000000 0.000000 0.000000 0.026327 0.000000
# 6 0.000000 0.000000 0.000000 0.000000 0.000000 0.089402
#
#
# Mechanical properties :
#
#
# Convention : Reuss Voigt Hill
#
# Bulk Modulus (GPa) = 26.22916 35.77369 31.00142
# Shear Modulus (GPa) = 20.72891 26.03145 23.38018
#
# Velocity S-wave (km/s) = 3.34090 3.74390 3.54813
# Velocity P-wave (km/s) = 5.38567 6.16049 5.78607
#
# Compressibility (1/GPa) = 0.03812551
#
# Stress axis : x y z
#
# Youngs Moduli (GPa) = 53.59276 39.97611 99.84410
#
# Poissons Ratio (x) = -0.04001 0.41746
# Poissons Ratio (y) = -0.05364 0.45947
# Poissons Ratio (z) = 0.22408 0.18396
#
# Static dielectric constant tensor:
#      x y z
#    x 1.653600 0.000000 0.000000 
#    y 0.000000 1.652780 0.000000 
#    z 0.000000 0.000000 1.736490 
# 
# From -- ./inp_files/23949.got.cif
#   From: 2010.05.17/outbox.cif.g08.bks.cpg/sg20_12_cif.got.tgz:23949.got - 2010.06.03 22:52:26.
