data_PCOD9317661
_publ_section_title
;
Structure prediction by ZEFSAII (Michael W. Deem and Ramdas Pophale) SiO2 
 PCOD9317661
Probable space group: C 2 2 21
;
_chemical_formula_sum "Si O2"
_cell_formula_units_Z 48
_cell_length_a 8.104931
_cell_length_b 29.669184
_cell_length_c 9.893624
_cell_angle_alpha 90.000000
_cell_angle_beta 90.000000
_cell_angle_gamma 90.000000
_cell_volume 2379.087007
_symmetry_space_group_name_H-M "C 2 2 21"
_symmetry_group_IT_number 20
_symmetry_cell_setting 'orthorhombic'
loop_
_space_group_symop_operation_xyz
x,y,z
-x,-y,1/2+z
x,-y,-z
-x,y,1/2-z
1/2+x,1/2+y,z
1/2-x,1/2-y,1/2+z
1/2+x,1/2-y,-z
1/2-x,1/2+y,1/2-z
loop_
_atom_site_type_symbol
_atom_site_label
_atom_site_fract_x
_atom_site_fract_y
_atom_site_fract_z
Si Si1 0.468433 0.767021 0.094019
Si Si2 0.418385 0.139503 0.602524
Si Si3 0.053995 0.899095 0.391430
Si Si4 0.858203 0.385634 0.861700
Si Si5 0.094411 0.962000 0.888234
Si Si6 0.644087 0.683172 0.996612
O O1 0.500000 0.758498 0.250000
O O2 0.588216 0.808528 0.051799
O O3 0.289921 0.788315 0.070856
O O4 0.504733 0.719857 0.024942
O O5 0.500000 0.140732 0.750000
O O6 0.241191 0.117136 0.609081
O O7 0.543035 0.113927 0.503128
O O8 0.000000 0.921193 0.250000
O O9 0.023723 0.929827 0.521855
O O10 0.932499 0.856294 0.407174
O O11 0.750425 0.430788 0.847205
O O12 0.000000 0.379798 0.750000
O O13 0.730667 0.343353 0.877289
O O14 0.000000 0.975618 0.750000
O O15 0.140607 0.000000 0.000000
#
# Coordination Sequence:
#
# PCOD9317661 Si02
#       6
#     8   8   8   8   8   8
#     4  10  20  34  50  79 118 157 206 254 299 350
#     4  10  20  37  59  85 120 160 203 252 303 356
#     4  11  21  39  64  87 117 159 203 248 304 365
#     4  10  22  41  61  89 123 160 203 251 305 366
#     4  11  24  43  67  95 124 155 195 245 306 377
#     4  10  22  34  55  85 118 163 209 256 304 354
#
# _framework density 20.175806999999999
#
# number of rings (size 3 to 8) (size 9 to 14) (size 15 to 20)
#    0.000    1.667    0.000    6.500    0.000    6.667 
#    0.000    7.500    0.000    0.000    0.000    0.000 
#    0.000    0.000    0.000    0.000    0.000    0.000 
#
# Total GULP energy -133899.996624 kJ/mol
# GULP energy per Si atom -5579.166526 kJ/mol
# Density = 2.012989 g / cm^3
# Si number density = 20.175807 Si / 1000 Ang^3
#
#
#
# Elastic Constant Matrix: (Units=GPa)
#
#
# Indices 1 2 3 4 5 6 
#
# 1 90.7013 34.5683 15.1124 0.0000 0.0000 0.0000
# 2 34.5683 86.3335 32.6099 0.0000 0.0000 0.0000
# 3 15.1124 32.6099 86.7301 0.0000 0.0000 0.0000
# 4 0.0000 0.0000 0.0000 16.5368 0.0000 0.0000
# 5 0.0000 0.0000 0.0000 0.0000 32.2515 0.0000
# 6 0.0000 0.0000 0.0000 0.0000 0.0000 2.7254
#
#
#
# Elastic Compliance Matrix: (Units=1/GPa)
#
#
# Indices 1 2 3 4 5 6 
#
# 1 0.013020 -0.005078 -0.000360 0.000000 0.000000 0.000000
# 2 -0.005078 0.015480 -0.004936 0.000000 0.000000 0.000000
# 3 -0.000360 -0.004936 0.013449 0.000000 0.000000 0.000000
# 4 0.000000 0.000000 0.000000 0.060471 0.000000 0.000000
# 5 0.000000 0.000000 0.000000 0.000000 0.031006 0.000000
# 6 0.000000 0.000000 0.000000 0.000000 0.000000 0.366914
#
#
# Mechanical properties :
#
#
# Convention : Reuss Voigt Hill
#
# Bulk Modulus (GPa) = 47.16243 47.59400 47.37822
# Shear Modulus (GPa) = 9.46694 22.40104 15.93399
#
# Velocity S-wave (km/s) = 2.16850 3.33572 2.81331
# Velocity P-wave (km/s) = 5.44944 6.20297 5.83838
#
# Compressibility (1/GPa) = 0.02120332
#
# Stress axis : x y z
#
# Youngs Moduli (GPa) = 76.80326 64.59788 74.35773
#
# Poissons Ratio (x) = 0.32800 0.02674
# Poissons Ratio (y) = 0.38997 0.36701
# Poissons Ratio (z) = 0.02762 0.31884
#
# Static dielectric constant tensor:
#      x y z
#    x 1.706780 0.000000 0.000000 
#    y 0.000000 1.749220 0.000000 
#    z 0.000000 0.000000 1.741170 
# 
# From -- ./inp_files/6457.got.cif
#   From: 2010.05.17/outbox.cif.g08.bks.cpg/sg20_4_cif.got.tgz:6457.got - 2010.06.03 22:52:26.
