data_PCOD9317378
_publ_section_title
;
Structure prediction by ZEFSAII (Michael W. Deem and Ramdas Pophale) SiO2 
 PCOD9317378
Probable space group: C 2 2 21
;
_chemical_formula_sum "Si O2"
_cell_formula_units_Z 60
_cell_length_a 19.906558
_cell_length_b 8.206866
_cell_length_c 20.172143
_cell_angle_alpha 90.000000
_cell_angle_beta 90.000000
_cell_angle_gamma 90.000000
_cell_volume 3295.532161
_symmetry_space_group_name_H-M "C 2 2 21"
_symmetry_group_IT_number 20
_symmetry_cell_setting 'orthorhombic'
loop_
_space_group_symop_operation_xyz
x,y,z
-x,-y,1/2+z
x,-y,-z
-x,y,1/2-z
1/2+x,1/2+y,z
1/2-x,1/2-y,1/2+z
1/2+x,1/2-y,-z
1/2-x,1/2+y,1/2-z
loop_
_atom_site_type_symbol
_atom_site_label
_atom_site_fract_x
_atom_site_fract_y
_atom_site_fract_z
Si Si1 0.706852 0.453440 0.423688
Si Si2 0.186757 0.576699 0.177276
Si Si3 0.098288 0.843819 0.651555
Si Si4 0.288664 0.931048 0.928852
Si Si5 0.226568 0.635301 0.698926
Si Si6 0.500000 0.534125 0.750000
Si Si7 0.055153 0.470501 0.425478
Si Si8 0.033316 0.358776 0.817138
O O1 0.702736 0.500000 0.500000
O O2 0.769507 0.542186 0.388080
O O3 0.638274 0.515701 0.388815
O O4 0.718401 0.261073 0.420946
O O5 0.212122 0.454212 0.233183
O O6 0.209121 0.751215 0.204809
O O7 0.107333 0.573989 0.170205
O O8 0.159730 0.740707 0.683217
O O9 0.059074 0.714917 0.603584
O O10 0.050967 0.924191 0.707211
O O11 0.260433 0.020036 0.864136
O O12 0.367796 0.971453 0.926981
O O13 0.263427 0.000000 0.000000
O O14 0.534073 0.664659 0.801140
O O15 0.029054 0.500000 0.500000
O O16 0.014227 0.585399 0.376121
O O17 0.000000 0.430780 0.750000
#
# Coordination Sequence:
#
# PCOD9317378 Si02
#       8
#     8   8   8   8   8   4   8   8
#     4  11  22  39  62  90 124 157 207 255 306 367
#     4  11  23  37  59  87 116 158 199 253 309 364
#     4  10  22  37  61  95 119 159 210 256 312 363
#     4  10  19  37  62  88 119 158 201 249 301 360
#     4  10  22  35  58  85 119 149 199 252 303 364
#     4  10  24  36  62  88 130 158 206 264 304 382
#     4  10  20  37  62  89 122 163 209 252 310 378
#     4  10  23  39  59  85 123 165 199 253 314 374
#
# _framework density 18.206468000000001
#
# number of rings (size 3 to 8) (size 9 to 14) (size 15 to 20)
#    0.400    1.333    0.000    6.400    8.400    0.533 
#    0.000    0.000    0.000    1.600    0.000    0.000 
#    0.000    0.000    0.000    0.000    0.000    0.000 
#
# Total GULP energy -167284.992885 kJ/mol
# GULP energy per Si atom -5576.166430 kJ/mol
# Density = 1.816503 g / cm^3
# Si number density = 18.206468 Si / 1000 Ang^3
#
#
#
# Elastic Constant Matrix: (Units=GPa)
#
#
# Indices 1 2 3 4 5 6 
#
# 1 49.3258 7.8483 22.4774 0.0000 0.0000 0.0000
# 2 7.8483 65.3400 -2.0367 0.0000 0.0000 0.0000
# 3 22.4774 -2.0367 77.4115 0.0000 0.0000 0.0000
# 4 0.0000 0.0000 0.0000 31.2837 0.0000 0.0000
# 5 0.0000 0.0000 0.0000 0.0000 77.3694 0.0000
# 6 0.0000 0.0000 0.0000 0.0000 0.0000 12.8242
#
#
#
# Elastic Compliance Matrix: (Units=1/GPa)
#
#
# Indices 1 2 3 4 5 6 
#
# 1 0.023976 -0.003099 -0.007043 0.000000 0.000000 0.000000
# 2 -0.003099 0.015718 0.001313 0.000000 0.000000 0.000000
# 3 -0.007043 0.001313 0.014998 0.000000 0.000000 0.000000
# 4 0.000000 0.000000 0.000000 0.031965 0.000000 0.000000
# 5 0.000000 0.000000 0.000000 0.000000 0.012925 0.000000
# 6 0.000000 0.000000 0.000000 0.000000 0.000000 0.077978
#
#
# Mechanical properties :
#
#
# Convention : Reuss Voigt Hill
#
# Bulk Modulus (GPa) = 27.00291 27.62837 27.31564
# Shear Modulus (GPa) = 24.08911 35.21467 29.65189
#
# Velocity S-wave (km/s) = 3.64140 4.40271 4.04003
# Velocity P-wave (km/s) = 5.70468 6.40727 6.06616
#
# Compressibility (1/GPa) = 0.03703305
#
# Stress axis : x y z
#
# Youngs Moduli (GPa) = 41.70817 63.62220 66.67714
#
# Poissons Ratio (x) = 0.19719 0.46963
# Poissons Ratio (y) = 0.12927 -0.08758
# Poissons Ratio (z) = 0.29376 -0.08357
#
# Static dielectric constant tensor:
#      x y z
#    x 1.606690 0.000000 0.000000 
#    y 0.000000 1.645390 0.000000 
#    z 0.000000 0.000000 1.611600 
# 
# From -- ./inp_files/25267.got.cif
#   From: 2010.05.17/outbox.cif.g08.bks.cpg/sg20_13_cif.got.tgz:25267.got - 2010.06.03 22:52:26.
