data_PCOD9317011
_publ_section_title
;
Structure prediction by ZEFSAII (Michael W. Deem and Ramdas Pophale) SiO2 
 PCOD9317011
Probable space group: C 2 2 21
;
_chemical_formula_sum "Si O2"
_cell_formula_units_Z 40
_cell_length_a 26.526584
_cell_length_b 7.937381
_cell_length_c 7.381060
_cell_angle_alpha 90.000000
_cell_angle_beta 90.000000
_cell_angle_gamma 90.000000
_cell_volume 1554.094021
_symmetry_space_group_name_H-M "C 2 2 21"
_symmetry_group_IT_number 20
_symmetry_cell_setting 'orthorhombic'
loop_
_space_group_symop_operation_xyz
x,y,z
-x,-y,1/2+z
x,-y,-z
-x,y,1/2-z
1/2+x,1/2+y,z
1/2-x,1/2-y,1/2+z
1/2+x,1/2-y,-z
1/2-x,1/2+y,1/2-z
loop_
_atom_site_type_symbol
_atom_site_label
_atom_site_fract_x
_atom_site_fract_y
_atom_site_fract_z
Si Si1 0.273712 0.587082 0.195695
Si Si2 0.827318 0.778595 0.307726
Si Si3 0.068436 0.803041 0.064204
Si Si4 0.358616 0.809661 0.068563
Si Si5 0.539318 0.297865 0.487877
O O1 0.216825 0.645048 0.224186
O O2 0.296499 0.450033 0.329734
O O3 0.186912 0.243253 0.308278
O O4 0.271396 0.500000 0.000000
O O5 0.873575 0.737858 0.441536
O O6 0.852700 0.803145 0.111839
O O7 0.052779 0.770975 0.275302
O O8 0.017442 0.736927 0.968997
O O9 0.072870 0.000000 0.000000
O O10 0.416750 0.775042 0.117363
O O11 0.354313 0.000000 0.000000
O O12 0.538563 0.500000 0.500000
#
# Coordination Sequence:
#
# PCOD9317011 Si02
#       5
#     8   8   8   8   8
#     4  10  21  35  53  78 106 141 182 224 270 326
#     4  10  20  35  53  77 108 141 179 226 272 321
#     4   9  18  31  54  80 105 138 175 222 273 320
#     4  10  19  33  54  77 103 141 182 223 270 326
#     4   9  17  34  55  77 104 137 181 223 265 325
#
# _framework density 25.738468000000001
#
# number of rings (size 3 to 8) (size 9 to 14) (size 15 to 20)
#    0.000    2.400    0.000    4.200    0.000    4.000 
#    0.000    3.000    0.000   33.600    0.000    0.000 
#    0.000    0.000    0.000    0.000    0.000    0.000 
#
# Total GULP energy -111489.644534 kJ/mol
# GULP energy per Si atom -5574.482227 kJ/mol
# Density = 2.567989 g / cm^3
# Si number density = 25.738468 Si / 1000 Ang^3
#
#
#
# Elastic Constant Matrix: (Units=GPa)
#
#
# Indices 1 2 3 4 5 6 
#
# 1 281.9929 36.0135 12.2858 0.0000 0.0000 0.0000
# 2 36.0135 59.5889 -20.9737 0.0000 0.0000 0.0000
# 3 12.2858 -20.9737 47.9451 0.0000 0.0000 0.0000
# 4 0.0000 0.0000 0.0000 11.6115 0.0000 0.0000
# 5 0.0000 0.0000 0.0000 0.0000 17.6060 0.0000
# 6 0.0000 0.0000 0.0000 0.0000 0.0000 19.0625
#
#
#
# Elastic Compliance Matrix: (Units=1/GPa)
#
#
# Indices 1 2 3 4 5 6 
#
# 1 0.004084 -0.003353 -0.002513 0.000000 0.000000 0.000000
# 2 -0.003353 0.022588 0.010740 0.000000 0.000000 0.000000
# 3 -0.002513 0.010740 0.026200 0.000000 0.000000 0.000000
# 4 0.000000 0.000000 0.000000 0.086122 0.000000 0.000000
# 5 0.000000 0.000000 0.000000 0.000000 0.056799 0.000000
# 6 0.000000 0.000000 0.000000 0.000000 0.000000 0.052459
#
#
# Mechanical properties :
#
#
# Convention : Reuss Voigt Hill
#
# Bulk Modulus (GPa) = 15.96913 49.35313 32.66113
# Shear Modulus (GPa) = 19.27705 33.80274 26.53989
#
# Velocity S-wave (km/s) = 2.73968 3.62790 3.21462
# Velocity P-wave (km/s) = 4.02811 6.06345 5.14738
#
# Compressibility (1/GPa) = 0.06262080
#
# Stress axis : x y z
#
# Youngs Moduli (GPa) = 244.86666 44.27085 38.16857
#
# Poissons Ratio (x) = 0.14843 0.09592
# Poissons Ratio (y) = 0.82096 -0.40995
# Poissons Ratio (z) = 0.61538 -0.47549
#
# Static dielectric constant tensor:
#      x y z
#    x 2.152080 0.000000 0.000000 
#    y 0.000000 1.942530 0.000000 
#    z 0.000000 0.000000 2.104690 
# 
# From -- ./inp_files/10478.got.cif
#   From: 2010.05.17/outbox.cif.g08.bks.cpg/sg20_6_cif.got.tgz:10478.got - 2010.06.03 22:52:26.
