data_PCOD9317372
_publ_section_title
;
Structure prediction by ZEFSAII (Michael W. Deem and Ramdas Pophale) SiO2 
 PCOD9317372
Probable space group: C 2 2 21
;
_chemical_formula_sum "Si O2"
_cell_formula_units_Z 56
_cell_length_a 16.872906
_cell_length_b 14.595713
_cell_length_c 10.911727
_cell_angle_alpha 90.000000
_cell_angle_beta 90.000000
_cell_angle_gamma 90.000000
_cell_volume 2687.253851
_symmetry_space_group_name_H-M "C 2 2 21"
_symmetry_group_IT_number 20
_symmetry_cell_setting 'orthorhombic'
loop_
_space_group_symop_operation_xyz
x,y,z
-x,-y,1/2+z
x,-y,-z
-x,y,1/2-z
1/2+x,1/2+y,z
1/2-x,1/2-y,1/2+z
1/2+x,1/2-y,-z
1/2-x,1/2+y,1/2-z
loop_
_atom_site_type_symbol
_atom_site_label
_atom_site_fract_x
_atom_site_fract_y
_atom_site_fract_z
Si Si1 0.589022 0.605212 0.992279
Si Si2 0.311813 0.586464 0.759769
Si Si3 0.837641 0.680926 0.847357
Si Si4 0.050768 0.809143 0.371366
Si Si5 0.449605 0.021056 0.867041
Si Si6 0.184700 0.129576 0.242586
Si Si7 0.658409 0.856538 0.619225
O O1 0.644973 0.606412 0.871487
O O2 0.511342 0.667407 0.976760
O O3 0.560869 0.500000 0.000000
O O4 0.637841 0.628689 0.113692
O O5 0.225461 0.633534 0.745466
O O6 0.368433 0.632515 0.861443
O O7 0.311908 0.476959 0.781683
O O8 0.919648 0.624358 0.848187
O O9 0.849444 0.788466 0.824043
O O10 0.807192 0.665267 0.985693
O O11 0.081014 0.705658 0.367543
O O12 0.000000 0.830215 0.250000
O O13 0.500000 0.993267 0.750000
O O14 0.369687 0.960592 0.872130
O O15 0.488064 0.000000 0.000000
O O16 0.275270 0.160172 0.219022
#
# Coordination Sequence:
#
# PCOD9317372 Si02
#       7
#     8   8   8   8   8   8   8
#     4   9  20  36  61  85 121 160 203 250 321 385
#     4  10  19  37  61  89 118 157 211 254 315 386
#     4  11  22  37  62  93 120 159 216 263 314 386
#     4  10  21  37  59  89 120 157 200 258 310 375
#     4  10  23  42  65  93 131 173 216 268 325 388
#     4  11  21  36  63  92 119 164 208 261 314 385
#     4  11  21  37  64  89 125 169 210 257 323 388
#
# _framework density 20.839117000000002
#
# number of rings (size 3 to 8) (size 9 to 14) (size 15 to 20)
#    0.000    1.714    4.286    0.429    0.000    3.429 
#    0.000    5.000    0.000    0.000    0.000    0.000 
#    0.000    0.000    0.000    0.000    0.000    0.000 
#
# Total GULP energy -156155.171724 kJ/mol
# GULP energy per Si atom -5576.970419 kJ/mol
# Density = 2.079169 g / cm^3
# Si number density = 20.839117 Si / 1000 Ang^3
#
#
#
# Elastic Constant Matrix: (Units=GPa)
#
#
# Indices 1 2 3 4 5 6 
#
# 1 48.8133 12.3055 12.3946 0.0000 0.0000 0.0000
# 2 12.3055 93.4744 18.4536 0.0000 0.0000 0.0000
# 3 12.3946 18.4536 40.7859 0.0000 0.0000 0.0000
# 4 0.0000 0.0000 0.0000 25.4973 0.0000 0.0000
# 5 0.0000 0.0000 0.0000 0.0000 20.2749 0.0000
# 6 0.0000 0.0000 0.0000 0.0000 0.0000 28.8662
#
#
#
# Elastic Compliance Matrix: (Units=1/GPa)
#
#
# Indices 1 2 3 4 5 6 
#
# 1 0.022462 -0.001767 -0.006026 0.000000 0.000000 0.000000
# 2 -0.001767 0.011886 -0.004841 0.000000 0.000000 0.000000
# 3 -0.006026 -0.004841 0.028540 0.000000 0.000000 0.000000
# 4 0.000000 0.000000 0.000000 0.039220 0.000000 0.000000
# 5 0.000000 0.000000 0.000000 0.000000 0.049322 0.000000
# 6 0.000000 0.000000 0.000000 0.000000 0.000000 0.034643
#
#
# Mechanical properties :
#
#
# Convention : Reuss Voigt Hill
#
# Bulk Modulus (GPa) = 26.58229 29.93121 28.25675
# Shear Modulus (GPa) = 22.33318 24.25567 23.29443
#
# Velocity S-wave (km/s) = 3.27723 3.41537 3.34701
# Velocity P-wave (km/s) = 5.20614 5.47240 5.34093
#
# Compressibility (1/GPa) = 0.03761903
#
# Stress axis : x y z
#
# Youngs Moduli (GPa) = 44.51970 84.12918 35.03853
#
# Poissons Ratio (x) = 0.14868 0.21116
# Poissons Ratio (y) = 0.07868 0.16962
# Poissons Ratio (z) = 0.26829 0.40727
#
# Static dielectric constant tensor:
#      x y z
#    x 1.740110 0.000000 0.000000 
#    y 0.000000 1.767190 0.000000 
#    z 0.000000 0.000000 1.773040 
# 
# From -- ./inp_files/15131.got.cif
#   From: 2010.05.17/outbox.cif.g08.bks.cpg/sg20_8_cif.got.tgz:15131.got - 2010.06.03 22:52:26.
