data_PCOD9317428
_publ_section_title
;
Structure prediction by ZEFSAII (Michael W. Deem and Ramdas Pophale) SiO2 
 PCOD9317428
Probable space group: C 2 2 21
;
_chemical_formula_sum "Si O2"
_cell_formula_units_Z 48
_cell_length_a 21.475667
_cell_length_b 7.260614
_cell_length_c 12.457066
_cell_angle_alpha 90.000000
_cell_angle_beta 90.000000
_cell_angle_gamma 90.000000
_cell_volume 1942.387056
_symmetry_space_group_name_H-M "C 2 2 21"
_symmetry_group_IT_number 20
_symmetry_cell_setting 'orthorhombic'
loop_
_space_group_symop_operation_xyz
x,y,z
-x,-y,1/2+z
x,-y,-z
-x,y,1/2-z
1/2+x,1/2+y,z
1/2-x,1/2-y,1/2+z
1/2+x,1/2-y,-z
1/2-x,1/2+y,1/2-z
loop_
_atom_site_type_symbol
_atom_site_label
_atom_site_fract_x
_atom_site_fract_y
_atom_site_fract_z
Si Si1 0.369684 0.737647 0.919820
Si Si2 0.795816 0.109427 0.720375
Si Si3 0.745055 0.277350 0.016037
Si Si4 0.442152 0.058621 0.813360
Si Si5 0.827586 0.690409 0.689435
Si Si6 0.518182 0.459903 0.619602
O O1 0.322872 0.709326 0.821606
O O2 0.318699 0.724236 0.016424
O O3 0.420896 0.581539 0.901730
O O4 0.406453 0.924675 0.893999
O O5 0.798170 0.242523 0.619501
O O6 0.721666 0.092839 0.732608
O O7 0.826587 0.911247 0.709157
O O8 0.705460 0.176943 0.924960
O O9 0.745968 0.500000 0.000000
O O10 0.500000 0.969231 0.750000
O O11 0.394849 0.119786 0.719329
O O12 0.465637 0.242676 0.874242
O O13 0.482957 0.500000 0.500000
O O14 0.500000 0.497595 0.750000
#
# Coordination Sequence:
#
# PCOD9317428 Si02
#       6
#     8   8   8   8   8   8
#     4  11  23  43  73 105 145 192 249 310 378 453
#     4  10  20  38  64  98 139 181 232 310 378 447
#     4   9  20  35  66 102 135 186 235 308 376 447
#     4  11  24  45  70 102 145 193 250 309 366 443
#     4  10  19  38  60  95 138 179 239 299 373 438
#     4  11  27  50  76 109 144 203 257 311 372 442
#
# _framework density 24.711862
#
# number of rings (size 3 to 8) (size 9 to 14) (size 15 to 20)
#    0.000    1.667    1.667    3.500    4.667    0.000 
#    6.000    6.667    0.000    0.000    0.000    0.000 
#    0.000    0.000    0.000    0.000    0.000    0.000 
#
# Total GULP energy -133840.720543 kJ/mol
# GULP energy per Si atom -5576.696689 kJ/mol
# Density = 2.465562 g / cm^3
# Si number density = 24.711862 Si / 1000 Ang^3
#
#
#
# Elastic Constant Matrix: (Units=GPa)
#
#
# Indices 1 2 3 4 5 6 
#
# 1 100.7557 17.4073 39.4196 0.0000 0.0000 0.0000
# 2 17.4073 94.2062 22.0008 0.0000 0.0000 0.0000
# 3 39.4196 22.0008 133.2401 0.0000 0.0000 0.0000
# 4 0.0000 0.0000 0.0000 27.4331 0.0000 0.0000
# 5 0.0000 0.0000 0.0000 0.0000 24.5034 0.0000
# 6 0.0000 0.0000 0.0000 0.0000 0.0000 36.4762
#
#
#
# Elastic Compliance Matrix: (Units=1/GPa)
#
#
# Indices 1 2 3 4 5 6 
#
# 1 0.011392 -0.001371 -0.003144 0.000000 0.000000 0.000000
# 2 -0.001371 0.011206 -0.001445 0.000000 0.000000 0.000000
# 3 -0.003144 -0.001445 0.008674 0.000000 0.000000 0.000000
# 4 0.000000 0.000000 0.000000 0.036452 0.000000 0.000000
# 5 0.000000 0.000000 0.000000 0.000000 0.040811 0.000000
# 6 0.000000 0.000000 0.000000 0.000000 0.000000 0.027415
#
#
# Mechanical properties :
#
#
# Convention : Reuss Voigt Hill
#
# Bulk Modulus (GPa) = 51.67272 53.98415 52.82843
# Shear Modulus (GPa) = 32.40030 34.30749 33.35389
#
# Velocity S-wave (km/s) = 3.62487 3.73003 3.67783
# Velocity P-wave (km/s) = 6.20283 6.35954 6.28167
#
# Compressibility (1/GPa) = 0.01935257
#
# Stress axis : x y z
#
# Youngs Moduli (GPa) = 87.78190 89.24032 115.28740
#
# Poissons Ratio (x) = 0.12232 0.36246
# Poissons Ratio (y) = 0.12032 0.16656
# Poissons Ratio (z) = 0.27599 0.12893
#
# Static dielectric constant tensor:
#      x y z
#    x 1.927800 0.000000 0.000000 
#    y 0.000000 1.997090 0.000000 
#    z 0.000000 0.000000 2.131070 
# 
# From -- ./inp_files/16637.got.cif
#   From: 2010.05.17/outbox.cif.g08.bks.cpg/sg20_9_cif.got.tgz:16637.got - 2010.06.03 22:52:26.
