data_PCOD9317612
_publ_section_title
;
Structure prediction by ZEFSAII (Michael W. Deem and Ramdas Pophale) SiO2 
 PCOD9317612
Probable space group: C 2 2 21
;
_chemical_formula_sum "Si O2"
_cell_formula_units_Z 48
_cell_length_a 14.978314
_cell_length_b 15.654443
_cell_length_c 8.598512
_cell_angle_alpha 90.000000
_cell_angle_beta 90.000000
_cell_angle_gamma 90.000000
_cell_volume 2016.154698
_symmetry_space_group_name_H-M "C 2 2 21"
_symmetry_group_IT_number 20
_symmetry_cell_setting 'orthorhombic'
loop_
_space_group_symop_operation_xyz
x,y,z
-x,-y,1/2+z
x,-y,-z
-x,y,1/2-z
1/2+x,1/2+y,z
1/2-x,1/2-y,1/2+z
1/2+x,1/2-y,-z
1/2-x,1/2+y,1/2-z
loop_
_atom_site_type_symbol
_atom_site_label
_atom_site_fract_x
_atom_site_fract_y
_atom_site_fract_z
Si Si1 0.871455 0.881335 0.503360
Si Si2 0.409246 0.943907 0.657947
Si Si3 0.500000 0.626902 0.250000
Si Si4 0.802539 0.695466 0.526113
Si Si5 0.687765 0.911583 0.338979
Si Si6 0.895056 0.255602 0.027476
Si Si7 0.000000 0.814468 0.250000
O O1 0.854018 0.783296 0.557325
O O2 0.775557 0.913845 0.445908
O O3 0.926269 0.922848 0.646223
O O4 0.936423 0.871939 0.356637
O O5 0.500000 0.928179 0.750000
O O6 0.356852 0.861234 0.596332
O O7 0.424735 0.000000 0.500000
O O8 0.347878 0.998761 0.776373
O O9 0.449753 0.690345 0.132952
O O10 0.789859 0.641878 0.682890
O O11 0.706197 0.722953 0.466596
O O12 0.610188 0.853932 0.418901
O O13 0.937443 0.242803 0.859177
#
# Coordination Sequence:
#
# PCOD9317612 Si02
#       7
#     8   8   4   8   8   8   4
#     4  10  20  35  59  92 129 163 218 273 334 386
#     4  10  24  43  63  89 131 182 227 267 325 402
#     4  10  20  34  58  96 118 164 206 286 318 388
#     4  10  20  38  58  90 129 178 219 264 334 388
#     4  10  20  38  61  89 128 180 213 267 331 392
#     4  10  20  35  60  91 132 162 219 269 334 389
#     4  10  20  32  58  94 120 160 208 280 322 392
#
# _framework density 23.807697000000001
#
# number of rings (size 3 to 8) (size 9 to 14) (size 15 to 20)
#    0.000    2.000    3.333    0.000    2.333    1.333 
#    3.000    0.000    0.000    1.000    0.000    0.000 
#    0.000    0.000    0.333    0.000    0.000    0.000 
#
# Total GULP energy -134404.745612 kJ/mol
# GULP energy per Si atom -5600.197734 kJ/mol
# Density = 2.375351 g / cm^3
# Si number density = 23.807697 Si / 1000 Ang^3
#
#
#
# Elastic Constant Matrix: (Units=GPa)
#
#
# Indices 1 2 3 4 5 6 
#
# 1 117.0349 24.3357 55.3359 0.0000 0.0000 0.0000
# 2 24.3357 85.5617 38.8134 0.0000 0.0000 0.0000
# 3 55.3359 38.8134 128.5374 0.0000 0.0000 0.0000
# 4 0.0000 0.0000 0.0000 17.0036 0.0000 0.0000
# 5 0.0000 0.0000 0.0000 0.0000 61.3516 0.0000
# 6 0.0000 0.0000 0.0000 0.0000 0.0000 11.5643
#
#
#
# Elastic Compliance Matrix: (Units=1/GPa)
#
#
# Indices 1 2 3 4 5 6 
#
# 1 0.010820 -0.001117 -0.004320 0.000000 0.000000 0.000000
# 2 -0.001117 0.013658 -0.003643 0.000000 0.000000 0.000000
# 3 -0.004320 -0.003643 0.010740 0.000000 0.000000 0.000000
# 4 0.000000 0.000000 0.000000 0.058811 0.000000 0.000000
# 5 0.000000 0.000000 0.000000 0.000000 0.016299 0.000000
# 6 0.000000 0.000000 0.000000 0.000000 0.000000 0.086473
#
#
# Mechanical properties :
#
#
# Convention : Reuss Voigt Hill
#
# Bulk Modulus (GPa) = 58.63249 63.12266 60.87757
# Shear Modulus (GPa) = 22.66051 32.16051 27.41051
#
# Velocity S-wave (km/s) = 3.08850 3.67937 3.39681
# Velocity P-wave (km/s) = 6.11551 6.67993 6.40394
#
# Compressibility (1/GPa) = 0.01705539
#
# Stress axis : x y z
#
# Youngs Moduli (GPa) = 92.42493 73.21756 93.11084
#
# Poissons Ratio (x) = 0.08182 0.40228
# Poissons Ratio (y) = 0.10328 0.33921
# Poissons Ratio (z) = 0.39932 0.26674
#
# Static dielectric constant tensor:
#      x y z
#    x 1.908040 0.000000 0.000000 
#    y 0.000000 1.904910 0.000000 
#    z 0.000000 0.000000 1.924780 
# 
# From -- ./inp_files/8471.got.cif
#   From: 2010.05.17/outbox.cif.g08.bks.cpg/sg20_5_cif.got.tgz:8471.got - 2010.06.03 22:52:26.
