data_PCOD9317487
_publ_section_title
;
Structure prediction by ZEFSAII (Michael W. Deem and Ramdas Pophale) SiO2 
 PCOD9317487
Probable space group: C 2 2 21
;
_chemical_formula_sum "Si O2"
_cell_formula_units_Z 52
_cell_length_a 16.273314
_cell_length_b 19.581223
_cell_length_c 8.376820
_cell_angle_alpha 90.000000
_cell_angle_beta 90.000000
_cell_angle_gamma 90.000000
_cell_volume 2669.285340
_symmetry_space_group_name_H-M "C 2 2 21"
_symmetry_group_IT_number 20
_symmetry_cell_setting 'orthorhombic'
loop_
_space_group_symop_operation_xyz
x,y,z
-x,-y,1/2+z
x,-y,-z
-x,y,1/2-z
1/2+x,1/2+y,z
1/2-x,1/2-y,1/2+z
1/2+x,1/2-y,-z
1/2-x,1/2+y,1/2-z
loop_
_atom_site_type_symbol
_atom_site_label
_atom_site_fract_x
_atom_site_fract_y
_atom_site_fract_z
Si Si1 0.090860 0.878182 0.229568
Si Si2 0.000000 0.401789 0.250000
Si Si3 0.732118 0.089601 0.329793
Si Si4 0.772771 0.788083 0.447147
Si Si5 0.782585 0.079733 0.974949
Si Si6 0.406859 0.000000 0.000000
Si Si7 0.130665 0.000000 0.000000
Si Si8 0.336122 0.826645 0.327426
O O1 0.152406 0.826637 0.141138
O O2 0.132391 0.893087 0.401696
O O3 0.085797 0.947033 0.119476
O O4 0.000000 0.850227 0.250000
O O5 0.038770 0.450455 0.387468
O O6 0.071647 0.352353 0.184504
O O7 0.737421 0.161427 0.418659
O O8 0.809815 0.045413 0.389882
O O9 0.652334 0.047059 0.387883
O O10 0.745795 0.102149 0.143827
O O11 0.697592 0.784042 0.323222
O O12 0.809020 0.720514 0.525635
O O13 0.717241 0.103439 0.840941
O O14 0.790311 0.000000 0.000000
#
# Coordination Sequence:
#
# PCOD9317487 Si02
#       8
#     8   4   8   8   8   4   4   8
#     4  10  22  38  59  95 133 163 219 279 333 388
#     4  12  26  44  68 108 144 172 226 296 356 408
#     4  10  19  39  64  92 125 179 220 269 332 407
#     4  10  22  46  65  89 128 178 226 269 327 413
#     4  11  21  37  66  94 123 174 222 263 333 409
#     4  11  24  42  68 103 150 172 228 297 350 410
#     4   9  18  32  58  85 126 164 214 269 318 390
#     4  11  24  45  67  96 131 178 230 275 335 414
#
# _framework density 19.480869999999999
#
# number of rings (size 3 to 8) (size 9 to 14) (size 15 to 20)
#    0.000    1.538    3.077    1.846    4.308    0.000 
#    8.308    1.538    0.000    0.000    0.000    0.000 
#    0.000    0.000    0.000    0.000    0.000    0.000 
#
# Total GULP energy -144999.957159 kJ/mol
# GULP energy per Si atom -5576.921429 kJ/mol
# Density = 1.943653 g / cm^3
# Si number density = 19.480870 Si / 1000 Ang^3
#
#
#
# Elastic Constant Matrix: (Units=GPa)
#
#
# Indices 1 2 3 4 5 6 
#
# 1 126.1239 36.4961 45.3168 0.0000 0.0000 0.0000
# 2 36.4961 81.5278 39.9207 0.0000 0.0000 0.0000
# 3 45.3168 39.9207 116.9571 0.0000 0.0000 0.0000
# 4 0.0000 0.0000 0.0000 28.4830 0.0000 0.0000
# 5 0.0000 0.0000 0.0000 0.0000 25.2735 0.0000
# 6 0.0000 0.0000 0.0000 0.0000 0.0000 26.2177
#
#
#
# Elastic Compliance Matrix: (Units=1/GPa)
#
#
# Indices 1 2 3 4 5 6 
#
# 1 0.009799 -0.003035 -0.002761 0.000000 0.000000 0.000000
# 2 -0.003035 0.015667 -0.004172 0.000000 0.000000 0.000000
# 3 -0.002761 -0.004172 0.011044 0.000000 0.000000 0.000000
# 4 0.000000 0.000000 0.000000 0.035109 0.000000 0.000000
# 5 0.000000 0.000000 0.000000 0.000000 0.039567 0.000000
# 6 0.000000 0.000000 0.000000 0.000000 0.000000 0.038142
#
#
# Mechanical properties :
#
#
# Convention : Reuss Voigt Hill
#
# Bulk Modulus (GPa) = 60.33152 63.11956 61.72554
# Shear Modulus (GPa) = 28.60623 29.51985 29.06304
#
# Velocity S-wave (km/s) = 3.83616 3.89694 3.86667
# Velocity P-wave (km/s) = 7.11747 7.26081 7.18950
#
# Compressibility (1/GPa) = 0.01657508
#
# Stress axis : x y z
#
# Youngs Moduli (GPa) = 102.05308 63.82876 90.54814
#
# Poissons Ratio (x) = 0.19369 0.25000
# Poissons Ratio (y) = 0.30969 0.37775
# Poissons Ratio (z) = 0.28176 0.26628
#
# Static dielectric constant tensor:
#      x y z
#    x 1.652000 0.000000 0.000000 
#    y 0.000000 1.712360 0.000000 
#    z 0.000000 0.000000 1.550290 
# 
# From -- ./inp_files/8686.got.cif
#   From: 2010.05.17/outbox.cif.g08.bks.cpg/sg20_5_cif.got.tgz:8686.got - 2010.06.03 22:52:26.
