data_PCOD9317524
_publ_section_title
;
Structure prediction by ZEFSAII (Michael W. Deem and Ramdas Pophale) SiO2 
 PCOD9317524
Probable space group: C 2 2 21
;
_chemical_formula_sum "Si O2"
_cell_formula_units_Z 48
_cell_length_a 8.209438
_cell_length_b 31.822998
_cell_length_c 9.147660
_cell_angle_alpha 90.000000
_cell_angle_beta 90.000000
_cell_angle_gamma 90.000000
_cell_volume 2389.816378
_symmetry_space_group_name_H-M "C 2 2 21"
_symmetry_group_IT_number 20
_symmetry_cell_setting 'orthorhombic'
loop_
_space_group_symop_operation_xyz
x,y,z
-x,-y,1/2+z
x,-y,-z
-x,y,1/2-z
1/2+x,1/2+y,z
1/2-x,1/2-y,1/2+z
1/2+x,1/2-y,-z
1/2-x,1/2+y,1/2-z
loop_
_atom_site_type_symbol
_atom_site_label
_atom_site_fract_x
_atom_site_fract_y
_atom_site_fract_z
Si Si1 0.830814 0.854559 0.501346
Si Si2 0.604435 0.199719 0.901420
Si Si3 0.527920 0.272219 0.420534
Si Si4 0.000000 0.908772 0.250000
Si Si5 0.978902 0.610576 0.580835
Si Si6 0.500000 0.406487 0.750000
Si Si7 0.784806 0.049845 0.000715
O O1 0.640986 0.866888 0.481592
O O2 0.889813 0.876502 0.649517
O O3 0.906494 0.807393 0.491828
O O4 0.908678 0.879006 0.364061
O O5 0.500000 0.204040 0.750000
O O6 0.782128 0.218126 0.928556
O O7 0.639636 0.150477 0.918511
O O8 0.499765 0.226141 0.015290
O O9 0.500000 0.272862 0.250000
O O10 0.122401 0.935881 0.351157
O O11 0.000000 0.597492 0.750000
O O12 0.890247 0.573187 0.496851
O O13 0.607494 0.434221 0.638021
O O14 0.768029 0.000000 0.000000
#
# Coordination Sequence:
#
# PCOD9317524 Si02
#       7
#     8   8   8   4   8   4   8
#     4  11  22  41  67  94 133 177 218 270 324 401
#     4  11  24  41  65  95 134 170 225 276 321 386
#     4  12  23  42  65  98 129 182 221 266 323 386
#     4  10  19  40  68  92 130 174 220 262 327 404
#     4  11  22  44  68  99 128 180 221 271 342 396
#     4  10  25  42  64 102 132 174 216 274 343 386
#     4  11  23  44  69  99 132 171 225 279 337 403
#
# _framework density 20.085222999999999
#
# number of rings (size 3 to 8) (size 9 to 14) (size 15 to 20)
#    0.000    1.000    2.500    6.500    1.167    0.667 
#   12.000    0.833    0.000    0.000    0.000    0.000 
#    0.000    0.000    0.000    0.000    0.000    0.000 
#
# Total GULP energy -133868.222548 kJ/mol
# GULP energy per Si atom -5577.842606 kJ/mol
# Density = 2.003951 g / cm^3
# Si number density = 20.085223 Si / 1000 Ang^3
#
#
#
# Elastic Constant Matrix: (Units=GPa)
#
#
# Indices 1 2 3 4 5 6 
#
# 1 72.8551 18.8581 20.1285 0.0000 0.0000 0.0000
# 2 18.8581 102.2046 31.4172 0.0000 0.0000 0.0000
# 3 20.1285 31.4172 77.7768 0.0000 0.0000 0.0000
# 4 0.0000 0.0000 0.0000 14.5218 0.0000 0.0000
# 5 0.0000 0.0000 0.0000 0.0000 20.2753 0.0000
# 6 0.0000 0.0000 0.0000 0.0000 0.0000 25.4087
#
#
#
# Elastic Compliance Matrix: (Units=1/GPa)
#
#
# Indices 1 2 3 4 5 6 
#
# 1 0.015069 -0.001806 -0.003170 0.000000 0.000000 0.000000
# 2 -0.001806 0.011388 -0.004133 0.000000 0.000000 0.000000
# 3 -0.003170 -0.004133 0.015347 0.000000 0.000000 0.000000
# 4 0.000000 0.000000 0.000000 0.068862 0.000000 0.000000
# 5 0.000000 0.000000 0.000000 0.000000 0.049321 0.000000
# 6 0.000000 0.000000 0.000000 0.000000 0.000000 0.039357
#
#
# Mechanical properties :
#
#
# Convention : Reuss Voigt Hill
#
# Bulk Modulus (GPa) = 42.39747 43.73822 43.06784
# Shear Modulus (GPa) = 22.18046 24.20336 23.19191
#
# Velocity S-wave (km/s) = 3.32673 3.47512 3.40174
# Velocity P-wave (km/s) = 5.99256 6.15838 6.07603
#
# Compressibility (1/GPa) = 0.02358631
#
# Stress axis : x y z
#
# Youngs Moduli (GPa) = 66.36034 87.81277 65.15864
#
# Poissons Ratio (x) = 0.15858 0.20658
# Poissons Ratio (y) = 0.11984 0.26928
# Poissons Ratio (z) = 0.21039 0.36290
#
# Static dielectric constant tensor:
#      x y z
#    x 1.836460 0.000000 0.000000 
#    y 0.000000 1.676900 0.000000 
#    z 0.000000 0.000000 1.706740 
# 
# From -- ./inp_files/6576.got.cif
#   From: 2010.05.17/outbox.cif.g08.bks.cpg/sg20_4_cif.got.tgz:6576.got - 2010.06.03 22:52:26.
