data_PCOD9317773
_publ_section_title
;
Structure prediction by ZEFSAII (Michael W. Deem and Ramdas Pophale) SiO2 
 PCOD9317773
Probable space group: C 2 2 21
;
_chemical_formula_sum "Si O2"
_cell_formula_units_Z 60
_cell_length_a 5.247622
_cell_length_b 17.677062
_cell_length_c 31.309987
_cell_angle_alpha 90.000000
_cell_angle_beta 90.000000
_cell_angle_gamma 90.000000
_cell_volume 2904.393904
_symmetry_space_group_name_H-M "C 2 2 21"
_symmetry_group_IT_number 20
_symmetry_cell_setting 'orthorhombic'
loop_
_space_group_symop_operation_xyz
x,y,z
-x,-y,1/2+z
x,-y,-z
-x,y,1/2-z
1/2+x,1/2+y,z
1/2-x,1/2-y,1/2+z
1/2+x,1/2-y,-z
1/2-x,1/2+y,1/2-z
loop_
_atom_site_type_symbol
_atom_site_label
_atom_site_fract_x
_atom_site_fract_y
_atom_site_fract_z
Si Si1 0.535437 0.906926 0.561199
Si Si2 0.821606 0.000000 0.500000
Si Si3 0.750105 0.305682 0.276909
Si Si4 0.423252 0.579881 0.364281
Si Si5 0.840664 0.039404 0.917853
Si Si6 0.754190 0.693997 0.625187
Si Si7 0.746335 0.207033 0.109922
Si Si8 0.246545 0.622377 0.275929
O O1 0.651864 0.929260 0.515878
O O2 0.761678 0.891745 0.594773
O O3 0.336251 0.838432 0.566811
O O4 0.400807 0.984651 0.575952
O O5 0.992550 0.973526 0.460305
O O6 0.500000 0.328354 0.250000
O O7 0.771874 0.333356 0.325629
O O8 0.742779 0.213711 0.280967
O O9 0.000000 0.325756 0.250000
O O10 0.512014 0.497258 0.377700
O O11 0.662757 0.637355 0.359826
O O12 0.260331 0.585495 0.322186
O O13 0.780154 0.124729 0.907050
O O14 0.502665 0.746865 0.623743
O O15 0.010596 0.738230 0.611633
O O16 0.500000 0.602630 0.250000
O O17 0.000000 0.599094 0.250000
#
# Coordination Sequence:
#
# PCOD9317773 Si02
#       8
#     8   4   8   8   8   8   8   8
#     4  10  21  43  74  94 130 177 221 275 329 411
#     4  10  22  46  72 100 126 176 234 266 338 422
#     4  10  20  35  58  93 132 175 220 274 325 387
#     4  10  21  41  66  97 131 182 224 277 328 400
#     4  10  25  41  74  96 137 176 224 272 348 411
#     4  12  24  41  69 103 135 178 226 277 338 409
#     4  11  22  39  70  99 134 170 225 277 329 391
#     4  10  21  32  58  94 127 169 228 278 315 372
#
# _framework density 20.658355
#
# number of rings (size 3 to 8) (size 9 to 14) (size 15 to 20)
#    0.000    1.600    2.667    1.200   11.200    0.000 
#    0.000    0.667   11.733    0.000    0.000    0.000 
#    0.000    0.000    0.000    0.000    0.000    0.000 
#
# Total GULP energy -167492.970465 kJ/mol
# GULP energy per Si atom -5583.099015 kJ/mol
# Density = 2.061134 g / cm^3
# Si number density = 20.658355 Si / 1000 Ang^3
#
#
#
# Elastic Constant Matrix: (Units=GPa)
#
#
# Indices 1 2 3 4 5 6 
#
# 1 135.3436 36.9968 37.7682 0.0000 0.0000 0.0000
# 2 36.9968 53.3198 39.9249 0.0000 0.0000 0.0000
# 3 37.7682 39.9249 93.2884 0.0000 0.0000 0.0000
# 4 0.0000 0.0000 0.0000 22.5760 0.0000 0.0000
# 5 0.0000 0.0000 0.0000 0.0000 22.0459 0.0000
# 6 0.0000 0.0000 0.0000 0.0000 0.0000 18.8378
#
#
#
# Elastic Compliance Matrix: (Units=1/GPa)
#
#
# Indices 1 2 3 4 5 6 
#
# 1 0.009253 -0.005320 -0.001469 0.000000 0.000000 0.000000
# 2 -0.005320 0.030658 -0.010967 0.000000 0.000000 0.000000
# 3 -0.001469 -0.010967 0.016008 0.000000 0.000000 0.000000
# 4 0.000000 0.000000 0.000000 0.044295 0.000000 0.000000
# 5 0.000000 0.000000 0.000000 0.000000 0.045360 0.000000
# 6 0.000000 0.000000 0.000000 0.000000 0.000000 0.053085
#
#
# Mechanical properties :
#
#
# Convention : Reuss Voigt Hill
#
# Bulk Modulus (GPa) = 49.00474 56.81465 52.90969
# Shear Modulus (GPa) = 20.74922 23.84272 22.29597
#
# Velocity S-wave (km/s) = 3.17266 3.40096 3.28879
# Velocity P-wave (km/s) = 6.09869 6.55620 6.33158
#
# Compressibility (1/GPa) = 0.02040619
#
# Stress axis : x y z
#
# Youngs Moduli (GPa) = 108.07455 32.61787 62.46960
#
# Poissons Ratio (x) = 0.17353 0.09178
# Poissons Ratio (y) = 0.57497 0.68510
# Poissons Ratio (z) = 0.15878 0.35772
#
# Static dielectric constant tensor:
#      x y z
#    x 1.746850 0.000000 0.000000 
#    y 0.000000 1.716570 0.000000 
#    z 0.000000 0.000000 1.732700 
# 
# From -- ./inp_files/30831.got.cif
#   From: 2010.05.17/outbox.cif.g08.bks.cpg/sg20_16_cif.got.tgz:30831.got - 2010.06.03 22:52:26.
