data_PCOD9317807
_publ_section_title
;
Structure prediction by ZEFSAII (Michael W. Deem and Ramdas Pophale) SiO2 
 PCOD9317807
Probable space group: C 2 2 21
;
_chemical_formula_sum "Si O2"
_cell_formula_units_Z 60
_cell_length_a 18.540818
_cell_length_b 6.264904
_cell_length_c 26.033503
_cell_angle_alpha 90.000000
_cell_angle_beta 90.000000
_cell_angle_gamma 90.000000
_cell_volume 3023.959156
_symmetry_space_group_name_H-M "C 2 2 21"
_symmetry_group_IT_number 20
_symmetry_cell_setting 'orthorhombic'
loop_
_space_group_symop_operation_xyz
x,y,z
-x,-y,1/2+z
x,-y,-z
-x,y,1/2-z
1/2+x,1/2+y,z
1/2-x,1/2-y,1/2+z
1/2+x,1/2-y,-z
1/2-x,1/2+y,1/2-z
loop_
_atom_site_type_symbol
_atom_site_label
_atom_site_fract_x
_atom_site_fract_y
_atom_site_fract_z
Si Si1 0.991606 0.000000 0.500000
Si Si2 0.709184 0.402921 0.215029
Si Si3 0.409258 0.123581 0.952824
Si Si4 0.618473 0.028507 0.171042
Si Si5 0.880987 0.922645 0.865175
Si Si6 0.494846 0.745705 0.596705
Si Si7 0.250672 0.792960 0.329778
Si Si8 0.080379 0.801649 0.745894
O O1 0.956649 0.884012 0.450405
O O2 0.040229 0.807505 0.522468
O O3 0.678324 0.195575 0.188960
O O4 0.748706 0.349777 0.268242
O O5 0.638237 0.537897 0.229867
O O6 0.756426 0.538861 0.175355
O O7 0.365782 0.257202 0.910840
O O8 0.457810 0.943146 0.925180
O O9 0.371249 0.000000 0.000000
O O10 0.561273 0.147572 0.135752
O O11 0.671390 0.849981 0.146334
O O12 0.582695 0.914019 0.220402
O O13 0.814233 0.080402 0.855098
O O14 0.898941 0.790290 0.813693
O O15 0.950033 0.074045 0.878068
O O16 0.000000 0.891408 0.750000
#
# Coordination Sequence:
#
# PCOD9317807 Si02
#       8
#     4   8   8   8   8   8   8   8
#     4   8  18  36  60  88 118 144 188 246 312 364
#     4  10  20  36  52  70 108 158 198 229 282 342
#     4   9  18  36  62  90 114 144 184 241 306 362
#     4  11  22  35  55  80 118 157 202 241 294 352
#     4  10  21  35  56  84 116 148 197 238 300 354
#     4  10  20  36  60  91 114 152 196 253 304 362
#     4  10  21  35  52  75 109 160 199 235 278 354
#     4  10  21  33  49  81 115 147 187 241 284 345
#
# _framework density 19.841538
#
# number of rings (size 3 to 8) (size 9 to 14) (size 15 to 20)
#    0.000    2.133    1.333    1.600    0.000    9.067 
#    0.000    0.000    1.467    0.000   27.733    0.000 
#    0.000    0.000    0.000    0.000    0.000    0.000 
#
# Total GULP energy -167167.288244 kJ/mol
# GULP energy per Si atom -5572.242941 kJ/mol
# Density = 1.979638 g / cm^3
# Si number density = 19.841538 Si / 1000 Ang^3
#
#
#
# Elastic Constant Matrix: (Units=GPa)
#
#
# Indices 1 2 3 4 5 6 
#
# 1 61.1359 0.3175 8.6519 0.0000 0.0000 0.0000
# 2 0.3175 71.5695 23.1749 0.0000 0.0000 0.0000
# 3 8.6519 23.1749 70.8991 0.0000 0.0000 0.0000
# 4 0.0000 0.0000 0.0000 28.7515 0.0000 0.0000
# 5 0.0000 0.0000 0.0000 0.0000 12.2831 0.0000
# 6 0.0000 0.0000 0.0000 0.0000 0.0000 9.1862
#
#
#
# Elastic Compliance Matrix: (Units=1/GPa)
#
#
# Indices 1 2 3 4 5 6 
#
# 1 0.016672 0.000654 -0.002248 0.000000 0.000000 0.000000
# 2 0.000654 0.015652 -0.005196 0.000000 0.000000 0.000000
# 3 -0.002248 -0.005196 0.016077 0.000000 0.000000 0.000000
# 4 0.000000 0.000000 0.000000 0.034781 0.000000 0.000000
# 5 0.000000 0.000000 0.000000 0.000000 0.081413 0.000000
# 6 0.000000 0.000000 0.000000 0.000000 0.000000 0.108859
#
#
# Mechanical properties :
#
#
# Convention : Reuss Voigt Hill
#
# Bulk Modulus (GPa) = 28.71856 29.76590 29.24223
# Shear Modulus (GPa) = 16.74248 21.47482 19.10865
#
# Velocity S-wave (km/s) = 2.90799 3.29343 3.10669
# Velocity P-wave (km/s) = 5.07746 5.43108 5.25724
#
# Compressibility (1/GPa) = 0.03482069
#
# Stress axis : x y z
#
# Youngs Moduli (GPa) = 59.98166 63.88931 62.19931
#
# Poissons Ratio (x) = -0.04179 0.13984
# Poissons Ratio (y) = -0.03923 0.32319
# Poissons Ratio (z) = 0.13485 0.33197
#
# Static dielectric constant tensor:
#      x y z
#    x 1.685230 0.000000 0.000000 
#    y 0.000000 1.772300 0.000000 
#    z 0.000000 0.000000 1.737050 
# 
# From -- ./inp_files/30505.got.cif
#   From: 2010.05.17/outbox.cif.g08.bks.cpg/sg20_16_cif.got.tgz:30505.got - 2010.06.03 22:52:26.
