data_PCOD9317018
_publ_section_title
;
Structure prediction by ZEFSAII (Michael W. Deem and Ramdas Pophale) SiO2 
 PCOD9317018
Probable space group: C 2 2 21
;
_chemical_formula_sum "Si O2"
_cell_formula_units_Z 40
_cell_length_a 4.955711
_cell_length_b 19.351517
_cell_length_c 22.625170
_cell_angle_alpha 90.000000
_cell_angle_beta 90.000000
_cell_angle_gamma 90.000000
_cell_volume 2169.765696
_symmetry_space_group_name_H-M "C 2 2 21"
_symmetry_group_IT_number 20
_symmetry_cell_setting 'orthorhombic'
loop_
_space_group_symop_operation_xyz
x,y,z
-x,-y,1/2+z
x,-y,-z
-x,y,1/2-z
1/2+x,1/2+y,z
1/2-x,1/2-y,1/2+z
1/2+x,1/2-y,-z
1/2-x,1/2+y,1/2-z
loop_
_atom_site_type_symbol
_atom_site_label
_atom_site_fract_x
_atom_site_fract_y
_atom_site_fract_z
Si Si1 0.500000 0.165368 0.750000
Si Si2 0.765873 0.058682 0.209807
Si Si3 0.397822 0.754424 0.366530
Si Si4 0.000000 0.927186 0.250000
Si Si5 0.602538 0.838745 0.890627
Si Si6 0.225618 0.704330 0.988429
O O1 0.615895 0.211175 0.803022
O O2 0.749979 0.118375 0.728800
O O3 0.500000 0.053960 0.250000
O O4 0.691150 0.098718 0.150816
O O5 0.000000 0.094640 0.250000
O O6 0.884165 0.981493 0.201687
O O7 0.695665 0.724282 0.375369
O O8 0.328718 0.807793 0.419510
O O9 0.192417 0.690373 0.375319
O O10 0.642734 0.849544 0.960900
O O11 0.531291 0.729612 0.997352
#
# Coordination Sequence:
#
# PCOD9317018 Si02
#       6
#     4   8   8   4   8   8
#     4  12  22  35  52  75 110 146 172 212 246 324
#     4  10  20  34  54  75 100 135 175 224 254 303
#     4  10  21  31  52  83 109 137 164 206 270 320
#     4  10  22  39  48  71 102 150 180 204 262 292
#     4  10  19  33  54  81 108 128 168 219 269 309
#     4   8  16  32  48  73 108 138 160 197 262 328
#
# _framework density 18.435169999999999
#
# number of rings (size 3 to 8) (size 9 to 14) (size 15 to 20)
#    0.600    1.600    1.000    2.400    4.200    0.000 
#    0.000    0.000    0.000    1.200    5.200    0.000 
#    0.000    0.000    0.000    0.000    0.000    0.000 
#
# Total GULP energy -111358.771663 kJ/mol
# GULP energy per Si atom -5567.938583 kJ/mol
# Density = 1.839321 g / cm^3
# Si number density = 18.435170 Si / 1000 Ang^3
#
#
#
# Elastic Constant Matrix: (Units=GPa)
#
#
# Indices 1 2 3 4 5 6 
#
# 1 89.1266 2.6006 6.2593 0.0000 0.0000 0.0000
# 2 2.6006 23.1626 16.3826 0.0000 0.0000 0.0000
# 3 6.2593 16.3826 98.8162 0.0000 0.0000 0.0000
# 4 0.0000 0.0000 0.0000 -8.4402 0.0000 0.0000
# 5 0.0000 0.0000 0.0000 0.0000 22.9297 0.0000
# 6 0.0000 0.0000 0.0000 0.0000 0.0000 20.5352
#
#
#
# Elastic Compliance Matrix: (Units=1/GPa)
#
#
# Indices 1 2 3 4 5 6 
#
# 1 0.011285 -0.000863 -0.000572 0.000000 0.000000 0.000000
# 2 -0.000863 0.048974 -0.008065 0.000000 0.000000 0.000000
# 3 -0.000572 -0.008065 0.011493 0.000000 0.000000 0.000000
# 4 0.000000 0.000000 0.000000 -0.118481 0.000000 0.000000
# 5 0.000000 0.000000 0.000000 0.000000 0.043611 0.000000
# 6 0.000000 0.000000 0.000000 0.000000 0.000000 0.048697
#
#
# Mechanical properties :
#
#
# Convention : Reuss Voigt Hill
#
# Bulk Modulus (GPa) = 18.95592 29.06560 24.01076
# Shear Modulus (GPa) = 60.85467 19.39580 40.12523
#
# Velocity S-wave (km/s) = 5.75167 3.24714 4.67042
# Velocity P-wave (km/s) = 7.37657 5.46436 6.49126
#
# Compressibility (1/GPa) = 0.05275397
#
# Stress axis : x y z
#
# Youngs Moduli (GPa) = 88.61065 20.41908 87.00913
#
# Poissons Ratio (x) = 0.01761 0.04975
# Poissons Ratio (y) = 0.07644 0.70170
# Poissons Ratio (z) = 0.05067 0.16467
#
# Static dielectric constant tensor:
#      x y z
#    x 1.645640 0.000000 0.000000 
#    y 0.000000 1.618950 0.000000 
#    z 0.000000 0.000000 1.688500 
# 
# From -- ./inp_files/25990.got.cif
#   From: 2010.05.17/outbox.cif.g08.bks.cpg/sg20_13_cif.got.tgz:25990.got - 2010.06.03 22:52:26.
