data_PCOD9317368
_publ_section_title
;
Structure prediction by ZEFSAII (Michael W. Deem and Ramdas Pophale) SiO2 
 PCOD9317368
Probable space group: C 2 2 21
;
_chemical_formula_sum "Si O2"
_cell_formula_units_Z 52
_cell_length_a 12.816303
_cell_length_b 13.907962
_cell_length_c 16.643979
_cell_angle_alpha 90.000000
_cell_angle_beta 90.000000
_cell_angle_gamma 90.000000
_cell_volume 2966.766872
_symmetry_space_group_name_H-M "C 2 2 21"
_symmetry_group_IT_number 20
_symmetry_cell_setting 'orthorhombic'
loop_
_space_group_symop_operation_xyz
x,y,z
-x,-y,1/2+z
x,-y,-z
-x,y,1/2-z
1/2+x,1/2+y,z
1/2-x,1/2-y,1/2+z
1/2+x,1/2-y,-z
1/2-x,1/2+y,1/2-z
loop_
_atom_site_type_symbol
_atom_site_label
_atom_site_fract_x
_atom_site_fract_y
_atom_site_fract_z
Si Si1 0.836766 0.990511 0.407104
Si Si2 0.000000 0.318171 0.250000
Si Si3 0.032966 0.205297 0.921791
Si Si4 0.908179 0.794769 0.602445
Si Si5 0.700655 0.953445 0.252015
Si Si6 0.693853 0.707847 0.655987
Si Si7 0.887017 0.347592 0.709276
O O1 0.895071 0.090555 0.388498
O O2 0.798053 0.000000 0.500000
O O3 0.911799 0.897355 0.404540
O O4 0.749551 0.977483 0.338781
O O5 0.974379 0.252184 0.326406
O O6 0.899987 0.385780 0.236419
O O7 0.092659 0.287713 0.871369
O O8 0.913481 0.204096 0.892801
O O9 0.042136 0.224365 0.016002
O O10 0.792999 0.746637 0.606692
O O11 0.780284 0.893601 0.197056
O O12 0.667642 0.049876 0.205749
O O13 0.677657 0.781289 0.729719
O O14 0.000000 0.362859 0.750000
#
# Coordination Sequence:
#
# PCOD9317368 Si02
#       7
#     8   4   8   8   8   8   8
#     4  10  21  37  59  87 115 154 200 240 290 355
#     4  10  24  40  56  88 120 152 192 254 298 344
#     4  10  22  40  59  89 118 155 199 243 291 361
#     4  10  22  41  60  85 121 154 196 243 299 348
#     4  11  20  38  59  88 116 152 200 242 292 356
#     4  10  21  38  61  85 116 155 195 238 294 352
#     4  10  19  37  61  83 114 156 194 241 292 346
#
# _framework density 17.527498000000001
#
# number of rings (size 3 to 8) (size 9 to 14) (size 15 to 20)
#    0.000    1.846    3.846    0.000    0.000    3.692 
#    0.000    6.154    0.000    0.000    0.000    0.000 
#    0.000    0.000    0.000    0.000    0.000    0.000 
#
# Total GULP energy -145088.266694 kJ/mol
# GULP energy per Si atom -5580.317950 kJ/mol
# Density = 1.748760 g / cm^3
# Si number density = 17.527498 Si / 1000 Ang^3
#
#
#
# Elastic Constant Matrix: (Units=GPa)
#
#
# Indices 1 2 3 4 5 6 
#
# 1 78.5731 47.0834 75.0965 0.0000 0.0000 0.0000
# 2 47.0834 143.3178 84.4082 0.0000 0.0000 0.0000
# 3 75.0965 84.4082 143.3219 0.0000 0.0000 0.0000
# 4 0.0000 0.0000 0.0000 27.2861 0.0000 0.0000
# 5 0.0000 0.0000 0.0000 0.0000 27.8262 0.0000
# 6 0.0000 0.0000 0.0000 0.0000 0.0000 25.6419
#
#
#
# Elastic Compliance Matrix: (Units=1/GPa)
#
#
# Indices 1 2 3 4 5 6 
#
# 1 0.025551 -0.000780 -0.012929 0.000000 0.000000 0.000000
# 2 -0.000780 0.010707 -0.005897 0.000000 0.000000 0.000000
# 3 -0.012929 -0.005897 0.017225 0.000000 0.000000 0.000000
# 4 0.000000 0.000000 0.000000 0.036649 0.000000 0.000000
# 5 0.000000 0.000000 0.000000 0.000000 0.035937 0.000000
# 6 0.000000 0.000000 0.000000 0.000000 0.000000 0.038999
#
#
# Mechanical properties :
#
#
# Convention : Reuss Voigt Hill
#
# Bulk Modulus (GPa) = 70.07086 86.48768 78.27927
# Shear Modulus (GPa) = 23.91938 26.72581 25.32259
#
# Velocity S-wave (km/s) = 3.69816 3.90910 3.80509
# Velocity P-wave (km/s) = 7.63542 8.35619 8.00392
#
# Compressibility (1/GPa) = 0.01427127
#
# Stress axis : x y z
#
# Youngs Moduli (GPa) = 39.13759 93.39839 58.05603
#
# Poissons Ratio (x) = 0.07281 0.75060
# Poissons Ratio (y) = 0.03051 0.34237
# Poissons Ratio (z) = 0.50600 0.55079
#
# Static dielectric constant tensor:
#      x y z
#    x 1.589510 0.000000 0.000000 
#    y 0.000000 1.597620 0.000000 
#    z 0.000000 0.000000 1.573100 
# 
# From -- ./inp_files/24367.got.cif
#   From: 2010.05.17/outbox.cif.g08.bks.cpg/sg20_13_cif.got.tgz:24367.got - 2010.06.03 22:52:26.
