data_PCOD9317782
_publ_section_title
;
Structure prediction by ZEFSAII (Michael W. Deem and Ramdas Pophale) SiO2 
 PCOD9317782
Probable space group: C 2 2 21
;
_chemical_formula_sum "Si O2"
_cell_formula_units_Z 52
_cell_length_a 18.712676
_cell_length_b 5.356145
_cell_length_c 21.877541
_cell_angle_alpha 90.000000
_cell_angle_beta 90.000000
_cell_angle_gamma 90.000000
_cell_volume 2192.737935
_symmetry_space_group_name_H-M "C 2 2 21"
_symmetry_group_IT_number 20
_symmetry_cell_setting 'orthorhombic'
loop_
_space_group_symop_operation_xyz
x,y,z
-x,-y,1/2+z
x,-y,-z
-x,y,1/2-z
1/2+x,1/2+y,z
1/2-x,1/2-y,1/2+z
1/2+x,1/2-y,-z
1/2-x,1/2+y,1/2-z
loop_
_atom_site_type_symbol
_atom_site_label
_atom_site_fract_x
_atom_site_fract_y
_atom_site_fract_z
Si Si1 0.523465 0.896042 0.080240
Si Si2 0.886240 0.000000 0.500000
Si Si3 0.713114 0.753058 0.761353
Si Si4 0.355477 0.944341 0.068120
Si Si5 0.513575 0.444080 0.820635
Si Si6 0.360285 0.281958 0.383468
Si Si7 0.861107 0.069776 0.858708
O O1 0.558238 0.682170 0.037093
O O2 0.442591 0.946954 0.062308
O O3 0.515389 0.832218 0.152435
O O4 0.584915 0.099474 0.082325
O O5 0.833893 0.923667 0.443569
O O6 0.770356 0.526463 0.766768
O O7 0.690873 0.820510 0.831201
O O8 0.662100 0.610250 0.711928
O O9 0.340231 0.682829 0.103984
O O10 0.334253 0.185358 0.107189
O O11 0.328488 0.000000 0.000000
O O12 0.500000 0.458734 0.750000
O O13 0.588904 0.549362 0.841188
O O14 0.447692 0.568498 0.856463
#
# Coordination Sequence:
#
# PCOD9317782 Si02
#       7
#     8   4   8   8   8   8   8
#     4  10  22  34  62 102 147 177 216 269 345 433
#     4  10  22  38  64 100 138 176 224 276 350 416
#     4  12  29  49  74  95 134 187 245 298 352 400
#     4  11  22  37  66 102 145 185 211 272 348 430
#     4  10  20  35  60 102 134 173 209 275 348 419
#     4  11  22  41  68  98 137 177 225 286 352 415
#     4  11  23  42  66  99 138 175 232 279 341 422
#
# _framework density 23.714645000000001
#
# number of rings (size 3 to 8) (size 9 to 14) (size 15 to 20)
#    0.000    1.231    3.077    2.769    8.615    3.077 
#    0.000    0.000   10.154    0.000    0.000    0.000 
#    0.000    0.000    0.000    0.000    0.000    0.000 
#
# Total GULP energy -144770.113975 kJ/mol
# GULP energy per Si atom -5568.081307 kJ/mol
# Density = 2.366067 g / cm^3
# Si number density = 23.714645 Si / 1000 Ang^3
#
#
#
# Elastic Constant Matrix: (Units=GPa)
#
#
# Indices 1 2 3 4 5 6 
#
# 1 17.6809 -9.8052 -0.2709 0.0000 0.0000 0.0000
# 2 -9.8052 87.8914 39.7956 0.0000 0.0000 0.0000
# 3 -0.2709 39.7956 182.1997 0.0000 0.0000 0.0000
# 4 0.0000 0.0000 0.0000 17.7846 0.0000 0.0000
# 5 0.0000 0.0000 0.0000 0.0000 15.7049 0.0000
# 6 0.0000 0.0000 0.0000 0.0000 0.0000 14.3636
#
#
#
# Elastic Compliance Matrix: (Units=1/GPa)
#
#
# Indices 1 2 3 4 5 6 
#
# 1 0.060675 0.007467 -0.001541 0.000000 0.000000 0.000000
# 2 0.007467 0.013545 -0.002947 0.000000 0.000000 0.000000
# 3 -0.001541 -0.002947 0.006130 0.000000 0.000000 0.000000
# 4 0.000000 0.000000 0.000000 0.056228 0.000000 0.000000
# 5 0.000000 0.000000 0.000000 0.000000 0.063674 0.000000
# 6 0.000000 0.000000 0.000000 0.000000 0.000000 0.069620
#
#
# Mechanical properties :
#
#
# Convention : Reuss Voigt Hill
#
# Bulk Modulus (GPa) = 11.58648 38.57900 25.08274
# Shear Modulus (GPa) = 17.08317 26.77413 21.92865
#
# Velocity S-wave (km/s) = 2.68687 3.36372 3.04417
# Velocity P-wave (km/s) = 3.81079 5.60263 4.79122
#
# Compressibility (1/GPa) = 0.08630746
#
# Stress axis : x y z
#
# Youngs Moduli (GPa) = 16.48116 73.82710 163.13329
#
# Poissons Ratio (x) = -0.55123 0.25132
# Poissons Ratio (y) = -0.12306 0.48082
# Poissons Ratio (z) = 0.02539 0.21760
#
# Static dielectric constant tensor:
#      x y z
#    x 2.013620 0.000000 0.000000 
#    y 0.000000 2.088370 0.000000 
#    z 0.000000 0.000000 1.927010 
# 
# From -- ./inp_files/27884.got.cif
#   From: 2010.05.17/outbox.cif.g08.bks.cpg/sg20_14_cif.got.tgz:27884.got - 2010.06.03 22:52:26.
