data_PCOD9317440
_publ_section_title
;
Structure prediction by ZEFSAII (Michael W. Deem and Ramdas Pophale) SiO2 
 PCOD9317440
Probable space group: C 2 2 21
;
_chemical_formula_sum "Si O2"
_cell_formula_units_Z 64
_cell_length_a 8.868408
_cell_length_b 15.558606
_cell_length_c 21.497856
_cell_angle_alpha 90.000000
_cell_angle_beta 90.000000
_cell_angle_gamma 90.000000
_cell_volume 2966.275588
_symmetry_space_group_name_H-M "C 2 2 21"
_symmetry_group_IT_number 20
_symmetry_cell_setting 'orthorhombic'
loop_
_space_group_symop_operation_xyz
x,y,z
-x,-y,1/2+z
x,-y,-z
-x,y,1/2-z
1/2+x,1/2+y,z
1/2-x,1/2-y,1/2+z
1/2+x,1/2-y,-z
1/2-x,1/2+y,1/2-z
loop_
_atom_site_type_symbol
_atom_site_label
_atom_site_fract_x
_atom_site_fract_y
_atom_site_fract_z
Si Si1 0.631801 0.450411 0.839050
Si Si2 0.532812 0.827037 0.430689
Si Si3 0.170503 0.593541 0.226099
Si Si4 0.810243 0.562260 0.416827
Si Si5 0.955975 0.944828 0.060899
Si Si6 0.419686 0.286294 0.810051
Si Si7 0.872513 0.480453 0.934555
Si Si8 0.204324 0.201671 0.509091
O O1 0.720787 0.459638 0.773514
O O2 0.547391 0.526661 0.877463
O O3 0.511857 0.374195 0.828128
O O4 0.767066 0.430819 0.887041
O O5 0.569743 0.774714 0.368319
O O6 0.569022 0.925646 0.413253
O O7 0.362254 0.803119 0.453470
O O8 0.648983 0.792879 0.483669
O O9 0.166912 0.558793 0.156446
O O10 0.256173 0.683973 0.214455
O O11 0.000000 0.599814 0.250000
O O12 0.715791 0.477943 0.431664
O O13 0.721625 0.641534 0.447249
O O14 0.973135 0.568645 0.447130
O O15 0.933053 0.844620 0.046643
O O16 0.002742 0.000000 0.000000
O O17 0.500000 0.246820 0.750000
O O18 0.798037 0.500000 0.000000
#
# Coordination Sequence:
#
# PCOD9317440 Si02
#       8
#     8   8   8   8   8   8   8   8
#     4  11  23  37  68  96 125 171 225 277 321 397
#     4  12  25  42  64  96 138 176 225 278 342 405
#     4  11  21  40  69  95 126 176 226 270 329 403
#     4  11  19  43  64  93 131 174 221 267 337 399
#     4  10  19  38  62  91 130 168 212 275 338 387
#     4  10  23  44  66  92 129 176 223 271 336 406
#     4  12  24  40  63 100 134 168 225 282 331 399
#     4  11  24  39  66  94 135 179 214 283 350 401
#
# _framework density 21.575877999999999
#
# number of rings (size 3 to 8) (size 9 to 14) (size 15 to 20)
#    0.000    1.000    6.250    1.500    3.500    0.000 
#    2.250    0.000    0.000    0.000    0.000    0.000 
#    0.000    0.000    0.000    0.000    0.000    0.000 
#
# Total GULP energy -178433.075632 kJ/mol
# GULP energy per Si atom -5576.033613 kJ/mol
# Density = 2.152677 g / cm^3
# Si number density = 21.575878 Si / 1000 Ang^3
#
#
#
# Elastic Constant Matrix: (Units=GPa)
#
#
# Indices 1 2 3 4 5 6 
#
# 1 108.1480 3.5602 26.1409 0.0000 0.0000 0.0000
# 2 3.5602 42.3043 10.0398 0.0000 0.0000 0.0000
# 3 26.1409 10.0398 131.8480 0.0000 0.0000 0.0000
# 4 0.0000 0.0000 0.0000 30.6860 0.0000 0.0000
# 5 0.0000 0.0000 0.0000 0.0000 29.3300 0.0000
# 6 0.0000 0.0000 0.0000 0.0000 0.0000 -2.1422
#
#
#
# Elastic Compliance Matrix: (Units=1/GPa)
#
#
# Indices 1 2 3 4 5 6 
#
# 1 0.009718 -0.000367 -0.001899 0.000000 0.000000 0.000000
# 2 -0.000367 0.024087 -0.001761 0.000000 0.000000 0.000000
# 3 -0.001899 -0.001761 0.008095 0.000000 0.000000 0.000000
# 4 0.000000 0.000000 0.000000 0.032588 0.000000 0.000000
# 5 0.000000 0.000000 0.000000 0.000000 0.034095 0.000000
# 6 0.000000 0.000000 0.000000 0.000000 0.000000 -0.466819
#
#
# Mechanical properties :
#
#
# Convention : Reuss Voigt Hill
#
# Bulk Modulus (GPa) = 29.54617 40.19800 34.87209
# Shear Modulus (GPa) = -14.75363 27.74540 6.49588
#
# Velocity S-wave (km/s) = -2.61780 3.58990 1.73702
# Velocity P-wave (km/s) = 2.14165 5.98787 4.49673
#
# Compressibility (1/GPa) = 0.03384534
#
# Stress axis : x y z
#
# Youngs Moduli (GPa) = 102.90590 41.51585 123.53208
#
# Poissons Ratio (x) = 0.01524 0.23455
# Poissons Ratio (y) = 0.03779 0.21758
# Poissons Ratio (z) = 0.19539 0.07312
#
# Static dielectric constant tensor:
#      x y z
#    x 1.832880 0.000000 0.000000 
#    y 0.000000 1.782360 0.000000 
#    z 0.000000 0.000000 1.804260 
# 
# From -- ./inp_files/26866.got.cif
#   From: 2010.05.17/outbox.cif.g08.bks.cpg/sg20_14_cif.got.tgz:26866.got - 2010.06.03 22:52:26.
