data_PCOD9317609
_publ_section_title
;
Structure prediction by ZEFSAII (Michael W. Deem and Ramdas Pophale) SiO2 
 PCOD9317609
Probable space group: C 2 2 21
;
_chemical_formula_sum "Si O2"
_cell_formula_units_Z 64
_cell_length_a 11.526305
_cell_length_b 16.588797
_cell_length_c 17.848700
_cell_angle_alpha 90.000000
_cell_angle_beta 90.000000
_cell_angle_gamma 90.000000
_cell_volume 3412.805909
_symmetry_space_group_name_H-M "C 2 2 21"
_symmetry_group_IT_number 20
_symmetry_cell_setting 'orthorhombic'
loop_
_space_group_symop_operation_xyz
x,y,z
-x,-y,1/2+z
x,-y,-z
-x,y,1/2-z
1/2+x,1/2+y,z
1/2-x,1/2-y,1/2+z
1/2+x,1/2-y,-z
1/2-x,1/2+y,1/2-z
loop_
_atom_site_type_symbol
_atom_site_label
_atom_site_fract_x
_atom_site_fract_y
_atom_site_fract_z
Si Si1 0.527158 0.480469 0.087877
Si Si2 0.929629 0.728523 0.952124
Si Si3 0.897684 0.151546 0.388901
Si Si4 0.086732 0.312636 0.857758
Si Si5 0.329137 0.796611 0.809406
Si Si6 0.682504 0.658748 0.936930
Si Si7 0.663797 0.650465 0.583063
Si Si8 0.889449 0.593717 0.495547
O O1 0.540033 0.566653 0.125420
O O2 0.643358 0.426861 0.095569
O O3 0.421808 0.421402 0.105981
O O4 0.511960 0.500000 0.000000
O O5 0.812466 0.687475 0.923131
O O6 0.007185 0.777560 0.892488
O O7 0.888879 0.793429 0.015684
O O8 0.007998 0.655775 0.983644
O O9 0.788773 0.161138 0.334707
O O10 0.843154 0.154443 0.473745
O O11 0.149460 0.301341 0.778693
O O12 0.103240 0.228203 0.900982
O O13 0.141103 0.380954 0.910447
O O14 0.950322 0.329674 0.844178
O O15 0.317823 0.707913 0.845818
O O16 0.781721 0.614345 0.549220
O O17 0.920370 0.500000 0.500000
#
# Coordination Sequence:
#
# PCOD9317609 Si02
#       8
#     8   8   8   8   8   8   8   8
#     4  10  20  32  57  92 117 144 196 256 303 334
#     4  12  19  35  61  85 119 154 207 248 303 361
#     4  11  20  36  60  88 117 155 201 255 295 368
#     4  11  21  39  61  94 117 166 202 258 306 377
#     4  11  21  37  67  82 121 167 209 239 311 383
#     4  11  19  34  59  83 120 148 201 246 297 356
#     4  12  19  39  62  92 116 161 206 256 306 367
#     4  12  24  37  63  94 123 154 213 269 308 357
#
# _framework density 18.752897999999998
#
# number of rings (size 3 to 8) (size 9 to 14) (size 15 to 20)
#    0.000    0.750   10.000    0.375    0.000    2.500 
#    0.000    1.875    0.000    0.000    0.000    0.000 
#    0.000    0.000    0.000    0.000    0.000    0.000 
#
# Total GULP energy -178552.491831 kJ/mol
# GULP energy per Si atom -5579.765370 kJ/mol
# Density = 1.871022 g / cm^3
# Si number density = 18.752898 Si / 1000 Ang^3
#
#
#
# Elastic Constant Matrix: (Units=GPa)
#
#
# Indices 1 2 3 4 5 6 
#
# 1 82.5691 25.8622 -1.2677 0.0000 0.0000 0.0000
# 2 25.8622 118.0304 16.1426 0.0000 0.0000 0.0000
# 3 -1.2677 16.1426 40.1412 0.0000 0.0000 0.0000
# 4 0.0000 0.0000 0.0000 5.7125 0.0000 0.0000
# 5 0.0000 0.0000 0.0000 0.0000 20.3960 0.0000
# 6 0.0000 0.0000 0.0000 0.0000 0.0000 28.4805
#
#
#
# Elastic Compliance Matrix: (Units=1/GPa)
#
#
# Indices 1 2 3 4 5 6 
#
# 1 0.013107 -0.003099 0.001660 0.000000 0.000000 0.000000
# 2 -0.003099 0.009698 -0.003998 0.000000 0.000000 0.000000
# 3 0.001660 -0.003998 0.026572 0.000000 0.000000 0.000000
# 4 0.000000 0.000000 0.000000 0.175056 0.000000 0.000000
# 5 0.000000 0.000000 0.000000 0.000000 0.049029 0.000000
# 6 0.000000 0.000000 0.000000 0.000000 0.000000 0.035112
#
#
# Mechanical properties :
#
#
# Convention : Reuss Voigt Hill
#
# Bulk Modulus (GPa) = 25.97126 35.80164 30.88645
# Shear Modulus (GPa) = 15.04742 24.25137 19.64940
#
# Velocity S-wave (km/s) = 2.83575 3.60002 3.24049
# Velocity P-wave (km/s) = 4.95996 6.03431 5.52332
#
# Compressibility (1/GPa) = 0.03850410
#
# Stress axis : x y z
#
# Youngs Moduli (GPa) = 76.29369 103.11162 37.63328
#
# Poissons Ratio (x) = 0.31955 -0.06248
# Poissons Ratio (y) = 0.23644 0.15046
# Poissons Ratio (z) = -0.12666 0.41224
#
# Static dielectric constant tensor:
#      x y z
#    x 1.675730 0.000000 0.000000 
#    y 0.000000 1.656130 0.000000 
#    z 0.000000 0.000000 1.665000 
# 
# From -- ./inp_files/24435.got.cif
#   From: 2010.05.17/outbox.cif.g08.bks.cpg/sg20_13_cif.got.tgz:24435.got - 2010.06.03 22:52:26.
