data_PCOD9317092
_publ_section_title
;
Structure prediction by ZEFSAII (Michael W. Deem and Ramdas Pophale) SiO2 
 PCOD9317092
Probable space group: C 2 2 21
;
_chemical_formula_sum "Si O2"
_cell_formula_units_Z 64
_cell_length_a 19.341777
_cell_length_b 27.487731
_cell_length_c 5.785117
_cell_angle_alpha 90.000000
_cell_angle_beta 90.000000
_cell_angle_gamma 90.000000
_cell_volume 3075.724348
_symmetry_space_group_name_H-M "C 2 2 21"
_symmetry_group_IT_number 20
_symmetry_cell_setting 'orthorhombic'
loop_
_space_group_symop_operation_xyz
x,y,z
-x,-y,1/2+z
x,-y,-z
-x,y,1/2-z
1/2+x,1/2+y,z
1/2-x,1/2-y,1/2+z
1/2+x,1/2-y,-z
1/2-x,1/2+y,1/2-z
loop_
_atom_site_type_symbol
_atom_site_label
_atom_site_fract_x
_atom_site_fract_y
_atom_site_fract_z
Si Si1 0.696181 0.020971 0.753442
Si Si2 0.758428 0.803427 0.900152
Si Si3 0.464505 0.707886 0.000733
Si Si4 0.355029 0.514232 0.243932
Si Si5 0.658195 0.216068 0.461548
Si Si6 0.989696 0.101626 0.500998
Si Si7 0.661799 0.622548 0.129843
Si Si8 0.789579 0.370811 0.204991
O O1 0.680051 0.077896 0.771822
O O2 0.673496 0.000000 0.500000
O O3 0.779736 0.011998 0.754796
O O4 0.670937 0.000000 0.000000
O O5 0.775464 0.748416 0.964193
O O6 0.753292 0.841767 0.104457
O O7 0.682681 0.802837 0.786388
O O8 0.820413 0.826116 0.747540
O O9 0.500000 0.715134 0.750000
O O10 0.401703 0.745298 0.978589
O O11 0.459036 0.648636 0.009790
O O12 0.500000 0.719103 0.250000
O O13 0.385122 0.500000 0.500000
O O14 0.343093 0.572257 0.228981
O O15 0.389788 0.500000 0.000000
O O16 0.654842 0.168163 0.615336
O O17 0.911229 0.122873 0.501577
O O18 0.000000 0.077049 0.750000
O O19 0.000000 0.076299 0.250000
O O20 0.731687 0.616194 0.984112
#
# Coordination Sequence:
#
# PCOD9317092 Si02
#       8
#     8   8   8   8   8   8   8   8
#     4  10  19  36  55  85 119 157 192 235 305 385
#     4  11  22  36  56  88 126 163 195 260 319 390
#     4  10  23  40  61  80 115 171 218 258 290 353
#     4  10  19  34  56  88 114 152 191 247 311 381
#     4  11  24  37  57  89 128 165 211 255 321 375
#     4  10  23  39  57  84 109 156 218 265 291 347
#     4  11  23  36  63  87 118 162 213 256 320 380
#     4  11  23  36  59  91 124 162 195 255 317 390
#
# _framework density 20.808107
#
# number of rings (size 3 to 8) (size 9 to 14) (size 15 to 20)
#    0.000    1.500    3.750    3.000    8.750    0.000 
#    0.000    0.000    0.000    1.500    0.000    0.000 
#    0.000    2.000    0.000    0.000    0.000    0.000 
#
# Total GULP energy -178237.347201 kJ/mol
# GULP energy per Si atom -5569.917100 kJ/mol
# Density = 2.076075 g / cm^3
# Si number density = 20.808107 Si / 1000 Ang^3
#
#
#
# Elastic Constant Matrix: (Units=GPa)
#
#
# Indices 1 2 3 4 5 6 
#
# 1 15.2356 2.0245 16.1094 0.0000 0.0000 0.0000
# 2 2.0245 135.9005 38.2818 0.0000 0.0000 0.0000
# 3 16.1094 38.2818 151.8022 0.0000 0.0000 0.0000
# 4 0.0000 0.0000 0.0000 18.5884 0.0000 0.0000
# 5 0.0000 0.0000 0.0000 0.0000 1.4140 0.0000
# 6 0.0000 0.0000 0.0000 0.0000 0.0000 20.1634
#
#
#
# Elastic Compliance Matrix: (Units=1/GPa)
#
#
# Indices 1 2 3 4 5 6 
#
# 1 0.074112 0.001196 -0.008167 0.000000 0.000000 0.000000
# 2 0.001196 0.007940 -0.002129 0.000000 0.000000 0.000000
# 3 -0.008167 -0.002129 0.007991 0.000000 0.000000 0.000000
# 4 0.000000 0.000000 0.000000 0.053797 0.000000 0.000000
# 5 0.000000 0.000000 0.000000 0.000000 0.707197 0.000000
# 6 0.000000 0.000000 0.000000 0.000000 0.000000 0.049595
#
#
# Mechanical properties :
#
#
# Convention : Reuss Voigt Hill
#
# Bulk Modulus (GPa) = 13.91898 46.19661 30.05780
# Shear Modulus (GPa) = 5.30347 24.46801 14.88574
#
# Velocity S-wave (km/s) = 1.59821 3.43284 2.67756
# Velocity P-wave (km/s) = 3.17954 6.16133 4.90262
#
# Compressibility (1/GPa) = 0.07184432
#
# Stress axis : x y z
#
# Youngs Moduli (GPa) = 13.49312 125.93943 125.13845
#
# Poissons Ratio (x) = -0.15067 1.02195
# Poissons Ratio (y) = -0.01614 0.26647
# Poissons Ratio (z) = 0.11019 0.26817
#
# Static dielectric constant tensor:
#      x y z
#    x 1.768510 0.000000 0.000000 
#    y 0.000000 1.804600 0.000000 
#    z 0.000000 0.000000 1.924960 
# 
# From -- ./inp_files/3393.got.cif
#   From: 2010.05.17/outbox.cif.g08.bks.cpg/sg20_2_cif.got.tgz:3393.got - 2010.06.03 22:52:26.
