data_PCOD9317634
_publ_section_title
;
Structure prediction by ZEFSAII (Michael W. Deem and Ramdas Pophale) SiO2 
 PCOD9317634
Probable space group: C 2 2 21
;
_chemical_formula_sum "Si O2"
_cell_formula_units_Z 64
_cell_length_a 18.271747
_cell_length_b 22.449585
_cell_length_c 7.929910
_cell_angle_alpha 90.000000
_cell_angle_beta 90.000000
_cell_angle_gamma 90.000000
_cell_volume 3252.794662
_symmetry_space_group_name_H-M "C 2 2 21"
_symmetry_group_IT_number 20
_symmetry_cell_setting 'orthorhombic'
loop_
_space_group_symop_operation_xyz
x,y,z
-x,-y,1/2+z
x,-y,-z
-x,y,1/2-z
1/2+x,1/2+y,z
1/2-x,1/2-y,1/2+z
1/2+x,1/2-y,-z
1/2-x,1/2+y,1/2-z
loop_
_atom_site_type_symbol
_atom_site_label
_atom_site_fract_x
_atom_site_fract_y
_atom_site_fract_z
Si Si1 0.772877 0.683836 0.470786
Si Si2 0.888022 0.238091 0.661254
Si Si3 0.554168 0.594346 0.451333
Si Si4 0.167346 0.714466 0.655488
Si Si5 0.103446 0.940077 0.907560
Si Si6 0.280512 0.628340 0.577503
Si Si7 0.964492 0.770213 0.976507
Si Si8 0.704168 0.564287 0.585582
O O1 0.839268 0.702585 0.350039
O O2 0.803754 0.703630 0.654873
O O3 0.705463 0.725838 0.416954
O O4 0.745808 0.616375 0.482323
O O5 0.832804 0.182448 0.642392
O O6 0.927556 0.232763 0.839083
O O7 0.949731 0.236914 0.515498
O O8 0.471196 0.580210 0.502105
O O9 0.578660 0.557794 0.285759
O O10 0.551594 0.663940 0.406695
O O11 0.617448 0.579466 0.582010
O O12 0.202855 0.659740 0.551377
O O13 0.080894 0.723289 0.634165
O O14 0.172887 0.897171 0.923792
O O15 0.124453 0.000000 0.000000
O O16 0.273191 0.577749 0.721535
O O17 0.716319 0.500000 0.500000
#
# Coordination Sequence:
#
# PCOD9317634 Si02
#       8
#     8   8   8   8   8   8   8   8
#     4  10  21  35  53  81 107 145 180 233 283 331
#     4  10  21  35  56  77 111 140 178 232 284 341
#     4  11  22  35  51  77 105 148 192 223 261 330
#     4  10  20  33  55  77 109 137 184 227 283 336
#     4  11  24  36  48  75 109 150 190 222 263 312
#     4  10  20  36  52  77 108 144 180 233 271 316
#     4  11  20  36  55  83 105 144 179 227 293 340
#     4  11  21  36  56  77 108 152 192 224 270 331
#
# _framework density 19.675388000000002
#
# number of rings (size 3 to 8) (size 9 to 14) (size 15 to 20)
#    0.000    1.500    3.750    2.625    3.500    3.000 
#    0.000    0.000    0.000    0.000    0.000    7.875 
#    0.000    0.000    0.000    0.000    0.000    0.000 
#
# Total GULP energy -178667.266472 kJ/mol
# GULP energy per Si atom -5583.352077 kJ/mol
# Density = 1.963061 g / cm^3
# Si number density = 19.675388 Si / 1000 Ang^3
#
#
#
# Elastic Constant Matrix: (Units=GPa)
#
#
# Indices 1 2 3 4 5 6 
#
# 1 67.7694 38.2368 15.6058 0.0000 0.0000 0.0000
# 2 38.2368 99.1143 20.8013 0.0000 0.0000 0.0000
# 3 15.6058 20.8013 53.5552 0.0000 0.0000 0.0000
# 4 0.0000 0.0000 0.0000 21.3443 0.0000 0.0000
# 5 0.0000 0.0000 0.0000 0.0000 31.4913 0.0000
# 6 0.0000 0.0000 0.0000 0.0000 0.0000 12.4437
#
#
#
# Elastic Compliance Matrix: (Units=1/GPa)
#
#
# Indices 1 2 3 4 5 6 
#
# 1 0.019286 -0.006817 -0.002972 0.000000 0.000000 0.000000
# 2 -0.006817 0.013394 -0.003216 0.000000 0.000000 0.000000
# 3 -0.002972 -0.003216 0.020788 0.000000 0.000000 0.000000
# 4 0.000000 0.000000 0.000000 0.046851 0.000000 0.000000
# 5 0.000000 0.000000 0.000000 0.000000 0.031755 0.000000
# 6 0.000000 0.000000 0.000000 0.000000 0.000000 0.080362
#
#
# Mechanical properties :
#
#
# Convention : Reuss Voigt Hill
#
# Bulk Modulus (GPa) = 36.41916 41.08077 38.74997
# Shear Modulus (GPa) = 20.19400 22.77554 21.48477
#
# Velocity S-wave (km/s) = 3.20716 3.40599 3.30807
# Velocity P-wave (km/s) = 5.68020 6.03260 5.85905
#
# Compressibility (1/GPa) = 0.02745807
#
# Stress axis : x y z
#
# Youngs Moduli (GPa) = 51.84984 74.65992 48.10562
#
# Poissons Ratio (x) = 0.50893 0.14299
# Poissons Ratio (y) = 0.35344 0.15471
# Poissons Ratio (z) = 0.15412 0.24011
#
# Static dielectric constant tensor:
#      x y z
#    x 1.725660 0.000000 0.000000 
#    y 0.000000 1.712370 0.000000 
#    z 0.000000 0.000000 1.796550 
# 
# From -- ./inp_files/9662.got.cif
#   From: 2010.05.17/outbox.cif.g08.bks.cpg/sg20_5_cif.got.tgz:9662.got - 2010.06.03 22:52:26.
