data_PCOD9317202
_publ_section_title
;
Structure prediction by ZEFSAII (Michael W. Deem and Ramdas Pophale) SiO2 
 PCOD9317202
Probable space group: C 2 2 21
;
_chemical_formula_sum "Si O2"
_cell_formula_units_Z 56
_cell_length_a 5.146961
_cell_length_b 32.128552
_cell_length_c 16.754859
_cell_angle_alpha 90.000000
_cell_angle_beta 90.000000
_cell_angle_gamma 90.000000
_cell_volume 2770.657275
_symmetry_space_group_name_H-M "C 2 2 21"
_symmetry_group_IT_number 20
_symmetry_cell_setting 'orthorhombic'
loop_
_space_group_symop_operation_xyz
x,y,z
-x,-y,1/2+z
x,-y,-z
-x,y,1/2-z
1/2+x,1/2+y,z
1/2-x,1/2-y,1/2+z
1/2+x,1/2-y,-z
1/2-x,1/2+y,1/2-z
loop_
_atom_site_type_symbol
_atom_site_label
_atom_site_fract_x
_atom_site_fract_y
_atom_site_fract_z
Si Si1 0.506537 0.481531 0.653203
Si Si2 0.573808 0.126989 0.903802
Si Si3 0.505543 0.966063 0.347082
Si Si4 0.960375 0.113249 0.155097
Si Si5 0.580251 0.671412 0.841186
Si Si6 0.094685 0.746349 0.054027
Si Si7 0.959817 0.346835 0.914859
O O1 0.500000 0.479755 0.750000
O O2 0.273757 0.511934 0.629398
O O3 0.487361 0.433945 0.625909
O O4 0.776850 0.502342 0.630562
O O5 0.541525 0.078244 0.887229
O O6 0.862937 0.142558 0.883505
O O7 0.361978 0.150627 0.849604
O O8 0.502390 0.139784 0.993642
O O9 0.500000 0.960455 0.250000
O O10 0.668559 0.127010 0.135588
O O11 0.000000 0.114853 0.250000
O O12 0.169365 0.142888 0.112740
O O13 0.500000 0.675583 0.750000
O O14 0.583979 0.715829 0.884419
O O15 0.024899 0.701884 0.091567
O O16 0.877307 0.754880 0.986499
#
# Coordination Sequence:
#
# PCOD9317202 Si02
#       7
#     8   8   8   8   8   8   8
#     4   9  19  37  60  86 123 167 208 257 319 366
#     4  12  24  41  63  96 134 169 208 259 322 384
#     4  10  19  35  60  89 122 167 213 255 305 375
#     4  11  24  43  66  94 125 164 220 274 312 371
#     4  12  24  41  66  97 129 167 215 266 310 369
#     4  12  23  45  67  91 128 172 211 251 321 391
#     4  12  24  42  68  93 127 171 211 255 333 386
#
# _framework density 20.21181
#
# number of rings (size 3 to 8) (size 9 to 14) (size 15 to 20)
#    0.000    0.857    2.857    5.143    0.000    4.571 
#    0.000    4.286    0.000    0.000    0.000    0.000 
#    0.000    0.000    0.000    0.000    0.000    0.000 
#
# Total GULP energy -156691.429202 kJ/mol
# GULP energy per Si atom -5596.122472 kJ/mol
# Density = 2.016581 g / cm^3
# Si number density = 20.211810 Si / 1000 Ang^3
#
#
#
# Elastic Constant Matrix: (Units=GPa)
#
#
# Indices 1 2 3 4 5 6 
#
# 1 57.7501 -15.9379 -13.4026 0.0000 0.0000 0.0000
# 2 -15.9379 110.3144 -8.4558 0.0000 0.0000 0.0000
# 3 -13.4026 -8.4558 41.0449 0.0000 0.0000 0.0000
# 4 0.0000 0.0000 0.0000 14.5076 0.0000 0.0000
# 5 0.0000 0.0000 0.0000 0.0000 30.8766 0.0000
# 6 0.0000 0.0000 0.0000 0.0000 0.0000 40.3607
#
#
#
# Elastic Compliance Matrix: (Units=1/GPa)
#
#
# Indices 1 2 3 4 5 6 
#
# 1 0.019939 0.003434 0.007218 0.000000 0.000000 0.000000
# 2 0.003434 0.009802 0.003141 0.000000 0.000000 0.000000
# 3 0.007218 0.003141 0.027368 0.000000 0.000000 0.000000
# 4 0.000000 0.000000 0.000000 0.068929 0.000000 0.000000
# 5 0.000000 0.000000 0.000000 0.000000 0.032387 0.000000
# 6 0.000000 0.000000 0.000000 0.000000 0.000000 0.024777
#
#
# Mechanical properties :
#
#
# Convention : Reuss Voigt Hill
#
# Bulk Modulus (GPa) = 11.80720 14.83519 13.32120
# Shear Modulus (GPa) = 27.19655 33.60936 30.40295
#
# Velocity S-wave (km/s) = 3.67219 4.08224 3.88263
# Velocity P-wave (km/s) = 4.88205 5.43832 5.16768
#
# Compressibility (1/GPa) = 0.08469406
#
# Stress axis : x y z
#
# Youngs Moduli (GPa) = 50.15317 102.02129 36.53962
#
# Poissons Ratio (x) = -0.35034 -0.26375
# Poissons Ratio (y) = -0.17223 -0.11476
# Poissons Ratio (z) = -0.36202 -0.32041
#
# Static dielectric constant tensor:
#      x y z
#    x 1.685110 0.000000 0.000000 
#    y 0.000000 1.685140 0.000000 
#    z 0.000000 0.000000 1.654440 
# 
# From -- ./inp_files/17961.got.cif
#   From: 2010.05.17/outbox.cif.g08.bks.cpg/sg20_9_cif.got.tgz:17961.got - 2010.06.03 22:52:26.
