data_PCOD9317753
_publ_section_title
;
Structure prediction by ZEFSAII (Michael W. Deem and Ramdas Pophale) SiO2 
 PCOD9317753
Probable space group: C 2 2 21
;
_chemical_formula_sum "Si O2"
_cell_formula_units_Z 40
_cell_length_a 13.853228
_cell_length_b 8.067236
_cell_length_c 16.159085
_cell_angle_alpha 90.000000
_cell_angle_beta 90.000000
_cell_angle_gamma 90.000000
_cell_volume 1805.895058
_symmetry_space_group_name_H-M "C 2 2 21"
_symmetry_group_IT_number 20
_symmetry_cell_setting 'orthorhombic'
loop_
_space_group_symop_operation_xyz
x,y,z
-x,-y,1/2+z
x,-y,-z
-x,y,1/2-z
1/2+x,1/2+y,z
1/2-x,1/2-y,1/2+z
1/2+x,1/2-y,-z
1/2-x,1/2+y,1/2-z
loop_
_atom_site_type_symbol
_atom_site_label
_atom_site_fract_x
_atom_site_fract_y
_atom_site_fract_z
Si Si1 0.323520 0.499323 0.702629
Si Si2 0.912612 0.834065 0.447926
Si Si3 0.392798 0.016462 0.255540
Si Si4 0.827244 0.661021 0.598143
Si Si5 0.611040 0.343724 0.358281
O O1 0.358828 0.637572 0.638522
O O2 0.211085 0.542333 0.719360
O O3 0.340044 0.321783 0.659353
O O4 0.379769 0.510316 0.789945
O O5 0.877657 0.695056 0.511324
O O6 0.024057 0.837127 0.421922
O O7 0.891386 0.000000 0.500000
O O8 0.500000 0.937243 0.250000
O O9 0.401612 0.185339 0.202566
O O10 0.370274 0.995219 0.352827
O O11 0.711653 0.652474 0.592601
#
# Coordination Sequence:
#
# PCOD9317753 Si02
#       5
#     8   8   8   8   8
#     4   9  19  37  59  79 111 155 197 229 270 342
#     4  10  20  36  59  86 113 150 194 237 282 333
#     4  10  20  35  56  83 113 147 186 230 287 340
#     4   9  21  37  56  86 116 144 190 243 283 327
#     4  10  20  39  61  82 112 154 192 229 284 346
#
# _framework density 22.14968
#
# number of rings (size 3 to 8) (size 9 to 14) (size 15 to 20)
#    0.000    2.400    0.000    1.800    0.000    4.800 
#    0.000   16.000    0.000    0.000    0.000    0.000 
#    0.000    0.000    0.000    0.000    0.000    0.000 
#
# Total GULP energy -111439.133633 kJ/mol
# GULP energy per Si atom -5571.956682 kJ/mol
# Density = 2.209927 g / cm^3
# Si number density = 22.149680 Si / 1000 Ang^3
#
#
#
# Elastic Constant Matrix: (Units=GPa)
#
#
# Indices 1 2 3 4 5 6 
#
# 1 107.7294 -19.2089 16.8614 0.0000 0.0000 0.0000
# 2 -19.2089 44.5886 -5.1424 0.0000 0.0000 0.0000
# 3 16.8614 -5.1424 70.5316 0.0000 0.0000 0.0000
# 4 0.0000 0.0000 0.0000 29.3889 0.0000 0.0000
# 5 0.0000 0.0000 0.0000 0.0000 41.9494 0.0000
# 6 0.0000 0.0000 0.0000 0.0000 0.0000 14.7477
#
#
#
# Elastic Compliance Matrix: (Units=1/GPa)
#
#
# Indices 1 2 3 4 5 6 
#
# 1 0.010375 0.004219 -0.002173 0.000000 0.000000 0.000000
# 2 0.004219 0.024333 0.000766 0.000000 0.000000 0.000000
# 3 -0.002173 0.000766 0.014753 0.000000 0.000000 0.000000
# 4 0.000000 0.000000 0.000000 0.034027 0.000000 0.000000
# 5 0.000000 0.000000 0.000000 0.000000 0.023838 0.000000
# 6 0.000000 0.000000 0.000000 0.000000 0.000000 0.067807
#
#
# Mechanical properties :
#
#
# Convention : Reuss Voigt Hill
#
# Bulk Modulus (GPa) = 18.15381 23.09663 20.62522
# Shear Modulus (GPa) = 26.61402 32.57316 29.59359
#
# Velocity S-wave (km/s) = 3.47010 3.83899 3.65920
# Velocity P-wave (km/s) = 4.92638 5.48640 5.21392
#
# Compressibility (1/GPa) = 0.05508486
#
# Stress axis : x y z
#
# Youngs Moduli (GPa) = 96.38707 41.09631 67.78168
#
# Poissons Ratio (x) = -0.17338 0.14726
# Poissons Ratio (y) = -0.40665 -0.05189
# Poissons Ratio (z) = 0.20941 -0.03146
#
# Static dielectric constant tensor:
#      x y z
#    x 1.812710 0.000000 0.000000 
#    y 0.000000 1.940330 0.000000 
#    z 0.000000 0.000000 1.799410 
# 
# From -- ./inp_files/18517.got.cif
#   From: 2010.05.17/outbox.cif.g08.bks.cpg/sg20_10_cif.got.tgz:18517.got - 2010.06.03 22:52:26.
