data_PCOD9317695
_publ_section_title
;
Structure prediction by ZEFSAII (Michael W. Deem and Ramdas Pophale) SiO2 
 PCOD9317695
Probable space group: C 2 2 21
;
_chemical_formula_sum "Si O2"
_cell_formula_units_Z 40
_cell_length_a 15.922016
_cell_length_b 20.873653
_cell_length_c 5.137271
_cell_angle_alpha 90.000000
_cell_angle_beta 90.000000
_cell_angle_gamma 90.000000
_cell_volume 1707.375290
_symmetry_space_group_name_H-M "C 2 2 21"
_symmetry_group_IT_number 20
_symmetry_cell_setting 'orthorhombic'
loop_
_space_group_symop_operation_xyz
x,y,z
-x,-y,1/2+z
x,-y,-z
-x,y,1/2-z
1/2+x,1/2+y,z
1/2-x,1/2-y,1/2+z
1/2+x,1/2-y,-z
1/2-x,1/2+y,1/2-z
loop_
_atom_site_type_symbol
_atom_site_label
_atom_site_fract_x
_atom_site_fract_y
_atom_site_fract_z
Si Si1 0.500000 0.800953 0.750000
Si Si2 0.500000 0.112199 0.750000
Si Si3 0.822689 0.573955 0.568192
Si Si4 0.500000 0.580432 0.750000
Si Si5 0.571336 0.696880 0.056358
Si Si6 0.763556 0.121215 0.408556
Si Si7 0.132723 0.000000 0.000000
O O1 0.519844 0.845164 0.504022
O O2 0.426844 0.750428 0.668874
O O3 0.417902 0.073115 0.669769
O O4 0.801267 0.500000 0.500000
O O5 0.807634 0.616898 0.310861
O O6 0.770837 0.609576 0.799166
O O7 0.475285 0.631089 0.528885
O O8 0.422514 0.532776 0.725190
O O9 0.500000 0.723591 0.250000
O O10 0.666343 0.676807 0.126489
O O11 0.815032 0.055676 0.369130
#
# Coordination Sequence:
#
# PCOD9317695 Si02
#       7
#     4   4   8   4   8   8   4
#     4  11  24  49  76 106 135 192 241 304 342 420
#     4  12  28  49  83  97 133 186 254 304 376 420
#     4  12  26  49  71 109 141 180 231 306 369 429
#     4   9  22  30  55  99 138 200 233 260 324 434
#     4  10  23  42  71 100 149 193 236 281 346 419
#     4  11  25  40  70 105 148 187 225 286 357 427
#     4  10  20  34  56  98 150 192 230 274 334 426
#
# _framework density 23.427772000000001
#
# number of rings (size 3 to 8) (size 9 to 14) (size 15 to 20)
#    0.000    1.200    3.000    1.200   14.000    2.400 
#    0.000    4.000    0.000    0.000    0.000    0.000 
#    0.000    0.000    0.000    0.000    0.000    0.000 
#
# Total GULP energy -111469.340441 kJ/mol
# GULP energy per Si atom -5573.467022 kJ/mol
# Density = 2.337445 g / cm^3
# Si number density = 23.427772 Si / 1000 Ang^3
#
#
#
# Elastic Constant Matrix: (Units=GPa)
#
#
# Indices 1 2 3 4 5 6 
#
# 1 98.6329 6.8743 32.9272 0.0000 0.0000 0.0000
# 2 6.8743 44.9141 26.2455 0.0000 0.0000 0.0000
# 3 32.9272 26.2455 131.6997 0.0000 0.0000 0.0000
# 4 0.0000 0.0000 0.0000 14.0057 0.0000 0.0000
# 5 0.0000 0.0000 0.0000 0.0000 40.0491 0.0000
# 6 0.0000 0.0000 0.0000 0.0000 0.0000 20.5543
#
#
#
# Elastic Compliance Matrix: (Units=1/GPa)
#
#
# Indices 1 2 3 4 5 6 
#
# 1 0.011062 -0.000087 -0.002748 0.000000 0.000000 0.000000
# 2 -0.000087 0.025200 -0.005000 0.000000 0.000000 0.000000
# 3 -0.002748 -0.005000 0.009277 0.000000 0.000000 0.000000
# 4 0.000000 0.000000 0.000000 0.071399 0.000000 0.000000
# 5 0.000000 0.000000 0.000000 0.000000 0.024969 0.000000
# 6 0.000000 0.000000 0.000000 0.000000 0.000000 0.048652
#
#
# Mechanical properties :
#
#
# Convention : Reuss Voigt Hill
#
# Bulk Modulus (GPa) = 33.48126 45.26007 39.37067
# Shear Modulus (GPa) = 23.12821 28.86847 25.99834
#
# Velocity S-wave (km/s) = 3.14540 3.51413 3.33486
# Velocity P-wave (km/s) = 5.24535 5.98551 5.62761
#
# Compressibility (1/GPa) = 0.02986745
#
# Stress axis : x y z
#
# Youngs Moduli (GPa) = 90.39809 39.68271 107.79799
#
# Poissons Ratio (x) = 0.00346 0.29627
# Poissons Ratio (y) = 0.00787 0.53900
# Poissons Ratio (z) = 0.24845 0.19842
#
# Static dielectric constant tensor:
#      x y z
#    x 1.955680 0.000000 0.000000 
#    y 0.000000 1.928300 0.000000 
#    z 0.000000 0.000000 2.016420 
# 
# From -- ./inp_files/2660.got.cif
#   From: 2010.05.17/outbox.cif.g08.bks.cpg/sg20_2_cif.got.tgz:2660.got - 2010.06.03 22:52:26.
