data_PCOD9317553
_publ_section_title
;
Structure prediction by ZEFSAII (Michael W. Deem and Ramdas Pophale) SiO2 
 PCOD9317553
Probable space group: C 2 2 21
;
_chemical_formula_sum "Si O2"
_cell_formula_units_Z 48
_cell_length_a 9.532860
_cell_length_b 18.120317
_cell_length_c 14.031798
_cell_angle_alpha 90.000000
_cell_angle_beta 90.000000
_cell_angle_gamma 90.000000
_cell_volume 2423.830969
_symmetry_space_group_name_H-M "C 2 2 21"
_symmetry_group_IT_number 20
_symmetry_cell_setting 'orthorhombic'
loop_
_space_group_symop_operation_xyz
x,y,z
-x,-y,1/2+z
x,-y,-z
-x,y,1/2-z
1/2+x,1/2+y,z
1/2-x,1/2-y,1/2+z
1/2+x,1/2-y,-z
1/2-x,1/2+y,1/2-z
loop_
_atom_site_type_symbol
_atom_site_label
_atom_site_fract_x
_atom_site_fract_y
_atom_site_fract_z
Si Si1 0.101443 0.921190 0.031768
Si Si2 0.151076 0.686630 0.859972
Si Si3 0.352264 0.872528 0.145055
Si Si4 0.345294 0.030949 0.229476
Si Si5 0.609865 0.355075 0.837780
Si Si6 0.810437 0.048215 0.905935
O O1 0.217650 0.869260 0.078096
O O2 0.977743 0.941256 0.105209
O O3 0.041276 0.885703 0.935106
O O4 0.164003 0.000000 0.000000
O O5 0.170050 0.662888 0.749093
O O6 0.166999 0.773785 0.861681
O O7 0.250765 0.630860 0.915693
O O8 0.993183 0.665378 0.891335
O O9 0.375287 0.959884 0.162584
O O10 0.500000 0.062731 0.250000
O O11 0.267683 0.994069 0.320620
O O12 0.237768 0.090418 0.187944
O O13 0.500000 0.351692 0.750000
O O14 0.789410 0.000000 0.000000
#
# Coordination Sequence:
#
# PCOD9317553 Si02
#       6
#     8   8   8   8   8   8
#     4  11  23  38  65 101 127 167 226 275 324 393
#     4  10  22  42  66  89 133 182 207 278 340 388
#     4  10  19  42  65  90 125 174 218 257 333 396
#     4  11  22  41  68  94 127 178 227 270 331 399
#     4  12  24  43  66  95 140 174 215 279 347 391
#     4  10  22  42  64  97 126 169 230 272 319 397
#
# _framework density 19.803360999999999
#
# number of rings (size 3 to 8) (size 9 to 14) (size 15 to 20)
#    0.000    1.333    6.667    2.000    0.000    5.333 
#    6.000    0.000    0.000    0.000    0.000    0.000 
#    0.000    0.000    0.000    0.000    0.000    0.000 
#
# Total GULP energy -133884.856772 kJ/mol
# GULP energy per Si atom -5578.535699 kJ/mol
# Density = 1.975829 g / cm^3
# Si number density = 19.803361 Si / 1000 Ang^3
#
#
#
# Elastic Constant Matrix: (Units=GPa)
#
#
# Indices 1 2 3 4 5 6 
#
# 1 91.9254 23.0631 41.7291 0.0000 0.0000 0.0000
# 2 23.0631 134.0366 13.4698 0.0000 0.0000 0.0000
# 3 41.7291 13.4698 40.3570 0.0000 0.0000 0.0000
# 4 0.0000 0.0000 0.0000 23.6271 0.0000 0.0000
# 5 0.0000 0.0000 0.0000 0.0000 33.9081 0.0000
# 6 0.0000 0.0000 0.0000 0.0000 0.0000 27.3024
#
#
#
# Elastic Compliance Matrix: (Units=1/GPa)
#
#
# Indices 1 2 3 4 5 6 
#
# 1 0.020776 -0.001465 -0.020993 0.000000 0.000000 0.000000
# 2 -0.001465 0.007823 -0.001096 0.000000 0.000000 0.000000
# 3 -0.020993 -0.001096 0.046852 0.000000 0.000000 0.000000
# 4 0.000000 0.000000 0.000000 0.042324 0.000000 0.000000
# 5 0.000000 0.000000 0.000000 0.000000 0.029492 0.000000
# 6 0.000000 0.000000 0.000000 0.000000 0.000000 0.036627
#
#
# Mechanical properties :
#
#
# Convention : Reuss Voigt Hill
#
# Bulk Modulus (GPa) = 35.28383 46.98253 41.13318
# Shear Modulus (GPa) = 20.79448 29.50464 25.14956
#
# Velocity S-wave (km/s) = 3.24396 3.86408 3.56752
# Velocity P-wave (km/s) = 5.64684 6.60940 6.14699
#
# Compressibility (1/GPa) = 0.02834160
#
# Stress axis : x y z
#
# Youngs Moduli (GPa) = 48.13323 127.82990 21.34403
#
# Poissons Ratio (x) = 0.18729 0.44808
# Poissons Ratio (y) = 0.07052 0.02339
# Poissons Ratio (z) = 1.01046 0.14011
#
# Static dielectric constant tensor:
#      x y z
#    x 1.729800 0.000000 0.000000 
#    y 0.000000 1.689700 0.000000 
#    z 0.000000 0.000000 1.734420 
# 
# From -- ./inp_files/18906.got.cif
#   From: 2010.05.17/outbox.cif.g08.bks.cpg/sg20_10_cif.got.tgz:18906.got - 2010.06.03 22:52:26.
