data_PCOD9317169
_publ_section_title
;
Structure prediction by ZEFSAII (Michael W. Deem and Ramdas Pophale) SiO2 
 PCOD9317169
Probable space group: C 2 2 21
;
_chemical_formula_sum "Si O2"
_cell_formula_units_Z 64
_cell_length_a 17.712048
_cell_length_b 5.691213
_cell_length_c 26.792610
_cell_angle_alpha 90.000000
_cell_angle_beta 90.000000
_cell_angle_gamma 90.000000
_cell_volume 2700.776480
_symmetry_space_group_name_H-M "C 2 2 21"
_symmetry_group_IT_number 20
_symmetry_cell_setting 'orthorhombic'
loop_
_space_group_symop_operation_xyz
x,y,z
-x,-y,1/2+z
x,-y,-z
-x,y,1/2-z
1/2+x,1/2+y,z
1/2-x,1/2-y,1/2+z
1/2+x,1/2-y,-z
1/2-x,1/2+y,1/2-z
loop_
_atom_site_type_symbol
_atom_site_label
_atom_site_fract_x
_atom_site_fract_y
_atom_site_fract_z
Si Si1 0.283856 0.375532 0.769632
Si Si2 0.440095 0.267357 0.928934
Si Si3 0.301185 0.261282 0.358542
Si Si4 0.073398 0.539532 0.885261
Si Si5 0.315085 0.741143 0.987363
Si Si6 0.913665 0.070268 0.299722
Si Si7 0.672742 0.898573 0.620059
Si Si8 0.455995 0.341546 0.154182
O O1 0.247900 0.617289 0.747873
O O2 0.261146 0.382787 0.827726
O O3 0.369677 0.360387 0.750245
O O4 0.452336 0.497988 0.895470
O O5 0.524135 0.154768 0.929788
O O6 0.382129 0.111397 0.896194
O O7 0.394214 0.272202 0.981064
O O8 0.350227 0.105948 0.396575
O O9 0.364723 0.351928 0.320436
O O10 0.254881 0.491551 0.374020
O O11 0.093563 0.728509 0.842281
O O12 0.011056 0.370462 0.860403
O O13 0.325318 0.736846 0.928491
O O14 0.272959 0.500000 0.000000
O O15 0.282758 0.000000 0.000000
O O16 0.999941 0.987049 0.303924
O O17 0.626789 0.767269 0.663754
#
# Coordination Sequence:
#
# PCOD9317169 Si02
#       8
#     8   8   8   8   8   8   8   8
#     4  10  19  35  56  86 116 160 211 255 311 377
#     4   9  18  33  57  83 110 158 206 250 300 377
#     4  10  20  33  55  91 122 157 205 263 319 375
#     4   9  17  33  54  83 115 149 209 255 302 356
#     4  10  19  35  56  90 112 156 202 252 303 377
#     4   9  18  33  56  82 110 162 206 253 306 365
#     4  10  20  33  55  92 119 154 203 255 318 379
#     4   9  17  32  55  82 112 151 205 253 294 365
#
# _framework density 23.696891000000001
#
# number of rings (size 3 to 8) (size 9 to 14) (size 15 to 20)
#    0.000    2.500    2.500    0.000    0.000    1.000 
#    0.000    0.000    0.000    8.250  156.000    0.000 
#    0.000    0.000    0.000    0.000    0.000    0.000 
#
# Total GULP energy -178178.565051 kJ/mol
# GULP energy per Si atom -5568.080158 kJ/mol
# Density = 2.364296 g / cm^3
# Si number density = 23.696891 Si / 1000 Ang^3
#
#
#
# Elastic Constant Matrix: (Units=GPa)
#
#
# Indices 1 2 3 4 5 6 
#
# 1 64.6245 15.9476 30.3276 0.0000 0.0000 0.0000
# 2 15.9476 94.0802 -4.2869 0.0000 0.0000 0.0000
# 3 30.3276 -4.2869 35.2812 0.0000 0.0000 0.0000
# 4 0.0000 0.0000 0.0000 20.9437 0.0000 0.0000
# 5 0.0000 0.0000 0.0000 0.0000 20.4634 0.0000
# 6 0.0000 0.0000 0.0000 0.0000 0.0000 30.7805
#
#
#
# Elastic Compliance Matrix: (Units=1/GPa)
#
#
# Indices 1 2 3 4 5 6 
#
# 1 0.029040 -0.006094 -0.025703 0.000000 0.000000 0.000000
# 2 -0.006094 0.011967 0.006692 0.000000 0.000000 0.000000
# 3 -0.025703 0.006692 0.051251 0.000000 0.000000 0.000000
# 4 0.000000 0.000000 0.000000 0.047747 0.000000 0.000000
# 5 0.000000 0.000000 0.000000 0.000000 0.048868 0.000000
# 6 0.000000 0.000000 0.000000 0.000000 0.000000 0.032488
#
#
# Mechanical properties :
#
#
# Convention : Reuss Voigt Hill
#
# Bulk Modulus (GPa) = 23.78172 30.88472 27.33322
# Shear Modulus (GPa) = 17.50778 24.57068 21.03923
#
# Velocity S-wave (km/s) = 2.72108 3.22355 2.98291
# Velocity P-wave (km/s) = 4.46429 5.18811 4.83975
#
# Compressibility (1/GPa) = 0.04204911
#
# Stress axis : x y z
#
# Youngs Moduli (GPa) = 34.43518 83.56217 19.51168
#
# Poissons Ratio (x) = 0.50921 0.50151
# Poissons Ratio (y) = 0.20984 -0.13058
# Poissons Ratio (z) = 0.88510 -0.55922
#
# Static dielectric constant tensor:
#      x y z
#    x 1.943570 0.000000 0.000000 
#    y 0.000000 1.993500 0.000000 
#    z 0.000000 0.000000 1.951940 
# 
# From -- ./inp_files/31361.got.cif
#   From: 2010.05.17/outbox.cif.g08.bks.cpg/sg20_16_cif.got.tgz:31361.got - 2010.06.03 22:52:26.
