data_PCOD9317190
_publ_section_title
;
Structure prediction by ZEFSAII (Michael W. Deem and Ramdas Pophale) SiO2 
 PCOD9317190
Probable space group: C 2 2 21
;
_chemical_formula_sum "Si O2"
_cell_formula_units_Z 64
_cell_length_a 25.494558
_cell_length_b 5.600518
_cell_length_c 22.325944
_cell_angle_alpha 90.000000
_cell_angle_beta 90.000000
_cell_angle_gamma 90.000000
_cell_volume 3187.759256
_symmetry_space_group_name_H-M "C 2 2 21"
_symmetry_group_IT_number 20
_symmetry_cell_setting 'orthorhombic'
loop_
_space_group_symop_operation_xyz
x,y,z
-x,-y,1/2+z
x,-y,-z
-x,y,1/2-z
1/2+x,1/2+y,z
1/2-x,1/2-y,1/2+z
1/2+x,1/2-y,-z
1/2-x,1/2+y,1/2-z
loop_
_atom_site_type_symbol
_atom_site_label
_atom_site_fract_x
_atom_site_fract_y
_atom_site_fract_z
Si Si1 0.978571 0.275365 0.319106
Si Si2 0.186761 0.358081 0.553450
Si Si3 0.287997 0.096503 0.559844
Si Si4 0.861166 0.114586 0.842764
Si Si5 0.019864 0.221505 0.681263
Si Si6 0.189330 0.248592 0.773449
Si Si7 0.146837 0.252910 0.171445
Si Si8 0.717927 0.249243 0.646012
O O1 0.915913 0.276245 0.323749
O O2 0.000000 0.269485 0.250000
O O3 0.002024 0.523053 0.344890
O O4 0.997037 0.022668 0.346477
O O5 0.160587 0.500000 0.500000
O O6 0.239616 0.238377 0.529543
O O7 0.147752 0.187206 0.588671
O O8 0.209877 0.525227 0.604722
O O9 0.327494 0.232952 0.604665
O O10 0.316489 0.000000 0.500000
O O11 0.254837 0.923804 0.605133
O O12 0.917947 0.184173 0.820512
O O13 0.820411 0.236795 0.796999
O O14 0.840419 0.844926 0.840392
O O15 0.000000 0.228037 0.750000
O O16 0.167341 0.501802 0.797082
O O17 0.249360 0.223951 0.793577
O O18 0.162287 0.007047 0.800922
#
# Coordination Sequence:
#
# PCOD9317190 Si02
#       8
#     8   8   8   8   8   8   8   8
#     4  10  19  35  59  85 122 161 209 259 321 393
#     4  11  22  41  63  87 125 175 225 263 317 389
#     4  10  20  38  59  92 123 168 218 265 313 386
#     4  11  26  36  62  94 128 170 218 270 335 398
#     4  10  21  39  59  87 120 163 208 266 321 395
#     4  11  23  38  58  93 139 165 202 257 335 403
#     4  11  22  38  63  96 126 173 213 265 332 401
#     4  10  23  36  58  87 128 164 205 255 315 396
#
# _framework density 20.076796999999999
#
# number of rings (size 3 to 8) (size 9 to 14) (size 15 to 20)
#    0.000    1.500    2.500    3.750    5.250    0.000 
#    0.000    0.000    0.000    0.750    0.000    0.000 
#    0.000    0.000    0.000    0.000    0.000    0.000 
#
# Total GULP energy -178331.212273 kJ/mol
# GULP energy per Si atom -5572.850384 kJ/mol
# Density = 2.003110 g / cm^3
# Si number density = 20.076797 Si / 1000 Ang^3
#
#
#
# Elastic Constant Matrix: (Units=GPa)
#
#
# Indices 1 2 3 4 5 6 
#
# 1 89.8267 22.4354 20.5775 0.0000 0.0000 0.0000
# 2 22.4354 117.9996 13.7753 0.0000 0.0000 0.0000
# 3 20.5775 13.7753 87.5911 0.0000 0.0000 0.0000
# 4 0.0000 0.0000 0.0000 25.6665 0.0000 0.0000
# 5 0.0000 0.0000 0.0000 0.0000 9.1099 0.0000
# 6 0.0000 0.0000 0.0000 0.0000 0.0000 -47.7002
#
#
#
# Elastic Compliance Matrix: (Units=1/GPa)
#
#
# Indices 1 2 3 4 5 6 
#
# 1 0.012223 -0.002026 -0.002553 0.000000 0.000000 0.000000
# 2 -0.002026 0.008969 -0.000935 0.000000 0.000000 0.000000
# 3 -0.002553 -0.000935 0.012163 0.000000 0.000000 0.000000
# 4 0.000000 0.000000 0.000000 0.038961 0.000000 0.000000
# 5 0.000000 0.000000 0.000000 0.000000 0.109771 0.000000
# 6 0.000000 0.000000 0.000000 0.000000 0.000000 -0.020964
#
#
# Mechanical properties :
#
#
# Convention : Reuss Voigt Hill
#
# Bulk Modulus (GPa) = 44.78557 45.44379 45.11468
# Shear Modulus (GPa) = 27.84064 13.32385 20.58224
#
# Velocity S-wave (km/s) = 3.72789 2.57892 3.20531
# Velocity P-wave (km/s) = 6.39415 5.61711 6.01818
#
# Compressibility (1/GPa) = 0.02232862
#
# Stress axis : x y z
#
# Youngs Moduli (GPa) = 81.81025 111.49619 82.21368
#
# Poissons Ratio (x) = 0.22589 0.20989
# Poissons Ratio (y) = 0.16575 0.07683
# Poissons Ratio (z) = 0.20886 0.10420
#
# Static dielectric constant tensor:
#      x y z
#    x 1.694560 0.000000 0.000000 
#    y 0.000000 1.861640 0.000000 
#    z 0.000000 0.000000 1.744130 
# 
# From -- ./inp_files/28085.got.cif
#   From: 2010.05.17/outbox.cif.g08.bks.cpg/sg20_15_cif.got.tgz:28085.got - 2010.06.03 22:52:26.
