data_PCOD9318303
_publ_section_title
;
Structure prediction by ZEFSAII (Michael W. Deem and Ramdas Pophale) SiO2 
 PCOD9318303
Probable space group: C 2 2 21
;
_chemical_formula_sum "Si O2"
_cell_formula_units_Z 48
_cell_length_a 28.476550
_cell_length_b 8.401087
_cell_length_c 10.389357
_cell_angle_alpha 90.000000
_cell_angle_beta 90.000000
_cell_angle_gamma 90.000000
_cell_volume 2485.487163
_symmetry_space_group_name_H-M "C 2 2 21"
_symmetry_group_IT_number 20
_symmetry_cell_setting 'orthorhombic'
loop_
_space_group_symop_operation_xyz
x,y,z
-x,-y,1/2+z
x,-y,-z
-x,y,1/2-z
1/2+x,1/2+y,z
1/2-x,1/2-y,1/2+z
1/2+x,1/2-y,-z
1/2-x,1/2+y,1/2-z
loop_
_atom_site_type_symbol
_atom_site_label
_atom_site_fract_x
_atom_site_fract_y
_atom_site_fract_z
Si Si1 0.100380 0.008882 0.250436
Si Si2 0.658310 0.747772 0.913850
Si Si3 0.249832 0.433123 0.357375
Si Si4 0.094564 0.500000 0.000000
Si Si5 0.182619 0.786898 0.784978
Si Si6 0.044491 0.000000 0.500000
Si Si7 0.526555 0.262094 0.876435
O O1 0.138684 0.141430 0.290715
O O2 0.059958 0.095194 0.170496
O O3 0.126707 0.882945 0.159307
O O4 0.076171 0.948345 0.379351
O O5 0.711270 0.708830 0.869107
O O6 0.630029 0.912350 0.900420
O O7 0.663705 0.729048 0.068652
O O8 0.237967 0.500000 0.500000
O O9 0.206130 0.366652 0.277972
O O10 0.277555 0.576745 0.290214
O O11 0.060108 0.632784 0.941393
O O12 0.012234 0.849023 0.536749
O O13 0.500000 0.195975 0.750000
#
# Coordination Sequence:
#
# PCOD9318303 Si02
#       7
#     8   8   8   4   8   4   8
#     4  10  20  42  63  86 119 160 210 253 299 380
#     4  10  22  38  63  90 120 161 209 248 305 371
#     4   9  21  39  58  89 125 160 206 257 304 366
#     4  12  22  34  63  88 122 156 199 252 314 364
#     4  10  20  39  63  88 124 160 209 252 308 368
#     4  10  22  40  63  88 114 164 207 254 312 372
#     4  10  22  37  61  87 120 156 202 255 309 367
#
# _framework density 19.312110000000001
#
# number of rings (size 3 to 8) (size 9 to 14) (size 15 to 20)
#    0.000    2.000    1.667    2.500    2.333    1.333 
#   12.000    0.000    7.333    0.000    0.000    0.000 
#    0.000    0.000    0.000    0.000    0.000    0.000 
#
# Total GULP energy -133785.385475 kJ/mol
# GULP energy per Si atom -5574.391061 kJ/mol
# Density = 1.926815 g / cm^3
# Si number density = 19.312110 Si / 1000 Ang^3
#
#
#
# Elastic Constant Matrix: (Units=GPa)
#
#
# Indices 1 2 3 4 5 6 
#
# 1 112.6219 41.0102 72.5588 0.0000 0.0000 0.0000
# 2 41.0102 46.0822 41.1593 0.0000 0.0000 0.0000
# 3 72.5588 41.1593 95.5525 0.0000 0.0000 0.0000
# 4 0.0000 0.0000 0.0000 21.0600 0.0000 0.0000
# 5 0.0000 0.0000 0.0000 0.0000 35.8943 0.0000
# 6 0.0000 0.0000 0.0000 0.0000 0.0000 48.3163
#
#
#
# Elastic Compliance Matrix: (Units=1/GPa)
#
#
# Indices 1 2 3 4 5 6 
#
# 1 0.018461 -0.006352 -0.011283 0.000000 0.000000 0.000000
# 2 -0.006352 0.037455 -0.011310 0.000000 0.000000 0.000000
# 3 -0.011283 -0.011310 0.023905 0.000000 0.000000 0.000000
# 4 0.000000 0.000000 0.000000 0.047483 0.000000 0.000000
# 5 0.000000 0.000000 0.000000 0.000000 0.027860 0.000000
# 6 0.000000 0.000000 0.000000 0.000000 0.000000 0.020697
#
#
# Mechanical properties :
#
#
# Convention : Reuss Voigt Hill
#
# Bulk Modulus (GPa) = 45.59655 62.63480 54.11568
# Shear Modulus (GPa) = 20.74149 27.68934 24.21541
#
# Velocity S-wave (km/s) = 3.28077 3.79064 3.54488
# Velocity P-wave (km/s) = 6.16546 7.18762 6.69607
#
# Compressibility (1/GPa) = 0.02193148
#
# Stress axis : x y z
#
# Youngs Moduli (GPa) = 54.16697 26.69840 41.83215
#
# Poissons Ratio (x) = 0.16959 0.47198
# Poissons Ratio (y) = 0.34407 0.47314
# Poissons Ratio (z) = 0.61115 0.30197
#
# Static dielectric constant tensor:
#      x y z
#    x 1.690400 0.000000 0.000000 
#    y 0.000000 1.698930 0.000000 
#    z 0.000000 0.000000 1.685840 
# 
# From -- ./inp_files/17184.got.cif
#   From: 2010.05.17/outbox.cif.g08.bks.cpg/sg20_9_cif.got.tgz:17184.got - 2010.06.03 22:52:26.
