data_PCOD9318489
_publ_section_title
;
Structure prediction by ZEFSAII (Michael W. Deem and Ramdas Pophale) SiO2 
 PCOD9318489
Probable space group: C 2 2 21
;
_chemical_formula_sum "Si O2"
_cell_formula_units_Z 36
_cell_length_a 14.435044
_cell_length_b 5.621390
_cell_length_c 17.484669
_cell_angle_alpha 90.000000
_cell_angle_beta 90.000000
_cell_angle_gamma 90.000000
_cell_volume 1418.793676
_symmetry_space_group_name_H-M "C 2 2 21"
_symmetry_group_IT_number 20
_symmetry_cell_setting 'orthorhombic'
loop_
_space_group_symop_operation_xyz
x,y,z
-x,-y,1/2+z
x,-y,-z
-x,y,1/2-z
1/2+x,1/2+y,z
1/2-x,1/2-y,1/2+z
1/2+x,1/2-y,-z
1/2-x,1/2+y,1/2-z
loop_
_atom_site_type_symbol
_atom_site_label
_atom_site_fract_x
_atom_site_fract_y
_atom_site_fract_z
Si Si1 0.901816 0.380331 0.081016
Si Si2 0.423606 0.847526 0.630889
Si Si3 0.303066 0.280993 0.233966
Si Si4 0.733278 0.499089 0.590498
Si Si5 0.029938 0.000000 0.000000
O O1 0.976524 0.530473 0.129123
O O2 0.810688 0.255972 0.114801
O O3 0.878092 0.500000 0.000000
O O4 0.965124 0.157456 0.054078
O O5 0.391991 0.734910 0.710849
O O6 0.416641 0.667065 0.559176
O O7 0.341087 0.030871 0.610631
O O8 0.252614 0.534129 0.252557
O O9 0.318345 0.307276 0.142438
O O10 0.722716 0.500000 0.500000
#
# Coordination Sequence:
#
# PCOD9318489 Si02
#       5
#     8   8   8   8   4
#     4  10  22  42  69 112 145 186 257 315 362 469
#     4  10  24  42  74 101 152 197 248 310 399 440
#     4  10  25  46  74 111 150 195 262 314 372 476
#     4  11  23  43  79 108 143 201 256 314 388 452
#     4  10  20  40  70  98 144 184 244 314 358 464
#
# _framework density 25.373669
#
# number of rings (size 3 to 8) (size 9 to 14) (size 15 to 20)
#    0.000    1.778    1.111    2.000   10.889    1.778 
#    0.000    1.111   19.556    0.000    0.000    0.000 
#    0.000    0.000    0.000    0.000    0.000    0.000 
#
# Total GULP energy -100592.119993 kJ/mol
# GULP energy per Si atom -5588.451111 kJ/mol
# Density = 2.531592 g / cm^3
# Si number density = 25.373669 Si / 1000 Ang^3
#
#
#
# Elastic Constant Matrix: (Units=GPa)
#
#
# Indices 1 2 3 4 5 6 
#
# 1 119.5676 41.5299 14.2523 0.0000 0.0000 0.0000
# 2 41.5299 102.7914 25.7476 0.0000 0.0000 0.0000
# 3 14.2523 25.7476 137.5513 0.0000 0.0000 0.0000
# 4 0.0000 0.0000 0.0000 44.5024 0.0000 0.0000
# 5 0.0000 0.0000 0.0000 0.0000 33.4475 0.0000
# 6 0.0000 0.0000 0.0000 0.0000 0.0000 40.0413
#
#
#
# Elastic Compliance Matrix: (Units=1/GPa)
#
#
# Indices 1 2 3 4 5 6 
#
# 1 0.009739 -0.003863 -0.000286 0.000000 0.000000 0.000000
# 2 -0.003863 0.011739 -0.001797 0.000000 0.000000 0.000000
# 3 -0.000286 -0.001797 0.007636 0.000000 0.000000 0.000000
# 4 0.000000 0.000000 0.000000 0.022471 0.000000 0.000000
# 5 0.000000 0.000000 0.000000 0.000000 0.029898 0.000000
# 6 0.000000 0.000000 0.000000 0.000000 0.000000 0.024974
#
#
# Mechanical properties :
#
#
# Convention : Reuss Voigt Hill
#
# Bulk Modulus (GPa) = 58.06519 58.10777 58.08648
# Shear Modulus (GPa) = 40.29302 42.15695 41.22498
#
# Velocity S-wave (km/s) = 3.98928 4.08050 4.03515
# Velocity P-wave (km/s) = 6.64476 6.71947 6.68222
#
# Compressibility (1/GPa) = 0.01722202
#
# Stress axis : x y z
#
# Youngs Moduli (GPa) = 102.67559 85.18286 130.95781
#
# Poissons Ratio (x) = 0.32909 0.03745
# Poissons Ratio (y) = 0.39667 0.23535
# Poissons Ratio (z) = 0.02936 0.15309
#
# Static dielectric constant tensor:
#      x y z
#    x 1.951370 0.000000 0.000000 
#    y 0.000000 2.153760 0.000000 
#    z 0.000000 0.000000 2.051770 
# 
# From -- ./inp_files/27379.got.cif
#   From: 2010.05.17/outbox.cif.g08.bks.cpg/sg20_14_cif.got.tgz:27379.got - 2010.06.03 22:52:26.
