data_PCOD9318283
_publ_section_title
;
Structure prediction by ZEFSAII (Michael W. Deem and Ramdas Pophale) SiO2 
 PCOD9318283
Probable space group: C 2 2 21
;
_chemical_formula_sum "Si O2"
_cell_formula_units_Z 52
_cell_length_a 14.582021
_cell_length_b 8.387775
_cell_length_c 20.335650
_cell_angle_alpha 90.000000
_cell_angle_beta 90.000000
_cell_angle_gamma 90.000000
_cell_volume 2487.267814
_symmetry_space_group_name_H-M "C 2 2 21"
_symmetry_group_IT_number 20
_symmetry_cell_setting 'orthorhombic'
loop_
_space_group_symop_operation_xyz
x,y,z
-x,-y,1/2+z
x,-y,-z
-x,y,1/2-z
1/2+x,1/2+y,z
1/2-x,1/2-y,1/2+z
1/2+x,1/2-y,-z
1/2-x,1/2+y,1/2-z
loop_
_atom_site_type_symbol
_atom_site_label
_atom_site_fract_x
_atom_site_fract_y
_atom_site_fract_z
Si Si1 0.296397 0.500000 0.000000
Si Si2 0.725443 0.151082 0.664290
Si Si3 0.979168 0.366560 0.171758
Si Si4 0.441123 0.483187 0.882301
Si Si5 0.136578 0.023528 0.923359
Si Si6 0.661293 0.156232 0.892842
Si Si7 0.705895 0.515826 0.709144
O O1 0.370214 0.444533 0.942746
O O2 0.224396 0.599865 0.954278
O O3 0.624567 0.074844 0.658359
O O4 0.785048 0.145597 0.598687
O O5 0.715400 0.329322 0.692130
O O6 0.787269 0.052734 0.715169
O O7 0.971223 0.178901 0.154012
O O8 0.000000 0.388365 0.250000
O O9 0.059589 0.417990 0.120898
O O10 0.532910 0.570320 0.904714
O O11 0.384768 0.577014 0.827193
O O12 0.155438 0.846244 0.896278
O O13 0.138611 0.000000 0.000000
O O14 0.712023 0.105748 0.826419
#
# Coordination Sequence:
#
# PCOD9318283 Si02
#       7
#     4   8   8   8   8   8   8
#     4  10  20  42  64  90 116 162 212 254 300 366
#     4  11  23  39  65  90 126 157 209 252 310 365
#     4  10  20  39  61  88 121 164 199 247 315 370
#     4   9  21  37  63  85 121 162 208 246 304 373
#     4  11  24  40  59  92 125 162 205 257 301 367
#     4  10  22  40  65  85 124 164 204 249 307 370
#     4  10  21  40  66  92 119 163 205 258 308 362
#
# _framework density 20.906473999999999
#
# number of rings (size 3 to 8) (size 9 to 14) (size 15 to 20)
#    0.000    1.846    2.308    0.923   12.923    0.000 
#    1.385    6.154    0.000    0.000    0.000    0.000 
#    0.000    0.000    0.000    0.000    0.000    0.000 
#
# Total GULP energy -144751.599601 kJ/mol
# GULP energy per Si atom -5567.369215 kJ/mol
# Density = 2.085889 g / cm^3
# Si number density = 20.906474 Si / 1000 Ang^3
#
#
#
# Elastic Constant Matrix: (Units=GPa)
#
#
# Indices 1 2 3 4 5 6 
#
# 1 129.0465 14.1470 61.1714 0.0000 0.0000 0.0000
# 2 14.1470 23.2816 -10.3238 0.0000 0.0000 0.0000
# 3 61.1714 -10.3238 3.3462 0.0000 0.0000 0.0000
# 4 0.0000 0.0000 0.0000 28.5770 0.0000 0.0000
# 5 0.0000 0.0000 0.0000 0.0000 31.8617 0.0000
# 6 0.0000 0.0000 0.0000 0.0000 0.0000 19.0005
#
#
#
# Elastic Compliance Matrix: (Units=1/GPa)
#
#
# Indices 1 2 3 4 5 6 
#
# 1 0.000262 0.006208 0.014359 0.000000 0.000000 0.000000
# 2 0.006208 0.030269 -0.020096 0.000000 0.000000 0.000000
# 3 0.014359 -0.020096 -0.025643 0.000000 0.000000 0.000000
# 4 0.000000 0.000000 0.000000 0.034993 0.000000 0.000000
# 5 0.000000 0.000000 0.000000 0.000000 0.031386 0.000000
# 6 0.000000 0.000000 0.000000 0.000000 0.000000 0.052630
#
#
# Mechanical properties :
#
#
# Convention : Reuss Voigt Hill
#
# Bulk Modulus (GPa) = 171.56361 31.74037 101.65199
# Shear Modulus (GPa) = 40.03228 21.93315 30.98272
#
# Velocity S-wave (km/s) = 4.38062 3.24251 3.85381
# Velocity P-wave (km/s) = 10.38398 5.40680 8.27830
#
# Compressibility (1/GPa) = 0.00582874
#
# Stress axis : x y z
#
# Youngs Moduli (GPa) = 3813.48962 33.03701 -38.99656
#
# Poissons Ratio (x) = -0.20509 0.55994
# Poissons Ratio (y) = -23.67321 -0.78368
# Poissons Ratio (z) = -54.75661 0.66391
#
# Static dielectric constant tensor:
#      x y z
#    x 1.855190 0.000000 0.000000 
#    y 0.000000 1.775150 0.000000 
#    z 0.000000 0.000000 1.798060 
# 
# From -- ./inp_files/26636.got.cif
#   From: 2010.05.17/outbox.cif.g08.bks.cpg/sg20_14_cif.got.tgz:26636.got - 2010.06.03 22:52:26.
