data_PCOD9318880
_publ_section_title
;
Structure prediction by ZEFSAII (Michael W. Deem and Ramdas Pophale) SiO2 
 PCOD9318880
Probable space group: C 2 2 21
;
_chemical_formula_sum "Si O2"
_cell_formula_units_Z 48
_cell_length_a 9.032585
_cell_length_b 18.540189
_cell_length_c 14.280889
_cell_angle_alpha 90.000000
_cell_angle_beta 90.000000
_cell_angle_gamma 90.000000
_cell_volume 2391.560973
_symmetry_space_group_name_H-M "C 2 2 21"
_symmetry_group_IT_number 20
_symmetry_cell_setting 'orthorhombic'
loop_
_space_group_symop_operation_xyz
x,y,z
-x,-y,1/2+z
x,-y,-z
-x,y,1/2-z
1/2+x,1/2+y,z
1/2-x,1/2-y,1/2+z
1/2+x,1/2-y,-z
1/2-x,1/2+y,1/2-z
loop_
_atom_site_type_symbol
_atom_site_label
_atom_site_fract_x
_atom_site_fract_y
_atom_site_fract_z
Si Si1 0.183998 0.553590 0.088990
Si Si2 0.500000 0.294529 0.250000
Si Si3 0.295771 0.592439 0.682911
Si Si4 0.530953 0.204284 0.061257
Si Si5 0.000000 0.522469 0.750000
Si Si6 0.473902 0.536367 0.396508
Si Si7 0.192626 0.166029 0.021238
O O1 0.133610 0.633784 0.061954
O O2 0.354057 0.551417 0.123336
O O3 0.075063 0.525467 0.169624
O O4 0.171657 0.500000 0.000000
O O5 0.636621 0.351019 0.257316
O O6 0.528418 0.244444 0.161313
O O7 0.130159 0.570664 0.706988
O O8 0.392698 0.520057 0.670890
O O9 0.307134 0.630032 0.581755
O O10 0.362137 0.182758 0.042954
O O11 0.594968 0.261908 0.987478
O O12 0.472559 0.500000 0.500000
O O13 0.380255 0.609553 0.407191
#
# Coordination Sequence:
#
# PCOD9318880 Si02
#       7
#     8   4   8   8   4   8   8
#     4  11  23  39  61  89 122 159 206 256 301 361
#     4  10  23  40  56  80 123 160 188 236 297 364
#     4  10  21  38  59  87 118 154 198 246 300 356
#     4  11  22  38  58  87 121 159 200 244 305 359
#     4  12  23  36  62  92 119 156 204 254 301 356
#     4   9  19  38  62  88 117 155 200 249 306 359
#     4  10  21  37  61  86 119 158 199 250 300 361
#
# _framework density 20.070571999999999
#
# number of rings (size 3 to 8) (size 9 to 14) (size 15 to 20)
#    0.000    1.667    0.000    4.500    0.000    6.667 
#    0.000    0.000    0.000    2.000    0.000    0.000 
#    0.000    0.000    0.000    0.000    0.000    0.000 
#
# Total GULP energy -134124.514772 kJ/mol
# GULP energy per Si atom -5588.521449 kJ/mol
# Density = 2.002489 g / cm^3
# Si number density = 20.070572 Si / 1000 Ang^3
#
#
#
# Elastic Constant Matrix: (Units=GPa)
#
#
# Indices 1 2 3 4 5 6 
#
# 1 167.3148 82.9626 21.7728 0.0000 0.0000 0.0000
# 2 82.9626 162.8096 34.9031 0.0000 0.0000 0.0000
# 3 21.7728 34.9031 40.2215 0.0000 0.0000 0.0000
# 4 0.0000 0.0000 0.0000 21.9955 0.0000 0.0000
# 5 0.0000 0.0000 0.0000 0.0000 33.3424 0.0000
# 6 0.0000 0.0000 0.0000 0.0000 0.0000 33.7694
#
#
#
# Elastic Compliance Matrix: (Units=1/GPa)
#
#
# Indices 1 2 3 4 5 6 
#
# 1 0.008029 -0.003882 -0.000978 0.000000 0.000000 0.000000
# 2 -0.003882 0.009422 -0.006075 0.000000 0.000000 0.000000
# 3 -0.000978 -0.006075 0.030664 0.000000 0.000000 0.000000
# 4 0.000000 0.000000 0.000000 0.045464 0.000000 0.000000
# 5 0.000000 0.000000 0.000000 0.000000 0.029992 0.000000
# 6 0.000000 0.000000 0.000000 0.000000 0.000000 0.029613
#
#
# Mechanical properties :
#
#
# Convention : Reuss Voigt Hill
#
# Bulk Modulus (GPa) = 38.10196 72.18032 55.14114
# Shear Modulus (GPa) = 27.20331 33.20195 30.20263
#
# Velocity S-wave (km/s) = 3.68555 4.07167 3.88341
# Velocity P-wave (km/s) = 6.09395 7.62535 6.90225
#
# Compressibility (1/GPa) = 0.02624537
#
# Stress axis : x y z
#
# Youngs Moduli (GPa) = 124.55401 106.12899 32.61181
#
# Poissons Ratio (x) = 0.41194 0.03189
# Poissons Ratio (y) = 0.48346 0.19813
# Poissons Ratio (z) = 0.12179 0.64478
#
# Static dielectric constant tensor:
#      x y z
#    x 1.675810 0.000000 0.000000 
#    y 0.000000 1.708390 0.000000 
#    z 0.000000 0.000000 1.802940 
# 
# From -- ./inp_files/18950.got.cif
#   From: 2010.05.17/outbox.cif.g08.bks.cpg/sg20_10_cif.got.tgz:18950.got - 2010.06.03 22:52:26.
