data_PCOD9318349
_publ_section_title
;
Structure prediction by ZEFSAII (Michael W. Deem and Ramdas Pophale) SiO2 
 PCOD9318349
Probable space group: C 2 2 21
;
_chemical_formula_sum "Si O2"
_cell_formula_units_Z 24
_cell_length_a 17.020557
_cell_length_b 14.532200
_cell_length_c 4.942442
_cell_angle_alpha 90.000000
_cell_angle_beta 90.000000
_cell_angle_gamma 90.000000
_cell_volume 1222.493943
_symmetry_space_group_name_H-M "C 2 2 21"
_symmetry_group_IT_number 20
_symmetry_cell_setting 'orthorhombic'
loop_
_space_group_symop_operation_xyz
x,y,z
-x,-y,1/2+z
x,-y,-z
-x,y,1/2-z
1/2+x,1/2+y,z
1/2-x,1/2-y,1/2+z
1/2+x,1/2-y,-z
1/2-x,1/2+y,1/2-z
loop_
_atom_site_type_symbol
_atom_site_label
_atom_site_fract_x
_atom_site_fract_y
_atom_site_fract_z
Si Si1 0.380452 0.437289 0.768614
Si Si2 0.500000 0.140936 0.250000
Si Si3 0.500000 0.273551 0.750000
Si Si4 0.228698 0.500000 0.000000
Si Si5 0.124505 0.500000 0.500000
O O1 0.379744 0.500000 0.500000
O O2 0.425939 0.342330 0.763590
O O3 0.420468 0.500000 0.000000
O O4 0.290373 0.427347 0.871085
O O5 0.482955 0.207701 0.498618
O O6 0.569673 0.075642 0.356978
O O7 0.177418 0.463971 0.250531
#
# Coordination Sequence:
#
# PCOD9318349 Si02
#       5
#     8   4   4   4   4
#     4  10  20  39  67 101 131 175 196 258 336 390
#     4  12  27  41  70  90 122 180 216 289 307 376
#     4  12  23  41  66 106 132 154 230 259 323 394
#     4  10  21  40  73  90 122 180 210 256 319 410
#     4  12  23  48  65  86 124 172 236 256 327 378
#
# _framework density 19.632000000000001
#
# number of rings (size 3 to 8) (size 9 to 14) (size 15 to 20)
#    1.000    0.000    1.667    7.000    0.000    0.000 
#    0.000    6.667    0.000    0.000    0.000    0.000 
#    0.000    0.000    0.000    0.000    0.000    0.000 
#
# Total GULP energy -66889.822752 kJ/mol
# GULP energy per Si atom -5574.151896 kJ/mol
# Density = 1.958732 g / cm^3
# Si number density = 19.632000 Si / 1000 Ang^3
#
#
#
# Elastic Constant Matrix: (Units=GPa)
#
#
# Indices 1 2 3 4 5 6 
#
# 1 136.6556 68.7172 71.4086 0.0000 0.0000 0.0000
# 2 68.7172 124.6544 76.8925 0.0000 0.0000 0.0000
# 3 71.4086 76.8925 189.9516 0.0000 0.0000 0.0000
# 4 0.0000 0.0000 0.0000 53.1288 0.0000 0.0000
# 5 0.0000 0.0000 0.0000 0.0000 23.4123 0.0000
# 6 0.0000 0.0000 0.0000 0.0000 0.0000 -9.7199
#
#
#
# Elastic Compliance Matrix: (Units=1/GPa)
#
#
# Indices 1 2 3 4 5 6 
#
# 1 0.010768 -0.004584 -0.002193 0.000000 0.000000 0.000000
# 2 -0.004584 0.012643 -0.003395 0.000000 0.000000 0.000000
# 3 -0.002193 -0.003395 0.007463 0.000000 0.000000 0.000000
# 4 0.000000 0.000000 0.000000 0.018822 0.000000 0.000000
# 5 0.000000 0.000000 0.000000 0.000000 0.042713 0.000000
# 6 0.000000 0.000000 0.000000 0.000000 0.000000 -0.102881
#
#
# Mechanical properties :
#
#
# Convention : Reuss Voigt Hill
#
# Bulk Modulus (GPa) = 94.94719 98.36647 96.65683
# Shear Modulus (GPa) = 373.67902 28.98045 201.32974
#
# Velocity S-wave (km/s) = 13.81141 3.84628 10.13777
# Velocity P-wave (km/s) = 17.40139 8.36296 13.65188
#
# Compressibility (1/GPa) = 0.01053217
#
# Stress axis : x y z
#
# Youngs Moduli (GPa) = 92.86505 79.09512 133.99425
#
# Poissons Ratio (x) = 0.36254 0.29381
# Poissons Ratio (y) = 0.42566 0.45488
# Poissons Ratio (z) = 0.20362 0.26851
#
# Static dielectric constant tensor:
#      x y z
#    x 1.743020 0.000000 0.000000 
#    y 0.000000 1.671680 0.000000 
#    z 0.000000 0.000000 1.722590 
# 
# From -- ./inp_files/895.got.cif
#   From: 2010.05.17/outbox.cif.g08.bks.cpg/sg20_1_cif.got.tgz:895.got - 2010.06.03 22:52:26.
