data_PCOD9318332
_publ_section_title
;
Structure prediction by ZEFSAII (Michael W. Deem and Ramdas Pophale) SiO2 
 PCOD9318332
Probable space group: C 2 2 21
;
_chemical_formula_sum "Si O2"
_cell_formula_units_Z 64
_cell_length_a 13.470443
_cell_length_b 14.387864
_cell_length_c 13.659602
_cell_angle_alpha 90.000000
_cell_angle_beta 90.000000
_cell_angle_gamma 90.000000
_cell_volume 2647.379783
_symmetry_space_group_name_H-M "C 2 2 21"
_symmetry_group_IT_number 20
_symmetry_cell_setting 'orthorhombic'
loop_
_space_group_symop_operation_xyz
x,y,z
-x,-y,1/2+z
x,-y,-z
-x,y,1/2-z
1/2+x,1/2+y,z
1/2-x,1/2-y,1/2+z
1/2+x,1/2-y,-z
1/2-x,1/2+y,1/2-z
loop_
_atom_site_type_symbol
_atom_site_label
_atom_site_fract_x
_atom_site_fract_y
_atom_site_fract_z
Si Si1 0.209173 0.743226 0.336473
Si Si2 0.813786 0.935078 0.090016
Si Si3 0.079298 0.179486 0.953594
Si Si4 0.448775 0.244112 0.649461
Si Si5 0.597995 0.482609 0.200868
Si Si6 0.581254 0.961102 0.099570
Si Si7 0.090212 0.337838 0.819670
Si Si8 0.751302 0.416382 0.944128
O O1 0.159713 0.825966 0.398114
O O2 0.328430 0.749662 0.340797
O O3 0.180186 0.723467 0.225177
O O4 0.175631 0.646618 0.384391
O O5 0.836297 0.965797 0.201772
O O6 0.695486 0.934378 0.076553
O O7 0.853802 0.000000 0.000000
O O8 0.057612 0.105406 0.865893
O O9 0.074924 0.285977 0.921292
O O10 0.023938 0.187253 0.058769
O O11 0.191300 0.148497 0.981078
O O12 0.500000 0.271174 0.750000
O O13 0.470159 0.133820 0.633863
O O14 0.500000 0.524548 0.250000
O O15 0.666723 0.540055 0.126847
O O16 0.593515 0.051330 0.169917
O O17 0.535355 0.000000 0.000000
O O18 0.000000 0.312434 0.750000
O O19 0.800070 0.500000 0.000000
#
# Coordination Sequence:
#
# PCOD9318332 Si02
#       8
#     8   8   8   8   8   8   8   8
#     4  10  22  42  65  96 130 170 223 271 337 399
#     4  10  22  38  66  98 128 169 226 280 332 407
#     4  10  21  39  64  89 129 171 208 274 338 394
#     4  10  21  42  68  98 130 169 226 281 343 410
#     4  11  22  41  62  92 132 174 223 276 335 406
#     4  10  20  39  65  93 132 174 217 281 347 395
#     4  12  23  40  66  91 128 175 218 267 333 408
#     4   9  21  40  62  88 127 170 211 265 337 388
#
# _framework density 24.174848000000001
#
# number of rings (size 3 to 8) (size 9 to 14) (size 15 to 20)
#    0.000    1.750    2.500    1.500    1.750    3.500 
#    0.000    5.625    0.000    0.000    0.000    0.000 
#    0.000    0.000    0.000    0.000    0.000    0.000 
#
# Total GULP energy -178335.785004 kJ/mol
# GULP energy per Si atom -5572.993281 kJ/mol
# Density = 2.411982 g / cm^3
# Si number density = 24.174848 Si / 1000 Ang^3
#
#
#
# Elastic Constant Matrix: (Units=GPa)
#
#
# Indices 1 2 3 4 5 6 
#
# 1 38.7816 8.3145 18.1459 0.0000 0.0000 0.0000
# 2 8.3145 155.7781 62.5697 0.0000 0.0000 0.0000
# 3 18.1459 62.5697 138.4508 0.0000 0.0000 0.0000
# 4 0.0000 0.0000 0.0000 48.5528 0.0000 0.0000
# 5 0.0000 0.0000 0.0000 0.0000 21.6680 0.0000
# 6 0.0000 0.0000 0.0000 0.0000 0.0000 11.0928
#
#
#
# Elastic Compliance Matrix: (Units=1/GPa)
#
#
# Indices 1 2 3 4 5 6 
#
# 1 0.027470 -0.000025 -0.003589 0.000000 0.000000 0.000000
# 2 -0.000025 0.007843 -0.003541 0.000000 0.000000 0.000000
# 3 -0.003589 -0.003541 0.009294 0.000000 0.000000 0.000000
# 4 0.000000 0.000000 0.000000 0.020596 0.000000 0.000000
# 5 0.000000 0.000000 0.000000 0.000000 0.046151 0.000000
# 6 0.000000 0.000000 0.000000 0.000000 0.000000 0.090149
#
#
# Mechanical properties :
#
#
# Convention : Reuss Voigt Hill
#
# Bulk Modulus (GPa) = 33.00698 56.78564 44.89631
# Shear Modulus (GPa) = 22.13256 32.52808 27.33032
#
# Velocity S-wave (km/s) = 3.02904 3.67213 3.36598
# Velocity P-wave (km/s) = 5.09083 6.44360 5.80674
#
# Compressibility (1/GPa) = 0.03029663
#
# Stress axis : x y z
#
# Youngs Moduli (GPa) = 36.40327 127.50075 107.60081
#
# Poissons Ratio (x) = 0.00313 0.38620
# Poissons Ratio (y) = 0.00089 0.38105
# Poissons Ratio (z) = 0.13066 0.45152
#
# Static dielectric constant tensor:
#      x y z
#    x 1.918150 0.000000 0.000000 
#    y 0.000000 2.002430 0.000000 
#    z 0.000000 0.000000 2.432530 
# 
# From -- ./inp_files/15895.got.cif
#   From: 2010.05.17/outbox.cif.g08.bks.cpg/sg20_8_cif.got.tgz:15895.got - 2010.06.03 22:52:26.
