data_PCOD9318534
_publ_section_title
;
Structure prediction by ZEFSAII (Michael W. Deem and Ramdas Pophale) SiO2 
 PCOD9318534
Probable space group: C 2 2 21
;
_chemical_formula_sum "Si O2"
_cell_formula_units_Z 36
_cell_length_a 11.078780
_cell_length_b 16.134564
_cell_length_c 10.031487
_cell_angle_alpha 90.000000
_cell_angle_beta 90.000000
_cell_angle_gamma 90.000000
_cell_volume 1793.141191
_symmetry_space_group_name_H-M "C 2 2 21"
_symmetry_group_IT_number 20
_symmetry_cell_setting 'orthorhombic'
loop_
_space_group_symop_operation_xyz
x,y,z
-x,-y,1/2+z
x,-y,-z
-x,y,1/2-z
1/2+x,1/2+y,z
1/2-x,1/2-y,1/2+z
1/2+x,1/2-y,-z
1/2-x,1/2+y,1/2-z
loop_
_atom_site_type_symbol
_atom_site_label
_atom_site_fract_x
_atom_site_fract_y
_atom_site_fract_z
Si Si1 0.192157 0.409134 0.066335
Si Si2 0.610188 0.609025 0.097986
Si Si3 0.874226 0.081721 0.689424
Si Si4 0.152563 0.187992 0.359085
Si Si5 0.500000 0.835811 0.250000
O O1 0.280359 0.413037 0.192871
O O2 0.065084 0.385971 0.132708
O O3 0.191537 0.500000 0.000000
O O4 0.245972 0.340290 0.963745
O O5 0.609844 0.513501 0.142587
O O6 0.685189 0.655516 0.211304
O O7 0.470592 0.638525 0.100461
O O8 0.657440 0.624983 0.949807
O O9 0.000000 0.112550 0.750000
O O10 0.099837 0.278556 0.325389
#
# Coordination Sequence:
#
# PCOD9318534 Si02
#       5
#     8   8   8   8   4
#     4  12  23  45  70  95 133 181 229 280 331 408
#     4   9  17  30  56 101 128 156 219 274 318 371
#     4  11  17  29  61 103 128 160 223 280 319 370
#     4  10  20  41  66  90 135 180 216 278 333 399
#     4  10  28  44  62 102 144 172 216 284 352 410
#
# _framework density 20.076501
#
# number of rings (size 3 to 8) (size 9 to 14) (size 15 to 20)
#    0.000    1.778    6.667    0.000    0.000    3.556 
#    4.000    2.222    0.000    0.000    0.000    0.000 
#    0.000    0.000    0.000    0.000    0.000    0.000 
#
# Total GULP energy -100354.534524 kJ/mol
# GULP energy per Si atom -5575.251918 kJ/mol
# Density = 2.003081 g / cm^3
# Si number density = 20.076501 Si / 1000 Ang^3
#
#
#
# Elastic Constant Matrix: (Units=GPa)
#
#
# Indices 1 2 3 4 5 6 
#
# 1 51.6025 29.7447 54.5867 0.0000 0.0000 0.0000
# 2 29.7447 50.8992 42.6049 0.0000 0.0000 0.0000
# 3 54.5867 42.6049 199.4653 0.0000 0.0000 0.0000
# 4 0.0000 0.0000 0.0000 5.9737 0.0000 0.0000
# 5 0.0000 0.0000 0.0000 0.0000 44.8243 0.0000
# 6 0.0000 0.0000 0.0000 0.0000 0.0000 41.7833
#
#
#
# Elastic Compliance Matrix: (Units=1/GPa)
#
#
# Indices 1 2 3 4 5 6 
#
# 1 0.034675 -0.015003 -0.006285 0.000000 0.000000 0.000000
# 2 -0.015003 0.030415 -0.002391 0.000000 0.000000 0.000000
# 3 -0.006285 -0.002391 0.007244 0.000000 0.000000 0.000000
# 4 0.000000 0.000000 0.000000 0.167400 0.000000 0.000000
# 5 0.000000 0.000000 0.000000 0.000000 0.022309 0.000000
# 6 0.000000 0.000000 0.000000 0.000000 0.000000 0.023933
#
#
# Mechanical properties :
#
#
# Convention : Reuss Voigt Hill
#
# Bulk Modulus (GPa) = 40.03621 61.75994 50.89807
# Shear Modulus (GPa) = 14.63441 30.18496 22.40969
#
# Velocity S-wave (km/s) = 2.70280 3.88170 3.34460
# Velocity P-wave (km/s) = 5.45209 7.13577 6.34998
#
# Compressibility (1/GPa) = 0.02497739
#
# Stress axis : x y z
#
# Youngs Moduli (GPa) = 28.83897 32.87802 138.04520
#
# Poissons Ratio (x) = 0.49327 0.86759
# Poissons Ratio (y) = 0.43267 0.33004
# Poissons Ratio (z) = 0.18125 0.07860
#
# Static dielectric constant tensor:
#      x y z
#    x 1.718280 0.000000 0.000000 
#    y 0.000000 1.760450 0.000000 
#    z 0.000000 0.000000 1.730260 
# 
# From -- ./inp_files/7174.got.cif
#   From: 2010.05.17/outbox.cif.g08.bks.cpg/sg20_4_cif.got.tgz:7174.got - 2010.06.03 22:52:26.
