data_PCOD9318634
_publ_section_title
;
Structure prediction by ZEFSAII (Michael W. Deem and Ramdas Pophale) SiO2 
 PCOD9318634
Probable space group: C 2 2 21
;
_chemical_formula_sum "Si O2"
_cell_formula_units_Z 48
_cell_length_a 20.888304
_cell_length_b 8.369858
_cell_length_c 13.729178
_cell_angle_alpha 90.000000
_cell_angle_beta 90.000000
_cell_angle_gamma 90.000000
_cell_volume 2400.301547
_symmetry_space_group_name_H-M "C 2 2 21"
_symmetry_group_IT_number 20
_symmetry_cell_setting 'orthorhombic'
loop_
_space_group_symop_operation_xyz
x,y,z
-x,-y,1/2+z
x,-y,-z
-x,y,1/2-z
1/2+x,1/2+y,z
1/2-x,1/2-y,1/2+z
1/2+x,1/2-y,-z
1/2-x,1/2+y,1/2-z
loop_
_atom_site_type_symbol
_atom_site_label
_atom_site_fract_x
_atom_site_fract_y
_atom_site_fract_z
Si Si1 0.500000 0.254143 0.750000
Si Si2 0.169179 0.949724 0.305356
Si Si3 0.711507 0.282484 0.830179
Si Si4 0.905638 0.448159 0.385460
Si Si5 0.083091 0.803311 0.140414
Si Si6 0.955109 0.970890 0.108959
Si Si7 0.167205 0.000000 0.000000
O O1 0.540026 0.148403 0.826625
O O2 0.537817 0.374383 0.678176
O O3 0.224691 0.820240 0.316613
O O4 0.118902 0.906753 0.220548
O O5 0.120252 0.936103 0.394487
O O6 0.196548 0.120759 0.269949
O O7 0.657276 0.156504 0.864171
O O8 0.709500 0.417445 0.915520
O O9 0.916481 0.500000 0.500000
O O10 0.901387 0.621672 0.337654
O O11 0.007528 0.839322 0.141438
O O12 0.119305 0.865078 0.043235
O O13 0.977367 0.000000 0.000000
#
# Coordination Sequence:
#
# PCOD9318634 Si02
#       7
#     4   8   8   8   8   8   4
#     4  12  24  46  68 104 152 176 234 306 360 422
#     4  11  24  43  67  98 136 190 225 295 356 420
#     4  11  23  46  68  99 141 186 241 285 359 426
#     4  12  24  41  72 106 135 187 235 293 356 444
#     4  11  21  41  71  98 134 180 232 284 363 422
#     4  12  23  44  72 101 137 184 234 295 366 425
#     4  10  20  42  72  94 134 186 234 294 340 436
#
# _framework density 19.997489000000002
#
# number of rings (size 3 to 8) (size 9 to 14) (size 15 to 20)
#    0.000    0.667    5.833    3.000    2.333    0.667 
#    6.000    0.000    1.833    0.000    0.000    0.000 
#    0.000    0.000    0.000    0.000    0.000    0.000 
#
# Total GULP energy -133698.000052 kJ/mol
# GULP energy per Si atom -5570.750002 kJ/mol
# Density = 1.995197 g / cm^3
# Si number density = 19.997489 Si / 1000 Ang^3
#
#
#
# Elastic Constant Matrix: (Units=GPa)
#
#
# Indices 1 2 3 4 5 6 
#
# 1 122.9151 47.7073 28.0432 0.0000 0.0000 0.0000
# 2 47.7073 115.1391 7.9319 0.0000 0.0000 0.0000
# 3 28.0432 7.9319 62.4560 0.0000 0.0000 0.0000
# 4 0.0000 0.0000 0.0000 35.1168 0.0000 0.0000
# 5 0.0000 0.0000 0.0000 0.0000 8.3525 0.0000
# 6 0.0000 0.0000 0.0000 0.0000 0.0000 8.5922
#
#
#
# Elastic Compliance Matrix: (Units=1/GPa)
#
#
# Indices 1 2 3 4 5 6 
#
# 1 0.010724 -0.004148 -0.004288 0.000000 0.000000 0.000000
# 2 -0.004148 0.010366 0.000546 0.000000 0.000000 0.000000
# 3 -0.004288 0.000546 0.017867 0.000000 0.000000 0.000000
# 4 0.000000 0.000000 0.000000 0.028476 0.000000 0.000000
# 5 0.000000 0.000000 0.000000 0.000000 0.119725 0.000000
# 6 0.000000 0.000000 0.000000 0.000000 0.000000 0.116385
#
#
# Mechanical properties :
#
#
# Convention : Reuss Voigt Hill
#
# Bulk Modulus (GPa) = 43.14642 51.98613 47.56628
# Shear Modulus (GPa) = 15.28815 24.86747 20.07781
#
# Velocity S-wave (km/s) = 2.76796 3.53020 3.17206
# Velocity P-wave (km/s) = 5.64254 6.53216 6.10358
#
# Compressibility (1/GPa) = 0.02317689
#
# Stress axis : x y z
#
# Youngs Moduli (GPa) = 93.24797 96.46682 55.96766
#
# Poissons Ratio (x) = 0.40015 0.24001
# Poissons Ratio (y) = 0.38680 -0.03056
# Poissons Ratio (z) = 0.39988 -0.05267
#
# Static dielectric constant tensor:
#      x y z
#    x 1.739090 0.000000 0.000000 
#    y 0.000000 1.764180 0.000000 
#    z 0.000000 0.000000 2.026460 
# 
# From -- ./inp_files/21321.got.cif
#   From: 2010.05.17/outbox.cif.g08.bks.cpg/sg20_11_cif.got.tgz:21321.got - 2010.06.03 22:52:26.
