data_PCOD9318957
_publ_section_title
;
Structure prediction by ZEFSAII (Michael W. Deem and Ramdas Pophale) SiO2 
 PCOD9318957
Probable space group: C 2 2 21
;
_chemical_formula_sum "Si O2"
_cell_formula_units_Z 52
_cell_length_a 13.705420
_cell_length_b 7.885110
_cell_length_c 21.444158
_cell_angle_alpha 90.000000
_cell_angle_beta 90.000000
_cell_angle_gamma 90.000000
_cell_volume 2317.443228
_symmetry_space_group_name_H-M "C 2 2 21"
_symmetry_group_IT_number 20
_symmetry_cell_setting 'orthorhombic'
loop_
_space_group_symop_operation_xyz
x,y,z
-x,-y,1/2+z
x,-y,-z
-x,y,1/2-z
1/2+x,1/2+y,z
1/2-x,1/2-y,1/2+z
1/2+x,1/2-y,-z
1/2-x,1/2+y,1/2-z
loop_
_atom_site_type_symbol
_atom_site_label
_atom_site_fract_x
_atom_site_fract_y
_atom_site_fract_z
Si Si1 0.199726 0.571748 0.817212
Si Si2 0.500000 0.643626 0.750000
Si Si3 0.646945 0.639310 0.265377
Si Si4 0.903712 0.688036 0.889556
Si Si5 0.811485 0.798909 0.013463
Si Si6 0.614465 0.199156 0.358885
Si Si7 0.390222 0.119497 0.558140
O O1 0.241600 0.418756 0.776486
O O2 0.133472 0.694815 0.776039
O O3 0.290979 0.694298 0.835686
O O4 0.150400 0.517730 0.881532
O O5 0.410667 0.516520 0.735933
O O6 0.470476 0.748085 0.811134
O O7 0.610699 0.675366 0.335347
O O8 0.882621 0.503759 0.860494
O O9 0.012060 0.704712 0.917411
O O10 0.833361 0.710200 0.948497
O O11 0.887856 0.751177 0.067872
O O12 0.701282 0.764854 0.037485
O O13 0.816005 0.000000 0.000000
O O14 0.413539 0.000000 0.500000
#
# Coordination Sequence:
#
# PCOD9318957 Si02
#       7
#     8   4   8   8   8   8   8
#     4  10  22  40  62  92 130 170 217 267 334 396
#     4  10  22  40  60  92 130 166 212 270 330 390
#     4  11  22  39  63  93 131 174 217 273 330 396
#     4  12  23  40  66  94 127 174 224 274 334 393
#     4  10  21  42  63  87 127 171 221 280 332 390
#     4  10  22  39  61  91 129 170 217 276 332 396
#     4  10  21  38  61  90 121 164 217 271 327 388
#
# _framework density 22.438521999999999
#
# number of rings (size 3 to 8) (size 9 to 14) (size 15 to 20)
#    0.000    1.538    0.000    6.923    0.000    4.308 
#    0.000   10.769    0.000    3.692    0.000    0.000 
#    0.000    0.000    0.000    0.000    0.000    0.000 
#
# Total GULP energy -145286.462249 kJ/mol
# GULP energy per Si atom -5587.940856 kJ/mol
# Density = 2.238745 g / cm^3
# Si number density = 22.438522 Si / 1000 Ang^3
#
#
#
# Elastic Constant Matrix: (Units=GPa)
#
#
# Indices 1 2 3 4 5 6 
#
# 1 52.2543 6.9733 23.3183 0.0000 0.0000 0.0000
# 2 6.9733 74.6638 34.7214 0.0000 0.0000 0.0000
# 3 23.3183 34.7214 132.5086 0.0000 0.0000 0.0000
# 4 0.0000 0.0000 0.0000 47.8418 0.0000 0.0000
# 5 0.0000 0.0000 0.0000 0.0000 38.1174 0.0000
# 6 0.0000 0.0000 0.0000 0.0000 0.0000 19.6196
#
#
#
# Elastic Compliance Matrix: (Units=1/GPa)
#
#
# Indices 1 2 3 4 5 6 
#
# 1 0.020773 -0.000273 -0.003584 0.000000 0.000000 0.000000
# 2 -0.000273 0.015255 -0.003949 0.000000 0.000000 0.000000
# 3 -0.003584 -0.003949 0.009212 0.000000 0.000000 0.000000
# 4 0.000000 0.000000 0.000000 0.020902 0.000000 0.000000
# 5 0.000000 0.000000 0.000000 0.000000 0.026235 0.000000
# 6 0.000000 0.000000 0.000000 0.000000 0.000000 0.050970
#
#
# Mechanical properties :
#
#
# Convention : Reuss Voigt Hill
#
# Bulk Modulus (GPa) = 33.75258 43.27251 38.51255
# Shear Modulus (GPa) = 29.61450 34.07667 31.84559
#
# Velocity S-wave (km/s) = 3.63686 3.90124 3.77136
# Velocity P-wave (km/s) = 5.71931 6.29441 6.01374
#
# Compressibility (1/GPa) = 0.02962736
#
# Stress axis : x y z
#
# Youngs Moduli (GPa) = 48.13950 65.55023 108.55182
#
# Poissons Ratio (x) = 0.01793 0.38904
# Poissons Ratio (y) = 0.01316 0.42870
# Poissons Ratio (z) = 0.17253 0.25888
#
# Static dielectric constant tensor:
#      x y z
#    x 1.892700 0.000000 0.000000 
#    y 0.000000 1.812530 0.000000 
#    z 0.000000 0.000000 1.837120 
# 
# From -- ./inp_files/27501.got.cif
#   From: 2010.05.17/outbox.cif.g08.bks.cpg/sg20_14_cif.got.tgz:27501.got - 2010.06.03 22:52:26.
