data_PCOD9318397
_publ_section_title
;
Structure prediction by ZEFSAII (Michael W. Deem and Ramdas Pophale) SiO2 
 PCOD9318397
Probable space group: C 2 2 21
;
_chemical_formula_sum "Si O2"
_cell_formula_units_Z 28
_cell_length_a 14.111201
_cell_length_b 12.517667
_cell_length_c 8.611120
_cell_angle_alpha 90.000000
_cell_angle_beta 90.000000
_cell_angle_gamma 90.000000
_cell_volume 1521.062339
_symmetry_space_group_name_H-M "C 2 2 21"
_symmetry_group_IT_number 20
_symmetry_cell_setting 'orthorhombic'
loop_
_space_group_symop_operation_xyz
x,y,z
-x,-y,1/2+z
x,-y,-z
-x,y,1/2-z
1/2+x,1/2+y,z
1/2-x,1/2-y,1/2+z
1/2+x,1/2-y,-z
1/2-x,1/2+y,1/2-z
loop_
_atom_site_type_symbol
_atom_site_label
_atom_site_fract_x
_atom_site_fract_y
_atom_site_fract_z
Si Si1 0.666259 0.727941 0.563719
Si Si2 0.532481 0.892580 0.425895
Si Si3 0.658801 0.160772 0.108154
Si Si4 0.703842 0.500000 0.500000
O O1 0.604230 0.794262 0.441940
O O2 0.649370 0.780047 0.729806
O O3 0.776056 0.729645 0.510004
O O4 0.645697 0.600818 0.561746
O O5 0.500000 0.910425 0.250000
O O6 0.440422 0.866814 0.530633
O O7 0.575744 0.000000 0.500000
O O8 0.723434 0.053516 0.123850
#
# Coordination Sequence:
#
# PCOD9318397 Si02
#       4
#     8   8   8   4
#     4  10  21  38  66  85 124 159 198 253 307 355
#     4  12  23  37  62  92 120 158 212 256 302 359
#     4  10  20  40  63  89 122 155 202 252 302 360
#     4   8  22  40  60  86 130 148 206 244 298 376
#
# _framework density 18.408187000000002
#
# number of rings (size 3 to 8) (size 9 to 14) (size 15 to 20)
#    1.714    0.000    1.429    4.286    0.000    0.000 
#    0.000    2.857    3.143    0.000    0.000    0.000 
#    0.000    0.000    0.000    0.000    0.000    0.000 
#
# Total GULP energy -77958.195851 kJ/mol
# GULP energy per Si atom -5568.442561 kJ/mol
# Density = 1.836629 g / cm^3
# Si number density = 18.408187 Si / 1000 Ang^3
#
#
#
# Elastic Constant Matrix: (Units=GPa)
#
#
# Indices 1 2 3 4 5 6 
#
# 1 35.5513 23.0594 -17.2053 0.0000 0.0000 0.0000
# 2 23.0594 138.9961 32.9197 0.0000 0.0000 0.0000
# 3 -17.2053 32.9197 73.6485 0.0000 0.0000 0.0000
# 4 0.0000 0.0000 0.0000 32.0652 0.0000 0.0000
# 5 0.0000 0.0000 0.0000 0.0000 24.0215 0.0000
# 6 0.0000 0.0000 0.0000 0.0000 0.0000 28.0020
#
#
#
# Elastic Compliance Matrix: (Units=1/GPa)
#
#
# Indices 1 2 3 4 5 6 
#
# 1 0.041800 -0.010342 0.014388 0.000000 0.000000 0.000000
# 2 -0.010342 0.010605 -0.007156 0.000000 0.000000 0.000000
# 3 0.014388 -0.007156 0.020138 0.000000 0.000000 0.000000
# 4 0.000000 0.000000 0.000000 0.031186 0.000000 0.000000
# 5 0.000000 0.000000 0.000000 0.000000 0.041629 0.000000
# 6 0.000000 0.000000 0.000000 0.000000 0.000000 0.035712
#
#
# Mechanical properties :
#
#
# Convention : Reuss Voigt Hill
#
# Bulk Modulus (GPa) = 15.07817 36.19373 25.63595
# Shear Modulus (GPa) = 23.87790 30.77922 27.32856
#
# Velocity S-wave (km/s) = 3.60548 4.09349 3.85721
# Velocity P-wave (km/s) = 5.05386 6.48434 5.81327
#
# Compressibility (1/GPa) = 0.06632102
#
# Stress axis : x y z
#
# Youngs Moduli (GPa) = 23.92370 94.29415 49.65750
#
# Poissons Ratio (x) = 0.97520 -0.71446
# Poissons Ratio (y) = 0.24742 0.35537
# Poissons Ratio (z) = -0.34421 0.67480
#
# Static dielectric constant tensor:
#      x y z
#    x 1.634760 0.000000 0.000000 
#    y 0.000000 1.679600 0.000000 
#    z 0.000000 0.000000 1.621900 
# 
# From -- ./inp_files/5613.got.cif
#   From: 2010.05.17/outbox.cif.g08.bks.cpg/sg20_3_cif.got.tgz:5613.got - 2010.06.03 22:52:26.
