data_PCOD9318962
_publ_section_title
;
Structure prediction by ZEFSAII (Michael W. Deem and Ramdas Pophale) SiO2 
 PCOD9318962
Probable space group: C 2 2 21
;
_chemical_formula_sum "Si O2"
_cell_formula_units_Z 64
_cell_length_a 11.657574
_cell_length_b 32.292904
_cell_length_c 7.657803
_cell_angle_alpha 90.000000
_cell_angle_beta 90.000000
_cell_angle_gamma 90.000000
_cell_volume 2882.832916
_symmetry_space_group_name_H-M "C 2 2 21"
_symmetry_group_IT_number 20
_symmetry_cell_setting 'orthorhombic'
loop_
_space_group_symop_operation_xyz
x,y,z
-x,-y,1/2+z
x,-y,-z
-x,y,1/2-z
1/2+x,1/2+y,z
1/2-x,1/2-y,1/2+z
1/2+x,1/2-y,-z
1/2-x,1/2+y,1/2-z
loop_
_atom_site_type_symbol
_atom_site_label
_atom_site_fract_x
_atom_site_fract_y
_atom_site_fract_z
Si Si1 0.121347 0.262963 0.770870
Si Si2 0.466584 0.918736 0.054554
Si Si3 0.352969 0.833520 0.016925
Si Si4 0.262350 0.544419 0.471053
Si Si5 0.882004 0.127545 0.458843
Si Si6 0.644246 0.626458 0.464716
Si Si7 0.289808 0.047259 0.436870
Si Si8 0.697695 0.801731 0.128123
O O1 0.121432 0.300616 0.632405
O O2 0.223596 0.233221 0.716381
O O3 0.000000 0.240517 0.750000
O O4 0.134252 0.280669 0.965242
O O5 0.500000 0.907894 0.250000
O O6 0.415493 0.876793 0.971490
O O7 0.360381 0.950654 0.065186
O O8 0.579777 0.937488 0.967889
O O9 0.377937 0.818856 0.213053
O O10 0.215663 0.841655 0.024874
O O11 0.316246 0.500000 0.500000
O O12 0.343348 0.582092 0.520578
O O13 0.232790 0.547920 0.268319
O O14 0.865645 0.128885 0.247520
O O15 0.012183 0.133678 0.517105
O O16 0.701598 0.581962 0.511756
O O17 0.726305 0.661515 0.543648
O O18 0.274762 0.000000 0.500000
#
# Coordination Sequence:
#
# PCOD9318962 Si02
#       8
#     8   8   8   8   8   8   8   8
#     4  12  29  47  75 106 147 186 238 304 365 427
#     4  11  23  39  64  95 131 180 224 286 355 425
#     4  11  25  45  71 103 141 183 240 292 357 430
#     4  10  21  38  61  92 131 176 228 289 349 418
#     4   9  21  42  67  94 132 184 232 291 354 422
#     4  10  22  41  70  98 133 188 235 290 357 431
#     4  11  23  40  64  97 140 182 235 295 354 426
#     4  12  26  50  70 107 143 185 240 294 360 437
#
# _framework density 22.200384
#
# number of rings (size 3 to 8) (size 9 to 14) (size 15 to 20)
#    0.000    1.250    2.500    2.250    5.250    1.500 
#    0.000    0.000    0.000    0.000    0.000    0.000 
#    0.000    0.000    0.000    0.000    0.000    0.000 
#
# Total GULP energy -178978.404835 kJ/mol
# GULP energy per Si atom -5593.075151 kJ/mol
# Density = 2.214986 g / cm^3
# Si number density = 22.200384 Si / 1000 Ang^3
#
#
#
# Elastic Constant Matrix: (Units=GPa)
#
#
# Indices 1 2 3 4 5 6 
#
# 1 84.5564 1.6421 13.0778 0.0000 0.0000 0.0000
# 2 1.6421 71.4097 14.0863 0.0000 0.0000 0.0000
# 3 13.0778 14.0863 72.6619 0.0000 0.0000 0.0000
# 4 0.0000 0.0000 0.0000 31.9593 0.0000 0.0000
# 5 0.0000 0.0000 0.0000 0.0000 -11.1805 0.0000
# 6 0.0000 0.0000 0.0000 0.0000 0.0000 18.9314
#
#
#
# Elastic Compliance Matrix: (Units=1/GPa)
#
#
# Indices 1 2 3 4 5 6 
#
# 1 0.012167 0.000158 -0.002220 0.000000 0.000000 0.000000
# 2 0.000158 0.014563 -0.002852 0.000000 0.000000 0.000000
# 3 -0.002220 -0.002852 0.014715 0.000000 0.000000 0.000000
# 4 0.000000 0.000000 0.000000 0.031290 0.000000 0.000000
# 5 0.000000 0.000000 0.000000 0.000000 -0.089441 0.000000
# 6 0.000000 0.000000 0.000000 0.000000 0.000000 0.052822
#
#
# Mechanical properties :
#
#
# Convention : Reuss Voigt Hill
#
# Bulk Modulus (GPa) = 31.62903 31.80448 31.71676
# Shear Modulus (GPa) = 88.52462 21.26349 54.89406
#
# Velocity S-wave (km/s) = 6.32154 3.09819 4.97798
# Velocity P-wave (km/s) = 8.21952 5.21110 6.88171
#
# Compressibility (1/GPa) = 0.03161652
#
# Stress axis : x y z
#
# Youngs Moduli (GPa) = 82.19100 68.66924 67.95871
#
# Poissons Ratio (x) = -0.01087 0.15090
# Poissons Ratio (y) = -0.01301 0.19379
# Poissons Ratio (z) = 0.18250 0.19582
#
# Static dielectric constant tensor:
#      x y z
#    x 1.839750 0.000000 0.000000 
#    y 0.000000 1.816550 0.000000 
#    z 0.000000 0.000000 1.826460 
# 
# From -- ./inp_files/7695.got.cif
#   From: 2010.05.17/outbox.cif.g08.bks.cpg/sg20_4_cif.got.tgz:7695.got - 2010.06.03 22:52:26.
