data_PCOD9318575
_publ_section_title
;
Structure prediction by ZEFSAII (Michael W. Deem and Ramdas Pophale) SiO2 
 PCOD9318575
Probable space group: C 2 2 21
;
_chemical_formula_sum "Si O2"
_cell_formula_units_Z 48
_cell_length_a 12.363281
_cell_length_b 14.455522
_cell_length_c 13.044786
_cell_angle_alpha 90.000000
_cell_angle_beta 90.000000
_cell_angle_gamma 90.000000
_cell_volume 2331.333896
_symmetry_space_group_name_H-M "C 2 2 21"
_symmetry_group_IT_number 20
_symmetry_cell_setting 'orthorhombic'
loop_
_space_group_symop_operation_xyz
x,y,z
-x,-y,1/2+z
x,-y,-z
-x,y,1/2-z
1/2+x,1/2+y,z
1/2-x,1/2-y,1/2+z
1/2+x,1/2-y,-z
1/2-x,1/2+y,1/2-z
loop_
_atom_site_type_symbol
_atom_site_label
_atom_site_fract_x
_atom_site_fract_y
_atom_site_fract_z
Si Si1 0.699629 0.738252 0.899215
Si Si2 0.224081 0.246494 0.668678
Si Si3 0.579718 0.073456 0.345702
Si Si4 0.956653 0.782113 0.577130
Si Si5 0.340146 0.609457 0.017253
Si Si6 0.896383 0.618227 0.930206
O O1 0.703330 0.708340 0.782192
O O2 0.750643 0.841078 0.910149
O O3 0.782529 0.667075 0.954150
O O4 0.588796 0.732623 0.961149
O O5 0.160462 0.342715 0.670480
O O6 0.348160 0.274696 0.644351
O O7 0.180038 0.170753 0.586571
O O8 0.500000 0.075215 0.250000
O O9 0.543704 0.091794 0.463558
O O10 0.622904 0.969256 0.358516
O O11 0.041656 0.866541 0.565528
O O12 0.030102 0.697830 0.616150
O O13 0.326415 0.500000 0.000000
#
# Coordination Sequence:
#
# PCOD9318575 Si02
#       6
#     8   8   8   8   8   8
#     4  10  22  41  65  91 131 162 216 267 320 388
#     4  11  23  40  65  94 122 171 213 260 330 381
#     4  11  22  39  64  93 126 161 218 263 319 386
#     4  10  20  42  64  87 125 171 205 266 319 382
#     4  10  23  43  62  93 128 168 212 264 318 386
#     4  10  22  40  60  96 127 165 208 271 326 370
#
# _framework density 20.58907
#
# number of rings (size 3 to 8) (size 9 to 14) (size 15 to 20)
#    0.000    1.667    5.000    1.000    2.333    4.667 
#   15.000    1.667    0.000    0.000    0.000    0.000 
#    0.000    0.000    0.000    0.000    0.000    0.000 
#
# Total GULP energy -133607.510378 kJ/mol
# GULP energy per Si atom -5566.979599 kJ/mol
# Density = 2.054221 g / cm^3
# Si number density = 20.589070 Si / 1000 Ang^3
#
#
#
# Elastic Constant Matrix: (Units=GPa)
#
#
# Indices 1 2 3 4 5 6 
#
# 1 43.7441 29.6209 -13.7748 0.0000 0.0000 0.0000
# 2 29.6209 147.8547 10.5129 0.0000 0.0000 0.0000
# 3 -13.7748 10.5129 84.2967 0.0000 0.0000 0.0000
# 4 0.0000 0.0000 0.0000 18.7874 0.0000 0.0000
# 5 0.0000 0.0000 0.0000 0.0000 24.0524 0.0000
# 6 0.0000 0.0000 0.0000 0.0000 0.0000 12.7585
#
#
#
# Elastic Compliance Matrix: (Units=1/GPa)
#
#
# Indices 1 2 3 4 5 6 
#
# 1 0.028743 -0.006147 0.005463 0.000000 0.000000 0.000000
# 2 -0.006147 0.008138 -0.002019 0.000000 0.000000 0.000000
# 3 0.005463 -0.002019 0.013007 0.000000 0.000000 0.000000
# 4 0.000000 0.000000 0.000000 0.053227 0.000000 0.000000
# 5 0.000000 0.000000 0.000000 0.000000 0.041576 0.000000
# 6 0.000000 0.000000 0.000000 0.000000 0.000000 0.078379
#
#
# Mechanical properties :
#
#
# Convention : Reuss Voigt Hill
#
# Bulk Modulus (GPa) = 22.48036 36.51259 29.49648
# Shear Modulus (GPa) = 20.55040 27.75543 24.15292
#
# Velocity S-wave (km/s) = 3.16273 3.67559 3.42876
# Velocity P-wave (km/s) = 4.92742 5.98212 5.48020
#
# Compressibility (1/GPa) = 0.04448328
#
# Stress axis : x y z
#
# Youngs Moduli (GPa) = 34.79128 122.87418 76.87887
#
# Poissons Ratio (x) = 0.75528 -0.42002
# Poissons Ratio (y) = 0.21385 0.15525
# Poissons Ratio (z) = -0.19008 0.24813
#
# Static dielectric constant tensor:
#      x y z
#    x 1.749950 0.000000 0.000000 
#    y 0.000000 1.732010 0.000000 
#    z 0.000000 0.000000 1.873420 
# 
# From -- ./inp_files/19939.got.cif
#   From: 2010.05.17/outbox.cif.g08.bks.cpg/sg20_10_cif.got.tgz:19939.got - 2010.06.03 22:52:26.
