data_PCOD9318857
_publ_section_title
;
Structure prediction by ZEFSAII (Michael W. Deem and Ramdas Pophale) SiO2 
 PCOD9318857
Probable space group: C 2 2 21
;
_chemical_formula_sum "Si O2"
_cell_formula_units_Z 36
_cell_length_a 10.691246
_cell_length_b 30.106192
_cell_length_c 5.302695
_cell_angle_alpha 90.000000
_cell_angle_beta 90.000000
_cell_angle_gamma 90.000000
_cell_volume 1706.792782
_symmetry_space_group_name_H-M "C 2 2 21"
_symmetry_group_IT_number 20
_symmetry_cell_setting 'orthorhombic'
loop_
_space_group_symop_operation_xyz
x,y,z
-x,-y,1/2+z
x,-y,-z
-x,y,1/2-z
1/2+x,1/2+y,z
1/2-x,1/2-y,1/2+z
1/2+x,1/2-y,-z
1/2-x,1/2+y,1/2-z
loop_
_atom_site_type_symbol
_atom_site_label
_atom_site_fract_x
_atom_site_fract_y
_atom_site_fract_z
Si Si1 0.500000 0.231684 0.750000
Si Si2 0.728186 0.837470 0.249971
Si Si3 0.716642 0.103894 0.250029
Si Si4 0.145398 0.978144 0.750000
Si Si5 0.000000 0.530321 0.250000
Si Si6 0.000000 0.791958 0.250000
O O1 0.375163 0.201477 0.750000
O O2 0.499998 0.261767 0.500346
O O3 0.707170 0.866603 0.500682
O O4 0.870768 0.819722 0.249990
O O5 0.707170 0.866592 0.999218
O O6 0.842554 0.074717 0.250005
O O7 0.615667 0.064535 0.250003
O O8 0.000000 0.990660 0.750000
O O9 0.201469 0.000000 0.500000
O O10 0.201469 0.000000 0.000000
O O11 0.999999 0.500000 0.500000
#
# Coordination Sequence:
#
# PCOD9318857 Si02
#       6
#     4   8   8   8   4   4
#     4  12  24  49  68  96 132 170 218 270 326 411
#     4  12  26  42  70  99 134 170 216 274 339 384
#     4  12  24  41  64  96 135 165 218 274 326 374
#     4  10  21  37  58  84 121 169 209 251 309 370
#     4  12  24  42  68  96 132 184 230 266 318 384
#     4  12  26  45  72  98 128 174 218 262 336 415
#
# _framework density 21.092193000000002
#
# number of rings (size 3 to 8) (size 9 to 14) (size 15 to 20)
#    0.000    0.444    0.000    9.333    3.111    0.000 
#    0.000    0.000    0.000    0.000    0.000    0.000 
#    0.000    0.000    0.000    0.000    0.000    0.000 
#
# Total GULP energy -100701.644181 kJ/mol
# GULP energy per Si atom -5594.535788 kJ/mol
# Density = 2.104419 g / cm^3
# Si number density = 21.092193 Si / 1000 Ang^3
#
#
#
# Elastic Constant Matrix: (Units=GPa)
#
#
# Indices 1 2 3 4 5 6 
#
# 1 142.4065 67.7108 56.8934 0.0000 0.0000 0.0000
# 2 67.7108 145.2559 118.2316 0.0000 0.0000 0.0000
# 3 56.8934 118.2316 256.9897 0.0000 0.0000 0.0000
# 4 0.0000 0.0000 0.0000 65.7183 0.0000 0.0000
# 5 0.0000 0.0000 0.0000 0.0000 28.3007 0.0000
# 6 0.0000 0.0000 0.0000 0.0000 0.0000 56.9239
#
#
#
# Elastic Compliance Matrix: (Units=1/GPa)
#
#
# Indices 1 2 3 4 5 6 
#
# 1 0.009023 -0.004125 -0.000100 0.000000 0.000000 0.000000
# 2 -0.004125 0.012891 -0.005018 0.000000 0.000000 0.000000
# 3 -0.000100 -0.005018 0.006222 0.000000 0.000000 0.000000
# 4 0.000000 0.000000 0.000000 0.015216 0.000000 0.000000
# 5 0.000000 0.000000 0.000000 0.000000 0.035335 0.000000
# 6 0.000000 0.000000 0.000000 0.000000 0.000000 0.017567
#
#
# Mechanical properties :
#
#
# Convention : Reuss Voigt Hill
#
# Bulk Modulus (GPa) = 103.61035 114.48041 109.04538
# Shear Modulus (GPa) = 42.38826 50.30967 46.34896
#
# Velocity S-wave (km/s) = 4.48779 4.88918 4.69278
# Velocity P-wave (km/s) = 8.72255 9.28795 9.00969
#
# Compressibility (1/GPa) = 0.00965155
#
# Stress axis : x y z
#
# Youngs Moduli (GPa) = 110.82356 77.57137 160.72611
#
# Poissons Ratio (x) = 0.31997 0.01606
# Poissons Ratio (y) = 0.45714 0.80647
# Poissons Ratio (z) = 0.01107 0.38923
#
# Static dielectric constant tensor:
#      x y z
#    x 1.898440 0.000000 0.000000 
#    y 0.000000 1.706950 0.000000 
#    z 0.000000 0.000000 1.713280 
# 
# From -- ./inp_files/1279.got.cif
#   From: 2010.05.17/outbox.cif.g08.bks.cpg/sg20_1_cif.got.tgz:1279.got - 2010.06.03 22:52:26.
