data_PCOD9318571
_publ_section_title
;
Structure prediction by ZEFSAII (Michael W. Deem and Ramdas Pophale) SiO2 
 PCOD9318571
Probable space group: C 2 2 21
;
_chemical_formula_sum "Si O2"
_cell_formula_units_Z 56
_cell_length_a 7.930131
_cell_length_b 14.757672
_cell_length_c 22.350860
_cell_angle_alpha 90.000000
_cell_angle_beta 90.000000
_cell_angle_gamma 90.000000
_cell_volume 2615.727230
_symmetry_space_group_name_H-M "C 2 2 21"
_symmetry_group_IT_number 20
_symmetry_cell_setting 'orthorhombic'
loop_
_space_group_symop_operation_xyz
x,y,z
-x,-y,1/2+z
x,-y,-z
-x,y,1/2-z
1/2+x,1/2+y,z
1/2-x,1/2-y,1/2+z
1/2+x,1/2-y,-z
1/2-x,1/2+y,1/2-z
loop_
_atom_site_type_symbol
_atom_site_label
_atom_site_fract_x
_atom_site_fract_y
_atom_site_fract_z
Si Si1 0.042472 0.790916 0.680541
Si Si2 0.815886 0.033361 0.219346
Si Si3 0.635732 0.587595 0.616272
Si Si4 0.631804 0.721223 0.854483
Si Si5 0.254867 0.000000 0.500000
Si Si6 0.974946 0.323234 0.527578
Si Si7 0.500000 0.854616 0.750000
Si Si8 0.311879 0.727452 0.425014
O O1 0.144658 0.883876 0.674572
O O2 0.172390 0.713404 0.662091
O O3 0.000000 0.780424 0.750000
O O4 0.886323 0.803093 0.637525
O O5 0.662099 0.077679 0.257014
O O6 0.000000 0.016986 0.250000
O O7 0.772387 0.950852 0.175475
O O8 0.454604 0.623598 0.638166
O O9 0.645708 0.521138 0.559443
O O10 0.720742 0.678688 0.591842
O O11 0.613126 0.774153 0.916587
O O12 0.538293 0.784883 0.804761
O O13 0.376159 0.085307 0.486876
O O14 0.956488 0.253948 0.472016
O O15 0.170070 0.334903 0.545273
#
# Coordination Sequence:
#
# PCOD9318571 Si02
#       8
#     8   8   8   8   4   8   4   8
#     4  10  22  40  63  93 129 171 217 268 320 392
#     4  10  23  40  61  94 131 169 214 265 329 382
#     4  10  23  40  63  93 130 167 206 273 320 399
#     4  10  22  38  69  93 126 171 224 259 330 387
#     4  10  20  42  64 100 134 164 212 272 340 380
#     4  10  21  38  68  90 130 169 214 270 319 395
#     4  10  22  42  64  90 134 178 210 272 332 386
#     4  10  22  41  65  94 127 170 219 259 327 382
#
# _framework density 21.408958999999999
#
# number of rings (size 3 to 8) (size 9 to 14) (size 15 to 20)
#    0.000    2.000    0.000    2.571   13.000    2.286 
#    3.857    4.286    0.000    1.714    0.000    0.000 
#    0.000    0.000    0.000    0.000    0.000    0.000 
#
# Total GULP energy -156079.833966 kJ/mol
# GULP energy per Si atom -5574.279784 kJ/mol
# Density = 2.136023 g / cm^3
# Si number density = 21.408959 Si / 1000 Ang^3
#
#
#
# Elastic Constant Matrix: (Units=GPa)
#
#
# Indices 1 2 3 4 5 6 
#
# 1 101.0799 19.1273 41.4607 0.0000 0.0000 0.0000
# 2 19.1273 49.0086 20.7576 0.0000 0.0000 0.0000
# 3 41.4607 20.7576 109.8219 0.0000 0.0000 0.0000
# 4 0.0000 0.0000 0.0000 21.2463 0.0000 0.0000
# 5 0.0000 0.0000 0.0000 0.0000 36.4028 0.0000
# 6 0.0000 0.0000 0.0000 0.0000 0.0000 -8.1690
#
#
#
# Elastic Compliance Matrix: (Units=1/GPa)
#
#
# Indices 1 2 3 4 5 6 
#
# 1 0.012107 -0.003032 -0.003998 0.000000 0.000000 0.000000
# 2 -0.003032 0.022940 -0.003191 0.000000 0.000000 0.000000
# 3 -0.003998 -0.003191 0.011218 0.000000 0.000000 0.000000
# 4 0.000000 0.000000 0.000000 0.047067 0.000000 0.000000
# 5 0.000000 0.000000 0.000000 0.000000 0.027470 0.000000
# 6 0.000000 0.000000 0.000000 0.000000 0.000000 -0.122414
#
#
# Mechanical properties :
#
#
# Convention : Reuss Voigt Hill
#
# Bulk Modulus (GPa) = 38.72531 46.95574 42.84052
# Shear Modulus (GPa) = 182.24157 21.80035 102.02096
#
# Velocity S-wave (km/s) = 9.23627 3.19451 6.91063
# Velocity P-wave (km/s) = 11.48358 5.96548 9.15040
#
# Compressibility (1/GPa) = 0.02582291
#
# Stress axis : x y z
#
# Youngs Moduli (GPa) = 82.59977 43.59291 89.14252
#
# Poissons Ratio (x) = 0.13217 0.35635
# Poissons Ratio (y) = 0.25043 0.28447
# Poissons Ratio (z) = 0.33019 0.13911
#
# Static dielectric constant tensor:
#      x y z
#    x 1.895270 0.000000 0.000000 
#    y 0.000000 1.810530 0.000000 
#    z 0.000000 0.000000 1.853030 
# 
# From -- ./inp_files/26759.got.cif
#   From: 2010.05.17/outbox.cif.g08.bks.cpg/sg20_14_cif.got.tgz:26759.got - 2010.06.03 22:52:26.
