data_PCOD9318101
_publ_section_title
;
Structure prediction by ZEFSAII (Michael W. Deem and Ramdas Pophale) SiO2 
 PCOD9318101
Probable space group: C 2 2 21
;
_chemical_formula_sum "Si O2"
_cell_formula_units_Z 24
_cell_length_a 16.596804
_cell_length_b 12.393722
_cell_length_c 4.859312
_cell_angle_alpha 90.000000
_cell_angle_beta 90.000000
_cell_angle_gamma 90.000000
_cell_volume 999.541891
_symmetry_space_group_name_H-M "C 2 2 21"
_symmetry_group_IT_number 20
_symmetry_cell_setting 'orthorhombic'
loop_
_space_group_symop_operation_xyz
x,y,z
-x,-y,1/2+z
x,-y,-z
-x,y,1/2-z
1/2+x,1/2+y,z
1/2-x,1/2-y,1/2+z
1/2+x,1/2-y,-z
1/2-x,1/2+y,1/2-z
loop_
_atom_site_type_symbol
_atom_site_label
_atom_site_fract_x
_atom_site_fract_y
_atom_site_fract_z
Si Si1 0.266311 0.181286 0.484420
Si Si2 0.613495 0.571580 0.734442
Si Si3 0.553822 0.800331 0.978426
O O1 0.248658 0.211017 0.168863
O O2 0.197383 0.104286 0.593638
O O3 0.358632 0.148204 0.530642
O O4 0.568249 0.500000 0.500000
O O5 0.576856 0.684712 0.839543
O O6 0.625434 0.500000 0.000000
O O7 0.500000 0.859834 0.750000
O O8 0.500000 0.786065 0.250000
#
# Coordination Sequence:
#
# PCOD9318101 Si02
#       3
#     8   8   8
#     4  10  20  38  58  78 110 154 196 220 258 336
#     4  11  22  37  58  85 115 147 184 230 280 331
#     4  11  22  37  58  85 115 147 184 230 280 331
#
# _framework density 24.011001
#
# number of rings (size 3 to 8) (size 9 to 14) (size 15 to 20)
#    0.000    1.333    0.000   10.000    0.000    2.667 
#    0.000    3.333    0.000    4.000    0.000    4.667 
#    0.000    0.000    0.000    0.000    0.000    0.000 
#
# Total GULP energy -67124.309988 kJ/mol
# GULP energy per Si atom -5593.692499 kJ/mol
# Density = 2.395635 g / cm^3
# Si number density = 24.011001 Si / 1000 Ang^3
#
#
#
# Elastic Constant Matrix: (Units=GPa)
#
#
# Indices 1 2 3 4 5 6 
#
# 1 167.2338 1.8446 2.4522 0.0000 0.0000 0.0000
# 2 1.8446 19.1818 4.2483 0.0000 0.0000 0.0000
# 3 2.4522 4.2483 106.5789 0.0000 0.0000 0.0000
# 4 0.0000 0.0000 0.0000 26.3179 0.0000 0.0000
# 5 0.0000 0.0000 0.0000 0.0000 52.2261 0.0000
# 6 0.0000 0.0000 0.0000 0.0000 0.0000 9.6370
#
#
#
# Elastic Compliance Matrix: (Units=1/GPa)
#
#
# Indices 1 2 3 4 5 6 
#
# 1 0.005987 -0.000550 -0.000116 0.000000 0.000000 0.000000
# 2 -0.000550 0.052648 -0.002086 0.000000 0.000000 0.000000
# 3 -0.000116 -0.002086 0.009469 0.000000 0.000000 0.000000
# 4 0.000000 0.000000 0.000000 0.037997 0.000000 0.000000
# 5 0.000000 0.000000 0.000000 0.000000 0.019148 0.000000
# 6 0.000000 0.000000 0.000000 0.000000 0.000000 0.103766
#
#
# Mechanical properties :
#
#
# Convention : Reuss Voigt Hill
#
# Bulk Modulus (GPa) = 15.97449 34.45386 25.21418
# Shear Modulus (GPa) = 19.57830 36.59951 28.08890
#
# Velocity S-wave (km/s) = 2.85860 3.90844 3.42400
# Velocity P-wave (km/s) = 4.19081 5.89476 5.11425
#
# Compressibility (1/GPa) = 0.06259980
#
# Stress axis : x y z
#
# Youngs Moduli (GPa) = 167.01689 18.99422 105.61301
#
# Poissons Ratio (x) = 0.01045 0.01223
# Poissons Ratio (y) = 0.09188 0.22030
# Poissons Ratio (z) = 0.01935 0.03962
#
# Static dielectric constant tensor:
#      x y z
#    x 1.988440 0.000000 0.000000 
#    y 0.000000 1.946940 0.000000 
#    z 0.000000 0.000000 1.893260 
# 
# From -- ./inp_files/1518.got.cif
#   From: 2010.05.17/outbox.cif.g08.bks.cpg/sg20_1_cif.got.tgz:1518.got - 2010.06.03 22:52:26.
