data_PCOD9318988
_publ_section_title
;
Structure prediction by ZEFSAII (Michael W. Deem and Ramdas Pophale) SiO2 
 PCOD9318988
Probable space group: C 2 2 21
;
_chemical_formula_sum "Si O2"
_cell_formula_units_Z 64
_cell_length_a 36.225458
_cell_length_b 7.380345
_cell_length_c 10.822171
_cell_angle_alpha 90.000000
_cell_angle_beta 90.000000
_cell_angle_gamma 90.000000
_cell_volume 2893.376439
_symmetry_space_group_name_H-M "C 2 2 21"
_symmetry_group_IT_number 20
_symmetry_cell_setting 'orthorhombic'
loop_
_space_group_symop_operation_xyz
x,y,z
-x,-y,1/2+z
x,-y,-z
-x,y,1/2-z
1/2+x,1/2+y,z
1/2-x,1/2-y,1/2+z
1/2+x,1/2-y,-z
1/2-x,1/2+y,1/2-z
loop_
_atom_site_type_symbol
_atom_site_label
_atom_site_fract_x
_atom_site_fract_y
_atom_site_fract_z
Si Si1 0.874507 0.170115 0.718918
Si Si2 0.532651 0.718874 0.342307
Si Si3 0.326467 0.690065 0.060188
Si Si4 0.387379 0.757754 0.235152
Si Si5 0.715332 0.238127 0.785931
Si Si6 0.701346 0.162107 0.319489
Si Si7 0.062444 0.852710 0.406492
Si Si8 0.844623 0.692609 0.534196
O O1 0.835282 0.241829 0.767073
O O2 0.908235 0.235754 0.811380
O O3 0.869211 0.218375 0.573593
O O4 0.880456 0.954331 0.731709
O O5 0.500000 0.775259 0.250000
O O6 0.570511 0.795621 0.288306
O O7 0.536541 0.497901 0.335683
O O8 0.537334 0.754223 0.491812
O O9 0.362145 0.789825 0.115903
O O10 0.299558 0.642512 0.173174
O O11 0.336777 0.500000 0.000000
O O12 0.305297 0.814333 0.964546
O O13 0.309460 0.705755 0.404798
O O14 0.371799 0.857408 0.353309
O O15 0.758750 0.250961 0.796642
O O16 0.704325 0.036795 0.739757
O O17 0.082542 0.000000 0.500000
O O18 0.827631 0.500000 0.500000
#
# Coordination Sequence:
#
# PCOD9318988 Si02
#       8
#     8   8   8   8   8   8   8   8
#     4  11  20  39  64  83 116 164 206 264 309 379
#     4   8  15  32  56  94 133 155 190 257 304 365
#     4  11  22  40  65  84 117 159 208 269 315 385
#     4  10  21  38  64  94 114 165 210 247 323 381
#     4  11  27  43  57  91 117 162 218 265 344 380
#     4  12  24  39  64  82 120 162 207 275 327 388
#     4   7  17  32  56  91 128 159 204 241 308 371
#     4  11  24  43  57  82 126 158 211 266 313 383
#
# _framework density 22.119485999999998
#
# number of rings (size 3 to 8) (size 9 to 14) (size 15 to 20)
#    0.750    1.000    2.500    2.250    5.250    0.500 
#    9.000    0.000    0.000    0.000    3.250    0.000 
#    0.000    0.000    0.000    0.000    0.000    0.000 
#
# Total GULP energy -178163.478321 kJ/mol
# GULP energy per Si atom -5567.608698 kJ/mol
# Density = 2.206914 g / cm^3
# Si number density = 22.119486 Si / 1000 Ang^3
#
#
#
# Elastic Constant Matrix: (Units=GPa)
#
#
# Indices 1 2 3 4 5 6 
#
# 1 141.4291 5.5432 59.8281 0.0000 0.0000 0.0000
# 2 5.5432 35.7439 10.2800 0.0000 0.0000 0.0000
# 3 59.8281 10.2800 132.7351 0.0000 0.0000 0.0000
# 4 0.0000 0.0000 0.0000 23.4907 0.0000 0.0000
# 5 0.0000 0.0000 0.0000 0.0000 26.9930 0.0000
# 6 0.0000 0.0000 0.0000 0.0000 0.0000 17.0963
#
#
#
# Elastic Compliance Matrix: (Units=1/GPa)
#
#
# Indices 1 2 3 4 5 6 
#
# 1 0.008738 -0.000227 -0.003921 0.000000 0.000000 0.000000
# 2 -0.000227 0.028620 -0.002114 0.000000 0.000000 0.000000
# 3 -0.003921 -0.002114 0.009465 0.000000 0.000000 0.000000
# 4 0.000000 0.000000 0.000000 0.042570 0.000000 0.000000
# 5 0.000000 0.000000 0.000000 0.000000 0.037047 0.000000
# 6 0.000000 0.000000 0.000000 0.000000 0.000000 0.058492
#
#
# Mechanical properties :
#
#
# Convention : Reuss Voigt Hill
#
# Bulk Modulus (GPa) = 29.15608 51.24565 40.20086
# Shear Modulus (GPa) = 23.93608 29.13312 26.53460
#
# Velocity S-wave (km/s) = 3.29314 3.63310 3.46729
# Velocity P-wave (km/s) = 5.26018 6.38883 5.85178
#
# Compressibility (1/GPa) = 0.03429817
#
# Stress axis : x y z
#
# Youngs Moduli (GPa) = 114.43887 34.94055 105.65388
#
# Poissons Ratio (x) = 0.00795 0.41427
# Poissons Ratio (y) = 0.02603 0.22336
# Poissons Ratio (z) = 0.44872 0.07387
#
# Static dielectric constant tensor:
#      x y z
#    x 1.782940 0.000000 0.000000 
#    y 0.000000 1.944360 0.000000 
#    z 0.000000 0.000000 1.977860 
# 
# From -- ./inp_files/17228.got.cif
#   From: 2010.05.17/outbox.cif.g08.bks.cpg/sg20_9_cif.got.tgz:17228.got - 2010.06.03 22:52:26.
