data_PCOD9318904
_publ_section_title
;
Structure prediction by ZEFSAII (Michael W. Deem and Ramdas Pophale) SiO2 
 PCOD9318904
Probable space group: C 2 2 21
;
_chemical_formula_sum "Si O2"
_cell_formula_units_Z 40
_cell_length_a 10.551034
_cell_length_b 9.494765
_cell_length_c 20.523686
_cell_angle_alpha 90.000000
_cell_angle_beta 90.000000
_cell_angle_gamma 90.000000
_cell_volume 2056.054415
_symmetry_space_group_name_H-M "C 2 2 21"
_symmetry_group_IT_number 20
_symmetry_cell_setting 'orthorhombic'
loop_
_space_group_symop_operation_xyz
x,y,z
-x,-y,1/2+z
x,-y,-z
-x,y,1/2-z
1/2+x,1/2+y,z
1/2-x,1/2-y,1/2+z
1/2+x,1/2-y,-z
1/2-x,1/2+y,1/2-z
loop_
_atom_site_type_symbol
_atom_site_label
_atom_site_fract_x
_atom_site_fract_y
_atom_site_fract_z
Si Si1 0.372052 0.552569 0.426903
Si Si2 0.292685 0.685926 0.236701
Si Si3 0.452728 0.332078 0.319111
Si Si4 0.516169 0.228438 0.844810
Si Si5 0.631059 0.062794 0.341670
O O1 0.381432 0.500000 0.500000
O O2 0.436052 0.440750 0.377431
O O3 0.438322 0.702248 0.411863
O O4 0.227305 0.564356 0.402027
O O5 0.183289 0.765060 0.197555
O O6 0.363852 0.766624 0.296001
O O7 0.406888 0.671099 0.185826
O O8 0.219199 0.563453 0.276192
O O9 0.500000 0.394540 0.250000
O O10 0.548072 0.204398 0.336325
O O11 0.457329 0.073621 0.845761
#
# Coordination Sequence:
#
# PCOD9318904 Si02
#       5
#     8   8   8   8   8
#     4  11  25  43  60  87 126 172 215 260 315 383
#     4   9  20  33  62  98 123 149 197 256 318 371
#     4  10  22  39  63  93 127 159 207 268 323 374
#     4  10  21  37  64  91 126 161 203 253 318 375
#     4  10  22  40  63  91 124 163 205 264 317 379
#
# _framework density 19.454737999999999
#
# number of rings (size 3 to 8) (size 9 to 14) (size 15 to 20)
#    0.000    2.000    2.000    0.000   14.000    1.600 
#    3.600    0.000    0.000    0.000    0.000    0.000 
#    0.000    0.000    0.000    0.000    0.000    0.000 
#
# Total GULP energy -111581.536956 kJ/mol
# GULP energy per Si atom -5579.076848 kJ/mol
# Density = 1.941046 g / cm^3
# Si number density = 19.454738 Si / 1000 Ang^3
#
#
#
# Elastic Constant Matrix: (Units=GPa)
#
#
# Indices 1 2 3 4 5 6 
#
# 1 99.8608 49.5643 34.9544 0.0000 0.0000 0.0000
# 2 49.5643 103.7876 38.4217 0.0000 0.0000 0.0000
# 3 34.9544 38.4217 105.2307 0.0000 0.0000 0.0000
# 4 0.0000 0.0000 0.0000 19.6084 0.0000 0.0000
# 5 0.0000 0.0000 0.0000 0.0000 13.1119 0.0000
# 6 0.0000 0.0000 0.0000 0.0000 0.0000 36.4288
#
#
#
# Elastic Compliance Matrix: (Units=1/GPa)
#
#
# Indices 1 2 3 4 5 6 
#
# 1 0.013668 -0.005604 -0.002494 0.000000 0.000000 0.000000
# 2 -0.005604 0.013439 -0.003045 0.000000 0.000000 0.000000
# 3 -0.002494 -0.003045 0.011443 0.000000 0.000000 0.000000
# 4 0.000000 0.000000 0.000000 0.050999 0.000000 0.000000
# 5 0.000000 0.000000 0.000000 0.000000 0.076266 0.000000
# 6 0.000000 0.000000 0.000000 0.000000 0.000000 0.027451
#
#
# Mechanical properties :
#
#
# Convention : Reuss Voigt Hill
#
# Bulk Modulus (GPa) = 61.48712 61.64000 61.56356
# Shear Modulus (GPa) = 22.62708 26.22573 24.42640
#
# Velocity S-wave (km/s) = 3.41407 3.67555 3.54722
# Velocity P-wave (km/s) = 6.87132 7.05446 6.96349
#
# Compressibility (1/GPa) = 0.01626357
#
# Stress axis : x y z
#
# Youngs Moduli (GPa) = 73.16106 74.41217 87.38793
#
# Poissons Ratio (x) = 0.41702 0.21795
# Poissons Ratio (y) = 0.41001 0.26611
# Poissons Ratio (z) = 0.18247 0.22660
#
# Static dielectric constant tensor:
#      x y z
#    x 1.704530 0.000000 0.000000 
#    y 0.000000 1.750240 0.000000 
#    z 0.000000 0.000000 1.650150 
# 
# From -- ./inp_files/27090.got.cif
#   From: 2010.05.17/outbox.cif.g08.bks.cpg/sg20_14_cif.got.tgz:27090.got - 2010.06.03 22:52:26.
