data_PCOD9318270
_publ_section_title
;
Structure prediction by ZEFSAII (Michael W. Deem and Ramdas Pophale) SiO2 
 PCOD9318270
Probable space group: C 2 2 21
;
_chemical_formula_sum "Si O2"
_cell_formula_units_Z 48
_cell_length_a 20.041599
_cell_length_b 7.202031
_cell_length_c 17.123001
_cell_angle_alpha 90.000000
_cell_angle_beta 90.000000
_cell_angle_gamma 90.000000
_cell_volume 2471.537685
_symmetry_space_group_name_H-M "C 2 2 21"
_symmetry_group_IT_number 20
_symmetry_cell_setting 'orthorhombic'
loop_
_space_group_symop_operation_xyz
x,y,z
-x,-y,1/2+z
x,-y,-z
-x,y,1/2-z
1/2+x,1/2+y,z
1/2-x,1/2-y,1/2+z
1/2+x,1/2-y,-z
1/2-x,1/2+y,1/2-z
loop_
_atom_site_type_symbol
_atom_site_label
_atom_site_fract_x
_atom_site_fract_y
_atom_site_fract_z
Si Si1 0.300963 0.087748 0.685290
Si Si2 0.336399 0.432272 0.785325
Si Si3 0.389125 0.829753 0.775541
Si Si4 0.437202 0.983093 0.372342
Si Si5 0.962843 0.250183 0.930934
Si Si6 0.453485 0.677911 0.104117
O O1 0.310262 0.293766 0.719031
O O2 0.358493 0.059864 0.620108
O O3 0.226716 0.017980 0.667133
O O4 0.324780 0.954798 0.757165
O O5 0.373194 0.616731 0.754610
O O6 0.390807 0.324743 0.837788
O O7 0.415974 0.835364 0.863459
O O8 0.438469 0.914005 0.711372
O O9 0.484253 0.803064 0.369699
O O10 0.469576 0.130857 0.430806
O O11 0.974602 0.037062 0.906244
O O12 0.933510 0.248303 0.017717
#
# Coordination Sequence:
#
# PCOD9318270 Si02
#       6
#     8   8   8   8   8   8
#     4  10  21  34  59  89 120 153 202 259 316 355
#     4  11  20  39  58  90 123 165 202 260 312 385
#     4   9  21  34  59  89 122 153 208 258 312 361
#     4  10  21  35  59  94 117 152 204 266 304 365
#     4  10  20  39  56  88 125 161 198 262 308 377
#     4  10  23  36  63  85 124 163 211 246 320 375
#
# _framework density 19.421109000000001
#
# number of rings (size 3 to 8) (size 9 to 14) (size 15 to 20)
#    1.000    1.000    1.667    2.000    4.667    0.000 
#    0.000    0.000   14.667    0.000    4.333    0.000 
#    0.000    0.000    0.000    0.000    0.000    0.000 
#
# Total GULP energy -133622.736911 kJ/mol
# GULP energy per Si atom -5567.614038 kJ/mol
# Density = 1.937691 g / cm^3
# Si number density = 19.421109 Si / 1000 Ang^3
#
#
#
# Elastic Constant Matrix: (Units=GPa)
#
#
# Indices 1 2 3 4 5 6 
#
# 1 67.0168 12.1018 12.3594 0.0000 0.0000 0.0000
# 2 12.1018 60.9748 21.6439 0.0000 0.0000 0.0000
# 3 12.3594 21.6439 39.9890 0.0000 0.0000 0.0000
# 4 0.0000 0.0000 0.0000 28.2651 0.0000 0.0000
# 5 0.0000 0.0000 0.0000 0.0000 10.1333 0.0000
# 6 0.0000 0.0000 0.0000 0.0000 0.0000 33.9916
#
#
#
# Elastic Compliance Matrix: (Units=1/GPa)
#
#
# Indices 1 2 3 4 5 6 
#
# 1 0.015974 -0.001755 -0.003987 0.000000 0.000000 0.000000
# 2 -0.001755 0.020493 -0.010549 0.000000 0.000000 0.000000
# 3 -0.003987 -0.010549 0.031949 0.000000 0.000000 0.000000
# 4 0.000000 0.000000 0.000000 0.035379 0.000000 0.000000
# 5 0.000000 0.000000 0.000000 0.000000 0.098684 0.000000
# 6 0.000000 0.000000 0.000000 0.000000 0.000000 0.029419
#
#
# Mechanical properties :
#
#
# Convention : Reuss Voigt Hill
#
# Bulk Modulus (GPa) = 27.90737 28.91010 28.40873
# Shear Modulus (GPa) = 18.08800 22.60304 20.34552
#
# Velocity S-wave (km/s) = 3.05513 3.41521 3.24017
# Velocity P-wave (km/s) = 5.18130 5.51994 5.35330
#
# Compressibility (1/GPa) = 0.03583283
#
# Stress axis : x y z
#
# Youngs Moduli (GPa) = 62.60224 48.79666 31.29989
#
# Poissons Ratio (x) = 0.08564 0.12480
# Poissons Ratio (y) = 0.10987 0.33020
# Poissons Ratio (z) = 0.24960 0.51478
#
# Static dielectric constant tensor:
#      x y z
#    x 1.730420 0.000000 0.000000 
#    y 0.000000 1.726100 0.000000 
#    z 0.000000 0.000000 1.699500 
# 
# From -- ./inp_files/25425.got.cif
#   From: 2010.05.17/outbox.cif.g08.bks.cpg/sg20_13_cif.got.tgz:25425.got - 2010.06.03 22:52:26.
