data_PCOD9318174
_publ_section_title
;
Structure prediction by ZEFSAII (Michael W. Deem and Ramdas Pophale) SiO2 
 PCOD9318174
Probable space group: C 2 2 21
;
_chemical_formula_sum "Si O2"
_cell_formula_units_Z 60
_cell_length_a 5.160336
_cell_length_b 18.112827
_cell_length_c 25.684541
_cell_angle_alpha 90.000000
_cell_angle_beta 90.000000
_cell_angle_gamma 90.000000
_cell_volume 2400.689696
_symmetry_space_group_name_H-M "C 2 2 21"
_symmetry_group_IT_number 20
_symmetry_cell_setting 'orthorhombic'
loop_
_space_group_symop_operation_xyz
x,y,z
-x,-y,1/2+z
x,-y,-z
-x,y,1/2-z
1/2+x,1/2+y,z
1/2-x,1/2-y,1/2+z
1/2+x,1/2-y,-z
1/2-x,1/2+y,1/2-z
loop_
_atom_site_type_symbol
_atom_site_label
_atom_site_fract_x
_atom_site_fract_y
_atom_site_fract_z
Si Si1 0.249821 0.437189 0.266398
Si Si2 0.592075 0.063556 0.618496
Si Si3 0.706365 0.799638 0.995888
Si Si4 0.969100 0.731733 0.648253
Si Si5 0.000000 0.801179 0.750000
Si Si6 0.328771 0.086611 0.296813
Si Si7 0.888704 0.052626 0.949155
Si Si8 0.520951 0.817511 0.884112
O O1 0.500000 0.394043 0.250000
O O2 0.214660 0.462107 0.325744
O O3 0.243523 0.506214 0.224970
O O4 0.000000 0.394071 0.250000
O O5 0.496708 0.146521 0.632530
O O6 0.334400 0.028731 0.592307
O O7 0.830255 0.058004 0.578149
O O8 0.745624 0.723628 0.115088
O O9 0.804135 0.865571 0.032188
O O10 0.947493 0.744128 0.986792
O O11 0.618623 0.834893 0.941419
O O12 0.262752 0.761807 0.639542
O O13 0.873305 0.747126 0.707374
O O14 0.919835 0.862675 0.793453
O O15 0.500000 0.120200 0.250000
O O16 0.474109 0.108971 0.348998
O O17 0.896586 0.000000 0.000000
#
# Coordination Sequence:
#
# PCOD9318174 Si02
#       8
#     8   8   8   8   4   8   8   8
#     4  11  25  43  70 102 143 194 248 297 358 439
#     4  12  26  48  73 101 150 198 247 300 373 457
#     4  12  25  46  78 110 143 187 252 311 374 445
#     4  11  23  40  66 100 144 181 232 282 367 430
#     4  10  20  38  62  98 142 182 218 288 352 426
#     4  10  20  40  62  99 144 176 227 298 350 430
#     4  12  28  52  75 109 150 197 249 321 381 446
#     4  11  23  39  69 105 136 187 229 303 371 430
#
# _framework density 24.992818
#
# number of rings (size 3 to 8) (size 9 to 14) (size 15 to 20)
#    0.000    0.800    2.000    6.000    0.933    3.200 
#    0.000    0.000    0.000    0.000    0.000    0.000 
#    0.000    0.000    0.000    0.000    0.000    0.000 
#
# Total GULP energy -167372.224516 kJ/mol
# GULP energy per Si atom -5579.074151 kJ/mol
# Density = 2.493593 g / cm^3
# Si number density = 24.992818 Si / 1000 Ang^3
#
#
#
# Elastic Constant Matrix: (Units=GPa)
#
#
# Indices 1 2 3 4 5 6 
#
# 1 150.9954 24.1524 22.5615 0.0000 0.0000 0.0000
# 2 24.1524 103.7156 12.0459 0.0000 0.0000 0.0000
# 3 22.5615 12.0459 100.2770 0.0000 0.0000 0.0000
# 4 0.0000 0.0000 0.0000 32.4133 0.0000 0.0000
# 5 0.0000 0.0000 0.0000 0.0000 44.4700 0.0000
# 6 0.0000 0.0000 0.0000 0.0000 0.0000 10.3025
#
#
#
# Elastic Compliance Matrix: (Units=1/GPa)
#
#
# Indices 1 2 3 4 5 6 
#
# 1 0.007071 -0.001483 -0.001413 0.000000 0.000000 0.000000
# 2 -0.001483 0.010089 -0.000878 0.000000 0.000000 0.000000
# 3 -0.001413 -0.000878 0.010396 0.000000 0.000000 0.000000
# 4 0.000000 0.000000 0.000000 0.030852 0.000000 0.000000
# 5 0.000000 0.000000 0.000000 0.000000 0.022487 0.000000
# 6 0.000000 0.000000 0.000000 0.000000 0.000000 0.097064
#
#
# Mechanical properties :
#
#
# Convention : Reuss Voigt Hill
#
# Bulk Modulus (GPa) = 49.97940 52.50083 51.24012
# Shear Modulus (GPa) = 26.01790 37.18570 31.60180
#
# Velocity S-wave (km/s) = 3.22998 3.86146 3.55975
# Velocity P-wave (km/s) = 5.82677 6.39790 6.11900
#
# Compressibility (1/GPa) = 0.02000824
#
# Stress axis : x y z
#
# Youngs Moduli (GPa) = 141.42356 99.11773 96.19297
#
# Poissons Ratio (x) = 0.14695 0.13590
# Poissons Ratio (y) = 0.20966 0.08450
# Poissons Ratio (z) = 0.19981 0.08707
#
# Static dielectric constant tensor:
#      x y z
#    x 2.504160 0.000000 0.000000 
#    y 0.000000 1.975890 0.000000 
#    z 0.000000 0.000000 2.130090 
# 
# From -- ./inp_files/28473.got.cif
#   From: 2010.05.17/outbox.cif.g08.bks.cpg/sg20_15_cif.got.tgz:28473.got - 2010.06.03 22:52:26.
