data_PCOD9318155
_publ_section_title
;
Structure prediction by ZEFSAII (Michael W. Deem and Ramdas Pophale) SiO2 
 PCOD9318155
Probable space group: C 2 2 21
;
_chemical_formula_sum "Si O2"
_cell_formula_units_Z 24
_cell_length_a 14.675048
_cell_length_b 4.897067
_cell_length_c 14.764099
_cell_angle_alpha 90.000000
_cell_angle_beta 90.000000
_cell_angle_gamma 90.000000
_cell_volume 1061.017446
_symmetry_space_group_name_H-M "C 2 2 21"
_symmetry_group_IT_number 20
_symmetry_cell_setting 'orthorhombic'
loop_
_space_group_symop_operation_xyz
x,y,z
-x,-y,1/2+z
x,-y,-z
-x,y,1/2-z
1/2+x,1/2+y,z
1/2-x,1/2-y,1/2+z
1/2+x,1/2-y,-z
1/2-x,1/2+y,1/2-z
loop_
_atom_site_type_symbol
_atom_site_label
_atom_site_fract_x
_atom_site_fract_y
_atom_site_fract_z
Si Si1 0.191689 0.255204 0.754761
Si Si2 0.557236 0.402033 0.405489
Si Si3 0.045474 0.406845 0.150768
O O1 0.251225 0.497478 0.708839
O O2 0.125226 0.115058 0.680273
O O3 0.139342 0.433972 0.831006
O O4 0.599427 0.500000 0.500000
O O5 0.471717 0.603671 0.384681
O O6 0.516180 0.102764 0.409394
O O7 0.000000 0.406166 0.250000
#
# Coordination Sequence:
#
# PCOD9318155 Si02
#       3
#     8   8   8
#     4  11  22  39  64  92 124 161 203 251 309 372
#     4  11  22  39  63  90 121 161 209 258 299 351
#     4  10  20  38  62  86 115 160 208 241 291 373
#
# _framework density 22.619797999999999
#
# number of rings (size 3 to 8) (size 9 to 14) (size 15 to 20)
#    0.000    1.333    0.000   10.000    0.000    0.000 
#    0.000    6.667    0.000    0.000    0.000    0.000 
#    0.000    0.000    0.000    0.000    0.000    0.000 
#
# Total GULP energy -66891.865291 kJ/mol
# GULP energy per Si atom -5574.322108 kJ/mol
# Density = 2.256831 g / cm^3
# Si number density = 22.619798 Si / 1000 Ang^3
#
#
#
# Elastic Constant Matrix: (Units=GPa)
#
#
# Indices 1 2 3 4 5 6 
#
# 1 57.9048 24.4209 8.2348 0.0000 0.0000 0.0000
# 2 24.4209 140.3698 23.5299 0.0000 0.0000 0.0000
# 3 8.2348 23.5299 72.9374 0.0000 0.0000 0.0000
# 4 0.0000 0.0000 0.0000 36.4844 0.0000 0.0000
# 5 0.0000 0.0000 0.0000 0.0000 4.2202 0.0000
# 6 0.0000 0.0000 0.0000 0.0000 0.0000 57.3898
#
#
#
# Elastic Compliance Matrix: (Units=1/GPa)
#
#
# Indices 1 2 3 4 5 6 
#
# 1 0.018724 -0.003069 -0.001124 0.000000 0.000000 0.000000
# 2 -0.003069 0.008034 -0.002245 0.000000 0.000000 0.000000
# 3 -0.001124 -0.002245 0.014562 0.000000 0.000000 0.000000
# 4 0.000000 0.000000 0.000000 0.027409 0.000000 0.000000
# 5 0.000000 0.000000 0.000000 0.000000 0.236953 0.000000
# 6 0.000000 0.000000 0.000000 0.000000 0.000000 0.017425
#
#
# Mechanical properties :
#
#
# Convention : Reuss Voigt Hill
#
# Bulk Modulus (GPa) = 35.15783 42.62037 38.88910
# Shear Modulus (GPa) = 14.47327 33.95396 24.21361
#
# Velocity S-wave (km/s) = 2.53227 3.87857 3.27534
# Velocity P-wave (km/s) = 4.91188 6.24025 5.61548
#
# Compressibility (1/GPa) = 0.02844317
#
# Stress axis : x y z
#
# Youngs Moduli (GPa) = 53.40757 124.46500 68.67350
#
# Poissons Ratio (x) = 0.38200 0.07718
# Poissons Ratio (y) = 0.16391 0.15420
# Poissons Ratio (z) = 0.06002 0.27948
#
# Static dielectric constant tensor:
#      x y z
#    x 1.956370 0.000000 0.000000 
#    y 0.000000 1.804600 0.000000 
#    z 0.000000 0.000000 1.512060 
# 
# From -- ./inp_files/11768.got.cif
#   From: 2010.05.17/outbox.cif.g08.bks.cpg/sg20_6_cif.got.tgz:11768.got - 2010.06.03 22:52:26.
