data_PCOD9318802
_publ_section_title
;
Structure prediction by ZEFSAII (Michael W. Deem and Ramdas Pophale) SiO2 
 PCOD9318802
Probable space group: C 2 2 21
;
_chemical_formula_sum "Si O2"
_cell_formula_units_Z 60
_cell_length_a 24.712397
_cell_length_b 14.714526
_cell_length_c 7.925964
_cell_angle_alpha 90.000000
_cell_angle_beta 90.000000
_cell_angle_gamma 90.000000
_cell_volume 2882.127865
_symmetry_space_group_name_H-M "C 2 2 21"
_symmetry_group_IT_number 20
_symmetry_cell_setting 'orthorhombic'
loop_
_space_group_symop_operation_xyz
x,y,z
-x,-y,1/2+z
x,-y,-z
-x,y,1/2-z
1/2+x,1/2+y,z
1/2-x,1/2-y,1/2+z
1/2+x,1/2-y,-z
1/2-x,1/2+y,1/2-z
loop_
_atom_site_type_symbol
_atom_site_label
_atom_site_fract_x
_atom_site_fract_y
_atom_site_fract_z
Si Si1 0.229697 0.858252 0.250147
Si Si2 0.023186 0.896880 0.934964
Si Si3 0.623417 0.690338 0.923169
Si Si4 0.152224 0.614200 0.159521
Si Si5 0.555692 0.946067 0.669734
Si Si6 0.567717 0.265101 0.421656
Si Si7 0.743818 0.000000 0.000000
Si Si8 0.680617 0.213031 0.503952
O O1 0.182802 0.849351 0.109555
O O2 0.226949 0.955866 0.340312
O O3 0.215206 0.788933 0.402893
O O4 0.285495 0.830239 0.156723
O O5 0.000000 0.899585 0.750000
O O6 0.084215 0.859139 0.948395
O O7 0.983143 0.824706 0.024956
O O8 0.021276 0.000000 0.000000
O O9 0.631055 0.798413 0.942507
O O10 0.592769 0.685948 0.742509
O O11 0.103534 0.545380 0.194040
O O12 0.168680 0.643261 0.350442
O O13 0.203990 0.576671 0.068953
O O14 0.500000 0.978565 0.750000
O O15 0.550854 0.838124 0.625900
O O16 0.568275 0.000000 0.500000
O O17 0.620530 0.253111 0.543962
#
# Coordination Sequence:
#
# PCOD9318802 Si02
#       8
#     8   8   8   8   8   8   4   8
#     4  10  21  39  64  95 129 168 227 264 329 388
#     4  12  25  43  68  98 124 164 218 276 337 400
#     4   9  20  45  64  86 129 172 207 265 334 389
#     4   9  22  39  62  87 130 174 207 267 330 379
#     4  10  21  36  57  89 126 167 211 256 317 390
#     4   9  20  41  66  86 124 169 206 265 328 381
#     4  12  24  36  62  96 130 172 222 280 312 398
#     4   9  20  41  65  88 125 177 208 267 326 398
#
# _framework density 20.817951999999998
#
# number of rings (size 3 to 8) (size 9 to 14) (size 15 to 20)
#    0.000    2.667    0.000    4.400    4.667    2.667 
#   12.000    0.000    0.000    0.000    0.000    0.000 
#    0.000    0.000    0.000    0.000    0.000    0.000 
#
# Total GULP energy -167275.539285 kJ/mol
# GULP energy per Si atom -5575.851309 kJ/mol
# Density = 2.077057 g / cm^3
# Si number density = 20.817952 Si / 1000 Ang^3
#
#
#
# Elastic Constant Matrix: (Units=GPa)
#
#
# Indices 1 2 3 4 5 6 
#
# 1 92.2748 20.6368 19.0938 0.0000 0.0000 0.0000
# 2 20.6368 41.7382 20.5018 0.0000 0.0000 0.0000
# 3 19.0938 20.5018 40.4694 0.0000 0.0000 0.0000
# 4 0.0000 0.0000 0.0000 15.9246 0.0000 0.0000
# 5 0.0000 0.0000 0.0000 0.0000 24.6392 0.0000
# 6 0.0000 0.0000 0.0000 0.0000 0.0000 34.4318
#
#
#
# Elastic Compliance Matrix: (Units=1/GPa)
#
#
# Indices 1 2 3 4 5 6 
#
# 1 0.012589 -0.004403 -0.003709 0.000000 0.000000 0.000000
# 2 -0.004403 0.033435 -0.014861 0.000000 0.000000 0.000000
# 3 -0.003709 -0.014861 0.033989 0.000000 0.000000 0.000000
# 4 0.000000 0.000000 0.000000 0.062796 0.000000 0.000000
# 5 0.000000 0.000000 0.000000 0.000000 0.040586 0.000000
# 6 0.000000 0.000000 0.000000 0.000000 0.000000 0.029043
#
#
# Mechanical properties :
#
#
# Convention : Reuss Voigt Hill
#
# Bulk Modulus (GPa) = 29.35370 32.77192 31.06281
# Shear Modulus (GPa) = 18.53634 22.61578 20.57606
#
# Velocity S-wave (km/s) = 2.98720 3.29957 3.14726
# Velocity P-wave (km/s) = 5.10182 5.50387 5.30665
#
# Compressibility (1/GPa) = 0.03406725
#
# Stress axis : x y z
#
# Youngs Moduli (GPa) = 79.43202 29.90841 29.42145
#
# Poissons Ratio (x) = 0.13167 0.10914
# Poissons Ratio (y) = 0.34970 0.43724
# Poissons Ratio (z) = 0.29465 0.44447
#
# Static dielectric constant tensor:
#      x y z
#    x 1.790470 0.000000 0.000000 
#    y 0.000000 1.841190 0.000000 
#    z 0.000000 0.000000 1.678460 
# 
# From -- ./inp_files/10762.got.cif
#   From: 2010.05.17/outbox.cif.g08.bks.cpg/sg20_6_cif.got.tgz:10762.got - 2010.06.03 22:52:26.
