data_PCOD9318257
_publ_section_title
;
Structure prediction by ZEFSAII (Michael W. Deem and Ramdas Pophale) SiO2 
 PCOD9318257
Probable space group: C 2 2 21
;
_chemical_formula_sum "Si O2"
_cell_formula_units_Z 48
_cell_length_a 8.409208
_cell_length_b 19.036392
_cell_length_c 14.087875
_cell_angle_alpha 90.000000
_cell_angle_beta 90.000000
_cell_angle_gamma 90.000000
_cell_volume 2255.200835
_symmetry_space_group_name_H-M "C 2 2 21"
_symmetry_group_IT_number 20
_symmetry_cell_setting 'orthorhombic'
loop_
_space_group_symop_operation_xyz
x,y,z
-x,-y,1/2+z
x,-y,-z
-x,y,1/2-z
1/2+x,1/2+y,z
1/2-x,1/2-y,1/2+z
1/2+x,1/2-y,-z
1/2-x,1/2+y,1/2-z
loop_
_atom_site_type_symbol
_atom_site_label
_atom_site_fract_x
_atom_site_fract_y
_atom_site_fract_z
Si Si1 0.500000 0.844969 0.250000
Si Si2 0.538413 0.726223 0.098676
Si Si3 0.041775 0.000000 0.000000
Si Si4 0.573203 0.041886 0.097291
Si Si5 0.702628 0.067914 0.632321
Si Si6 0.378077 0.825432 0.964059
Si Si7 0.605896 0.587808 0.340938
O O1 0.546876 0.794399 0.164313
O O2 0.343616 0.892131 0.228539
O O3 0.713609 0.692196 0.089525
O O4 0.416081 0.671326 0.146355
O O5 0.467987 0.755286 0.999280
O O6 0.949534 0.060083 0.055789
O O7 0.142346 0.967554 0.087656
O O8 0.499845 0.119715 0.083191
O O9 0.720223 0.054258 0.167136
O O10 0.429871 0.992609 0.128982
O O11 0.623898 0.000000 0.000000
O O12 0.674023 0.129176 0.555245
O O13 0.500000 0.567724 0.250000
#
# Coordination Sequence:
#
# PCOD9318257 Si02
#       7
#     4   8   4   8   8   8   8
#     4  10  24  38  66  90 136 164 222 270 328 392
#     4  11  21  42  62  96 128 173 216 274 329 399
#     4  12  22  44  68  94 132 170 220 282 338 384
#     4  10  20  41  64  96 122 171 222 266 330 392
#     4  10  20  40  65  91 123 170 213 269 332 394
#     4  10  20  38  70  87 125 173 220 257 334 395
#     4  12  25  40  65  97 137 169 222 280 330 396
#
# _framework density 21.284134999999999
#
# number of rings (size 3 to 8) (size 9 to 14) (size 15 to 20)
#    0.000    1.333    5.833    1.000    2.333    0.000 
#    0.000    0.000    0.000    2.000    0.000    0.000 
#    0.000    0.000    0.000    0.000    0.000    0.000 
#
# Total GULP energy -133666.795285 kJ/mol
# GULP energy per Si atom -5569.449804 kJ/mol
# Density = 2.123569 g / cm^3
# Si number density = 21.284135 Si / 1000 Ang^3
#
#
#
# Elastic Constant Matrix: (Units=GPa)
#
#
# Indices 1 2 3 4 5 6 
#
# 1 49.5061 7.8554 5.2781 0.0000 0.0000 0.0000
# 2 7.8554 66.6403 16.6074 0.0000 0.0000 0.0000
# 3 5.2781 16.6074 38.9219 0.0000 0.0000 0.0000
# 4 0.0000 0.0000 0.0000 35.6485 0.0000 0.0000
# 5 0.0000 0.0000 0.0000 0.0000 26.2499 0.0000
# 6 0.0000 0.0000 0.0000 0.0000 0.0000 -3.1456
#
#
#
# Elastic Compliance Matrix: (Units=1/GPa)
#
#
# Indices 1 2 3 4 5 6 
#
# 1 0.020720 -0.001949 -0.001978 0.000000 0.000000 0.000000
# 2 -0.001949 0.016975 -0.006979 0.000000 0.000000 0.000000
# 3 -0.001978 -0.006979 0.028938 0.000000 0.000000 0.000000
# 4 0.000000 0.000000 0.000000 0.028052 0.000000 0.000000
# 5 0.000000 0.000000 0.000000 0.000000 0.038095 0.000000
# 6 0.000000 0.000000 0.000000 0.000000 0.000000 -0.317902
#
#
# Mechanical properties :
#
#
# Convention : Reuss Voigt Hill
#
# Bulk Modulus (GPa) = 22.31098 23.83891 23.07494
# Shear Modulus (GPa) = -33.69952 20.10573 -6.79690
#
# Velocity S-wave (km/s) = -3.98341 3.07682 -1.78895
# Velocity P-wave (km/s) = 3.26367 4.88335 2.56862
#
# Compressibility (1/GPa) = 0.04482097
#
# Stress axis : x y z
#
# Youngs Moduli (GPa) = 48.26318 58.91061 34.55621
#
# Poissons Ratio (x) = 0.11484 0.06835
# Poissons Ratio (y) = 0.09409 0.24115
# Poissons Ratio (z) = 0.09546 0.41111
#
# Static dielectric constant tensor:
#      x y z
#    x 1.818900 0.000000 0.000000 
#    y 0.000000 1.833160 0.000000 
#    z 0.000000 0.000000 1.859260 
# 
# From -- ./inp_files/18952.got.cif
#   From: 2010.05.17/outbox.cif.g08.bks.cpg/sg20_10_cif.got.tgz:18952.got - 2010.06.03 22:52:26.
