data_PCOD9318667
_publ_section_title
;
Structure prediction by ZEFSAII (Michael W. Deem and Ramdas Pophale) SiO2 
 PCOD9318667
Probable space group: C 2 2 21
;
_chemical_formula_sum "Si O2"
_cell_formula_units_Z 60
_cell_length_a 14.195726
_cell_length_b 10.590667
_cell_length_c 16.204196
_cell_angle_alpha 90.000000
_cell_angle_beta 90.000000
_cell_angle_gamma 90.000000
_cell_volume 2436.174588
_symmetry_space_group_name_H-M "C 2 2 21"
_symmetry_group_IT_number 20
_symmetry_cell_setting 'orthorhombic'
loop_
_space_group_symop_operation_xyz
x,y,z
-x,-y,1/2+z
x,-y,-z
-x,y,1/2-z
1/2+x,1/2+y,z
1/2-x,1/2-y,1/2+z
1/2+x,1/2-y,-z
1/2-x,1/2+y,1/2-z
loop_
_atom_site_type_symbol
_atom_site_label
_atom_site_fract_x
_atom_site_fract_y
_atom_site_fract_z
Si Si1 0.670552 0.625327 0.056609
Si Si2 0.874794 0.379991 0.866622
Si Si3 0.155842 0.352031 0.285607
Si Si4 0.855820 0.744391 0.311117
Si Si5 0.119455 0.000000 0.500000
Si Si6 0.401809 0.592167 0.263308
Si Si7 0.020240 0.224050 0.951347
Si Si8 0.237355 0.504781 0.848425
O O1 0.778245 0.643984 0.083766
O O2 0.615109 0.606753 0.140936
O O3 0.666030 0.500000 0.000000
O O4 0.613312 0.732185 0.007376
O O5 0.880351 0.522293 0.830400
O O6 0.874298 0.289207 0.784962
O O7 0.958041 0.345002 0.928723
O O8 0.256659 0.314248 0.323265
O O9 0.094188 0.226194 0.285763
O O10 0.178801 0.379638 0.188941
O O11 0.936915 0.812517 0.361683
O O12 0.836522 0.608778 0.353656
O O13 0.191596 0.011442 0.576309
O O14 0.049841 0.879699 0.491155
O O15 0.500000 0.525251 0.250000
O O16 0.308874 0.528519 0.226670
#
# Coordination Sequence:
#
# PCOD9318667 Si02
#       8
#     8   8   8   8   4   8   8   8
#     4  12  25  50  72 107 152 200 246 311 380 443
#     4  11  24  48  75 106 144 193 254 306 373 448
#     4  10  20  43  76  98 135 198 238 303 367 440
#     4  10  22  45  73 101 135 189 250 301 358 452
#     4  12  26  42  64 112 146 184 238 324 362 436
#     4  11  24  44  71 107 145 190 256 305 370 454
#     4  12  27  41  71 107 143 183 245 309 372 432
#     4  10  23  41  69  98 142 193 242 296 379 430
#
# _framework density 24.628776999999999
#
# number of rings (size 3 to 8) (size 9 to 14) (size 15 to 20)
#    0.000    1.067    4.667    2.800    1.867    2.133 
#    2.400    0.000    1.467    0.000    0.000    0.000 
#    0.000    0.000    0.000    0.000    0.000    0.000 
#
# Total GULP energy -167790.905343 kJ/mol
# GULP energy per Si atom -5593.030178 kJ/mol
# Density = 2.457272 g / cm^3
# Si number density = 24.628777 Si / 1000 Ang^3
#
#
#
# Elastic Constant Matrix: (Units=GPa)
#
#
# Indices 1 2 3 4 5 6 
#
# 1 89.9220 -2.6484 26.9688 0.0000 0.0000 0.0000
# 2 -2.6484 49.8305 -7.1940 0.0000 0.0000 0.0000
# 3 26.9688 -7.1940 93.5992 0.0000 0.0000 0.0000
# 4 0.0000 0.0000 0.0000 29.4016 0.0000 0.0000
# 5 0.0000 0.0000 0.0000 0.0000 36.7548 0.0000
# 6 0.0000 0.0000 0.0000 0.0000 0.0000 -19.2853
#
#
#
# Elastic Compliance Matrix: (Units=1/GPa)
#
#
# Indices 1 2 3 4 5 6 
#
# 1 0.012174 0.000142 -0.003497 0.000000 0.000000 0.000000
# 2 0.000142 0.020295 0.001519 0.000000 0.000000 0.000000
# 3 -0.003497 0.001519 0.011808 0.000000 0.000000 0.000000
# 4 0.000000 0.000000 0.000000 0.034012 0.000000 0.000000
# 5 0.000000 0.000000 0.000000 0.000000 0.027207 0.000000
# 6 0.000000 0.000000 0.000000 0.000000 0.000000 -0.051853
#
#
# Mechanical properties :
#
#
# Convention : Reuss Voigt Hill
#
# Bulk Modulus (GPa) = 24.62724 29.73383 27.18054
# Shear Modulus (GPa) = 70.57266 23.78924 47.18095
#
# Velocity S-wave (km/s) = 5.35880 3.11128 4.38160
# Velocity P-wave (km/s) = 6.95055 5.00058 6.05458
#
# Compressibility (1/GPa) = 0.04060544
#
# Stress axis : x y z
#
# Youngs Moduli (GPa) = 82.14477 49.27349 84.68768
#
# Poissons Ratio (x) = -0.00701 0.29612
# Poissons Ratio (y) = -0.01168 -0.12863
# Poissons Ratio (z) = 0.28723 -0.07484
#
# Static dielectric constant tensor:
#      x y z
#    x 1.936340 0.000000 0.000000 
#    y 0.000000 2.030460 0.000000 
#    z 0.000000 0.000000 1.974080 
# 
# From -- ./inp_files/24949.got.cif
#   From: 2010.05.17/outbox.cif.g08.bks.cpg/sg20_13_cif.got.tgz:24949.got - 2010.06.03 22:52:26.
