data_PCOD9318732
_publ_section_title
;
Structure prediction by ZEFSAII (Michael W. Deem and Ramdas Pophale) SiO2 
 PCOD9318732
Probable space group: C 2 2 21
;
_chemical_formula_sum "Si O2"
_cell_formula_units_Z 64
_cell_length_a 21.020755
_cell_length_b 13.533687
_cell_length_c 10.353754
_cell_angle_alpha 90.000000
_cell_angle_beta 90.000000
_cell_angle_gamma 90.000000
_cell_volume 2945.522067
_symmetry_space_group_name_H-M "C 2 2 21"
_symmetry_group_IT_number 20
_symmetry_cell_setting 'orthorhombic'
loop_
_space_group_symop_operation_xyz
x,y,z
-x,-y,1/2+z
x,-y,-z
-x,y,1/2-z
1/2+x,1/2+y,z
1/2-x,1/2-y,1/2+z
1/2+x,1/2-y,-z
1/2-x,1/2+y,1/2-z
loop_
_atom_site_type_symbol
_atom_site_label
_atom_site_fract_x
_atom_site_fract_y
_atom_site_fract_z
Si Si1 0.755428 0.129360 0.229444
Si Si2 0.832706 0.797467 0.377773
Si Si3 0.318941 0.956200 0.361551
Si Si4 0.636167 0.258247 0.838928
Si Si5 0.065944 0.482609 0.676243
Si Si6 0.581964 0.806842 0.402950
Si Si7 0.565035 0.748965 0.669582
Si Si8 0.286307 0.887422 0.016344
O O1 0.713200 0.201623 0.140703
O O2 0.827905 0.158757 0.254790
O O3 0.728493 0.146201 0.372821
O O4 0.742284 0.018838 0.181277
O O5 0.873035 0.788329 0.511515
O O6 0.878963 0.801604 0.253974
O O7 0.779473 0.881224 0.404313
O O8 0.317629 0.838211 0.354347
O O9 0.337163 0.000000 0.500000
O O10 0.375196 0.984323 0.264712
O O11 0.577650 0.226210 0.747213
O O12 0.056371 0.579906 0.585033
O O13 0.080651 0.366313 0.659928
O O14 0.000000 0.479175 0.750000
O O15 0.558706 0.732165 0.514649
O O16 0.657933 0.822059 0.425595
O O17 0.500000 0.735406 0.750000
O O18 0.308840 0.000000 0.000000
#
# Coordination Sequence:
#
# PCOD9318732 Si02
#       8
#     8   8   8   8   8   8   8   8
#     4  11  20  34  52  80 112 149 182 229 276 338
#     4  11  21  37  54  80 116 145 186 232 286 332
#     4  11  19  34  53  73 111 152 186 221 278 328
#     4  10  22  34  53  80 110 150 183 228 282 337
#     4  10  21  32  47  75 110 150 195 225 258 320
#     4  11  20  34  55  79 109 149 188 225 277 328
#     4  11  22  37  55  78 111 151 191 233 273 330
#     4  11  21  35  58  83 114 146 187 230 286 347
#
# _framework density 21.727896999999999
#
# number of rings (size 3 to 8) (size 9 to 14) (size 15 to 20)
#    0.000    1.250    5.000    2.625    0.000    4.000 
#    0.000    0.000    0.000    0.000    0.000    3.500 
#    0.000    0.000    0.000    0.000    0.000    0.000 
#
# Total GULP energy -178279.317051 kJ/mol
# GULP energy per Si atom -5571.228658 kJ/mol
# Density = 2.167844 g / cm^3
# Si number density = 21.727897 Si / 1000 Ang^3
#
#
#
# Elastic Constant Matrix: (Units=GPa)
#
#
# Indices 1 2 3 4 5 6 
#
# 1 38.3930 -1.5655 -6.2404 0.0000 0.0000 0.0000
# 2 -1.5655 19.9391 -6.2111 0.0000 0.0000 0.0000
# 3 -6.2404 -6.2111 92.2802 0.0000 0.0000 0.0000
# 4 0.0000 0.0000 0.0000 47.8444 0.0000 0.0000
# 5 0.0000 0.0000 0.0000 0.0000 11.3752 0.0000
# 6 0.0000 0.0000 0.0000 0.0000 0.0000 151.8656
#
#
#
# Elastic Compliance Matrix: (Units=1/GPa)
#
#
# Indices 1 2 3 4 5 6 
#
# 1 0.026477 0.002693 0.001972 0.000000 0.000000 0.000000
# 2 0.002693 0.051501 0.003648 0.000000 0.000000 0.000000
# 3 0.001972 0.003648 0.011215 0.000000 0.000000 0.000000
# 4 0.000000 0.000000 0.000000 0.020901 0.000000 0.000000
# 5 0.000000 0.000000 0.000000 0.000000 0.087910 0.000000
# 6 0.000000 0.000000 0.000000 0.000000 0.000000 0.006585
#
#
# Mechanical properties :
#
#
# Convention : Reuss Voigt Hill
#
# Bulk Modulus (GPa) = 9.45006 13.61980 11.53493
# Shear Modulus (GPa) = 22.39786 53.19233 37.79510
#
# Velocity S-wave (km/s) = 3.21414 4.95321 4.17522
# Velocity P-wave (km/s) = 4.25829 6.24454 5.34450
#
# Compressibility (1/GPa) = 0.10581944
#
# Stress axis : x y z
#
# Youngs Moduli (GPa) = 37.76903 19.41720 89.16259
#
# Poissons Ratio (x) = -0.05229 -0.17580
# Poissons Ratio (y) = -0.10171 -0.32531
# Poissons Ratio (z) = -0.07447 -0.07084
#
# Static dielectric constant tensor:
#      x y z
#    x 1.795230 0.000000 0.000000 
#    y 0.000000 1.838980 0.000000 
#    z 0.000000 0.000000 1.798030 
# 
# From -- ./inp_files/16447.got.cif
#   From: 2010.05.17/outbox.cif.g08.bks.cpg/sg20_9_cif.got.tgz:16447.got - 2010.06.03 22:52:26.
