data_PCOD9318515
_publ_section_title
;
Structure prediction by ZEFSAII (Michael W. Deem and Ramdas Pophale) SiO2 
 PCOD9318515
Probable space group: C 2 2 21
;
_chemical_formula_sum "Si O2"
_cell_formula_units_Z 56
_cell_length_a 13.999343
_cell_length_b 12.513963
_cell_length_c 14.425674
_cell_angle_alpha 90.000000
_cell_angle_beta 90.000000
_cell_angle_gamma 90.000000
_cell_volume 2527.194306
_symmetry_space_group_name_H-M "C 2 2 21"
_symmetry_group_IT_number 20
_symmetry_cell_setting 'orthorhombic'
loop_
_space_group_symop_operation_xyz
x,y,z
-x,-y,1/2+z
x,-y,-z
-x,y,1/2-z
1/2+x,1/2+y,z
1/2-x,1/2-y,1/2+z
1/2+x,1/2-y,-z
1/2-x,1/2+y,1/2-z
loop_
_atom_site_type_symbol
_atom_site_label
_atom_site_fract_x
_atom_site_fract_y
_atom_site_fract_z
Si Si1 0.626116 0.639786 0.330393
Si Si2 0.893286 0.462355 0.715880
Si Si3 0.652950 0.247115 0.479048
Si Si4 0.728111 0.386802 0.849452
Si Si5 0.257782 0.048784 0.595990
Si Si6 0.455875 0.510331 0.606717
Si Si7 0.028484 0.261874 0.857669
O O1 0.638046 0.726351 0.412854
O O2 0.667885 0.677650 0.230721
O O3 0.696476 0.541877 0.354022
O O4 0.525311 0.575855 0.342098
O O5 0.824114 0.429226 0.800150
O O6 0.847452 0.562776 0.662807
O O7 0.895887 0.359449 0.644683
O O8 0.000000 0.485041 0.750000
O O9 0.737418 0.170295 0.443661
O O10 0.686655 0.355910 0.427620
O O11 0.554204 0.211797 0.431346
O O12 0.652158 0.475246 0.876726
O O13 0.291952 0.000000 0.500000
O O14 0.485228 0.500000 0.500000
O O15 0.454943 0.635946 0.629346
O O16 0.000000 0.267310 0.750000
#
# Coordination Sequence:
#
# PCOD9318515 Si02
#       7
#     8   8   8   8   8   8   8
#     4  10  20  41  63  91 136 164 210 283 334 371
#     4  10  21  38  59  85 122 167 204 260 320 386
#     4  11  20  41  65  93 122 170 221 259 322 411
#     4  11  24  38  62  99 134 163 217 280 326 385
#     4   9  19  36  62  85 115 159 209 255 310 385
#     4  12  23  39  66 100 129 167 215 286 339 385
#     4  11  20  37  68  87 116 167 220 256 321 394
#
# _framework density 22.158961999999999
#
# number of rings (size 3 to 8) (size 9 to 14) (size 15 to 20)
#    0.000    1.429    5.714    1.714    2.000    3.429 
#    0.000    2.143    0.000    0.000    0.000    0.000 
#    0.000    0.000    0.000    0.000    0.000    0.000 
#
# Total GULP energy -155943.528807 kJ/mol
# GULP energy per Si atom -5569.411743 kJ/mol
# Density = 2.210853 g / cm^3
# Si number density = 22.158962 Si / 1000 Ang^3
#
#
#
# Elastic Constant Matrix: (Units=GPa)
#
#
# Indices 1 2 3 4 5 6 
#
# 1 116.4346 15.9791 16.1187 0.0000 0.0000 0.0000
# 2 15.9791 26.9092 3.8589 0.0000 0.0000 0.0000
# 3 16.1187 3.8589 58.7980 0.0000 0.0000 0.0000
# 4 0.0000 0.0000 0.0000 21.5698 0.0000 0.0000
# 5 0.0000 0.0000 0.0000 0.0000 27.3501 0.0000
# 6 0.0000 0.0000 0.0000 0.0000 0.0000 28.6404
#
#
#
# Elastic Compliance Matrix: (Units=1/GPa)
#
#
# Indices 1 2 3 4 5 6 
#
# 1 0.009647 -0.005400 -0.002290 0.000000 0.000000 0.000000
# 2 -0.005400 0.040538 -0.001180 0.000000 0.000000 0.000000
# 3 -0.002290 -0.001180 0.017713 0.000000 0.000000 0.000000
# 4 0.000000 0.000000 0.000000 0.046361 0.000000 0.000000
# 5 0.000000 0.000000 0.000000 0.000000 0.036563 0.000000
# 6 0.000000 0.000000 0.000000 0.000000 0.000000 0.034916
#
#
# Mechanical properties :
#
#
# Convention : Reuss Voigt Hill
#
# Bulk Modulus (GPa) = 19.93749 30.45055 25.19402
# Shear Modulus (GPa) = 22.70703 26.59107 24.64905
#
# Velocity S-wave (km/s) = 3.20462 3.46788 3.33885
# Velocity P-wave (km/s) = 4.76548 5.45954 5.12428
#
# Compressibility (1/GPa) = 0.05015676
#
# Stress axis : x y z
#
# Youngs Moduli (GPa) = 103.66347 24.66830 56.45683
#
# Poissons Ratio (x) = 0.13321 0.12929
# Poissons Ratio (y) = 0.55977 0.06663
# Poissons Ratio (z) = 0.23740 0.02911
#
# Static dielectric constant tensor:
#      x y z
#    x 1.868980 0.000000 0.000000 
#    y 0.000000 1.941550 0.000000 
#    z 0.000000 0.000000 1.853840 
# 
# From -- ./inp_files/20872.got.cif
#   From: 2010.05.17/outbox.cif.g08.bks.cpg/sg20_11_cif.got.tgz:20872.got - 2010.06.03 22:52:26.
