data_PCOD9318798
_publ_section_title
;
Structure prediction by ZEFSAII (Michael W. Deem and Ramdas Pophale) SiO2 
 PCOD9318798
Probable space group: C 2 2 21
;
_chemical_formula_sum "Si O2"
_cell_formula_units_Z 24
_cell_length_a 17.528420
_cell_length_b 4.972224
_cell_length_c 10.613025
_cell_angle_alpha 90.000000
_cell_angle_beta 90.000000
_cell_angle_gamma 90.000000
_cell_volume 924.980641
_symmetry_space_group_name_H-M "C 2 2 21"
_symmetry_group_IT_number 20
_symmetry_cell_setting 'orthorhombic'
loop_
_space_group_symop_operation_xyz
x,y,z
-x,-y,1/2+z
x,-y,-z
-x,y,1/2-z
1/2+x,1/2+y,z
1/2-x,1/2-y,1/2+z
1/2+x,1/2-y,-z
1/2-x,1/2+y,1/2-z
loop_
_atom_site_type_symbol
_atom_site_label
_atom_site_fract_x
_atom_site_fract_y
_atom_site_fract_z
Si Si1 0.411498 0.199578 0.608852
Si Si2 0.695212 0.456670 0.250000
Si Si3 0.411498 0.800422 0.108852
O O1 0.359031 0.459022 0.633655
O O2 0.500000 0.267202 0.584926
O O3 0.411022 0.067715 0.750000
O O4 0.385036 0.000000 0.500000
O O5 0.736307 0.174454 0.250000
O O6 0.640969 0.540977 0.366345
O O7 0.385036 0.000000 0.000000
#
# Coordination Sequence:
#
# PCOD9318798 Si02
#       3
#     8   8   8
#     4   8  16  34  56  79 109 147 188 227 273 331
#     4  10  21  36  57  84 116 146 184 232 283 334
#     4   8  16  34  56  79 109 147 188 227 273 331
#
# _framework density 25.946486
#
# number of rings (size 3 to 8) (size 9 to 14) (size 15 to 20)
#    2.000    1.333    0.000    0.000    0.000    2.667 
#    0.000    6.667    0.000    8.000    0.000    0.000 
#    0.000    0.000    0.000    0.000    0.000    0.000 
#
# Total GULP energy -67032.518055 kJ/mol
# GULP energy per Si atom -5586.043171 kJ/mol
# Density = 2.588743 g / cm^3
# Si number density = 25.946486 Si / 1000 Ang^3
#
#
#
# Elastic Constant Matrix: (Units=GPa)
#
#
# Indices 1 2 3 4 5 6 
#
# 1 119.1378 40.7300 -36.1806 0.0000 0.0000 0.0000
# 2 40.7300 90.4838 42.0140 0.0000 0.0000 0.0000
# 3 -36.1806 42.0140 158.9930 0.0000 0.0000 0.0000
# 4 0.0000 0.0000 0.0000 32.6511 0.0000 0.0000
# 5 0.0000 0.0000 0.0000 0.0000 -304.2359 0.0000
# 6 0.0000 0.0000 0.0000 0.0000 0.0000 -56.9040
#
#
#
# Elastic Compliance Matrix: (Units=1/GPa)
#
#
# Indices 1 2 3 4 5 6 
#
# 1 0.012651 -0.008015 0.004997 0.000000 0.000000 0.000000
# 2 -0.008015 0.017675 -0.006495 0.000000 0.000000 0.000000
# 3 0.004997 -0.006495 0.009143 0.000000 0.000000 0.000000
# 4 0.000000 0.000000 0.000000 0.030627 0.000000 0.000000
# 5 0.000000 0.000000 0.000000 0.000000 -0.003287 0.000000
# 6 0.000000 0.000000 0.000000 0.000000 0.000000 -0.017573
#
#
# Mechanical properties :
#
#
# Convention : Reuss Voigt Hill
#
# Bulk Modulus (GPa) = 48.91419 51.30459 50.10939
# Shear Modulus (GPa) = 66.59956 -44.22767 11.18594
#
# Velocity S-wave (km/s) = 5.07186 -4.13313 2.07859
# Velocity P-wave (km/s) = 7.29323 1.72070 5.01151
#
# Compressibility (1/GPa) = 0.02044396
#
# Stress axis : x y z
#
# Youngs Moduli (GPa) = 79.04375 56.57672 109.37484
#
# Poissons Ratio (x) = 0.45346 -0.54653
# Poissons Ratio (y) = 0.63353 0.71034
# Poissons Ratio (z) = -0.39497 0.36744
#
# Static dielectric constant tensor:
#      x y z
#    x 2.003470 0.000000 0.000000 
#    y 0.000000 2.063120 0.000000 
#    z 0.000000 0.000000 2.196110 
# 
# From -- ./inp_files/11760.got.cif
#   From: 2010.05.17/outbox.cif.g08.bks.cpg/sg20_6_cif.got.tgz:11760.got - 2010.06.03 22:52:26.
