data_PCOD9318015
_publ_section_title
;
Structure prediction by ZEFSAII (Michael W. Deem and Ramdas Pophale) SiO2 
 PCOD9318015
Probable space group: C 2 2 21
;
_chemical_formula_sum "Si O2"
_cell_formula_units_Z 56
_cell_length_a 21.436874
_cell_length_b 14.208923
_cell_length_c 8.413076
_cell_angle_alpha 90.000000
_cell_angle_beta 90.000000
_cell_angle_gamma 90.000000
_cell_volume 2562.579976
_symmetry_space_group_name_H-M "C 2 2 21"
_symmetry_group_IT_number 20
_symmetry_cell_setting 'orthorhombic'
loop_
_space_group_symop_operation_xyz
x,y,z
-x,-y,1/2+z
x,-y,-z
-x,y,1/2-z
1/2+x,1/2+y,z
1/2-x,1/2-y,1/2+z
1/2+x,1/2-y,-z
1/2-x,1/2+y,1/2-z
loop_
_atom_site_type_symbol
_atom_site_label
_atom_site_fract_x
_atom_site_fract_y
_atom_site_fract_z
Si Si1 0.764764 0.387812 0.503285
Si Si2 0.193181 0.891452 0.826945
Si Si3 0.531871 0.896054 0.021873
Si Si4 0.114930 0.391868 0.486389
Si Si5 0.070267 0.251539 0.757179
Si Si6 0.631302 0.792704 0.183507
Si Si7 0.682914 0.387580 0.187025
O O1 0.776441 0.500000 0.500000
O O2 0.740180 0.367606 0.681587
O O3 0.826437 0.330654 0.460288
O O4 0.719278 0.365477 0.352456
O O5 0.137317 0.817876 0.802599
O O6 0.173354 0.999385 0.806362
O O7 0.214299 0.875437 0.010661
O O8 0.550307 0.838208 0.867943
O O9 0.458832 0.906662 0.046754
O O10 0.563272 0.832122 0.153623
O O11 0.559154 0.000000 0.000000
O O12 0.139495 0.500000 0.500000
O O13 0.107305 0.309800 0.619015
O O14 0.152022 0.344834 0.342671
O O15 0.119330 0.172998 0.813682
O O16 0.000000 0.205056 0.750000
#
# Coordination Sequence:
#
# PCOD9318015 Si02
#       7
#     8   8   8   8   8   8   8
#     4  10  24  43  62  92 128 166 216 267 325 381
#     4  10  23  41  67  89 128 170 212 264 330 372
#     4  10  20  37  61  88 132 169 205 263 328 387
#     4  10  22  39  59  94 133 171 207 263 334 385
#     4  10  20  38  65  92 124 171 220 264 320 394
#     4  12  22  38  62  95 121 168 220 264 310 396
#     4  10  21  46  66  89 130 174 208 270 333 375
#
# _framework density 21.852976000000002
#
# number of rings (size 3 to 8) (size 9 to 14) (size 15 to 20)
#    0.000    1.714    1.429    2.571    2.000    2.286 
#    7.714    1.429    9.429    0.000    0.000    0.000 
#    0.000    0.000    0.000    0.000    0.000    0.000 
#
# Total GULP energy -155917.363509 kJ/mol
# GULP energy per Si atom -5568.477268 kJ/mol
# Density = 2.180324 g / cm^3
# Si number density = 21.852976 Si / 1000 Ang^3
#
#
#
# Elastic Constant Matrix: (Units=GPa)
#
#
# Indices 1 2 3 4 5 6 
#
# 1 66.8453 36.6106 35.9169 0.0000 0.0000 0.0000
# 2 36.6106 80.4637 44.9923 0.0000 0.0000 0.0000
# 3 35.9169 44.9923 136.8940 0.0000 0.0000 0.0000
# 4 0.0000 0.0000 0.0000 45.4669 0.0000 0.0000
# 5 0.0000 0.0000 0.0000 0.0000 32.8388 0.0000
# 6 0.0000 0.0000 0.0000 0.0000 0.0000 11.9265
#
#
#
# Elastic Compliance Matrix: (Units=1/GPa)
#
#
# Indices 1 2 3 4 5 6 
#
# 1 0.020811 -0.007860 -0.002877 0.000000 0.000000 0.000000
# 2 -0.007860 0.018195 -0.003918 0.000000 0.000000 0.000000
# 3 -0.002877 -0.003918 0.009347 0.000000 0.000000 0.000000
# 4 0.000000 0.000000 0.000000 0.021994 0.000000 0.000000
# 5 0.000000 0.000000 0.000000 0.000000 0.030452 0.000000
# 6 0.000000 0.000000 0.000000 0.000000 0.000000 0.083847
#
#
# Mechanical properties :
#
#
# Convention : Reuss Voigt Hill
#
# Bulk Modulus (GPa) = 52.51121 57.69363 55.10242
# Shear Modulus (GPa) = 22.69601 29.15863 25.92732
#
# Velocity S-wave (km/s) = 3.22619 3.65678 3.44822
# Velocity P-wave (km/s) = 6.16111 6.65489 6.41275
#
# Compressibility (1/GPa) = 0.01904355
#
# Stress axis : x y z
#
# Youngs Moduli (GPa) = 48.05249 54.96017 106.98242
#
# Poissons Ratio (x) = 0.43200 0.30776
# Poissons Ratio (y) = 0.37770 0.41913
# Poissons Ratio (z) = 0.13823 0.21532
#
# Static dielectric constant tensor:
#      x y z
#    x 1.829580 0.000000 0.000000 
#    y 0.000000 1.765100 0.000000 
#    z 0.000000 0.000000 1.992690 
# 
# From -- ./inp_files/10205.got.cif
#   From: 2010.05.17/outbox.cif.g08.bks.cpg/sg20_6_cif.got.tgz:10205.got - 2010.06.03 22:52:26.
