data_PCOD9318821
_publ_section_title
;
Structure prediction by ZEFSAII (Michael W. Deem and Ramdas Pophale) SiO2 
 PCOD9318821
Probable space group: C 2 2 21
;
_chemical_formula_sum "Si O2"
_cell_formula_units_Z 52
_cell_length_a 16.046270
_cell_length_b 5.349022
_cell_length_c 28.965647
_cell_angle_alpha 90.000000
_cell_angle_beta 90.000000
_cell_angle_gamma 90.000000
_cell_volume 2486.175105
_symmetry_space_group_name_H-M "C 2 2 21"
_symmetry_group_IT_number 20
_symmetry_cell_setting 'orthorhombic'
loop_
_space_group_symop_operation_xyz
x,y,z
-x,-y,1/2+z
x,-y,-z
-x,y,1/2-z
1/2+x,1/2+y,z
1/2-x,1/2-y,1/2+z
1/2+x,1/2-y,-z
1/2-x,1/2+y,1/2-z
loop_
_atom_site_type_symbol
_atom_site_label
_atom_site_fract_x
_atom_site_fract_y
_atom_site_fract_z
Si Si1 0.440818 0.165999 0.633239
Si Si2 0.432971 0.607007 0.456373
Si Si3 0.171264 0.878691 0.277923
Si Si4 0.297130 0.548554 0.324096
Si Si5 0.191027 0.721217 0.092472
Si Si6 0.066348 0.621243 0.710420
Si Si7 0.696775 0.000000 0.000000
O O1 0.479562 0.260309 0.585153
O O2 0.391712 0.378396 0.662365
O O3 0.513498 0.064969 0.664726
O O4 0.365345 0.984627 0.618392
O O5 0.482244 0.500000 0.500000
O O6 0.378283 0.398114 0.431067
O O7 0.364618 0.792669 0.478290
O O8 0.243905 0.796993 0.313171
O O9 0.113700 0.632793 0.277251
O O10 0.202727 0.911992 0.225311
O O11 0.124652 0.133288 0.292490
O O12 0.264856 0.386163 0.367684
O O13 0.238837 0.610433 0.047080
O O14 0.000000 0.679099 0.750000
#
# Coordination Sequence:
#
# PCOD9318821 Si02
#       7
#     8   8   8   8   8   8   4
#     4  10  21  36  61  86 122 160 207 256 314 370
#     4   8  15  29  53  89 120 150 197 257 313 362
#     4  12  27  41  62  86 129 164 217 257 318 370
#     4  11  24  40  58  88 119 169 209 262 313 379
#     4   9  18  32  59  88 124 157 203 262 317 372
#     4  12  25  42  59  89 123 167 206 262 308 373
#     4   8  14  30  52  92 126 148 196 264 322 366
#
# _framework density 20.915664
#
# number of rings (size 3 to 8) (size 9 to 14) (size 15 to 20)
#    0.000    1.846    1.538    2.308    8.615    0.000 
#    0.000    0.000    0.000    0.000    2.000    0.000 
#    0.000    0.000    0.000    0.000    0.000    0.000 
#
# Total GULP energy -144867.746879 kJ/mol
# GULP energy per Si atom -5571.836418 kJ/mol
# Density = 2.086806 g / cm^3
# Si number density = 20.915664 Si / 1000 Ang^3
#
#
#
# Elastic Constant Matrix: (Units=GPa)
#
#
# Indices 1 2 3 4 5 6 
#
# 1 41.4396 20.5760 29.1700 0.0000 0.0000 0.0000
# 2 20.5760 84.6638 39.4625 0.0000 0.0000 0.0000
# 3 29.1700 39.4625 146.4946 0.0000 0.0000 0.0000
# 4 0.0000 0.0000 0.0000 49.5258 0.0000 0.0000
# 5 0.0000 0.0000 0.0000 0.0000 14.2163 0.0000
# 6 0.0000 0.0000 0.0000 0.0000 0.0000 2.4996
#
#
#
# Elastic Compliance Matrix: (Units=1/GPa)
#
#
# Indices 1 2 3 4 5 6 
#
# 1 0.029899 -0.005136 -0.004570 0.000000 0.000000 0.000000
# 2 -0.005136 0.014390 -0.002854 0.000000 0.000000 0.000000
# 3 -0.004570 -0.002854 0.008505 0.000000 0.000000 0.000000
# 4 0.000000 0.000000 0.000000 0.020191 0.000000 0.000000
# 5 0.000000 0.000000 0.000000 0.000000 0.070342 0.000000
# 6 0.000000 0.000000 0.000000 0.000000 0.000000 0.400060
#
#
# Mechanical properties :
#
#
# Convention : Reuss Voigt Hill
#
# Bulk Modulus (GPa) = 36.13513 50.11277 43.12395
# Shear Modulus (GPa) = 8.65455 25.47432 17.06443
#
# Velocity S-wave (km/s) = 2.03637 3.49371 2.85944
# Velocity P-wave (km/s) = 4.77945 6.34713 5.61824
#
# Compressibility (1/GPa) = 0.02767390
#
# Stress axis : x y z
#
# Youngs Moduli (GPa) = 33.44642 69.49383 117.58042
#
# Poissons Ratio (x) = 0.35694 0.53732
# Poissons Ratio (y) = 0.17179 0.33552
# Poissons Ratio (z) = 0.15284 0.19831
#
# Static dielectric constant tensor:
#      x y z
#    x 1.719500 0.000000 0.000000 
#    y 0.000000 1.941290 0.000000 
#    z 0.000000 0.000000 1.978620 
# 
# From -- ./inp_files/29911.got.cif
#   From: 2010.05.17/outbox.cif.g08.bks.cpg/sg20_15_cif.got.tgz:29911.got - 2010.06.03 22:52:26.
