data_PCOD9318678
_publ_section_title
;
Structure prediction by ZEFSAII (Michael W. Deem and Ramdas Pophale) SiO2 
 PCOD9318678
Probable space group: C 2 2 21
;
_chemical_formula_sum "Si O2"
_cell_formula_units_Z 24
_cell_length_a 6.234415
_cell_length_b 22.674935
_cell_length_c 7.433633
_cell_angle_alpha 90.000000
_cell_angle_beta 90.000000
_cell_angle_gamma 90.000000
_cell_volume 1050.855194
_symmetry_space_group_name_H-M "C 2 2 21"
_symmetry_group_IT_number 20
_symmetry_cell_setting 'orthorhombic'
loop_
_space_group_symop_operation_xyz
x,y,z
-x,-y,1/2+z
x,-y,-z
-x,y,1/2-z
1/2+x,1/2+y,z
1/2-x,1/2-y,1/2+z
1/2+x,1/2-y,-z
1/2-x,1/2+y,1/2-z
loop_
_atom_site_type_symbol
_atom_site_label
_atom_site_fract_x
_atom_site_fract_y
_atom_site_fract_z
Si Si1 0.658691 0.174551 0.476022
Si Si2 0.000000 0.767926 0.750000
Si Si3 0.120600 0.432968 0.061237
Si Si4 0.000000 0.122704 0.750000
O O1 0.530561 0.227237 0.573477
O O2 0.507492 0.117429 0.453068
O O3 0.834792 0.159364 0.630382
O O4 0.790215 0.193984 0.299948
O O5 0.363351 0.414731 0.106404
O O6 0.000000 0.431128 0.250000
O O7 0.108373 0.500000 0.000000
#
# Coordination Sequence:
#
# PCOD9318678 Si02
#       4
#     8   4   8   4
#     4  11  24  44  68 104 138 192 234 298 352 421
#     4  12  24  44  75  98 149 186 242 292 358 420
#     4  10  23  44  69  98 142 182 238 293 355 422
#     4  10  20  44  67 100 135 186 242 292 352 420
#
# _framework density 22.838542
#
# number of rings (size 3 to 8) (size 9 to 14) (size 15 to 20)
#    0.000    1.333    5.000    2.000    0.000    8.000 
#    0.000    1.667    0.000    0.000    0.000    0.000 
#    0.000    0.000    0.000    0.000    0.000    0.000 
#
# Total GULP energy -67097.010898 kJ/mol
# GULP energy per Si atom -5591.417575 kJ/mol
# Density = 2.278656 g / cm^3
# Si number density = 22.838542 Si / 1000 Ang^3
#
#
#
# Elastic Constant Matrix: (Units=GPa)
#
#
# Indices 1 2 3 4 5 6 
#
# 1 107.0792 78.9995 20.1418 0.0000 0.0000 0.0000
# 2 78.9995 180.0399 48.9168 0.0000 0.0000 0.0000
# 3 20.1418 48.9168 80.4302 0.0000 0.0000 0.0000
# 4 0.0000 0.0000 0.0000 45.3614 0.0000 0.0000
# 5 0.0000 0.0000 0.0000 0.0000 49.7068 0.0000
# 6 0.0000 0.0000 0.0000 0.0000 0.0000 24.2896
#
#
#
# Elastic Compliance Matrix: (Units=1/GPa)
#
#
# Indices 1 2 3 4 5 6 
#
# 1 0.013814 -0.006135 0.000272 0.000000 0.000000 0.000000
# 2 -0.006135 0.009379 -0.004168 0.000000 0.000000 0.000000
# 3 0.000272 -0.004168 0.014900 0.000000 0.000000 0.000000
# 4 0.000000 0.000000 0.000000 0.022045 0.000000 0.000000
# 5 0.000000 0.000000 0.000000 0.000000 0.020118 0.000000
# 6 0.000000 0.000000 0.000000 0.000000 0.000000 0.041170
#
#
# Mechanical properties :
#
#
# Convention : Reuss Voigt Hill
#
# Bulk Modulus (GPa) = 55.46076 73.74061 64.60069
# Shear Modulus (GPa) = 33.89874 38.50430 36.20152
#
# Velocity S-wave (km/s) = 3.85681 4.11047 3.98566
# Velocity P-wave (km/s) = 6.64604 7.40850 7.03760
#
# Compressibility (1/GPa) = 0.01803076
#
# Stress axis : x y z
#
# Youngs Moduli (GPa) = 72.38907 106.62309 67.11539
#
# Poissons Ratio (x) = 0.65418 -0.01826
# Poissons Ratio (y) = 0.44414 0.27971
# Poissons Ratio (z) = -0.01969 0.44436
#
# Static dielectric constant tensor:
#      x y z
#    x 1.970580 0.000000 0.000000 
#    y 0.000000 1.897470 0.000000 
#    z 0.000000 0.000000 1.889130 
# 
# From -- ./inp_files/4977.got.cif
#   From: 2010.05.17/outbox.cif.g08.bks.cpg/sg20_3_cif.got.tgz:4977.got - 2010.06.03 22:52:26.
