data_PCOD9318561
_publ_section_title
;
Structure prediction by ZEFSAII (Michael W. Deem and Ramdas Pophale) SiO2 
 PCOD9318561
Probable space group: C 2 2 21
;
_chemical_formula_sum "Si O2"
_cell_formula_units_Z 52
_cell_length_a 5.648883
_cell_length_b 20.921020
_cell_length_c 18.139989
_cell_angle_alpha 90.000000
_cell_angle_beta 90.000000
_cell_angle_gamma 90.000000
_cell_volume 2143.791051
_symmetry_space_group_name_H-M "C 2 2 21"
_symmetry_group_IT_number 20
_symmetry_cell_setting 'orthorhombic'
loop_
_space_group_symop_operation_xyz
x,y,z
-x,-y,1/2+z
x,-y,-z
-x,y,1/2-z
1/2+x,1/2+y,z
1/2-x,1/2-y,1/2+z
1/2+x,1/2-y,-z
1/2-x,1/2+y,1/2-z
loop_
_atom_site_type_symbol
_atom_site_label
_atom_site_fract_x
_atom_site_fract_y
_atom_site_fract_z
Si Si1 0.771885 0.249027 0.407580
Si Si2 0.500000 0.125259 0.750000
Si Si3 0.614278 0.488371 0.861355
Si Si4 0.529718 0.071964 0.588255
Si Si5 0.193742 0.000000 0.500000
Si Si6 0.742588 0.642497 0.210369
Si Si7 0.000000 0.104885 0.750000
Si Si8 0.275189 0.302193 0.427736
O O1 0.738399 0.184102 0.363243
O O2 0.534877 0.290874 0.393734
O O3 0.780923 0.234382 0.494499
O O4 0.029170 0.279315 0.388049
O O5 0.469001 0.086414 0.673378
O O6 0.767923 0.149880 0.744883
O O7 0.850119 0.503486 0.907217
O O8 0.680097 0.430701 0.808515
O O9 0.538647 0.552535 0.816284
O O10 0.430291 0.475089 0.925581
O O11 0.718778 0.123554 0.561195
O O12 0.321194 0.063510 0.531667
O O13 0.500000 0.666850 0.250000
O O14 0.000000 0.646448 0.250000
#
# Coordination Sequence:
#
# PCOD9318561 Si02
#       8
#     8   4   8   8   4   8   4   8
#     4  10  24  48  74 103 137 191 247 302 361 426
#     4  10  22  42  64  93 144 185 230 272 362 428
#     4  11  26  42  67 110 149 192 237 305 373 452
#     4  11  26  43  70 109 145 193 239 302 369 448
#     4  12  26  42  70 114 150 190 256 298 362 470
#     4  12  28  47  78 106 150 196 245 311 368 445
#     4  10  20  42  62  87 146 183 226 266 360 432
#     4  10  24  47  75 102 144 186 242 307 363 423
#
# _framework density 24.256095999999999
#
# number of rings (size 3 to 8) (size 9 to 14) (size 15 to 20)
#    0.000    1.231    2.308    1.385   12.923    2.462 
#    4.154    0.000    0.000    0.000    0.000    0.000 
#    0.000    0.000    0.000    0.000    0.000    0.000 
#
# Total GULP energy -144979.626711 kJ/mol
# GULP energy per Si atom -5576.139489 kJ/mol
# Density = 2.420089 g / cm^3
# Si number density = 24.256096 Si / 1000 Ang^3
#
#
#
# Elastic Constant Matrix: (Units=GPa)
#
#
# Indices 1 2 3 4 5 6 
#
# 1 174.9174 21.8542 49.7312 0.0000 0.0000 0.0000
# 2 21.8542 36.9489 3.7880 0.0000 0.0000 0.0000
# 3 49.7312 3.7880 51.8483 0.0000 0.0000 0.0000
# 4 0.0000 0.0000 0.0000 36.8966 0.0000 0.0000
# 5 0.0000 0.0000 0.0000 0.0000 44.8129 0.0000
# 6 0.0000 0.0000 0.0000 0.0000 0.0000 23.2467
#
#
#
# Elastic Compliance Matrix: (Units=1/GPa)
#
#
# Indices 1 2 3 4 5 6 
#
# 1 0.008463 -0.004205 -0.007810 0.000000 0.000000 0.000000
# 2 -0.004205 0.029358 0.001888 0.000000 0.000000 0.000000
# 3 -0.007810 0.001888 0.026640 0.000000 0.000000 0.000000
# 4 0.000000 0.000000 0.000000 0.027103 0.000000 0.000000
# 5 0.000000 0.000000 0.000000 0.000000 0.022315 0.000000
# 6 0.000000 0.000000 0.000000 0.000000 0.000000 0.043017
#
#
# Mechanical properties :
#
#
# Convention : Reuss Voigt Hill
#
# Bulk Modulus (GPa) = 22.62052 46.05127 34.33589
# Shear Modulus (GPa) = 26.05731 33.54732 29.80231
#
# Velocity S-wave (km/s) = 3.28114 3.72297 3.50902
# Velocity P-wave (km/s) = 4.86831 6.12432 5.53208
#
# Compressibility (1/GPa) = 0.04420765
#
# Stress axis : x y z
#
# Youngs Moduli (GPa) = 118.16371 34.06241 37.53723
#
# Poissons Ratio (x) = 0.14323 0.29317
# Poissons Ratio (y) = 0.49686 -0.07088
# Poissons Ratio (z) = 0.92287 -0.06432
#
# Static dielectric constant tensor:
#      x y z
#    x 2.067570 0.000000 0.000000 
#    y 0.000000 1.842480 0.000000 
#    z 0.000000 0.000000 1.894420 
# 
# From -- ./inp_files/26135.got.cif
#   From: 2010.05.17/outbox.cif.g08.bks.cpg/sg20_14_cif.got.tgz:26135.got - 2010.06.03 22:52:26.
