data_PCOD9318459
_publ_section_title
;
Structure prediction by ZEFSAII (Michael W. Deem and Ramdas Pophale) SiO2 
 PCOD9318459
Probable space group: C 2 2 21
;
_chemical_formula_sum "Si O2"
_cell_formula_units_Z 44
_cell_length_a 13.252401
_cell_length_b 17.347176
_cell_length_c 8.312875
_cell_angle_alpha 90.000000
_cell_angle_beta 90.000000
_cell_angle_gamma 90.000000
_cell_volume 1911.061236
_symmetry_space_group_name_H-M "C 2 2 21"
_symmetry_group_IT_number 20
_symmetry_cell_setting 'orthorhombic'
loop_
_space_group_symop_operation_xyz
x,y,z
-x,-y,1/2+z
x,-y,-z
-x,y,1/2-z
1/2+x,1/2+y,z
1/2-x,1/2-y,1/2+z
1/2+x,1/2-y,-z
1/2-x,1/2+y,1/2-z
loop_
_atom_site_type_symbol
_atom_site_label
_atom_site_fract_x
_atom_site_fract_y
_atom_site_fract_z
Si Si1 0.500000 0.767842 0.750000
Si Si2 0.456975 0.663816 0.996769
Si Si3 0.222636 0.429865 0.761781
Si Si4 0.367471 0.500000 0.000000
Si Si5 0.149502 0.787723 0.822835
Si Si6 0.409184 0.130472 0.532339
Si Si7 0.069298 0.500000 0.500000
O O1 0.575685 0.710410 0.660545
O O2 0.541189 0.820421 0.889223
O O3 0.397966 0.698848 0.147618
O O4 0.573557 0.677569 0.043202
O O5 0.433236 0.575742 0.979073
O O6 0.312276 0.484938 0.825124
O O7 0.256763 0.347505 0.684627
O O8 0.178243 0.413089 0.938894
O O9 0.141384 0.468196 0.642710
O O10 0.140801 0.695033 0.851699
O O11 0.495931 0.067571 0.569619
#
# Coordination Sequence:
#
# PCOD9318459 Si02
#       7
#     4   8   8   4   8   8   4
#     4  10  20  40  68  92 128 182 232 270 344 436
#     4   9  20  41  68 102 133 187 221 296 360 421
#     4  11  24  44  67 108 133 187 238 297 348 431
#     4  10  23  43  66 102 152 170 242 287 355 418
#     4   9  22  44  69  96 136 180 244 284 354 424
#     4  11  23  47  65  96 140 187 230 292 354 433
#     4  12  25  47  72 102 150 184 238 293 379 426
#
# _framework density 23.023858000000001
#
# number of rings (size 3 to 8) (size 9 to 14) (size 15 to 20)
#    0.000    1.818    1.818    0.545    0.000    9.455 
#   29.455    0.000    0.000    0.000    0.000    0.000 
#    0.000    0.000    0.000    0.000    0.000    0.000 
#
# Total GULP energy -122598.885388 kJ/mol
# GULP energy per Si atom -5572.676609 kJ/mol
# Density = 2.297145 g / cm^3
# Si number density = 23.023858 Si / 1000 Ang^3
#
#
#
# Elastic Constant Matrix: (Units=GPa)
#
#
# Indices 1 2 3 4 5 6 
#
# 1 58.9672 48.0247 10.0214 0.0000 0.0000 0.0000
# 2 48.0247 172.7621 58.1655 0.0000 0.0000 0.0000
# 3 10.0214 58.1655 64.6508 0.0000 0.0000 0.0000
# 4 0.0000 0.0000 0.0000 34.8858 0.0000 0.0000
# 5 0.0000 0.0000 0.0000 0.0000 -2.0019 0.0000
# 6 0.0000 0.0000 0.0000 0.0000 0.0000 -254.4609
#
#
#
# Elastic Compliance Matrix: (Units=1/GPa)
#
#
# Indices 1 2 3 4 5 6 
#
# 1 0.022332 -0.007234 0.003046 0.000000 0.000000 0.000000
# 2 -0.007234 0.010646 -0.008457 0.000000 0.000000 0.000000
# 3 0.003046 -0.008457 0.022604 0.000000 0.000000 0.000000
# 4 0.000000 0.000000 0.000000 0.028665 0.000000 0.000000
# 5 0.000000 0.000000 0.000000 0.000000 -0.499533 0.000000
# 6 0.000000 0.000000 0.000000 0.000000 0.000000 -0.003930
#
#
# Mechanical properties :
#
#
# Convention : Reuss Voigt Hill
#
# Bulk Modulus (GPa) = 33.00996 58.75594 45.88295
# Shear Modulus (GPa) = -13.02667 -32.30416 -22.66542
#
# Velocity S-wave (km/s) = -2.38121 -3.74983 -3.14097
# Velocity P-wave (km/s) = 2.60925 2.61280 2.61102
#
# Compressibility (1/GPa) = 0.03029388
#
# Stress axis : x y z
#
# Youngs Moduli (GPa) = 44.77869 93.92776 44.23919
#
# Poissons Ratio (x) = 0.67943 -0.13476
# Poissons Ratio (y) = 0.32391 0.37414
# Poissons Ratio (z) = -0.13641 0.79437
#
# Static dielectric constant tensor:
#      x y z
#    x 2.073450 0.000000 0.000000 
#    y 0.000000 1.983630 0.000000 
#    z 0.000000 0.000000 2.224850 
# 
# From -- ./inp_files/8367.got.cif
#   From: 2010.05.17/outbox.cif.g08.bks.cpg/sg20_5_cif.got.tgz:8367.got - 2010.06.03 22:52:26.
