data_PCOD9318683
_publ_section_title
;
Structure prediction by ZEFSAII (Michael W. Deem and Ramdas Pophale) SiO2 
 PCOD9318683
Probable space group: C 2 2 21
;
_chemical_formula_sum "Si O2"
_cell_formula_units_Z 48
_cell_length_a 8.779629
_cell_length_b 15.773343
_cell_length_c 15.647375
_cell_angle_alpha 90.000000
_cell_angle_beta 90.000000
_cell_angle_gamma 90.000000
_cell_volume 2166.912638
_symmetry_space_group_name_H-M "C 2 2 21"
_symmetry_group_IT_number 20
_symmetry_cell_setting 'orthorhombic'
loop_
_space_group_symop_operation_xyz
x,y,z
-x,-y,1/2+z
x,-y,-z
-x,y,1/2-z
1/2+x,1/2+y,z
1/2-x,1/2-y,1/2+z
1/2+x,1/2-y,-z
1/2-x,1/2+y,1/2-z
loop_
_atom_site_type_symbol
_atom_site_label
_atom_site_fract_x
_atom_site_fract_y
_atom_site_fract_z
Si Si1 0.513985 0.409705 0.147556
Si Si2 0.598161 0.840983 0.512351
Si Si3 0.254058 0.246593 0.871278
Si Si4 0.679166 0.500000 0.000000
Si Si5 0.432626 0.096648 0.341416
Si Si6 0.333146 0.084171 0.602579
Si Si7 0.000000 0.669847 0.750000
O O1 0.500000 0.428112 0.250000
O O2 0.620454 0.324931 0.139541
O O3 0.347163 0.400670 0.104087
O O4 0.588046 0.483888 0.088402
O O5 0.681440 0.762567 0.467835
O O6 0.556970 0.844042 0.611028
O O7 0.440567 0.864341 0.463132
O O8 0.712828 0.918860 0.502565
O O9 0.206232 0.338636 0.840363
O O10 0.396504 0.221076 0.814121
O O11 0.500000 0.072386 0.250000
O O12 0.383714 0.014649 0.396291
O O13 0.385811 0.113953 0.695692
#
# Coordination Sequence:
#
# PCOD9318683 Si02
#       7
#     8   8   8   4   8   8   4
#     4  11  23  40  69  99 129 175 225 282 328 406
#     4  10  23  46  69  91 139 185 215 270 350 420
#     4  10  24  46  66  96 137 175 224 270 349 400
#     4  10  22  40  64  98 130 170 226 274 326 410
#     4  12  25  41  68 105 132 172 227 294 327 396
#     4  11  22  41  74  97 131 170 233 270 340 406
#     4  10  20  44  68  94 124 190 210 268 340 422
#
# _framework density 22.151330000000002
#
# number of rings (size 3 to 8) (size 9 to 14) (size 15 to 20)
#    0.000    1.333    4.167    0.500    4.667    1.333 
#    7.500    0.000    0.000    0.000    0.000    0.000 
#    0.000    0.000    0.000    0.000    0.000    0.000 
#
# Total GULP energy -133875.328692 kJ/mol
# GULP energy per Si atom -5578.138695 kJ/mol
# Density = 2.210091 g / cm^3
# Si number density = 22.151330 Si / 1000 Ang^3
#
#
#
# Elastic Constant Matrix: (Units=GPa)
#
#
# Indices 1 2 3 4 5 6 
#
# 1 124.2739 21.4524 24.1222 0.0000 0.0000 0.0000
# 2 21.4524 61.9899 4.5044 0.0000 0.0000 0.0000
# 3 24.1222 4.5044 85.2970 0.0000 0.0000 0.0000
# 4 0.0000 0.0000 0.0000 -9.4684 0.0000 0.0000
# 5 0.0000 0.0000 0.0000 0.0000 37.1585 0.0000
# 6 0.0000 0.0000 0.0000 0.0000 0.0000 -13.1306
#
#
#
# Elastic Compliance Matrix: (Units=1/GPa)
#
#
# Indices 1 2 3 4 5 6 
#
# 1 0.009021 -0.002948 -0.002395 0.000000 0.000000 0.000000
# 2 -0.002948 0.017157 -0.000072 0.000000 0.000000 0.000000
# 3 -0.002395 -0.000072 0.012405 0.000000 0.000000 0.000000
# 4 0.000000 0.000000 0.000000 -0.105615 0.000000 0.000000
# 5 0.000000 0.000000 0.000000 0.000000 0.026912 0.000000
# 6 0.000000 0.000000 0.000000 0.000000 0.000000 -0.076158
#
#
# Mechanical properties :
#
#
# Convention : Reuss Voigt Hill
#
# Bulk Modulus (GPa) = 36.03387 41.30207 38.66797
# Shear Modulus (GPa) = -51.97681 17.67736 -17.14972
#
# Velocity S-wave (km/s) = -4.84926 2.82800 -2.78548
# Velocity P-wave (km/s) = 3.87961 5.41750 2.67376
#
# Compressibility (1/GPa) = 0.02775167
#
# Stress axis : x y z
#
# Youngs Moduli (GPa) = 110.85841 58.28526 80.61276
#
# Poissons Ratio (x) = 0.17180 0.19310
# Poissons Ratio (y) = 0.32677 0.00584
# Poissons Ratio (z) = 0.26555 0.00422
#
# Static dielectric constant tensor:
#      x y z
#    x 1.856710 0.000000 0.000000 
#    y 0.000000 1.835760 0.000000 
#    z 0.000000 0.000000 1.911460 
# 
# From -- ./inp_files/18961.got.cif
#   From: 2010.05.17/outbox.cif.g08.bks.cpg/sg20_10_cif.got.tgz:18961.got - 2010.06.03 22:52:26.
