data_PCOD9318472
_publ_section_title
;
Structure prediction by ZEFSAII (Michael W. Deem and Ramdas Pophale) SiO2 
 PCOD9318472
Probable space group: C 2 2 21
;
_chemical_formula_sum "Si O2"
_cell_formula_units_Z 56
_cell_length_a 5.529477
_cell_length_b 30.162719
_cell_length_c 14.948227
_cell_angle_alpha 90.000000
_cell_angle_beta 90.000000
_cell_angle_gamma 90.000000
_cell_volume 2493.126003
_symmetry_space_group_name_H-M "C 2 2 21"
_symmetry_group_IT_number 20
_symmetry_cell_setting 'orthorhombic'
loop_
_space_group_symop_operation_xyz
x,y,z
-x,-y,1/2+z
x,-y,-z
-x,y,1/2-z
1/2+x,1/2+y,z
1/2-x,1/2-y,1/2+z
1/2+x,1/2-y,-z
1/2-x,1/2+y,1/2-z
loop_
_atom_site_type_symbol
_atom_site_label
_atom_site_fract_x
_atom_site_fract_y
_atom_site_fract_z
Si Si1 0.230411 0.598260 0.918546
Si Si2 0.000000 0.975535 0.750000
Si Si3 0.425947 0.644810 0.460120
Si Si4 0.533278 0.740276 0.444970
Si Si5 0.354413 0.172421 0.865932
Si Si6 0.000000 0.876286 0.250000
Si Si7 0.318095 0.996770 0.404054
Si Si8 0.123174 0.419033 0.654013
O O1 0.424877 0.596422 0.837586
O O2 0.076120 0.552967 0.912498
O O3 0.066180 0.640170 0.897641
O O4 0.372127 0.608851 0.010717
O O5 0.131956 0.943419 0.818318
O O6 0.178129 0.003188 0.689166
O O7 0.522537 0.689229 0.412788
O O8 0.340561 0.665120 0.554637
O O9 0.205524 0.621392 0.408303
O O10 0.275237 0.753722 0.492360
O O11 0.569882 0.776754 0.367906
O O12 0.224350 0.154534 0.778227
O O13 0.180657 0.000000 0.500000
O O14 0.478694 0.040793 0.393265
O O15 0.000000 0.406992 0.750000
#
# Coordination Sequence:
#
# PCOD9318472 Si02
#       8
#     8   4   8   8   8   4   8   8
#     4  11  21  38  61  94 131 176 223 283 349 428
#     4  10  23  42  60  86 136 170 220 286 344 405
#     4  10  21  39  68  94 125 177 234 289 348 425
#     4  10  20  40  69 103 134 178 239 299 352 420
#     4  10  21  38  64  96 133 174 223 286 351 426
#     4  10  23  36  60  94 138 180 216 278 366 425
#     4  11  23  38  64  97 127 176 228 282 347 425
#     4  10  23  42  62  91 134 174 228 289 349 413
#
# _framework density 22.461760999999999
#
# number of rings (size 3 to 8) (size 9 to 14) (size 15 to 20)
#    0.000    1.714    1.429    2.571    0.000    8.571 
#    0.000    0.000    4.714    0.000    0.000    0.000 
#    0.000    0.000    0.000    0.000    0.000    0.000 
#
# Total GULP energy -156055.661715 kJ/mol
# GULP energy per Si atom -5573.416490 kJ/mol
# Density = 2.241064 g / cm^3
# Si number density = 22.461761 Si / 1000 Ang^3
#
#
#
# Elastic Constant Matrix: (Units=GPa)
#
#
# Indices 1 2 3 4 5 6 
#
# 1 73.2966 28.2524 10.3713 0.0000 0.0000 0.0000
# 2 28.2524 154.4847 40.4520 0.0000 0.0000 0.0000
# 3 10.3713 40.4520 75.9233 0.0000 0.0000 0.0000
# 4 0.0000 0.0000 0.0000 25.4328 0.0000 0.0000
# 5 0.0000 0.0000 0.0000 0.0000 32.5570 0.0000
# 6 0.0000 0.0000 0.0000 0.0000 0.0000 39.1854
#
#
#
# Elastic Compliance Matrix: (Units=1/GPa)
#
#
# Indices 1 2 3 4 5 6 
#
# 1 0.014707 -0.002514 -0.000669 0.000000 0.000000 0.000000
# 2 -0.002514 0.007953 -0.003894 0.000000 0.000000 0.000000
# 3 -0.000669 -0.003894 0.015337 0.000000 0.000000 0.000000
# 4 0.000000 0.000000 0.000000 0.039319 0.000000 0.000000
# 5 0.000000 0.000000 0.000000 0.000000 0.030715 0.000000
# 6 0.000000 0.000000 0.000000 0.000000 0.000000 0.025520
#
#
# Mechanical properties :
#
#
# Convention : Reuss Voigt Hill
#
# Bulk Modulus (GPa) = 41.94278 51.31734 46.63006
# Shear Modulus (GPa) = 32.12270 34.41031 33.26650
#
# Velocity S-wave (km/s) = 3.78578 3.91826 3.85259
# Velocity P-wave (km/s) = 6.15004 6.58532 6.37140
#
# Compressibility (1/GPa) = 0.02384200
#
# Stress axis : x y z
#
# Youngs Moduli (GPa) = 67.99447 125.74623 65.20114
#
# Poissons Ratio (x) = 0.31617 0.04364
# Poissons Ratio (y) = 0.17096 0.25387
# Poissons Ratio (z) = 0.04551 0.48961
#
# Static dielectric constant tensor:
#      x y z
#    x 1.843310 0.000000 0.000000 
#    y 0.000000 1.858320 0.000000 
#    z 0.000000 0.000000 1.926580 
# 
# From -- ./inp_files/18024.got.cif
#   From: 2010.05.17/outbox.cif.g08.bks.cpg/sg20_10_cif.got.tgz:18024.got - 2010.06.03 22:52:26.
