data_PCOD9318406
_publ_section_title
;
Structure prediction by ZEFSAII (Michael W. Deem and Ramdas Pophale) SiO2 
 PCOD9318406
Probable space group: C 2 2 21
;
_chemical_formula_sum "Si O2"
_cell_formula_units_Z 40
_cell_length_a 7.498662
_cell_length_b 14.199303
_cell_length_c 13.406962
_cell_angle_alpha 90.000000
_cell_angle_beta 90.000000
_cell_angle_gamma 90.000000
_cell_volume 1427.516654
_symmetry_space_group_name_H-M "C 2 2 21"
_symmetry_group_IT_number 20
_symmetry_cell_setting 'orthorhombic'
loop_
_space_group_symop_operation_xyz
x,y,z
-x,-y,1/2+z
x,-y,-z
-x,y,1/2-z
1/2+x,1/2+y,z
1/2-x,1/2-y,1/2+z
1/2+x,1/2-y,-z
1/2-x,1/2+y,1/2-z
loop_
_atom_site_type_symbol
_atom_site_label
_atom_site_fract_x
_atom_site_fract_y
_atom_site_fract_z
Si Si1 0.884307 0.984795 0.381064
Si Si2 0.683677 0.225373 0.439011
Si Si3 0.418369 0.342301 0.891354
Si Si4 0.499397 0.067632 0.922414
Si Si5 0.000000 0.307668 0.250000
Si Si6 0.500000 0.309744 0.250000
O O1 0.666685 0.993220 0.374781
O O2 0.910136 0.885597 0.326783
O O3 0.910125 0.000000 0.500000
O O4 0.048431 0.054240 0.348739
O O5 0.689303 0.318843 0.509043
O O6 0.879145 0.186868 0.418741
O O7 0.589190 0.148975 0.509691
O O8 0.587997 0.243805 0.334893
O O9 0.370315 0.264754 0.807787
O O10 0.587926 0.123245 0.831141
O O11 0.598111 0.000000 0.000000
#
# Coordination Sequence:
#
# PCOD9318406 Si02
#       6
#     8   8   8   8   4   4
#     4  11  20  41  64  86 125 174 200 255 327 375
#     4  11  22  39  66  95 123 166 214 264 310 382
#     4  11  22  42  67  92 127 164 217 259 322 374
#     4  10  20  40  64  83 129 168 204 252 327 370
#     4  10  23  37  66  96 122 164 218 265 309 372
#     4  12  23  35  66  96 124 160 224 261 307 378
#
# _framework density 28.020686000000001
#
# number of rings (size 3 to 8) (size 9 to 14) (size 15 to 20)
#    0.000    1.200    6.000    1.800    0.000    2.400 
#    0.000    0.000   22.000    0.000    0.000    0.000 
#    0.000    0.000    0.000    0.000    0.000    0.000 
#
# Total GULP energy -111680.429368 kJ/mol
# GULP energy per Si atom -5584.021468 kJ/mol
# Density = 2.795691 g / cm^3
# Si number density = 28.020686 Si / 1000 Ang^3
#
#
#
# Elastic Constant Matrix: (Units=GPa)
#
#
# Indices 1 2 3 4 5 6 
#
# 1 50.4046 19.2575 14.9171 0.0000 0.0000 0.0000
# 2 19.2575 139.2633 30.8678 0.0000 0.0000 0.0000
# 3 14.9171 30.8678 181.2582 0.0000 0.0000 0.0000
# 4 0.0000 0.0000 0.0000 58.4746 0.0000 0.0000
# 5 0.0000 0.0000 0.0000 0.0000 37.8187 0.0000
# 6 0.0000 0.0000 0.0000 0.0000 0.0000 41.2009
#
#
#
# Elastic Compliance Matrix: (Units=1/GPa)
#
#
# Indices 1 2 3 4 5 6 
#
# 1 0.021235 -0.002649 -0.001296 0.000000 0.000000 0.000000
# 2 -0.002649 0.007793 -0.001109 0.000000 0.000000 0.000000
# 3 -0.001296 -0.001109 0.005813 0.000000 0.000000 0.000000
# 4 0.000000 0.000000 0.000000 0.017101 0.000000 0.000000
# 5 0.000000 0.000000 0.000000 0.000000 0.026442 0.000000
# 6 0.000000 0.000000 0.000000 0.000000 0.000000 0.024271
#
#
# Mechanical properties :
#
#
# Convention : Reuss Voigt Hill
#
# Bulk Modulus (GPa) = 40.43454 55.66788 48.05121
# Shear Modulus (GPa) = 41.31948 47.89109 44.60528
#
# Velocity S-wave (km/s) = 3.84423 4.13865 3.99415
# Velocity P-wave (km/s) = 5.84514 6.53818 6.20135
#
# Compressibility (1/GPa) = 0.02473133
#
# Stress axis : x y z
#
# Youngs Moduli (GPa) = 47.09156 128.32382 172.04120
#
# Poissons Ratio (x) = 0.33994 0.22305
# Poissons Ratio (y) = 0.12475 0.19081
# Poissons Ratio (z) = 0.06105 0.14232
#
# Static dielectric constant tensor:
#      x y z
#    x 2.247700 0.000000 0.000000 
#    y 0.000000 2.360160 0.000000 
#    z 0.000000 0.000000 2.220840 
# 
# From -- ./inp_files/18592.got.cif
#   From: 2010.05.17/outbox.cif.g08.bks.cpg/sg20_10_cif.got.tgz:18592.got - 2010.06.03 22:52:26.
