data_PCOD9318430
_publ_section_title
;
Structure prediction by ZEFSAII (Michael W. Deem and Ramdas Pophale) SiO2 
 PCOD9318430
Probable space group: C 2 2 21
;
_chemical_formula_sum "Si O2"
_cell_formula_units_Z 40
_cell_length_a 11.946892
_cell_length_b 6.960705
_cell_length_c 18.003158
_cell_angle_alpha 90.000000
_cell_angle_beta 90.000000
_cell_angle_gamma 90.000000
_cell_volume 1497.120851
_symmetry_space_group_name_H-M "C 2 2 21"
_symmetry_group_IT_number 20
_symmetry_cell_setting 'orthorhombic'
loop_
_space_group_symop_operation_xyz
x,y,z
-x,-y,1/2+z
x,-y,-z
-x,y,1/2-z
1/2+x,1/2+y,z
1/2-x,1/2-y,1/2+z
1/2+x,1/2-y,-z
1/2-x,1/2+y,1/2-z
loop_
_atom_site_type_symbol
_atom_site_label
_atom_site_fract_x
_atom_site_fract_y
_atom_site_fract_z
Si Si1 0.054592 0.000000 0.000000
Si Si2 0.308875 0.583951 0.641916
Si Si3 0.848041 0.482210 0.411923
Si Si4 0.393450 0.624252 0.886453
Si Si5 0.000000 0.123525 0.750000
Si Si6 0.058170 0.317120 0.331390
O O1 0.140264 0.979044 0.930970
O O2 0.963777 0.147605 0.962384
O O3 0.388839 0.531609 0.711224
O O4 0.178382 0.578956 0.661205
O O5 0.329054 0.808971 0.623512
O O6 0.844679 0.500000 0.500000
O O7 0.738163 0.358830 0.390879
O O8 0.964367 0.397252 0.386143
O O9 0.447255 0.738042 0.818427
O O10 0.418610 0.403166 0.859598
O O11 0.000000 0.323705 0.250000
#
# Coordination Sequence:
#
# PCOD9318430 Si02
#       6
#     4   8   8   8   4   8
#     4  10  20  42  60  92 124 174 214 274 322 390
#     4  10  24  40  66  94 134 170 226 270 334 386
#     4  11  23  40  63  97 131 171 220 269 327 393
#     4  10  20  40  66  88 128 172 216 260 334 384
#     4  10  20  42  60  92 124 174 214 274 322 390
#     4  11  23  40  63  97 131 171 220 269 327 393
#
# _framework density 26.717949000000001
#
# number of rings (size 3 to 8) (size 9 to 14) (size 15 to 20)
#    0.000    1.600    2.000    2.400    2.800    0.000 
#    0.000    4.000    0.000    0.000    0.000    0.000 
#    0.000    0.000    0.000    0.000    0.000    0.000 
#
# Total GULP energy -111821.355738 kJ/mol
# GULP energy per Si atom -5591.067787 kJ/mol
# Density = 2.665714 g / cm^3
# Si number density = 26.717949 Si / 1000 Ang^3
#
#
#
# Elastic Constant Matrix: (Units=GPa)
#
#
# Indices 1 2 3 4 5 6 
#
# 1 313.1166 53.7784 91.9665 0.0000 0.0000 0.0000
# 2 53.7784 65.1832 29.4136 0.0000 0.0000 0.0000
# 3 91.9665 29.4136 158.0659 0.0000 0.0000 0.0000
# 4 0.0000 0.0000 0.0000 8.7485 0.0000 0.0000
# 5 0.0000 0.0000 0.0000 0.0000 29.1271 0.0000
# 6 0.0000 0.0000 0.0000 0.0000 0.0000 51.3601
#
#
#
# Elastic Compliance Matrix: (Units=1/GPa)
#
#
# Indices 1 2 3 4 5 6 
#
# 1 0.004218 -0.002590 -0.001972 0.000000 0.000000 0.000000
# 2 -0.002590 0.018338 -0.001906 0.000000 0.000000 0.000000
# 3 -0.001972 -0.001906 0.007828 0.000000 0.000000 0.000000
# 4 0.000000 0.000000 0.000000 0.114305 0.000000 0.000000
# 5 0.000000 0.000000 0.000000 0.000000 0.034332 0.000000
# 6 0.000000 0.000000 0.000000 0.000000 0.000000 0.019470
#
#
# Mechanical properties :
#
#
# Convention : Reuss Voigt Hill
#
# Bulk Modulus (GPa) = 57.30921 98.52028 77.91475
# Shear Modulus (GPa) = 23.01570 41.92763 32.47166
#
# Velocity S-wave (km/s) = 2.93820 3.96570 3.48997
# Velocity P-wave (km/s) = 5.74517 7.61073 6.74278
#
# Compressibility (1/GPa) = 0.01744920
#
# Stress axis : x y z
#
# Youngs Moduli (GPa) = 237.09416 54.53161 127.73925
#
# Poissons Ratio (x) = 0.14123 0.25191
# Poissons Ratio (y) = 0.61405 0.24341
# Poissons Ratio (z) = 0.46756 0.10391
#
# Static dielectric constant tensor:
#      x y z
#    x 2.020940 0.000000 0.000000 
#    y 0.000000 2.308970 0.000000 
#    z 0.000000 0.000000 2.146440 
# 
# From -- ./inp_files/24112.got.cif
#   From: 2010.05.17/outbox.cif.g08.bks.cpg/sg20_13_cif.got.tgz:24112.got - 2010.06.03 22:52:26.
