data_PCOD9318829
_publ_section_title
;
Structure prediction by ZEFSAII (Michael W. Deem and Ramdas Pophale) SiO2 
 PCOD9318829
Probable space group: C 2 2 21
;
_chemical_formula_sum "Si O2"
_cell_formula_units_Z 52
_cell_length_a 9.080291
_cell_length_b 16.869990
_cell_length_c 17.533127
_cell_angle_alpha 90.000000
_cell_angle_beta 90.000000
_cell_angle_gamma 90.000000
_cell_volume 2685.801862
_symmetry_space_group_name_H-M "C 2 2 21"
_symmetry_group_IT_number 20
_symmetry_cell_setting 'orthorhombic'
loop_
_space_group_symop_operation_xyz
x,y,z
-x,-y,1/2+z
x,-y,-z
-x,y,1/2-z
1/2+x,1/2+y,z
1/2-x,1/2-y,1/2+z
1/2+x,1/2-y,-z
1/2-x,1/2+y,1/2-z
loop_
_atom_site_type_symbol
_atom_site_label
_atom_site_fract_x
_atom_site_fract_y
_atom_site_fract_z
Si Si1 0.140256 0.014031 0.870185
Si Si2 0.500000 0.391047 0.750000
Si Si3 0.335681 0.033716 0.737525
Si Si4 0.832100 0.410030 0.510024
Si Si5 0.000000 0.225017 0.750000
Si Si6 0.295508 0.141748 0.315679
Si Si7 0.136905 0.884135 0.381855
Si Si8 0.377011 0.000000 0.000000
O O1 0.232429 0.061418 0.806404
O O2 0.009148 0.066480 0.904866
O O3 0.062416 0.946625 0.818478
O O4 0.265768 0.987752 0.929459
O O5 0.370791 0.342916 0.789228
O O6 0.500000 0.062850 0.750000
O O7 0.255626 0.060770 0.661345
O O8 0.339083 0.937978 0.731438
O O9 0.769664 0.500000 0.500000
O O10 0.815659 0.380429 0.596019
O O11 0.732489 0.356404 0.454236
O O12 0.006050 0.426789 0.491432
O O13 0.110920 0.283251 0.792995
O O14 0.081188 0.175396 0.683605
#
# Coordination Sequence:
#
# PCOD9318829 Si02
#       8
#     8   4   8   8   4   8   8   4
#     4  11  19  35  61 102 130 160 230 272 338 391
#     4  10  21  36  62  97 120 178 224 282 323 394
#     4  11  18  36  69  98 127 172 229 280 316 399
#     4  10  21  41  67 104 130 172 229 294 339 387
#     4  12  27  46  64  97 144 192 216 274 359 422
#     4  11  22  41  68  96 135 172 230 279 345 403
#     4  12  22  42  65  98 139 175 223 282 347 407
#     4  10  24  32  64 112 128 166 218 306 346 376
#
# _framework density 19.361070999999999
#
# number of rings (size 3 to 8) (size 9 to 14) (size 15 to 20)
#    0.462    0.615    6.923    1.846    5.385    0.000 
#    1.385    3.077    0.000    0.000    0.000    0.000 
#    0.000    0.000    0.000    0.000    0.000    0.000 
#
# Total GULP energy -144811.469672 kJ/mol
# GULP energy per Si atom -5569.671910 kJ/mol
# Density = 1.931700 g / cm^3
# Si number density = 19.361071 Si / 1000 Ang^3
#
#
#
# Elastic Constant Matrix: (Units=GPa)
#
#
# Indices 1 2 3 4 5 6 
#
# 1 157.4573 33.9435 63.6118 0.0000 0.0000 0.0000
# 2 33.9435 55.0796 22.7878 0.0000 0.0000 0.0000
# 3 63.6118 22.7878 107.2348 0.0000 0.0000 0.0000
# 4 0.0000 0.0000 0.0000 15.6517 0.0000 0.0000
# 5 0.0000 0.0000 0.0000 0.0000 38.4270 0.0000
# 6 0.0000 0.0000 0.0000 0.0000 0.0000 17.7533
#
#
#
# Elastic Compliance Matrix: (Units=1/GPa)
#
#
# Indices 1 2 3 4 5 6 
#
# 1 0.008975 -0.003649 -0.004549 0.000000 0.000000 0.000000
# 2 -0.003649 0.021389 -0.002381 0.000000 0.000000 0.000000
# 3 -0.004549 -0.002381 0.012529 0.000000 0.000000 0.000000
# 4 0.000000 0.000000 0.000000 0.063891 0.000000 0.000000
# 5 0.000000 0.000000 0.000000 0.000000 0.026023 0.000000
# 6 0.000000 0.000000 0.000000 0.000000 0.000000 0.056328
#
#
# Mechanical properties :
#
#
# Convention : Reuss Voigt Hill
#
# Bulk Modulus (GPa) = 46.00423 62.27312 54.13868
# Shear Modulus (GPa) = 22.98443 27.66162 25.32302
#
# Velocity S-wave (km/s) = 3.44924 3.78395 3.62046
# Velocity P-wave (km/s) = 6.29887 7.16414 6.74539
#
# Compressibility (1/GPa) = 0.02173713
#
# Stress axis : x y z
#
# Youngs Moduli (GPa) = 111.41781 46.75224 79.81176
#
# Poissons Ratio (x) = 0.17061 0.36304
# Poissons Ratio (y) = 0.40659 0.19000
# Poissons Ratio (z) = 0.50680 0.11130
#
# Static dielectric constant tensor:
#      x y z
#    x 1.747480 0.000000 0.000000 
#    y 0.000000 1.676780 0.000000 
#    z 0.000000 0.000000 1.800770 
# 
# From -- ./inp_files/23726.got.cif
#   From: 2010.05.17/outbox.cif.g08.bks.cpg/sg20_12_cif.got.tgz:23726.got - 2010.06.03 22:52:26.
