data_PCOD9318461
_publ_section_title
;
Structure prediction by ZEFSAII (Michael W. Deem and Ramdas Pophale) SiO2 
 PCOD9318461
Probable space group: C 2 2 21
;
_chemical_formula_sum "Si O2"
_cell_formula_units_Z 64
_cell_length_a 11.781023
_cell_length_b 15.540513
_cell_length_c 17.194314
_cell_angle_alpha 90.000000
_cell_angle_beta 90.000000
_cell_angle_gamma 90.000000
_cell_volume 3147.989016
_symmetry_space_group_name_H-M "C 2 2 21"
_symmetry_group_IT_number 20
_symmetry_cell_setting 'orthorhombic'
loop_
_space_group_symop_operation_xyz
x,y,z
-x,-y,1/2+z
x,-y,-z
-x,y,1/2-z
1/2+x,1/2+y,z
1/2-x,1/2-y,1/2+z
1/2+x,1/2-y,-z
1/2-x,1/2+y,1/2-z
loop_
_atom_site_type_symbol
_atom_site_label
_atom_site_fract_x
_atom_site_fract_y
_atom_site_fract_z
Si Si1 0.164953 0.778104 0.946809
Si Si2 0.515195 0.679784 0.840931
Si Si3 0.368490 0.152903 0.148313
Si Si4 0.057936 0.476538 0.908915
Si Si5 0.725621 0.646146 0.431951
Si Si6 0.736012 0.755822 0.791059
Si Si7 0.401205 0.848158 0.314017
Si Si8 0.493362 0.589004 0.983486
O O1 0.256499 0.839683 0.904366
O O2 0.098330 0.721780 0.882843
O O3 0.233502 0.713679 0.002685
O O4 0.072684 0.832837 0.992068
O O5 0.500000 0.664552 0.750000
O O6 0.443582 0.762215 0.868015
O O7 0.645778 0.706826 0.844812
O O8 0.475146 0.600991 0.892160
O O9 0.449574 0.072282 0.129887
O O10 0.327103 0.172829 0.236758
O O11 0.165997 0.412846 0.912030
O O12 0.092110 0.559941 0.857557
O O13 0.033267 0.500000 0.000000
O O14 0.686820 0.694377 0.352985
O O15 0.622654 0.593560 0.468820
O O16 0.791796 0.684821 0.735039
O O17 0.500000 0.844243 0.250000
O O18 0.553560 0.500000 0.000000
#
# Coordination Sequence:
#
# PCOD9318461 Si02
#       8
#     8   8   8   8   8   8   8   8
#     4  11  23  46  69  94 136 187 229 274 349 426
#     4  10  20  40  68  93 126 175 230 267 337 404
#     4  10  22  41  71  99 132 178 230 284 332 415
#     4  12  25  41  67 111 143 175 233 299 356 397
#     4  12  23  41  73  98 136 183 234 280 347 416
#     4  10  22  42  71  95 132 185 228 272 346 412
#     4  11  26  44  67 104 144 180 229 288 354 418
#     4  12  26  43  66 100 136 175 227 286 338 408
#
# _framework density 20.330439999999999
#
# number of rings (size 3 to 8) (size 9 to 14) (size 15 to 20)
#    0.000    1.000    5.000    1.125    1.750    1.500 
#    2.250    3.125    0.000    0.000    0.000    0.000 
#    0.000    0.000    0.000    0.000    0.000    0.000 
#
# Total GULP energy -178583.263475 kJ/mol
# GULP energy per Si atom -5580.726984 kJ/mol
# Density = 2.028417 g / cm^3
# Si number density = 20.330440 Si / 1000 Ang^3
#
#
#
# Elastic Constant Matrix: (Units=GPa)
#
#
# Indices 1 2 3 4 5 6 
#
# 1 64.6822 24.8357 29.8179 0.0000 0.0000 0.0000
# 2 24.8357 77.6512 51.2472 0.0000 0.0000 0.0000
# 3 29.8179 51.2472 110.3100 0.0000 0.0000 0.0000
# 4 0.0000 0.0000 0.0000 19.2957 0.0000 0.0000
# 5 0.0000 0.0000 0.0000 0.0000 16.2088 0.0000
# 6 0.0000 0.0000 0.0000 0.0000 0.0000 22.3825
#
#
#
# Elastic Compliance Matrix: (Units=1/GPa)
#
#
# Indices 1 2 3 4 5 6 
#
# 1 0.018389 -0.003751 -0.003228 0.000000 0.000000 0.000000
# 2 -0.003751 0.019338 -0.007970 0.000000 0.000000 0.000000
# 3 -0.003228 -0.007970 0.013641 0.000000 0.000000 0.000000
# 4 0.000000 0.000000 0.000000 0.051825 0.000000 0.000000
# 5 0.000000 0.000000 0.000000 0.000000 0.061695 0.000000
# 6 0.000000 0.000000 0.000000 0.000000 0.000000 0.044678
#
#
# Mechanical properties :
#
#
# Convention : Reuss Voigt Hill
#
# Bulk Modulus (GPa) = 46.57865 51.60498 49.09181
# Shear Modulus (GPa) = 20.27424 21.36023 20.81724
#
# Velocity S-wave (km/s) = 3.16133 3.24489 3.20338
# Velocity P-wave (km/s) = 6.02378 6.28310 6.15480
#
# Compressibility (1/GPa) = 0.02146906
#
# Stress axis : x y z
#
# Youngs Moduli (GPa) = 54.38175 51.71261 73.31100
#
# Poissons Ratio (x) = 0.19397 0.23665
# Poissons Ratio (y) = 0.20398 0.58428
# Poissons Ratio (z) = 0.17554 0.41214
#
# Static dielectric constant tensor:
#      x y z
#    x 1.741590 0.000000 0.000000 
#    y 0.000000 1.724420 0.000000 
#    z 0.000000 0.000000 1.789840 
# 
# From -- ./inp_files/24465.got.cif
#   From: 2010.05.17/outbox.cif.g08.bks.cpg/sg20_13_cif.got.tgz:24465.got - 2010.06.03 22:52:26.
