data_PCOD9318123
_publ_section_title
;
Structure prediction by ZEFSAII (Michael W. Deem and Ramdas Pophale) SiO2 
 PCOD9318123
Probable space group: C 2 2 21
;
_chemical_formula_sum "Si O2"
_cell_formula_units_Z 44
_cell_length_a 13.095346
_cell_length_b 5.426353
_cell_length_c 27.974925
_cell_angle_alpha 90.000000
_cell_angle_beta 90.000000
_cell_angle_gamma 90.000000
_cell_volume 1987.897333
_symmetry_space_group_name_H-M "C 2 2 21"
_symmetry_group_IT_number 20
_symmetry_cell_setting 'orthorhombic'
loop_
_space_group_symop_operation_xyz
x,y,z
-x,-y,1/2+z
x,-y,-z
-x,y,1/2-z
1/2+x,1/2+y,z
1/2-x,1/2-y,1/2+z
1/2+x,1/2-y,-z
1/2-x,1/2+y,1/2-z
loop_
_atom_site_type_symbol
_atom_site_label
_atom_site_fract_x
_atom_site_fract_y
_atom_site_fract_z
Si Si1 0.840563 0.142564 0.821518
Si Si2 0.417540 0.855050 0.208441
Si Si3 0.213199 0.500000 0.000000
Si Si4 0.373060 0.126413 0.955330
Si Si5 0.212417 0.223821 0.093627
Si Si6 0.997565 0.904886 0.620855
O O1 0.847560 0.403673 0.795579
O O2 0.749433 0.125494 0.859899
O O3 0.943562 0.126582 0.853970
O O4 0.851276 0.898126 0.789181
O O5 0.500000 0.875494 0.250000
O O6 0.482621 0.809700 0.159906
O O7 0.283968 0.283411 0.979828
O O8 0.169150 0.616455 0.951024
O O9 0.441902 0.311521 0.925417
O O10 0.311807 0.929989 0.923013
O O11 0.430271 0.000000 0.000000
O O12 0.119542 0.051823 0.109660
#
# Coordination Sequence:
#
# PCOD9318123 Si02
#       6
#     8   8   4   8   8   8
#     4  10  21  42  63  93 131 162 205 274 309 386
#     4  10  21  42  68  95 127 168 211 265 327 385
#     4  10  20  38  60  82 134 162 218 266 306 376
#     4  10  21  40  57  88 130 165 212 264 310 369
#     4  11  21  40  60  94 122 174 210 266 319 384
#     4  10  23  39  64  91 124 172 210 262 322 382
#
# _framework density 22.133941
#
# number of rings (size 3 to 8) (size 9 to 14) (size 15 to 20)
#    1.091    0.727    3.636    0.545    1.273    1.455 
#    4.909    1.818    0.000    0.000    0.000    0.000 
#    0.000    0.000    0.000    0.000    0.000    0.000 
#
# Total GULP energy -122552.124125 kJ/mol
# GULP energy per Si atom -5570.551097 kJ/mol
# Density = 2.208356 g / cm^3
# Si number density = 22.133941 Si / 1000 Ang^3
#
#
#
# Elastic Constant Matrix: (Units=GPa)
#
#
# Indices 1 2 3 4 5 6 
#
# 1 46.9695 -2.0850 0.9914 0.0000 0.0000 0.0000
# 2 -2.0850 103.6706 7.1461 0.0000 0.0000 0.0000
# 3 0.9914 7.1461 30.3478 0.0000 0.0000 0.0000
# 4 0.0000 0.0000 0.0000 16.3338 0.0000 0.0000
# 5 0.0000 0.0000 0.0000 0.0000 9.9925 0.0000
# 6 0.0000 0.0000 0.0000 0.0000 0.0000 -3.2626
#
#
#
# Elastic Compliance Matrix: (Units=1/GPa)
#
#
# Indices 1 2 3 4 5 6 
#
# 1 0.021329 0.000485 -0.000811 0.000000 0.000000 0.000000
# 2 0.000485 0.009816 -0.002327 0.000000 0.000000 0.000000
# 3 -0.000811 -0.002327 0.033526 0.000000 0.000000 0.000000
# 4 0.000000 0.000000 0.000000 0.061223 0.000000 0.000000
# 5 0.000000 0.000000 0.000000 0.000000 0.100075 0.000000
# 6 0.000000 0.000000 0.000000 0.000000 0.000000 -0.306505
#
#
# Mechanical properties :
#
#
# Convention : Reuss Voigt Hill
#
# Bulk Modulus (GPa) = 16.84516 21.45476 19.14996
# Shear Modulus (GPa) = -90.18509 16.27510 -36.95499
#
# Velocity S-wave (km/s) = -6.39012 2.71458 -4.09052
# Velocity P-wave (km/s) = 6.84235 4.42035 3.69312
#
# Compressibility (1/GPa) = 0.05936425
#
# Stress axis : x y z
#
# Youngs Moduli (GPa) = 46.88437 101.87335 29.82774
#
# Poissons Ratio (x) = -0.04940 0.02419
# Poissons Ratio (y) = -0.02273 0.06942
# Poissons Ratio (z) = 0.03802 0.23709
#
# Static dielectric constant tensor:
#      x y z
#    x 1.775910 0.000000 0.000000 
#    y 0.000000 1.862860 0.000000 
#    z 0.000000 0.000000 1.905840 
# 
# From -- ./inp_files/30376.got.cif
#   From: 2010.05.17/outbox.cif.g08.bks.cpg/sg20_16_cif.got.tgz:30376.got - 2010.06.03 22:52:26.
