data_PCOD9318098
_publ_section_title
;
Structure prediction by ZEFSAII (Michael W. Deem and Ramdas Pophale) SiO2 
 PCOD9318098
Probable space group: C 2 2 21
;
_chemical_formula_sum "Si O2"
_cell_formula_units_Z 56
_cell_length_a 5.294514
_cell_length_b 25.390678
_cell_length_c 19.768120
_cell_angle_alpha 90.000000
_cell_angle_beta 90.000000
_cell_angle_gamma 90.000000
_cell_volume 2657.454073
_symmetry_space_group_name_H-M "C 2 2 21"
_symmetry_group_IT_number 20
_symmetry_cell_setting 'orthorhombic'
loop_
_space_group_symop_operation_xyz
x,y,z
-x,-y,1/2+z
x,-y,-z
-x,y,1/2-z
1/2+x,1/2+y,z
1/2-x,1/2-y,1/2+z
1/2+x,1/2-y,-z
1/2-x,1/2+y,1/2-z
loop_
_atom_site_type_symbol
_atom_site_label
_atom_site_fract_x
_atom_site_fract_y
_atom_site_fract_z
Si Si1 0.131005 0.985461 0.686133
Si Si2 0.746821 0.509049 0.073093
Si Si3 0.933231 0.591938 0.564957
Si Si4 0.237936 0.702365 0.058493
Si Si5 0.754877 0.601449 0.710485
Si Si6 0.739407 0.314163 0.032861
Si Si7 0.894439 0.595946 0.411155
O O1 0.923180 0.007291 0.634610
O O2 0.000000 0.958872 0.750000
O O3 0.278441 0.943213 0.642811
O O4 0.265652 0.037506 0.713050
O O5 0.982383 0.468708 0.073377
O O6 0.825920 0.570242 0.081365
O O7 0.625052 0.500000 0.000000
O O8 0.776651 0.612155 0.629678
O O9 0.808230 0.593148 0.490300
O O10 0.185681 0.628939 0.562486
O O11 0.495121 0.689445 0.016277
O O12 0.993430 0.697958 0.009923
O O13 0.232631 0.763168 0.082000
O O14 0.173723 0.655127 0.109620
O O15 0.500000 0.617123 0.750000
O O16 0.000000 0.622181 0.750000
#
# Coordination Sequence:
#
# PCOD9318098 Si02
#       7
#     8   8   8   8   8   8   8
#     4  11  24  36  56  78 122 167 200 237 296 367
#     4  10  22  35  54  88 119 157 194 248 298 355
#     4  10  20  38  57  84 120 152 197 247 302 352
#     4   9  19  35  56  85 121 148 200 243 299 350
#     4  11  24  39  56  81 120 166 201 239 292 369
#     4   9  19  35  57  86 115 157 191 248 298 354
#     4  10  22  34  56  85 115 154 194 246 298 345
#
# _framework density 21.072803
#
# number of rings (size 3 to 8) (size 9 to 14) (size 15 to 20)
#    0.000    2.000    1.429    1.714    8.000    3.429 
#    0.000    0.000    0.000    0.857    0.000    0.000 
#    0.000    0.000    0.000    0.000    0.000    0.000 
#
# Total GULP energy -155869.343359 kJ/mol
# GULP energy per Si atom -5566.762263 kJ/mol
# Density = 2.102484 g / cm^3
# Si number density = 21.072803 Si / 1000 Ang^3
#
#
#
# Elastic Constant Matrix: (Units=GPa)
#
#
# Indices 1 2 3 4 5 6 
#
# 1 93.3725 5.9660 27.6993 0.0000 0.0000 0.0000
# 2 5.9660 94.5302 -31.3465 0.0000 0.0000 0.0000
# 3 27.6993 -31.3465 80.6484 0.0000 0.0000 0.0000
# 4 0.0000 0.0000 0.0000 10.9774 0.0000 0.0000
# 5 0.0000 0.0000 0.0000 0.0000 32.4751 0.0000
# 6 0.0000 0.0000 0.0000 0.0000 0.0000 60.0370
#
#
#
# Elastic Compliance Matrix: (Units=1/GPa)
#
#
# Indices 1 2 3 4 5 6 
#
# 1 0.012429 -0.002525 -0.005250 0.000000 0.000000 0.000000
# 2 -0.002525 0.012657 0.005787 0.000000 0.000000 0.000000
# 3 -0.005250 0.005787 0.016452 0.000000 0.000000 0.000000
# 4 0.000000 0.000000 0.000000 0.091096 0.000000 0.000000
# 5 0.000000 0.000000 0.000000 0.000000 0.030793 0.000000
# 6 0.000000 0.000000 0.000000 0.000000 0.000000 0.016656
#
#
# Mechanical properties :
#
#
# Convention : Reuss Voigt Hill
#
# Bulk Modulus (GPa) = 26.62406 30.35430 28.48918
# Shear Modulus (GPa) = 25.43481 38.44671 31.94076
#
# Velocity S-wave (km/s) = 3.47796 4.27602 3.89747
# Velocity P-wave (km/s) = 5.36563 6.23016 5.81398
#
# Compressibility (1/GPa) = 0.03756001
#
# Stress axis : x y z
#
# Youngs Moduli (GPa) = 80.45907 79.00790 60.78279
#
# Poissons Ratio (x) = 0.19953 0.31913
# Poissons Ratio (y) = 0.20319 -0.35174
# Poissons Ratio (z) = 0.42243 -0.45721
#
# Static dielectric constant tensor:
#      x y z
#    x 1.861300 0.000000 0.000000 
#    y 0.000000 1.860120 0.000000 
#    z 0.000000 0.000000 1.780210 
# 
# From -- ./inp_files/26268.got.cif
#   From: 2010.05.17/outbox.cif.g08.bks.cpg/sg20_14_cif.got.tgz:26268.got - 2010.06.03 22:52:26.
