data_PCOD9318088
_publ_section_title
;
Structure prediction by ZEFSAII (Michael W. Deem and Ramdas Pophale) SiO2 
 PCOD9318088
Probable space group: C 2 2 21
;
_chemical_formula_sum "Si O2"
_cell_formula_units_Z 48
_cell_length_a 8.245569
_cell_length_b 20.688041
_cell_length_c 12.990308
_cell_angle_alpha 90.000000
_cell_angle_beta 90.000000
_cell_angle_gamma 90.000000
_cell_volume 2215.947397
_symmetry_space_group_name_H-M "C 2 2 21"
_symmetry_group_IT_number 20
_symmetry_cell_setting 'orthorhombic'
loop_
_space_group_symop_operation_xyz
x,y,z
-x,-y,1/2+z
x,-y,-z
-x,y,1/2-z
1/2+x,1/2+y,z
1/2-x,1/2-y,1/2+z
1/2+x,1/2-y,-z
1/2-x,1/2+y,1/2-z
loop_
_atom_site_type_symbol
_atom_site_label
_atom_site_fract_x
_atom_site_fract_y
_atom_site_fract_z
Si Si1 0.359928 0.212302 0.483230
Si Si2 0.948368 0.911536 0.603296
Si Si3 0.670726 0.600234 0.585918
Si Si4 0.573137 0.281581 0.644459
Si Si5 0.424666 0.892016 0.864601
Si Si6 0.000000 0.031420 0.750000
Si Si7 0.069496 0.500000 0.000000
O O1 0.240523 0.170551 0.557525
O O2 0.451792 0.263013 0.553087
O O3 0.487360 0.163541 0.430961
O O4 0.248935 0.241062 0.392310
O O5 0.076367 0.859771 0.650700
O O6 0.768557 0.885299 0.625115
O O7 0.012069 0.912487 0.485924
O O8 0.958790 0.980563 0.659043
O O9 0.631919 0.579641 0.701797
O O10 0.811351 0.551762 0.550627
O O11 0.500000 0.255621 0.750000
O O12 0.500000 0.889976 0.750000
O O13 0.466392 0.960956 0.916596
#
# Coordination Sequence:
#
# PCOD9318088 Si02
#       7
#     8   8   8   8   8   4   4
#     4  10  24  44  62  95 133 169 218 280 320 395
#     4  11  22  38  67  95 120 169 218 264 322 391
#     4  10  22  40  59  90 132 164 211 264 317 375
#     4  11  22  44  69  91 128 175 220 273 335 391
#     4  11  23  38  62  95 126 169 216 267 336 389
#     4  12  20  38  68  92 126 170 212 256 324 398
#     4  10  20  38  54  88 132 160 204 276 306 380
#
# _framework density 21.661162000000001
#
# number of rings (size 3 to 8) (size 9 to 14) (size 15 to 20)
#    0.000    1.333    2.500    3.000    4.667    0.000 
#    9.000    1.667    0.000    0.000    0.000    0.000 
#    0.000    0.000    0.000    0.000    0.000    0.000 
#
# Total GULP energy -133969.876088 kJ/mol
# GULP energy per Si atom -5582.078170 kJ/mol
# Density = 2.161186 g / cm^3
# Si number density = 21.661162 Si / 1000 Ang^3
#
#
#
# Elastic Constant Matrix: (Units=GPa)
#
#
# Indices 1 2 3 4 5 6 
#
# 1 87.7063 6.4106 11.9712 0.0000 0.0000 0.0000
# 2 6.4106 53.2478 28.9728 0.0000 0.0000 0.0000
# 3 11.9712 28.9728 61.6870 0.0000 0.0000 0.0000
# 4 0.0000 0.0000 0.0000 23.5361 0.0000 0.0000
# 5 0.0000 0.0000 0.0000 0.0000 21.6685 0.0000
# 6 0.0000 0.0000 0.0000 0.0000 0.0000 26.0500
#
#
#
# Elastic Compliance Matrix: (Units=1/GPa)
#
#
# Indices 1 2 3 4 5 6 
#
# 1 0.011714 -0.000233 -0.002164 0.000000 0.000000 0.000000
# 2 -0.000233 0.025232 -0.011805 0.000000 0.000000 0.000000
# 3 -0.002164 -0.011805 0.022176 0.000000 0.000000 0.000000
# 4 0.000000 0.000000 0.000000 0.042488 0.000000 0.000000
# 5 0.000000 0.000000 0.000000 0.000000 0.046150 0.000000
# 6 0.000000 0.000000 0.000000 0.000000 0.000000 0.038388
#
#
# Mechanical properties :
#
#
# Convention : Reuss Voigt Hill
#
# Bulk Modulus (GPa) = 32.55551 33.03893 32.79722
# Shear Modulus (GPa) = 22.24296 24.60334 23.42315
#
# Velocity S-wave (km/s) = 3.20794 3.37386 3.29195
# Velocity P-wave (km/s) = 5.36500 5.51933 5.44271
#
# Compressibility (1/GPa) = 0.03071677
#
# Stress axis : x y z
#
# Youngs Moduli (GPa) = 85.36742 39.63278 45.09480
#
# Poissons Ratio (x) = 0.00923 0.09758
# Poissons Ratio (y) = 0.01988 0.53236
# Poissons Ratio (z) = 0.18473 0.46788
#
# Static dielectric constant tensor:
#      x y z
#    x 1.802360 0.000000 0.000000 
#    y 0.000000 1.784980 0.000000 
#    z 0.000000 0.000000 1.837650 
# 
# From -- ./inp_files/13138.got.cif
#   From: 2010.05.17/outbox.cif.g08.bks.cpg/sg20_7_cif.got.tgz:13138.got - 2010.06.03 22:52:26.
