data_PCOD9318609
_publ_section_title
;
Structure prediction by ZEFSAII (Michael W. Deem and Ramdas Pophale) SiO2 
 PCOD9318609
Probable space group: C 2 2 21
;
_chemical_formula_sum "Si O2"
_cell_formula_units_Z 56
_cell_length_a 5.283387
_cell_length_b 30.835805
_cell_length_c 16.064607
_cell_angle_alpha 90.000000
_cell_angle_beta 90.000000
_cell_angle_gamma 90.000000
_cell_volume 2617.205471
_symmetry_space_group_name_H-M "C 2 2 21"
_symmetry_group_IT_number 20
_symmetry_cell_setting 'orthorhombic'
loop_
_space_group_symop_operation_xyz
x,y,z
-x,-y,1/2+z
x,-y,-z
-x,y,1/2-z
1/2+x,1/2+y,z
1/2-x,1/2-y,1/2+z
1/2+x,1/2-y,-z
1/2-x,1/2+y,1/2-z
loop_
_atom_site_type_symbol
_atom_site_label
_atom_site_fract_x
_atom_site_fract_y
_atom_site_fract_z
Si Si1 0.000000 0.098042 0.750000
Si Si2 0.443350 0.931881 0.020836
Si Si3 0.802834 0.521326 0.824451
Si Si4 0.500000 0.557085 0.250000
Si Si5 0.901849 0.193779 0.026657
Si Si6 0.930007 0.906536 0.923828
Si Si7 0.585425 0.863226 0.162245
Si Si8 0.099260 0.285427 0.420616
O O1 0.887907 0.061530 0.686462
O O2 0.880636 0.130793 0.819355
O O3 0.413575 0.972629 0.083532
O O4 0.494822 0.891672 0.085057
O O5 0.193361 0.922778 0.965925
O O6 0.696704 0.931682 0.966429
O O7 0.677497 0.475835 0.801928
O O8 0.000000 0.526660 0.750000
O O9 0.602628 0.585862 0.325159
O O10 0.914738 0.144995 0.058809
O O11 0.916849 0.233797 0.091618
O O12 0.134891 0.202350 0.963312
O O13 0.633569 0.201258 0.981319
O O14 0.500000 0.883583 0.250000
O O15 0.462421 0.816431 0.155881
#
# Coordination Sequence:
#
# PCOD9318609 Si02
#       8
#     4   8   8   4   8   8   8   8
#     4  11  20  36  64  98 140 184 208 282 364 421
#     4  12  24  44  75 105 129 185 236 285 348 435
#     4  11  24  46  68  98 142 173 220 293 361 408
#     4  11  32  50  68 102 142 192 228 308 356 411
#     4  10  20  42  68  95 132 186 231 292 323 421
#     4  12  26  48  75  99 137 186 247 281 347 429
#     4  12  22  35  63 106 145 179 222 288 358 425
#     4  10  22  37  65 100 140 175 232 282 352 390
#
# _framework density 21.396868000000001
#
# number of rings (size 3 to 8) (size 9 to 14) (size 15 to 20)
#    0.000    0.857    5.714    0.857    6.000    0.571 
#    1.286    0.000    0.000    0.000    0.000    0.000 
#    0.000    0.000    0.000    0.000    0.000    0.000 
#
# Total GULP energy -156081.279071 kJ/mol
# GULP energy per Si atom -5574.331395 kJ/mol
# Density = 2.134817 g / cm^3
# Si number density = 21.396868 Si / 1000 Ang^3
#
#
#
# Elastic Constant Matrix: (Units=GPa)
#
#
# Indices 1 2 3 4 5 6 
#
# 1 80.3960 21.9590 35.2698 0.0000 0.0000 0.0000
# 2 21.9590 107.1105 34.2854 0.0000 0.0000 0.0000
# 3 35.2698 34.2854 129.7927 0.0000 0.0000 0.0000
# 4 0.0000 0.0000 0.0000 31.2438 0.0000 0.0000
# 5 0.0000 0.0000 0.0000 0.0000 26.5015 0.0000
# 6 0.0000 0.0000 0.0000 0.0000 0.0000 30.8925
#
#
#
# Elastic Compliance Matrix: (Units=1/GPa)
#
#
# Indices 1 2 3 4 5 6 
#
# 1 0.014455 -0.001864 -0.003436 0.000000 0.000000 0.000000
# 2 -0.001864 0.010439 -0.002251 0.000000 0.000000 0.000000
# 3 -0.003436 -0.002251 0.009233 0.000000 0.000000 0.000000
# 4 0.000000 0.000000 0.000000 0.032006 0.000000 0.000000
# 5 0.000000 0.000000 0.000000 0.000000 0.037734 0.000000
# 6 0.000000 0.000000 0.000000 0.000000 0.000000 0.032370
#
#
# Mechanical properties :
#
#
# Convention : Reuss Voigt Hill
#
# Bulk Modulus (GPa) = 52.56065 55.59196 54.07630
# Shear Modulus (GPa) = 31.70999 32.77991 32.24495
#
# Velocity S-wave (km/s) = 3.85384 3.91832 3.88621
# Velocity P-wave (km/s) = 6.66489 6.81973 6.74275
#
# Compressibility (1/GPa) = 0.01902564
#
# Stress axis : x y z
#
# Youngs Moduli (GPa) = 69.18184 95.79671 108.30954
#
# Poissons Ratio (x) = 0.17853 0.37211
# Poissons Ratio (y) = 0.12893 0.24381
# Poissons Ratio (z) = 0.23768 0.21564
#
# Static dielectric constant tensor:
#      x y z
#    x 1.137080 0.000000 0.000000 
#    y 0.000000 1.870500 0.000000 
#    z 0.000000 0.000000 1.917500 
# 
# From -- ./inp_files/18015.got.cif
#   From: 2010.05.17/outbox.cif.g08.bks.cpg/sg20_10_cif.got.tgz:18015.got - 2010.06.03 22:52:26.
