data_PCOD9318910
_publ_section_title
;
Structure prediction by ZEFSAII (Michael W. Deem and Ramdas Pophale) SiO2 
 PCOD9318910
Probable space group: C 2 2 21
;
_chemical_formula_sum "Si O2"
_cell_formula_units_Z 48
_cell_length_a 8.100698
_cell_length_b 29.258082
_cell_length_c 8.799404
_cell_angle_alpha 90.000000
_cell_angle_beta 90.000000
_cell_angle_gamma 90.000000
_cell_volume 2085.554541
_symmetry_space_group_name_H-M "C 2 2 21"
_symmetry_group_IT_number 20
_symmetry_cell_setting 'orthorhombic'
loop_
_space_group_symop_operation_xyz
x,y,z
-x,-y,1/2+z
x,-y,-z
-x,y,1/2-z
1/2+x,1/2+y,z
1/2-x,1/2-y,1/2+z
1/2+x,1/2-y,-z
1/2-x,1/2+y,1/2-z
loop_
_atom_site_type_symbol
_atom_site_label
_atom_site_fract_x
_atom_site_fract_y
_atom_site_fract_z
Si Si1 0.233481 0.547542 0.410906
Si Si2 0.663602 0.205445 0.335499
Si Si3 0.671841 0.867205 0.161121
Si Si4 0.836251 0.449540 0.561734
Si Si5 0.636170 0.361712 0.036479
Si Si6 0.172763 0.797048 0.523270
O O1 0.266402 0.500000 0.500000
O O2 0.245928 0.550868 0.228139
O O3 0.348428 0.586319 0.482713
O O4 0.036280 0.556265 0.432370
O O5 0.500000 0.190947 0.250000
O O6 0.725667 0.165771 0.443096
O O7 0.792632 0.213715 0.198302
O O8 0.635344 0.251479 0.430056
O O9 0.500000 0.874826 0.250000
O O10 0.810756 0.860002 0.288771
O O11 0.715548 0.910147 0.054725
O O12 0.671795 0.822209 0.056341
O O13 0.804435 0.500000 0.500000
O O14 0.472379 0.333900 0.995936
#
# Coordination Sequence:
#
# PCOD9318910 Si02
#       6
#     8   8   8   8   8   8
#     4  10  21  40  68 106 147 191 239 296 353 421
#     4  12  26  46  71 101 138 188 239 294 359 440
#     4  12  23  41  67 102 138 189 238 295 358 429
#     4  10  21  37  66 105 144 186 249 298 344 419
#     4  12  25  43  70 104 145 187 238 301 365 430
#     4  12  27  47  70 103 141 181 236 299 372 438
#
# _framework density 23.015460999999998
#
# number of rings (size 3 to 8) (size 9 to 14) (size 15 to 20)
#    0.000    0.667    1.667    7.000    4.667    1.333 
#    0.000    0.833    0.000    2.000    0.000    0.000 
#    0.000    0.000    0.000    0.000    0.000    0.000 
#
# Total GULP energy -134401.776042 kJ/mol
# GULP energy per Si atom -5600.074002 kJ/mol
# Density = 2.296308 g / cm^3
# Si number density = 23.015461 Si / 1000 Ang^3
#
#
#
# Elastic Constant Matrix: (Units=GPa)
#
#
# Indices 1 2 3 4 5 6 
#
# 1 70.0040 36.1880 23.8097 0.0000 0.0000 0.0000
# 2 36.1880 121.8133 46.2013 0.0000 0.0000 0.0000
# 3 23.8097 46.2013 123.3312 0.0000 0.0000 0.0000
# 4 0.0000 0.0000 0.0000 53.4754 0.0000 0.0000
# 5 0.0000 0.0000 0.0000 0.0000 25.4566 0.0000
# 6 0.0000 0.0000 0.0000 0.0000 0.0000 32.0654
#
#
#
# Elastic Compliance Matrix: (Units=1/GPa)
#
#
# Indices 1 2 3 4 5 6 
#
# 1 0.017155 -0.004476 -0.001635 0.000000 0.000000 0.000000
# 2 -0.004476 0.010737 -0.003158 0.000000 0.000000 0.000000
# 3 -0.001635 -0.003158 0.009607 0.000000 0.000000 0.000000
# 4 0.000000 0.000000 0.000000 0.018700 0.000000 0.000000
# 5 0.000000 0.000000 0.000000 0.000000 0.039283 0.000000
# 6 0.000000 0.000000 0.000000 0.000000 0.000000 0.031186
#
#
# Mechanical properties :
#
#
# Convention : Reuss Voigt Hill
#
# Bulk Modulus (GPa) = 52.74187 58.61627 55.67907
# Shear Modulus (GPa) = 32.99760 36.12946 34.56353
#
# Velocity S-wave (km/s) = 3.79055 3.96636 3.87945
# Velocity P-wave (km/s) = 6.49025 6.81905 6.65668
#
# Compressibility (1/GPa) = 0.01896027
#
# Stress axis : x y z
#
# Youngs Moduli (GPa) = 58.29219 93.13732 104.09180
#
# Poissons Ratio (x) = 0.41690 0.17019
# Poissons Ratio (y) = 0.26093 0.32872
# Poissons Ratio (z) = 0.09531 0.29413
#
# Static dielectric constant tensor:
#      x y z
#    x 1.963830 0.000000 0.000000 
#    y 0.000000 1.791980 0.000000 
#    z 0.000000 0.000000 1.880650 
# 
# From -- ./inp_files/6452.got.cif
#   From: 2010.05.17/outbox.cif.g08.bks.cpg/sg20_4_cif.got.tgz:6452.got - 2010.06.03 22:52:26.
