data_PCOD9318879
_publ_section_title
;
Structure prediction by ZEFSAII (Michael W. Deem and Ramdas Pophale) SiO2 
 PCOD9318879
Probable space group: C 2 2 21
;
_chemical_formula_sum "Si O2"
_cell_formula_units_Z 60
_cell_length_a 14.805367
_cell_length_b 8.581065
_cell_length_c 21.533145
_cell_angle_alpha 90.000000
_cell_angle_beta 90.000000
_cell_angle_gamma 90.000000
_cell_volume 2735.695990
_symmetry_space_group_name_H-M "C 2 2 21"
_symmetry_group_IT_number 20
_symmetry_cell_setting 'orthorhombic'
loop_
_space_group_symop_operation_xyz
x,y,z
-x,-y,1/2+z
x,-y,-z
-x,y,1/2-z
1/2+x,1/2+y,z
1/2-x,1/2-y,1/2+z
1/2+x,1/2-y,-z
1/2-x,1/2+y,1/2-z
loop_
_atom_site_type_symbol
_atom_site_label
_atom_site_fract_x
_atom_site_fract_y
_atom_site_fract_z
Si Si1 0.138227 0.060669 0.400833
Si Si2 0.360852 0.643972 0.617532
Si Si3 0.892950 0.371832 0.272917
Si Si4 0.637145 0.259094 0.477781
Si Si5 0.262950 0.500000 0.500000
Si Si6 0.437099 0.829365 0.513896
Si Si7 0.558393 0.316748 0.886046
Si Si8 0.255394 0.146087 0.289579
O O1 0.174348 0.152191 0.461173
O O2 0.205636 0.049916 0.344079
O O3 0.049423 0.158778 0.382794
O O4 0.115899 0.890382 0.427137
O O5 0.308074 0.593471 0.555683
O O6 0.421337 0.776202 0.584500
O O7 0.407408 0.483965 0.637374
O O8 0.306316 0.715826 0.673778
O O9 0.906537 0.325251 0.345046
O O10 0.826567 0.231998 0.247536
O O11 0.833113 0.529932 0.262169
O O12 0.000000 0.377546 0.250000
O O13 0.705431 0.125786 0.461053
O O14 0.544578 0.174518 0.494270
O O15 0.411604 0.711844 0.457429
O O16 0.399150 0.000000 0.500000
#
# Coordination Sequence:
#
# PCOD9318879 Si02
#       8
#     8   8   8   8   4   8   8   8
#     4  10  21  41  69  96 141 184 229 293 363 429
#     4  12  24  42  66 106 145 181 239 291 372 450
#     4  12  28  54  77 103 144 193 256 316 369 426
#     4  10  21  37  61 101 143 183 225 277 361 448
#     4  12  22  36  62 102 148 182 222 290 350 448
#     4  11  21  37  63 100 140 182 229 282 358 443
#     4  11  22  44  70  96 139 192 234 301 369 425
#     4  12  27  51  73 107 139 189 251 308 365 441
#
# _framework density 21.932261
#
# number of rings (size 3 to 8) (size 9 to 14) (size 15 to 20)
#    0.000    0.800    6.000    1.600    1.867    1.067 
#    4.800    0.000    0.000    0.000    0.000    0.000 
#    0.000    0.000    0.000    0.000    0.000    0.000 
#
# Total GULP energy -167126.485038 kJ/mol
# GULP energy per Si atom -5570.882835 kJ/mol
# Density = 2.188234 g / cm^3
# Si number density = 21.932261 Si / 1000 Ang^3
#
#
#
# Elastic Constant Matrix: (Units=GPa)
#
#
# Indices 1 2 3 4 5 6 
#
# 1 92.1174 27.3042 22.1402 0.0000 0.0000 0.0000
# 2 27.3042 82.1960 -0.2695 0.0000 0.0000 0.0000
# 3 22.1402 -0.2695 38.2400 0.0000 0.0000 0.0000
# 4 0.0000 0.0000 0.0000 32.2015 0.0000 0.0000
# 5 0.0000 0.0000 0.0000 0.0000 32.8510 0.0000
# 6 0.0000 0.0000 0.0000 0.0000 0.0000 1002.1166
#
#
#
# Elastic Compliance Matrix: (Units=1/GPa)
#
#
# Indices 1 2 3 4 5 6 
#
# 1 0.014260 -0.004764 -0.008290 0.000000 0.000000 0.000000
# 2 -0.004764 0.013758 0.002855 0.000000 0.000000 0.000000
# 3 -0.008290 0.002855 0.030970 0.000000 0.000000 0.000000
# 4 0.000000 0.000000 0.000000 0.031054 0.000000 0.000000
# 5 0.000000 0.000000 0.000000 0.000000 0.030441 0.000000
# 6 0.000000 0.000000 0.000000 0.000000 0.000000 0.000998
#
#
# Mechanical properties :
#
#
# Convention : Reuss Voigt Hill
#
# Bulk Modulus (GPa) = 25.91276 34.54480 30.22878
# Shear Modulus (GPa) = 32.31160 224.32572 128.31866
#
# Velocity S-wave (km/s) = 3.84245 10.12439 7.65727
# Velocity P-wave (km/s) = 5.61484 12.34730 9.59120
#
# Compressibility (1/GPa) = 0.03859102
#
# Stress axis : x y z
#
# Youngs Moduli (GPa) = 70.12445 72.68494 32.28880
#
# Poissons Ratio (x) = 0.34629 0.26768
# Poissons Ratio (y) = 0.33409 -0.09220
# Poissons Ratio (z) = 0.58133 -0.20754
#
# Static dielectric constant tensor:
#      x y z
#    x 1.877510 0.000000 0.000000 
#    y 0.000000 -1.248390 0.000000 
#    z 0.000000 0.000000 0.814970 
# 
# From -- ./inp_files/29314.got.cif
#   From: 2010.05.17/outbox.cif.g08.bks.cpg/sg20_15_cif.got.tgz:29314.got - 2010.06.03 22:52:26.
