data_PCOD9318737
_publ_section_title
;
Structure prediction by ZEFSAII (Michael W. Deem and Ramdas Pophale) SiO2 
 PCOD9318737
Probable space group: C 2 2 21
;
_chemical_formula_sum "Si O2"
_cell_formula_units_Z 40
_cell_length_a 29.343964
_cell_length_b 16.115535
_cell_length_c 5.207454
_cell_angle_alpha 90.000000
_cell_angle_beta 90.000000
_cell_angle_gamma 90.000000
_cell_volume 2462.572080
_symmetry_space_group_name_H-M "C 2 2 21"
_symmetry_group_IT_number 20
_symmetry_cell_setting 'orthorhombic'
loop_
_space_group_symop_operation_xyz
x,y,z
-x,-y,1/2+z
x,-y,-z
-x,y,1/2-z
1/2+x,1/2+y,z
1/2-x,1/2-y,1/2+z
1/2+x,1/2-y,-z
1/2-x,1/2+y,1/2-z
loop_
_atom_site_type_symbol
_atom_site_label
_atom_site_fract_x
_atom_site_fract_y
_atom_site_fract_z
Si Si1 0.190358 0.242087 0.087083
Si Si2 0.184726 0.000000 0.500000
Si Si3 0.368760 0.407508 0.379378
Si Si4 0.972429 0.100944 0.504385
Si Si5 0.706633 0.825519 0.584358
Si Si6 0.749455 0.000000 0.500000
O O1 0.164285 0.159325 0.005756
O O2 0.243585 0.217510 0.099543
O O3 0.185121 0.310116 0.862382
O O4 0.178599 0.279047 0.363228
O O5 0.150506 0.925716 0.409642
O O6 0.218717 0.992981 0.744770
O O7 0.366834 0.500000 0.500000
O O8 0.419841 0.377628 0.439443
O O9 0.000000 0.130161 0.750000
O O10 0.973210 0.000000 0.500000
O O11 0.000000 0.127736 0.250000
O O12 0.718217 0.918606 0.501264
#
# Coordination Sequence:
#
# PCOD9318737 Si02
#       6
#     8   4   8   8   8   4
#     4  10  21  33  47  71  96 126 166 213 248 284
#     4  12  22  30  52  75  92 132 182 213 234 292
#     4  11  23  33  54  72  99 134 175 209 247 291
#     4   9  20  33  47  67  94 125 162 203 248 291
#     4  10  21  34  48  67  99 127 165 213 254 292
#     4  12  22  36  52  71  98 138 174 213 262 296
#
# _framework density 16.243178
#
# number of rings (size 3 to 8) (size 9 to 14) (size 15 to 20)
#    0.000    1.600    3.000    1.200   15.400    0.000 
#    0.000    0.000    0.000    0.000    0.000    0.000 
#    0.000    0.000    0.000   18.000    0.000    0.000 
#
# Total GULP energy -111385.012203 kJ/mol
# GULP energy per Si atom -5569.250610 kJ/mol
# Density = 1.620621 g / cm^3
# Si number density = 16.243178 Si / 1000 Ang^3
#
#
#
# Elastic Constant Matrix: (Units=GPa)
#
#
# Indices 1 2 3 4 5 6 
#
# 1 58.8954 -0.3404 24.4127 0.0000 0.0000 0.0000
# 2 -0.3404 31.9677 8.5967 0.0000 0.0000 0.0000
# 3 24.4127 8.5967 78.7308 0.0000 0.0000 0.0000
# 4 0.0000 0.0000 0.0000 17.8793 0.0000 0.0000
# 5 0.0000 0.0000 0.0000 0.0000 13.5216 0.0000
# 6 0.0000 0.0000 0.0000 0.0000 0.0000 5.2681
#
#
#
# Elastic Compliance Matrix: (Units=1/GPa)
#
#
# Indices 1 2 3 4 5 6 
#
# 1 0.019595 0.001898 -0.006283 0.000000 0.000000 0.000000
# 2 0.001898 0.032412 -0.004128 0.000000 0.000000 0.000000
# 3 -0.006283 -0.004128 0.015100 0.000000 0.000000 0.000000
# 4 0.000000 0.000000 0.000000 0.055931 0.000000 0.000000
# 5 0.000000 0.000000 0.000000 0.000000 0.073956 0.000000
# 6 0.000000 0.000000 0.000000 0.000000 0.000000 0.189823
#
#
# Mechanical properties :
#
#
# Convention : Reuss Voigt Hill
#
# Bulk Modulus (GPa) = 19.96729 26.10353 23.03541
# Shear Modulus (GPa) = 11.88960 16.46212 14.17586
#
# Velocity S-wave (km/s) = 2.70844 3.18697 2.95740
# Velocity P-wave (km/s) = 4.70109 5.44497 5.08665
#
# Compressibility (1/GPa) = 0.05008191
#
# Stress axis : x y z
#
# Youngs Moduli (GPa) = 51.03428 30.85292 66.22302
#
# Poissons Ratio (x) = -0.05857 0.41609
# Poissons Ratio (y) = -0.09688 0.27335
# Poissons Ratio (z) = 0.32066 0.12735
#
# Static dielectric constant tensor:
#      x y z
#    x 1.561020 0.000000 0.000000 
#    y 0.000000 1.540180 0.000000 
#    z 0.000000 0.000000 1.640470 
# 
# From -- ./inp_files/4189.got.cif
#   From: 2010.05.17/outbox.cif.g08.bks.cpg/sg20_3_cif.got.tgz:4189.got - 2010.06.03 22:52:26.
