data_PCOD9318612
_publ_section_title
;
Structure prediction by ZEFSAII (Michael W. Deem and Ramdas Pophale) SiO2 
 PCOD9318612
Probable space group: C 2 2 21
;
_chemical_formula_sum "Si O2"
_cell_formula_units_Z 48
_cell_length_a 15.550592
_cell_length_b 10.361251
_cell_length_c 15.010642
_cell_angle_alpha 90.000000
_cell_angle_beta 90.000000
_cell_angle_gamma 90.000000
_cell_volume 2418.568481
_symmetry_space_group_name_H-M "C 2 2 21"
_symmetry_group_IT_number 20
_symmetry_cell_setting 'orthorhombic'
loop_
_space_group_symop_operation_xyz
x,y,z
-x,-y,1/2+z
x,-y,-z
-x,y,1/2-z
1/2+x,1/2+y,z
1/2-x,1/2-y,1/2+z
1/2+x,1/2-y,-z
1/2-x,1/2+y,1/2-z
loop_
_atom_site_type_symbol
_atom_site_label
_atom_site_fract_x
_atom_site_fract_y
_atom_site_fract_z
Si Si1 0.159050 0.581063 0.256041
Si Si2 0.092256 0.180505 0.851946
Si Si3 0.603938 0.259982 0.409664
Si Si4 0.843262 0.992367 0.197453
Si Si5 0.451734 0.304140 0.898171
Si Si6 0.500000 0.111790 0.750000
Si Si7 0.923013 0.000000 0.500000
O O1 0.142628 0.695014 0.183732
O O2 0.149566 0.649285 0.352406
O O3 0.249672 0.515725 0.237120
O O4 0.083368 0.477986 0.249301
O O5 0.099964 0.076687 0.773047
O O6 0.994310 0.223293 0.872896
O O7 0.125158 0.104784 0.939432
O O8 0.652840 0.392676 0.385142
O O9 0.593647 0.243822 0.514908
O O10 0.883730 0.125190 0.165039
O O11 0.499226 0.199899 0.838009
O O12 0.515528 0.415087 0.935621
#
# Coordination Sequence:
#
# PCOD9318612 Si02
#       7
#     8   8   8   8   8   4   4
#     4  11  24  42  62  93 137 173 211 269 342 390
#     4  10  20  42  69  85 126 177 218 264 325 394
#     4  10  21  45  68  86 130 179 215 269 330 386
#     4  11  21  39  67  94 123 174 225 266 321 388
#     4  11  22  39  69  97 125 167 223 276 312 389
#     4  12  26  40  66  98 128 174 218 260 340 408
#     4  10  20  42  68  98 114 172 234 264 312 398
#
# _framework density 19.846450999999998
#
# number of rings (size 3 to 8) (size 9 to 14) (size 15 to 20)
#    0.000    1.333    5.000    2.500    4.667    0.667 
#    3.000    5.000    0.000    0.000    0.000    0.000 
#    0.000    0.000    0.000    0.000    0.000    0.000 
#
# Total GULP energy -134035.458474 kJ/mol
# GULP energy per Si atom -5584.810770 kJ/mol
# Density = 1.980128 g / cm^3
# Si number density = 19.846451 Si / 1000 Ang^3
#
#
#
# Elastic Constant Matrix: (Units=GPa)
#
#
# Indices 1 2 3 4 5 6 
#
# 1 46.0562 16.3041 1.3446 0.0000 0.0000 0.0000
# 2 16.3041 80.1719 31.1118 0.0000 0.0000 0.0000
# 3 1.3446 31.1118 78.6545 0.0000 0.0000 0.0000
# 4 0.0000 0.0000 0.0000 20.2206 0.0000 0.0000
# 5 0.0000 0.0000 0.0000 0.0000 14.2121 0.0000
# 6 0.0000 0.0000 0.0000 0.0000 0.0000 21.8793
#
#
#
# Elastic Compliance Matrix: (Units=1/GPa)
#
#
# Indices 1 2 3 4 5 6 
#
# 1 0.023603 -0.005485 0.001766 0.000000 0.000000 0.000000
# 2 -0.005485 0.016010 -0.006239 0.000000 0.000000 0.000000
# 3 0.001766 -0.006239 0.015151 0.000000 0.000000 0.000000
# 4 0.000000 0.000000 0.000000 0.049455 0.000000 0.000000
# 5 0.000000 0.000000 0.000000 0.000000 0.070362 0.000000
# 6 0.000000 0.000000 0.000000 0.000000 0.000000 0.045705
#
#
# Mechanical properties :
#
#
# Convention : Reuss Voigt Hill
#
# Bulk Modulus (GPa) = 28.69599 33.60038 31.14819
# Shear Modulus (GPa) = 19.85556 21.67055 20.76305
#
# Velocity S-wave (km/s) = 3.16643 3.30799 3.23799
# Velocity P-wave (km/s) = 5.27814 5.61759 5.45051
#
# Compressibility (1/GPa) = 0.03484807
#
# Stress axis : x y z
#
# Youngs Moduli (GPa) = 42.36764 62.46162 66.00036
#
# Poissons Ratio (x) = 0.34263 -0.11657
# Poissons Ratio (y) = 0.23240 0.41177
# Poissons Ratio (z) = -0.07483 0.38969
#
# Static dielectric constant tensor:
#      x y z
#    x 1.672690 0.000000 0.000000 
#    y 0.000000 1.700460 0.000000 
#    z 0.000000 0.000000 1.738840 
# 
# From -- ./inp_files/20682.got.cif
#   From: 2010.05.17/outbox.cif.g08.bks.cpg/sg20_11_cif.got.tgz:20682.got - 2010.06.03 22:52:26.
