data_PCOD9318103
_publ_section_title
;
Structure prediction by ZEFSAII (Michael W. Deem and Ramdas Pophale) SiO2 
 PCOD9318103
Probable space group: C 2 2 21
;
_chemical_formula_sum "Si O2"
_cell_formula_units_Z 44
_cell_length_a 18.802483
_cell_length_b 8.761120
_cell_length_c 11.807384
_cell_angle_alpha 90.000000
_cell_angle_beta 90.000000
_cell_angle_gamma 90.000000
_cell_volume 1945.039929
_symmetry_space_group_name_H-M "C 2 2 21"
_symmetry_group_IT_number 20
_symmetry_cell_setting 'orthorhombic'
loop_
_space_group_symop_operation_xyz
x,y,z
-x,-y,1/2+z
x,-y,-z
-x,y,1/2-z
1/2+x,1/2+y,z
1/2-x,1/2-y,1/2+z
1/2+x,1/2-y,-z
1/2-x,1/2+y,1/2-z
loop_
_atom_site_type_symbol
_atom_site_label
_atom_site_fract_x
_atom_site_fract_y
_atom_site_fract_z
Si Si1 0.000000 0.173896 0.250000
Si Si2 0.247702 0.423000 0.880780
Si Si3 0.547213 0.574982 0.893293
Si Si4 0.012897 0.344693 0.049854
Si Si5 0.336469 0.308212 0.226900
Si Si6 0.351073 0.168062 0.982669
O O1 0.045721 0.286465 0.168922
O O2 0.011138 0.048714 0.351473
O O3 0.279667 0.560308 0.805479
O O4 0.192091 0.325598 0.808351
O O5 0.223752 0.500000 0.000000
O O6 0.307125 0.295437 0.914566
O O7 0.600326 0.611177 0.793865
O O8 0.587407 0.500000 0.000000
O O9 0.517948 0.727576 0.946485
O O10 0.042213 0.500000 0.000000
O O11 0.928239 0.358811 0.073925
O O12 0.359750 0.235990 0.108236
O O13 0.316782 0.000000 0.000000
#
# Coordination Sequence:
#
# PCOD9318103 Si02
#       6
#     4   8   8   8   8   8
#     4  10  20  38  58  82 118 156 190 236 292 352
#     4  10  23  39  59  86 113 152 198 239 288 348
#     4  10  22  37  59  86 115 153 193 235 289 353
#     4  10  22  38  59  89 119 150 195 240 290 348
#     4  11  22  39  60  83 116 153 193 246 292 335
#     4  10  21  38  60  85 114 151 193 238 290 354
#
# _framework density 22.621644
#
# number of rings (size 3 to 8) (size 9 to 14) (size 15 to 20)
#    0.000    1.818    0.000    3.273    0.000   13.091 
#    0.000    5.455    0.000    0.000    0.000    0.000 
#    0.000    0.000    0.000    0.000    0.000    0.000 
#
# Total GULP energy -122514.087422 kJ/mol
# GULP energy per Si atom -5568.822156 kJ/mol
# Density = 2.257016 g / cm^3
# Si number density = 22.621644 Si / 1000 Ang^3
#
#
#
# Elastic Constant Matrix: (Units=GPa)
#
#
# Indices 1 2 3 4 5 6 
#
# 1 36.7046 8.8023 18.5307 0.0000 0.0000 0.0000
# 2 8.8023 145.9022 51.4025 0.0000 0.0000 0.0000
# 3 18.5307 51.4025 125.3329 0.0000 0.0000 0.0000
# 4 0.0000 0.0000 0.0000 50.9132 0.0000 0.0000
# 5 0.0000 0.0000 0.0000 0.0000 23.1345 0.0000
# 6 0.0000 0.0000 0.0000 0.0000 0.0000 18.9442
#
#
#
# Elastic Compliance Matrix: (Units=1/GPa)
#
#
# Indices 1 2 3 4 5 6 
#
# 1 0.029452 -0.000284 -0.004238 0.000000 0.000000 0.000000
# 2 -0.000284 0.008014 -0.003245 0.000000 0.000000 0.000000
# 3 -0.004238 -0.003245 0.009936 0.000000 0.000000 0.000000
# 4 0.000000 0.000000 0.000000 0.019641 0.000000 0.000000
# 5 0.000000 0.000000 0.000000 0.000000 0.043225 0.000000
# 6 0.000000 0.000000 0.000000 0.000000 0.000000 0.052787
#
#
# Mechanical properties :
#
#
# Convention : Reuss Voigt Hill
#
# Bulk Modulus (GPa) = 31.37840 51.71231 41.54535
# Shear Modulus (GPa) = 26.42526 33.87865 30.15196
#
# Velocity S-wave (km/s) = 3.42152 3.87411 3.65482
# Velocity P-wave (km/s) = 5.43232 6.55141 6.01793
#
# Compressibility (1/GPa) = 0.03186905
#
# Stress axis : x y z
#
# Youngs Moduli (GPa) = 33.95322 124.77806 100.64198
#
# Poissons Ratio (x) = 0.03540 0.42654
# Poissons Ratio (y) = 0.00963 0.32657
# Poissons Ratio (z) = 0.14390 0.40489
#
# Static dielectric constant tensor:
#      x y z
#    x 1.882810 0.000000 0.000000 
#    y 0.000000 1.851240 0.000000 
#    z 0.000000 0.000000 1.957090 
# 
# From -- ./inp_files/16598.got.cif
#   From: 2010.05.17/outbox.cif.g08.bks.cpg/sg20_9_cif.got.tgz:16598.got - 2010.06.03 22:52:26.
