data_PCOD9318159
_publ_section_title
;
Structure prediction by ZEFSAII (Michael W. Deem and Ramdas Pophale) SiO2 
 PCOD9318159
Probable space group: C 2 2 21
;
_chemical_formula_sum "Si O2"
_cell_formula_units_Z 52
_cell_length_a 9.837961
_cell_length_b 13.152783
_cell_length_c 17.092912
_cell_angle_alpha 90.000000
_cell_angle_beta 90.000000
_cell_angle_gamma 90.000000
_cell_volume 2211.764119
_symmetry_space_group_name_H-M "C 2 2 21"
_symmetry_group_IT_number 20
_symmetry_cell_setting 'orthorhombic'
loop_
_space_group_symop_operation_xyz
x,y,z
-x,-y,1/2+z
x,-y,-z
-x,y,1/2-z
1/2+x,1/2+y,z
1/2-x,1/2-y,1/2+z
1/2+x,1/2-y,-z
1/2-x,1/2+y,1/2-z
loop_
_atom_site_type_symbol
_atom_site_label
_atom_site_fract_x
_atom_site_fract_y
_atom_site_fract_z
Si Si1 0.591255 0.638297 0.417097
Si Si2 0.573598 0.071368 0.844836
Si Si3 0.698094 0.148237 0.616612
Si Si4 0.500000 0.590586 0.750000
Si Si5 0.781879 0.775292 0.218915
Si Si6 0.187985 0.500000 0.000000
Si Si7 0.283765 0.432856 0.757919
Si Si8 0.364048 0.500000 0.500000
O O1 0.613580 0.759535 0.424780
O O2 0.715025 0.584107 0.462022
O O3 0.616785 0.612694 0.325478
O O4 0.459963 0.579211 0.450884
O O5 0.414004 0.082799 0.835875
O O6 0.650843 0.173065 0.818409
O O7 0.597611 0.052335 0.935406
O O8 0.656670 0.982180 0.802617
O O9 0.781197 0.205833 0.686419
O O10 0.776432 0.074622 0.556798
O O11 0.584662 0.663349 0.691475
O O12 0.379376 0.517942 0.719609
O O13 0.771759 0.656647 0.204577
#
# Coordination Sequence:
#
# PCOD9318159 Si02
#       8
#     8   8   8   4   8   4   8   4
#     4   9  21  39  63  86 123 166 214 267 322 387
#     4  10  21  39  64  93 130 168 217 274 333 403
#     4  11  23  39  63  93 132 166 218 270 330 398
#     4  10  20  38  62  88 122 160 212 262 312 394
#     4  10  22  41  62  92 125 169 215 266 331 393
#     4   9  19  40  64  90 123 169 220 266 334 393
#     4   9  20  39  63  88 122 169 208 269 331 384
#     4  11  23  42  62  98 127 175 220 274 322 391
#
# _framework density 23.510646000000001
#
# number of rings (size 3 to 8) (size 9 to 14) (size 15 to 20)
#    0.000    2.154    0.000    1.846    6.462    1.231 
#    8.308    1.538    0.000    0.000    0.000    0.000 
#    0.000    0.000    0.000    0.000    0.000    0.000 
#
# Total GULP energy -145158.221421 kJ/mol
# GULP energy per Si atom -5583.008516 kJ/mol
# Density = 2.345713 g / cm^3
# Si number density = 23.510646 Si / 1000 Ang^3
#
#
#
# Elastic Constant Matrix: (Units=GPa)
#
#
# Indices 1 2 3 4 5 6 
#
# 1 116.0532 39.7835 18.3116 0.0000 0.0000 0.0000
# 2 39.7835 159.1083 30.1305 0.0000 0.0000 0.0000
# 3 18.3116 30.1305 58.5232 0.0000 0.0000 0.0000
# 4 0.0000 0.0000 0.0000 27.6287 0.0000 0.0000
# 5 0.0000 0.0000 0.0000 0.0000 51.9949 0.0000
# 6 0.0000 0.0000 0.0000 0.0000 0.0000 24.0329
#
#
#
# Elastic Compliance Matrix: (Units=1/GPa)
#
#
# Indices 1 2 3 4 5 6 
#
# 1 0.009624 -0.002034 -0.001964 0.000000 0.000000 0.000000
# 2 -0.002034 0.007394 -0.003170 0.000000 0.000000 0.000000
# 3 -0.001964 -0.003170 0.019334 0.000000 0.000000 0.000000
# 4 0.000000 0.000000 0.000000 0.036194 0.000000 0.000000
# 5 0.000000 0.000000 0.000000 0.000000 0.019233 0.000000
# 6 0.000000 0.000000 0.000000 0.000000 0.000000 0.041610
#
#
# Mechanical properties :
#
#
# Convention : Reuss Voigt Hill
#
# Bulk Modulus (GPa) = 45.42389 56.68177 51.05283
# Shear Modulus (GPa) = 32.24476 37.09526 34.67001
#
# Velocity S-wave (km/s) = 3.70739 3.97647 3.84428
# Velocity P-wave (km/s) = 6.13912 6.72640 6.43946
#
# Compressibility (1/GPa) = 0.02201485
#
# Stress axis : x y z
#
# Youngs Moduli (GPa) = 103.90645 135.24325 51.72257
#
# Poissons Ratio (x) = 0.27515 0.10158
# Poissons Ratio (y) = 0.21140 0.16397
# Poissons Ratio (z) = 0.20406 0.42875
#
# Static dielectric constant tensor:
#      x y z
#    x 1.908140 0.000000 0.000000 
#    y 0.000000 1.947400 0.000000 
#    z 0.000000 0.000000 1.897940 
# 
# From -- ./inp_files/26687.got.cif
#   From: 2010.05.17/outbox.cif.g08.bks.cpg/sg20_14_cif.got.tgz:26687.got - 2010.06.03 22:52:26.
