data_PCOD9318794
_publ_section_title
;
Structure prediction by ZEFSAII (Michael W. Deem and Ramdas Pophale) SiO2 
 PCOD9318794
Probable space group: C 2 2 21
;
_chemical_formula_sum "Si O2"
_cell_formula_units_Z 40
_cell_length_a 24.083113
_cell_length_b 8.556684
_cell_length_c 9.420197
_cell_angle_alpha 90.000000
_cell_angle_beta 90.000000
_cell_angle_gamma 90.000000
_cell_volume 1941.234952
_symmetry_space_group_name_H-M "C 2 2 21"
_symmetry_group_IT_number 20
_symmetry_cell_setting 'orthorhombic'
loop_
_space_group_symop_operation_xyz
x,y,z
-x,-y,1/2+z
x,-y,-z
-x,y,1/2-z
1/2+x,1/2+y,z
1/2-x,1/2-y,1/2+z
1/2+x,1/2-y,-z
1/2-x,1/2+y,1/2-z
loop_
_atom_site_type_symbol
_atom_site_label
_atom_site_fract_x
_atom_site_fract_y
_atom_site_fract_z
Si Si1 0.628399 0.567802 0.658441
Si Si2 0.219604 0.914595 0.846696
Si Si3 0.455932 0.395169 0.632504
Si Si4 0.847909 0.576870 0.152360
Si Si5 0.366092 0.858785 0.392516
O O1 0.622334 0.500000 0.500000
O O2 0.686481 0.510539 0.727110
O O3 0.584180 0.501739 0.770248
O O4 0.625233 0.753754 0.652845
O O5 0.283523 0.899739 0.802665
O O6 0.187461 0.750932 0.867960
O O7 0.216174 0.000000 0.000000
O O8 0.477356 0.500000 0.500000
O O9 0.500000 0.337801 0.750000
O O10 0.417085 0.256271 0.572195
O O11 0.878307 0.450775 0.248667
O O12 0.845660 0.500000 0.000000
O O13 0.356004 0.000000 0.500000
#
# Coordination Sequence:
#
# PCOD9318794 Si02
#       5
#     8   8   8   8   8
#     4  11  22  39  60  85 119 160 201 244 297 366
#     4  10  21  36  56  85 124 168 205 239 292 360
#     4  11  24  45  68  89 115 155 202 250 313 379
#     4  11  22  35  56  89 125 160 202 250 295 346
#     4  11  22  39  62  90 123 157 201 255 304 353
#
# _framework density 20.605440000000002
#
# number of rings (size 3 to 8) (size 9 to 14) (size 15 to 20)
#    0.000    1.200    0.000    9.000    0.000    6.400 
#    0.000    7.000    0.000    0.000    0.000    0.000 
#    0.000    0.000    0.000    0.000    0.000    0.000 
#
# Total GULP energy -111745.487423 kJ/mol
# GULP energy per Si atom -5587.274371 kJ/mol
# Density = 2.055854 g / cm^3
# Si number density = 20.605440 Si / 1000 Ang^3
#
#
#
# Elastic Constant Matrix: (Units=GPa)
#
#
# Indices 1 2 3 4 5 6 
#
# 1 16.4734 4.4495 -10.6026 0.0000 0.0000 0.0000
# 2 4.4495 133.6802 13.1439 0.0000 0.0000 0.0000
# 3 -10.6026 13.1439 84.6319 0.0000 0.0000 0.0000
# 4 0.0000 0.0000 0.0000 40.3634 0.0000 0.0000
# 5 0.0000 0.0000 0.0000 0.0000 24.0660 0.0000
# 6 0.0000 0.0000 0.0000 0.0000 0.0000 10.6268
#
#
#
# Elastic Compliance Matrix: (Units=1/GPa)
#
#
# Indices 1 2 3 4 5 6 
#
# 1 0.067282 -0.003116 0.008913 0.000000 0.000000 0.000000
# 2 -0.003116 0.007741 -0.001593 0.000000 0.000000 0.000000
# 3 0.008913 -0.001593 0.013180 0.000000 0.000000 0.000000
# 4 0.000000 0.000000 0.000000 0.024775 0.000000 0.000000
# 5 0.000000 0.000000 0.000000 0.000000 0.041552 0.000000
# 6 0.000000 0.000000 0.000000 0.000000 0.000000 0.094101
#
#
# Mechanical properties :
#
#
# Convention : Reuss Voigt Hill
#
# Bulk Modulus (GPa) = 10.35070 27.64079 18.99575
# Shear Modulus (GPa) = 18.35359 30.19757 24.27558
#
# Velocity S-wave (km/s) = 2.98772 3.83236 3.43609
# Velocity P-wave (km/s) = 4.11536 5.74683 4.99811
#
# Compressibility (1/GPa) = 0.09661184
#
# Stress axis : x y z
#
# Youngs Moduli (GPa) = 14.86280 129.18508 75.87365
#
# Poissons Ratio (x) = 0.40252 -0.67626
# Poissons Ratio (y) = 0.04631 0.12083
# Poissons Ratio (z) = -0.13247 0.20573
#
# Static dielectric constant tensor:
#      x y z
#    x 1.760960 0.000000 0.000000 
#    y 0.000000 1.698180 0.000000 
#    z 0.000000 0.000000 1.688810 
# 
# From -- ./inp_files/6109.got.cif
#   From: 2010.05.17/outbox.cif.g08.bks.cpg/sg20_4_cif.got.tgz:6109.got - 2010.06.03 22:52:26.
