data_PCOD9318219
_publ_section_title
;
Structure prediction by ZEFSAII (Michael W. Deem and Ramdas Pophale) SiO2 
 PCOD9318219
Probable space group: C 2 2 21
;
_chemical_formula_sum "Si O2"
_cell_formula_units_Z 32
_cell_length_a 10.177335
_cell_length_b 12.465231
_cell_length_c 10.452831
_cell_angle_alpha 90.000000
_cell_angle_beta 90.000000
_cell_angle_gamma 90.000000
_cell_volume 1326.075740
_symmetry_space_group_name_H-M "C 2 2 21"
_symmetry_group_IT_number 20
_symmetry_cell_setting 'orthorhombic'
loop_
_space_group_symop_operation_xyz
x,y,z
-x,-y,1/2+z
x,-y,-z
-x,y,1/2-z
1/2+x,1/2+y,z
1/2-x,1/2-y,1/2+z
1/2+x,1/2-y,-z
1/2-x,1/2+y,1/2-z
loop_
_atom_site_type_symbol
_atom_site_label
_atom_site_fract_x
_atom_site_fract_y
_atom_site_fract_z
Si Si1 0.073301 0.622068 0.126492
Si Si2 0.641616 0.357537 0.232093
Si Si3 0.153879 0.112030 0.479644
Si Si4 0.413370 0.840715 0.124602
O O1 0.101420 0.746985 0.161190
O O2 0.216498 0.576606 0.098164
O O3 0.000000 0.577607 0.250000
O O4 0.984710 0.615880 0.001168
O O5 0.500000 0.416112 0.250000
O O6 0.687603 0.341566 0.379138
O O7 0.769530 0.391577 0.152156
O O8 0.096952 0.212240 0.403122
O O9 0.077203 0.000000 0.500000
O O10 0.500000 0.852188 0.250000
#
# Coordination Sequence:
#
# PCOD9318219 Si02
#       4
#     8   8   8   8
#     4  10  20  41  66  89 123 169 221 250 299 386
#     4  10  20  38  65  90 128 162 212 254 306 376
#     4  11  23  39  62  98 135 158 202 277 321 355
#     4  11  21  39  70  91 119 176 218 248 306 386
#
# _framework density 24.131350999999999
#
# number of rings (size 3 to 8) (size 9 to 14) (size 15 to 20)
#    0.000    1.500    7.500    0.000    0.000    1.000 
#    4.500    0.000    0.000    0.000    0.000    0.000 
#    0.000    0.000    0.000    0.000    0.000    0.000 
#
# Total GULP energy -89305.041575 kJ/mol
# GULP energy per Si atom -5581.565098 kJ/mol
# Density = 2.407643 g / cm^3
# Si number density = 24.131351 Si / 1000 Ang^3
#
#
#
# Elastic Constant Matrix: (Units=GPa)
#
#
# Indices 1 2 3 4 5 6 
#
# 1 108.9030 36.3068 55.0283 0.0000 0.0000 0.0000
# 2 36.3068 92.8901 34.1366 0.0000 0.0000 0.0000
# 3 55.0283 34.1366 196.8880 0.0000 0.0000 0.0000
# 4 0.0000 0.0000 0.0000 -124.2674 0.0000 0.0000
# 5 0.0000 0.0000 0.0000 0.0000 53.7344 0.0000
# 6 0.0000 0.0000 0.0000 0.0000 0.0000 5.6661
#
#
#
# Elastic Compliance Matrix: (Units=1/GPa)
#
#
# Indices 1 2 3 4 5 6 
#
# 1 0.011725 -0.003609 -0.002651 0.000000 0.000000 0.000000
# 2 -0.003609 0.012609 -0.001178 0.000000 0.000000 0.000000
# 3 -0.002651 -0.001178 0.006024 0.000000 0.000000 0.000000
# 4 0.000000 0.000000 0.000000 -0.008047 0.000000 0.000000
# 5 0.000000 0.000000 0.000000 0.000000 0.018610 0.000000
# 6 0.000000 0.000000 0.000000 0.000000 0.000000 0.176489
#
#
# Mechanical properties :
#
#
# Convention : Reuss Voigt Hill
#
# Bulk Modulus (GPa) = 64.58666 72.18050 68.38358
# Shear Modulus (GPa) = 21.05738 5.24057 13.14897
#
# Velocity S-wave (km/s) = 2.95721 1.47526 2.33682
# Velocity P-wave (km/s) = 6.20346 5.73396 5.97332
#
# Compressibility (1/GPa) = 0.01548307
#
# Stress axis : x y z
#
# Youngs Moduli (GPa) = 85.28572 79.31114 165.99579
#
# Poissons Ratio (x) = 0.28620 0.44013
# Poissons Ratio (y) = 0.30776 0.19547
# Poissons Ratio (z) = 0.22613 0.09339
#
# Static dielectric constant tensor:
#      x y z
#    x 2.005970 0.000000 0.000000 
#    y 0.000000 1.954000 0.000000 
#    z 0.000000 0.000000 1.904470 
# 
# From -- ./inp_files/6787.got.cif
#   From: 2010.05.17/outbox.cif.g08.bks.cpg/sg20_4_cif.got.tgz:6787.got - 2010.06.03 22:52:26.
