data_PCOD9318464
_publ_section_title
;
Structure prediction by ZEFSAII (Michael W. Deem and Ramdas Pophale) SiO2 
 PCOD9318464
Probable space group: C 2 2 21
;
_chemical_formula_sum "Si O2"
_cell_formula_units_Z 60
_cell_length_a 9.698538
_cell_length_b 17.657568
_cell_length_c 16.636822
_cell_angle_alpha 90.000000
_cell_angle_beta 90.000000
_cell_angle_gamma 90.000000
_cell_volume 2849.098927
_symmetry_space_group_name_H-M "C 2 2 21"
_symmetry_group_IT_number 20
_symmetry_cell_setting 'orthorhombic'
loop_
_space_group_symop_operation_xyz
x,y,z
-x,-y,1/2+z
x,-y,-z
-x,y,1/2-z
1/2+x,1/2+y,z
1/2-x,1/2-y,1/2+z
1/2+x,1/2-y,-z
1/2-x,1/2+y,1/2-z
loop_
_atom_site_type_symbol
_atom_site_label
_atom_site_fract_x
_atom_site_fract_y
_atom_site_fract_z
Si Si1 0.333884 0.036203 0.106600
Si Si2 0.761902 0.708926 0.837209
Si Si3 0.654960 0.655072 0.102222
Si Si4 0.412400 0.431660 0.323127
Si Si5 0.500000 0.290185 0.750000
Si Si6 0.549391 0.100445 0.556310
Si Si7 0.441620 0.585032 0.986488
Si Si8 0.301984 0.800460 0.510594
O O1 0.287917 0.116403 0.144845
O O2 0.207453 0.984078 0.138584
O O3 0.461143 0.976171 0.110939
O O4 0.357133 0.071028 0.017170
O O5 0.660738 0.647019 0.799313
O O6 0.861196 0.744642 0.771038
O O7 0.867812 0.663199 0.894940
O O8 0.685907 0.765954 0.899332
O O9 0.540093 0.666280 0.169919
O O10 0.690327 0.730816 0.052647
O O11 0.578691 0.598756 0.039309
O O12 0.500000 0.465542 0.250000
O O13 0.515912 0.411726 0.394320
O O14 0.417200 0.139428 0.517647
O O15 0.339458 0.653019 0.006944
O O16 0.386159 0.500000 0.000000
#
# Coordination Sequence:
#
# PCOD9318464 Si02
#       8
#     8   8   8   8   4   8   8   8
#     4  10  21  40  66  94 128 181 220 280 347 418
#     4  11  23  43  67 100 139 181 234 289 361 409
#     4  12  23  42  71  97 136 185 235 282 353 420
#     4  11  25  42  69  98 139 185 238 285 353 425
#     4  12  26  42  66 106 146 178 234 306 350 414
#     4  10  20  40  68  95 130 176 227 281 346 427
#     4  12  24  42  66 103 135 178 234 288 340 426
#     4  12  23  40  69 102 134 175 233 290 344 425
#
# _framework density 21.059289
#
# number of rings (size 3 to 8) (size 9 to 14) (size 15 to 20)
#    0.000    0.800    6.667    1.600    4.667    0.000 
#    0.000    0.000    0.000    1.600    0.000    0.000 
#    0.000    0.000    0.000    0.000    0.000    0.000 
#
# Total GULP energy -167009.606048 kJ/mol
# GULP energy per Si atom -5566.986868 kJ/mol
# Density = 2.101136 g / cm^3
# Si number density = 21.059289 Si / 1000 Ang^3
#
#
#
# Elastic Constant Matrix: (Units=GPa)
#
#
# Indices 1 2 3 4 5 6 
#
# 1 54.5463 30.0608 7.7292 0.0000 0.0000 0.0000
# 2 30.0608 101.3117 16.0761 0.0000 0.0000 0.0000
# 3 7.7292 16.0761 58.6994 0.0000 0.0000 0.0000
# 4 0.0000 0.0000 0.0000 9.4087 0.0000 0.0000
# 5 0.0000 0.0000 0.0000 0.0000 25.4504 0.0000
# 6 0.0000 0.0000 0.0000 0.0000 0.0000 17.6306
#
#
#
# Elastic Compliance Matrix: (Units=1/GPa)
#
#
# Indices 1 2 3 4 5 6 
#
# 1 0.021992 -0.006341 -0.001159 0.000000 0.000000 0.000000
# 2 -0.006341 0.012148 -0.002492 0.000000 0.000000 0.000000
# 3 -0.001159 -0.002492 0.017871 0.000000 0.000000 0.000000
# 4 0.000000 0.000000 0.000000 0.106284 0.000000 0.000000
# 5 0.000000 0.000000 0.000000 0.000000 0.039292 0.000000
# 6 0.000000 0.000000 0.000000 0.000000 0.000000 0.056720
#
#
# Mechanical properties :
#
#
# Convention : Reuss Voigt Hill
#
# Bulk Modulus (GPa) = 31.22474 35.80997 33.51736
# Shear Modulus (GPa) = 17.54589 21.21068 19.37828
#
# Velocity S-wave (km/s) = 2.88959 3.17707 3.03673
# Velocity P-wave (km/s) = 5.09826 5.52265 5.31469
#
# Compressibility (1/GPa) = 0.03202588
#
# Stress axis : x y z
#
# Youngs Moduli (GPa) = 45.47082 82.32108 55.95651
#
# Poissons Ratio (x) = 0.52204 0.06486
# Poissons Ratio (y) = 0.28835 0.13944
# Poissons Ratio (z) = 0.05270 0.20513
#
# Static dielectric constant tensor:
#      x y z
#    x 1.800780 0.000000 0.000000 
#    y 0.000000 1.839840 0.000000 
#    z 0.000000 0.000000 1.759290 
# 
# From -- ./inp_files/23783.got.cif
#   From: 2010.05.17/outbox.cif.g08.bks.cpg/sg20_12_cif.got.tgz:23783.got - 2010.06.03 22:52:26.
