data_PCOD9318185
_publ_section_title
;
Structure prediction by ZEFSAII (Michael W. Deem and Ramdas Pophale) SiO2 
 PCOD9318185
Probable space group: C 2 2 21
;
_chemical_formula_sum "Si O2"
_cell_formula_units_Z 36
_cell_length_a 15.427776
_cell_length_b 8.661679
_cell_length_c 13.191184
_cell_angle_alpha 90.000000
_cell_angle_beta 90.000000
_cell_angle_gamma 90.000000
_cell_volume 1762.743767
_symmetry_space_group_name_H-M "C 2 2 21"
_symmetry_group_IT_number 20
_symmetry_cell_setting 'orthorhombic'
loop_
_space_group_symop_operation_xyz
x,y,z
-x,-y,1/2+z
x,-y,-z
-x,y,1/2-z
1/2+x,1/2+y,z
1/2-x,1/2-y,1/2+z
1/2+x,1/2-y,-z
1/2-x,1/2+y,1/2-z
loop_
_atom_site_type_symbol
_atom_site_label
_atom_site_fract_x
_atom_site_fract_y
_atom_site_fract_z
Si Si1 0.404507 0.681547 0.720385
Si Si2 0.718140 0.246465 0.049487
Si Si3 0.914776 0.527675 0.782951
Si Si4 0.860327 0.500000 0.000000
Si Si5 0.240743 0.579020 0.845403
O O1 0.500000 0.617368 0.750000
O O2 0.356918 0.660459 0.610858
O O3 0.334179 0.634328 0.805827
O O4 0.415356 0.866430 0.722964
O O5 0.798007 0.356922 0.023395
O O6 0.745968 0.098666 0.117723
O O7 0.698820 0.172797 0.939117
O O8 0.824455 0.600088 0.748752
O O9 0.000000 0.619101 0.750000
O O10 0.916610 0.484158 0.899959
#
# Coordination Sequence:
#
# PCOD9318185 Si02
#       5
#     8   8   8   4   8
#     4  10  20  38  63  91 123 162 201 254 309 362
#     4  10  22  37  64  88 120 167 200 251 310 368
#     4  10  22  36  63  91 122 160 206 258 300 364
#     4  12  20  38  64  90 118 162 212 244 306 370
#     4  10  20  41  61  88 128 160 203 257 310 357
#
# _framework density 20.422706000000002
#
# number of rings (size 3 to 8) (size 9 to 14) (size 15 to 20)
#    0.000    1.778    4.444    0.000    0.000    5.333 
#    0.000    3.333    0.000    0.000    0.000    0.000 
#    0.000    0.000    0.000    0.000    0.000    0.000 
#
# Total GULP energy -100208.523677 kJ/mol
# GULP energy per Si atom -5567.140204 kJ/mol
# Density = 2.037622 g / cm^3
# Si number density = 20.422706 Si / 1000 Ang^3
#
#
#
# Elastic Constant Matrix: (Units=GPa)
#
#
# Indices 1 2 3 4 5 6 
#
# 1 144.8280 5.2987 53.8593 0.0000 0.0000 0.0000
# 2 5.2987 29.3552 5.5880 0.0000 0.0000 0.0000
# 3 53.8593 5.5880 132.1971 0.0000 0.0000 0.0000
# 4 0.0000 0.0000 0.0000 17.8355 0.0000 0.0000
# 5 0.0000 0.0000 0.0000 0.0000 34.0019 0.0000
# 6 0.0000 0.0000 0.0000 0.0000 0.0000 8.2320
#
#
#
# Elastic Compliance Matrix: (Units=1/GPa)
#
#
# Indices 1 2 3 4 5 6 
#
# 1 0.008159 -0.000847 -0.003288 0.000000 0.000000 0.000000
# 2 -0.000847 0.034430 -0.001110 0.000000 0.000000 0.000000
# 3 -0.003288 -0.001110 0.008951 0.000000 0.000000 0.000000
# 4 0.000000 0.000000 0.000000 0.056068 0.000000 0.000000
# 5 0.000000 0.000000 0.000000 0.000000 0.029410 0.000000
# 6 0.000000 0.000000 0.000000 0.000000 0.000000 0.121477
#
#
# Mechanical properties :
#
#
# Convention : Reuss Voigt Hill
#
# Bulk Modulus (GPa) = 24.36122 48.43026 36.39574
# Shear Modulus (GPa) = 17.68861 28.12284 22.90573
#
# Velocity S-wave (km/s) = 2.94619 3.71487 3.35264
# Velocity P-wave (km/s) = 4.85055 6.49352 5.73121
#
# Compressibility (1/GPa) = 0.04104884
#
# Stress axis : x y z
#
# Youngs Moduli (GPa) = 122.57121 29.04465 111.71886
#
# Poissons Ratio (x) = 0.02459 0.36735
# Poissons Ratio (y) = 0.10378 0.12405
# Poissons Ratio (z) = 0.40303 0.03225
#
# Static dielectric constant tensor:
#      x y z
#    x 1.795480 0.000000 0.000000 
#    y 0.000000 1.737290 0.000000 
#    z 0.000000 0.000000 1.799810 
# 
# From -- ./inp_files/13784.got.cif
#   From: 2010.05.17/outbox.cif.g08.bks.cpg/sg20_7_cif.got.tgz:13784.got - 2010.06.03 22:52:26.
