data_PCOD9318890
_publ_section_title
;
Structure prediction by ZEFSAII (Michael W. Deem and Ramdas Pophale) SiO2 
 PCOD9318890
Probable space group: C 2 2 21
;
_chemical_formula_sum "Si O2"
_cell_formula_units_Z 52
_cell_length_a 7.607137
_cell_length_b 20.858302
_cell_length_c 17.131922
_cell_angle_alpha 90.000000
_cell_angle_beta 90.000000
_cell_angle_gamma 90.000000
_cell_volume 2718.355658
_symmetry_space_group_name_H-M "C 2 2 21"
_symmetry_group_IT_number 20
_symmetry_cell_setting 'orthorhombic'
loop_
_space_group_symop_operation_xyz
x,y,z
-x,-y,1/2+z
x,-y,-z
-x,y,1/2-z
1/2+x,1/2+y,z
1/2-x,1/2-y,1/2+z
1/2+x,1/2-y,-z
1/2-x,1/2+y,1/2-z
loop_
_atom_site_type_symbol
_atom_site_label
_atom_site_fract_x
_atom_site_fract_y
_atom_site_fract_z
Si Si1 0.500000 0.479138 0.250000
Si Si2 0.797730 0.350646 0.553808
Si Si3 0.211100 0.718608 0.606119
Si Si4 1.000000 0.954471 0.578397
Si Si5 0.289889 0.127871 0.750000
Si Si6 0.797730 0.350646 0.946191
Si Si7 0.211100 0.281392 0.106120
O O1 0.500000 0.514356 0.165231
O O2 0.326430 0.435057 0.250000
O O3 0.787559 0.289875 0.611976
O O4 0.670422 0.408530 0.573666
O O5 0.734646 0.317493 0.473090
O O6 1.000000 0.371186 0.545280
O O7 0.254347 0.671551 0.675923
O O8 0.265354 0.682507 0.526910
O O9 1.000000 0.726194 0.603166
O O10 0.829578 0.908530 0.573666
O O11 1.000000 0.000000 0.500000
O O12 0.500000 0.114844 0.750000
O O13 0.245653 0.171551 0.675924
O O14 0.787559 0.289875 0.888024
#
# Coordination Sequence:
#
# PCOD9318890 Si02
#       7
#     4   8   8   8   8   8   8
#     4  12  28  42  62  90 122 172 216 236 296 388
#     4  10  21  37  62  91 118 161 200 250 307 363
#     4   9  18  36  62  92 122 145 198 259 315 359
#     4  12  26  44  62  86 132 172 204 248 294 370
#     4  10  22  39  61  89 119 156 198 261 306 354
#     4  10  21  37  62  91 118 161 200 250 307 363
#     4   9  18  36  62  92 122 145 198 259 315 359
#
# _framework density 19.129211999999999
#
# number of rings (size 3 to 8) (size 9 to 14) (size 15 to 20)
#    0.000    1.846    1.538    1.846    4.308    3.077 
#    0.000    1.538    0.000    0.000    0.000    0.000 
#    0.000    0.000    0.000    0.000    0.000    0.000 
#
# Total GULP energy -145079.716333 kJ/mol
# GULP energy per Si atom -5579.989090 kJ/mol
# Density = 1.908567 g / cm^3
# Si number density = 19.129212 Si / 1000 Ang^3
#
#
#
# Elastic Constant Matrix: (Units=GPa)
#
#
# Indices 1 2 3 4 5 6 
#
# 1 98.8411 78.8447 43.1434 0.0000 0.0000 0.0000
# 2 78.8447 151.2843 85.8423 0.0000 0.0000 0.0000
# 3 43.1434 85.8423 115.2619 0.0000 0.0000 0.0000
# 4 0.0000 0.0000 0.0000 32.3588 0.0000 0.0000
# 5 0.0000 0.0000 0.0000 0.0000 20.0684 0.0000
# 6 0.0000 0.0000 0.0000 0.0000 0.0000 47.2690
#
#
#
# Elastic Compliance Matrix: (Units=1/GPa)
#
#
# Indices 1 2 3 4 5 6 
#
# 1 0.017328 -0.009266 0.000415 0.000000 0.000000 0.000000
# 2 -0.009266 0.016403 -0.008748 0.000000 0.000000 0.000000
# 3 0.000415 -0.008748 0.015036 0.000000 0.000000 0.000000
# 4 0.000000 0.000000 0.000000 0.030904 0.000000 0.000000
# 5 0.000000 0.000000 0.000000 0.000000 0.049830 0.000000
# 6 0.000000 0.000000 0.000000 0.000000 0.000000 0.021156
#
#
# Mechanical properties :
#
#
# Convention : Reuss Voigt Hill
#
# Bulk Modulus (GPa) = 73.70044 86.78313 80.24179
# Shear Modulus (GPa) = 26.26386 30.44302 28.35344
#
# Velocity S-wave (km/s) = 3.70938 3.99362 3.85412
# Velocity P-wave (km/s) = 7.54701 8.16888 7.86409
#
# Compressibility (1/GPa) = 0.01356844
#
# Stress axis : x y z
#
# Youngs Moduli (GPa) = 57.71147 60.96388 66.50883
#
# Poissons Ratio (x) = 0.56490 -0.02762
# Poissons Ratio (y) = 0.53477 0.58182
# Poissons Ratio (z) = -0.02397 0.53331
#
# Static dielectric constant tensor:
#      x y z
#    x 1.675760 0.000000 0.000000 
#    y 0.000000 1.645810 0.000000 
#    z 0.000000 0.000000 1.702760 
# 
# From -- ./inp_files/23711.got.cif
#   From: 2010.05.17/outbox.cif.g08.bks.cpg/sg20_12_cif.got.tgz:23711.got - 2010.06.03 22:52:26.
