data_PCOD9318565
_publ_section_title
;
Structure prediction by ZEFSAII (Michael W. Deem and Ramdas Pophale) SiO2 
 PCOD9318565
Probable space group: C 2 2 21
;
_chemical_formula_sum "Si O2"
_cell_formula_units_Z 52
_cell_length_a 8.977400
_cell_length_b 13.902646
_cell_length_c 21.135345
_cell_angle_alpha 90.000000
_cell_angle_beta 90.000000
_cell_angle_gamma 90.000000
_cell_volume 2637.894255
_symmetry_space_group_name_H-M "C 2 2 21"
_symmetry_group_IT_number 20
_symmetry_cell_setting 'orthorhombic'
loop_
_space_group_symop_operation_xyz
x,y,z
-x,-y,1/2+z
x,-y,-z
-x,y,1/2-z
1/2+x,1/2+y,z
1/2-x,1/2-y,1/2+z
1/2+x,1/2-y,-z
1/2-x,1/2+y,1/2-z
loop_
_atom_site_type_symbol
_atom_site_label
_atom_site_fract_x
_atom_site_fract_y
_atom_site_fract_z
Si Si1 0.656903 0.875196 0.644743
Si Si2 0.296443 0.292749 0.058948
Si Si3 0.500000 0.748769 0.750000
Si Si4 0.717018 0.049734 0.568910
Si Si5 0.945509 0.752277 0.936234
Si Si6 0.002147 0.124101 0.320637
Si Si7 0.987458 0.088634 0.852934
O O1 0.626102 0.803491 0.586695
O O2 0.594377 0.824161 0.707487
O O3 0.833151 0.876963 0.655610
O O4 0.626285 0.981861 0.618643
O O5 0.342274 0.370999 0.111154
O O6 0.121183 0.270352 0.053901
O O7 0.375260 0.314371 0.992884
O O8 0.547615 0.670278 0.804047
O O9 0.638816 0.151673 0.563565
O O10 0.882090 0.067166 0.596779
O O11 0.724886 0.000000 0.500000
O O12 0.917134 0.808488 0.870904
O O13 0.000000 0.163432 0.250000
O O14 0.053361 0.013125 0.320880
#
# Coordination Sequence:
#
# PCOD9318565 Si02
#       7
#     8   8   4   8   8   8   8
#     4   9  21  40  61  83 127 159 201 255 311 371
#     4  10  21  40  63  94 118 162 209 257 310 365
#     4  10  20  42  62  94 116 160 212 260 310 374
#     4  11  22  42  62  90 124 168 203 257 321 369
#     4  11  23  41  64  91 130 161 207 262 309 375
#     4  10  22  41  58  90 124 163 203 253 309 374
#     4  10  22  39  67  86 122 165 207 256 316 374
#
# _framework density 19.712693999999999
#
# number of rings (size 3 to 8) (size 9 to 14) (size 15 to 20)
#    0.000    1.846    2.308    0.923    6.462    0.000 
#    6.923    0.000    0.000    0.000    0.000    0.000 
#    0.000    0.000    0.000    0.000    0.000    0.000 
#
# Total GULP energy -144785.652058 kJ/mol
# GULP energy per Si atom -5568.678925 kJ/mol
# Density = 1.966783 g / cm^3
# Si number density = 19.712694 Si / 1000 Ang^3
#
#
#
# Elastic Constant Matrix: (Units=GPa)
#
#
# Indices 1 2 3 4 5 6 
#
# 1 26.4633 -1.5996 7.4646 0.0000 0.0000 0.0000
# 2 -1.5996 64.0855 26.9832 0.0000 0.0000 0.0000
# 3 7.4646 26.9832 114.9396 0.0000 0.0000 0.0000
# 4 0.0000 0.0000 0.0000 31.7863 0.0000 0.0000
# 5 0.0000 0.0000 0.0000 0.0000 25.5914 0.0000
# 6 0.0000 0.0000 0.0000 0.0000 0.0000 19.4200
#
#
#
# Elastic Compliance Matrix: (Units=1/GPa)
#
#
# Indices 1 2 3 4 5 6 
#
# 1 0.038784 0.002251 -0.003047 0.000000 0.000000 0.000000
# 2 0.002251 0.017446 -0.004242 0.000000 0.000000 0.000000
# 3 -0.003047 -0.004242 0.009894 0.000000 0.000000 0.000000
# 4 0.000000 0.000000 0.000000 0.031460 0.000000 0.000000
# 5 0.000000 0.000000 0.000000 0.000000 0.039076 0.000000
# 6 0.000000 0.000000 0.000000 0.000000 0.000000 0.051493
#
#
# Mechanical properties :
#
#
# Convention : Reuss Voigt Hill
#
# Bulk Modulus (GPa) = 17.84183 30.13166 23.98674
# Shear Modulus (GPa) = 23.05083 26.86889 24.95986
#
# Velocity S-wave (km/s) = 3.42327 3.69592 3.56221
# Velocity P-wave (km/s) = 4.96947 5.79066 5.39571
#
# Compressibility (1/GPa) = 0.05604806
#
# Stress axis : x y z
#
# Youngs Moduli (GPa) = 25.78395 57.31843 101.07186
#
# Poissons Ratio (x) = -0.12903 0.30799
# Poissons Ratio (y) = -0.05804 0.42874
# Poissons Ratio (z) = 0.07857 0.24314
#
# Static dielectric constant tensor:
#      x y z
#    x 1.672320 0.000000 0.000000 
#    y 0.000000 1.721970 0.000000 
#    z 0.000000 0.000000 1.763830 
# 
# From -- ./inp_files/26674.got.cif
#   From: 2010.05.17/outbox.cif.g08.bks.cpg/sg20_14_cif.got.tgz:26674.got - 2010.06.03 22:52:26.
