data_PCOD9318106
_publ_section_title
;
Structure prediction by ZEFSAII (Michael W. Deem and Ramdas Pophale) SiO2 
 PCOD9318106
Probable space group: C 2 2 21
;
_chemical_formula_sum "Si O2"
_cell_formula_units_Z 40
_cell_length_a 6.315106
_cell_length_b 8.259603
_cell_length_c 28.440871
_cell_angle_alpha 90.000000
_cell_angle_beta 90.000000
_cell_angle_gamma 90.000000
_cell_volume 1483.483467
_symmetry_space_group_name_H-M "C 2 2 21"
_symmetry_group_IT_number 20
_symmetry_cell_setting 'orthorhombic'
loop_
_space_group_symop_operation_xyz
x,y,z
-x,-y,1/2+z
x,-y,-z
-x,y,1/2-z
1/2+x,1/2+y,z
1/2-x,1/2-y,1/2+z
1/2+x,1/2-y,-z
1/2-x,1/2+y,1/2-z
loop_
_atom_site_type_symbol
_atom_site_label
_atom_site_fract_x
_atom_site_fract_y
_atom_site_fract_z
Si Si1 0.491369 0.153431 0.528616
Si Si2 0.012512 0.149441 0.562478
Si Si3 0.134648 0.309283 0.653491
Si Si4 0.555397 0.323127 0.614634
Si Si5 0.971789 0.006824 0.696863
O O1 0.263997 0.114566 0.550610
O O2 0.450323 0.289247 0.489284
O O3 0.636320 0.208766 0.572706
O O4 0.570722 0.000000 0.500000
O O5 0.013397 0.289504 0.603684
O O6 0.955314 0.975645 0.585280
O O7 0.362009 0.229055 0.639358
O O8 0.234771 0.468915 0.676951
O O9 0.019642 0.194666 0.690104
O O10 0.635998 0.414503 0.661197
O O11 0.000000 0.953631 0.750000
#
# Coordination Sequence:
#
# PCOD9318106 Si02
#       5
#     8   8   8   8   8
#     4  11  21  33  56  90 127 172 231 279 352 413
#     4  10  20  38  58  88 131 180 221 288 337 429
#     4   8  18  35  64  93 130 176 221 288 350 423
#     4   8  18  36  60  86 128 173 225 281 347 415
#     4   9  17  36  67  93 130 175 230 293 356 422
#
# _framework density 26.963564999999999
#
# number of rings (size 3 to 8) (size 9 to 14) (size 15 to 20)
#    1.200    1.600    0.000    1.800    0.000    3.200 
#    0.000    2.000   26.400    0.000    0.000    0.000 
#    0.000    0.000    0.000    0.000    0.000    0.000 
#
# Total GULP energy -111369.509814 kJ/mol
# GULP energy per Si atom -5568.475491 kJ/mol
# Density = 2.690219 g / cm^3
# Si number density = 26.963565 Si / 1000 Ang^3
#
#
#
# Elastic Constant Matrix: (Units=GPa)
#
#
# Indices 1 2 3 4 5 6 
#
# 1 0.1458 35.2743 25.4305 0.0000 0.0000 0.0000
# 2 35.2743 105.3610 51.7472 0.0000 0.0000 0.0000
# 3 25.4305 51.7472 186.3465 0.0000 0.0000 0.0000
# 4 0.0000 0.0000 0.0000 37.3863 0.0000 0.0000
# 5 0.0000 0.0000 0.0000 0.0000 24.6717 0.0000
# 6 0.0000 0.0000 0.0000 0.0000 0.0000 50.3068
#
#
#
# Elastic Compliance Matrix: (Units=1/GPa)
#
#
# Indices 1 2 3 4 5 6 
#
# 1 -0.082835 0.025684 0.004172 0.000000 0.000000 0.000000
# 2 0.025684 0.003027 -0.004345 0.000000 0.000000 0.000000
# 3 0.004172 -0.004345 0.006004 0.000000 0.000000 0.000000
# 4 0.000000 0.000000 0.000000 0.026748 0.000000 0.000000
# 5 0.000000 0.000000 0.000000 0.000000 0.040532 0.000000
# 6 0.000000 0.000000 0.000000 0.000000 0.000000 0.019878
#
#
# Mechanical properties :
#
#
# Convention : Reuss Voigt Hill
#
# Bulk Modulus (GPa) = -43.89049 57.41747 6.76349
# Shear Modulus (GPa) = -110.46781 34.43306 -38.01738
#
# Velocity S-wave (km/s) = -6.40767 3.57742 -3.75901
# Velocity P-wave (km/s) = 8.42955 6.19715 4.04059
#
# Compressibility (1/GPa) = -0.02278398
#
# Stress axis : x y z
#
# Youngs Moduli (GPa) = -12.07219 330.39493 166.56436
#
# Poissons Ratio (x) = -8.48574 -0.69494
# Poissons Ratio (y) = 0.31006 0.72381
# Poissons Ratio (z) = 0.05037 1.43573
#
# Static dielectric constant tensor:
#      x y z
#    x 2.390110 0.000000 0.000000 
#    y 0.000000 2.146790 0.000000 
#    z 0.000000 0.000000 2.089010 
# 
# From -- ./inp_files/30042.got.cif
#   From: 2010.05.17/outbox.cif.g08.bks.cpg/sg20_16_cif.got.tgz:30042.got - 2010.06.03 22:52:26.
