data_PCOD9318924
_publ_section_title
;
Structure prediction by ZEFSAII (Michael W. Deem and Ramdas Pophale) SiO2 
 PCOD9318924
Probable space group: C 2 2 21
;
_chemical_formula_sum "Si O2"
_cell_formula_units_Z 60
_cell_length_a 13.930462
_cell_length_b 8.413672
_cell_length_c 24.235800
_cell_angle_alpha 90.000000
_cell_angle_beta 90.000000
_cell_angle_gamma 90.000000
_cell_volume 2840.589368
_symmetry_space_group_name_H-M "C 2 2 21"
_symmetry_group_IT_number 20
_symmetry_cell_setting 'orthorhombic'
loop_
_space_group_symop_operation_xyz
x,y,z
-x,-y,1/2+z
x,-y,-z
-x,y,1/2-z
1/2+x,1/2+y,z
1/2-x,1/2-y,1/2+z
1/2+x,1/2-y,-z
1/2-x,1/2+y,1/2-z
loop_
_atom_site_type_symbol
_atom_site_label
_atom_site_fract_x
_atom_site_fract_y
_atom_site_fract_z
Si Si1 0.265994 0.520432 0.200631
Si Si2 0.286927 0.307832 0.501667
Si Si3 0.011072 0.419216 0.888971
Si Si4 0.173930 0.056984 0.176841
Si Si5 0.563056 0.145292 0.800745
Si Si6 0.930583 0.500000 0.500000
Si Si7 0.792425 0.246814 0.619137
Si Si8 0.674754 0.251853 0.383641
O O1 0.322703 0.519328 0.258064
O O2 0.158883 0.455296 0.214737
O O3 0.265669 0.693992 0.172505
O O4 0.302819 0.410727 0.150461
O O5 0.313191 0.500000 0.500000
O O6 0.243222 0.278734 0.439970
O O7 0.222552 0.270352 0.555809
O O8 0.368169 0.165497 0.503681
O O9 0.938187 0.275139 0.886670
O O10 0.997250 0.535546 0.838432
O O11 0.000840 0.501197 0.947375
O O12 0.123632 0.375953 0.887873
O O13 0.102684 0.202690 0.167124
O O14 0.277109 0.117901 0.155408
O O15 0.152173 0.909337 0.138665
O O16 0.500000 0.198551 0.750000
#
# Coordination Sequence:
#
# PCOD9318924 Si02
#       8
#     8   8   8   8   8   4   8   8
#     4  10  22  39  62  88 123 164 207 260 309 380
#     4  11  21  39  70  90 122 167 212 256 315 383
#     4  10  23  38  61  87 121 160 200 259 316 372
#     4  11  21  37  62  88 121 164 207 252 309 376
#     4  10  21  38  57  85 121 162 206 252 310 367
#     4  10  22  42  66  90 126 164 210 256 328 372
#     4  10  21  39  62  88 120 162 205 251 321 370
#     4  11  22  39  62  92 122 157 213 253 314 380
#
# _framework density 21.122375999999999
#
# number of rings (size 3 to 8) (size 9 to 14) (size 15 to 20)
#    0.000    1.600    1.333    5.600    0.933    2.133 
#    0.000    0.667   17.600    0.000    0.000    0.000 
#    0.000    0.000    0.000    0.000    0.000    0.000 
#
# Total GULP energy -167091.529432 kJ/mol
# GULP energy per Si atom -5569.717648 kJ/mol
# Density = 2.107430 g / cm^3
# Si number density = 21.122376 Si / 1000 Ang^3
#
#
#
# Elastic Constant Matrix: (Units=GPa)
#
#
# Indices 1 2 3 4 5 6 
#
# 1 36.7070 -4.0209 10.1758 0.0000 0.0000 0.0000
# 2 -4.0209 50.9908 4.8228 0.0000 0.0000 0.0000
# 3 10.1758 4.8228 97.1685 0.0000 0.0000 0.0000
# 4 0.0000 0.0000 0.0000 36.2336 0.0000 0.0000
# 5 0.0000 0.0000 0.0000 0.0000 15.6314 0.0000
# 6 0.0000 0.0000 0.0000 0.0000 0.0000 9.3921
#
#
#
# Elastic Compliance Matrix: (Units=1/GPa)
#
#
# Indices 1 2 3 4 5 6 
#
# 1 0.028379 0.002531 -0.003098 0.000000 0.000000 0.000000
# 2 0.002531 0.019930 -0.001254 0.000000 0.000000 0.000000
# 3 -0.003098 -0.001254 0.010678 0.000000 0.000000 0.000000
# 4 0.000000 0.000000 0.000000 0.027599 0.000000 0.000000
# 5 0.000000 0.000000 0.000000 0.000000 0.063974 0.000000
# 6 0.000000 0.000000 0.000000 0.000000 0.000000 0.106473
#
#
# Mechanical properties :
#
#
# Convention : Reuss Voigt Hill
#
# Bulk Modulus (GPa) = 18.06867 22.98018 20.52442
# Shear Modulus (GPa) = 17.91336 23.84401 20.87868
#
# Velocity S-wave (km/s) = 2.91533 3.36348 3.14739
# Velocity P-wave (km/s) = 4.46151 5.09776 4.79021
#
# Compressibility (1/GPa) = 0.05534443
#
# Stress axis : x y z
#
# Youngs Moduli (GPa) = 35.23771 50.17672 93.65023
#
# Poissons Ratio (x) = -0.12699 0.29008
# Poissons Ratio (y) = -0.08918 0.11746
# Poissons Ratio (z) = 0.10915 0.06293
#
# Static dielectric constant tensor:
#      x y z
#    x 1.774640 0.000000 0.000000 
#    y 0.000000 1.831300 0.000000 
#    z 0.000000 0.000000 1.855170 
# 
# From -- ./inp_files/29295.got.cif
#   From: 2010.05.17/outbox.cif.g08.bks.cpg/sg20_15_cif.got.tgz:29295.got - 2010.06.03 22:52:26.
