data_PCOD9318502
_publ_section_title
;
Structure prediction by ZEFSAII (Michael W. Deem and Ramdas Pophale) SiO2 
 PCOD9318502
Probable space group: C 2 2 21
;
_chemical_formula_sum "Si O2"
_cell_formula_units_Z 64
_cell_length_a 11.629961
_cell_length_b 31.984382
_cell_length_c 8.766790
_cell_angle_alpha 90.000000
_cell_angle_beta 90.000000
_cell_angle_gamma 90.000000
_cell_volume 3261.045254
_symmetry_space_group_name_H-M "C 2 2 21"
_symmetry_group_IT_number 20
_symmetry_cell_setting 'orthorhombic'
loop_
_space_group_symop_operation_xyz
x,y,z
-x,-y,1/2+z
x,-y,-z
-x,y,1/2-z
1/2+x,1/2+y,z
1/2-x,1/2-y,1/2+z
1/2+x,1/2-y,-z
1/2-x,1/2+y,1/2-z
loop_
_atom_site_type_symbol
_atom_site_label
_atom_site_fract_x
_atom_site_fract_y
_atom_site_fract_z
Si Si1 0.464747 0.679360 0.574629
Si Si2 0.371203 0.211029 0.176585
Si Si3 0.845069 0.116924 0.968443
Si Si4 0.702751 0.243736 0.018302
Si Si5 0.660465 0.592538 0.887667
Si Si6 0.475363 0.541754 0.075893
Si Si7 0.872439 0.341508 0.387947
Si Si8 0.631493 0.137210 0.550254
O O1 0.500000 0.688675 0.750000
O O2 0.582827 0.659809 0.509992
O O3 0.385732 0.717096 0.517774
O O4 0.387693 0.637685 0.561242
O O5 0.500000 0.213211 0.250000
O O6 0.288037 0.224999 0.312534
O O7 0.327633 0.243030 0.045589
O O8 0.352467 0.166012 0.098326
O O9 0.857236 0.096267 0.796474
O O10 0.715778 0.131047 0.983524
O O11 0.889877 0.081038 0.076518
O O12 0.637953 0.206580 0.931034
O O13 0.793375 0.594951 0.942085
O O14 0.584231 0.557780 0.973012
O O15 0.500000 0.531743 0.250000
O O16 0.427192 0.500000 0.000000
O O17 0.831712 0.342143 0.212173
O O18 0.995023 0.361936 0.421331
#
# Coordination Sequence:
#
# PCOD9318502 Si02
#       8
#     8   8   8   8   8   8   8   8
#     4   9  18  33  57  77 109 157 204 255 320 364
#     4  12  25  40  56  79 114 162 217 281 330 374
#     4   9  20  38  60  87 122 162 199 249 316 375
#     4  12  24  36  55  79 113 162 221 270 325 367
#     4   9  18  38  64  83 119 160 198 244 311 373
#     4  11  22  39  67 100 128 151 191 240 309 386
#     4  10  22  36  61  86 117 166 215 257 315 375
#     4  10  20  41  58  82 119 163 213 257 312 380
#
# _framework density 19.625609000000001
#
# number of rings (size 3 to 8) (size 9 to 14) (size 15 to 20)
#    0.000    1.750    2.500    3.000    5.250    1.000 
#    0.000    0.000    2.750    0.750    0.000    0.000 
#    0.000    0.000    0.000    0.000    0.000    0.000 
#
# Total GULP energy -178189.828192 kJ/mol
# GULP energy per Si atom -5568.432131 kJ/mol
# Density = 1.958094 g / cm^3
# Si number density = 19.625609 Si / 1000 Ang^3
#
#
#
# Elastic Constant Matrix: (Units=GPa)
#
#
# Indices 1 2 3 4 5 6 
#
# 1 67.9643 1.6583 -1.1129 0.0000 0.0000 0.0000
# 2 1.6583 52.0510 -0.4290 0.0000 0.0000 0.0000
# 3 -1.1129 -0.4290 51.8710 0.0000 0.0000 0.0000
# 4 0.0000 0.0000 0.0000 29.4695 0.0000 0.0000
# 5 0.0000 0.0000 0.0000 0.0000 25.0128 0.0000
# 6 0.0000 0.0000 0.0000 0.0000 0.0000 1.7036
#
#
#
# Elastic Compliance Matrix: (Units=1/GPa)
#
#
# Indices 1 2 3 4 5 6 
#
# 1 0.014730 -0.000467 0.000312 0.000000 0.000000 0.000000
# 2 -0.000467 0.019228 0.000149 0.000000 0.000000 0.000000
# 3 0.000312 0.000149 0.019287 0.000000 0.000000 0.000000
# 4 0.000000 0.000000 0.000000 0.033933 0.000000 0.000000
# 5 0.000000 0.000000 0.000000 0.000000 0.039980 0.000000
# 6 0.000000 0.000000 0.000000 0.000000 0.000000 0.587009
#
#
# Mechanical properties :
#
#
# Convention : Reuss Voigt Hill
#
# Bulk Modulus (GPa) = 18.78513 19.12434 18.95473
# Shear Modulus (GPa) = 6.83133 22.68849 14.75991
#
# Velocity S-wave (km/s) = 1.86772 3.40379 2.74537
# Velocity P-wave (km/s) = 3.77408 5.02130 4.44168
#
# Compressibility (1/GPa) = 0.05323360
#
# Stress axis : x y z
#
# Youngs Moduli (GPa) = 67.88815 52.00741 51.84965
#
# Poissons Ratio (x) = 0.02427 -0.01619
# Poissons Ratio (y) = 0.03168 -0.00773
# Poissons Ratio (z) = -0.02119 -0.00775
#
# Static dielectric constant tensor:
#      x y z
#    x 1.818630 0.000000 0.000000 
#    y 0.000000 1.663240 0.000000 
#    z 0.000000 0.000000 1.787690 
# 
# From -- ./inp_files/7682.got.cif
#   From: 2010.05.17/outbox.cif.g08.bks.cpg/sg20_4_cif.got.tgz:7682.got - 2010.06.03 22:52:26.
