data_PCOD9318230
_publ_section_title
;
Structure prediction by ZEFSAII (Michael W. Deem and Ramdas Pophale) SiO2 
 PCOD9318230
Probable space group: C 2 2 21
;
_chemical_formula_sum "Si O2"
_cell_formula_units_Z 36
_cell_length_a 8.084074
_cell_length_b 17.055872
_cell_length_c 12.634730
_cell_angle_alpha 90.000000
_cell_angle_beta 90.000000
_cell_angle_gamma 90.000000
_cell_volume 1742.088340
_symmetry_space_group_name_H-M "C 2 2 21"
_symmetry_group_IT_number 20
_symmetry_cell_setting 'orthorhombic'
loop_
_space_group_symop_operation_xyz
x,y,z
-x,-y,1/2+z
x,-y,-z
-x,y,1/2-z
1/2+x,1/2+y,z
1/2-x,1/2-y,1/2+z
1/2+x,1/2-y,-z
1/2-x,1/2+y,1/2-z
loop_
_atom_site_type_symbol
_atom_site_label
_atom_site_fract_x
_atom_site_fract_y
_atom_site_fract_z
Si Si1 0.189999 0.384601 0.787142
Si Si2 0.875147 0.500000 0.000000
Si Si3 0.701588 0.962161 0.109068
Si Si4 0.687437 0.655003 0.072027
Si Si5 0.183353 0.819110 0.496054
O O1 0.242625 0.475960 0.800400
O O2 0.301776 0.344140 0.699093
O O3 0.207228 0.345600 0.902542
O O4 0.000000 0.379953 0.750000
O O5 0.768514 0.427079 0.962085
O O6 0.004184 0.530402 0.910394
O O7 0.761334 0.873415 0.103319
O O8 0.774449 0.000000 0.000000
O O9 0.503760 0.663025 0.027981
O O10 0.790199 0.728555 0.028547
#
# Coordination Sequence:
#
# PCOD9318230 Si02
#       5
#     8   4   8   8   8
#     4  11  20  42  68  95 130 171 216 268 330 387
#     4  10  20  38  66  94 128 172 208 266 330 380
#     4   8  18  39  65  88 125 170 206 266 325 372
#     4  12  24  41  68 100 133 175 219 268 330 387
#     4  11  24  43  67  96 138 170 219 273 324 389
#
# _framework density 20.664853000000001
#
# number of rings (size 3 to 8) (size 9 to 14) (size 15 to 20)
#    0.667    0.889    2.222    3.333    4.667    0.000 
#    4.000    0.000    0.000    0.000    0.000    0.000 
#    0.000    0.000    0.000    0.000    0.000    0.000 
#
# Total GULP energy -100455.618812 kJ/mol
# GULP energy per Si atom -5580.867712 kJ/mol
# Density = 2.061782 g / cm^3
# Si number density = 20.664853 Si / 1000 Ang^3
#
#
#
# Elastic Constant Matrix: (Units=GPa)
#
#
# Indices 1 2 3 4 5 6 
#
# 1 108.0491 45.6650 22.6708 0.0000 0.0000 0.0000
# 2 45.6650 135.3943 41.6412 0.0000 0.0000 0.0000
# 3 22.6708 41.6412 64.7851 0.0000 0.0000 0.0000
# 4 0.0000 0.0000 0.0000 35.9477 0.0000 0.0000
# 5 0.0000 0.0000 0.0000 0.0000 28.5000 0.0000
# 6 0.0000 0.0000 0.0000 0.0000 0.0000 27.8611
#
#
#
# Elastic Compliance Matrix: (Units=1/GPa)
#
#
# Indices 1 2 3 4 5 6 
#
# 1 0.010963 -0.003138 -0.001819 0.000000 0.000000 0.000000
# 2 -0.003138 0.010104 -0.005396 0.000000 0.000000 0.000000
# 3 -0.001819 -0.005396 0.019541 0.000000 0.000000 0.000000
# 4 0.000000 0.000000 0.000000 0.027818 0.000000 0.000000
# 5 0.000000 0.000000 0.000000 0.000000 0.035088 0.000000
# 6 0.000000 0.000000 0.000000 0.000000 0.000000 0.035892
#
#
# Mechanical properties :
#
#
# Convention : Reuss Voigt Hill
#
# Bulk Modulus (GPa) = 50.25021 58.68693 54.46857
# Shear Modulus (GPa) = 29.98561 31.67852 30.83206
#
# Velocity S-wave (km/s) = 3.81339 3.91956 3.86684
# Velocity P-wave (km/s) = 6.61504 6.99607 6.80822
#
# Compressibility (1/GPa) = 0.01990041
#
# Stress axis : x y z
#
# Youngs Moduli (GPa) = 91.21587 98.97241 51.17492
#
# Poissons Ratio (x) = 0.31057 0.09311
# Poissons Ratio (y) = 0.28623 0.27615
# Poissons Ratio (z) = 0.16596 0.53408
#
# Static dielectric constant tensor:
#      x y z
#    x 1.742350 0.000000 0.000000 
#    y 0.000000 1.760060 0.000000 
#    z 0.000000 0.000000 1.787330 
# 
# From -- ./inp_files/18379.got.cif
#   From: 2010.05.17/outbox.cif.g08.bks.cpg/sg20_10_cif.got.tgz:18379.got - 2010.06.03 22:52:26.
