data_PCOD9318925
_publ_section_title
;
Structure prediction by ZEFSAII (Michael W. Deem and Ramdas Pophale) SiO2 
 PCOD9318925
Probable space group: C 2 2 21
;
_chemical_formula_sum "Si O2"
_cell_formula_units_Z 56
_cell_length_a 24.804732
_cell_length_b 4.964458
_cell_length_c 21.016507
_cell_angle_alpha 90.000000
_cell_angle_beta 90.000000
_cell_angle_gamma 90.000000
_cell_volume 2588.015760
_symmetry_space_group_name_H-M "C 2 2 21"
_symmetry_group_IT_number 20
_symmetry_cell_setting 'orthorhombic'
loop_
_space_group_symop_operation_xyz
x,y,z
-x,-y,1/2+z
x,-y,-z
-x,y,1/2-z
1/2+x,1/2+y,z
1/2-x,1/2-y,1/2+z
1/2+x,1/2-y,-z
1/2-x,1/2+y,1/2-z
loop_
_atom_site_type_symbol
_atom_site_label
_atom_site_fract_x
_atom_site_fract_y
_atom_site_fract_z
Si Si1 0.178577 0.809714 0.232917
Si Si2 0.669746 0.856022 0.568729
Si Si3 0.215388 0.261860 0.044338
Si Si4 0.699961 0.194493 0.688337
Si Si5 0.058211 0.410913 0.925951
Si Si6 0.882226 0.911356 0.625649
Si Si7 0.446325 0.254298 0.046295
O O1 0.235131 0.831814 0.194273
O O2 0.185493 0.001986 0.293980
O O3 0.130882 0.935866 0.191339
O O4 0.175350 0.504393 0.257281
O O5 0.724098 0.678173 0.568090
O O6 0.678872 0.080735 0.622275
O O7 0.612471 0.708888 0.577188
O O8 0.668547 0.000000 0.500000
O O9 0.174069 0.208953 0.100509
O O10 0.195395 0.500000 0.000000
O O11 0.217450 0.000000 0.000000
O O12 0.077131 0.660710 0.882372
O O13 0.997572 0.311283 0.910149
O O14 0.096634 0.153594 0.918509
O O15 0.058881 0.500000 0.000000
O O16 0.459804 0.500000 0.000000
O O17 0.441089 0.000000 0.000000
#
# Coordination Sequence:
#
# PCOD9318925 Si02
#       7
#     8   8   8   8   8   8   8
#     4  10  22  38  60  84 116 164 199 237 282 368
#     4  10  22  40  62  91 120 152 193 255 305 356
#     4  11  22  33  51  85 121 147 177 236 304 347
#     4  10  21  40  60  83 119 156 200 236 298 358
#     4  11  22  36  59  85 121 160 198 243 300 357
#     4  12  21  37  58  86 119 156 201 243 289 356
#     4  10  21  38  58  84 118 158 201 236 293 361
#
# _framework density 21.638197999999999
#
# number of rings (size 3 to 8) (size 9 to 14) (size 15 to 20)
#    0.000    1.429    1.429    5.571    0.000    4.571 
#    0.000    0.000    0.000    5.143    0.000    0.000 
#    0.000    0.000    0.000    0.000    0.000    0.000 
#
# Total GULP energy -156538.149591 kJ/mol
# GULP energy per Si atom -5590.648200 kJ/mol
# Density = 2.158895 g / cm^3
# Si number density = 21.638198 Si / 1000 Ang^3
#
#
#
# Elastic Constant Matrix: (Units=GPa)
#
#
# Indices 1 2 3 4 5 6 
#
# 1 112.9541 9.8912 20.7955 0.0000 0.0000 0.0000
# 2 9.8912 96.8926 -3.5918 0.0000 0.0000 0.0000
# 3 20.7955 -3.5918 57.5976 0.0000 0.0000 0.0000
# 4 0.0000 0.0000 0.0000 23.1317 0.0000 0.0000
# 5 0.0000 0.0000 0.0000 0.0000 9.8504 0.0000
# 6 0.0000 0.0000 0.0000 0.0000 0.0000 10.5344
#
#
#
# Elastic Compliance Matrix: (Units=1/GPa)
#
#
# Indices 1 2 3 4 5 6 
#
# 1 0.009601 -0.001111 -0.003536 0.000000 0.000000 0.000000
# 2 -0.001111 0.010473 0.001054 0.000000 0.000000 0.000000
# 3 -0.003536 0.001054 0.018704 0.000000 0.000000 0.000000
# 4 0.000000 0.000000 0.000000 0.043231 0.000000 0.000000
# 5 0.000000 0.000000 0.000000 0.000000 0.101518 0.000000
# 6 0.000000 0.000000 0.000000 0.000000 0.000000 0.094928
#
#
# Mechanical properties :
#
#
# Convention : Reuss Voigt Hill
#
# Bulk Modulus (GPa) = 31.65229 35.73713 33.69471
# Shear Modulus (GPa) = 16.88207 24.72658 20.80432
#
# Velocity S-wave (km/s) = 2.79623 3.38409 3.10411
# Velocity P-wave (km/s) = 5.00849 5.64102 5.33414
#
# Compressibility (1/GPa) = 0.03159330
#
# Stress axis : x y z
#
# Youngs Moduli (GPa) = 104.15110 95.48152 53.46391
#
# Poissons Ratio (x) = 0.10610 0.18904
# Poissons Ratio (y) = 0.11574 -0.05637
# Poissons Ratio (z) = 0.36827 -0.10067
#
# Static dielectric constant tensor:
#      x y z
#    x 1.848880 0.000000 0.000000 
#    y 0.000000 1.766710 0.000000 
#    z 0.000000 0.000000 1.789140 
# 
# From -- ./inp_files/28003.got.cif
#   From: 2010.05.17/outbox.cif.g08.bks.cpg/sg20_15_cif.got.tgz:28003.got - 2010.06.03 22:52:26.
