data_PCOD9318655
_publ_section_title
;
Structure prediction by ZEFSAII (Michael W. Deem and Ramdas Pophale) SiO2 
 PCOD9318655
Probable space group: C 2 2 21
;
_chemical_formula_sum "Si O2"
_cell_formula_units_Z 48
_cell_length_a 18.253066
_cell_length_b 13.736481
_cell_length_c 8.852126
_cell_angle_alpha 90.000000
_cell_angle_beta 90.000000
_cell_angle_gamma 90.000000
_cell_volume 2219.519173
_symmetry_space_group_name_H-M "C 2 2 21"
_symmetry_group_IT_number 20
_symmetry_cell_setting 'orthorhombic'
loop_
_space_group_symop_operation_xyz
x,y,z
-x,-y,1/2+z
x,-y,-z
-x,y,1/2-z
1/2+x,1/2+y,z
1/2-x,1/2-y,1/2+z
1/2+x,1/2-y,-z
1/2-x,1/2+y,1/2-z
loop_
_atom_site_type_symbol
_atom_site_label
_atom_site_fract_x
_atom_site_fract_y
_atom_site_fract_z
Si Si1 0.165877 0.759729 0.511912
Si Si2 0.321420 0.439594 0.651740
Si Si3 0.440831 0.575056 0.124049
Si Si4 0.941544 0.438344 0.364131
Si Si5 0.345255 0.934940 0.849805
Si Si6 0.816816 0.286774 0.356613
O O1 0.101124 0.834921 0.546720
O O2 0.140399 0.675098 0.399563
O O3 0.188076 0.709923 0.672996
O O4 0.239294 0.805390 0.438325
O O5 0.327012 0.500000 0.500000
O O6 0.376408 0.475954 0.779008
O O7 0.238079 0.441074 0.709168
O O8 0.337014 0.326209 0.614574
O O9 0.500000 0.604815 0.250000
O O10 0.470879 0.500000 0.000000
O O11 0.976316 0.500000 0.500000
O O12 0.899581 0.520273 0.268902
O O13 0.880667 0.359173 0.408621
O O14 0.000000 0.391861 0.250000
O O15 0.347431 0.000000 0.000000
#
# Coordination Sequence:
#
# PCOD9318655 Si02
#       6
#     8   8   8   8   8   8
#     4  10  23  42  71 104 139 177 242 289 361 411
#     4   9  21  41  70 101 137 177 232 288 353 407
#     4  11  25  43  65  97 139 185 235 290 356 416
#     4  12  28  45  68 103 151 191 238 287 371 428
#     4  10  20  43  70 101 137 181 230 295 340 428
#     4  10  23  41  70 103 138 181 233 296 341 426
#
# _framework density 21.626304999999999
#
# number of rings (size 3 to 8) (size 9 to 14) (size 15 to 20)
#    0.000    1.667    1.667    1.000    9.333    2.667 
#    0.000    0.833    0.000    0.000    0.000    0.000 
#    0.000    0.000    0.000    0.000    0.000    0.000 
#
# Total GULP energy -134153.137657 kJ/mol
# GULP energy per Si atom -5589.714069 kJ/mol
# Density = 2.157708 g / cm^3
# Si number density = 21.626305 Si / 1000 Ang^3
#
#
#
# Elastic Constant Matrix: (Units=GPa)
#
#
# Indices 1 2 3 4 5 6 
#
# 1 87.0259 42.6580 18.6713 0.0000 0.0000 0.0000
# 2 42.6580 67.9096 21.5635 0.0000 0.0000 0.0000
# 3 18.6713 21.5635 36.7662 0.0000 0.0000 0.0000
# 4 0.0000 0.0000 0.0000 34.9825 0.0000 0.0000
# 5 0.0000 0.0000 0.0000 0.0000 40.8586 0.0000
# 6 0.0000 0.0000 0.0000 0.0000 0.0000 -13.0788
#
#
#
# Elastic Compliance Matrix: (Units=1/GPa)
#
#
# Indices 1 2 3 4 5 6 
#
# 1 0.016849 -0.009667 -0.002887 0.000000 0.000000 0.000000
# 2 -0.009667 0.023642 -0.008957 0.000000 0.000000 0.000000
# 3 -0.002887 -0.008957 0.033918 0.000000 0.000000 0.000000
# 4 0.000000 0.000000 0.000000 0.028586 0.000000 0.000000
# 5 0.000000 0.000000 0.000000 0.000000 0.024475 0.000000
# 6 0.000000 0.000000 0.000000 0.000000 0.000000 -0.076459
#
#
# Mechanical properties :
#
#
# Convention : Reuss Voigt Hill
#
# Bulk Modulus (GPa) = 31.85960 39.72082 35.79021
# Shear Modulus (GPa) = 47.84986 19.80637 33.82811
#
# Velocity S-wave (km/s) = 4.70891 3.02958 3.95930
# Velocity P-wave (km/s) = 6.65800 5.53575 6.12264
#
# Compressibility (1/GPa) = 0.03138772
#
# Stress axis : x y z
#
# Youngs Moduli (GPa) = 59.35161 42.29759 29.48277
#
# Poissons Ratio (x) = 0.40889 0.08511
# Poissons Ratio (y) = 0.57376 0.26407
# Poissons Ratio (z) = 0.17133 0.37885
#
# Static dielectric constant tensor:
#      x y z
#    x 1.822300 0.000000 0.000000 
#    y 0.000000 1.778740 0.000000 
#    z 0.000000 0.000000 1.824910 
# 
# From -- ./inp_files/9332.got.cif
#   From: 2010.05.17/outbox.cif.g08.bks.cpg/sg20_5_cif.got.tgz:9332.got - 2010.06.03 22:52:26.
