data_PCOD9318619
_publ_section_title
;
Structure prediction by ZEFSAII (Michael W. Deem and Ramdas Pophale) SiO2 
 PCOD9318619
Probable space group: C 2 2 21
;
_chemical_formula_sum "Si O2"
_cell_formula_units_Z 36
_cell_length_a 24.281637
_cell_length_b 5.754091
_cell_length_c 11.577639
_cell_angle_alpha 90.000000
_cell_angle_beta 90.000000
_cell_angle_gamma 90.000000
_cell_volume 1617.613237
_symmetry_space_group_name_H-M "C 2 2 21"
_symmetry_group_IT_number 20
_symmetry_cell_setting 'orthorhombic'
loop_
_space_group_symop_operation_xyz
x,y,z
-x,-y,1/2+z
x,-y,-z
-x,y,1/2-z
1/2+x,1/2+y,z
1/2-x,1/2-y,1/2+z
1/2+x,1/2-y,-z
1/2-x,1/2+y,1/2-z
loop_
_atom_site_type_symbol
_atom_site_label
_atom_site_fract_x
_atom_site_fract_y
_atom_site_fract_z
Si Si1 0.947612 0.314724 0.196262
Si Si2 0.638933 0.197058 0.339167
Si Si3 0.062124 0.000000 0.500000
Si Si4 0.873964 0.029212 0.367148
Si Si5 0.756190 0.215779 0.314427
O O1 0.894405 0.459819 0.159211
O O2 0.968436 0.179241 0.082836
O O3 0.000000 0.448322 0.250000
O O4 0.922593 0.149555 0.295037
O O5 0.601696 0.366698 0.412956
O O6 0.639642 0.296564 0.207526
O O7 0.700457 0.196457 0.388981
O O8 0.889045 0.000000 0.500000
O O9 0.816943 0.177517 0.364695
O O10 0.752540 0.479983 0.264179
#
# Coordination Sequence:
#
# PCOD9318619 Si02
#       5
#     8   8   4   8   8
#     4  11  24  44  67  95 133 173 229 279 340 412
#     4  10  22  44  67  98 134 176 227 274 344 408
#     4  10  24  44  68  96 128 178 230 278 342 406
#     4  10  23  42  65 100 136 175 218 281 342 409
#     4  10  20  42  69  98 143 179 226 283 342 413
#
# _framework density 22.255012000000001
#
# number of rings (size 3 to 8) (size 9 to 14) (size 15 to 20)
#    0.000    1.778    2.222    0.667    1.556    6.222 
#   12.000    0.000    0.000    0.000    0.000    0.000 
#    0.000    0.000    0.000    0.000    0.000    0.000 
#
# Total GULP energy -100278.306112 kJ/mol
# GULP energy per Si atom -5571.017006 kJ/mol
# Density = 2.220436 g / cm^3
# Si number density = 22.255012 Si / 1000 Ang^3
#
#
#
# Elastic Constant Matrix: (Units=GPa)
#
#
# Indices 1 2 3 4 5 6 
#
# 1 72.0659 -12.1395 -7.2655 0.0000 0.0000 0.0000
# 2 -12.1395 59.1032 16.4478 0.0000 0.0000 0.0000
# 3 -7.2655 16.4478 107.0621 0.0000 0.0000 0.0000
# 4 0.0000 0.0000 0.0000 14.1431 0.0000 0.0000
# 5 0.0000 0.0000 0.0000 0.0000 17.7233 0.0000
# 6 0.0000 0.0000 0.0000 0.0000 0.0000 12.7419
#
#
#
# Elastic Compliance Matrix: (Units=1/GPa)
#
#
# Indices 1 2 3 4 5 6 
#
# 1 0.014404 0.002806 0.000546 0.000000 0.000000 0.000000
# 2 0.002806 0.018222 -0.002609 0.000000 0.000000 0.000000
# 3 0.000546 -0.002609 0.009778 0.000000 0.000000 0.000000
# 4 0.000000 0.000000 0.000000 0.070706 0.000000 0.000000
# 5 0.000000 0.000000 0.000000 0.000000 0.056423 0.000000
# 6 0.000000 0.000000 0.000000 0.000000 0.000000 0.078481
#
#
# Mechanical properties :
#
#
# Convention : Reuss Voigt Hill
#
# Bulk Modulus (GPa) = 22.78320 25.81298 24.29809
# Shear Modulus (GPa) = 19.14557 25.00090 22.07324
#
# Velocity S-wave (km/s) = 2.93624 3.35533 3.15275
# Velocity P-wave (km/s) = 4.66421 5.16090 4.91883
#
# Compressibility (1/GPa) = 0.04389199
#
# Stress axis : x y z
#
# Youngs Moduli (GPa) = 69.42508 54.87863 102.26774
#
# Poissons Ratio (x) = -0.15402 -0.05587
# Poissons Ratio (y) = -0.19484 0.26681
# Poissons Ratio (z) = -0.03793 0.14318
#
# Static dielectric constant tensor:
#      x y z
#    x 1.814000 0.000000 0.000000 
#    y 0.000000 1.291530 0.000000 
#    z 0.000000 0.000000 1.820920 
# 
# From -- ./inp_files/12030.got.cif
#   From: 2010.05.17/outbox.cif.g08.bks.cpg/sg20_7_cif.got.tgz:12030.got - 2010.06.03 22:52:26.
