data_PCOD9318140
_publ_section_title
;
Structure prediction by ZEFSAII (Michael W. Deem and Ramdas Pophale) SiO2 
 PCOD9318140
Probable space group: C 2 2 21
;
_chemical_formula_sum "Si O2"
_cell_formula_units_Z 60
_cell_length_a 8.401310
_cell_length_b 11.549021
_cell_length_c 27.401983
_cell_angle_alpha 90.000000
_cell_angle_beta 90.000000
_cell_angle_gamma 90.000000
_cell_volume 2658.729618
_symmetry_space_group_name_H-M "C 2 2 21"
_symmetry_group_IT_number 20
_symmetry_cell_setting 'orthorhombic'
loop_
_space_group_symop_operation_xyz
x,y,z
-x,-y,1/2+z
x,-y,-z
-x,y,1/2-z
1/2+x,1/2+y,z
1/2-x,1/2-y,1/2+z
1/2+x,1/2-y,-z
1/2-x,1/2+y,1/2-z
loop_
_atom_site_type_symbol
_atom_site_label
_atom_site_fract_x
_atom_site_fract_y
_atom_site_fract_z
Si Si1 0.542156 0.113982 0.085339
Si Si2 0.042067 0.137484 0.964693
Si Si3 0.063023 0.959405 0.303155
Si Si4 0.327649 0.793480 0.271426
Si Si5 0.752380 0.500000 0.500000
Si Si6 0.170049 0.747617 0.172775
Si Si7 0.993562 0.190861 0.143214
Si Si8 0.182757 0.908847 0.936142
O O1 0.545513 0.241231 0.061031
O O2 0.596819 0.143015 0.140784
O O3 0.359190 0.076448 0.083394
O O4 0.646385 0.034250 0.048384
O O5 0.089815 0.029751 0.931029
O O6 0.172199 0.128365 0.007707
O O7 0.869588 0.104450 0.986851
O O8 0.231025 0.902202 0.290888
O O9 0.000000 0.000182 0.250000
O O10 0.949739 0.855841 0.322888
O O11 0.069323 0.065379 0.339910
O O12 0.500000 0.825279 0.250000
O O13 0.225435 0.729699 0.229225
O O14 0.369601 0.717133 0.317823
O O15 0.340341 0.773185 0.146711
O O16 0.078825 0.185693 0.092027
#
# Coordination Sequence:
#
# PCOD9318140 Si02
#       8
#     8   8   8   8   4   8   8   8
#     4  12  22  39  62  87 119 155 195 247 299 348
#     4  10  22  42  60  83 119 154 193 248 299 347
#     4  10  20  38  61  83 113 154 194 235 288 344
#     4   9  20  39  60  87 120 153 198 247 292 353
#     4  10  22  38  62  90 116 154 204 240 292 370
#     4  10  21  36  60  89 115 151 199 242 286 349
#     4  11  21  40  60  83 122 159 190 243 302 348
#     4  10  22  38  61  89 117 154 200 240 296 367
#
# _framework density 22.567167999999999
#
# number of rings (size 3 to 8) (size 9 to 14) (size 15 to 20)
#    0.000    1.867    0.000    6.000    0.000    0.000 
#    0.000   19.333    0.000    0.000    0.000    0.000 
#    0.000    0.000    0.000    0.000    0.000    0.000 
#
# Total GULP energy -167520.674303 kJ/mol
# GULP energy per Si atom -5584.022477 kJ/mol
# Density = 2.251580 g / cm^3
# Si number density = 22.567168 Si / 1000 Ang^3
#
#
#
# Elastic Constant Matrix: (Units=GPa)
#
#
# Indices 1 2 3 4 5 6 
#
# 1 44.9140 3.0278 10.6483 0.0000 0.0000 0.0000
# 2 3.0278 40.8310 9.3545 0.0000 0.0000 0.0000
# 3 10.6483 9.3545 58.8009 0.0000 0.0000 0.0000
# 4 0.0000 0.0000 0.0000 28.5492 0.0000 0.0000
# 5 0.0000 0.0000 0.0000 0.0000 26.3826 0.0000
# 6 0.0000 0.0000 0.0000 0.0000 0.0000 -13.8961
#
#
#
# Elastic Compliance Matrix: (Units=1/GPa)
#
#
# Indices 1 2 3 4 5 6 
#
# 1 0.023288 -0.000789 -0.004092 0.000000 0.000000 0.000000
# 2 -0.000789 0.025444 -0.003905 0.000000 0.000000 0.000000
# 3 -0.004092 -0.003905 0.018369 0.000000 0.000000 0.000000
# 4 0.000000 0.000000 0.000000 0.035027 0.000000 0.000000
# 5 0.000000 0.000000 0.000000 0.000000 0.037904 0.000000
# 6 0.000000 0.000000 0.000000 0.000000 0.000000 -0.071963
#
#
# Mechanical properties :
#
#
# Convention : Reuss Voigt Hill
#
# Bulk Modulus (GPa) = 20.19017 21.17856 20.68436
# Shear Modulus (GPa) = 48.94704 16.30817 32.62760
#
# Velocity S-wave (km/s) = 4.66225 2.69113 3.80649
# Velocity P-wave (km/s) = 6.16021 4.36593 5.33899
#
# Compressibility (1/GPa) = 0.04952905
#
# Stress axis : x y z
#
# Youngs Moduli (GPa) = 42.94043 39.30140 54.44036
#
# Poissons Ratio (x) = 0.03103 0.22275
# Poissons Ratio (y) = 0.03390 0.21258
# Poissons Ratio (z) = 0.17570 0.15347
#
# Static dielectric constant tensor:
#      x y z
#    x 1.889180 0.000000 0.000000 
#    y 0.000000 1.875640 0.000000 
#    z 0.000000 0.000000 1.888490 
# 
# From -- ./inp_files/31027.got.cif
#   From: 2010.05.17/outbox.cif.g08.bks.cpg/sg20_16_cif.got.tgz:31027.got - 2010.06.03 22:52:26.
