data_PCOD9318771
_publ_section_title
;
Structure prediction by ZEFSAII (Michael W. Deem and Ramdas Pophale) SiO2 
 PCOD9318771
Probable space group: C 2 2 21
;
_chemical_formula_sum "Si O2"
_cell_formula_units_Z 44
_cell_length_a 11.059980
_cell_length_b 24.143167
_cell_length_c 6.872823
_cell_angle_alpha 90.000000
_cell_angle_beta 90.000000
_cell_angle_gamma 90.000000
_cell_volume 1835.201432
_symmetry_space_group_name_H-M "C 2 2 21"
_symmetry_group_IT_number 20
_symmetry_cell_setting 'orthorhombic'
loop_
_space_group_symop_operation_xyz
x,y,z
-x,-y,1/2+z
x,-y,-z
-x,y,1/2-z
1/2+x,1/2+y,z
1/2-x,1/2-y,1/2+z
1/2+x,1/2-y,-z
1/2-x,1/2+y,1/2-z
loop_
_atom_site_type_symbol
_atom_site_label
_atom_site_fract_x
_atom_site_fract_y
_atom_site_fract_z
Si Si1 0.761923 0.125305 0.603579
Si Si2 0.636139 0.219718 0.802061
Si Si3 0.181032 0.176502 0.412437
Si Si4 0.768719 0.564655 0.482091
Si Si5 0.000000 0.841449 0.250000
Si Si6 0.040081 0.562977 0.524155
O O1 0.717642 0.187659 0.644365
O O2 0.741980 0.089666 0.801463
O O3 0.907152 0.125926 0.607092
O O4 0.654994 0.100448 0.473320
O O5 0.500000 0.203829 0.750000
O O6 0.688524 0.196561 0.003818
O O7 0.648917 0.284959 0.767299
O O8 0.188501 0.110917 0.370814
O O9 0.086360 0.188167 0.590171
O O10 0.734098 0.500000 0.500000
O O11 0.909733 0.567394 0.420138
O O12 0.081656 0.500000 0.500000
O O13 0.000000 0.571739 0.750000
#
# Coordination Sequence:
#
# PCOD9318771 Si02
#       6
#     8   8   8   8   4   8
#     4   9  17  33  52  78 104 147 180 211 281 339
#     4  10  21  35  59  79 111 146 185 236 282 340
#     4  10  21  36  57  83 111 149 191 228 290 337
#     4   8  15  31  56  75 102 143 184 223 272 325
#     4   8  18  34  54  70 114 148 180 222 264 340
#     4   9  16  30  53  77 104 132 176 225 271 321
#
# _framework density 23.975569
#
# number of rings (size 3 to 8) (size 9 to 14) (size 15 to 20)
#    0.000    3.273    0.000    2.727    5.091    0.000 
#    0.000    9.091    8.000    0.000    0.000    0.000 
#    0.000    0.000    0.000    0.000    0.000    0.000 
#
# Total GULP energy -122469.726124 kJ/mol
# GULP energy per Si atom -5566.805733 kJ/mol
# Density = 2.392100 g / cm^3
# Si number density = 23.975569 Si / 1000 Ang^3
#
#
#
# Elastic Constant Matrix: (Units=GPa)
#
#
# Indices 1 2 3 4 5 6 
#
# 1 133.2265 23.6906 10.4536 0.0000 0.0000 0.0000
# 2 23.6906 153.0620 9.9437 0.0000 0.0000 0.0000
# 3 10.4536 9.9437 62.4858 0.0000 0.0000 0.0000
# 4 0.0000 0.0000 0.0000 27.8739 0.0000 0.0000
# 5 0.0000 0.0000 0.0000 0.0000 27.3761 0.0000
# 6 0.0000 0.0000 0.0000 0.0000 0.0000 15.5437
#
#
#
# Elastic Compliance Matrix: (Units=1/GPa)
#
#
# Indices 1 2 3 4 5 6 
#
# 1 0.007796 -0.001134 -0.001124 0.000000 0.000000 0.000000
# 2 -0.001134 0.006766 -0.000887 0.000000 0.000000 0.000000
# 3 -0.001124 -0.000887 0.016333 0.000000 0.000000 0.000000
# 4 0.000000 0.000000 0.000000 0.035876 0.000000 0.000000
# 5 0.000000 0.000000 0.000000 0.000000 0.036528 0.000000
# 6 0.000000 0.000000 0.000000 0.000000 0.000000 0.064335
#
#
# Mechanical properties :
#
#
# Convention : Reuss Voigt Hill
#
# Bulk Modulus (GPa) = 40.64064 48.55002 44.59533
# Shear Modulus (GPa) = 27.45370 34.47116 30.96243
#
# Velocity S-wave (km/s) = 3.38756 3.79590 3.59753
# Velocity P-wave (km/s) = 5.68229 6.28534 5.99141
#
# Compressibility (1/GPa) = 0.02460591
#
# Stress axis : x y z
#
# Youngs Moduli (GPa) = 128.27462 147.78933 61.22645
#
# Poissons Ratio (x) = 0.16753 0.06881
# Poissons Ratio (y) = 0.14541 0.05432
# Poissons Ratio (z) = 0.14416 0.13111
#
# Static dielectric constant tensor:
#      x y z
#    x 1.961230 0.000000 0.000000 
#    y 0.000000 1.973330 0.000000 
#    z 0.000000 0.000000 2.083070 
# 
# From -- ./inp_files/14220.got.cif
#   From: 2010.05.17/outbox.cif.g08.bks.cpg/sg20_8_cif.got.tgz:14220.got - 2010.06.03 22:52:26.
