data_PCOD9318553
_publ_section_title
;
Structure prediction by ZEFSAII (Michael W. Deem and Ramdas Pophale) SiO2 
 PCOD9318553
Probable space group: C 2 2 21
;
_chemical_formula_sum "Si O2"
_cell_formula_units_Z 64
_cell_length_a 26.530928
_cell_length_b 18.708093
_cell_length_c 6.741109
_cell_angle_alpha 90.000000
_cell_angle_beta 90.000000
_cell_angle_gamma 90.000000
_cell_volume 3345.902725
_symmetry_space_group_name_H-M "C 2 2 21"
_symmetry_group_IT_number 20
_symmetry_cell_setting 'orthorhombic'
loop_
_space_group_symop_operation_xyz
x,y,z
-x,-y,1/2+z
x,-y,-z
-x,y,1/2-z
1/2+x,1/2+y,z
1/2-x,1/2-y,1/2+z
1/2+x,1/2-y,-z
1/2-x,1/2+y,1/2-z
loop_
_atom_site_type_symbol
_atom_site_label
_atom_site_fract_x
_atom_site_fract_y
_atom_site_fract_z
Si Si1 0.059739 0.342043 0.258263
Si Si2 0.205253 0.811509 0.791035
Si Si3 0.682241 0.788623 0.850349
Si Si4 0.134773 0.171603 0.590753
Si Si5 0.953272 0.571031 0.121183
Si Si6 0.372792 0.072317 0.444050
Si Si7 0.559527 0.327239 0.749446
Si Si8 0.860496 0.085079 0.518447
O O1 0.070477 0.368497 0.480751
O O2 0.065715 0.258150 0.212383
O O3 0.000000 0.358698 0.250000
O O4 0.093286 0.388618 0.110699
O O5 0.262679 0.791246 0.747759
O O6 0.176489 0.821931 0.582939
O O7 0.190073 0.882262 0.916387
O O8 0.184858 0.748296 0.933240
O O9 0.643135 0.742598 0.720955
O O10 0.664522 0.868686 0.867383
O O11 0.083149 0.163196 0.469674
O O12 0.140319 0.108971 0.751838
O O13 0.911343 0.547827 0.275567
O O14 0.000000 0.599291 0.250000
O O15 0.969058 0.500000 0.000000
O O16 0.344906 0.000000 0.500000
O O17 0.500000 0.343931 0.750000
O O18 0.593320 0.374044 0.902503
O O19 0.864460 0.000000 0.500000
#
# Coordination Sequence:
#
# PCOD9318553 Si02
#       8
#     8   8   8   8   8   8   8   8
#     4  11  21  38  59  84 122 167 218 263 294 369
#     4  10  21  41  69  94 121 164 214 265 327 394
#     4  11  22  41  66  94 124 166 214 267 327 384
#     4  10  20  41  69  93 127 169 208 269 318 384
#     4  12  22  37  57  82 120 175 220 248 303 363
#     4  12  24  38  54  87 129 163 205 260 316 366
#     4  10  23  41  64 100 132 169 220 269 323 386
#     4  10  23  44  66  99 130 168 219 264 330 410
#
# _framework density 19.127872
#
# number of rings (size 3 to 8) (size 9 to 14) (size 15 to 20)
#    0.000    1.250    3.750    3.750    0.000    2.500 
#    4.500    0.625    0.000    0.000    0.000    0.000 
#    0.000    0.000    0.000    0.000    0.000    0.000 
#
# Total GULP energy -178507.886277 kJ/mol
# GULP energy per Si atom -5578.371446 kJ/mol
# Density = 1.908434 g / cm^3
# Si number density = 19.127872 Si / 1000 Ang^3
#
#
#
# Elastic Constant Matrix: (Units=GPa)
#
#
# Indices 1 2 3 4 5 6 
#
# 1 54.4632 8.5157 23.1514 0.0000 0.0000 0.0000
# 2 8.5157 108.8091 24.1060 0.0000 0.0000 0.0000
# 3 23.1514 24.1060 101.8140 0.0000 0.0000 0.0000
# 4 0.0000 0.0000 0.0000 11.0579 0.0000 0.0000
# 5 0.0000 0.0000 0.0000 0.0000 28.3326 0.0000
# 6 0.0000 0.0000 0.0000 0.0000 0.0000 -4.0313
#
#
#
# Elastic Compliance Matrix: (Units=1/GPa)
#
#
# Indices 1 2 3 4 5 6 
#
# 1 0.020363 -0.000599 -0.004488 0.000000 0.000000 0.000000
# 2 -0.000599 0.009717 -0.002164 0.000000 0.000000 0.000000
# 3 -0.004488 -0.002164 0.011355 0.000000 0.000000 0.000000
# 4 0.000000 0.000000 0.000000 0.090433 0.000000 0.000000
# 5 0.000000 0.000000 0.000000 0.000000 0.035295 0.000000
# 6 0.000000 0.000000 0.000000 0.000000 0.000000 -0.248056
#
#
# Mechanical properties :
#
#
# Convention : Reuss Voigt Hill
#
# Bulk Modulus (GPa) = 37.13276 41.84806 39.49041
# Shear Modulus (GPa) = -87.08864 21.02604 -33.03130
#
# Velocity S-wave (km/s) = -6.75489 3.31907 -4.16007
# Velocity P-wave (km/s) = 6.43296 6.05094 1.54421
#
# Compressibility (1/GPa) = 0.02693040
#
# Stress axis : x y z
#
# Youngs Moduli (GPa) = 49.10952 102.91451 88.06795
#
# Poissons Ratio (x) = 0.06167 0.39528
# Poissons Ratio (y) = 0.02943 0.19061
# Poissons Ratio (z) = 0.22042 0.22274
#
# Static dielectric constant tensor:
#      x y z
#    x 1.667670 0.000000 0.000000 
#    y 0.000000 1.656400 0.000000 
#    z 0.000000 0.000000 1.745950 
# 
# From -- ./inp_files/4803.got.cif
#   From: 2010.05.17/outbox.cif.g08.bks.cpg/sg20_3_cif.got.tgz:4803.got - 2010.06.03 22:52:26.
