data_PCOD9318095
_publ_section_title
;
Structure prediction by ZEFSAII (Michael W. Deem and Ramdas Pophale) SiO2 
 PCOD9318095
Probable space group: C 2 2 21
;
_chemical_formula_sum "Si O2"
_cell_formula_units_Z 56
_cell_length_a 13.578293
_cell_length_b 12.872028
_cell_length_c 16.567757
_cell_angle_alpha 90.000000
_cell_angle_beta 90.000000
_cell_angle_gamma 90.000000
_cell_volume 2895.715347
_symmetry_space_group_name_H-M "C 2 2 21"
_symmetry_group_IT_number 20
_symmetry_cell_setting 'orthorhombic'
loop_
_space_group_symop_operation_xyz
x,y,z
-x,-y,1/2+z
x,-y,-z
-x,y,1/2-z
1/2+x,1/2+y,z
1/2-x,1/2-y,1/2+z
1/2+x,1/2-y,-z
1/2-x,1/2+y,1/2-z
loop_
_atom_site_type_symbol
_atom_site_label
_atom_site_fract_x
_atom_site_fract_y
_atom_site_fract_z
Si Si1 0.219455 0.819096 0.088158
Si Si2 0.506682 0.913236 0.569299
Si Si3 0.504330 0.675574 0.570733
Si Si4 0.205116 0.415803 0.861212
Si Si5 0.000000 0.110713 0.750000
Si Si6 0.721773 0.904294 0.562465
Si Si7 0.700377 0.499916 0.799137
Si Si8 0.350683 0.500000 0.000000
O O1 0.216026 0.708195 0.130129
O O2 0.252331 0.903414 0.154342
O O3 0.109714 0.857614 0.063829
O O4 0.274782 0.811655 0.002273
O O5 0.501543 0.793783 0.538955
O O6 0.410261 0.935386 0.621686
O O7 0.616364 0.914384 0.605700
O O8 0.507021 0.000000 0.500000
O O9 0.522483 0.675386 0.668333
O O10 0.578495 0.594745 0.529250
O O11 0.239475 0.458618 0.776023
O O12 0.277768 0.465688 0.927953
O O13 0.905442 0.040233 0.729987
O O14 0.732435 0.000000 0.500000
O O15 0.803116 0.911865 0.631298
#
# Coordination Sequence:
#
# PCOD9318095 Si02
#       8
#     8   8   8   8   4   8   8   4
#     4   9  21  39  59  91 123 158 210 254 310 376
#     4  10  21  40  59  89 124 162 209 252 301 378
#     4  10  22  35  64  90 122 164 205 258 309 368
#     4  11  22  39  60  90 128 163 201 260 311 370
#     4  10  20  38  56  90 128 148 210 260 310 368
#     4   9  19  36  60  81 115 161 205 250 300 365
#     4  10  21  37  60  86 120 160 204 259 305 373
#     4  12  22  38  64  90 126 164 206 250 324 362
#
# _framework density 19.338918
#
# number of rings (size 3 to 8) (size 9 to 14) (size 15 to 20)
#    0.000    2.000    2.143    0.857    5.000    4.000 
#    2.571    0.000    0.000    0.000    0.000    0.000 
#    0.000    0.000    0.000    0.000    0.000    0.000 
#
# Total GULP energy -155919.070065 kJ/mol
# GULP energy per Si atom -5568.538217 kJ/mol
# Density = 1.929490 g / cm^3
# Si number density = 19.338918 Si / 1000 Ang^3
#
#
#
# Elastic Constant Matrix: (Units=GPa)
#
#
# Indices 1 2 3 4 5 6 
#
# 1 97.0245 35.3808 43.0503 0.0000 0.0000 0.0000
# 2 35.3808 82.4103 45.0622 0.0000 0.0000 0.0000
# 3 43.0503 45.0622 123.0774 0.0000 0.0000 0.0000
# 4 0.0000 0.0000 0.0000 25.6222 0.0000 0.0000
# 5 0.0000 0.0000 0.0000 0.0000 27.7292 0.0000
# 6 0.0000 0.0000 0.0000 0.0000 0.0000 28.8618
#
#
#
# Elastic Compliance Matrix: (Units=1/GPa)
#
#
# Indices 1 2 3 4 5 6 
#
# 1 0.013136 -0.003910 -0.003163 0.000000 0.000000 0.000000
# 2 -0.003910 0.016336 -0.004613 0.000000 0.000000 0.000000
# 3 -0.003163 -0.004613 0.010920 0.000000 0.000000 0.000000
# 4 0.000000 0.000000 0.000000 0.039029 0.000000 0.000000
# 5 0.000000 0.000000 0.000000 0.000000 0.036063 0.000000
# 6 0.000000 0.000000 0.000000 0.000000 0.000000 0.034648
#
#
# Mechanical properties :
#
#
# Convention : Reuss Voigt Hill
#
# Bulk Modulus (GPa) = 58.75732 61.05541 59.90637
# Shear Modulus (GPa) = 27.90527 28.37724 28.14125
#
# Velocity S-wave (km/s) = 3.80275 3.83477 3.81880
# Velocity P-wave (km/s) = 7.05196 7.15871 7.10554
#
# Compressibility (1/GPa) = 0.01701916
#
# Stress axis : x y z
#
# Youngs Moduli (GPa) = 76.12663 61.21591 91.57129
#
# Poissons Ratio (x) = 0.23935 0.28966
# Poissons Ratio (y) = 0.29765 0.42245
# Poissons Ratio (z) = 0.24080 0.28241
#
# Static dielectric constant tensor:
#      x y z
#    x 1.716900 0.000000 0.000000 
#    y 0.000000 1.743010 0.000000 
#    z 0.000000 0.000000 1.706810 
# 
# From -- ./inp_files/20770.got.cif
#   From: 2010.05.17/outbox.cif.g08.bks.cpg/sg20_11_cif.got.tgz:20770.got - 2010.06.03 22:52:26.
