data_PCOD9318602
_publ_section_title
;
Structure prediction by ZEFSAII (Michael W. Deem and Ramdas Pophale) SiO2 
 PCOD9318602
Probable space group: C 2 2 21
;
_chemical_formula_sum "Si O2"
_cell_formula_units_Z 36
_cell_length_a 4.896225
_cell_length_b 10.052371
_cell_length_c 25.713736
_cell_angle_alpha 90.000000
_cell_angle_beta 90.000000
_cell_angle_gamma 90.000000
_cell_volume 1265.595892
_symmetry_space_group_name_H-M "C 2 2 21"
_symmetry_group_IT_number 20
_symmetry_cell_setting 'orthorhombic'
loop_
_space_group_symop_operation_xyz
x,y,z
-x,-y,1/2+z
x,-y,-z
-x,y,1/2-z
1/2+x,1/2+y,z
1/2-x,1/2-y,1/2+z
1/2+x,1/2-y,-z
1/2-x,1/2+y,1/2-z
loop_
_atom_site_type_symbol
_atom_site_label
_atom_site_fract_x
_atom_site_fract_y
_atom_site_fract_z
Si Si1 0.261454 0.438254 0.213814
Si Si2 0.558015 0.000000 0.500000
Si Si3 0.094388 0.470786 0.376157
Si Si4 0.926947 0.766595 0.020656
Si Si5 0.794068 0.768566 0.635991
O O1 0.500000 0.492051 0.250000
O O2 0.862699 0.516311 0.335324
O O3 0.342783 0.298462 0.186321
O O4 0.000000 0.414633 0.250000
O O5 0.542254 0.992146 0.435862
O O6 0.807700 0.139012 0.499923
O O7 0.328256 0.574481 0.362931
O O8 0.077151 0.312915 0.368401
O O9 0.870377 0.770445 0.082679
O O10 0.667137 0.853311 0.995288
#
# Coordination Sequence:
#
# PCOD9318602 Si02
#       5
#     8   4   8   8   8
#     4  10  23  45  74 104 151 201 272 332 406 476
#     4  10  20  42  68 106 150 200 250 328 396 492
#     4   9  20  43  73 112 152 206 265 326 415 480
#     4  11  22  40  65  99 145 191 250 304 392 468
#     4   9  21  42  72 108 151 198 270 317 415 471
#
# _framework density 28.4451
#
# number of rings (size 3 to 8) (size 9 to 14) (size 15 to 20)
#    1.333    0.889    2.222    0.000    0.000    5.333 
#    0.000    8.889    0.000    0.000    0.000    0.000 
#    0.000    0.000    0.000    0.000    0.000    0.000 
#
# Total GULP energy -100247.475315 kJ/mol
# GULP energy per Si atom -5569.304184 kJ/mol
# Density = 2.838036 g / cm^3
# Si number density = 28.445100 Si / 1000 Ang^3
#
#
#
# Elastic Constant Matrix: (Units=GPa)
#
#
# Indices 1 2 3 4 5 6 
#
# 1 245.5412 52.9217 123.5782 0.0000 0.0000 0.0000
# 2 52.9217 217.6616 -4.8480 0.0000 0.0000 0.0000
# 3 123.5782 -4.8480 163.4202 0.0000 0.0000 0.0000
# 4 0.0000 0.0000 0.0000 16.2660 0.0000 0.0000
# 5 0.0000 0.0000 0.0000 0.0000 23.5208 0.0000
# 6 0.0000 0.0000 0.0000 0.0000 0.0000 35.1339
#
#
#
# Elastic Compliance Matrix: (Units=1/GPa)
#
#
# Indices 1 2 3 4 5 6 
#
# 1 0.007280 -0.001894 -0.005561 0.000000 0.000000 0.000000
# 2 -0.001894 0.005090 0.001583 0.000000 0.000000 0.000000
# 3 -0.005561 0.001583 0.010371 0.000000 0.000000 0.000000
# 4 0.000000 0.000000 0.000000 0.061478 0.000000 0.000000
# 5 0.000000 0.000000 0.000000 0.000000 0.042516 0.000000
# 6 0.000000 0.000000 0.000000 0.000000 0.000000 0.028463
#
#
# Mechanical properties :
#
#
# Convention : Reuss Voigt Hill
#
# Bulk Modulus (GPa) = 90.92932 107.76963 99.34947
# Shear Modulus (GPa) = 29.30725 45.31554 37.31140
#
# Velocity S-wave (km/s) = 3.21333 3.99568 3.62567
# Velocity P-wave (km/s) = 6.76781 7.69782 7.24775
#
# Compressibility (1/GPa) = 0.01099755
#
# Stress axis : x y z
#
# Youngs Moduli (GPa) = 137.37002 196.46349 96.41905
#
# Poissons Ratio (x) = 0.37206 0.53619
# Poissons Ratio (y) = 0.26015 -0.15264
# Poissons Ratio (z) = 0.76392 -0.31102
#
# Static dielectric constant tensor:
#      x y z
#    x 2.272790 0.000000 0.000000 
#    y 0.000000 2.568600 0.000000 
#    z 0.000000 0.000000 2.025570 
# 
# From -- ./inp_files/28187.got.cif
#   From: 2010.05.17/outbox.cif.g08.bks.cpg/sg20_15_cif.got.tgz:28187.got - 2010.06.03 22:52:26.
