data_PCOD9318706
_publ_section_title
;
Structure prediction by ZEFSAII (Michael W. Deem and Ramdas Pophale) SiO2 
 PCOD9318706
Probable space group: C 2 2 21
;
_chemical_formula_sum "Si O2"
_cell_formula_units_Z 40
_cell_length_a 9.222195
_cell_length_b 11.189318
_cell_length_c 16.978636
_cell_angle_alpha 90.000000
_cell_angle_beta 90.000000
_cell_angle_gamma 90.000000
_cell_volume 1752.026680
_symmetry_space_group_name_H-M "C 2 2 21"
_symmetry_group_IT_number 20
_symmetry_cell_setting 'orthorhombic'
loop_
_space_group_symop_operation_xyz
x,y,z
-x,-y,1/2+z
x,-y,-z
-x,y,1/2-z
1/2+x,1/2+y,z
1/2-x,1/2-y,1/2+z
1/2+x,1/2-y,-z
1/2-x,1/2+y,1/2-z
loop_
_atom_site_type_symbol
_atom_site_label
_atom_site_fract_x
_atom_site_fract_y
_atom_site_fract_z
Si Si1 0.396008 0.031480 0.677137
Si Si2 0.725974 0.796471 0.429735
Si Si3 0.852558 0.032879 0.705641
Si Si4 0.469359 0.880717 0.536801
Si Si5 0.034803 0.793896 0.843002
O O1 0.500000 0.048727 0.750000
O O2 0.246337 0.001766 0.719053
O O3 0.393072 0.164562 0.638241
O O4 0.467888 0.926254 0.626540
O O5 0.777875 0.873833 0.354221
O O6 0.623893 0.861625 0.494453
O O7 0.866464 0.734111 0.466318
O O8 0.612150 0.701928 0.393156
O O9 0.000000 0.074616 0.750000
O O10 0.876531 0.915602 0.651684
O O11 0.397617 0.000000 0.500000
O O12 0.000000 0.793025 0.750000
#
# Coordination Sequence:
#
# PCOD9318706 Si02
#       5
#     8   8   8   8   8
#     4  11  22  46  76 106 144 192 247 311 372 442
#     4  12  27  49  71 108 147 199 248 304 384 448
#     4  11  24  45  79 114 143 190 255 315 371 442
#     4  12  27  48  72 105 152 196 243 309 380 454
#     4  10  20  45  74 101 146 181 243 315 353 440
#
# _framework density 22.830701999999999
#
# number of rings (size 3 to 8) (size 9 to 14) (size 15 to 20)
#    0.000    0.800    6.000    2.400    0.000    7.200 
#    3.600    0.000    0.000    0.000    0.000    0.000 
#    0.000    0.000    0.000    0.000    0.000    0.000 
#
# Total GULP energy -111545.560535 kJ/mol
# GULP energy per Si atom -5577.278027 kJ/mol
# Density = 2.277874 g / cm^3
# Si number density = 22.830702 Si / 1000 Ang^3
#
#
#
# Elastic Constant Matrix: (Units=GPa)
#
#
# Indices 1 2 3 4 5 6 
#
# 1 99.9534 45.5769 41.6874 0.0000 0.0000 0.0000
# 2 45.5769 93.7242 35.3726 0.0000 0.0000 0.0000
# 3 41.6874 35.3726 98.5000 0.0000 0.0000 0.0000
# 4 0.0000 0.0000 0.0000 45.2942 0.0000 0.0000
# 5 0.0000 0.0000 0.0000 0.0000 51.8127 0.0000
# 6 0.0000 0.0000 0.0000 0.0000 0.0000 32.8154
#
#
#
# Elastic Compliance Matrix: (Units=1/GPa)
#
#
# Indices 1 2 3 4 5 6 
#
# 1 0.014135 -0.005339 -0.004065 0.000000 0.000000 0.000000
# 2 -0.005339 0.014359 -0.002897 0.000000 0.000000 0.000000
# 3 -0.004065 -0.002897 0.012913 0.000000 0.000000 0.000000
# 4 0.000000 0.000000 0.000000 0.022078 0.000000 0.000000
# 5 0.000000 0.000000 0.000000 0.000000 0.019300 0.000000
# 6 0.000000 0.000000 0.000000 0.000000 0.000000 0.030473
#
#
# Mechanical properties :
#
#
# Convention : Reuss Voigt Hill
#
# Bulk Modulus (GPa) = 59.50623 59.71683 59.61153
# Shear Modulus (GPa) = 34.85244 37.28718 36.06981
#
# Velocity S-wave (km/s) = 3.91136 4.04568 3.97908
# Velocity P-wave (km/s) = 6.82049 6.93083 6.87588
#
# Compressibility (1/GPa) = 0.01680496
#
# Stress axis : x y z
#
# Youngs Moduli (GPa) = 70.74850 69.64073 77.44232
#
# Poissons Ratio (x) = 0.37184 0.31477
# Poissons Ratio (y) = 0.37776 0.22434
# Poissons Ratio (z) = 0.28757 0.20174
#
# Static dielectric constant tensor:
#      x y z
#    x 1.741660 0.000000 0.000000 
#    y 0.000000 1.935160 0.000000 
#    z 0.000000 0.000000 1.958160 
# 
# From -- ./inp_files/23172.got.cif
#   From: 2010.05.17/outbox.cif.g08.bks.cpg/sg20_12_cif.got.tgz:23172.got - 2010.06.03 22:52:26.
