data_PCOD9318956
_publ_section_title
;
Structure prediction by ZEFSAII (Michael W. Deem and Ramdas Pophale) SiO2 
 PCOD9318956
Probable space group: C 2 2 21
;
_chemical_formula_sum "Si O2"
_cell_formula_units_Z 64
_cell_length_a 12.783119
_cell_length_b 12.755137
_cell_length_c 15.449331
_cell_angle_alpha 90.000000
_cell_angle_beta 90.000000
_cell_angle_gamma 90.000000
_cell_volume 2519.020127
_symmetry_space_group_name_H-M "C 2 2 21"
_symmetry_group_IT_number 20
_symmetry_cell_setting 'orthorhombic'
loop_
_space_group_symop_operation_xyz
x,y,z
-x,-y,1/2+z
x,-y,-z
-x,y,1/2-z
1/2+x,1/2+y,z
1/2-x,1/2-y,1/2+z
1/2+x,1/2-y,-z
1/2-x,1/2+y,1/2-z
loop_
_atom_site_type_symbol
_atom_site_label
_atom_site_fract_x
_atom_site_fract_y
_atom_site_fract_z
Si Si1 0.667607 0.885130 0.744906
Si Si2 0.619021 0.344915 0.993553
Si Si3 0.898427 0.158452 0.946602
Si Si4 0.160762 0.153800 0.756417
Si Si5 0.610267 0.109301 0.787522
Si Si6 0.105354 0.072703 0.200774
Si Si7 0.831718 0.617411 0.517365
Si Si8 0.649372 0.105497 0.463275
O O1 0.629026 0.772550 0.776429
O O2 0.656250 0.900061 0.641115
O O3 0.612351 0.982688 0.788698
O O4 0.792727 0.894558 0.756395
O O5 0.511042 0.387292 0.031966
O O6 0.608498 0.630617 0.109160
O O7 0.629079 0.224292 0.025760
O O8 0.735952 0.388902 0.008632
O O9 0.871677 0.144520 0.844939
O O10 0.794135 0.116036 0.992505
O O11 0.901130 0.280794 0.975873
O O12 0.286634 0.144194 0.764789
O O13 0.114909 0.053996 0.805470
O O14 0.500000 0.145198 0.750000
O O15 0.635084 0.142334 0.884287
O O16 0.000000 0.098211 0.250000
O O17 0.868466 0.500000 0.500000
O O18 0.598716 0.000000 0.500000
#
# Coordination Sequence:
#
# PCOD9318956 Si02
#       8
#     8   8   8   8   8   8   8   8
#     4   9  20  38  58  87 125 161 203 256 309 366
#     4  10  22  39  60  87 120 159 205 255 309 369
#     4   9  20  38  62  88 123 167 207 256 311 367
#     4   9  20  40  62  89 126 163 206 260 310 366
#     4  10  21  38  62  89 120 162 206 253 309 368
#     4  10  21  38  61  90 121 161 210 257 308 367
#     4  10  23  42  61  90 126 161 208 256 303 370
#     4   9  19  37  57  86 125 160 205 257 308 369
#
# _framework density 25.406704000000001
#
# number of rings (size 3 to 8) (size 9 to 14) (size 15 to 20)
#    0.000    2.500    0.000    2.250    0.000   11.500 
#    0.000   10.000    0.000    0.000    0.000    0.000 
#    0.000    0.000    0.000    0.000    0.000    0.000 
#
# Total GULP energy -178910.445372 kJ/mol
# GULP energy per Si atom -5590.951418 kJ/mol
# Density = 2.534888 g / cm^3
# Si number density = 25.406704 Si / 1000 Ang^3
#
#
#
# Elastic Constant Matrix: (Units=GPa)
#
#
# Indices 1 2 3 4 5 6 
#
# 1 146.6111 16.7420 32.3804 0.0000 0.0000 0.0000
# 2 16.7420 209.8386 22.8825 0.0000 0.0000 0.0000
# 3 32.3804 22.8825 63.1559 0.0000 0.0000 0.0000
# 4 0.0000 0.0000 0.0000 29.7185 0.0000 0.0000
# 5 0.0000 0.0000 0.0000 0.0000 401.0859 0.0000
# 6 0.0000 0.0000 0.0000 0.0000 0.0000 -13.0410
#
#
#
# Elastic Compliance Matrix: (Units=1/GPa)
#
#
# Indices 1 2 3 4 5 6 
#
# 1 0.007699 -0.000191 -0.003878 0.000000 0.000000 0.000000
# 2 -0.000191 0.004966 -0.001701 0.000000 0.000000 0.000000
# 3 -0.003878 -0.001701 0.018439 0.000000 0.000000 0.000000
# 4 0.000000 0.000000 0.000000 0.033649 0.000000 0.000000
# 5 0.000000 0.000000 0.000000 0.000000 0.002493 0.000000
# 6 0.000000 0.000000 0.000000 0.000000 0.000000 -0.076681
#
#
# Mechanical properties :
#
#
# Convention : Reuss Voigt Hill
#
# Bulk Modulus (GPa) = 51.11793 62.62394 56.87094
# Shear Modulus (GPa) = 579.54183 106.72605 343.13394
#
# Velocity S-wave (km/s) = 15.11956 6.48832 11.63399
# Velocity P-wave (km/s) = 18.02678 8.99072 14.24426
#
# Compressibility (1/GPa) = 0.01956261
#
# Stress axis : x y z
#
# Youngs Moduli (GPa) = 129.88485 201.35484 54.23422
#
# Poissons Ratio (x) = 0.03854 0.21032
# Poissons Ratio (y) = 0.02486 0.09227
# Poissons Ratio (z) = 0.50370 0.34256
#
# Static dielectric constant tensor:
#      x y z
#    x 1.976180 0.000000 0.000000 
#    y 0.000000 1.740860 0.000000 
#    z 0.000000 0.000000 1.993400 
# 
# From -- ./inp_files/24471.got.cif
#   From: 2010.05.17/outbox.cif.g08.bks.cpg/sg20_13_cif.got.tgz:24471.got - 2010.06.03 22:52:26.
