data_PCOD9318133
_publ_section_title
;
Structure prediction by ZEFSAII (Michael W. Deem and Ramdas Pophale) SiO2 
 PCOD9318133
Probable space group: C 2 2 21
;
_chemical_formula_sum "Si O2"
_cell_formula_units_Z 40
_cell_length_a 11.289091
_cell_length_b 19.348408
_cell_length_c 8.774370
_cell_angle_alpha 90.000000
_cell_angle_beta 90.000000
_cell_angle_gamma 90.000000
_cell_volume 1916.550003
_symmetry_space_group_name_H-M "C 2 2 21"
_symmetry_group_IT_number 20
_symmetry_cell_setting 'orthorhombic'
loop_
_space_group_symop_operation_xyz
x,y,z
-x,-y,1/2+z
x,-y,-z
-x,y,1/2-z
1/2+x,1/2+y,z
1/2-x,1/2-y,1/2+z
1/2+x,1/2-y,-z
1/2-x,1/2+y,1/2-z
loop_
_atom_site_type_symbol
_atom_site_label
_atom_site_fract_x
_atom_site_fract_y
_atom_site_fract_z
Si Si1 0.708498 0.867254 0.948833
Si Si2 0.000000 0.317774 0.750000
Si Si3 0.637534 0.094864 0.717339
Si Si4 0.691571 0.783024 0.516397
Si Si5 0.373753 0.379538 0.693844
Si Si6 0.705450 0.500000 0.000000
O O1 0.584245 0.863326 0.858490
O O2 0.800335 0.905294 0.840197
O O3 0.695139 0.895300 0.117383
O O4 0.759010 0.789164 0.958983
O O5 0.084200 0.274935 0.636740
O O6 0.500000 0.078856 0.750000
O O7 0.649524 0.166013 0.619051
O O8 0.707458 0.038101 0.619396
O O9 0.795954 0.821727 0.608657
O O10 0.500000 0.353840 0.750000
O O11 0.376512 0.443140 0.578837
#
# Coordination Sequence:
#
# PCOD9318133 Si02
#       6
#     8   4   8   8   8   4
#     4  11  23  38  68  96 129 168 207 256 334 380
#     4  10  20  38  60  90 134 158 204 254 304 382
#     4  11  22  42  66  92 130 168 214 269 316 370
#     4  10  22  40  64 100 129 166 206 257 323 393
#     4  10  24  44  65  91 132 167 216 262 315 379
#     4  10  26  44  62  94 122 170 230 264 310 372
#
# _framework density 20.870835
#
# number of rings (size 3 to 8) (size 9 to 14) (size 15 to 20)
#    0.000    1.600    2.000    2.400    2.800    5.600 
#    3.600    0.000    0.000    0.000    0.000    0.000 
#    0.000    0.000    0.000    0.000    0.000    0.000 
#
# Total GULP energy -111805.039567 kJ/mol
# GULP energy per Si atom -5590.251978 kJ/mol
# Density = 2.082333 g / cm^3
# Si number density = 20.870835 Si / 1000 Ang^3
#
#
#
# Elastic Constant Matrix: (Units=GPa)
#
#
# Indices 1 2 3 4 5 6 
#
# 1 90.2276 -7.6638 22.3835 0.0000 0.0000 0.0000
# 2 -7.6638 30.2734 6.6917 0.0000 0.0000 0.0000
# 3 22.3835 6.6917 126.2744 0.0000 0.0000 0.0000
# 4 0.0000 0.0000 0.0000 20.8666 0.0000 0.0000
# 5 0.0000 0.0000 0.0000 0.0000 38.2602 0.0000
# 6 0.0000 0.0000 0.0000 0.0000 0.0000 -1.2670
#
#
#
# Elastic Compliance Matrix: (Units=1/GPa)
#
#
# Indices 1 2 3 4 5 6 
#
# 1 0.011956 0.003537 -0.002307 0.000000 0.000000 0.000000
# 2 0.003537 0.034470 -0.002454 0.000000 0.000000 0.000000
# 3 -0.002307 -0.002454 0.008458 0.000000 0.000000 0.000000
# 4 0.000000 0.000000 0.000000 0.047924 0.000000 0.000000
# 5 0.000000 0.000000 0.000000 0.000000 0.026137 0.000000
# 6 0.000000 0.000000 0.000000 0.000000 0.000000 -0.789285
#
#
# Mechanical properties :
#
#
# Convention : Reuss Voigt Hill
#
# Bulk Modulus (GPa) = 19.07074 32.17758 25.62416
# Shear Modulus (GPa) = -7.80745 26.59622 9.39439
#
# Velocity S-wave (km/s) = -1.93622 3.57364 2.12391
# Velocity P-wave (km/s) = 2.03930 5.69902 4.28004
#
# Compressibility (1/GPa) = 0.05243636
#
# Stress axis : x y z
#
# Youngs Moduli (GPa) = 83.64206 29.01076 118.22887
#
# Poissons Ratio (x) = -0.10260 0.27272
# Poissons Ratio (y) = -0.29580 0.29008
# Poissons Ratio (z) = 0.19294 0.07118
#
# Static dielectric constant tensor:
#      x y z
#    x 1.736380 0.000000 0.000000 
#    y 0.000000 1.726070 0.000000 
#    z 0.000000 0.000000 1.757050 
# 
# From -- ./inp_files/6168.got.cif
#   From: 2010.05.17/outbox.cif.g08.bks.cpg/sg20_4_cif.got.tgz:6168.got - 2010.06.03 22:52:26.
