data_PCOD9318531
_publ_section_title
;
Structure prediction by ZEFSAII (Michael W. Deem and Ramdas Pophale) SiO2 
 PCOD9318531
Probable space group: C 2 2 21
;
_chemical_formula_sum "Si O2"
_cell_formula_units_Z 48
_cell_length_a 29.582848
_cell_length_b 5.080929
_cell_length_c 14.566594
_cell_angle_alpha 90.000000
_cell_angle_beta 90.000000
_cell_angle_gamma 90.000000
_cell_volume 2189.480714
_symmetry_space_group_name_H-M "C 2 2 21"
_symmetry_group_IT_number 20
_symmetry_cell_setting 'orthorhombic'
loop_
_space_group_symop_operation_xyz
x,y,z
-x,-y,1/2+z
x,-y,-z
-x,y,1/2-z
1/2+x,1/2+y,z
1/2-x,1/2-y,1/2+z
1/2+x,1/2-y,-z
1/2-x,1/2+y,1/2-z
loop_
_atom_site_type_symbol
_atom_site_label
_atom_site_fract_x
_atom_site_fract_y
_atom_site_fract_z
Si Si1 0.940879 0.554620 0.186762
Si Si2 0.507494 0.554897 0.392560
Si Si3 0.328126 0.147620 0.405289
Si Si4 0.588979 0.397844 0.164526
Si Si5 0.354205 0.189170 0.777339
Si Si6 0.743488 0.141253 0.691964
O O1 0.932669 0.629790 0.293523
O O2 0.889170 0.481636 0.162558
O O3 0.970818 0.315549 0.150742
O O4 0.965133 0.815034 0.152102
O O5 0.512888 0.500000 0.500000
O O6 0.454323 0.552308 0.370488
O O7 0.373027 0.325171 0.408452
O O8 0.282962 0.307831 0.380629
O O9 0.322367 0.000000 0.500000
O O10 0.338430 0.958111 0.317066
O O11 0.617210 0.558227 0.242439
O O12 0.307492 0.230058 0.830919
O O13 0.755890 0.338071 0.776554
#
# Coordination Sequence:
#
# PCOD9318531 Si02
#       6
#     8   8   8   8   8   8
#     4  11  25  45  68  97 129 182 231 274 321 414
#     4  12  28  43  67  97 141 173 226 287 346 380
#     4  10  23  39  66 104 140 167 215 285 345 389
#     4  11  24  41  68  98 133 177 227 271 333 408
#     4  10  22  41  71  94 131 178 232 263 327 404
#     4  10  20  41  65  96 129 174 215 263 327 404
#
# _framework density 21.923006999999998
#
# number of rings (size 3 to 8) (size 9 to 14) (size 15 to 20)
#    0.000    1.333    3.333    1.000    9.333    0.000 
#    0.000    0.833    0.000    0.000    0.000    0.000 
#    0.000    0.000    0.000    0.000    0.000    0.000 
#
# Total GULP energy -133936.430343 kJ/mol
# GULP energy per Si atom -5580.684598 kJ/mol
# Density = 2.187311 g / cm^3
# Si number density = 21.923007 Si / 1000 Ang^3
#
#
#
# Elastic Constant Matrix: (Units=GPa)
#
#
# Indices 1 2 3 4 5 6 
#
# 1 170.3649 22.8314 40.8151 0.0000 0.0000 0.0000
# 2 22.8314 96.5946 5.1134 0.0000 0.0000 0.0000
# 3 40.8151 5.1134 43.7786 0.0000 0.0000 0.0000
# 4 0.0000 0.0000 0.0000 12.1486 0.0000 0.0000
# 5 0.0000 0.0000 0.0000 0.0000 3.2803 0.0000
# 6 0.0000 0.0000 0.0000 0.0000 0.0000 27.0817
#
#
#
# Elastic Compliance Matrix: (Units=1/GPa)
#
#
# Indices 1 2 3 4 5 6 
#
# 1 0.007757 -0.001460 -0.007062 0.000000 0.000000 0.000000
# 2 -0.001460 0.010692 0.000112 0.000000 0.000000 0.000000
# 3 -0.007062 0.000112 0.029413 0.000000 0.000000 0.000000
# 4 0.000000 0.000000 0.000000 0.082314 0.000000 0.000000
# 5 0.000000 0.000000 0.000000 0.000000 0.304848 0.000000
# 6 0.000000 0.000000 0.000000 0.000000 0.000000 0.036925
#
#
# Mechanical properties :
#
#
# Convention : Reuss Voigt Hill
#
# Bulk Modulus (GPa) = 32.21327 49.80644 41.00985
# Shear Modulus (GPa) = 10.01772 24.63399 17.32586
#
# Velocity S-wave (km/s) = 2.13996 3.35574 2.81429
# Velocity P-wave (km/s) = 4.56417 6.14677 5.41361
#
# Compressibility (1/GPa) = 0.03104311
#
# Stress axis : x y z
#
# Youngs Moduli (GPa) = 128.91343 93.53108 33.99894
#
# Poissons Ratio (x) = 0.13653 0.24009
# Poissons Ratio (y) = 0.18817 -0.00381
# Poissons Ratio (z) = 0.91033 -0.01048
#
# Static dielectric constant tensor:
#      x y z
#    x 1.843220 0.000000 0.000000 
#    y 0.000000 1.879590 0.000000 
#    z 0.000000 0.000000 1.861230 
# 
# From -- ./inp_files/22157.got.cif
#   From: 2010.05.17/outbox.cif.g08.bks.cpg/sg20_12_cif.got.tgz:22157.got - 2010.06.03 22:52:26.
