data_PCOD9318938
_publ_section_title
;
Structure prediction by ZEFSAII (Michael W. Deem and Ramdas Pophale) SiO2 
 PCOD9318938
Probable space group: C 2 2 21
;
_chemical_formula_sum "Si O2"
_cell_formula_units_Z 40
_cell_length_a 9.880194
_cell_length_b 15.755366
_cell_length_c 10.765774
_cell_angle_alpha 90.000000
_cell_angle_beta 90.000000
_cell_angle_gamma 90.000000
_cell_volume 1675.865757
_symmetry_space_group_name_H-M "C 2 2 21"
_symmetry_group_IT_number 20
_symmetry_cell_setting 'orthorhombic'
loop_
_space_group_symop_operation_xyz
x,y,z
-x,-y,1/2+z
x,-y,-z
-x,y,1/2-z
1/2+x,1/2+y,z
1/2-x,1/2-y,1/2+z
1/2+x,1/2-y,-z
1/2-x,1/2+y,1/2-z
loop_
_atom_site_type_symbol
_atom_site_label
_atom_site_fract_x
_atom_site_fract_y
_atom_site_fract_z
Si Si1 0.545158 0.172275 0.617701
Si Si2 0.157898 0.907944 0.741602
Si Si3 0.203403 0.557010 0.879239
Si Si4 0.194029 0.900955 0.013287
Si Si5 0.090267 0.169674 0.518299
O O1 0.500000 0.211725 0.750000
O O2 0.448895 0.090026 0.612342
O O3 0.699783 0.143587 0.603120
O O4 0.529324 0.237070 0.503144
O O5 0.199600 0.865017 0.871249
O O6 0.156502 0.850684 0.617685
O O7 0.000000 0.935212 0.750000
O O8 0.251645 0.990653 0.724734
O O9 0.234630 0.500000 0.000000
O O10 0.294900 0.641712 0.886283
O O11 0.038056 0.888832 0.048971
O O12 0.223566 0.000000 0.000000
#
# Coordination Sequence:
#
# PCOD9318938 Si02
#       5
#     8   8   8   8   8
#     4  12  24  37  55  87 126 159 194 249 313 371
#     4   9  18  37  64  88 111 153 211 262 307 369
#     4  10  21  38  60  84 115 155 201 252 309 374
#     4  11  21  37  61  86 115 157 205 253 307 369
#     4  10  21  39  62  85 115 156 203 256 314 375
#
# _framework density 23.868262999999999
#
# number of rings (size 3 to 8) (size 9 to 14) (size 15 to 20)
#    0.000    1.600    0.000    7.800    0.000    0.000 
#    0.000    3.000    0.000   12.000    0.000    0.000 
#    0.000    0.000    0.000    0.000    0.000    0.000 
#
# Total GULP energy -111640.334063 kJ/mol
# GULP energy per Si atom -5582.016703 kJ/mol
# Density = 2.381394 g / cm^3
# Si number density = 23.868263 Si / 1000 Ang^3
#
#
#
# Elastic Constant Matrix: (Units=GPa)
#
#
# Indices 1 2 3 4 5 6 
#
# 1 100.0693 13.5356 44.6850 0.0000 0.0000 0.0000
# 2 13.5356 60.3992 0.9216 0.0000 0.0000 0.0000
# 3 44.6850 0.9216 70.1552 0.0000 0.0000 0.0000
# 4 0.0000 0.0000 0.0000 13.2084 0.0000 0.0000
# 5 0.0000 0.0000 0.0000 0.0000 22.5374 0.0000
# 6 0.0000 0.0000 0.0000 0.0000 0.0000 34.6110
#
#
#
# Elastic Compliance Matrix: (Units=1/GPa)
#
#
# Indices 1 2 3 4 5 6 
#
# 1 0.014528 -0.003115 -0.009213 0.000000 0.000000 0.000000
# 2 -0.003115 0.017228 0.001758 0.000000 0.000000 0.000000
# 3 -0.009213 0.001758 0.020099 0.000000 0.000000 0.000000
# 4 0.000000 0.000000 0.000000 0.075710 0.000000 0.000000
# 5 0.000000 0.000000 0.000000 0.000000 0.044371 0.000000
# 6 0.000000 0.000000 0.000000 0.000000 0.000000 0.028893
#
#
# Mechanical properties :
#
#
# Convention : Reuss Voigt Hill
#
# Bulk Modulus (GPa) = 32.55742 38.76756 35.66249
# Shear Modulus (GPa) = 21.53253 25.50344 23.51799
#
# Velocity S-wave (km/s) = 3.00682 3.27235 3.14239
# Velocity P-wave (km/s) = 5.07196 5.52768 5.30472
#
# Compressibility (1/GPa) = 0.03071496
#
# Stress axis : x y z
#
# Youngs Moduli (GPa) = 68.83089 58.04559 49.75346
#
# Poissons Ratio (x) = 0.18083 0.45837
# Poissons Ratio (y) = 0.21443 -0.08746
# Poissons Ratio (z) = 0.63413 -0.10204
#
# Static dielectric constant tensor:
#      x y z
#    x 1.866350 0.000000 0.000000 
#    y 0.000000 1.951580 0.000000 
#    z 0.000000 0.000000 2.005410 
# 
# From -- ./inp_files/12678.got.cif
#   From: 2010.05.17/outbox.cif.g08.bks.cpg/sg20_7_cif.got.tgz:12678.got - 2010.06.03 22:52:26.
