data_PCOD9318116
_publ_section_title
;
Structure prediction by ZEFSAII (Michael W. Deem and Ramdas Pophale) SiO2 
 PCOD9318116
Probable space group: C 2 2 21
;
_chemical_formula_sum "Si O2"
_cell_formula_units_Z 60
_cell_length_a 12.020322
_cell_length_b 26.157557
_cell_length_c 8.894229
_cell_angle_alpha 90.000000
_cell_angle_beta 90.000000
_cell_angle_gamma 90.000000
_cell_volume 2796.543564
_symmetry_space_group_name_H-M "C 2 2 21"
_symmetry_group_IT_number 20
_symmetry_cell_setting 'orthorhombic'
loop_
_space_group_symop_operation_xyz
x,y,z
-x,-y,1/2+z
x,-y,-z
-x,y,1/2-z
1/2+x,1/2+y,z
1/2-x,1/2-y,1/2+z
1/2+x,1/2-y,-z
1/2-x,1/2+y,1/2-z
loop_
_atom_site_type_symbol
_atom_site_label
_atom_site_fract_x
_atom_site_fract_y
_atom_site_fract_z
Si Si1 0.393695 0.800358 0.412069
Si Si2 0.628346 0.176462 0.246856
Si Si3 0.500000 0.109157 0.750000
Si Si4 0.174192 0.106576 0.143240
Si Si5 0.704674 0.954511 0.385870
Si Si6 0.659173 0.290119 0.304712
Si Si7 0.027913 0.808407 0.994179
Si Si8 0.617162 0.493374 0.678463
O O1 0.344113 0.807290 0.577568
O O2 0.463320 0.850759 0.378180
O O3 0.289797 0.798795 0.299970
O O4 0.458768 0.746785 0.414893
O O5 0.500000 0.159358 0.250000
O O6 0.715876 0.135895 0.302520
O O7 0.637064 0.229943 0.335857
O O8 0.399200 0.075568 0.815417
O O9 0.135743 0.064565 0.263407
O O10 0.212767 0.079034 0.989367
O O11 0.079551 0.147573 0.106230
O O12 0.667570 0.000000 0.500000
O O13 0.779943 0.976505 0.251683
O O14 0.602343 0.304220 0.146997
O O15 0.594832 0.318100 0.440428
O O16 0.613339 0.500000 0.500000
O O17 0.500000 0.511038 0.750000
#
# Coordination Sequence:
#
# PCOD9318116 Si02
#       8
#     8   8   4   8   8   8   8   8
#     4  11  23  38  62  97 141 184 234 288 336 432
#     4  11  21  38  62  94 141 192 237 279 348 412
#     4  12  26  44  70 104 138 186 238 294 372 420
#     4  11  23  44  72 104 139 190 239 296 361 431
#     4  10  25  49  73 102 137 183 239 305 368 429
#     4  10  20  38  59  93 143 196 233 286 335 405
#     4  10  21  40  63  96 144 190 234 282 345 429
#     4  11  26  53  80 105 141 174 234 312 374 427
#
# _framework density 21.455057
#
# number of rings (size 3 to 8) (size 9 to 14) (size 15 to 20)
#    0.000    1.333    4.000    2.800    1.867    3.733 
#   18.000    0.000    0.000    0.000    0.000    0.000 
#    0.000    0.000    0.000    0.000    0.000    0.000 
#
# Total GULP energy -167755.528931 kJ/mol
# GULP energy per Si atom -5591.850964 kJ/mol
# Density = 2.140622 g / cm^3
# Si number density = 21.455057 Si / 1000 Ang^3
#
#
#
# Elastic Constant Matrix: (Units=GPa)
#
#
# Indices 1 2 3 4 5 6 
#
# 1 108.4680 59.8227 49.0146 0.0000 0.0000 0.0000
# 2 59.8227 124.3100 57.3736 0.0000 0.0000 0.0000
# 3 49.0146 57.3736 115.8875 0.0000 0.0000 0.0000
# 4 0.0000 0.0000 0.0000 -2.4186 0.0000 0.0000
# 5 0.0000 0.0000 0.0000 0.0000 22.5013 0.0000
# 6 0.0000 0.0000 0.0000 0.0000 0.0000 15.1185
#
#
#
# Elastic Compliance Matrix: (Units=1/GPa)
#
#
# Indices 1 2 3 4 5 6 
#
# 1 0.013413 -0.004973 -0.003211 0.000000 0.000000 0.000000
# 2 -0.004973 0.012271 -0.003972 0.000000 0.000000 0.000000
# 3 -0.003211 -0.003972 0.011953 0.000000 0.000000 0.000000
# 4 0.000000 0.000000 0.000000 -0.413461 0.000000 0.000000
# 5 0.000000 0.000000 0.000000 0.000000 0.044442 0.000000
# 6 0.000000 0.000000 0.000000 0.000000 0.000000 0.066144
#
#
# Mechanical properties :
#
#
# Convention : Reuss Voigt Hill
#
# Bulk Modulus (GPa) = 75.04174 75.67636 75.35905
# Shear Modulus (GPa) = -21.14297 19.20389 -0.96954
#
# Velocity S-wave (km/s) = -3.14260 2.99503 -0.67296
# Velocity P-wave (km/s) = 4.67806 6.87814 5.88188
#
# Compressibility (1/GPa) = 0.01332592
#
# Stress axis : x y z
#
# Youngs Moduli (GPa) = 74.55491 81.49577 83.65760
#
# Poissons Ratio (x) = 0.40526 0.26863
# Poissons Ratio (y) = 0.37075 0.33226
# Poissons Ratio (z) = 0.23940 0.32368
#
# Static dielectric constant tensor:
#      x y z
#    x 1.865430 0.000000 0.000000 
#    y 0.000000 1.777650 0.000000 
#    z 0.000000 0.000000 1.815400 
# 
# From -- ./inp_files/7558.got.cif
#   From: 2010.05.17/outbox.cif.g08.bks.cpg/sg20_4_cif.got.tgz:7558.got - 2010.06.03 22:52:26.
