data_PCOD9318816
_publ_section_title
;
Structure prediction by ZEFSAII (Michael W. Deem and Ramdas Pophale) SiO2 
 PCOD9318816
Probable space group: C 2 2 21
;
_chemical_formula_sum "Si O2"
_cell_formula_units_Z 60
_cell_length_a 6.822534
_cell_length_b 18.432127
_cell_length_c 21.051715
_cell_angle_alpha 90.000000
_cell_angle_beta 90.000000
_cell_angle_gamma 90.000000
_cell_volume 2647.333435
_symmetry_space_group_name_H-M "C 2 2 21"
_symmetry_group_IT_number 20
_symmetry_cell_setting 'orthorhombic'
loop_
_space_group_symop_operation_xyz
x,y,z
-x,-y,1/2+z
x,-y,-z
-x,y,1/2-z
1/2+x,1/2+y,z
1/2-x,1/2-y,1/2+z
1/2+x,1/2-y,-z
1/2-x,1/2+y,1/2-z
loop_
_atom_site_type_symbol
_atom_site_label
_atom_site_fract_x
_atom_site_fract_y
_atom_site_fract_z
Si Si1 0.787222 0.090754 0.069730
Si Si2 0.000000 0.825602 0.750000
Si Si3 0.671760 0.078857 0.201080
Si Si4 0.490009 0.257093 0.559993
Si Si5 0.322621 0.086809 0.704250
Si Si6 0.396865 0.706118 0.581640
Si Si7 0.689730 0.266376 0.329101
Si Si8 0.688983 0.572491 0.571292
O O1 0.626196 0.087681 0.126029
O O2 0.927969 0.160997 0.072408
O O3 0.886462 0.010696 0.075639
O O4 0.715655 0.088471 0.996852
O O5 0.870732 0.876586 0.794077
O O6 0.833231 0.780867 0.713682
O O7 0.500000 0.101544 0.250000
O O8 0.726026 0.996122 0.220684
O O9 0.445361 0.253942 0.485060
O O10 0.304314 0.238024 0.602951
O O11 0.664206 0.204258 0.581290
O O12 0.500000 0.106476 0.750000
O O13 0.181529 0.155780 0.705536
O O14 0.345288 0.080999 0.627935
O O15 0.471853 0.747936 0.644998
O O16 0.509495 0.629005 0.580207
#
# Coordination Sequence:
#
# PCOD9318816 Si02
#       8
#     8   4   8   8   8   8   8   8
#     4   9  17  34  57  84 114 153 195 248 298 358
#     4  12  24  38  62  86 120 162 208 248 314 356
#     4  10  22  39  60  86 119 158 204 252 307 366
#     4  11  20  36  61  93 121 151 198 250 307 357
#     4   9  18  38  59  82 121 160 197 243 301 362
#     4  10  21  36  60  92 121 157 197 249 304 368
#     4  11  22  38  61  89 122 160 201 251 306 364
#     4   8  17  33  58  83 111 160 196 234 310 355
#
# _framework density 22.664315999999999
#
# number of rings (size 3 to 8) (size 9 to 14) (size 15 to 20)
#    0.000    2.133    3.333    0.000    1.867    0.000 
#    0.000    8.000    1.467    0.000    0.000    0.000 
#    0.000    0.000    0.000    0.000    0.000    0.000 
#
# Total GULP energy -167016.663161 kJ/mol
# GULP energy per Si atom -5567.222105 kJ/mol
# Density = 2.261273 g / cm^3
# Si number density = 22.664316 Si / 1000 Ang^3
#
#
#
# Elastic Constant Matrix: (Units=GPa)
#
#
# Indices 1 2 3 4 5 6 
#
# 1 48.6584 5.7614 19.2138 0.0000 0.0000 0.0000
# 2 5.7614 104.0156 6.6401 0.0000 0.0000 0.0000
# 3 19.2138 6.6401 71.8839 0.0000 0.0000 0.0000
# 4 0.0000 0.0000 0.0000 20.9351 0.0000 0.0000
# 5 0.0000 0.0000 0.0000 0.0000 21.5580 0.0000
# 6 0.0000 0.0000 0.0000 0.0000 0.0000 4.1200
#
#
#
# Elastic Compliance Matrix: (Units=1/GPa)
#
#
# Indices 1 2 3 4 5 6 
#
# 1 0.023058 -0.000889 -0.006081 0.000000 0.000000 0.000000
# 2 -0.000889 0.009705 -0.000659 0.000000 0.000000 0.000000
# 3 -0.006081 -0.000659 0.015598 0.000000 0.000000 0.000000
# 4 0.000000 0.000000 0.000000 0.047767 0.000000 0.000000
# 5 0.000000 0.000000 0.000000 0.000000 0.046386 0.000000
# 6 0.000000 0.000000 0.000000 0.000000 0.000000 0.242720
#
#
# Mechanical properties :
#
#
# Convention : Reuss Voigt Hill
#
# Bulk Modulus (GPa) = 30.20877 31.97651 31.09264
# Shear Modulus (GPa) = 12.14990 22.18546 17.16768
#
# Velocity S-wave (km/s) = 2.31785 3.13209 2.75521
# Velocity P-wave (km/s) = 4.53001 5.21722 4.88571
#
# Compressibility (1/GPa) = 0.03310297
#
# Stress axis : x y z
#
# Youngs Moduli (GPa) = 43.36909 103.03709 64.11257
#
# Poissons Ratio (x) = 0.09160 0.38987
# Poissons Ratio (y) = 0.03855 0.04224
# Poissons Ratio (z) = 0.26373 0.06789
#
# Static dielectric constant tensor:
#      x y z
#    x 1.782290 0.000000 0.000000 
#    y 0.000000 1.935310 0.000000 
#    z 0.000000 0.000000 1.958330 
# 
# From -- ./inp_files/28470.got.cif
#   From: 2010.05.17/outbox.cif.g08.bks.cpg/sg20_15_cif.got.tgz:28470.got - 2010.06.03 22:52:26.
