data_PCOD9318318
_publ_section_title
;
Structure prediction by ZEFSAII (Michael W. Deem and Ramdas Pophale) SiO2 
 PCOD9318318
Probable space group: C 2 2 21
;
_chemical_formula_sum "Si O2"
_cell_formula_units_Z 40
_cell_length_a 8.610848
_cell_length_b 18.417848
_cell_length_c 12.114990
_cell_angle_alpha 90.000000
_cell_angle_beta 90.000000
_cell_angle_gamma 90.000000
_cell_volume 1921.356118
_symmetry_space_group_name_H-M "C 2 2 21"
_symmetry_group_IT_number 20
_symmetry_cell_setting 'orthorhombic'
loop_
_space_group_symop_operation_xyz
x,y,z
-x,-y,1/2+z
x,-y,-z
-x,y,1/2-z
1/2+x,1/2+y,z
1/2-x,1/2-y,1/2+z
1/2+x,1/2-y,-z
1/2-x,1/2+y,1/2-z
loop_
_atom_site_type_symbol
_atom_site_label
_atom_site_fract_x
_atom_site_fract_y
_atom_site_fract_z
Si Si1 0.683004 0.373362 0.758558
Si Si2 0.603976 0.165094 0.859340
Si Si3 0.580169 0.676881 0.029488
Si Si4 0.664593 0.274293 0.209668
Si Si5 0.232405 0.920063 0.537157
O O1 0.500000 0.390299 0.750000
O O2 0.700609 0.366082 0.890122
O O3 0.719385 0.293045 0.712735
O O4 0.769983 0.421858 0.668661
O O5 0.500000 0.149924 0.750000
O O6 0.561567 0.242796 0.915488
O O7 0.773276 0.171941 0.802691
O O8 0.628676 0.109701 0.960089
O O9 0.648853 0.689915 0.908896
O O10 0.417650 0.633314 0.024544
O O11 0.500000 0.244946 0.250000
O O12 0.187941 0.000000 0.500000
#
# Coordination Sequence:
#
# PCOD9318318 Si02
#       5
#     8   8   8   8   8
#     4   9  20  37  58  90 123 166 207 262 317 369
#     4  11  23  38  67  92 130 167 217 268 322 378
#     4  10  20  39  64  92 129 159 222 261 315 369
#     4  11  19  33  63 101 125 160 219 269 310 380
#     4  11  22  42  64  91 130 173 208 263 330 387
#
# _framework density 20.818628
#
# number of rings (size 3 to 8) (size 9 to 14) (size 15 to 20)
#    0.000    1.600    4.000    4.800    0.000    0.000 
#   10.800    1.000    0.000    0.000    0.000    0.000 
#    0.000    0.000    0.000    0.000    0.000    0.000 
#
# Total GULP energy -111334.613945 kJ/mol
# GULP energy per Si atom -5566.730697 kJ/mol
# Density = 2.077124 g / cm^3
# Si number density = 20.818628 Si / 1000 Ang^3
#
#
#
# Elastic Constant Matrix: (Units=GPa)
#
#
# Indices 1 2 3 4 5 6 
#
# 1 30.2388 15.1978 18.0268 0.0000 0.0000 0.0000
# 2 15.1978 55.3388 51.7470 0.0000 0.0000 0.0000
# 3 18.0268 51.7470 148.6445 0.0000 0.0000 0.0000
# 4 0.0000 0.0000 0.0000 9.0777 0.0000 0.0000
# 5 0.0000 0.0000 0.0000 0.0000 40.7966 0.0000
# 6 0.0000 0.0000 0.0000 0.0000 0.0000 17.0333
#
#
#
# Elastic Compliance Matrix: (Units=1/GPa)
#
#
# Indices 1 2 3 4 5 6 
#
# 1 0.038581 -0.009222 -0.001468 0.000000 0.000000 0.000000
# 2 -0.009222 0.028997 -0.008976 0.000000 0.000000 0.000000
# 3 -0.001468 -0.008976 0.010030 0.000000 0.000000 0.000000
# 4 0.000000 0.000000 0.000000 0.110160 0.000000 0.000000
# 5 0.000000 0.000000 0.000000 0.000000 0.024512 0.000000
# 6 0.000000 0.000000 0.000000 0.000000 0.000000 0.058709
#
#
# Mechanical properties :
#
#
# Convention : Reuss Voigt Hill
#
# Bulk Modulus (GPa) = 26.12735 44.90725 35.51730
# Shear Modulus (GPa) = 15.47604 23.33154 19.40379
#
# Velocity S-wave (km/s) = 2.72945 3.35132 3.05624
# Velocity P-wave (km/s) = 4.74451 6.04919 5.43613
#
# Compressibility (1/GPa) = 0.03827407
#
# Stress axis : x y z
#
# Youngs Moduli (GPa) = 25.91977 34.48667 99.69769
#
# Poissons Ratio (x) = 0.31805 0.14638
# Poissons Ratio (y) = 0.23904 0.89489
# Poissons Ratio (z) = 0.03806 0.30955
#
# Static dielectric constant tensor:
#      x y z
#    x 1.795020 0.000000 0.000000 
#    y 0.000000 1.731930 0.000000 
#    z 0.000000 0.000000 1.855180 
# 
# From -- ./inp_files/12714.got.cif
#   From: 2010.05.17/outbox.cif.g08.bks.cpg/sg20_7_cif.got.tgz:12714.got - 2010.06.03 22:52:26.
