data_PCOD9318972
_publ_section_title
;
Structure prediction by ZEFSAII (Michael W. Deem and Ramdas Pophale) SiO2 
 PCOD9318972
Probable space group: C 2 2 21
;
_chemical_formula_sum "Si O2"
_cell_formula_units_Z 40
_cell_length_a 9.345248
_cell_length_b 23.025535
_cell_length_c 8.703159
_cell_angle_alpha 90.000000
_cell_angle_beta 90.000000
_cell_angle_gamma 90.000000
_cell_volume 1872.739965
_symmetry_space_group_name_H-M "C 2 2 21"
_symmetry_group_IT_number 20
_symmetry_cell_setting 'orthorhombic'
loop_
_space_group_symop_operation_xyz
x,y,z
-x,-y,1/2+z
x,-y,-z
-x,y,1/2-z
1/2+x,1/2+y,z
1/2-x,1/2-y,1/2+z
1/2+x,1/2-y,-z
1/2-x,1/2+y,1/2-z
loop_
_atom_site_type_symbol
_atom_site_label
_atom_site_fract_x
_atom_site_fract_y
_atom_site_fract_z
Si Si1 0.339363 0.220902 0.491278
Si Si2 0.034727 0.184531 0.431851
Si Si3 0.494951 0.440987 0.566574
Si Si4 0.159430 0.567609 0.503186
Si Si5 0.500000 0.857877 0.750000
Si Si6 0.000000 0.353669 0.250000
O O1 0.169938 0.222553 0.478421
O O2 0.399579 0.285885 0.489254
O O3 0.398283 0.183188 0.350328
O O4 0.403677 0.187865 0.640699
O O5 0.000000 0.183865 0.250000
O O6 0.069725 0.118868 0.479022
O O7 0.558062 0.500000 0.500000
O O8 0.500000 0.445863 0.750000
O O9 0.331485 0.434012 0.509445
O O10 0.112013 0.500000 0.500000
O O11 0.099456 0.604088 0.647135
O O12 0.096170 0.601523 0.357409
#
# Coordination Sequence:
#
# PCOD9318972 Si02
#       6
#     8   8   8   8   4   4
#     4  11  25  41  68  97 136 174 217 278 327 399
#     4  11  25  43  66  97 135 174 217 270 332 392
#     4  10  23  43  65  92 131 173 221 273 327 391
#     4  10  21  40  65  93 132 176 220 271 323 392
#     4  10  21  38  62  98 133 174 220 266 338 384
#     4  10  23  42  64  98 133 168 226 266 332 392
#
# _framework density 21.359081
#
# number of rings (size 3 to 8) (size 9 to 14) (size 15 to 20)
#    0.000    1.600    1.000    3.000    8.400    3.200 
#    1.800    5.000    0.000    0.000    0.000    0.000 
#    0.000    0.000    0.000    0.000    0.000    0.000 
#
# Total GULP energy -111852.867355 kJ/mol
# GULP energy per Si atom -5592.643368 kJ/mol
# Density = 2.131047 g / cm^3
# Si number density = 21.359081 Si / 1000 Ang^3
#
#
#
# Elastic Constant Matrix: (Units=GPa)
#
#
# Indices 1 2 3 4 5 6 
#
# 1 60.1553 -1.3605 6.0254 0.0000 0.0000 0.0000
# 2 -1.3605 125.2182 22.8343 0.0000 0.0000 0.0000
# 3 6.0254 22.8343 75.9006 0.0000 0.0000 0.0000
# 4 0.0000 0.0000 0.0000 3.4612 0.0000 0.0000
# 5 0.0000 0.0000 0.0000 0.0000 18.0686 0.0000
# 6 0.0000 0.0000 0.0000 0.0000 0.0000 33.1600
#
#
#
# Elastic Compliance Matrix: (Units=1/GPa)
#
#
# Indices 1 2 3 4 5 6 
#
# 1 0.016781 0.000450 -0.001468 0.000000 0.000000 0.000000
# 2 0.000450 0.008462 -0.002581 0.000000 0.000000 0.000000
# 3 -0.001468 -0.002581 0.014068 0.000000 0.000000 0.000000
# 4 0.000000 0.000000 0.000000 0.288914 0.000000 0.000000
# 5 0.000000 0.000000 0.000000 0.000000 0.055345 0.000000
# 6 0.000000 0.000000 0.000000 0.000000 0.000000 0.030157
#
#
# Mechanical properties :
#
#
# Convention : Reuss Voigt Hill
#
# Bulk Modulus (GPa) = 31.14025 35.14141 33.14083
# Shear Modulus (GPa) = 11.58404 26.52295 19.05350
#
# Velocity S-wave (km/s) = 2.33136 3.52769 2.98997
# Velocity P-wave (km/s) = 4.67526 5.75163 5.24115
#
# Compressibility (1/GPa) = 0.03211278
#
# Stress axis : x y z
#
# Youngs Moduli (GPa) = 59.59191 118.17984 71.08217
#
# Poissons Ratio (x) = -0.05317 0.10431
# Poissons Ratio (y) = -0.02681 0.18349
# Poissons Ratio (z) = 0.08745 0.30507
#
# Static dielectric constant tensor:
#      x y z
#    x 1.791760 0.000000 0.000000 
#    y 0.000000 1.790350 0.000000 
#    z 0.000000 0.000000 1.752020 
# 
# From -- ./inp_files/6150.got.cif
#   From: 2010.05.17/outbox.cif.g08.bks.cpg/sg20_4_cif.got.tgz:6150.got - 2010.06.03 22:52:26.
