data_PCOD9318881
_publ_section_title
;
Structure prediction by ZEFSAII (Michael W. Deem and Ramdas Pophale) SiO2 
 PCOD9318881
Probable space group: C 2 2 21
;
_chemical_formula_sum "Si O2"
_cell_formula_units_Z 60
_cell_length_a 9.145001
_cell_length_b 24.604008
_cell_length_c 13.384097
_cell_angle_alpha 90.000000
_cell_angle_beta 90.000000
_cell_angle_gamma 90.000000
_cell_volume 3011.471049
_symmetry_space_group_name_H-M "C 2 2 21"
_symmetry_group_IT_number 20
_symmetry_cell_setting 'orthorhombic'
loop_
_space_group_symop_operation_xyz
x,y,z
-x,-y,1/2+z
x,-y,-z
-x,y,1/2-z
1/2+x,1/2+y,z
1/2-x,1/2-y,1/2+z
1/2+x,1/2-y,-z
1/2-x,1/2+y,1/2-z
loop_
_atom_site_type_symbol
_atom_site_label
_atom_site_fract_x
_atom_site_fract_y
_atom_site_fract_z
Si Si1 0.559736 0.000000 0.000000
Si Si2 0.170158 0.451645 0.653190
Si Si3 0.169070 0.957845 0.236598
Si Si4 0.142608 0.793934 0.957703
Si Si5 0.119408 0.918100 0.018998
Si Si6 0.661451 0.172008 0.274736
Si Si7 0.697957 0.698909 0.433392
Si Si8 0.289045 0.591151 0.941177
O O1 0.661029 0.051280 0.974422
O O2 0.459173 0.980262 0.907822
O O3 0.226396 0.490012 0.742109
O O4 0.302182 0.446670 0.573245
O O5 0.141065 0.390504 0.689420
O O6 0.184950 0.934635 0.125398
O O7 0.202454 0.913813 0.321397
O O8 0.000000 0.974482 0.250000
O O9 0.249667 0.797071 0.861654
O O10 0.972679 0.784513 0.930907
O O11 0.143196 0.853995 0.004900
O O12 0.203761 0.749566 0.033722
O O13 0.946763 0.929627 0.019764
O O14 0.500000 0.194283 0.250000
O O15 0.754537 0.175438 0.173518
O O16 0.724356 0.651261 0.514601
#
# Coordination Sequence:
#
# PCOD9318881 Si02
#       8
#     4   8   8   8   8   8   8   8
#     4  12  24  38  60  90 136 170 206 272 330 376
#     4  11  23  39  62  91 129 168 218 268 322 380
#     4  10  21  37  61  87 119 169 214 255 316 386
#     4  10  23  42  72  95 130 169 221 274 338 387
#     4   9  20  43  62  90 121 171 218 268 315 396
#     4  11  24  41  66  95 131 173 221 265 324 394
#     4  11  23  45  66  99 130 169 217 279 330 399
#     4  10  25  37  61  91 130 165 214 255 329 392
#
# _framework density 19.923815999999999
#
# number of rings (size 3 to 8) (size 9 to 14) (size 15 to 20)
#    0.000    1.600    1.333    2.000    7.467    4.267 
#    0.000    2.667    0.000    0.000    0.000    0.000 
#    0.000    0.000    0.000    0.000    0.000    0.000 
#
# Total GULP energy -167643.700785 kJ/mol
# GULP energy per Si atom -5588.123359 kJ/mol
# Density = 1.987847 g / cm^3
# Si number density = 19.923816 Si / 1000 Ang^3
#
#
#
# Elastic Constant Matrix: (Units=GPa)
#
#
# Indices 1 2 3 4 5 6 
#
# 1 96.3922 35.1186 34.9321 0.0000 0.0000 0.0000
# 2 35.1186 63.2966 26.1089 0.0000 0.0000 0.0000
# 3 34.9321 26.1089 85.0974 0.0000 0.0000 0.0000
# 4 0.0000 0.0000 0.0000 27.6682 0.0000 0.0000
# 5 0.0000 0.0000 0.0000 0.0000 33.6913 0.0000
# 6 0.0000 0.0000 0.0000 0.0000 0.0000 27.2530
#
#
#
# Elastic Compliance Matrix: (Units=1/GPa)
#
#
# Indices 1 2 3 4 5 6 
#
# 1 0.014029 -0.006192 -0.003859 0.000000 0.000000 0.000000
# 2 -0.006192 0.020820 -0.003846 0.000000 0.000000 0.000000
# 3 -0.003859 -0.003846 0.014515 0.000000 0.000000 0.000000
# 4 0.000000 0.000000 0.000000 0.036143 0.000000 0.000000
# 5 0.000000 0.000000 0.000000 0.000000 0.029681 0.000000
# 6 0.000000 0.000000 0.000000 0.000000 0.000000 0.036693
#
#
# Mechanical properties :
#
#
# Convention : Reuss Voigt Hill
#
# Bulk Modulus (GPa) = 46.35948 48.56725 47.46336
# Shear Modulus (GPa) = 26.75721 27.63095 27.19408
#
# Velocity S-wave (km/s) = 3.66864 3.72806 3.69847
# Velocity P-wave (km/s) = 6.42371 6.55443 6.48940
#
# Compressibility (1/GPa) = 0.02157056
#
# Stress axis : x y z
#
# Youngs Moduli (GPa) = 71.28311 48.02971 68.89215
#
# Poissons Ratio (x) = 0.29738 0.26585
# Poissons Ratio (y) = 0.44136 0.26498
# Poissons Ratio (z) = 0.27508 0.18474
#
# Static dielectric constant tensor:
#      x y z
#    x 1.714540 0.000000 0.000000 
#    y 0.000000 1.673010 0.000000 
#    z 0.000000 0.000000 1.694390 
# 
# From -- ./inp_files/13302.got.cif
#   From: 2010.05.17/outbox.cif.g08.bks.cpg/sg20_7_cif.got.tgz:13302.got - 2010.06.03 22:52:26.
