data_PCOD9318695
_publ_section_title
;
Structure prediction by ZEFSAII (Michael W. Deem and Ramdas Pophale) SiO2 
 PCOD9318695
Probable space group: C 2 2 21
;
_chemical_formula_sum "Si O2"
_cell_formula_units_Z 36
_cell_length_a 11.927853
_cell_length_b 13.208829
_cell_length_c 11.572359
_cell_angle_alpha 90.000000
_cell_angle_beta 90.000000
_cell_angle_gamma 90.000000
_cell_volume 1823.259537
_symmetry_space_group_name_H-M "C 2 2 21"
_symmetry_group_IT_number 20
_symmetry_cell_setting 'orthorhombic'
loop_
_space_group_symop_operation_xyz
x,y,z
-x,-y,1/2+z
x,-y,-z
-x,y,1/2-z
1/2+x,1/2+y,z
1/2-x,1/2-y,1/2+z
1/2+x,1/2-y,-z
1/2-x,1/2+y,1/2-z
loop_
_atom_site_type_symbol
_atom_site_label
_atom_site_fract_x
_atom_site_fract_y
_atom_site_fract_z
Si Si1 0.102299 0.000000 0.000000
Si Si2 0.607764 0.783368 0.673938
Si Si3 0.154407 0.709240 0.763750
Si Si4 0.979692 0.793876 0.933052
Si Si5 0.325361 0.993731 0.130847
O O1 0.191371 0.983594 0.105103
O O2 0.027720 0.097522 0.028745
O O3 0.500000 0.760056 0.750000
O O4 0.715534 0.719881 0.710537
O O5 0.576225 0.759638 0.542163
O O6 0.643728 0.900214 0.687676
O O7 0.110531 0.792266 0.670929
O O8 0.133705 0.601335 0.703837
O O9 0.083487 0.730645 0.879076
O O10 0.373713 0.000000 0.000000
#
# Coordination Sequence:
#
# PCOD9318695 Si02
#       5
#     4   8   8   8   8
#     4  10  20  44  72  96 142 182 226 302 338 426
#     4  12  26  40  71 103 139 186 235 292 355 427
#     4  11  24  46  71 100 140 188 231 297 353 428
#     4  11  24  44  72  98 142 184 242 288 362 416
#     4  10  21  43  70  97 145 178 230 284 357 415
#
# _framework density 19.744858000000001
#
# number of rings (size 3 to 8) (size 9 to 14) (size 15 to 20)
#    0.667    0.444    4.444    1.333    6.222    1.778 
#    4.000    0.000    2.444    0.000    0.000    0.000 
#    0.000    0.000    0.000    0.000    0.000    0.000 
#
# Total GULP energy -100459.794309 kJ/mol
# GULP energy per Si atom -5581.099684 kJ/mol
# Density = 1.969992 g / cm^3
# Si number density = 19.744858 Si / 1000 Ang^3
#
#
#
# Elastic Constant Matrix: (Units=GPa)
#
#
# Indices 1 2 3 4 5 6 
#
# 1 128.7320 41.5450 56.8598 0.0000 0.0000 0.0000
# 2 41.5450 126.4607 34.7640 0.0000 0.0000 0.0000
# 3 56.8598 34.7640 77.5422 0.0000 0.0000 0.0000
# 4 0.0000 0.0000 0.0000 30.4307 0.0000 0.0000
# 5 0.0000 0.0000 0.0000 0.0000 30.9050 0.0000
# 6 0.0000 0.0000 0.0000 0.0000 0.0000 18.7889
#
#
#
# Elastic Compliance Matrix: (Units=1/GPa)
#
#
# Indices 1 2 3 4 5 6 
#
# 1 0.011804 -0.001709 -0.007890 0.000000 0.000000 0.000000
# 2 -0.001709 0.009267 -0.002901 0.000000 0.000000 0.000000
# 3 -0.007890 -0.002901 0.019982 0.000000 0.000000 0.000000
# 4 0.000000 0.000000 0.000000 0.032862 0.000000 0.000000
# 5 0.000000 0.000000 0.000000 0.000000 0.032357 0.000000
# 6 0.000000 0.000000 0.000000 0.000000 0.000000 0.053223
#
#
# Mechanical properties :
#
#
# Convention : Reuss Voigt Hill
#
# Bulk Modulus (GPa) = 62.29259 66.56361 64.42810
# Shear Modulus (GPa) = 26.33714 29.32933 27.83323
#
# Velocity S-wave (km/s) = 3.65619 3.85829 3.75860
# Velocity P-wave (km/s) = 7.03142 7.32350 7.17894
#
# Compressibility (1/GPa) = 0.01605327
#
# Stress axis : x y z
#
# Youngs Moduli (GPa) = 84.71379 107.91421 50.04463
#
# Poissons Ratio (x) = 0.18444 0.39484
# Poissons Ratio (y) = 0.14479 0.14519
# Poissons Ratio (z) = 0.66836 0.31308
#
# Static dielectric constant tensor:
#      x y z
#    x 1.699350 0.000000 0.000000 
#    y 0.000000 1.688380 0.000000 
#    z 0.000000 0.000000 1.704660 
# 
# From -- ./inp_files/13687.got.cif
#   From: 2010.05.17/outbox.cif.g08.bks.cpg/sg20_7_cif.got.tgz:13687.got - 2010.06.03 22:52:26.
