data_PCOD9318567
_publ_section_title
;
Structure prediction by ZEFSAII (Michael W. Deem and Ramdas Pophale) SiO2 
 PCOD9318567
Probable space group: C 2 2 21
;
_chemical_formula_sum "Si O2"
_cell_formula_units_Z 40
_cell_length_a 22.511657
_cell_length_b 10.014070
_cell_length_c 8.785507
_cell_angle_alpha 90.000000
_cell_angle_beta 90.000000
_cell_angle_gamma 90.000000
_cell_volume 1980.545914
_symmetry_space_group_name_H-M "C 2 2 21"
_symmetry_group_IT_number 20
_symmetry_cell_setting 'orthorhombic'
loop_
_space_group_symop_operation_xyz
x,y,z
-x,-y,1/2+z
x,-y,-z
-x,y,1/2-z
1/2+x,1/2+y,z
1/2-x,1/2-y,1/2+z
1/2+x,1/2-y,-z
1/2-x,1/2+y,1/2-z
loop_
_atom_site_type_symbol
_atom_site_label
_atom_site_fract_x
_atom_site_fract_y
_atom_site_fract_z
Si Si1 0.789292 0.150835 0.932744
Si Si2 0.000000 0.284318 0.750000
Si Si3 0.690297 0.650847 0.933186
Si Si4 0.588378 0.859137 0.001877
Si Si5 0.500000 0.773895 0.250000
Si Si6 0.581305 0.344405 0.492684
O O1 0.796746 0.144068 0.748741
O O2 0.851866 0.209999 0.996704
O O3 0.739106 0.254877 0.984892
O O4 0.779379 0.000000 0.000000
O O5 0.962635 0.365172 0.626727
O O6 0.952048 0.197685 0.840108
O O7 0.629134 0.731066 0.968332
O O8 0.689012 0.500000 0.000000
O O9 0.552095 0.846763 0.157993
O O10 0.622689 0.000000 0.000000
O O11 0.536733 0.692424 0.373720
O O12 0.590425 0.500000 0.500000
#
# Coordination Sequence:
#
# PCOD9318567 Si02
#       6
#     8   4   8   8   4   8
#     4  11  25  47  71 100 138 178 230 285 342 413
#     4  10  20  42  62  98 133 176 223 268 337 400
#     4  12  27  46  73 101 134 180 231 289 347 407
#     4  11  24  43  68  98 138 179 226 275 338 401
#     4  10  24  38  66 100 133 184 219 278 321 422
#     4  10  21  38  66  98 138 171 219 272 341 398
#
# _framework density 20.196452000000001
#
# number of rings (size 3 to 8) (size 9 to 14) (size 15 to 20)
#    0.000    1.200    2.000    3.000    8.400    3.200 
#    0.000    1.000    0.000    0.000    0.000    0.000 
#    0.000    0.000    0.000    0.000    0.000    0.000 
#
# Total GULP energy -111567.629774 kJ/mol
# GULP energy per Si atom -5578.381489 kJ/mol
# Density = 2.015048 g / cm^3
# Si number density = 20.196452 Si / 1000 Ang^3
#
#
#
# Elastic Constant Matrix: (Units=GPa)
#
#
# Indices 1 2 3 4 5 6 
#
# 1 106.2356 44.4977 14.2481 0.0000 0.0000 0.0000
# 2 44.4977 118.2966 27.7451 0.0000 0.0000 0.0000
# 3 14.2481 27.7451 92.9082 0.0000 0.0000 0.0000
# 4 0.0000 0.0000 0.0000 -776.5136 0.0000 0.0000
# 5 0.0000 0.0000 0.0000 0.0000 65.7019 0.0000
# 6 0.0000 0.0000 0.0000 0.0000 0.0000 43.9275
#
#
#
# Elastic Compliance Matrix: (Units=1/GPa)
#
#
# Indices 1 2 3 4 5 6 
#
# 1 0.011195 -0.004095 -0.000494 0.000000 0.000000 0.000000
# 2 -0.004095 0.010588 -0.002534 0.000000 0.000000 0.000000
# 3 -0.000494 -0.002534 0.011596 0.000000 0.000000 0.000000
# 4 0.000000 0.000000 0.000000 -0.001288 0.000000 0.000000
# 5 0.000000 0.000000 0.000000 0.000000 0.015220 0.000000
# 6 0.000000 0.000000 0.000000 0.000000 0.000000 0.022765
#
#
# Mechanical properties :
#
#
# Convention : Reuss Voigt Hill
#
# Bulk Modulus (GPa) = 52.26655 54.49137 53.37896
# Shear Modulus (GPa) = 55.12764 -117.98020 -31.42628
#
# Velocity S-wave (km/s) = 5.23020 -7.65135 -3.94893
# Velocity P-wave (km/s) = 7.89991 7.14271 2.38645
#
# Compressibility (1/GPa) = 0.01913270
#
# Stress axis : x y z
#
# Youngs Moduli (GPa) = 89.32944 94.44670 86.23855
#
# Poissons Ratio (x) = 0.38676 0.04259
# Poissons Ratio (y) = 0.36581 0.21852
# Poissons Ratio (z) = 0.04412 0.23932
#
# Static dielectric constant tensor:
#      x y z
#    x 2.852700 0.000000 0.000000 
#    y 0.000000 1.690120 0.000000 
#    z 0.000000 0.000000 1.708660 
# 
# From -- ./inp_files/6175.got.cif
#   From: 2010.05.17/outbox.cif.g08.bks.cpg/sg20_4_cif.got.tgz:6175.got - 2010.06.03 22:52:26.
