data_PCOD9318563
_publ_section_title
;
Structure prediction by ZEFSAII (Michael W. Deem and Ramdas Pophale) SiO2 
 PCOD9318563
Probable space group: C 2 2 21
;
_chemical_formula_sum "Si O2"
_cell_formula_units_Z 52
_cell_length_a 9.289944
_cell_length_b 10.310722
_cell_length_c 25.887357
_cell_angle_alpha 90.000000
_cell_angle_beta 90.000000
_cell_angle_gamma 90.000000
_cell_volume 2479.647154
_symmetry_space_group_name_H-M "C 2 2 21"
_symmetry_group_IT_number 20
_symmetry_cell_setting 'orthorhombic'
loop_
_space_group_symop_operation_xyz
x,y,z
-x,-y,1/2+z
x,-y,-z
-x,y,1/2-z
1/2+x,1/2+y,z
1/2-x,1/2-y,1/2+z
1/2+x,1/2-y,-z
1/2-x,1/2+y,1/2-z
loop_
_atom_site_type_symbol
_atom_site_label
_atom_site_fract_x
_atom_site_fract_y
_atom_site_fract_z
Si Si1 0.456201 0.291104 0.102680
Si Si2 0.000000 0.562146 0.750000
Si Si3 0.464594 0.437414 0.947081
Si Si4 0.757056 0.177392 0.134681
Si Si5 0.092604 0.441481 0.355180
Si Si6 0.708372 0.102073 0.832700
Si Si7 0.211637 0.594552 0.452354
O O1 0.499235 0.436788 0.088273
O O2 0.592907 0.211354 0.121528
O O3 0.330945 0.306590 0.145390
O O4 0.386616 0.220961 0.052988
O O5 0.068856 0.489729 0.700616
O O6 0.128713 0.637428 0.779376
O O7 0.346989 0.354013 0.917308
O O8 0.619448 0.371776 0.955882
O O9 0.409807 0.500000 0.000000
O O10 0.828078 0.306731 0.156968
O O11 0.764055 0.046832 0.168777
O O12 0.174054 0.518771 0.399203
O O13 0.928653 0.405959 0.371774
O O14 0.178537 0.500000 0.500000
#
# Coordination Sequence:
#
# PCOD9318563 Si02
#       7
#     8   4   8   8   8   8   8
#     4  11  21  39  62  90 126 161 210 256 313 373
#     4   8  20  44  62  90 126 162 208 262 326 374
#     4  10  24  38  58  91 126 170 211 255 312 379
#     4  11  21  39  62  88 124 164 205 264 311 377
#     4  10  20  42  62  89 126 161 211 260 321 383
#     4   9  21  42  61  89 124 160 208 258 317 371
#     4  11  23  40  63  95 126 170 213 263 323 383
#
# _framework density 20.970725000000002
#
# number of rings (size 3 to 8) (size 9 to 14) (size 15 to 20)
#    0.923    0.923    3.077    0.923    2.154    0.615 
#    5.538    0.000    0.000    0.000    0.000    0.000 
#    0.000    0.000    0.000    0.000    0.000    0.000 
#
# Total GULP energy -144806.949867 kJ/mol
# GULP energy per Si atom -5569.498072 kJ/mol
# Density = 2.092300 g / cm^3
# Si number density = 20.970725 Si / 1000 Ang^3
#
#
#
# Elastic Constant Matrix: (Units=GPa)
#
#
# Indices 1 2 3 4 5 6 
#
# 1 80.3768 21.9580 11.0564 0.0000 0.0000 0.0000
# 2 21.9580 58.6386 -3.5230 0.0000 0.0000 0.0000
# 3 11.0564 -3.5230 86.2443 0.0000 0.0000 0.0000
# 4 0.0000 0.0000 0.0000 16.9421 0.0000 0.0000
# 5 0.0000 0.0000 0.0000 0.0000 18.6565 0.0000
# 6 0.0000 0.0000 0.0000 0.0000 0.0000 29.7872
#
#
#
# Elastic Compliance Matrix: (Units=1/GPa)
#
#
# Indices 1 2 3 4 5 6 
#
# 1 0.014210 -0.005444 -0.002044 0.000000 0.000000 0.000000
# 2 -0.005444 0.019181 0.001481 0.000000 0.000000 0.000000
# 3 -0.002044 0.001481 0.011918 0.000000 0.000000 0.000000
# 4 0.000000 0.000000 0.000000 0.059024 0.000000 0.000000
# 5 0.000000 0.000000 0.000000 0.000000 0.053601 0.000000
# 6 0.000000 0.000000 0.000000 0.000000 0.000000 0.033571
#
#
# Mechanical properties :
#
#
# Convention : Reuss Voigt Hill
#
# Bulk Modulus (GPa) = 30.03411 31.58251 30.80831
# Shear Modulus (GPa) = 23.29739 26.12839 24.71289
#
# Velocity S-wave (km/s) = 3.33671 3.53363 3.43658
# Velocity P-wave (km/s) = 5.40350 5.63397 5.51994
#
# Compressibility (1/GPa) = 0.03329548
#
# Stress axis : x y z
#
# Youngs Moduli (GPa) = 70.37410 52.13457 83.91006
#
# Poissons Ratio (x) = 0.28381 0.17152
# Poissons Ratio (y) = 0.38311 -0.12431
# Poissons Ratio (z) = 0.14385 -0.07723
#
# Static dielectric constant tensor:
#      x y z
#    x 1.761870 0.000000 0.000000 
#    y 0.000000 1.811680 0.000000 
#    z 0.000000 0.000000 1.766830 
# 
# From -- ./inp_files/30105.got.cif
#   From: 2010.05.17/outbox.cif.g08.bks.cpg/sg20_16_cif.got.tgz:30105.got - 2010.06.03 22:52:26.
