data_PCOD9318205
_publ_section_title
;
Structure prediction by ZEFSAII (Michael W. Deem and Ramdas Pophale) SiO2 
 PCOD9318205
Probable space group: C 2 2 21
;
_chemical_formula_sum "Si O2"
_cell_formula_units_Z 56
_cell_length_a 5.004509
_cell_length_b 35.657333
_cell_length_c 15.481078
_cell_angle_alpha 90.000000
_cell_angle_beta 90.000000
_cell_angle_gamma 90.000000
_cell_volume 2762.558798
_symmetry_space_group_name_H-M "C 2 2 21"
_symmetry_group_IT_number 20
_symmetry_cell_setting 'orthorhombic'
loop_
_space_group_symop_operation_xyz
x,y,z
-x,-y,1/2+z
x,-y,-z
-x,y,1/2-z
1/2+x,1/2+y,z
1/2-x,1/2-y,1/2+z
1/2+x,1/2-y,-z
1/2-x,1/2+y,1/2-z
loop_
_atom_site_type_symbol
_atom_site_label
_atom_site_fract_x
_atom_site_fract_y
_atom_site_fract_z
Si Si1 0.033000 0.998527 0.901334
Si Si2 0.557589 0.830544 0.085719
Si Si3 0.238469 0.615137 0.307371
Si Si4 0.000000 0.384924 0.250000
Si Si5 0.000000 0.940395 0.250000
Si Si6 0.057270 0.833540 0.959879
Si Si7 0.486262 0.251295 0.942567
Si Si8 0.462172 0.037270 0.345326
O O1 0.848111 0.965103 0.865025
O O2 0.344191 0.988218 0.901778
O O3 0.981271 0.033104 0.835765
O O4 0.944448 0.000000 0.000000
O O5 0.553672 0.858072 0.167290
O O6 0.568401 0.785928 0.109571
O O7 0.284834 0.833518 0.032525
O O8 0.788304 0.839393 0.015473
O O9 0.500000 0.606562 0.250000
O O10 0.354922 0.637347 0.388086
O O11 0.085134 0.578419 0.342178
O O12 0.000000 0.634285 0.250000
O O13 0.249350 0.412812 0.261383
O O14 0.039535 0.793263 0.911261
O O15 0.177872 0.250456 0.972326
O O16 0.500000 0.020842 0.250000
#
# Coordination Sequence:
#
# PCOD9318205 Si02
#       8
#     8   8   8   4   4   8   8   8
#     4  12  25  43  69  94 119 162 219 256 322 396
#     4  10  21  39  62  89 124 179 215 255 321 382
#     4  11  23  38  61  96 127 160 205 258 320 385
#     4  12  26  42  64  94 137 166 215 268 332 386
#     4  12  26  46  64  92 135 164 207 290 332 378
#     4  10  20  38  64  90 132 167 214 267 314 374
#     4   8  16  33  59  85 116 166 215 254 303 366
#     4  11  21  42  64  86 124 164 191 252 322 380
#
# _framework density 20.271063999999999
#
# number of rings (size 3 to 8) (size 9 to 14) (size 15 to 20)
#    0.000    1.429    1.429    4.714    0.000    3.429 
#    1.286    0.000    1.571    0.000    0.000    0.000 
#    0.000    0.000    0.000    0.000    0.000    0.000 
#
# Total GULP energy -156074.708386 kJ/mol
# GULP energy per Si atom -5574.096728 kJ/mol
# Density = 2.022493 g / cm^3
# Si number density = 20.271064 Si / 1000 Ang^3
#
#
#
# Elastic Constant Matrix: (Units=GPa)
#
#
# Indices 1 2 3 4 5 6 
#
# 1 71.0162 21.5310 -0.7843 0.0000 0.0000 0.0000
# 2 21.5310 122.6543 59.5055 0.0000 0.0000 0.0000
# 3 -0.7843 59.5055 93.0621 0.0000 0.0000 0.0000
# 4 0.0000 0.0000 0.0000 21.5407 0.0000 0.0000
# 5 0.0000 0.0000 0.0000 0.0000 27.0784 0.0000
# 6 0.0000 0.0000 0.0000 0.0000 0.0000 19.9660
#
#
#
# Elastic Compliance Matrix: (Units=1/GPa)
#
#
# Indices 1 2 3 4 5 6 
#
# 1 0.015321 -0.003990 0.002680 0.000000 0.000000 0.000000
# 2 -0.003990 0.012859 -0.008256 0.000000 0.000000 0.000000
# 3 0.002680 -0.008256 0.016047 0.000000 0.000000 0.000000
# 4 0.000000 0.000000 0.000000 0.046424 0.000000 0.000000
# 5 0.000000 0.000000 0.000000 0.000000 0.036930 0.000000
# 6 0.000000 0.000000 0.000000 0.000000 0.000000 0.050085
#
#
# Mechanical properties :
#
#
# Convention : Reuss Voigt Hill
#
# Bulk Modulus (GPa) = 39.84738 49.69297 44.77018
# Shear Modulus (GPa) = 24.37121 27.48237 25.92679
#
# Velocity S-wave (km/s) = 3.47113 3.68604 3.58020
# Velocity P-wave (km/s) = 5.98038 6.53324 6.26292
#
# Compressibility (1/GPa) = 0.02509575
#
# Stress axis : x y z
#
# Youngs Moduli (GPa) = 65.27201 77.76928 62.31741
#
# Poissons Ratio (x) = 0.31027 -0.16702
# Poissons Ratio (y) = 0.26041 0.51447
# Poissons Ratio (z) = -0.17494 0.64203
#
# Static dielectric constant tensor:
#      x y z
#    x 1.720650 0.000000 0.000000 
#    y 0.000000 1.768860 0.000000 
#    z 0.000000 0.000000 1.810390 
# 
# From -- ./inp_files/17999.got.cif
#   From: 2010.05.17/outbox.cif.g08.bks.cpg/sg20_9_cif.got.tgz:17999.got - 2010.06.03 22:52:26.
