data_PCOD9318674
_publ_section_title
;
Structure prediction by ZEFSAII (Michael W. Deem and Ramdas Pophale) SiO2 
 PCOD9318674
Probable space group: C 2 2 21
;
_chemical_formula_sum "Si O2"
_cell_formula_units_Z 36
_cell_length_a 12.640998
_cell_length_b 6.679757
_cell_length_c 21.159016
_cell_angle_alpha 90.000000
_cell_angle_beta 90.000000
_cell_angle_gamma 90.000000
_cell_volume 1786.641812
_symmetry_space_group_name_H-M "C 2 2 21"
_symmetry_group_IT_number 20
_symmetry_cell_setting 'orthorhombic'
loop_
_space_group_symop_operation_xyz
x,y,z
-x,-y,1/2+z
x,-y,-z
-x,y,1/2-z
1/2+x,1/2+y,z
1/2-x,1/2-y,1/2+z
1/2+x,1/2-y,-z
1/2-x,1/2+y,1/2-z
loop_
_atom_site_type_symbol
_atom_site_label
_atom_site_fract_x
_atom_site_fract_y
_atom_site_fract_z
Si Si1 0.941771 0.000000 0.500000
Si Si2 0.490674 0.187249 0.898304
Si Si3 0.720272 0.781675 0.332503
Si Si4 0.396768 0.418168 0.715166
Si Si5 0.661444 0.117270 0.058819
O O1 0.007770 0.863999 0.549220
O O2 0.868446 0.841786 0.462173
O O3 0.375587 0.126840 0.873373
O O4 0.555974 0.274350 0.838641
O O5 0.553732 0.000733 0.926136
O O6 0.668693 0.698772 0.268677
O O7 0.816697 0.925495 0.315401
O O8 0.767782 0.614201 0.378872
O O9 0.500000 0.511300 0.750000
O O10 0.712088 0.000000 0.000000
#
# Coordination Sequence:
#
# PCOD9318674 Si02
#       5
#     4   8   8   8   8
#     4  10  20  44  62  88 136 162 208 270 310 366
#     4  10  22  41  61  93 128 161 214 262 312 378
#     4  11  22  40  65  94 124 171 210 257 323 379
#     4  10  22  40  63  94 129 162 212 265 313 378
#     4  10  22  41  62  91 128 166 209 267 311 376
#
# _framework density 20.149532000000001
#
# number of rings (size 3 to 8) (size 9 to 14) (size 15 to 20)
#    0.000    1.778    2.222    1.333    1.556    1.778 
#   10.000    0.000    0.000    0.000    0.000    0.000 
#    0.000    0.000    0.000    0.000    0.000    0.000 
#
# Total GULP energy -100475.059520 kJ/mol
# GULP energy per Si atom -5581.947751 kJ/mol
# Density = 2.010367 g / cm^3
# Si number density = 20.149532 Si / 1000 Ang^3
#
#
#
# Elastic Constant Matrix: (Units=GPa)
#
#
# Indices 1 2 3 4 5 6 
#
# 1 109.8984 36.0884 44.0358 0.0000 0.0000 0.0000
# 2 36.0884 65.6657 31.9778 0.0000 0.0000 0.0000
# 3 44.0358 31.9778 117.0039 0.0000 0.0000 0.0000
# 4 0.0000 0.0000 0.0000 25.8861 0.0000 0.0000
# 5 0.0000 0.0000 0.0000 0.0000 -2.7115 0.0000
# 6 0.0000 0.0000 0.0000 0.0000 0.0000 18.6444
#
#
#
# Elastic Compliance Matrix: (Units=1/GPa)
#
#
# Indices 1 2 3 4 5 6 
#
# 1 0.012025 -0.005081 -0.003137 0.000000 0.000000 0.000000
# 2 -0.005081 0.019713 -0.003476 0.000000 0.000000 0.000000
# 3 -0.003137 -0.003476 0.010677 0.000000 0.000000 0.000000
# 4 0.000000 0.000000 0.000000 0.038631 0.000000 0.000000
# 5 0.000000 0.000000 0.000000 0.000000 -0.368795 0.000000
# 6 0.000000 0.000000 0.000000 0.000000 0.000000 0.053635
#
#
# Mechanical properties :
#
#
# Convention : Reuss Voigt Hill
#
# Bulk Modulus (GPa) = 52.55245 57.41911 54.98578
# Shear Modulus (GPa) = -24.46380 20.39488 -2.03446
#
# Velocity S-wave (km/s) = -3.48819 3.18492 -1.00592
# Velocity P-wave (km/s) = 3.14874 6.48717 5.09892
#
# Compressibility (1/GPa) = 0.01902861
#
# Stress axis : x y z
#
# Youngs Moduli (GPa) = 83.16182 50.72670 93.65689
#
# Poissons Ratio (x) = 0.25774 0.29380
# Poissons Ratio (y) = 0.42253 0.32551
# Poissons Ratio (z) = 0.26088 0.17630
#
# Static dielectric constant tensor:
#      x y z
#    x 1.710000 0.000000 0.000000 
#    y 0.000000 1.686040 0.000000 
#    z 0.000000 0.000000 1.755770 
# 
# From -- ./inp_files/27394.got.cif
#   From: 2010.05.17/outbox.cif.g08.bks.cpg/sg20_14_cif.got.tgz:27394.got - 2010.06.03 22:52:26.
