data_PCOD9318647
_publ_section_title
;
Structure prediction by ZEFSAII (Michael W. Deem and Ramdas Pophale) SiO2 
 PCOD9318647
Probable space group: C 2 2 21
;
_chemical_formula_sum "Si O2"
_cell_formula_units_Z 48
_cell_length_a 12.530641
_cell_length_b 9.736881
_cell_length_c 14.965883
_cell_angle_alpha 90.000000
_cell_angle_beta 90.000000
_cell_angle_gamma 90.000000
_cell_volume 1825.977811
_symmetry_space_group_name_H-M "C 2 2 21"
_symmetry_group_IT_number 20
_symmetry_cell_setting 'orthorhombic'
loop_
_space_group_symop_operation_xyz
x,y,z
-x,-y,1/2+z
x,-y,-z
-x,y,1/2-z
1/2+x,1/2+y,z
1/2-x,1/2-y,1/2+z
1/2+x,1/2-y,-z
1/2-x,1/2+y,1/2-z
loop_
_atom_site_type_symbol
_atom_site_label
_atom_site_fract_x
_atom_site_fract_y
_atom_site_fract_z
Si Si1 0.713588 0.743900 0.889518
Si Si2 0.193722 0.957353 0.856589
Si Si3 0.536022 0.257208 0.645822
Si Si4 0.620905 0.544113 0.658614
Si Si5 0.841147 0.349875 0.425779
Si Si6 0.602210 0.159044 0.291287
O O1 0.672645 0.592202 0.913260
O O2 0.839474 0.731871 0.874138
O O3 0.668893 0.791787 0.794914
O O4 0.679220 0.842488 0.969244
O O5 0.163423 0.806609 0.887481
O O6 0.321173 0.937193 0.846102
O O7 0.145233 0.993330 0.759295
O O8 0.500000 0.248922 0.750000
O O9 0.544113 0.424195 0.620244
O O10 0.466350 0.138785 0.595887
O O11 0.739869 0.572059 0.617912
O O12 0.571668 0.697761 0.659429
O O13 0.500000 0.088679 0.250000
#
# Coordination Sequence:
#
# PCOD9318647 Si02
#       6
#     8   8   8   8   8   8
#     4  11  25  43  63 105 145 174 241 306 357 440
#     4  10  20  43  64  90 133 184 234 288 338 448
#     4  12  22  46  76  98 136 204 239 283 373 440
#     4  10  21  41  68 101 133 178 248 289 325 459
#     4  11  25  42  67 104 144 177 234 306 367 407
#     4  10  21  38  66  98 131 175 241 287 342 422
#
# _framework density 26.287288
#
# number of rings (size 3 to 8) (size 9 to 14) (size 15 to 20)
#    0.000    1.333    3.333    3.000    2.333    5.333 
#    3.000    0.000    0.000    0.000    0.000    0.000 
#    0.000    0.000    0.000    0.000    0.000    0.000 
#
# Total GULP energy -134055.472128 kJ/mol
# GULP energy per Si atom -5585.644672 kJ/mol
# Density = 2.622746 g / cm^3
# Si number density = 26.287288 Si / 1000 Ang^3
#
#
#
# Elastic Constant Matrix: (Units=GPa)
#
#
# Indices 1 2 3 4 5 6 
#
# 1 116.2747 -14.1614 -2.4200 0.0000 0.0000 0.0000
# 2 -14.1614 91.9271 19.4397 0.0000 0.0000 0.0000
# 3 -2.4200 19.4397 53.7335 0.0000 0.0000 0.0000
# 4 0.0000 0.0000 0.0000 43.8571 0.0000 0.0000
# 5 0.0000 0.0000 0.0000 0.0000 11.6414 0.0000
# 6 0.0000 0.0000 0.0000 0.0000 0.0000 53.9855
#
#
#
# Elastic Compliance Matrix: (Units=1/GPa)
#
#
# Indices 1 2 3 4 5 6 
#
# 1 0.008765 0.001372 -0.000102 0.000000 0.000000 0.000000
# 2 0.001372 0.011994 -0.004277 0.000000 0.000000 0.000000
# 3 -0.000102 -0.004277 0.020153 0.000000 0.000000 0.000000
# 4 0.000000 0.000000 0.000000 0.022801 0.000000 0.000000
# 5 0.000000 0.000000 0.000000 0.000000 0.085900 0.000000
# 6 0.000000 0.000000 0.000000 0.000000 0.000000 0.018523
#
#
# Mechanical properties :
#
#
# Convention : Reuss Voigt Hill
#
# Bulk Modulus (GPa) = 28.65475 29.73913 29.19694
# Shear Modulus (GPa) = 26.91290 39.16862 33.04076
#
# Velocity S-wave (km/s) = 3.20316 3.86427 3.54914
# Velocity P-wave (km/s) = 4.96030 5.58997 5.28452
#
# Compressibility (1/GPa) = 0.03489823
#
# Stress axis : x y z
#
# Youngs Moduli (GPa) = 114.08653 83.37471 49.61967
#
# Poissons Ratio (x) = -0.11437 0.00504
# Poissons Ratio (y) = -0.15650 0.21225
# Poissons Ratio (z) = 0.01158 0.35663
#
# Static dielectric constant tensor:
#      x y z
#    x 2.506420 0.000000 0.000000 
#    y 0.000000 2.226500 0.000000 
#    z 0.000000 0.000000 2.010180 
# 
# From -- ./inp_files/24265.got.cif
#   From: 2010.05.17/outbox.cif.g08.bks.cpg/sg20_13_cif.got.tgz:24265.got - 2010.06.03 22:52:26.
