data_PCOD9318351
_publ_section_title
;
Structure prediction by ZEFSAII (Michael W. Deem and Ramdas Pophale) SiO2 
 PCOD9318351
Probable space group: C 2 2 21
;
_chemical_formula_sum "Si O2"
_cell_formula_units_Z 60
_cell_length_a 18.195829
_cell_length_b 19.923783
_cell_length_c 7.727627
_cell_angle_alpha 90.000000
_cell_angle_beta 90.000000
_cell_angle_gamma 90.000000
_cell_volume 2801.494673
_symmetry_space_group_name_H-M "C 2 2 21"
_symmetry_group_IT_number 20
_symmetry_cell_setting 'orthorhombic'
loop_
_space_group_symop_operation_xyz
x,y,z
-x,-y,1/2+z
x,-y,-z
-x,y,1/2-z
1/2+x,1/2+y,z
1/2-x,1/2-y,1/2+z
1/2+x,1/2-y,-z
1/2-x,1/2+y,1/2-z
loop_
_atom_site_type_symbol
_atom_site_label
_atom_site_fract_x
_atom_site_fract_y
_atom_site_fract_z
Si Si1 0.500000 0.923422 0.250000
Si Si2 0.929576 0.064424 0.620713
Si Si3 0.720912 0.741366 0.435399
Si Si4 0.037407 0.204811 0.940340
Si Si5 0.351610 0.063245 0.592211
Si Si6 0.858725 0.319585 0.675006
Si Si7 0.078353 0.304542 0.443251
Si Si8 0.217069 0.140572 0.762290
O O1 0.570827 0.961260 0.174582
O O2 0.542549 0.871686 0.374583
O O3 0.949119 0.129390 0.503358
O O4 0.855005 0.093480 0.715052
O O5 0.000000 0.052253 0.750000
O O6 0.916242 0.000000 0.500000
O O7 0.771624 0.691222 0.326859
O O8 0.645709 0.767203 0.350117
O O9 0.763340 0.813528 0.429529
O O10 0.705661 0.696565 0.607846
O O11 0.105532 0.253942 0.911411
O O12 0.000000 0.198334 0.750000
O O13 0.982545 0.247948 0.051088
O O14 0.374519 0.118301 0.449348
O O15 0.290097 0.097699 0.713796
O O16 0.315490 0.000000 0.500000
O O17 0.891707 0.322315 0.865449
#
# Coordination Sequence:
#
# PCOD9318351 Si02
#       8
#     4   8   8   8   8   8   8   8
#     4  12  24  38  66  96 132 166 238 284 324 412
#     4  11  24  47  71 101 145 188 231 283 353 435
#     4  11  19  38  69 101 131 172 226 293 344 406
#     4   9  17  36  66  91 126 169 213 278 336 389
#     4  11  26  45  62  93 141 183 221 282 339 419
#     4  10  20  39  67  91 127 180 216 271 358 399
#     4  11  21  37  63 102 128 165 225 290 334 403
#     4  11  23  44  69 104 140 179 237 291 354 415
#
# _framework density 21.417138000000001
#
# number of rings (size 3 to 8) (size 9 to 14) (size 15 to 20)
#    0.000    1.333    5.333    1.600    0.000    1.600 
#    3.600    2.000    0.000    0.000    0.000    0.000 
#    0.000    0.000    0.000    0.000    0.000    0.000 
#
# Total GULP energy -167064.738910 kJ/mol
# GULP energy per Si atom -5568.824630 kJ/mol
# Density = 2.136839 g / cm^3
# Si number density = 21.417138 Si / 1000 Ang^3
#
#
#
# Elastic Constant Matrix: (Units=GPa)
#
#
# Indices 1 2 3 4 5 6 
#
# 1 134.1533 19.7593 40.4346 0.0000 0.0000 0.0000
# 2 19.7593 103.7906 33.9788 0.0000 0.0000 0.0000
# 3 40.4346 33.9788 64.9049 0.0000 0.0000 0.0000
# 4 0.0000 0.0000 0.0000 38.1635 0.0000 0.0000
# 5 0.0000 0.0000 0.0000 0.0000 25.5141 0.0000
# 6 0.0000 0.0000 0.0000 0.0000 0.0000 24.3502
#
#
#
# Elastic Compliance Matrix: (Units=1/GPa)
#
#
# Indices 1 2 3 4 5 6 
#
# 1 0.009179 0.000150 -0.005797 0.000000 0.000000 0.000000
# 2 0.000150 0.011630 -0.006182 0.000000 0.000000 0.000000
# 3 -0.005797 -0.006182 0.022255 0.000000 0.000000 0.000000
# 4 0.000000 0.000000 0.000000 0.026203 0.000000 0.000000
# 5 0.000000 0.000000 0.000000 0.000000 0.039194 0.000000
# 6 0.000000 0.000000 0.000000 0.000000 0.000000 0.041067
#
#
# Mechanical properties :
#
#
# Convention : Reuss Voigt Hill
#
# Bulk Modulus (GPa) = 51.52934 54.57711 53.05322
# Shear Modulus (GPa) = 27.83091 31.51729 29.67410
#
# Velocity S-wave (km/s) = 3.60873 3.84030 3.72631
# Velocity P-wave (km/s) = 6.44018 6.72325 6.58324
#
# Compressibility (1/GPa) = 0.01940642
#
# Stress axis : x y z
#
# Youngs Moduli (GPa) = 108.94017 85.98391 44.93316
#
# Poissons Ratio (x) = -0.01293 0.26049
# Poissons Ratio (y) = -0.01638 0.27779
# Poissons Ratio (z) = 0.63156 0.53157
#
# Static dielectric constant tensor:
#      x y z
#    x 1.884670 0.000000 0.000000 
#    y 0.000000 1.744250 0.000000 
#    z 0.000000 0.000000 1.855560 
# 
# From -- ./inp_files/9595.got.cif
#   From: 2010.05.17/outbox.cif.g08.bks.cpg/sg20_5_cif.got.tgz:9595.got - 2010.06.03 22:52:26.
