data_PCOD9318164
_publ_section_title
;
Structure prediction by ZEFSAII (Michael W. Deem and Ramdas Pophale) SiO2 
 PCOD9318164
Probable space group: C 2 2 21
;
_chemical_formula_sum "Si O2"
_cell_formula_units_Z 28
_cell_length_a 8.241266
_cell_length_b 32.620074
_cell_length_c 4.994384
_cell_angle_alpha 90.000000
_cell_angle_beta 90.000000
_cell_angle_gamma 90.000000
_cell_volume 1342.643781
_symmetry_space_group_name_H-M "C 2 2 21"
_symmetry_group_IT_number 20
_symmetry_cell_setting 'orthorhombic'
loop_
_space_group_symop_operation_xyz
x,y,z
-x,-y,1/2+z
x,-y,-z
-x,y,1/2-z
1/2+x,1/2+y,z
1/2-x,1/2-y,1/2+z
1/2+x,1/2-y,-z
1/2-x,1/2+y,1/2-z
loop_
_atom_site_type_symbol
_atom_site_label
_atom_site_fract_x
_atom_site_fract_y
_atom_site_fract_z
Si Si1 0.182047 0.867468 0.862501
Si Si2 0.318938 0.271793 0.631660
Si Si3 0.116951 0.500000 0.000000
Si Si4 0.817012 0.411745 0.362693
O O1 0.217631 0.819680 0.912570
O O2 0.296287 0.886050 0.632806
O O3 0.000000 0.870656 0.750000
O O4 0.204900 0.892686 0.133714
O O5 0.500000 0.268342 0.750000
O O6 0.297153 0.247672 0.355906
O O7 0.215814 0.459474 0.075331
O O8 0.000000 0.510656 0.250000
O O9 0.000000 0.409870 0.250000
#
# Coordination Sequence:
#
# PCOD9318164 Si02
#       4
#     8   8   4   8
#     4  11  24  41  60  90 128 160 194 250 312 356
#     4  11  24  41  62  88 123 162 202 250 302 355
#     4  10  20  38  62  92 124 154 198 256 302 342
#     4  11  22  39  65  91 117 159 208 249 292 358
#
# _framework density 20.854376999999999
#
# number of rings (size 3 to 8) (size 9 to 14) (size 15 to 20)
#    0.000    1.143    0.000    7.714    0.000   11.429 
#    0.000    2.857    0.000    1.714    0.000    0.000 
#    0.000    0.000    0.000    0.000    0.000    0.000 
#
# Total GULP energy -78363.999110 kJ/mol
# GULP energy per Si atom -5597.428508 kJ/mol
# Density = 2.080691 g / cm^3
# Si number density = 20.854377 Si / 1000 Ang^3
#
#
#
# Elastic Constant Matrix: (Units=GPa)
#
#
# Indices 1 2 3 4 5 6 
#
# 1 36.8507 50.5432 12.1209 0.0000 0.0000 0.0000
# 2 50.5432 192.4444 68.7594 0.0000 0.0000 0.0000
# 3 12.1209 68.7594 135.2038 0.0000 0.0000 0.0000
# 4 0.0000 0.0000 0.0000 120.4450 0.0000 0.0000
# 5 0.0000 0.0000 0.0000 0.0000 34.8860 0.0000
# 6 0.0000 0.0000 0.0000 0.0000 0.0000 11.1029
#
#
#
# Elastic Compliance Matrix: (Units=1/GPa)
#
#
# Indices 1 2 3 4 5 6 
#
# 1 0.042997 -0.012117 0.002308 0.000000 0.000000 0.000000
# 2 -0.012117 0.009765 -0.003880 0.000000 0.000000 0.000000
# 3 0.002308 -0.003880 0.009162 0.000000 0.000000 0.000000
# 4 0.000000 0.000000 0.000000 0.008303 0.000000 0.000000
# 5 0.000000 0.000000 0.000000 0.000000 0.028665 0.000000
# 6 0.000000 0.000000 0.000000 0.000000 0.000000 0.090066
#
#
# Mechanical properties :
#
#
# Convention : Reuss Voigt Hill
#
# Bulk Modulus (GPa) = 28.94706 69.70509 49.32608
# Shear Modulus (GPa) = 21.94410 48.82516 35.38463
#
# Velocity S-wave (km/s) = 3.24737 4.84389 4.12363
# Velocity P-wave (km/s) = 5.28878 8.04870 6.81002
#
# Compressibility (1/GPa) = 0.03454582
#
# Stress axis : x y z
#
# Youngs Moduli (GPa) = 23.25751 102.40707 109.14090
#
# Poissons Ratio (x) = 1.24088 -0.25186
# Poissons Ratio (y) = 0.28181 0.42344
# Poissons Ratio (z) = -0.05367 0.39732
#
# Static dielectric constant tensor:
#      x y z
#    x 1.737010 0.000000 0.000000 
#    y 0.000000 1.723750 0.000000 
#    z 0.000000 0.000000 1.724560 
# 
# From -- ./inp_files/445.got.cif
#   From: 2010.05.17/outbox.cif.g08.bks.cpg/sg20_1_cif.got.tgz:445.got - 2010.06.03 22:52:26.
