data_PCOD9318939
_publ_section_title
;
Structure prediction by ZEFSAII (Michael W. Deem and Ramdas Pophale) SiO2 
 PCOD9318939
Probable space group: C 2 2 21
;
_chemical_formula_sum "Si O2"
_cell_formula_units_Z 64
_cell_length_a 8.688264
_cell_length_b 24.405636
_cell_length_c 15.888512
_cell_angle_alpha 90.000000
_cell_angle_beta 90.000000
_cell_angle_gamma 90.000000
_cell_volume 3369.041532
_symmetry_space_group_name_H-M "C 2 2 21"
_symmetry_group_IT_number 20
_symmetry_cell_setting 'orthorhombic'
loop_
_space_group_symop_operation_xyz
x,y,z
-x,-y,1/2+z
x,-y,-z
-x,y,1/2-z
1/2+x,1/2+y,z
1/2-x,1/2-y,1/2+z
1/2+x,1/2-y,-z
1/2-x,1/2+y,1/2-z
loop_
_atom_site_type_symbol
_atom_site_label
_atom_site_fract_x
_atom_site_fract_y
_atom_site_fract_z
Si Si1 0.685388 0.863031 0.344265
Si Si2 0.815784 0.865570 0.655201
Si Si3 0.185388 0.363031 0.155735
Si Si4 0.184214 0.865570 0.655199
Si Si5 0.686071 0.063296 0.002990
Si Si6 0.183739 0.251084 0.594552
Si Si7 0.683740 0.751083 0.905448
Si Si8 0.813930 0.436704 0.997009
O O1 0.722812 0.882593 0.250000
O O2 0.500000 0.856647 0.349525
O O3 0.760630 0.804106 0.360346
O O4 0.732800 0.904248 0.418439
O O5 0.775620 0.883554 0.750001
O O6 0.747624 0.805276 0.639088
O O7 0.751734 0.905574 0.583795
O O8 0.999999 0.862508 0.648248
O O9 0.260628 0.304106 0.139651
O O10 0.232800 0.404249 0.081561
O O11 0.248263 0.905573 0.583794
O O12 0.252373 0.805276 0.639086
O O13 0.500001 0.064998 0.007508
O O14 0.734115 0.000000 0.000000
O O15 0.249999 0.250001 0.500000
O O16 0.999999 0.253242 0.591515
O O17 0.765886 0.500000 0.000000
#
# Coordination Sequence:
#
# PCOD9318939 Si02
#       8
#     8   8   8   8   8   8   8   8
#     4  10  21  38  60  88 123 160 197 244 301 359
#     4  11  24  41  62  90 124 162 201 247 303 359
#     4  10  21  38  60  88 123 160 197 244 301 359
#     4  11  24  41  62  90 124 162 201 247 303 359
#     4  10  22  40  63  90 120 160 208 253 298 352
#     4  12  23  37  61  91 122 157 197 246 304 363
#     4  12  23  37  61  91 122 157 197 246 304 363
#     4  10  22  40  63  90 120 160 208 253 298 352
#
# _framework density 18.996500999999999
#
# number of rings (size 3 to 8) (size 9 to 14) (size 15 to 20)
#    0.000    1.250    2.500    3.750    0.000    7.000 
#    0.000    2.500    0.000    0.000    0.000    0.000 
#    0.000    0.000    0.000    0.000    0.000    0.000 
#
# Total GULP energy -178927.411302 kJ/mol
# GULP energy per Si atom -5591.481603 kJ/mol
# Density = 1.895326 g / cm^3
# Si number density = 18.996501 Si / 1000 Ang^3
#
#
#
# Elastic Constant Matrix: (Units=GPa)
#
#
# Indices 1 2 3 4 5 6 
#
# 1 37.4933 43.6943 53.8635 0.0000 0.0000 0.0000
# 2 43.6943 169.0815 98.7100 0.0000 0.0000 0.0000
# 3 53.8635 98.7100 198.3942 0.0000 0.0000 0.0000
# 4 0.0000 0.0000 0.0000 -1.9725 0.0000 0.0000
# 5 0.0000 0.0000 0.0000 0.0000 29.4364 0.0000
# 6 0.0000 0.0000 0.0000 0.0000 0.0000 22.5709
#
#
#
# Elastic Compliance Matrix: (Units=1/GPa)
#
#
# Indices 1 2 3 4 5 6 
#
# 1 0.048804 -0.006873 -0.009831 0.000000 0.000000 0.000000
# 2 -0.006873 0.009303 -0.002763 0.000000 0.000000 0.000000
# 3 -0.009831 -0.002763 0.009084 0.000000 0.000000 0.000000
# 4 0.000000 0.000000 0.000000 -0.506969 0.000000 0.000000
# 5 0.000000 0.000000 0.000000 0.000000 0.033972 0.000000
# 6 0.000000 0.000000 0.000000 0.000000 0.000000 0.044305
#
#
# Mechanical properties :
#
#
# Convention : Reuss Voigt Hill
#
# Bulk Modulus (GPa) = 35.38736 88.61163 61.99949
# Shear Modulus (GPa) = -15.96681 23.92037 3.97678
#
# Velocity S-wave (km/s) = -2.90231 3.55237 1.44844
# Velocity P-wave (km/s) = 2.72720 7.97329 5.95865
#
# Compressibility (1/GPa) = 0.02825868
#
# Stress axis : x y z
#
# Youngs Moduli (GPa) = 20.49022 107.48790 110.08251
#
# Poissons Ratio (x) = 0.73875 1.08217
# Poissons Ratio (y) = 0.14083 0.30415
# Poissons Ratio (z) = 0.20143 0.29698
#
# Static dielectric constant tensor:
#      x y z
#    x 1.640840 0.000000 0.000000 
#    y 0.000000 1.624070 0.000000 
#    z 0.000000 0.000000 1.664030 
# 
# From -- ./inp_files/19384.got.cif
#   From: 2010.05.17/outbox.cif.g08.bks.cpg/sg20_10_cif.got.tgz:19384.got - 2010.06.03 22:52:26.
