data_PCOD9318320
_publ_section_title
;
Structure prediction by ZEFSAII (Michael W. Deem and Ramdas Pophale) SiO2 
 PCOD9318320
Probable space group: C 2 2 21
;
_chemical_formula_sum "Si O2"
_cell_formula_units_Z 40
_cell_length_a 10.798280
_cell_length_b 20.887816
_cell_length_c 8.676918
_cell_angle_alpha 90.000000
_cell_angle_beta 90.000000
_cell_angle_gamma 90.000000
_cell_volume 1957.100424
_symmetry_space_group_name_H-M "C 2 2 21"
_symmetry_group_IT_number 20
_symmetry_cell_setting 'orthorhombic'
loop_
_space_group_symop_operation_xyz
x,y,z
-x,-y,1/2+z
x,-y,-z
-x,y,1/2-z
1/2+x,1/2+y,z
1/2-x,1/2-y,1/2+z
1/2+x,1/2-y,-z
1/2-x,1/2+y,1/2-z
loop_
_atom_site_type_symbol
_atom_site_label
_atom_site_fract_x
_atom_site_fract_y
_atom_site_fract_z
Si Si1 0.607920 0.286988 0.872972
Si Si2 0.714319 0.186100 0.100674
Si Si3 0.947988 0.156339 0.898453
Si Si4 0.374188 0.515941 0.820650
Si Si5 0.125063 0.457953 0.845901
O O1 0.500000 0.270209 0.750000
O O2 0.731234 0.296731 0.770224
O O3 0.626576 0.233555 0.004667
O O4 0.557151 0.347852 0.972901
O O5 0.658518 0.115031 0.111658
O O6 0.836295 0.185432 0.993493
O O7 0.889441 0.092372 0.822244
O O8 0.000000 0.192981 0.750000
O O9 0.500000 0.488322 0.750000
O O10 0.245607 0.488009 0.759383
O O11 0.374514 0.500000 0.000000
O O12 0.000000 0.460416 0.750000
O O13 0.109077 0.500000 0.000000
#
# Coordination Sequence:
#
# PCOD9318320 Si02
#       5
#     8   8   8   8   8
#     4  10  24  39  67  94 130 179 224 288 343 400
#     4  11  22  43  63  96 136 174 233 282 344 422
#     4  10  20  39  64  94 129 166 221 283 336 405
#     4  10  21  38  67  97 127 165 217 275 328 396
#     4  11  25  45  64  97 140 180 219 282 342 419
#
# _framework density 20.438400999999999
#
# number of rings (size 3 to 8) (size 9 to 14) (size 15 to 20)
#    0.000    1.600    4.000    1.200    2.800    5.600 
#    3.600    0.000    0.000    0.000    0.000    0.000 
#    0.000    0.000    0.000    0.000    0.000    0.000 
#
# Total GULP energy -111352.252899 kJ/mol
# GULP energy per Si atom -5567.612645 kJ/mol
# Density = 2.039188 g / cm^3
# Si number density = 20.438401 Si / 1000 Ang^3
#
#
#
# Elastic Constant Matrix: (Units=GPa)
#
#
# Indices 1 2 3 4 5 6 
#
# 1 139.9564 46.3248 73.7765 0.0000 0.0000 0.0000
# 2 46.3248 104.3628 46.6274 0.0000 0.0000 0.0000
# 3 73.7765 46.6274 106.8145 0.0000 0.0000 0.0000
# 4 0.0000 0.0000 0.0000 5.8004 0.0000 0.0000
# 5 0.0000 0.0000 0.0000 0.0000 50.2290 0.0000
# 6 0.0000 0.0000 0.0000 0.0000 0.0000 12.1203
#
#
#
# Elastic Compliance Matrix: (Units=1/GPa)
#
#
# Indices 1 2 3 4 5 6 
#
# 1 0.011544 -0.001940 -0.007126 0.000000 0.000000 0.000000
# 2 -0.001940 0.012230 -0.003998 0.000000 0.000000 0.000000
# 3 -0.007126 -0.003998 0.016030 0.000000 0.000000 0.000000
# 4 0.000000 0.000000 0.000000 0.172403 0.000000 0.000000
# 5 0.000000 0.000000 0.000000 0.000000 0.019909 0.000000
# 6 0.000000 0.000000 0.000000 0.000000 0.000000 0.082506
#
#
# Mechanical properties :
#
#
# Convention : Reuss Voigt Hill
#
# Bulk Modulus (GPa) = 73.13658 76.06567 74.60113
# Shear Modulus (GPa) = 14.47978 25.92360 20.20169
#
# Velocity S-wave (km/s) = 2.66458 3.56529 3.14732
# Velocity P-wave (km/s) = 6.73262 7.36520 7.05601
#
# Compressibility (1/GPa) = 0.01367305
#
# Stress axis : x y z
#
# Youngs Moduli (GPa) = 86.62617 81.76864 62.38447
#
# Poissons Ratio (x) = 0.15865 0.44457
# Poissons Ratio (y) = 0.16807 0.24944
# Poissons Ratio (z) = 0.61733 0.32695
#
# Static dielectric constant tensor:
#      x y z
#    x 1.797280 0.000000 0.000000 
#    y 0.000000 1.448780 0.000000 
#    z 0.000000 0.000000 1.685880 
# 
# From -- ./inp_files/7051.got.cif
#   From: 2010.05.17/outbox.cif.g08.bks.cpg/sg20_4_cif.got.tgz:7051.got - 2010.06.03 22:52:26.
