data_PCOD9318701
_publ_section_title
;
Structure prediction by ZEFSAII (Michael W. Deem and Ramdas Pophale) SiO2 
 PCOD9318701
Probable space group: C 2 2 21
;
_chemical_formula_sum "Si O2"
_cell_formula_units_Z 32
_cell_length_a 8.908837
_cell_length_b 10.756759
_cell_length_c 12.431495
_cell_angle_alpha 90.000000
_cell_angle_beta 90.000000
_cell_angle_gamma 90.000000
_cell_volume 1191.312809
_symmetry_space_group_name_H-M "C 2 2 21"
_symmetry_group_IT_number 20
_symmetry_cell_setting 'orthorhombic'
loop_
_space_group_symop_operation_xyz
x,y,z
-x,-y,1/2+z
x,-y,-z
-x,y,1/2-z
1/2+x,1/2+y,z
1/2-x,1/2-y,1/2+z
1/2+x,1/2-y,-z
1/2-x,1/2+y,1/2-z
loop_
_atom_site_type_symbol
_atom_site_label
_atom_site_fract_x
_atom_site_fract_y
_atom_site_fract_z
Si Si1 0.060881 0.000000 0.500000
Si Si2 0.941704 0.632303 0.968968
Si Si3 0.834918 0.000618 0.232625
Si Si4 0.000000 0.485184 0.250000
Si Si5 0.638655 0.295229 0.085855
O O1 0.158575 0.981175 0.394433
O O2 0.945736 0.884338 0.499300
O O3 0.017656 0.604403 0.854703
O O4 0.806977 0.726719 0.950399
O O5 0.870995 0.500000 0.000000
O O6 0.044396 0.671637 0.068504
O O7 0.666996 0.048913 0.261320
O O8 0.852610 0.874311 0.304394
O O9 0.000000 0.066178 0.250000
#
# Coordination Sequence:
#
# PCOD9318701 Si02
#       5
#     4   8   8   4   8
#     4  10  20  44  78 108 148 204 258 326 400 476
#     4  11  25  48  71 111 155 199 265 328 391 478
#     4   9  21  41  72 106 151 197 262 317 395 470
#     4  10  24  44  66 112 152 194 270 318 384 472
#     4  10  23  45  73 107 154 200 256 333 387 472
#
# _framework density 26.861125000000001
#
# number of rings (size 3 to 8) (size 9 to 14) (size 15 to 20)
#    0.000    2.000    1.250    0.000    8.750    0.000 
#   13.500    0.000    0.000    0.000    0.000    0.000 
#    0.000    0.000    0.000    0.000    0.000    0.000 
#
# Total GULP energy -89296.917708 kJ/mol
# GULP energy per Si atom -5581.057357 kJ/mol
# Density = 2.679999 g / cm^3
# Si number density = 26.861125 Si / 1000 Ang^3
#
#
#
# Elastic Constant Matrix: (Units=GPa)
#
#
# Indices 1 2 3 4 5 6 
#
# 1 233.8057 37.0048 46.7616 0.0000 0.0000 0.0000
# 2 37.0048 47.1667 9.2702 0.0000 0.0000 0.0000
# 3 46.7616 9.2702 184.5216 0.0000 0.0000 0.0000
# 4 0.0000 0.0000 0.0000 31.5172 0.0000 0.0000
# 5 0.0000 0.0000 0.0000 0.0000 31.9821 0.0000
# 6 0.0000 0.0000 0.0000 0.0000 0.0000 40.2928
#
#
#
# Elastic Compliance Matrix: (Units=1/GPa)
#
#
# Indices 1 2 3 4 5 6 
#
# 1 0.005096 -0.003781 -0.001101 0.000000 0.000000 0.000000
# 2 -0.003781 0.024219 -0.000258 0.000000 0.000000 0.000000
# 3 -0.001101 -0.000258 0.005712 0.000000 0.000000 0.000000
# 4 0.000000 0.000000 0.000000 0.031729 0.000000 0.000000
# 5 0.000000 0.000000 0.000000 0.000000 0.031267 0.000000
# 6 0.000000 0.000000 0.000000 0.000000 0.000000 0.024818
#
#
# Mechanical properties :
#
#
# Convention : Reuss Voigt Hill
#
# Bulk Modulus (GPa) = 40.41437 72.39634 56.40535
# Shear Modulus (GPa) = 35.36783 45.58892 40.47837
#
# Velocity S-wave (km/s) = 3.63256 4.12419 3.88616
# Velocity P-wave (km/s) = 5.71597 7.04905 6.41722
#
# Compressibility (1/GPa) = 0.02474368
#
# Stress axis : x y z
#
# Youngs Moduli (GPa) = 196.23834 41.28992 175.08459
#
# Poissons Ratio (x) = 0.15614 0.19284
# Poissons Ratio (y) = 0.74207 0.04525
# Poissons Ratio (z) = 0.21614 0.01067
#
# Static dielectric constant tensor:
#      x y z
#    x 2.112350 0.000000 0.000000 
#    y 0.000000 2.106360 0.000000 
#    z 0.000000 0.000000 2.094480 
# 
# From -- ./inp_files/18239.got.cif
#   From: 2010.05.17/outbox.cif.g08.bks.cpg/sg20_10_cif.got.tgz:18239.got - 2010.06.03 22:52:26.
