data_PCOD9318845
_publ_section_title
;
Structure prediction by ZEFSAII (Michael W. Deem and Ramdas Pophale) SiO2 
 PCOD9318845
Probable space group: C 2 2 21
;
_chemical_formula_sum "Si O2"
_cell_formula_units_Z 32
_cell_length_a 29.213244
_cell_length_b 9.889446
_cell_length_c 5.132541
_cell_angle_alpha 90.000000
_cell_angle_beta 90.000000
_cell_angle_gamma 90.000000
_cell_volume 1482.805461
_symmetry_space_group_name_H-M "C 2 2 21"
_symmetry_group_IT_number 20
_symmetry_cell_setting 'orthorhombic'
loop_
_space_group_symop_operation_xyz
x,y,z
-x,-y,1/2+z
x,-y,-z
-x,y,1/2-z
1/2+x,1/2+y,z
1/2-x,1/2-y,1/2+z
1/2+x,1/2-y,-z
1/2-x,1/2+y,1/2-z
loop_
_atom_site_type_symbol
_atom_site_label
_atom_site_fract_x
_atom_site_fract_y
_atom_site_fract_z
Si Si1 0.741128 0.678490 0.169639
Si Si2 0.643139 0.657395 0.427952
Si Si3 0.950274 0.902248 0.749169
Si Si4 0.338275 0.083499 0.248404
O O1 0.754754 0.803123 0.361050
O O2 0.688651 0.662182 0.250632
O O3 0.782611 0.581787 0.251544
O O4 0.640840 0.500000 0.500000
O O5 0.595313 0.686337 0.282009
O O6 0.648539 0.762082 0.669209
O O7 0.000000 0.831050 0.750000
O O8 0.945020 0.000000 0.500000
O O9 0.953082 0.000000 0.000000
O O10 0.353943 0.000000 0.500000
O O11 0.354105 0.000000 0.000000
#
# Coordination Sequence:
#
# PCOD9318845 Si02
#       4
#     8   8   8   8
#     4  10  21  37  55  81 117 157 201 246 293 354
#     4  10  22  37  61  89 117 159 210 251 295 363
#     4   9  19  35  56  87 123 151 188 253 319 360
#     4  11  23  39  55  81 124 165 198 246 310 365
#
# _framework density 21.580715000000001
#
# number of rings (size 3 to 8) (size 9 to 14) (size 15 to 20)
#    0.000    2.000    0.000    3.750    0.000   17.000 
#    0.000    0.000    0.000    0.000    0.000   19.250 
#    0.000    0.000    0.000    0.000    0.000    0.000 
#
# Total GULP energy -89096.802481 kJ/mol
# GULP energy per Si atom -5568.550155 kJ/mol
# Density = 2.153160 g / cm^3
# Si number density = 21.580715 Si / 1000 Ang^3
#
#
#
# Elastic Constant Matrix: (Units=GPa)
#
#
# Indices 1 2 3 4 5 6 
#
# 1 187.0863 27.6904 20.5569 0.0000 0.0000 0.0000
# 2 27.6904 113.5426 52.4802 0.0000 0.0000 0.0000
# 3 20.5569 52.4802 129.4424 0.0000 0.0000 0.0000
# 4 0.0000 0.0000 0.0000 31.2458 0.0000 0.0000
# 5 0.0000 0.0000 0.0000 0.0000 15.9357 0.0000
# 6 0.0000 0.0000 0.0000 0.0000 0.0000 24.2378
#
#
#
# Elastic Compliance Matrix: (Units=1/GPa)
#
#
# Indices 1 2 3 4 5 6 
#
# 1 0.005563 -0.001167 -0.000410 0.000000 0.000000 0.000000
# 2 -0.001167 0.011083 -0.004308 0.000000 0.000000 0.000000
# 3 -0.000410 -0.004308 0.009537 0.000000 0.000000 0.000000
# 4 0.000000 0.000000 0.000000 0.032004 0.000000 0.000000
# 5 0.000000 0.000000 0.000000 0.000000 0.062752 0.000000
# 6 0.000000 0.000000 0.000000 0.000000 0.000000 0.041258
#
#
# Mechanical properties :
#
#
# Convention : Reuss Voigt Hill
#
# Bulk Modulus (GPa) = 69.38464 70.16959 69.77711
# Shear Modulus (GPa) = 27.96850 36.24012 32.10431
#
# Velocity S-wave (km/s) = 3.60390 4.10235 3.86118
# Velocity P-wave (km/s) = 7.03836 7.41786 7.23060
#
# Compressibility (1/GPa) = 0.01441241
#
# Stress axis : x y z
#
# Youngs Moduli (GPa) = 179.76100 90.22725 104.85193
#
# Poissons Ratio (x) = 0.10530 0.04302
# Poissons Ratio (y) = 0.20979 0.45172
# Poissons Ratio (z) = 0.07376 0.38871
#
# Static dielectric constant tensor:
#      x y z
#    x 1.881720 0.000000 0.000000 
#    y 0.000000 1.860720 0.000000 
#    z 0.000000 0.000000 1.821100 
# 
# From -- ./inp_files/553.got.cif
#   From: 2010.05.17/outbox.cif.g08.bks.cpg/sg20_1_cif.got.tgz:553.got - 2010.06.03 22:52:26.
