data_PCOD9318465
_publ_section_title
;
Structure prediction by ZEFSAII (Michael W. Deem and Ramdas Pophale) SiO2 
 PCOD9318465
Probable space group: C 2 2 21
;
_chemical_formula_sum "Si O2"
_cell_formula_units_Z 52
_cell_length_a 20.355587
_cell_length_b 14.708536
_cell_length_c 8.598597
_cell_angle_alpha 90.000000
_cell_angle_beta 90.000000
_cell_angle_gamma 90.000000
_cell_volume 2574.427545
_symmetry_space_group_name_H-M "C 2 2 21"
_symmetry_group_IT_number 20
_symmetry_cell_setting 'orthorhombic'
loop_
_space_group_symop_operation_xyz
x,y,z
-x,-y,1/2+z
x,-y,-z
-x,y,1/2-z
1/2+x,1/2+y,z
1/2-x,1/2-y,1/2+z
1/2+x,1/2-y,-z
1/2-x,1/2+y,1/2-z
loop_
_atom_site_type_symbol
_atom_site_label
_atom_site_fract_x
_atom_site_fract_y
_atom_site_fract_z
Si Si1 0.180268 0.653113 0.622125
Si Si2 0.813726 0.103566 0.541767
Si Si3 0.856541 0.654043 0.226279
Si Si4 0.139850 0.000000 0.500000
Si Si5 0.422230 0.351719 0.228139
Si Si6 0.930107 0.519461 0.814367
Si Si7 0.711004 0.650855 0.303857
O O1 0.255922 0.631189 0.661718
O O2 0.170397 0.624646 0.443169
O O3 0.126024 0.595402 0.711244
O O4 0.175168 0.761139 0.627440
O O5 0.884203 0.115746 0.617411
O O6 0.805529 0.155764 0.379603
O O7 0.802035 0.000000 0.500000
O O8 0.893200 0.749864 0.206962
O O9 0.906275 0.573509 0.268753
O O10 0.789855 0.659057 0.326626
O O11 0.098086 0.075081 0.595894
O O12 0.183775 0.059093 0.380550
O O13 0.500000 0.348613 0.250000
O O14 0.000000 0.549308 0.750000
O O15 0.937127 0.500000 0.000000
#
# Coordination Sequence:
#
# PCOD9318465 Si02
#       7
#     8   8   8   4   8   8   8
#     4  10  20  40  68  96 124 165 207 260 318 371
#     4  11  22  42  66  93 126 167 215 262 318 375
#     4  10  21  42  67  93 127 165 207 263 319 378
#     4  12  26  42  66  96 130 166 218 268 310 384
#     4  12  26  43  64  90 132 174 212 262 323 382
#     4  10  22  43  64  92 131 168 205 252 320 382
#     4  11  22  41  70  99 124 161 216 271 313 370
#
# _framework density 20.198664000000001
#
# number of rings (size 3 to 8) (size 9 to 14) (size 15 to 20)
#    0.000    1.231    4.615    2.769    1.077    0.000 
#    9.692    0.769    0.000    0.000    0.000    0.000 
#    0.000    0.000    0.000    0.000    0.000    0.000 
#
# Total GULP energy -145089.341296 kJ/mol
# GULP energy per Si atom -5580.359281 kJ/mol
# Density = 2.015269 g / cm^3
# Si number density = 20.198664 Si / 1000 Ang^3
#
#
#
# Elastic Constant Matrix: (Units=GPa)
#
#
# Indices 1 2 3 4 5 6 
#
# 1 161.0635 68.5327 40.6754 0.0000 0.0000 0.0000
# 2 68.5327 119.4258 3.2469 0.0000 0.0000 0.0000
# 3 40.6754 3.2469 34.2470 0.0000 0.0000 0.0000
# 4 0.0000 0.0000 0.0000 15.7719 0.0000 0.0000
# 5 0.0000 0.0000 0.0000 0.0000 23.7992 0.0000
# 6 0.0000 0.0000 0.0000 0.0000 0.0000 30.6704
#
#
#
# Elastic Compliance Matrix: (Units=1/GPa)
#
#
# Indices 1 2 3 4 5 6 
#
# 1 0.012881 -0.006994 -0.014635 0.000000 0.000000 0.000000
# 2 -0.006994 0.012192 0.007150 0.000000 0.000000 0.000000
# 3 -0.014635 0.007150 0.045904 0.000000 0.000000 0.000000
# 4 0.000000 0.000000 0.000000 0.063404 0.000000 0.000000
# 5 0.000000 0.000000 0.000000 0.000000 0.042018 0.000000
# 6 0.000000 0.000000 0.000000 0.000000 0.000000 0.032605
#
#
# Mechanical properties :
#
#
# Convention : Reuss Voigt Hill
#
# Bulk Modulus (GPa) = 23.79814 59.96070 41.87942
# Shear Modulus (GPa) = 19.84381 27.53371 23.68876
#
# Velocity S-wave (km/s) = 3.13778 3.69608 3.42831
# Velocity P-wave (km/s) = 4.99351 6.92565 6.03737
#
# Compressibility (1/GPa) = 0.04202009
#
# Stress axis : x y z
#
# Youngs Moduli (GPa) = 77.63633 82.01900 21.78451
#
# Poissons Ratio (x) = 0.57361 0.31882
# Poissons Ratio (y) = 0.54296 -0.15577
# Poissons Ratio (z) = 1.13623 -0.58647
#
# Static dielectric constant tensor:
#      x y z
#    x 1.722470 0.000000 0.000000 
#    y 0.000000 1.730460 0.000000 
#    z 0.000000 0.000000 1.763710 
# 
# From -- ./inp_files/10114.got.cif
#   From: 2010.05.17/outbox.cif.g08.bks.cpg/sg20_6_cif.got.tgz:10114.got - 2010.06.03 22:52:26.
