data_PCOD9318756
_publ_section_title
;
Structure prediction by ZEFSAII (Michael W. Deem and Ramdas Pophale) SiO2 
 PCOD9318756
Probable space group: C 2 2 21
;
_chemical_formula_sum "Si O2"
_cell_formula_units_Z 56
_cell_length_a 15.586472
_cell_length_b 19.728161
_cell_length_c 7.992405
_cell_angle_alpha 90.000000
_cell_angle_beta 90.000000
_cell_angle_gamma 90.000000
_cell_volume 2457.604027
_symmetry_space_group_name_H-M "C 2 2 21"
_symmetry_group_IT_number 20
_symmetry_cell_setting 'orthorhombic'
loop_
_space_group_symop_operation_xyz
x,y,z
-x,-y,1/2+z
x,-y,-z
-x,y,1/2-z
1/2+x,1/2+y,z
1/2-x,1/2-y,1/2+z
1/2+x,1/2-y,-z
1/2-x,1/2+y,1/2-z
loop_
_atom_site_type_symbol
_atom_site_label
_atom_site_fract_x
_atom_site_fract_y
_atom_site_fract_z
Si Si1 0.399045 0.436582 0.291767
Si Si2 0.590792 0.867646 0.097982
Si Si3 0.900895 0.083863 0.305692
Si Si4 0.100397 0.660498 0.265656
Si Si5 0.652881 0.728554 0.152619
Si Si6 0.602831 0.075733 0.565619
Si Si7 0.672202 0.297652 0.238596
O O1 0.500000 0.432744 0.250000
O O2 0.366317 0.511338 0.240652
O O3 0.394167 0.425998 0.492918
O O4 0.350982 0.373179 0.209131
O O5 0.582657 0.788834 0.153986
O O6 0.497887 0.902818 0.075909
O O7 0.636070 0.908373 0.248568
O O8 0.635401 0.862084 0.916057
O O9 0.862886 0.157129 0.256425
O O10 0.000000 0.086620 0.250000
O O11 0.142528 0.622461 0.421172
O O12 0.106817 0.740096 0.301831
O O13 0.000000 0.643181 0.250000
O O14 0.736366 0.768229 0.212461
O O15 0.664889 0.708045 0.960651
O O16 0.610529 0.000000 0.500000
#
# Coordination Sequence:
#
# PCOD9318756 Si02
#       7
#     8   8   8   8   8   8   8
#     4   9  18  36  60  90 115 146 188 244 302 346
#     4   9  21  35  54  84 116 144 199 243 286 345
#     4   9  19  35  61  88 117 145 189 247 296 347
#     4   9  19  36  57  84 115 149 196 250 293 342
#     4  10  22  38  56  85 117 159 193 241 291 353
#     4  10  21  34  59  85 112 155 194 241 301 344
#     4  10  21  37  58  82 119 156 195 237 293 360
#
# _framework density 22.786421000000001
#
# number of rings (size 3 to 8) (size 9 to 14) (size 15 to 20)
#    0.000    2.571    0.000    0.429   10.000    2.286 
#    0.000    1.429    0.000    0.000    0.000    0.000 
#    0.000    0.000    0.000    0.000    0.000    0.000 
#
# Total GULP energy -156106.511142 kJ/mol
# GULP energy per Si atom -5575.232541 kJ/mol
# Density = 2.273456 g / cm^3
# Si number density = 22.786421 Si / 1000 Ang^3
#
#
#
# Elastic Constant Matrix: (Units=GPa)
#
#
# Indices 1 2 3 4 5 6 
#
# 1 23.6991 31.6785 -1.5631 0.0000 0.0000 0.0000
# 2 31.6785 225.2254 51.3310 0.0000 0.0000 0.0000
# 3 -1.5631 51.3310 67.6065 0.0000 0.0000 0.0000
# 4 0.0000 0.0000 0.0000 17.6412 0.0000 0.0000
# 5 0.0000 0.0000 0.0000 0.0000 15.6925 0.0000
# 6 0.0000 0.0000 0.0000 0.0000 0.0000 -30.5240
#
#
#
# Elastic Compliance Matrix: (Units=1/GPa)
#
#
# Indices 1 2 3 4 5 6 
#
# 1 0.055979 -0.009878 0.008794 0.000000 0.000000 0.000000
# 2 -0.009878 0.007112 -0.005628 0.000000 0.000000 0.000000
# 3 0.008794 -0.005628 0.019268 0.000000 0.000000 0.000000
# 4 0.000000 0.000000 0.000000 0.056685 0.000000 0.000000
# 5 0.000000 0.000000 0.000000 0.000000 0.063725 0.000000
# 6 0.000000 0.000000 0.000000 0.000000 0.000000 -0.032761
#
#
# Mechanical properties :
#
#
# Convention : Reuss Voigt Hill
#
# Bulk Modulus (GPa) = 14.50627 53.26929 33.88778
# Shear Modulus (GPa) = 24.22345 16.23424 20.22885
#
# Velocity S-wave (km/s) = 3.26401 2.67208 2.98276
# Velocity P-wave (km/s) = 4.53707 5.74007 5.17365
#
# Compressibility (1/GPa) = 0.06893571
#
# Stress axis : x y z
#
# Youngs Moduli (GPa) = 17.86368 140.60546 51.89901
#
# Poissons Ratio (x) = 1.38889 -0.45641
# Poissons Ratio (y) = 0.17646 0.29210
# Poissons Ratio (z) = -0.15710 0.79137
#
# Static dielectric constant tensor:
#      x y z
#    x 1.919750 0.000000 0.000000 
#    y 0.000000 1.815650 0.000000 
#    z 0.000000 0.000000 1.946600 
# 
# From -- ./inp_files/10177.got.cif
#   From: 2010.05.17/outbox.cif.g08.bks.cpg/sg20_6_cif.got.tgz:10177.got - 2010.06.03 22:52:26.
