data_PCOD9318789
_publ_section_title
;
Structure prediction by ZEFSAII (Michael W. Deem and Ramdas Pophale) SiO2 
 PCOD9318789
Probable space group: C 2 2 21
;
_chemical_formula_sum "Si O2"
_cell_formula_units_Z 44
_cell_length_a 7.195510
_cell_length_b 35.252610
_cell_length_c 7.268981
_cell_angle_alpha 90.000000
_cell_angle_beta 90.000000
_cell_angle_gamma 90.000000
_cell_volume 1843.853412
_symmetry_space_group_name_H-M "C 2 2 21"
_symmetry_group_IT_number 20
_symmetry_cell_setting 'orthorhombic'
loop_
_space_group_symop_operation_xyz
x,y,z
-x,-y,1/2+z
x,-y,-z
-x,y,1/2-z
1/2+x,1/2+y,z
1/2-x,1/2-y,1/2+z
1/2+x,1/2-y,-z
1/2-x,1/2+y,1/2-z
loop_
_atom_site_type_symbol
_atom_site_label
_atom_site_fract_x
_atom_site_fract_y
_atom_site_fract_z
Si Si1 0.000000 0.058622 0.750000
Si Si2 0.614156 0.818258 0.483605
Si Si3 0.500000 0.237797 0.750000
Si Si4 0.500000 0.038539 0.250000
Si Si5 0.301043 0.904489 0.009275
Si Si6 0.199791 0.000000 0.500000
Si Si7 0.500000 0.372533 0.750000
Si Si8 0.793406 0.805776 0.875638
O O1 0.822015 0.082074 0.680149
O O2 0.930121 0.032886 0.918922
O O3 0.661036 0.793193 0.306969
O O4 0.610820 0.863223 0.454544
O O5 0.739055 0.809127 0.658692
O O6 0.407624 0.803870 0.535016
O O7 0.423852 0.269394 0.897876
O O8 0.560552 0.064736 0.423371
O O9 0.668789 0.013786 0.168316
O O10 0.156504 0.897076 0.843781
O O11 0.403360 0.345081 0.902291
#
# Coordination Sequence:
#
# PCOD9318789 Si02
#       8
#     4   8   4   4   8   4   4   8
#     4  12  26  45  68  99 135 168 212 268 335 391
#     4  10  21  36  55  84 117 156 210 258 316 384
#     4  11  20  32  55  81 114 158 206 262 310 365
#     4  12  24  44  71  96 128 172 216 264 330 392
#     4  11  23  40  65  94 128 169 212 270 330 393
#     4  12  26  46  70 100 132 170 218 266 320 410
#     4   9  18  37  60  84 117 166 216 258 317 388
#     4   9  19  36  55  78 116 162 208 259 316 374
#
# _framework density 23.863067000000001
#
# number of rings (size 3 to 8) (size 9 to 14) (size 15 to 20)
#    0.000    1.455    0.000    6.545    0.000    2.909 
#    0.000    3.636    0.000    0.000    0.000    0.000 
#    0.000    0.000    0.000    0.000    0.000    0.000 
#
# Total GULP energy -122594.171852 kJ/mol
# GULP energy per Si atom -5572.462357 kJ/mol
# Density = 2.380875 g / cm^3
# Si number density = 23.863067 Si / 1000 Ang^3
#
#
#
# Elastic Constant Matrix: (Units=GPa)
#
#
# Indices 1 2 3 4 5 6 
#
# 1 73.9136 16.8179 6.0530 0.0000 0.0000 0.0000
# 2 16.8179 97.3113 19.4600 0.0000 0.0000 0.0000
# 3 6.0530 19.4600 61.1509 0.0000 0.0000 0.0000
# 4 0.0000 0.0000 0.0000 -7.5491 0.0000 0.0000
# 5 0.0000 0.0000 0.0000 0.0000 39.8311 0.0000
# 6 0.0000 0.0000 0.0000 0.0000 0.0000 24.7576
#
#
#
# Elastic Compliance Matrix: (Units=1/GPa)
#
#
# Indices 1 2 3 4 5 6 
#
# 1 0.014108 -0.002306 -0.000663 0.000000 0.000000 0.000000
# 2 -0.002306 0.011352 -0.003384 0.000000 0.000000 0.000000
# 3 -0.000663 -0.003384 0.017496 0.000000 0.000000 0.000000
# 4 0.000000 0.000000 0.000000 -0.132466 0.000000 0.000000
# 5 0.000000 0.000000 0.000000 0.000000 0.025106 0.000000
# 6 0.000000 0.000000 0.000000 0.000000 0.000000 0.040392
#
#
# Mechanical properties :
#
#
# Convention : Reuss Voigt Hill
#
# Bulk Modulus (GPa) = 33.05783 35.22641 34.14212
# Shear Modulus (GPa) = -4082.48512 24.07758 -2029.20377
#
# Velocity S-wave (km/s) = -41.40665 3.17991 -29.19245
# Velocity P-wave (km/s) = 47.66687 5.31755 33.49518
#
# Compressibility (1/GPa) = 0.03025002
#
# Stress axis : x y z
#
# Youngs Moduli (GPa) = 70.88062 88.09379 57.15749
#
# Poissons Ratio (x) = 0.20312 0.03788
# Poissons Ratio (y) = 0.16343 0.19343
# Poissons Ratio (z) = 0.04698 0.29812
#
# Static dielectric constant tensor:
#      x y z
#    x 2.627010 0.000000 0.000000 
#    y 0.000000 1.921920 0.000000 
#    z 0.000000 0.000000 1.799790 
# 
# From -- ./inp_files/6431.got.cif
#   From: 2010.05.17/outbox.cif.g08.bks.cpg/sg20_4_cif.got.tgz:6431.got - 2010.06.03 22:52:26.
