data_PCOD9318117
_publ_section_title
;
Structure prediction by ZEFSAII (Michael W. Deem and Ramdas Pophale) SiO2 
 PCOD9318117
Probable space group: C 2 2 21
;
_chemical_formula_sum "Si O2"
_cell_formula_units_Z 36
_cell_length_a 13.517438
_cell_length_b 21.506346
_cell_length_c 5.906279
_cell_angle_alpha 90.000000
_cell_angle_beta 90.000000
_cell_angle_gamma 90.000000
_cell_volume 1717.018495
_symmetry_space_group_name_H-M "C 2 2 21"
_symmetry_group_IT_number 20
_symmetry_cell_setting 'orthorhombic'
loop_
_space_group_symop_operation_xyz
x,y,z
-x,-y,1/2+z
x,-y,-z
-x,y,1/2-z
1/2+x,1/2+y,z
1/2-x,1/2-y,1/2+z
1/2+x,1/2-y,-z
1/2-x,1/2+y,1/2-z
loop_
_atom_site_type_symbol
_atom_site_label
_atom_site_fract_x
_atom_site_fract_y
_atom_site_fract_z
Si Si1 0.904701 0.066537 0.403116
Si Si2 0.500000 0.787765 0.250000
Si Si3 0.000000 0.836146 0.250000
Si Si4 0.000000 0.356768 0.750000
Si Si5 0.333018 0.735818 0.011894
Si Si6 0.282414 0.857610 0.755459
O O1 0.947582 0.117703 0.574477
O O2 0.808031 0.096260 0.289792
O O3 0.000000 0.053285 0.250000
O O4 0.874591 0.000000 0.500000
O O5 0.498505 0.823202 0.495942
O O6 0.402257 0.745313 0.232226
O O7 0.087111 0.791932 0.338990
O O8 0.891246 0.387573 0.746589
O O9 0.248577 0.684847 0.042462
O O10 0.291382 0.802801 0.943498
#
# Coordination Sequence:
#
# PCOD9318117 Si02
#       6
#     8   4   4   4   8   8
#     4  12  25  46  68  96 135 186 244 296 347 413
#     4  10  20  38  59  95 145 181 220 278 342 434
#     4  12  23  40  71 100 139 178 229 298 362 424
#     4  10  23  40  62  95 136 183 227 274 348 422
#     4  11  20  36  64 102 140 175 226 282 369 423
#     4  11  22  38  64  99 137 182 225 291 349 427
#
# _framework density 20.966577000000001
#
# number of rings (size 3 to 8) (size 9 to 14) (size 15 to 20)
#    0.000    0.889    3.333    6.667    0.000    1.778 
#    0.000    0.000    0.000    9.333    0.000    0.000 
#    0.000    0.000    0.000    0.000    0.000    0.000 
#
# Total GULP energy -100263.677390 kJ/mol
# GULP energy per Si atom -5570.204299 kJ/mol
# Density = 2.091886 g / cm^3
# Si number density = 20.966577 Si / 1000 Ang^3
#
#
#
# Elastic Constant Matrix: (Units=GPa)
#
#
# Indices 1 2 3 4 5 6 
#
# 1 140.6001 18.5122 -1.7656 0.0000 0.0000 0.0000
# 2 18.5122 73.4786 5.4101 0.0000 0.0000 0.0000
# 3 -1.7656 5.4101 57.4718 0.0000 0.0000 0.0000
# 4 0.0000 0.0000 0.0000 23.0699 0.0000 0.0000
# 5 0.0000 0.0000 0.0000 0.0000 45.5823 0.0000
# 6 0.0000 0.0000 0.0000 0.0000 0.0000 3506.9643
#
#
#
# Elastic Compliance Matrix: (Units=1/GPa)
#
#
# Indices 1 2 3 4 5 6 
#
# 1 0.007366 -0.001885 0.000404 0.000000 0.000000 0.000000
# 2 -0.001885 0.014187 -0.001393 0.000000 0.000000 0.000000
# 3 0.000404 -0.001393 0.017543 0.000000 0.000000 0.000000
# 4 0.000000 0.000000 0.000000 0.043346 0.000000 0.000000
# 5 0.000000 0.000000 0.000000 0.000000 0.021938 0.000000
# 6 0.000000 0.000000 0.000000 0.000000 0.000000 0.000285
#
#
# Mechanical properties :
#
#
# Convention : Reuss Voigt Hill
#
# Bulk Modulus (GPa) = 29.98869 35.09602 32.54235
# Shear Modulus (GPa) = 41.14157 731.74955 386.44556
#
# Velocity S-wave (km/s) = 4.43453 18.70201 13.59100
# Velocity P-wave (km/s) = 6.36822 21.98020 16.18152
#
# Compressibility (1/GPa) = 0.03334591
#
# Stress axis : x y z
#
# Youngs Moduli (GPa) = 135.76463 70.48699 57.00148
#
# Poissons Ratio (x) = 0.13290 -0.02302
# Poissons Ratio (y) = 0.25598 0.07943
# Poissons Ratio (z) = -0.05482 0.09822
#
# Static dielectric constant tensor:
#      x y z
#    x 1.816060 0.000000 0.000000 
#    y 0.000000 1.822740 0.000000 
#    z 0.000000 0.000000 -1.747930 
# 
# From -- ./inp_files/1779.got.cif
#   From: 2010.05.17/outbox.cif.g08.bks.cpg/sg20_1_cif.got.tgz:1779.got - 2010.06.03 22:52:26.
