data_PCOD9318754
_publ_section_title
;
Structure prediction by ZEFSAII (Michael W. Deem and Ramdas Pophale) SiO2 
 PCOD9318754
Probable space group: C 2 2 21
;
_chemical_formula_sum "Si O2"
_cell_formula_units_Z 52
_cell_length_a 10.840399
_cell_length_b 8.407839
_cell_length_c 24.591152
_cell_angle_alpha 90.000000
_cell_angle_beta 90.000000
_cell_angle_gamma 90.000000
_cell_volume 2241.344060
_symmetry_space_group_name_H-M "C 2 2 21"
_symmetry_group_IT_number 20
_symmetry_cell_setting 'orthorhombic'
loop_
_space_group_symop_operation_xyz
x,y,z
-x,-y,1/2+z
x,-y,-z
-x,y,1/2-z
1/2+x,1/2+y,z
1/2-x,1/2-y,1/2+z
1/2+x,1/2-y,-z
1/2-x,1/2+y,1/2-z
loop_
_atom_site_type_symbol
_atom_site_label
_atom_site_fract_x
_atom_site_fract_y
_atom_site_fract_z
Si Si1 0.717232 0.520890 0.566132
Si Si2 0.075271 0.531847 0.338189
Si Si3 0.482528 0.342070 0.469034
Si Si4 0.500000 0.778420 0.250000
Si Si5 0.655559 0.413114 0.835442
Si Si6 0.161232 0.273995 0.870831
Si Si7 0.976300 0.304100 0.420755
O O1 0.709448 0.500000 0.500000
O O2 0.593370 0.622245 0.572187
O O3 0.721640 0.384968 0.613412
O O4 0.846271 0.606710 0.573570
O O5 0.199616 0.634159 0.336840
O O6 0.946627 0.628534 0.340078
O O7 0.069400 0.424640 0.392383
O O8 0.068288 0.400171 0.290725
O O9 0.435959 0.500000 0.500000
O O10 0.380683 0.260022 0.433000
O O11 0.524751 0.238060 0.519989
O O12 0.406345 0.665133 0.282659
O O13 0.666815 0.603882 0.841493
O O14 0.569410 0.344404 0.883963
#
# Coordination Sequence:
#
# PCOD9318754 Si02
#       7
#     8   8   8   4   8   8   8
#     4  10  21  34  58  86 130 173 206 243 294 347
#     4  10  25  43  68  92 126 159 211 268 320 373
#     4  11  21  35  60  90 136 172 203 243 295 358
#     4  10  26  48  64  94 120 154 210 280 326 382
#     4  11  24  43  69  91 122 163 208 263 327 374
#     4  11  23  40  61  98 125 167 212 249 298 382
#     4  10  21  41  58  95 133 167 213 251 295 377
#
# _framework density 23.200364
#
# number of rings (size 3 to 8) (size 9 to 14) (size 15 to 20)
#    0.000    1.538    3.077    0.923    4.308    3.077 
#    0.000    0.000    0.000    0.000    0.000    0.000 
#    0.000    0.000    0.000    0.000    0.000    0.000 
#
# Total GULP energy -145079.912514 kJ/mol
# GULP energy per Si atom -5579.996635 kJ/mol
# Density = 2.314756 g / cm^3
# Si number density = 23.200364 Si / 1000 Ang^3
#
#
#
# Elastic Constant Matrix: (Units=GPa)
#
#
# Indices 1 2 3 4 5 6 
#
# 1 70.9416 -0.5112 -3.3426 0.0000 0.0000 0.0000
# 2 -0.5112 65.5533 6.9073 0.0000 0.0000 0.0000
# 3 -3.3426 6.9073 59.4134 0.0000 0.0000 0.0000
# 4 0.0000 0.0000 0.0000 43.6026 0.0000 0.0000
# 5 0.0000 0.0000 0.0000 0.0000 15.3346 0.0000
# 6 0.0000 0.0000 0.0000 0.0000 0.0000 32.1551
#
#
#
# Elastic Compliance Matrix: (Units=1/GPa)
#
#
# Indices 1 2 3 4 5 6 
#
# 1 0.014134 0.000027 0.000792 0.000000 0.000000 0.000000
# 2 0.000027 0.015444 -0.001794 0.000000 0.000000 0.000000
# 3 0.000792 -0.001794 0.017084 0.000000 0.000000 0.000000
# 4 0.000000 0.000000 0.000000 0.022934 0.000000 0.000000
# 5 0.000000 0.000000 0.000000 0.000000 0.065212 0.000000
# 6 0.000000 0.000000 0.000000 0.000000 0.000000 0.031099
#
#
# Mechanical properties :
#
#
# Convention : Reuss Voigt Hill
#
# Bulk Modulus (GPa) = 22.36556 22.44614 22.40585
# Shear Modulus (GPa) = 27.35800 31.07546 29.21673
#
# Velocity S-wave (km/s) = 3.43768 3.66380 3.55254
# Velocity P-wave (km/s) = 5.04162 5.25299 5.14839
#
# Compressibility (1/GPa) = 0.04471160
#
# Stress axis : x y z
#
# Youngs Moduli (GPa) = 70.75336 64.75004 58.53312
#
# Poissons Ratio (x) = -0.00173 -0.04636
# Poissons Ratio (y) = -0.00189 0.10501
# Poissons Ratio (z) = -0.05604 0.11616
#
# Static dielectric constant tensor:
#      x y z
#    x 1.905270 0.000000 0.000000 
#    y 0.000000 1.968230 0.000000 
#    z 0.000000 0.000000 1.863540 
# 
# From -- ./inp_files/30292.got.cif
#   From: 2010.05.17/outbox.cif.g08.bks.cpg/sg20_16_cif.got.tgz:30292.got - 2010.06.03 22:52:26.
