data_PCOD9318458
_publ_section_title
;
Structure prediction by ZEFSAII (Michael W. Deem and Ramdas Pophale) SiO2 
 PCOD9318458
Probable space group: C 2 2 21
;
_chemical_formula_sum "Si O2"
_cell_formula_units_Z 36
_cell_length_a 10.377873
_cell_length_b 11.761690
_cell_length_c 13.411998
_cell_angle_alpha 90.000000
_cell_angle_beta 90.000000
_cell_angle_gamma 90.000000
_cell_volume 1637.086248
_symmetry_space_group_name_H-M "C 2 2 21"
_symmetry_group_IT_number 20
_symmetry_cell_setting 'orthorhombic'
loop_
_space_group_symop_operation_xyz
x,y,z
-x,-y,1/2+z
x,-y,-z
-x,y,1/2-z
1/2+x,1/2+y,z
1/2-x,1/2-y,1/2+z
1/2+x,1/2-y,-z
1/2-x,1/2+y,1/2-z
loop_
_atom_site_type_symbol
_atom_site_label
_atom_site_fract_x
_atom_site_fract_y
_atom_site_fract_z
Si Si1 0.574653 0.312336 0.388363
Si Si2 0.239662 0.000000 0.500000
Si Si3 0.198599 0.857292 0.195152
Si Si4 0.111886 0.505562 0.183945
Si Si5 0.420779 0.123376 0.950275
O O1 0.654998 0.405949 0.447321
O O2 0.661966 0.280934 0.291499
O O3 0.440836 0.370012 0.354370
O O4 0.548039 0.208194 0.460814
O O5 0.325174 0.940816 0.586276
O O6 0.301072 0.824750 0.111146
O O7 0.272496 0.964992 0.244859
O O8 0.965861 0.400439 0.369518
O O9 0.000000 0.562510 0.250000
O O10 0.389941 0.000000 0.000000
#
# Coordination Sequence:
#
# PCOD9318458 Si02
#       5
#     8   4   8   8   8
#     4  10  23  43  66  94 133 171 211 268 330 388
#     4  10  20  40  68  92 128 172 206 264 324 390
#     4   9  22  43  62  94 132 164 219 261 323 395
#     4   9  19  40  66  94 129 163 216 270 314 388
#     4  11  23  41  70  98 129 172 219 267 327 388
#
# _framework density 21.990289000000001
#
# number of rings (size 3 to 8) (size 9 to 14) (size 15 to 20)
#    0.000    2.222    1.111    0.000    7.778    0.000 
#   24.000    0.000   19.556    0.000    0.000    0.000 
#    0.000    0.000    0.000    0.000    0.000    0.000 
#
# Total GULP energy -100351.944078 kJ/mol
# GULP energy per Si atom -5575.108004 kJ/mol
# Density = 2.194024 g / cm^3
# Si number density = 21.990289 Si / 1000 Ang^3
#
#
#
# Elastic Constant Matrix: (Units=GPa)
#
#
# Indices 1 2 3 4 5 6 
#
# 1 156.3971 46.1719 81.6950 0.0000 0.0000 0.0000
# 2 46.1719 74.2239 41.3652 0.0000 0.0000 0.0000
# 3 81.6950 41.3652 153.5338 0.0000 0.0000 0.0000
# 4 0.0000 0.0000 0.0000 20.0278 0.0000 0.0000
# 5 0.0000 0.0000 0.0000 0.0000 56.4920 0.0000
# 6 0.0000 0.0000 0.0000 0.0000 0.0000 52.3761
#
#
#
# Elastic Compliance Matrix: (Units=1/GPa)
#
#
# Indices 1 2 3 4 5 6 
#
# 1 0.009646 -0.003695 -0.004137 0.000000 0.000000 0.000000
# 2 -0.003695 0.017268 -0.002687 0.000000 0.000000 0.000000
# 3 -0.004137 -0.002687 0.009438 0.000000 0.000000 0.000000
# 4 0.000000 0.000000 0.000000 0.049931 0.000000 0.000000
# 5 0.000000 0.000000 0.000000 0.000000 0.017702 0.000000
# 6 0.000000 0.000000 0.000000 0.000000 0.000000 0.019093
#
#
# Mechanical properties :
#
#
# Convention : Reuss Voigt Hill
#
# Bulk Modulus (GPa) = 65.29165 80.29099 72.79132
# Shear Modulus (GPa) = 33.50780 40.10736 36.80758
#
# Velocity S-wave (km/s) = 3.90776 4.27531 4.09566
# Velocity P-wave (km/s) = 7.07929 7.80784 7.45247
#
# Compressibility (1/GPa) = 0.01531589
#
# Stress axis : x y z
#
# Youngs Moduli (GPa) = 103.67266 57.90974 105.95071
#
# Poissons Ratio (x) = 0.21396 0.43833
# Poissons Ratio (y) = 0.38303 0.28464
# Poissons Ratio (z) = 0.42890 0.15558
#
# Static dielectric constant tensor:
#      x y z
#    x 1.821420 0.000000 0.000000 
#    y 0.000000 1.837870 0.000000 
#    z 0.000000 0.000000 1.879860 
# 
# From -- ./inp_files/13668.got.cif
#   From: 2010.05.17/outbox.cif.g08.bks.cpg/sg20_7_cif.got.tgz:13668.got - 2010.06.03 22:52:26.
