data_PCOD9318654
_publ_section_title
;
Structure prediction by ZEFSAII (Michael W. Deem and Ramdas Pophale) SiO2 
 PCOD9318654
Probable space group: C 2 2 21
;
_chemical_formula_sum "Si O2"
_cell_formula_units_Z 28
_cell_length_a 10.136009
_cell_length_b 10.016926
_cell_length_c 12.447287
_cell_angle_alpha 90.000000
_cell_angle_beta 90.000000
_cell_angle_gamma 90.000000
_cell_volume 1263.793613
_symmetry_space_group_name_H-M "C 2 2 21"
_symmetry_group_IT_number 20
_symmetry_cell_setting 'orthorhombic'
loop_
_space_group_symop_operation_xyz
x,y,z
-x,-y,1/2+z
x,-y,-z
-x,y,1/2-z
1/2+x,1/2+y,z
1/2-x,1/2-y,1/2+z
1/2+x,1/2-y,-z
1/2-x,1/2+y,1/2-z
loop_
_atom_site_type_symbol
_atom_site_label
_atom_site_fract_x
_atom_site_fract_y
_atom_site_fract_z
Si Si1 0.666337 0.538103 0.689224
Si Si2 0.112758 0.880793 0.085551
Si Si3 0.500000 0.708938 0.250000
Si Si4 0.087316 0.377162 0.053141
O O1 0.538617 0.597010 0.626674
O O2 0.692022 0.610420 0.802941
O O3 0.621836 0.391191 0.727343
O O4 0.788380 0.553557 0.611197
O O5 0.127191 0.738120 0.030059
O O6 0.140432 0.000000 0.000000
O O7 0.513956 0.798404 0.146045
O O8 0.009831 0.500000 0.000000
#
# Coordination Sequence:
#
# PCOD9318654 Si02
#       4
#     8   8   4   8
#     4  10  23  43  72  93 138 183 223 268 342 408
#     4  10  20  43  69  95 135 181 224 278 334 405
#     4  10  24  50  62 100 142 176 228 280 326 428
#     4  12  26  40  71 108 131 177 230 281 339 391
#
# _framework density 22.155517
#
# number of rings (size 3 to 8) (size 9 to 14) (size 15 to 20)
#    0.000    1.714    5.714    0.857    4.000    2.286 
#    0.000    2.857    0.000    0.000    0.000    0.000 
#    0.000    0.000    0.000    0.000    0.000    0.000 
#
# Total GULP energy -78245.181513 kJ/mol
# GULP energy per Si atom -5588.941537 kJ/mol
# Density = 2.210509 g / cm^3
# Si number density = 22.155517 Si / 1000 Ang^3
#
#
#
# Elastic Constant Matrix: (Units=GPa)
#
#
# Indices 1 2 3 4 5 6 
#
# 1 25.0761 8.1207 10.9640 0.0000 0.0000 0.0000
# 2 8.1207 191.7343 88.4473 0.0000 0.0000 0.0000
# 3 10.9640 88.4473 169.6666 0.0000 0.0000 0.0000
# 4 0.0000 0.0000 0.0000 3.5398 0.0000 0.0000
# 5 0.0000 0.0000 0.0000 0.0000 27.8554 0.0000
# 6 0.0000 0.0000 0.0000 0.0000 0.0000 -5.8474
#
#
#
# Elastic Compliance Matrix: (Units=1/GPa)
#
#
# Indices 1 2 3 4 5 6 
#
# 1 0.041105 -0.000679 -0.002302 0.000000 0.000000 0.000000
# 2 -0.000679 0.006878 -0.003542 0.000000 0.000000 0.000000
# 3 -0.002302 -0.003542 0.007889 0.000000 0.000000 0.000000
# 4 0.000000 0.000000 0.000000 0.282505 0.000000 0.000000
# 5 0.000000 0.000000 0.000000 0.000000 0.035900 0.000000
# 6 0.000000 0.000000 0.000000 0.000000 0.000000 -0.171015
#
#
# Mechanical properties :
#
#
# Convention : Reuss Voigt Hill
#
# Bulk Modulus (GPa) = 23.35014 66.83788 45.09401
# Shear Modulus (GPa) = 21.68416 23.70588 22.69502
#
# Velocity S-wave (km/s) = 3.13185 3.27460 3.20402
# Velocity P-wave (km/s) = 4.86211 6.67311 5.83826
#
# Compressibility (1/GPa) = 0.04282629
#
# Stress axis : x y z
#
# Youngs Moduli (GPa) = 24.32793 145.38925 126.75928
#
# Poissons Ratio (x) = 0.09870 0.29184
# Poissons Ratio (y) = 0.01652 0.44894
# Poissons Ratio (z) = 0.05601 0.51492
#
# Static dielectric constant tensor:
#      x y z
#    x 2.080100 0.000000 0.000000 
#    y 0.000000 1.805120 0.000000 
#    z 0.000000 0.000000 1.922730 
# 
# From -- ./inp_files/12402.got.cif
#   From: 2010.05.17/outbox.cif.g08.bks.cpg/sg20_7_cif.got.tgz:12402.got - 2010.06.03 22:52:26.
