data_PCOD9318944
_publ_section_title
;
Structure prediction by ZEFSAII (Michael W. Deem and Ramdas Pophale) SiO2 
 PCOD9318944
Probable space group: C 2 2 21
;
_chemical_formula_sum "Si O2"
_cell_formula_units_Z 64
_cell_length_a 10.709290
_cell_length_b 31.833534
_cell_length_c 9.305162
_cell_angle_alpha 90.000000
_cell_angle_beta 90.000000
_cell_angle_gamma 90.000000
_cell_volume 3172.265091
_symmetry_space_group_name_H-M "C 2 2 21"
_symmetry_group_IT_number 20
_symmetry_cell_setting 'orthorhombic'
loop_
_space_group_symop_operation_xyz
x,y,z
-x,-y,1/2+z
x,-y,-z
-x,y,1/2-z
1/2+x,1/2+y,z
1/2-x,1/2-y,1/2+z
1/2+x,1/2-y,-z
1/2-x,1/2+y,1/2-z
loop_
_atom_site_type_symbol
_atom_site_label
_atom_site_fract_x
_atom_site_fract_y
_atom_site_fract_z
Si Si1 0.632296 0.003111 0.825551
Si Si2 0.140362 0.316706 0.695373
Si Si3 0.863360 0.602545 0.698344
Si Si4 0.724546 0.351257 0.529793
Si Si5 0.473593 0.617607 0.406618
Si Si6 0.737470 0.658568 0.920504
Si Si7 0.378871 0.475775 0.653334
Si Si8 0.643905 0.718447 0.698445
O O1 0.500000 0.989904 0.750000
O O2 0.646657 0.052815 0.800038
O O3 0.752049 0.981496 0.747505
O O4 0.628608 0.000000 0.000000
O O5 0.231310 0.336191 0.814888
O O6 0.160628 0.339149 0.544234
O O7 0.167854 0.267342 0.673095
O O8 0.000000 0.320590 0.750000
O O9 0.836639 0.624710 0.547856
O O10 0.764749 0.621915 0.808653
O O11 0.000000 0.614812 0.750000
O O12 0.611579 0.384755 0.528533
O O13 0.678725 0.311191 0.436283
O O14 0.500000 0.636359 0.250000
O O15 0.391206 0.648204 0.501089
O O16 0.405868 0.573139 0.384124
O O17 0.726905 0.700923 0.829475
O O18 0.370644 0.500000 0.500000
O O19 0.500000 0.489362 0.750000
O O20 0.500000 0.713432 0.750000
#
# Coordination Sequence:
#
# PCOD9318944 Si02
#       8
#     8   8   8   8   8   8   8   8
#     4  11  25  46  70  97 137 179 225 277 341 409
#     4  11  23  38  61  90 124 165 209 266 324 385
#     4  10  24  42  65  94 126 169 213 259 322 392
#     4  11  22  40  65  90 128 164 213 266 323 393
#     4  11  23  39  64  95 126 167 213 267 326 386
#     4  11  21  40  63  87 127 160 213 261 318 388
#     4  11  25  42  66 101 137 173 230 283 340 405
#     4  10  21  38  60  91 122 162 211 262 325 389
#
# _framework density 20.174859000000001
#
# number of rings (size 3 to 8) (size 9 to 14) (size 15 to 20)
#    0.000    1.250    2.500    3.000    5.250    1.000 
#    0.000    1.250    2.750    0.000    0.000    0.000 
#    0.000    0.000    0.000    0.000    0.000    0.000 
#
# Total GULP energy -178659.995908 kJ/mol
# GULP energy per Si atom -5583.124872 kJ/mol
# Density = 2.012894 g / cm^3
# Si number density = 20.174859 Si / 1000 Ang^3
#
#
#
# Elastic Constant Matrix: (Units=GPa)
#
#
# Indices 1 2 3 4 5 6 
#
# 1 97.5059 23.1822 26.9954 0.0000 0.0000 0.0000
# 2 23.1822 46.4920 11.7991 0.0000 0.0000 0.0000
# 3 26.9954 11.7991 106.8410 0.0000 0.0000 0.0000
# 4 0.0000 0.0000 0.0000 14.2330 0.0000 0.0000
# 5 0.0000 0.0000 0.0000 0.0000 26.4926 0.0000
# 6 0.0000 0.0000 0.0000 0.0000 0.0000 25.7084
#
#
#
# Elastic Compliance Matrix: (Units=1/GPa)
#
#
# Indices 1 2 3 4 5 6 
#
# 1 0.012247 -0.005475 -0.002490 0.000000 0.000000 0.000000
# 2 -0.005475 0.024577 -0.001331 0.000000 0.000000 0.000000
# 3 -0.002490 -0.001331 0.010136 0.000000 0.000000 0.000000
# 4 0.000000 0.000000 0.000000 0.070259 0.000000 0.000000
# 5 0.000000 0.000000 0.000000 0.000000 0.037746 0.000000
# 6 0.000000 0.000000 0.000000 0.000000 0.000000 0.038898
#
#
# Mechanical properties :
#
#
# Convention : Reuss Voigt Hill
#
# Bulk Modulus (GPa) = 35.25036 41.64359 38.44697
# Shear Modulus (GPa) = 22.53171 25.87761 24.20466
#
# Velocity S-wave (km/s) = 3.34551 3.58532 3.46749
# Velocity P-wave (km/s) = 5.69505 6.15024 5.92702
#
# Compressibility (1/GPa) = 0.02836851
#
# Stress axis : x y z
#
# Youngs Moduli (GPa) = 81.65459 40.68905 98.66061
#
# Poissons Ratio (x) = 0.22276 0.24564
# Poissons Ratio (y) = 0.44703 0.13130
# Poissons Ratio (z) = 0.20330 0.05415
#
# Static dielectric constant tensor:
#      x y z
#    x 1.739710 0.000000 0.000000 
#    y 0.000000 1.680310 0.000000 
#    z 0.000000 0.000000 1.815180 
# 
# From -- ./inp_files/7683.got.cif
#   From: 2010.05.17/outbox.cif.g08.bks.cpg/sg20_4_cif.got.tgz:7683.got - 2010.06.03 22:52:26.
