data_PCOD9318544
_publ_section_title
;
Structure prediction by ZEFSAII (Michael W. Deem and Ramdas Pophale) SiO2 
 PCOD9318544
Probable space group: C 2 2 21
;
_chemical_formula_sum "Si O2"
_cell_formula_units_Z 60
_cell_length_a 8.769516
_cell_length_b 17.577557
_cell_length_c 17.456158
_cell_angle_alpha 90.000000
_cell_angle_beta 90.000000
_cell_angle_gamma 90.000000
_cell_volume 2690.808580
_symmetry_space_group_name_H-M "C 2 2 21"
_symmetry_group_IT_number 20
_symmetry_cell_setting 'orthorhombic'
loop_
_space_group_symop_operation_xyz
x,y,z
-x,-y,1/2+z
x,-y,-z
-x,y,1/2-z
1/2+x,1/2+y,z
1/2-x,1/2-y,1/2+z
1/2+x,1/2-y,-z
1/2-x,1/2+y,1/2-z
loop_
_atom_site_type_symbol
_atom_site_label
_atom_site_fract_x
_atom_site_fract_y
_atom_site_fract_z
Si Si1 0.239921 0.620100 0.376277
Si Si2 0.868269 0.218530 0.916991
Si Si3 0.536572 0.982053 0.856232
Si Si4 0.372418 0.302607 0.312656
Si Si5 0.736207 0.639143 0.298281
Si Si6 0.252074 0.500000 0.000000
Si Si7 0.444862 0.631144 0.049647
Si Si8 0.137682 0.355484 0.205225
O O1 0.133384 0.692541 0.395930
O O2 0.306789 0.634054 0.290852
O O3 0.375467 0.622750 0.438027
O O4 0.134313 0.545383 0.373831
O O5 0.724853 0.184510 0.867069
O O6 0.025896 0.180868 0.886268
O O7 0.881109 0.207171 0.008416
O O8 0.620172 0.917571 0.806013
O O9 0.638831 0.983591 0.931614
O O10 0.564267 0.065791 0.822500
O O11 0.500000 0.283644 0.250000
O O12 0.278887 0.225325 0.319133
O O13 0.266416 0.364577 0.271275
O O14 0.620423 0.616544 0.365310
O O15 0.365730 0.429456 0.006830
O O16 0.000000 0.312359 0.250000
#
# Coordination Sequence:
#
# PCOD9318544 Si02
#       8
#     8   8   8   8   8   4   8   8
#     4  12  24  43  75 106 141 192 258 301 364 450
#     4  11  24  46  68 107 152 190 243 303 373 440
#     4  11  23  46  73 100 141 190 248 298 368 439
#     4  10  20  41  67  99 146 186 228 303 363 420
#     4  11  21  43  73 103 143 192 244 304 360 433
#     4  10  24  50  64  96 152 188 224 316 372 424
#     4  11  27  43  70 104 145 197 240 301 381 445
#     4  11  23  42  72 107 139 189 238 301 372 430
#
# _framework density 22.298128999999999
#
# number of rings (size 3 to 8) (size 9 to 14) (size 15 to 20)
#    0.000    1.067    5.333    1.600    3.733    0.533 
#    7.200    2.667    0.000    0.000    0.000    0.000 
#    0.000    0.000    0.000    0.000    0.000    0.000 
#
# Total GULP energy -167257.525850 kJ/mol
# GULP energy per Si atom -5575.250862 kJ/mol
# Density = 2.224738 g / cm^3
# Si number density = 22.298129 Si / 1000 Ang^3
#
#
#
# Elastic Constant Matrix: (Units=GPa)
#
#
# Indices 1 2 3 4 5 6 
#
# 1 115.6165 25.2975 41.4850 0.0000 0.0000 0.0000
# 2 25.2975 69.6098 7.6343 0.0000 0.0000 0.0000
# 3 41.4850 7.6343 92.8885 0.0000 0.0000 0.0000
# 4 0.0000 0.0000 0.0000 25.5622 0.0000 0.0000
# 5 0.0000 0.0000 0.0000 0.0000 35.1365 0.0000
# 6 0.0000 0.0000 0.0000 0.0000 0.0000 17.0455
#
#
#
# Elastic Compliance Matrix: (Units=1/GPa)
#
#
# Indices 1 2 3 4 5 6 
#
# 1 0.011093 -0.003520 -0.004665 0.000000 0.000000 0.000000
# 2 -0.003520 0.015613 0.000289 0.000000 0.000000 0.000000
# 3 -0.004665 0.000289 0.012825 0.000000 0.000000 0.000000
# 4 0.000000 0.000000 0.000000 0.039120 0.000000 0.000000
# 5 0.000000 0.000000 0.000000 0.000000 0.028460 0.000000
# 6 0.000000 0.000000 0.000000 0.000000 0.000000 0.058667
#
#
# Mechanical properties :
#
#
# Convention : Reuss Voigt Hill
#
# Bulk Modulus (GPa) = 42.12374 47.43873 44.78123
# Shear Modulus (GPa) = 26.38732 29.12871 27.75801
#
# Velocity S-wave (km/s) = 3.44377 3.61824 3.53208
# Velocity P-wave (km/s) = 5.89448 6.22708 6.06306
#
# Compressibility (1/GPa) = 0.02373959
#
# Stress axis : x y z
#
# Youngs Moduli (GPa) = 90.14385 64.04788 77.97053
#
# Poissons Ratio (x) = 0.22544 0.36374
# Poissons Ratio (y) = 0.31730 -0.02252
# Poissons Ratio (z) = 0.42053 -0.01850
#
# Static dielectric constant tensor:
#      x y z
#    x 1.832580 0.000000 0.000000 
#    y 0.000000 1.890750 0.000000 
#    z 0.000000 0.000000 1.802560 
# 
# From -- ./inp_files/23774.got.cif
#   From: 2010.05.17/outbox.cif.g08.bks.cpg/sg20_12_cif.got.tgz:23774.got - 2010.06.03 22:52:26.
