data_PCOD9318604
_publ_section_title
;
Structure prediction by ZEFSAII (Michael W. Deem and Ramdas Pophale) SiO2 
 PCOD9318604
Probable space group: C 2 2 21
;
_chemical_formula_sum "Si O2"
_cell_formula_units_Z 40
_cell_length_a 7.816095
_cell_length_b 14.617867
_cell_length_c 15.706165
_cell_angle_alpha 90.000000
_cell_angle_beta 90.000000
_cell_angle_gamma 90.000000
_cell_volume 1794.502183
_symmetry_space_group_name_H-M "C 2 2 21"
_symmetry_group_IT_number 20
_symmetry_cell_setting 'orthorhombic'
loop_
_space_group_symop_operation_xyz
x,y,z
-x,-y,1/2+z
x,-y,-z
-x,y,1/2-z
1/2+x,1/2+y,z
1/2-x,1/2-y,1/2+z
1/2+x,1/2-y,-z
1/2-x,1/2+y,1/2-z
loop_
_atom_site_type_symbol
_atom_site_label
_atom_site_fract_x
_atom_site_fract_y
_atom_site_fract_z
Si Si1 0.793978 0.109625 0.061130
Si Si2 0.209146 0.318610 0.422410
Si Si3 0.316861 0.451348 0.288162
Si Si4 0.309057 0.424592 0.571215
Si Si5 0.356683 0.074478 0.614033
O O1 0.780264 0.211730 0.095925
O O2 0.986092 0.076880 0.079731
O O3 0.656358 0.035568 0.095478
O O4 0.770345 0.110732 0.959241
O O5 0.336461 0.374004 0.360647
O O6 0.249205 0.334061 0.522700
O O7 0.029182 0.368562 0.401986
O O8 0.500000 0.474829 0.250000
O O9 0.242529 0.539451 0.338520
O O10 0.202567 0.416066 0.210828
O O11 0.261071 0.500000 0.500000
#
# Coordination Sequence:
#
# PCOD9318604 Si02
#       5
#     8   8   8   8   8
#     4  11  22  44  69 101 138 185 230 277 366 423
#     4  11  25  42  70 105 135 182 240 288 352 425
#     4  11  22  44  67  95 140 183 227 287 354 414
#     4  10  20  42  68  90 134 187 221 274 354 419
#     4  11  23  43  70 102 142 178 232 296 340 420
#
# _framework density 22.290306999999999
#
# number of rings (size 3 to 8) (size 9 to 14) (size 15 to 20)
#    0.000    1.200    4.000    3.000    8.400    0.000 
#   10.800    2.000    0.000    0.000    0.000    0.000 
#    0.000    0.000    0.000    0.000    0.000    0.000 
#
# Total GULP energy -111613.701387 kJ/mol
# GULP energy per Si atom -5580.685069 kJ/mol
# Density = 2.223957 g / cm^3
# Si number density = 22.290307 Si / 1000 Ang^3
#
#
#
# Elastic Constant Matrix: (Units=GPa)
#
#
# Indices 1 2 3 4 5 6 
#
# 1 66.3048 13.8665 28.2030 0.0000 0.0000 0.0000
# 2 13.8665 125.4252 26.4110 0.0000 0.0000 0.0000
# 3 28.2030 26.4110 123.6612 0.0000 0.0000 0.0000
# 4 0.0000 0.0000 0.0000 18.2357 0.0000 0.0000
# 5 0.0000 0.0000 0.0000 0.0000 34.7821 0.0000
# 6 0.0000 0.0000 0.0000 0.0000 0.0000 18.7264
#
#
#
# Elastic Compliance Matrix: (Units=1/GPa)
#
#
# Indices 1 2 3 4 5 6 
#
# 1 0.016847 -0.001103 -0.003607 0.000000 0.000000 0.000000
# 2 -0.001103 0.008421 -0.001547 0.000000 0.000000 0.000000
# 3 -0.003607 -0.001547 0.009240 0.000000 0.000000 0.000000
# 4 0.000000 0.000000 0.000000 0.054837 0.000000 0.000000
# 5 0.000000 0.000000 0.000000 0.000000 0.028750 0.000000
# 6 0.000000 0.000000 0.000000 0.000000 0.000000 0.053401
#
#
# Mechanical properties :
#
#
# Convention : Reuss Voigt Hill
#
# Bulk Modulus (GPa) = 45.46749 50.26137 47.86443
# Shear Modulus (GPa) = 26.13158 30.80955 28.47056
#
# Velocity S-wave (km/s) = 3.42764 3.72182 3.57776
# Velocity P-wave (km/s) = 6.00892 6.40834 6.21184
#
# Compressibility (1/GPa) = 0.02199374
#
# Stress axis : x y z
#
# Youngs Moduli (GPa) = 59.35904 118.75708 108.23076
#
# Poissons Ratio (x) = 0.13100 0.39034
# Poissons Ratio (y) = 0.06548 0.16742
# Poissons Ratio (z) = 0.21408 0.18370
#
# Static dielectric constant tensor:
#      x y z
#    x 1.862420 0.000000 0.000000 
#    y 0.000000 1.863890 0.000000 
#    z 0.000000 0.000000 1.841490 
# 
# From -- ./inp_files/18505.got.cif
#   From: 2010.05.17/outbox.cif.g08.bks.cpg/sg20_10_cif.got.tgz:18505.got - 2010.06.03 22:52:26.
