data_PCOD9318142
_publ_section_title
;
Structure prediction by ZEFSAII (Michael W. Deem and Ramdas Pophale) SiO2 
 PCOD9318142
Probable space group: C 2 2 21
;
_chemical_formula_sum "Si O2"
_cell_formula_units_Z 56
_cell_length_a 6.418527
_cell_length_b 12.429068
_cell_length_c 29.303824
_cell_angle_alpha 90.000000
_cell_angle_beta 90.000000
_cell_angle_gamma 90.000000
_cell_volume 2337.750905
_symmetry_space_group_name_H-M "C 2 2 21"
_symmetry_group_IT_number 20
_symmetry_cell_setting 'orthorhombic'
loop_
_space_group_symop_operation_xyz
x,y,z
-x,-y,1/2+z
x,-y,-z
-x,y,1/2-z
1/2+x,1/2+y,z
1/2-x,1/2-y,1/2+z
1/2+x,1/2-y,-z
1/2-x,1/2+y,1/2-z
loop_
_atom_site_type_symbol
_atom_site_label
_atom_site_fract_x
_atom_site_fract_y
_atom_site_fract_z
Si Si1 0.707767 0.165453 0.552220
Si Si2 0.226691 0.964199 0.343176
Si Si3 0.940467 0.259791 0.374520
Si Si4 0.113016 0.240019 0.543273
Si Si5 0.741247 0.882576 0.755623
Si Si6 0.691158 0.530828 0.161311
Si Si7 0.021466 0.534475 0.080040
O O1 0.659906 0.216668 0.601715
O O2 0.952593 0.142657 0.548807
O O3 0.671339 0.243251 0.509130
O O4 0.561971 0.060982 0.548240
O O5 0.361791 0.855302 0.341763
O O6 0.264614 0.050640 0.302876
O O7 0.265475 0.012931 0.393734
O O8 0.982273 0.939525 0.340887
O O9 0.796370 0.266027 0.420091
O O10 0.913423 0.146170 0.351058
O O11 0.000074 0.350983 0.557684
O O12 0.500000 0.826455 0.750000
O O13 0.731458 0.961776 0.712576
O O14 0.000000 0.842369 0.750000
O O15 0.866371 0.524050 0.123460
#
# Coordination Sequence:
#
# PCOD9318142 Si02
#       7
#     8   8   8   8   8   8   8
#     4  11  21  37  57  83 120 156 202 259 308 367
#     4  10  20  38  61  86 120 159 203 255 315 374
#     4  10  22  38  60  88 116 162 208 248 314 382
#     4  11  21  37  57  83 120 156 202 259 308 367
#     4  10  20  38  64  88 124 166 202 262 322 374
#     4  10  20  38  61  86 120 159 203 255 315 374
#     4  10  21  35  60  82 114 160 202 247 317 374
#
# _framework density 23.954646
#
# number of rings (size 3 to 8) (size 9 to 14) (size 15 to 20)
#    0.000    1.714    2.857    2.143    0.000    0.000 
#    0.000    4.286    3.143    0.000    0.000    0.000 
#    0.000    0.000    0.000    0.000    0.000    0.000 
#
# Total GULP energy -155869.053223 kJ/mol
# GULP energy per Si atom -5566.751901 kJ/mol
# Density = 2.390012 g / cm^3
# Si number density = 23.954646 Si / 1000 Ang^3
#
#
#
# Elastic Constant Matrix: (Units=GPa)
#
#
# Indices 1 2 3 4 5 6 
#
# 1 98.5682 8.8342 19.0362 0.0000 0.0000 0.0000
# 2 8.8342 62.4884 12.7937 0.0000 0.0000 0.0000
# 3 19.0362 12.7937 92.0604 0.0000 0.0000 0.0000
# 4 0.0000 0.0000 0.0000 6.3616 0.0000 0.0000
# 5 0.0000 0.0000 0.0000 0.0000 47.9073 0.0000
# 6 0.0000 0.0000 0.0000 0.0000 0.0000 21.9710
#
#
#
# Elastic Compliance Matrix: (Units=1/GPa)
#
#
# Indices 1 2 3 4 5 6 
#
# 1 0.010638 -0.001084 -0.002049 0.000000 0.000000 0.000000
# 2 -0.001084 0.016582 -0.002080 0.000000 0.000000 0.000000
# 3 -0.002049 -0.002080 0.011575 0.000000 0.000000 0.000000
# 4 0.000000 0.000000 0.000000 0.157193 0.000000 0.000000
# 5 0.000000 0.000000 0.000000 0.000000 0.020874 0.000000
# 6 0.000000 0.000000 0.000000 0.000000 0.000000 0.045515
#
#
# Mechanical properties :
#
#
# Convention : Reuss Voigt Hill
#
# Bulk Modulus (GPa) = 35.25074 37.16059 36.20567
# Shear Modulus (GPa) = 17.71416 29.41151 23.56283
#
# Velocity S-wave (km/s) = 2.72230 3.50780 3.13971
# Velocity P-wave (km/s) = 4.96274 5.65268 5.31891
#
# Compressibility (1/GPa) = 0.02836820
#
# Stress axis : x y z
#
# Youngs Moduli (GPa) = 94.00107 60.30568 86.39142
#
# Poissons Ratio (x) = 0.06540 0.17702
# Poissons Ratio (y) = 0.10194 0.17971
# Poissons Ratio (z) = 0.19261 0.12545
#
# Static dielectric constant tensor:
#      x y z
#    x 2.112000 0.000000 0.000000 
#    y 0.000000 1.910760 0.000000 
#    z 0.000000 0.000000 1.939020 
# 
# From -- ./inp_files/30730.got.cif
#   From: 2010.05.17/outbox.cif.g08.bks.cpg/sg20_16_cif.got.tgz:30730.got - 2010.06.03 22:52:26.
