data_PCOD9318284
_publ_section_title
;
Structure prediction by ZEFSAII (Michael W. Deem and Ramdas Pophale) SiO2 
 PCOD9318284
Probable space group: C 2 2 21
;
_chemical_formula_sum "Si O2"
_cell_formula_units_Z 64
_cell_length_a 31.308620
_cell_length_b 11.748076
_cell_length_c 7.514583
_cell_angle_alpha 90.000000
_cell_angle_beta 90.000000
_cell_angle_gamma 90.000000
_cell_volume 2763.984216
_symmetry_space_group_name_H-M "C 2 2 21"
_symmetry_group_IT_number 20
_symmetry_cell_setting 'orthorhombic'
loop_
_space_group_symop_operation_xyz
x,y,z
-x,-y,1/2+z
x,-y,-z
-x,y,1/2-z
1/2+x,1/2+y,z
1/2-x,1/2-y,1/2+z
1/2+x,1/2-y,-z
1/2-x,1/2+y,1/2-z
loop_
_atom_site_type_symbol
_atom_site_label
_atom_site_fract_x
_atom_site_fract_y
_atom_site_fract_z
Si Si1 0.160667 0.831305 0.212611
Si Si2 0.548399 0.046976 0.202387
Si Si3 0.089827 0.265494 0.972189
Si Si4 0.379181 0.100460 0.793946
Si Si5 0.546840 0.413520 0.833594
Si Si6 0.629476 0.353259 0.604775
Si Si7 0.308428 0.068247 0.308409
Si Si8 0.787121 0.970155 0.788930
O O1 0.121648 0.835309 0.076725
O O2 0.140721 0.876349 0.399241
O O3 0.175688 0.699562 0.202682
O O4 0.199614 0.916443 0.182743
O O5 0.500000 0.059896 0.250000
O O6 0.572652 0.167283 0.196460
O O7 0.575742 0.960958 0.319167
O O8 0.549348 0.000000 0.000000
O O9 0.116713 0.352260 0.091661
O O10 0.050877 0.213116 0.081619
O O11 0.374620 0.216608 0.897884
O O12 0.341313 0.010231 0.801567
O O13 0.500000 0.431651 0.750000
O O14 0.586596 0.408219 0.691383
O O15 0.551194 0.500000 0.000000
O O16 0.672204 0.385592 0.716585
O O17 0.259796 0.071002 0.238103
O O18 0.307391 0.000000 0.500000
O O19 0.783403 0.000000 0.000000
#
# Coordination Sequence:
#
# PCOD9318284 Si02
#       8
#     8   8   8   8   8   8   8   8
#     4  11  21  40  70  97 135 191 230 300 367 420
#     4  10  21  36  56  87 120 164 214 271 338 414
#     4  10  21  40  65  91 129 177 228 271 356 419
#     4  10  20  39  61  88 133 175 226 287 344 427
#     4  11  26  46  71 102 134 180 229 290 350 428
#     4  10  24  43  66  98 144 175 238 297 357 422
#     4  11  20  39  67  95 135 182 241 285 362 431
#     4   9  22  39  62  97 132 180 231 297 355 427
#
# _framework density 23.154979999999998
#
# number of rings (size 3 to 8) (size 9 to 14) (size 15 to 20)
#    0.000    1.750    2.500    1.125    1.750   10.000 
#    0.000    0.000    8.250    0.000    0.000    0.000 
#    0.000    0.000    0.000    0.000    0.000    0.000 
#
# Total GULP energy -178547.679194 kJ/mol
# GULP energy per Si atom -5579.614975 kJ/mol
# Density = 2.310228 g / cm^3
# Si number density = 23.154980 Si / 1000 Ang^3
#
#
#
# Elastic Constant Matrix: (Units=GPa)
#
#
# Indices 1 2 3 4 5 6 
#
# 1 159.0093 42.7120 37.8329 0.0000 0.0000 0.0000
# 2 42.7120 98.7492 26.5450 0.0000 0.0000 0.0000
# 3 37.8329 26.5450 57.9722 0.0000 0.0000 0.0000
# 4 0.0000 0.0000 0.0000 32.0613 0.0000 0.0000
# 5 0.0000 0.0000 0.0000 0.0000 11.9943 0.0000
# 6 0.0000 0.0000 0.0000 0.0000 0.0000 36.5198
#
#
#
# Elastic Compliance Matrix: (Units=1/GPa)
#
#
# Indices 1 2 3 4 5 6 
#
# 1 0.007882 -0.002311 -0.004086 0.000000 0.000000 0.000000
# 2 -0.002311 0.012226 -0.004090 0.000000 0.000000 0.000000
# 3 -0.004086 -0.004090 0.021789 0.000000 0.000000 0.000000
# 4 0.000000 0.000000 0.000000 0.031190 0.000000 0.000000
# 5 0.000000 0.000000 0.000000 0.000000 0.083373 0.000000
# 6 0.000000 0.000000 0.000000 0.000000 0.000000 0.027382
#
#
# Mechanical properties :
#
#
# Convention : Reuss Voigt Hill
#
# Bulk Modulus (GPa) = 47.79355 58.87896 53.33625
# Shear Modulus (GPa) = 23.60842 30.02447 26.81644
#
# Velocity S-wave (km/s) = 3.19655 3.60484 3.40682
# Velocity P-wave (km/s) = 5.85743 6.54293 6.20965
#
# Compressibility (1/GPa) = 0.02092333
#
# Stress axis : x y z
#
# Youngs Moduli (GPa) = 126.87561 81.79555 45.89552
#
# Poissons Ratio (x) = 0.18902 0.18751
# Poissons Ratio (y) = 0.29319 0.18771
# Poissons Ratio (z) = 0.51835 0.33454
#
# Static dielectric constant tensor:
#      x y z
#    x 1.844240 0.000000 0.000000 
#    y 0.000000 1.909810 0.000000 
#    z 0.000000 0.000000 1.898050 
# 
# From -- ./inp_files/11600.got.cif
#   From: 2010.05.17/outbox.cif.g08.bks.cpg/sg20_6_cif.got.tgz:11600.got - 2010.06.03 22:52:26.
