data_PCOD9318682
_publ_section_title
;
Structure prediction by ZEFSAII (Michael W. Deem and Ramdas Pophale) SiO2 
 PCOD9318682
Probable space group: C 2 2 21
;
_chemical_formula_sum "Si O2"
_cell_formula_units_Z 60
_cell_length_a 14.967676
_cell_length_b 13.805621
_cell_length_c 14.270915
_cell_angle_alpha 90.000000
_cell_angle_beta 90.000000
_cell_angle_gamma 90.000000
_cell_volume 2948.914220
_symmetry_space_group_name_H-M "C 2 2 21"
_symmetry_group_IT_number 20
_symmetry_cell_setting 'orthorhombic'
loop_
_space_group_symop_operation_xyz
x,y,z
-x,-y,1/2+z
x,-y,-z
-x,y,1/2-z
1/2+x,1/2+y,z
1/2-x,1/2-y,1/2+z
1/2+x,1/2-y,-z
1/2-x,1/2+y,1/2-z
loop_
_atom_site_type_symbol
_atom_site_label
_atom_site_fract_x
_atom_site_fract_y
_atom_site_fract_z
Si Si1 0.500000 0.551309 0.250000
Si Si2 0.282180 0.607265 0.457637
Si Si3 0.983966 0.108734 0.463964
Si Si4 0.465092 0.041410 0.102265
Si Si5 0.599888 0.784301 0.290246
Si Si6 0.897959 0.285140 0.995013
Si Si7 0.362404 0.020161 0.709142
Si Si8 0.814351 0.076059 0.239882
O O1 0.486928 0.604917 0.350386
O O2 0.401913 0.506567 0.236249
O O3 0.264231 0.500000 0.500000
O O4 0.382113 0.639094 0.489151
O O5 0.205104 0.685609 0.477006
O O6 0.286867 0.588846 0.347210
O O7 0.061626 0.177359 0.502633
O O8 0.995581 0.000000 0.500000
O O9 0.562267 0.004072 0.132920
O O10 0.402482 0.016995 0.190882
O O11 0.455678 0.155122 0.080286
O O12 0.439762 0.000000 0.000000
O O13 0.500000 0.779012 0.250000
O O14 0.588504 0.817909 0.397125
O O15 0.652452 0.682717 0.290878
O O16 0.648653 0.865362 0.227689
O O17 0.269781 0.967810 0.687451
#
# Coordination Sequence:
#
# PCOD9318682 Si02
#       8
#     4   8   8   8   8   8   8   8
#     4  10  20  44  68  84 128 184 220 260 324 404
#     4  10  21  39  66  93 124 174 222 266 316 400
#     4  10  23  43  67  92 131 174 223 267 325 398
#     4  11  21  40  66  97 135 172 220 283 333 394
#     4  12  21  40  69  95 126 182 224 266 328 406
#     4  12  21  38  69  96 128 173 225 272 324 395
#     4  11  23  39  65 102 136 169 223 281 340 384
#     4  11  21  40  63  98 129 172 228 272 320 411
#
# _framework density 20.346471999999999
#
# number of rings (size 3 to 8) (size 9 to 14) (size 15 to 20)
#    0.000    1.067    6.000    2.000    0.000    1.067 
#    2.400    2.000    0.000    0.800    0.000    0.000 
#    0.000    0.000    0.000    0.000    0.000    0.000 
#
# Total GULP energy -167148.874943 kJ/mol
# GULP energy per Si atom -5571.629165 kJ/mol
# Density = 2.030016 g / cm^3
# Si number density = 20.346472 Si / 1000 Ang^3
#
#
#
# Elastic Constant Matrix: (Units=GPa)
#
#
# Indices 1 2 3 4 5 6 
#
# 1 169.6828 48.7959 8.4954 0.0000 0.0000 0.0000
# 2 48.7959 88.4218 2.9554 0.0000 0.0000 0.0000
# 3 8.4954 2.9554 56.6614 0.0000 0.0000 0.0000
# 4 0.0000 0.0000 0.0000 18.6715 0.0000 0.0000
# 5 0.0000 0.0000 0.0000 0.0000 13.7620 0.0000
# 6 0.0000 0.0000 0.0000 0.0000 0.0000 31.7924
#
#
#
# Elastic Compliance Matrix: (Units=1/GPa)
#
#
# Indices 1 2 3 4 5 6 
#
# 1 0.007046 -0.003860 -0.000855 0.000000 0.000000 0.000000
# 2 -0.003860 0.013444 -0.000122 0.000000 0.000000 0.000000
# 3 -0.000855 -0.000122 0.017783 0.000000 0.000000 0.000000
# 4 0.000000 0.000000 0.000000 0.053557 0.000000 0.000000
# 5 0.000000 0.000000 0.000000 0.000000 0.072664 0.000000
# 6 0.000000 0.000000 0.000000 0.000000 0.000000 0.031454
#
#
# Mechanical properties :
#
#
# Convention : Reuss Voigt Hill
#
# Bulk Modulus (GPa) = 34.96731 48.36213 41.66472
# Shear Modulus (GPa) = 23.23893 29.81314 26.52603
#
# Velocity S-wave (km/s) = 3.38325 3.83204 3.61462
# Velocity P-wave (km/s) = 5.69957 6.58789 6.15976
#
# Compressibility (1/GPa) = 0.02859814
#
# Stress axis : x y z
#
# Youngs Moduli (GPa) = 141.92149 74.38481 56.23250
#
# Poissons Ratio (x) = 0.28712 0.04809
# Poissons Ratio (y) = 0.54780 0.00689
# Poissons Ratio (z) = 0.12136 0.00911
#
# Static dielectric constant tensor:
#      x y z
#    x 1.776180 0.000000 0.000000 
#    y 0.000000 1.844130 0.000000 
#    z 0.000000 0.000000 1.714500 
# 
# From -- ./inp_files/20913.got.cif
#   From: 2010.05.17/outbox.cif.g08.bks.cpg/sg20_11_cif.got.tgz:20913.got - 2010.06.03 22:52:26.
