data_PCOD9318733
_publ_section_title
;
Structure prediction by ZEFSAII (Michael W. Deem and Ramdas Pophale) SiO2 
 PCOD9318733
Probable space group: C 2 2 21
;
_chemical_formula_sum "Si O2"
_cell_formula_units_Z 36
_cell_length_a 16.521038
_cell_length_b 25.220099
_cell_length_c 5.145086
_cell_angle_alpha 90.000000
_cell_angle_beta 90.000000
_cell_angle_gamma 90.000000
_cell_volume 2143.762924
_symmetry_space_group_name_H-M "C 2 2 21"
_symmetry_group_IT_number 20
_symmetry_cell_setting 'orthorhombic'
loop_
_space_group_symop_operation_xyz
x,y,z
-x,-y,1/2+z
x,-y,-z
-x,y,1/2-z
1/2+x,1/2+y,z
1/2-x,1/2-y,1/2+z
1/2+x,1/2-y,-z
1/2-x,1/2+y,1/2-z
loop_
_atom_site_type_symbol
_atom_site_label
_atom_site_fract_x
_atom_site_fract_y
_atom_site_fract_z
Si Si1 0.174784 0.302186 0.829564
Si Si2 0.000000 0.806280 0.750000
Si Si3 0.230989 0.179265 0.833067
Si Si4 0.500000 0.769924 0.750000
Si Si5 0.414021 0.616392 0.907103
Si Si6 0.442841 0.500000 0.000000
O O1 0.196707 0.239412 0.824079
O O2 0.230490 0.329399 0.613365
O O3 0.081367 0.304217 0.748600
O O4 0.199535 0.322761 0.112439
O O5 0.990516 0.767994 0.502249
O O6 0.071170 0.846033 0.658243
O O7 0.157644 0.141328 0.758295
O O8 0.500000 0.617391 0.750000
O O9 0.396612 0.555487 0.974801
O O10 0.500000 0.505859 0.250000
#
# Coordination Sequence:
#
# PCOD9318733 Si02
#       6
#     8   4   8   4   8   4
#     4  10  21  33  47  72  96 131 167 213 238 305
#     4  12  20  30  53  72  94 142 173 208 236 312
#     4  10  21  32  48  70 101 127 173 202 251 287
#     4  12  22  34  53  74 100 136 179 204 260 298
#     4  11  22  35  53  73 103 141 176 211 249 305
#     4  10  22  34  50  74 100 134 182 220 244 288
#
# _framework density 16.792902999999999
#
# number of rings (size 3 to 8) (size 9 to 14) (size 15 to 20)
#    0.000    1.333    4.444    1.333    9.333    0.000 
#    0.000    0.000    0.000    0.000    0.000    0.000 
#    0.000    3.556    0.000    0.000    0.000    0.000 
#
# Total GULP energy -100493.121898 kJ/mol
# GULP energy per Si atom -5582.951217 kJ/mol
# Density = 1.675468 g / cm^3
# Si number density = 16.792903 Si / 1000 Ang^3
#
#
#
# Elastic Constant Matrix: (Units=GPa)
#
#
# Indices 1 2 3 4 5 6 
#
# 1 65.7443 8.5412 -3.7453 0.0000 0.0000 0.0000
# 2 8.5412 58.3762 5.9501 0.0000 0.0000 0.0000
# 3 -3.7453 5.9501 75.6747 0.0000 0.0000 0.0000
# 4 0.0000 0.0000 0.0000 3.1701 0.0000 0.0000
# 5 0.0000 0.0000 0.0000 0.0000 20.1778 0.0000
# 6 0.0000 0.0000 0.0000 0.0000 0.0000 10.0860
#
#
#
# Elastic Compliance Matrix: (Units=1/GPa)
#
#
# Indices 1 2 3 4 5 6 
#
# 1 0.015574 -0.002376 0.000958 0.000000 0.000000 0.000000
# 2 -0.002376 0.017631 -0.001504 0.000000 0.000000 0.000000
# 3 0.000958 -0.001504 0.013380 0.000000 0.000000 0.000000
# 4 0.000000 0.000000 0.000000 0.315443 0.000000 0.000000
# 5 0.000000 0.000000 0.000000 0.000000 0.049559 0.000000
# 6 0.000000 0.000000 0.000000 0.000000 0.000000 0.099147
#
#
# Mechanical properties :
#
#
# Convention : Reuss Voigt Hill
#
# Bulk Modulus (GPa) = 24.54593 24.58748 24.56670
# Shear Modulus (GPa) = 9.43112 19.29007 14.36060
#
# Velocity S-wave (km/s) = 2.37241 3.39293 2.92748
# Velocity P-wave (km/s) = 4.70670 5.47930 5.10763
#
# Compressibility (1/GPa) = 0.04073995
#
# Stress axis : x y z
#
# Youngs Moduli (GPa) = 64.21080 56.71750 74.73787
#
# Poissons Ratio (x) = 0.13478 -0.07157
# Poissons Ratio (y) = 0.15258 0.11240
# Poissons Ratio (z) = -0.06149 0.08530
#
# Static dielectric constant tensor:
#      x y z
#    x 1.586560 0.000000 0.000000 
#    y 0.000000 1.546970 0.000000 
#    z 0.000000 0.000000 1.619290 
# 
# From -- ./inp_files/1851.got.cif
#   From: 2010.05.17/outbox.cif.g08.bks.cpg/sg20_1_cif.got.tgz:1851.got - 2010.06.03 22:52:26.
