data_PCOD9318725
_publ_section_title
;
Structure prediction by ZEFSAII (Michael W. Deem and Ramdas Pophale) SiO2 
 PCOD9318725
Probable space group: C 2 2 21
;
_chemical_formula_sum "Si O2"
_cell_formula_units_Z 40
_cell_length_a 13.619637
_cell_length_b 7.221031
_cell_length_c 17.669114
_cell_angle_alpha 90.000000
_cell_angle_beta 90.000000
_cell_angle_gamma 90.000000
_cell_volume 1737.718861
_symmetry_space_group_name_H-M "C 2 2 21"
_symmetry_group_IT_number 20
_symmetry_cell_setting 'orthorhombic'
loop_
_space_group_symop_operation_xyz
x,y,z
-x,-y,1/2+z
x,-y,-z
-x,y,1/2-z
1/2+x,1/2+y,z
1/2-x,1/2-y,1/2+z
1/2+x,1/2-y,-z
1/2-x,1/2+y,1/2-z
loop_
_atom_site_type_symbol
_atom_site_label
_atom_site_fract_x
_atom_site_fract_y
_atom_site_fract_z
Si Si1 0.601764 0.256145 0.638716
Si Si2 0.520546 0.277312 0.002550
Si Si3 0.111744 0.574884 0.252853
Si Si4 0.146680 0.834580 0.381389
Si Si5 0.296271 0.114449 0.412650
O O1 0.514599 0.210954 0.580143
O O2 0.598862 0.477024 0.653344
O O3 0.706305 0.239971 0.595032
O O4 0.604087 0.129950 0.711948
O O5 0.430468 0.247204 0.060745
O O6 0.616171 0.182971 0.035692
O O7 0.533147 0.500000 0.000000
O O8 0.170126 0.696018 0.314371
O O9 0.160141 0.589265 0.171752
O O10 0.000000 0.647897 0.250000
O O11 0.239397 0.919370 0.425882
#
# Coordination Sequence:
#
# PCOD9318725 Si02
#       5
#     8   8   8   8   8
#     4   9  24  43  68 103 142 186 252 290 367 437
#     4  10  20  48  68 105 144 190 242 302 363 438
#     4  12  22  43  69 107 144 189 243 304 355 434
#     4   9  22  43  69  94 147 179 247 298 353 438
#     4  10  22  45  73  99 144 197 234 303 375 411
#
# _framework density 23.018682999999999
#
# number of rings (size 3 to 8) (size 9 to 14) (size 15 to 20)
#    1.200    0.800    2.000    1.200    0.000    1.600 
#   10.800    0.000    4.400    0.000    0.000    0.000 
#    0.000    0.000    0.000    0.000    0.000    0.000 
#
# Total GULP energy -111753.121962 kJ/mol
# GULP energy per Si atom -5587.656098 kJ/mol
# Density = 2.296629 g / cm^3
# Si number density = 23.018683 Si / 1000 Ang^3
#
#
#
# Elastic Constant Matrix: (Units=GPa)
#
#
# Indices 1 2 3 4 5 6 
#
# 1 128.3590 3.3375 26.1648 0.0000 0.0000 0.0000
# 2 3.3375 62.7531 26.2895 0.0000 0.0000 0.0000
# 3 26.1648 26.2895 61.8533 0.0000 0.0000 0.0000
# 4 0.0000 0.0000 0.0000 37.5522 0.0000 0.0000
# 5 0.0000 0.0000 0.0000 0.0000 48.8882 0.0000
# 6 0.0000 0.0000 0.0000 0.0000 0.0000 30.6071
#
#
#
# Elastic Compliance Matrix: (Units=1/GPa)
#
#
# Indices 1 2 3 4 5 6 
#
# 1 0.008612 0.001300 -0.004195 0.000000 0.000000 0.000000
# 2 0.001300 0.019584 -0.008873 0.000000 0.000000 0.000000
# 3 -0.004195 -0.008873 0.021713 0.000000 0.000000 0.000000
# 4 0.000000 0.000000 0.000000 0.026630 0.000000 0.000000
# 5 0.000000 0.000000 0.000000 0.000000 0.020455 0.000000
# 6 0.000000 0.000000 0.000000 0.000000 0.000000 0.032672
#
#
# Mechanical properties :
#
#
# Convention : Reuss Voigt Hill
#
# Bulk Modulus (GPa) = 37.92074 40.50546 39.21310
# Shear Modulus (GPa) = 30.86525 36.55440 33.70983
#
# Velocity S-wave (km/s) = 3.66577 3.98934 3.83097
# Velocity P-wave (km/s) = 5.86744 6.23335 6.05316
#
# Compressibility (1/GPa) = 0.02637079
#
# Stress axis : x y z
#
# Youngs Moduli (GPa) = 116.11639 51.06283 46.05446
#
# Poissons Ratio (x) = -0.06636 0.19322
# Poissons Ratio (y) = -0.15090 0.40866
# Poissons Ratio (z) = 0.48715 0.45310
#
# Static dielectric constant tensor:
#      x y z
#    x 1.861740 0.000000 0.000000 
#    y 0.000000 1.864780 0.000000 
#    z 0.000000 0.000000 1.890410 
# 
# From -- ./inp_files/24058.got.cif
#   From: 2010.05.17/outbox.cif.g08.bks.cpg/sg20_13_cif.got.tgz:24058.got - 2010.06.03 22:52:26.
