data_PCOD9318856
_publ_section_title
;
Structure prediction by ZEFSAII (Michael W. Deem and Ramdas Pophale) SiO2 
 PCOD9318856
Probable space group: C 2 2 21
;
_chemical_formula_sum "Si O2"
_cell_formula_units_Z 48
_cell_length_a 18.472332
_cell_length_b 10.070129
_cell_length_c 15.026759
_cell_angle_alpha 90.000000
_cell_angle_beta 90.000000
_cell_angle_gamma 90.000000
_cell_volume 2795.259169
_symmetry_space_group_name_H-M "C 2 2 21"
_symmetry_group_IT_number 20
_symmetry_cell_setting 'orthorhombic'
loop_
_space_group_symop_operation_xyz
x,y,z
-x,-y,1/2+z
x,-y,-z
-x,y,1/2-z
1/2+x,1/2+y,z
1/2-x,1/2-y,1/2+z
1/2+x,1/2-y,-z
1/2-x,1/2+y,1/2-z
loop_
_atom_site_type_symbol
_atom_site_label
_atom_site_fract_x
_atom_site_fract_y
_atom_site_fract_z
Si Si1 0.540394 0.289021 0.345719
Si Si2 0.680884 0.028756 0.758177
Si Si3 0.322541 0.293128 0.265799
Si Si4 0.591452 0.882943 0.068810
Si Si5 0.093207 0.131814 0.947335
Si Si6 0.541946 0.986352 0.344570
O O1 0.500000 0.290824 0.250000
O O2 0.622133 0.321768 0.316522
O O3 0.490502 0.371903 0.412671
O O4 0.538560 0.136986 0.379523
O O5 0.690645 0.867709 0.766486
O O6 0.752467 0.114911 0.744464
O O7 0.640167 0.085432 0.845408
O O8 0.624046 0.049591 0.677208
O O9 0.361215 0.333621 0.358609
O O10 0.507095 0.891400 0.096879
O O11 0.605050 0.747914 0.018201
O O12 0.605585 0.000000 0.000000
O O13 0.113042 0.000000 0.000000
O O14 0.500000 0.991626 0.250000
#
# Coordination Sequence:
#
# PCOD9318856 Si02
#       6
#     8   8   8   8   8   8
#     4   8  15  34  57  75 102 143 178 218 274 330
#     4  10  21  37  58  83 113 153 187 224 282 346
#     4  10  21  39  58  80 115 154 186 223 281 348
#     4  11  18  36  61  80 105 144 190 237 279 328
#     4  11  22  36  57  86 112 140 190 244 284 318
#     4   8  15  32  57  79  99 137 189 219 260 334
#
# _framework density 17.171932999999999
#
# number of rings (size 3 to 8) (size 9 to 14) (size 15 to 20)
#    0.000    2.333    3.333    2.000    2.333    0.000 
#    3.000    5.833    0.000    0.000    0.000    0.000 
#    0.000    0.000    0.000    0.000    0.000    0.000 
#
# Total GULP energy -133607.957942 kJ/mol
# GULP energy per Si atom -5566.998248 kJ/mol
# Density = 1.713285 g / cm^3
# Si number density = 17.171933 Si / 1000 Ang^3
#
#
#
# Elastic Constant Matrix: (Units=GPa)
#
#
# Indices 1 2 3 4 5 6 
#
# 1 123.3956 54.3212 28.5589 0.0000 0.0000 0.0000
# 2 54.3212 115.0034 42.9534 0.0000 0.0000 0.0000
# 3 28.5589 42.9534 65.0261 0.0000 0.0000 0.0000
# 4 0.0000 0.0000 0.0000 23.9500 0.0000 0.0000
# 5 0.0000 0.0000 0.0000 0.0000 21.3760 0.0000
# 6 0.0000 0.0000 0.0000 0.0000 0.0000 76.3664
#
#
#
# Elastic Compliance Matrix: (Units=1/GPa)
#
#
# Indices 1 2 3 4 5 6 
#
# 1 0.010380 -0.004248 -0.001752 0.000000 0.000000 0.000000
# 2 -0.004248 0.013282 -0.006908 0.000000 0.000000 0.000000
# 3 -0.001752 -0.006908 0.020711 0.000000 0.000000 0.000000
# 4 0.000000 0.000000 0.000000 0.041754 0.000000 0.000000
# 5 0.000000 0.000000 0.000000 0.000000 0.046782 0.000000
# 6 0.000000 0.000000 0.000000 0.000000 0.000000 0.013095
#
#
# Mechanical properties :
#
#
# Convention : Reuss Voigt Hill
#
# Bulk Modulus (GPa) = 53.89118 61.67689 57.78404
# Shear Modulus (GPa) = 28.08906 36.17792 32.13349
#
# Velocity S-wave (km/s) = 4.04883 4.59497 4.33052
# Velocity P-wave (km/s) = 7.30129 8.00918 7.66341
#
# Compressibility (1/GPa) = 0.01855591
#
# Stress axis : x y z
#
# Youngs Moduli (GPa) = 96.34107 75.28944 48.28330
#
# Poissons Ratio (x) = 0.31985 0.08462
# Poissons Ratio (y) = 0.40928 0.33353
# Poissons Ratio (z) = 0.16884 0.52008
#
# Static dielectric constant tensor:
#      x y z
#    x 1.619650 0.000000 0.000000 
#    y 0.000000 1.540240 0.000000 
#    z 0.000000 0.000000 1.583400 
# 
# From -- ./inp_files/19014.got.cif
#   From: 2010.05.17/outbox.cif.g08.bks.cpg/sg20_10_cif.got.tgz:19014.got - 2010.06.03 22:52:26.
