data_PCOD9318466
_publ_section_title
;
Structure prediction by ZEFSAII (Michael W. Deem and Ramdas Pophale) SiO2 
 PCOD9318466
Probable space group: C 2 2 21
;
_chemical_formula_sum "Si O2"
_cell_formula_units_Z 48
_cell_length_a 8.281669
_cell_length_b 32.147521
_cell_length_c 8.261191
_cell_angle_alpha 90.000000
_cell_angle_beta 90.000000
_cell_angle_gamma 90.000000
_cell_volume 2199.419244
_symmetry_space_group_name_H-M "C 2 2 21"
_symmetry_group_IT_number 20
_symmetry_cell_setting 'orthorhombic'
loop_
_space_group_symop_operation_xyz
x,y,z
-x,-y,1/2+z
x,-y,-z
-x,y,1/2-z
1/2+x,1/2+y,z
1/2-x,1/2-y,1/2+z
1/2+x,1/2-y,-z
1/2-x,1/2+y,1/2-z
loop_
_atom_site_type_symbol
_atom_site_label
_atom_site_fract_x
_atom_site_fract_y
_atom_site_fract_z
Si Si1 0.319583 0.883139 0.195838
Si Si2 0.802545 0.134985 0.048188
Si Si3 0.113680 0.297949 0.497576
Si Si4 0.000000 0.603667 0.250000
Si Si5 0.218313 0.453740 0.534292
Si Si6 0.000000 0.930455 0.750000
Si Si7 0.236538 0.717657 0.140422
O O1 0.500000 0.895587 0.250000
O O2 0.229073 0.870264 0.359182
O O3 0.343658 0.843356 0.076087
O O4 0.238722 0.923497 0.114910
O O5 0.636788 0.129130 0.154095
O O6 0.859370 0.181661 0.083906
O O7 0.917974 0.100008 0.119532
O O8 0.189561 0.290764 0.674507
O O9 0.189274 0.262863 0.383006
O O10 0.922991 0.289128 0.527183
O O11 0.083914 0.573838 0.378249
O O12 0.160573 0.500000 0.500000
O O13 0.367138 0.456919 0.657505
#
# Coordination Sequence:
#
# PCOD9318466 Si02
#       7
#     8   8   8   4   8   4   8
#     4  12  23  42  71  99 132 176 227 286 334 398
#     4  11  22  42  69  96 135 176 222 268 340 393
#     4  11  24  40  64  96 134 172 226 274 344 384
#     4  10  20  40  68  96 132 174 222 272 328 408
#     4  11  25  43  69 101 135 175 227 278 346 407
#     4  10  26  46  64  98 138 182 208 278 352 418
#     4  11  23  40  63  95 133 176 221 281 321 408
#
# _framework density 21.823941000000001
#
# number of rings (size 3 to 8) (size 9 to 14) (size 15 to 20)
#    0.000    1.000    3.333    4.000    1.167    4.667 
#    0.000    3.333    0.000    0.000    0.000    0.000 
#    0.000    0.000    0.000    0.000    0.000    0.000 
#
# Total GULP energy -134240.394099 kJ/mol
# GULP energy per Si atom -5593.349754 kJ/mol
# Density = 2.177427 g / cm^3
# Si number density = 21.823941 Si / 1000 Ang^3
#
#
#
# Elastic Constant Matrix: (Units=GPa)
#
#
# Indices 1 2 3 4 5 6 
#
# 1 27.2018 5.7997 7.8477 0.0000 0.0000 0.0000
# 2 5.7997 131.8839 38.5303 0.0000 0.0000 0.0000
# 3 7.8477 38.5303 111.2688 0.0000 0.0000 0.0000
# 4 0.0000 0.0000 0.0000 11.7840 0.0000 0.0000
# 5 0.0000 0.0000 0.0000 0.0000 28.7191 0.0000
# 6 0.0000 0.0000 0.0000 0.0000 0.0000 0.6673
#
#
#
# Elastic Compliance Matrix: (Units=1/GPa)
#
#
# Indices 1 2 3 4 5 6 
#
# 1 0.037639 -0.000979 -0.002316 0.000000 0.000000 0.000000
# 2 -0.000979 0.008461 -0.002861 0.000000 0.000000 0.000000
# 3 -0.002316 -0.002861 0.010141 0.000000 0.000000 0.000000
# 4 0.000000 0.000000 0.000000 0.084861 0.000000 0.000000
# 5 0.000000 0.000000 0.000000 0.000000 0.034820 0.000000
# 6 0.000000 0.000000 0.000000 0.000000 0.000000 1.498477
#
#
# Mechanical properties :
#
#
# Convention : Reuss Voigt Hill
#
# Bulk Modulus (GPa) = 22.76302 41.63441 32.19871
# Shear Modulus (GPa) = 2.93884 22.77920 12.85902
#
# Velocity S-wave (km/s) = 1.16169 3.23425 2.43001
# Velocity P-wave (km/s) = 3.50033 5.75030 4.76016
#
# Compressibility (1/GPa) = 0.04393091
#
# Stress axis : x y z
#
# Youngs Moduli (GPa) = 26.56813 118.18510 98.60696
#
# Poissons Ratio (x) = 0.11566 0.22835
# Poissons Ratio (y) = 0.02600 0.28211
# Poissons Ratio (z) = 0.06153 0.33812
#
# Static dielectric constant tensor:
#      x y z
#    x 1.827560 0.000000 0.000000 
#    y 0.000000 1.741090 0.000000 
#    z 0.000000 0.000000 1.849830 
# 
# From -- ./inp_files/6587.got.cif
#   From: 2010.05.17/outbox.cif.g08.bks.cpg/sg20_4_cif.got.tgz:6587.got - 2010.06.03 22:52:26.
