data_PCOD9318362
_publ_section_title
;
Structure prediction by ZEFSAII (Michael W. Deem and Ramdas Pophale) SiO2 
 PCOD9318362
Probable space group: C 2 2 21
;
_chemical_formula_sum "Si O2"
_cell_formula_units_Z 48
_cell_length_a 16.876170
_cell_length_b 11.883274
_cell_length_c 12.323997
_cell_angle_alpha 90.000000
_cell_angle_beta 90.000000
_cell_angle_gamma 90.000000
_cell_volume 2471.505530
_symmetry_space_group_name_H-M "C 2 2 21"
_symmetry_group_IT_number 20
_symmetry_cell_setting 'orthorhombic'
loop_
_space_group_symop_operation_xyz
x,y,z
-x,-y,1/2+z
x,-y,-z
-x,y,1/2-z
1/2+x,1/2+y,z
1/2-x,1/2-y,1/2+z
1/2+x,1/2-y,-z
1/2-x,1/2+y,1/2-z
loop_
_atom_site_type_symbol
_atom_site_label
_atom_site_fract_x
_atom_site_fract_y
_atom_site_fract_z
Si Si1 0.861357 0.096240 0.370743
Si Si2 0.941496 0.870222 0.403859
Si Si3 0.175517 0.742430 0.680753
Si Si4 0.650156 0.765541 0.739095
Si Si5 0.678842 0.988278 0.625823
Si Si6 0.624975 0.372941 0.467507
O O1 0.885738 0.139507 0.489768
O O2 0.865632 0.191450 0.279710
O O3 0.772053 0.047145 0.371865
O O4 0.919206 0.990642 0.350926
O O5 0.918704 0.776932 0.317155
O O6 0.031375 0.870197 0.442243
O O7 0.268893 0.768506 0.692640
O O8 0.166287 0.608373 0.681564
O O9 0.144992 0.792632 0.567852
O O10 0.635272 0.885697 0.684596
O O11 0.664100 0.676241 0.641490
O O12 0.656092 0.000000 0.500000
O O13 0.647894 0.500000 0.500000
#
# Coordination Sequence:
#
# PCOD9318362 Si02
#       6
#     8   8   8   8   8   8
#     4  10  20  39  68  95 134 166 213 273 334 376
#     4  11  21  43  66  95 132 173 210 278 346 378
#     4  11  24  39  65 100 129 173 224 268 321 394
#     4  11  24  39  67  96 135 171 220 268 330 390
#     4  11  19  41  65  92 129 181 217 260 325 386
#     4  12  25  40  68 102 124 164 226 277 327 393
#
# _framework density 19.42136
#
# number of rings (size 3 to 8) (size 9 to 14) (size 15 to 20)
#    0.000    1.000    6.667    1.500    4.667    0.667 
#    0.000    0.833   11.000    0.000    0.000    0.000 
#    0.000    0.000    0.000    0.000    0.000    0.000 
#
# Total GULP energy -134156.250328 kJ/mol
# GULP energy per Si atom -5589.843764 kJ/mol
# Density = 1.937716 g / cm^3
# Si number density = 19.421360 Si / 1000 Ang^3
#
#
#
# Elastic Constant Matrix: (Units=GPa)
#
#
# Indices 1 2 3 4 5 6 
#
# 1 50.5259 35.4275 32.2476 0.0000 0.0000 0.0000
# 2 35.4275 133.4587 68.6723 0.0000 0.0000 0.0000
# 3 32.2476 68.6723 89.5898 0.0000 0.0000 0.0000
# 4 0.0000 0.0000 0.0000 46.0453 0.0000 0.0000
# 5 0.0000 0.0000 0.0000 0.0000 37.7905 0.0000
# 6 0.0000 0.0000 0.0000 0.0000 0.0000 17.2187
#
#
#
# Elastic Compliance Matrix: (Units=1/GPa)
#
#
# Indices 1 2 3 4 5 6 
#
# 1 0.026667 -0.003534 -0.006890 0.000000 0.000000 0.000000
# 2 -0.003534 0.012841 -0.008571 0.000000 0.000000 0.000000
# 3 -0.006890 -0.008571 0.020212 0.000000 0.000000 0.000000
# 4 0.000000 0.000000 0.000000 0.021718 0.000000 0.000000
# 5 0.000000 0.000000 0.000000 0.000000 0.026462 0.000000
# 6 0.000000 0.000000 0.000000 0.000000 0.000000 0.058076
#
#
# Mechanical properties :
#
#
# Convention : Reuss Voigt Hill
#
# Bulk Modulus (GPa) = 46.01821 60.69658 53.35739
# Shear Modulus (GPa) = 23.67314 29.35938 26.51626
#
# Velocity S-wave (km/s) = 3.49510 3.89228 3.69902
# Velocity P-wave (km/s) = 6.32722 7.17775 6.76586
#
# Compressibility (1/GPa) = 0.02173053
#
# Stress axis : x y z
#
# Youngs Moduli (GPa) = 37.49949 77.87324 49.47519
#
# Poissons Ratio (x) = 0.27517 0.34089
# Poissons Ratio (y) = 0.13251 0.42407
# Poissons Ratio (z) = 0.25838 0.66747
#
# Static dielectric constant tensor:
#      x y z
#    x 1.678120 0.000000 0.000000 
#    y 0.000000 1.683450 0.000000 
#    z 0.000000 0.000000 1.681870 
# 
# From -- ./inp_files/14124.got.cif
#   From: 2010.05.17/outbox.cif.g08.bks.cpg/sg20_8_cif.got.tgz:14124.got - 2010.06.03 22:52:26.
