data_PCOD9318592
_publ_section_title
;
Structure prediction by ZEFSAII (Michael W. Deem and Ramdas Pophale) SiO2 
 PCOD9318592
Probable space group: C 2 2 21
;
_chemical_formula_sum "Si O2"
_cell_formula_units_Z 56
_cell_length_a 11.385962
_cell_length_b 14.885369
_cell_length_c 13.548508
_cell_angle_alpha 90.000000
_cell_angle_beta 90.000000
_cell_angle_gamma 90.000000
_cell_volume 2296.258660
_symmetry_space_group_name_H-M "C 2 2 21"
_symmetry_group_IT_number 20
_symmetry_cell_setting 'orthorhombic'
loop_
_space_group_symop_operation_xyz
x,y,z
-x,-y,1/2+z
x,-y,-z
-x,y,1/2-z
1/2+x,1/2+y,z
1/2-x,1/2-y,1/2+z
1/2+x,1/2-y,-z
1/2-x,1/2+y,1/2-z
loop_
_atom_site_type_symbol
_atom_site_label
_atom_site_fract_x
_atom_site_fract_y
_atom_site_fract_z
Si Si1 0.301743 0.521126 0.615109
Si Si2 0.500000 0.482112 0.250000
Si Si3 0.962843 0.762427 0.522997
Si Si4 0.680204 0.233589 0.797838
Si Si5 0.123874 0.860784 0.396466
Si Si6 0.226766 0.272957 0.413965
Si Si7 0.280602 0.000000 0.500000
Si Si8 0.372055 0.018857 0.714922
O O1 0.285784 0.500000 0.500000
O O2 0.426745 0.483861 0.656088
O O3 0.271081 0.627565 0.614285
O O4 0.211943 0.483620 0.697839
O O5 0.599289 0.422360 0.302714
O O6 0.914396 0.780100 0.632150
O O7 0.840712 0.729931 0.469921
O O8 0.003202 0.839875 0.449503
O O9 0.094566 0.718240 0.537488
O O10 0.804845 0.223558 0.853437
O O11 0.699440 0.274072 0.690588
O O12 0.637351 0.128733 0.791762
O O13 0.197925 0.916057 0.475348
O O14 0.349096 0.012893 0.397264
O O15 0.500000 0.994489 0.750000
#
# Coordination Sequence:
#
# PCOD9318592 Si02
#       8
#     8   4   8   8   8   8   4   8
#     4  11  24  41  68  99 128 172 227 275 327 404
#     4  12  20  40  68  96 124 178 216 266 334 410
#     4  12  22  39  68  96 126 165 224 274 321 396
#     4  10  20  42  66  91 124 171 225 260 322 398
#     4  11  21  39  68  94 124 169 216 267 333 400
#     4  11  23  41  66  96 129 172 218 271 331 399
#     4  10  22  40  68  98 130 172 214 270 338 406
#     4  10  21  41  66  95 125 176 221 268 327 399
#
# _framework density 24.387498000000001
#
# number of rings (size 3 to 8) (size 9 to 14) (size 15 to 20)
#    0.000    1.143    7.143    2.143    2.000    0.000 
#    0.000    2.857    3.143    0.000    0.000    0.000 
#    0.000    0.000    0.000    0.000    0.000    0.000 
#
# Total GULP energy -155912.364048 kJ/mol
# GULP energy per Si atom -5568.298716 kJ/mol
# Density = 2.433199 g / cm^3
# Si number density = 24.387498 Si / 1000 Ang^3
#
#
#
# Elastic Constant Matrix: (Units=GPa)
#
#
# Indices 1 2 3 4 5 6 
#
# 1 200.6188 18.1812 97.2698 0.0000 0.0000 0.0000
# 2 18.1812 32.0623 10.7598 0.0000 0.0000 0.0000
# 3 97.2698 10.7598 202.9778 0.0000 0.0000 0.0000
# 4 0.0000 0.0000 0.0000 19.4014 0.0000 0.0000
# 5 0.0000 0.0000 0.0000 0.0000 54.5886 0.0000
# 6 0.0000 0.0000 0.0000 0.0000 0.0000 9.4828
#
#
#
# Elastic Compliance Matrix: (Units=1/GPa)
#
#
# Indices 1 2 3 4 5 6 
#
# 1 0.006729 -0.002783 -0.003077 0.000000 0.000000 0.000000
# 2 -0.002783 0.032905 -0.000411 0.000000 0.000000 0.000000
# 3 -0.003077 -0.000411 0.006423 0.000000 0.000000 0.000000
# 4 0.000000 0.000000 0.000000 0.051543 0.000000 0.000000
# 5 0.000000 0.000000 0.000000 0.000000 0.018319 0.000000
# 6 0.000000 0.000000 0.000000 0.000000 0.000000 0.105454
#
#
# Mechanical properties :
#
#
# Convention : Reuss Voigt Hill
#
# Bulk Modulus (GPa) = 29.83683 76.45339 53.14511
# Shear Modulus (GPa) = 20.40109 37.32443 28.86276
#
# Velocity S-wave (km/s) = 2.89544 3.91637 3.44395
# Velocity P-wave (km/s) = 4.84139 7.20195 6.13625
#
# Compressibility (1/GPa) = 0.03351562
#
# Stress axis : x y z
#
# Youngs Moduli (GPa) = 148.61860 30.39039 155.69225
#
# Poissons Ratio (x) = 0.08457 0.47905
# Poissons Ratio (y) = 0.41360 0.06394
# Poissons Ratio (z) = 0.45729 0.01248
#
# Static dielectric constant tensor:
#      x y z
#    x 1.990810 0.000000 0.000000 
#    y 0.000000 2.022370 0.000000 
#    z 0.000000 0.000000 2.362110 
# 
# From -- ./inp_files/14361.got.cif
#   From: 2010.05.17/outbox.cif.g08.bks.cpg/sg20_8_cif.got.tgz:14361.got - 2010.06.03 22:52:26.
