data_PCOD9318593
_publ_section_title
;
Structure prediction by ZEFSAII (Michael W. Deem and Ramdas Pophale) SiO2 
 PCOD9318593
Probable space group: C 2 2 21
;
_chemical_formula_sum "Si O2"
_cell_formula_units_Z 36
_cell_length_a 11.119649
_cell_length_b 11.257208
_cell_length_c 11.441000
_cell_angle_alpha 90.000000
_cell_angle_beta 90.000000
_cell_angle_gamma 90.000000
_cell_volume 1432.140923
_symmetry_space_group_name_H-M "C 2 2 21"
_symmetry_group_IT_number 20
_symmetry_cell_setting 'orthorhombic'
loop_
_space_group_symop_operation_xyz
x,y,z
-x,-y,1/2+z
x,-y,-z
-x,y,1/2-z
1/2+x,1/2+y,z
1/2-x,1/2-y,1/2+z
1/2+x,1/2-y,-z
1/2-x,1/2+y,1/2-z
loop_
_atom_site_type_symbol
_atom_site_label
_atom_site_fract_x
_atom_site_fract_y
_atom_site_fract_z
Si Si1 0.235090 0.268648 0.642424
Si Si2 0.011733 0.189363 0.912266
Si Si3 0.338140 0.893688 0.559328
Si Si4 0.303120 0.500000 0.500000
Si Si5 0.396979 0.359155 0.835851
O O1 0.298865 0.196086 0.540809
O O2 0.232941 0.404324 0.584723
O O3 0.321076 0.268430 0.755304
O O4 0.112274 0.194976 0.658076
O O5 0.075161 0.310198 0.870736
O O6 0.106138 0.081287 0.921122
O O7 0.960253 0.191652 0.047984
O O8 0.215632 0.938251 0.620204
O O9 0.406703 0.000000 0.500000
O O10 0.500000 0.406979 0.750000
#
# Coordination Sequence:
#
# PCOD9318593 Si02
#       5
#     8   8   8   4   8
#     4  10  23  41  65  99 129 169 235 267 341 402
#     4  10  23  44  67  92 138 171 222 281 338 397
#     4  10  23  42  65  94 131 174 216 281 342 390
#     4  10  20  42  66  94 130 186 208 284 340 386
#     4  11  21  42  66  94 131 175 223 272 337 406
#
# _framework density 25.13719
#
# number of rings (size 3 to 8) (size 9 to 14) (size 15 to 20)
#    0.000    1.778    4.444    0.000    7.778    0.889 
#   12.000    8.889    0.000    0.000    0.000    0.000 
#    0.000    0.000    0.000    0.000    0.000    0.000 
#
# Total GULP energy -100245.923104 kJ/mol
# GULP energy per Si atom -5569.217950 kJ/mol
# Density = 2.507998 g / cm^3
# Si number density = 25.137190 Si / 1000 Ang^3
#
#
#
# Elastic Constant Matrix: (Units=GPa)
#
#
# Indices 1 2 3 4 5 6 
#
# 1 71.9944 20.1526 -11.0761 0.0000 0.0000 0.0000
# 2 20.1526 121.8966 8.0726 0.0000 0.0000 0.0000
# 3 -11.0761 8.0726 99.2099 0.0000 0.0000 0.0000
# 4 0.0000 0.0000 0.0000 16.9784 0.0000 0.0000
# 5 0.0000 0.0000 0.0000 0.0000 24.1424 0.0000
# 6 0.0000 0.0000 0.0000 0.0000 0.0000 4.7934
#
#
#
# Elastic Compliance Matrix: (Units=1/GPa)
#
#
# Indices 1 2 3 4 5 6 
#
# 1 0.014903 -0.002588 0.001874 0.000000 0.000000 0.000000
# 2 -0.002588 0.008698 -0.000997 0.000000 0.000000 0.000000
# 3 0.001874 -0.000997 0.010370 0.000000 0.000000 0.000000
# 4 0.000000 0.000000 0.000000 0.058898 0.000000 0.000000
# 5 0.000000 0.000000 0.000000 0.000000 0.041421 0.000000
# 6 0.000000 0.000000 0.000000 0.000000 0.000000 0.208619
#
#
# Mechanical properties :
#
#
# Convention : Reuss Voigt Hill
#
# Bulk Modulus (GPa) = 32.73338 36.37768 34.55553
# Shear Modulus (GPa) = 14.02476 27.57964 20.80220
#
# Velocity S-wave (km/s) = 2.36461 3.31594 2.87983
# Velocity P-wave (km/s) = 4.52828 5.40034 4.98343
#
# Compressibility (1/GPa) = 0.03054986
#
# Stress axis : x y z
#
# Youngs Moduli (GPa) = 67.10177 114.97522 96.43211
#
# Poissons Ratio (x) = 0.29755 -0.18075
# Poissons Ratio (y) = 0.17365 0.09611
# Poissons Ratio (z) = -0.12577 0.11459
#
# Static dielectric constant tensor:
#      x y z
#    x 2.052060 0.000000 0.000000 
#    y 0.000000 2.012900 0.000000 
#    z 0.000000 0.000000 2.098300 
# 
# From -- ./inp_files/13696.got.cif
#   From: 2010.05.17/outbox.cif.g08.bks.cpg/sg20_7_cif.got.tgz:13696.got - 2010.06.03 22:52:26.
