data_PCOD9318757
_publ_section_title
;
Structure prediction by ZEFSAII (Michael W. Deem and Ramdas Pophale) SiO2 
 PCOD9318757
Probable space group: C 2 2 21
;
_chemical_formula_sum "Si O2"
_cell_formula_units_Z 48
_cell_length_a 25.074511
_cell_length_b 8.215373
_cell_length_c 11.925018
_cell_angle_alpha 90.000000
_cell_angle_beta 90.000000
_cell_angle_gamma 90.000000
_cell_volume 2456.511501
_symmetry_space_group_name_H-M "C 2 2 21"
_symmetry_group_IT_number 20
_symmetry_cell_setting 'orthorhombic'
loop_
_space_group_symop_operation_xyz
x,y,z
-x,-y,1/2+z
x,-y,-z
-x,y,1/2-z
1/2+x,1/2+y,z
1/2-x,1/2-y,1/2+z
1/2+x,1/2-y,-z
1/2-x,1/2+y,1/2-z
loop_
_atom_site_type_symbol
_atom_site_label
_atom_site_fract_x
_atom_site_fract_y
_atom_site_fract_z
Si Si1 0.352271 0.767259 0.594080
Si Si2 0.562448 0.330968 0.265185
Si Si3 0.161333 0.642229 0.846363
Si Si4 0.135574 0.329173 0.562376
Si Si5 0.284989 0.648873 0.787269
Si Si6 0.370273 0.376083 0.841787
O O1 0.404303 0.686196 0.649509
O O2 0.346292 0.756851 0.461234
O O3 0.301784 0.692237 0.660497
O O4 0.355102 0.958001 0.626567
O O5 0.500000 0.316259 0.250000
O O6 0.587238 0.197267 0.350395
O O7 0.580891 0.503041 0.317482
O O8 0.223225 0.637096 0.811266
O O9 0.130207 0.728201 0.746007
O O10 0.137121 0.500000 0.500000
O O11 0.188085 0.288479 0.635236
O O12 0.130697 0.193862 0.465934
O O13 0.317246 0.484902 0.819101
#
# Coordination Sequence:
#
# PCOD9318757 Si02
#       6
#     8   8   8   8   8   8
#     4   9  22  39  54  89 123 157 198 241 289 350
#     4  10  22  45  63  83 116 153 200 259 305 347
#     4  11  21  36  59  88 129 157 189 242 290 351
#     4  10  21  40  62  92 118 153 205 241 284 361
#     4  10  21  34  59  87 126 165 191 232 282 353
#     4  10  21  38  60  91 116 155 202 241 286 356
#
# _framework density 19.539905000000001
#
# number of rings (size 3 to 8) (size 9 to 14) (size 15 to 20)
#    0.000    2.333    0.000    5.000    7.000    2.667 
#   12.000    1.667    0.000    0.000    0.000    0.000 
#    0.000    0.000    0.000    0.000    0.000    0.000 
#
# Total GULP energy -134074.386059 kJ/mol
# GULP energy per Si atom -5586.432752 kJ/mol
# Density = 1.949543 g / cm^3
# Si number density = 19.539905 Si / 1000 Ang^3
#
#
#
# Elastic Constant Matrix: (Units=GPa)
#
#
# Indices 1 2 3 4 5 6 
#
# 1 43.4107 -2.0749 2.8421 0.0000 0.0000 0.0000
# 2 -2.0749 39.8281 -14.2341 0.0000 0.0000 0.0000
# 3 2.8421 -14.2341 94.4256 0.0000 0.0000 0.0000
# 4 0.0000 0.0000 0.0000 43.2575 0.0000 0.0000
# 5 0.0000 0.0000 0.0000 0.0000 9.2436 0.0000
# 6 0.0000 0.0000 0.0000 0.0000 0.0000 4.0054
#
#
#
# Elastic Compliance Matrix: (Units=1/GPa)
#
#
# Indices 1 2 3 4 5 6 
#
# 1 0.023120 0.001010 -0.000544 0.000000 0.000000 0.000000
# 2 0.001010 0.026582 0.003977 0.000000 0.000000 0.000000
# 3 -0.000544 0.003977 0.011206 0.000000 0.000000 0.000000
# 4 0.000000 0.000000 0.000000 0.023117 0.000000 0.000000
# 5 0.000000 0.000000 0.000000 0.000000 0.108182 0.000000
# 6 0.000000 0.000000 0.000000 0.000000 0.000000 0.249665
#
#
# Mechanical properties :
#
#
# Convention : Reuss Voigt Hill
#
# Bulk Modulus (GPa) = 14.32787 16.74784 15.53785
# Shear Modulus (GPa) = 10.95889 24.04339 17.50114
#
# Velocity S-wave (km/s) = 2.37079 3.51162 2.99601
# Velocity P-wave (km/s) = 3.85263 5.00317 4.46511
#
# Compressibility (1/GPa) = 0.06979403
#
# Stress axis : x y z
#
# Youngs Moduli (GPa) = 43.25318 37.61978 89.23660
#
# Poissons Ratio (x) = -0.03800 0.04851
# Poissons Ratio (y) = -0.04369 -0.35486
# Poissons Ratio (z) = 0.02351 -0.14960
#
# Static dielectric constant tensor:
#      x y z
#    x 1.640410 0.000000 0.000000 
#    y 0.000000 1.736060 0.000000 
#    z 0.000000 0.000000 1.687140 
# 
# From -- ./inp_files/16968.got.cif
#   From: 2010.05.17/outbox.cif.g08.bks.cpg/sg20_9_cif.got.tgz:16968.got - 2010.06.03 22:52:26.
