data_PCOD9318154
_publ_section_title
;
Structure prediction by ZEFSAII (Michael W. Deem and Ramdas Pophale) SiO2 
 PCOD9318154
Probable space group: C 2 2 21
;
_chemical_formula_sum "Si O2"
_cell_formula_units_Z 40
_cell_length_a 11.314161
_cell_length_b 7.825526
_cell_length_c 19.082373
_cell_angle_alpha 90.000000
_cell_angle_beta 90.000000
_cell_angle_gamma 90.000000
_cell_volume 1689.539205
_symmetry_space_group_name_H-M "C 2 2 21"
_symmetry_group_IT_number 20
_symmetry_cell_setting 'orthorhombic'
loop_
_space_group_symop_operation_xyz
x,y,z
-x,-y,1/2+z
x,-y,-z
-x,y,1/2-z
1/2+x,1/2+y,z
1/2-x,1/2-y,1/2+z
1/2+x,1/2-y,-z
1/2-x,1/2+y,1/2-z
loop_
_atom_site_type_symbol
_atom_site_label
_atom_site_fract_x
_atom_site_fract_y
_atom_site_fract_z
Si Si1 0.343437 0.835941 0.820362
Si Si2 0.879758 0.820643 0.617839
Si Si3 0.907504 0.050319 0.924498
Si Si4 0.896132 0.680385 0.472612
Si Si5 0.887243 0.448296 0.668862
O O1 0.227840 0.930137 0.851044
O O2 0.346368 0.650973 0.859878
O O3 0.337975 0.853250 0.736726
O O4 0.472287 0.911275 0.836389
O O5 0.836928 0.765450 0.539982
O O6 0.885642 0.653408 0.666847
O O7 0.008015 0.903726 0.608227
O O8 0.003021 0.187862 0.952289
O O9 0.847779 0.000000 0.000000
O O10 0.946858 0.500000 0.500000
O O11 0.829181 0.630355 0.401421
#
# Coordination Sequence:
#
# PCOD9318154 Si02
#       5
#     8   8   8   8   8
#     4  10  21  38  60  87 122 162 194 242 316 355
#     4  10  20  38  62  85 115 158 201 242 294 355
#     4   9  19  37  60  90 119 150 207 256 283 355
#     4   8  16  35  58  82 120 154 186 245 295 339
#     4   9  20  38  56  85 124 152 193 251 296 357
#
# _framework density 23.675094999999999
#
# number of rings (size 3 to 8) (size 9 to 14) (size 15 to 20)
#    0.000    2.800    0.000    0.000    0.000    7.200 
#    0.000   48.000    0.000    0.000    0.000    0.000 
#    0.000    0.000    0.000    0.000    0.000    0.000 
#
# Total GULP energy -111405.313542 kJ/mol
# GULP energy per Si atom -5570.265677 kJ/mol
# Density = 2.362121 g / cm^3
# Si number density = 23.675095 Si / 1000 Ang^3
#
#
#
# Elastic Constant Matrix: (Units=GPa)
#
#
# Indices 1 2 3 4 5 6 
#
# 1 56.6588 12.9685 30.3757 0.0000 0.0000 0.0000
# 2 12.9685 79.3537 45.4530 0.0000 0.0000 0.0000
# 3 30.3757 45.4530 158.0962 0.0000 0.0000 0.0000
# 4 0.0000 0.0000 0.0000 38.7304 0.0000 0.0000
# 5 0.0000 0.0000 0.0000 0.0000 730.8257 0.0000
# 6 0.0000 0.0000 0.0000 0.0000 0.0000 19.0226
#
#
#
# Elastic Compliance Matrix: (Units=1/GPa)
#
#
# Indices 1 2 3 4 5 6 
#
# 1 0.019782 -0.001264 -0.003437 0.000000 0.000000 0.000000
# 2 -0.001264 0.015167 -0.004118 0.000000 0.000000 0.000000
# 3 -0.003437 -0.004118 0.008170 0.000000 0.000000 0.000000
# 4 0.000000 0.000000 0.000000 0.025819 0.000000 0.000000
# 5 0.000000 0.000000 0.000000 0.000000 0.001368 0.000000
# 6 0.000000 0.000000 0.000000 0.000000 0.000000 0.052569
#
#
# Mechanical properties :
#
#
# Convention : Reuss Voigt Hill
#
# Bulk Modulus (GPa) = 39.24625 52.41145 45.82885
# Shear Modulus (GPa) = 33.55564 171.40319 102.47942
#
# Velocity S-wave (km/s) = 3.76884 8.51794 6.58633
# Velocity P-wave (km/s) = 5.96254 10.90533 8.78858
#
# Compressibility (1/GPa) = 0.02548014
#
# Stress axis : x y z
#
# Youngs Moduli (GPa) = 50.55192 65.93294 122.40612
#
# Poissons Ratio (x) = 0.08334 0.42075
# Poissons Ratio (y) = 0.06390 0.50403
# Poissons Ratio (z) = 0.17376 0.27149
#
# Static dielectric constant tensor:
#      x y z
#    x 2.001560 0.000000 0.000000 
#    y 0.000000 1.044890 0.000000 
#    z 0.000000 0.000000 2.255500 
# 
# From -- ./inp_files/27085.got.cif
#   From: 2010.05.17/outbox.cif.g08.bks.cpg/sg20_14_cif.got.tgz:27085.got - 2010.06.03 22:52:26.
