data_PCOD9318507
_publ_section_title
;
Structure prediction by ZEFSAII (Michael W. Deem and Ramdas Pophale) SiO2 
 PCOD9318507
Probable space group: C 2 2 21
;
_chemical_formula_sum "Si O2"
_cell_formula_units_Z 60
_cell_length_a 17.581261
_cell_length_b 13.026165
_cell_length_c 11.895216
_cell_angle_alpha 90.000000
_cell_angle_beta 90.000000
_cell_angle_gamma 90.000000
_cell_volume 2724.199625
_symmetry_space_group_name_H-M "C 2 2 21"
_symmetry_group_IT_number 20
_symmetry_cell_setting 'orthorhombic'
loop_
_space_group_symop_operation_xyz
x,y,z
-x,-y,1/2+z
x,-y,-z
-x,y,1/2-z
1/2+x,1/2+y,z
1/2-x,1/2-y,1/2+z
1/2+x,1/2-y,-z
1/2-x,1/2+y,1/2-z
loop_
_atom_site_type_symbol
_atom_site_label
_atom_site_fract_x
_atom_site_fract_y
_atom_site_fract_z
Si Si1 0.971056 0.500000 0.000000
Si Si2 0.678759 0.317991 0.618537
Si Si3 0.278109 0.685626 0.879633
Si Si4 0.031319 0.303561 0.370274
Si Si5 0.714170 0.087036 0.305545
Si Si6 0.217303 0.884287 0.130425
Si Si7 0.624191 0.750814 0.010850
Si Si8 0.069521 0.392145 0.817606
O O1 0.935418 0.395179 0.049609
O O2 0.026353 0.531656 0.100858
O O3 0.685228 0.360309 0.491961
O O4 0.594012 0.284216 0.648842
O O5 0.723835 0.386207 0.708791
O O6 0.724370 0.209986 0.614418
O O7 0.302175 0.804317 0.863968
O O8 0.300184 0.629052 0.764584
O O9 0.187393 0.697382 0.907245
O O10 0.957914 0.257030 0.433525
O O11 0.000000 0.341085 0.250000
O O12 0.632431 0.053383 0.257858
O O13 0.746879 0.995708 0.378187
O O14 0.153293 0.857596 0.037973
O O15 0.616978 0.816473 0.896402
O O16 0.000000 0.340329 0.750000
#
# Coordination Sequence:
#
# PCOD9318507 Si02
#       8
#     4   8   8   8   8   8   8   8
#     4  10  26  34  60 100 134 172 210 258 336 406
#     4  10  23  40  60  97 122 173 219 265 331 396
#     4  10  20  41  61  90 126 168 217 262 333 388
#     4  11  23  40  64  89 138 174 215 266 334 404
#     4  11  23  39  67  94 130 169 221 277 326 406
#     4  10  22  38  66  92 130 168 220 272 330 391
#     4  10  22  42  61  94 127 180 214 275 329 389
#     4  11  23  39  59  95 140 168 211 266 340 404
#
# _framework density 22.024818
#
# number of rings (size 3 to 8) (size 9 to 14) (size 15 to 20)
#    0.000    1.600    4.000    2.000   11.200    2.667 
#    0.000    0.000    0.000   12.000    0.000    0.000 
#    0.000    0.000    0.000    0.000    0.000    0.000 
#
# Total GULP energy -167468.596308 kJ/mol
# GULP energy per Si atom -5582.286544 kJ/mol
# Density = 2.197469 g / cm^3
# Si number density = 22.024818 Si / 1000 Ang^3
#
#
#
# Elastic Constant Matrix: (Units=GPa)
#
#
# Indices 1 2 3 4 5 6 
#
# 1 93.5959 19.1406 28.1259 0.0000 0.0000 0.0000
# 2 19.1406 66.0770 19.3506 0.0000 0.0000 0.0000
# 3 28.1259 19.3506 115.1911 0.0000 0.0000 0.0000
# 4 0.0000 0.0000 0.0000 9.3589 0.0000 0.0000
# 5 0.0000 0.0000 0.0000 0.0000 37.5100 0.0000
# 6 0.0000 0.0000 0.0000 0.0000 0.0000 6.7105
#
#
#
# Elastic Compliance Matrix: (Units=1/GPa)
#
#
# Indices 1 2 3 4 5 6 
#
# 1 0.011987 -0.002751 -0.002465 0.000000 0.000000 0.000000
# 2 -0.002751 0.016548 -0.002108 0.000000 0.000000 0.000000
# 3 -0.002465 -0.002108 0.009637 0.000000 0.000000 0.000000
# 4 0.000000 0.000000 0.000000 0.106851 0.000000 0.000000
# 5 0.000000 0.000000 0.000000 0.000000 0.026660 0.000000
# 6 0.000000 0.000000 0.000000 0.000000 0.000000 0.149020
#
#
# Mechanical properties :
#
#
# Convention : Reuss Voigt Hill
#
# Bulk Modulus (GPa) = 42.50747 45.34425 43.92586
# Shear Modulus (GPa) = 14.56911 24.59899 19.58405
#
# Velocity S-wave (km/s) = 2.57473 3.34560 2.98515
# Velocity P-wave (km/s) = 5.30855 5.96293 5.64523
#
# Compressibility (1/GPa) = 0.02352528
#
# Stress axis : x y z
#
# Youngs Moduli (GPa) = 83.42065 60.43014 103.76425
#
# Poissons Ratio (x) = 0.16622 0.25577
# Poissons Ratio (y) = 0.22945 0.21876
# Poissons Ratio (z) = 0.20562 0.12740
#
# Static dielectric constant tensor:
#      x y z
#    x 1.798490 0.000000 0.000000 
#    y 0.000000 1.811630 0.000000 
#    z 0.000000 0.000000 1.940920 
# 
# From -- ./inp_files/15882.got.cif
#   From: 2010.05.17/outbox.cif.g08.bks.cpg/sg20_8_cif.got.tgz:15882.got - 2010.06.03 22:52:26.
