data_PCOD9318014
_publ_section_title
;
Structure prediction by ZEFSAII (Michael W. Deem and Ramdas Pophale) SiO2 
 PCOD9318014
Probable space group: C 2 2 21
;
_chemical_formula_sum "Si O2"
_cell_formula_units_Z 44
_cell_length_a 30.676202
_cell_length_b 13.998150
_cell_length_c 5.272508
_cell_angle_alpha 90.000000
_cell_angle_beta 90.000000
_cell_angle_gamma 90.000000
_cell_volume 2264.068066
_symmetry_space_group_name_H-M "C 2 2 21"
_symmetry_group_IT_number 20
_symmetry_cell_setting 'orthorhombic'
loop_
_space_group_symop_operation_xyz
x,y,z
-x,-y,1/2+z
x,-y,-z
-x,y,1/2-z
1/2+x,1/2+y,z
1/2-x,1/2-y,1/2+z
1/2+x,1/2-y,-z
1/2-x,1/2+y,1/2-z
loop_
_atom_site_type_symbol
_atom_site_label
_atom_site_fract_x
_atom_site_fract_y
_atom_site_fract_z
Si Si1 0.266994 0.500000 0.500000
Si Si2 0.688816 0.653312 0.348100
Si Si3 0.652682 0.894763 0.901320
Si Si4 0.882373 0.294824 0.099376
Si Si5 0.734842 0.845157 0.167569
Si Si6 0.470426 0.109282 0.998826
O O1 0.298419 0.441590 0.695087
O O2 0.233712 0.422556 0.385325
O O3 0.639974 0.689981 0.395798
O O4 0.715449 0.741923 0.222413
O O5 0.713998 0.652074 0.613219
O O6 0.628427 0.831513 0.117055
O O7 0.704448 0.882852 0.942746
O O8 0.640603 0.858686 0.621646
O O9 0.640772 0.000000 0.000000
O O10 0.932581 0.312691 0.032176
O O11 0.500000 0.114065 0.750000
O O12 0.500000 0.120754 0.250000
O O13 0.451595 0.000000 0.000000
#
# Coordination Sequence:
#
# PCOD9318014 Si02
#       6
#     4   8   8   8   8   8
#     4  12  24  40  62  84 122 180 218 272 320 362
#     4  11  23  39  60  84 128 164 224 264 313 368
#     4  11  22  34  56  84 123 165 210 255 300 351
#     4  11  24  37  59  88 124 161 207 260 305 374
#     4  11  23  38  59  83 121 172 219 262 307 363
#     4  10  20  37  61  88 123 160 198 244 312 390
#
# _framework density 19.434047
#
# number of rings (size 3 to 8) (size 9 to 14) (size 15 to 20)
#    0.000    1.091    1.818    5.455   10.182    1.455 
#    0.000    0.000    0.000    0.000    0.000    0.000 
#    5.455    0.000    0.000    0.000    0.000    0.000 
#
# Total GULP energy -122663.012471 kJ/mol
# GULP energy per Si atom -5575.591476 kJ/mol
# Density = 1.938981 g / cm^3
# Si number density = 19.434047 Si / 1000 Ang^3
#
#
#
# Elastic Constant Matrix: (Units=GPa)
#
#
# Indices 1 2 3 4 5 6 
#
# 1 93.6455 22.0956 23.0025 0.0000 0.0000 0.0000
# 2 22.0956 75.4393 26.9311 0.0000 0.0000 0.0000
# 3 23.0025 26.9311 77.6516 0.0000 0.0000 0.0000
# 4 0.0000 0.0000 0.0000 32.5025 0.0000 0.0000
# 5 0.0000 0.0000 0.0000 0.0000 21.7836 0.0000
# 6 0.0000 0.0000 0.0000 0.0000 0.0000 20.9107
#
#
#
# Elastic Compliance Matrix: (Units=1/GPa)
#
#
# Indices 1 2 3 4 5 6 
#
# 1 0.011931 -0.002548 -0.002650 0.000000 0.000000 0.000000
# 2 -0.002548 0.015673 -0.004681 0.000000 0.000000 0.000000
# 3 -0.002650 -0.004681 0.015287 0.000000 0.000000 0.000000
# 4 0.000000 0.000000 0.000000 0.030767 0.000000 0.000000
# 5 0.000000 0.000000 0.000000 0.000000 0.045906 0.000000
# 6 0.000000 0.000000 0.000000 0.000000 0.000000 0.047822
#
#
# Mechanical properties :
#
#
# Convention : Reuss Voigt Hill
#
# Bulk Modulus (GPa) = 43.23136 43.42164 43.32650
# Shear Modulus (GPa) = 25.66003 26.68650 26.17327
#
# Velocity S-wave (km/s) = 3.63762 3.70967 3.67382
# Velocity P-wave (km/s) = 6.31954 6.38282 6.35126
#
# Compressibility (1/GPa) = 0.02313136
#
# Stress axis : x y z
#
# Youngs Moduli (GPa) = 83.81617 63.80364 65.41682
#
# Poissons Ratio (x) = 0.16259 0.17338
# Poissons Ratio (y) = 0.21359 0.30621
# Poissons Ratio (z) = 0.22215 0.29866
#
# Static dielectric constant tensor:
#      x y z
#    x 1.693270 0.000000 0.000000 
#    y 0.000000 1.803610 0.000000 
#    z 0.000000 0.000000 1.800480 
# 
# From -- ./inp_files/4205.got.cif
#   From: 2010.05.17/outbox.cif.g08.bks.cpg/sg20_3_cif.got.tgz:4205.got - 2010.06.03 22:52:26.
