data_PCOD9318932
_publ_section_title
;
Structure prediction by ZEFSAII (Michael W. Deem and Ramdas Pophale) SiO2 
 PCOD9318932
Probable space group: C 2 2 21
;
_chemical_formula_sum "Si O2"
_cell_formula_units_Z 40
_cell_length_a 30.836717
_cell_length_b 12.677756
_cell_length_c 4.995994
_cell_angle_alpha 90.000000
_cell_angle_beta 90.000000
_cell_angle_gamma 90.000000
_cell_volume 1953.135763
_symmetry_space_group_name_H-M "C 2 2 21"
_symmetry_group_IT_number 20
_symmetry_cell_setting 'orthorhombic'
loop_
_space_group_symop_operation_xyz
x,y,z
-x,-y,1/2+z
x,-y,-z
-x,y,1/2-z
1/2+x,1/2+y,z
1/2-x,1/2-y,1/2+z
1/2+x,1/2-y,-z
1/2-x,1/2+y,1/2-z
loop_
_atom_site_type_symbol
_atom_site_label
_atom_site_fract_x
_atom_site_fract_y
_atom_site_fract_z
Si Si1 0.906179 0.802992 0.319968
Si Si2 0.755924 0.111533 0.122050
Si Si3 0.547415 0.605014 0.319506
Si Si4 0.695419 0.308576 0.126776
Si Si5 0.051032 0.423855 0.754313
O O1 0.930051 0.881047 0.530145
O O2 0.855871 0.809495 0.395689
O O3 0.922321 0.682103 0.313989
O O4 0.919562 0.838146 0.021726
O O5 0.715992 0.192264 0.102062
O O6 0.777826 0.120694 0.413477
O O7 0.792862 0.152645 0.921826
O O8 0.742758 0.000000 0.000000
O O9 0.537537 0.500000 0.500000
O O10 0.500000 0.652346 0.250000
O O11 0.060405 0.500000 0.500000
O O12 0.000000 0.393335 0.750000
O O13 0.058004 0.500000 0.000000
#
# Coordination Sequence:
#
# PCOD9318932 Si02
#       5
#     8   8   8   8   8
#     4  12  24  40  64  92 126 162 208 272 319 369
#     4  10  21  41  64  85 124 165 195 251 318 377
#     4  12  25  42  62  89 126 169 214 259 319 385
#     4  10  23  39  60  95 120 153 212 251 305 390
#     4  10  21  38  59  85 118 159 204 247 304 373
#
# _framework density 20.479887000000002
#
# number of rings (size 3 to 8) (size 9 to 14) (size 15 to 20)
#    0.000    1.200    0.000    6.600    0.000    7.200 
#    0.000    4.000    0.000    0.000    0.000    0.000 
#    0.000    0.000    0.000    0.000    0.000    0.000 
#
# Total GULP energy -111477.305997 kJ/mol
# GULP energy per Si atom -5573.865300 kJ/mol
# Density = 2.043327 g / cm^3
# Si number density = 20.479887 Si / 1000 Ang^3
#
#
#
# Elastic Constant Matrix: (Units=GPa)
#
#
# Indices 1 2 3 4 5 6 
#
# 1 95.7938 6.8159 26.7624 0.0000 0.0000 0.0000
# 2 6.8159 63.6483 12.2094 0.0000 0.0000 0.0000
# 3 26.7624 12.2094 106.5918 0.0000 0.0000 0.0000
# 4 0.0000 0.0000 0.0000 30.0896 0.0000 0.0000
# 5 0.0000 0.0000 0.0000 0.0000 12.6029 0.0000
# 6 0.0000 0.0000 0.0000 0.0000 0.0000 0.4472
#
#
#
# Elastic Compliance Matrix: (Units=1/GPa)
#
#
# Indices 1 2 3 4 5 6 
#
# 1 0.011255 -0.000678 -0.002748 0.000000 0.000000 0.000000
# 2 -0.000678 0.016105 -0.001674 0.000000 0.000000 0.000000
# 3 -0.002748 -0.001674 0.010263 0.000000 0.000000 0.000000
# 4 0.000000 0.000000 0.000000 0.033234 0.000000 0.000000
# 5 0.000000 0.000000 0.000000 0.000000 0.079347 0.000000
# 6 0.000000 0.000000 0.000000 0.000000 0.000000 2.236127
#
#
# Mechanical properties :
#
#
# Convention : Reuss Voigt Hill
#
# Bulk Modulus (GPa) = 36.46693 39.73436 38.10065
# Shear Modulus (GPa) = 2.07842 23.31102 12.69472
#
# Velocity S-wave (km/s) = 1.00850 3.37744 2.49241
# Velocity P-wave (km/s) = 4.38189 5.88670 5.18913
#
# Compressibility (1/GPa) = 0.02742210
#
# Stress axis : x y z
#
# Youngs Moduli (GPa) = 88.84855 62.09191 97.43374
#
# Poissons Ratio (x) = 0.04210 0.26777
# Poissons Ratio (y) = 0.06025 0.16315
# Poissons Ratio (z) = 0.24417 0.10397
#
# Static dielectric constant tensor:
#      x y z
#    x 1.686600 0.000000 0.000000 
#    y 0.000000 1.747870 0.000000 
#    z 0.000000 0.000000 1.686350 
# 
# From -- ./inp_files/4068.got.cif
#   From: 2010.05.17/outbox.cif.g08.bks.cpg/sg20_3_cif.got.tgz:4068.got - 2010.06.03 22:52:26.
