data_PCOD9318872
_publ_section_title
;
Structure prediction by ZEFSAII (Michael W. Deem and Ramdas Pophale) SiO2 
 PCOD9318872
Probable space group: C 2 2 21
;
_chemical_formula_sum "Si O2"
_cell_formula_units_Z 64
_cell_length_a 16.586209
_cell_length_b 11.847284
_cell_length_c 17.328627
_cell_angle_alpha 90.000000
_cell_angle_beta 90.000000
_cell_angle_gamma 90.000000
_cell_volume 3405.101692
_symmetry_space_group_name_H-M "C 2 2 21"
_symmetry_group_IT_number 20
_symmetry_cell_setting 'orthorhombic'
loop_
_space_group_symop_operation_xyz
x,y,z
-x,-y,1/2+z
x,-y,-z
-x,y,1/2-z
1/2+x,1/2+y,z
1/2-x,1/2-y,1/2+z
1/2+x,1/2-y,-z
1/2-x,1/2+y,1/2-z
loop_
_atom_site_type_symbol
_atom_site_label
_atom_site_fract_x
_atom_site_fract_y
_atom_site_fract_z
Si Si1 0.317674 0.749651 0.100775
Si Si2 0.688504 0.833916 0.660243
Si Si3 0.588865 0.307936 0.213059
Si Si4 0.088619 0.344592 0.937284
Si Si5 0.784805 0.281722 0.454745
Si Si6 0.912386 0.624164 0.013354
Si Si7 0.752872 0.070766 0.713775
Si Si8 0.742587 0.011258 0.112661
O O1 0.289392 0.819906 0.175140
O O2 0.305623 0.615792 0.114289
O O3 0.255463 0.775593 0.030055
O O4 0.398983 0.798496 0.062327
O O5 0.642367 0.774366 0.730795
O O6 0.769698 0.778712 0.625900
O O7 0.630534 0.820137 0.586758
O O8 0.710966 0.962446 0.675693
O O9 0.500000 0.328377 0.250000
O O10 0.579217 0.246192 0.131008
O O11 0.650679 0.412422 0.202442
O O12 0.156096 0.432749 0.907430
O O13 0.002870 0.393278 0.958287
O O14 0.124613 0.296168 0.016954
O O15 0.744830 0.406033 0.444736
O O16 0.875918 0.500000 0.000000
O O17 0.740581 0.046897 0.803940
#
# Coordination Sequence:
#
# PCOD9318872 Si02
#       8
#     8   8   8   8   8   8   8   8
#     4  10  21  37  59  92 124 161 212 260 315 388
#     4  11  22  38  63  89 121 169 212 254 322 383
#     4  12  23  41  61  92 128 166 216 265 319 383
#     4  11  21  38  62  92 125 161 208 269 324 380
#     4  10  21  37  60  89 124 165 207 262 318 382
#     4  11  21  36  61  92 127 157 203 274 327 373
#     4  12  21  39  64  90 125 169 213 263 315 387
#     4  11  21  37  64  89 124 170 215 261 319 387
#
# _framework density 18.795327
#
# number of rings (size 3 to 8) (size 9 to 14) (size 15 to 20)
#    0.000    1.000    7.500    2.250    0.000    0.000 
#    0.000    1.250    0.000    1.500    0.000    0.000 
#    0.000    0.000    0.000    0.000    0.000    0.000 
#
# Total GULP energy -178152.205789 kJ/mol
# GULP energy per Si atom -5567.256431 kJ/mol
# Density = 1.875255 g / cm^3
# Si number density = 18.795327 Si / 1000 Ang^3
#
#
#
# Elastic Constant Matrix: (Units=GPa)
#
#
# Indices 1 2 3 4 5 6 
#
# 1 56.4968 9.0877 26.8487 0.0000 0.0000 0.0000
# 2 9.0877 44.1460 29.2840 0.0000 0.0000 0.0000
# 3 26.8487 29.2840 95.6326 0.0000 0.0000 0.0000
# 4 0.0000 0.0000 0.0000 31.8554 0.0000 0.0000
# 5 0.0000 0.0000 0.0000 0.0000 23.0375 0.0000
# 6 0.0000 0.0000 0.0000 0.0000 0.0000 22.1682
#
#
#
# Elastic Compliance Matrix: (Units=1/GPa)
#
#
# Indices 1 2 3 4 5 6 
#
# 1 0.020434 -0.000503 -0.005583 0.000000 0.000000 0.000000
# 2 -0.000503 0.028439 -0.008567 0.000000 0.000000 0.000000
# 3 -0.005583 -0.008567 0.014647 0.000000 0.000000 0.000000
# 4 0.000000 0.000000 0.000000 0.031392 0.000000 0.000000
# 5 0.000000 0.000000 0.000000 0.000000 0.043407 0.000000
# 6 0.000000 0.000000 0.000000 0.000000 0.000000 0.045110
#
#
# Mechanical properties :
#
#
# Convention : Reuss Voigt Hill
#
# Bulk Modulus (GPa) = 29.22766 36.30179 32.76472
# Shear Modulus (GPa) = 22.30751 24.14921 23.22836
#
# Velocity S-wave (km/s) = 3.44883 3.58837 3.51929
# Velocity P-wave (km/s) = 5.60745 6.04357 5.82959
#
# Compressibility (1/GPa) = 0.03421417
#
# Stress axis : x y z
#
# Youngs Moduli (GPa) = 48.93771 35.16352 68.27162
#
# Poissons Ratio (x) = 0.01769 0.38115
# Poissons Ratio (y) = 0.02462 0.58488
# Poissons Ratio (z) = 0.27321 0.30125
#
# Static dielectric constant tensor:
#      x y z
#    x 1.696290 0.000000 0.000000 
#    y 0.000000 1.716040 0.000000 
#    z 0.000000 0.000000 1.687020 
# 
# From -- ./inp_files/25338.got.cif
#   From: 2010.05.17/outbox.cif.g08.bks.cpg/sg20_13_cif.got.tgz:25338.got - 2010.06.03 22:52:26.
