data_PCOD9318307
_publ_section_title
;
Structure prediction by ZEFSAII (Michael W. Deem and Ramdas Pophale) SiO2 
 PCOD9318307
Probable space group: C 2 2 21
;
_chemical_formula_sum "Si O2"
_cell_formula_units_Z 48
_cell_length_a 16.736059
_cell_length_b 22.417681
_cell_length_c 5.515743
_cell_angle_alpha 90.000000
_cell_angle_beta 90.000000
_cell_angle_gamma 90.000000
_cell_volume 2069.416491
_symmetry_space_group_name_H-M "C 2 2 21"
_symmetry_group_IT_number 20
_symmetry_cell_setting 'orthorhombic'
loop_
_space_group_symop_operation_xyz
x,y,z
-x,-y,1/2+z
x,-y,-z
-x,y,1/2-z
1/2+x,1/2+y,z
1/2-x,1/2-y,1/2+z
1/2+x,1/2-y,-z
1/2-x,1/2+y,1/2-z
loop_
_atom_site_type_symbol
_atom_site_label
_atom_site_fract_x
_atom_site_fract_y
_atom_site_fract_z
Si Si1 0.905082 0.337846 0.772558
Si Si2 0.138621 0.053320 0.135037
Si Si3 0.917955 0.163893 0.136343
Si Si4 0.693800 0.647129 0.743459
Si Si5 0.794517 0.441746 0.611326
Si Si6 0.656966 0.778142 0.229320
O O1 0.854176 0.399743 0.763046
O O2 0.877072 0.302922 0.526352
O O3 0.000000 0.347509 0.750000
O O4 0.887331 0.305525 0.030932
O O5 0.088568 0.093152 0.318449
O O6 0.219579 0.028350 0.250528
O O7 0.171660 0.103570 0.956885
O O8 0.095031 0.000000 0.000000
O O9 0.853043 0.207151 0.259724
O O10 0.000000 0.185080 0.250000
O O11 0.891679 0.168814 0.859501
O O12 0.747552 0.604925 0.564115
O O13 0.751806 0.702842 0.771577
O O14 0.837234 0.500000 0.500000
#
# Coordination Sequence:
#
# PCOD9318307 Si02
#       6
#     8   8   8   8   8   8
#     4  11  23  42  68 103 146 191 237 293 373 435
#     4  11  22  43  69  94 131 184 243 295 356 426
#     4  11  27  44  65 105 142 182 236 303 380 430
#     4  10  23  40  70  96 130 177 238 288 348 433
#     4  10  20  39  63  97 134 179 238 296 345 423
#     4  11  25  45  72 103 142 188 239 299 359 451
#
# _framework density 23.194945000000001
#
# number of rings (size 3 to 8) (size 9 to 14) (size 15 to 20)
#    0.000    1.333    3.333    1.500    4.667    0.667 
#    3.000    4.167    0.000    0.000    0.000    0.000 
#    0.000    0.000    0.000    0.000    0.000    0.000 
#
# Total GULP energy -133893.349830 kJ/mol
# GULP energy per Si atom -5578.889576 kJ/mol
# Density = 2.314215 g / cm^3
# Si number density = 23.194945 Si / 1000 Ang^3
#
#
#
# Elastic Constant Matrix: (Units=GPa)
#
#
# Indices 1 2 3 4 5 6 
#
# 1 73.3379 0.1182 22.5313 0.0000 0.0000 0.0000
# 2 0.1182 120.4314 13.4343 0.0000 0.0000 0.0000
# 3 22.5313 13.4343 77.6426 0.0000 0.0000 0.0000
# 4 0.0000 0.0000 0.0000 40.4552 0.0000 0.0000
# 5 0.0000 0.0000 0.0000 0.0000 13.6840 0.0000
# 6 0.0000 0.0000 0.0000 0.0000 0.0000 7.3521
#
#
#
# Elastic Compliance Matrix: (Units=1/GPa)
#
#
# Indices 1 2 3 4 5 6 
#
# 1 0.014997 0.000480 -0.004435 0.000000 0.000000 0.000000
# 2 0.000480 0.008482 -0.001607 0.000000 0.000000 0.000000
# 3 -0.004435 -0.001607 0.014445 0.000000 0.000000 0.000000
# 4 0.000000 0.000000 0.000000 0.024719 0.000000 0.000000
# 5 0.000000 0.000000 0.000000 0.000000 0.073078 0.000000
# 6 0.000000 0.000000 0.000000 0.000000 0.000000 0.136015
#
#
# Mechanical properties :
#
#
# Convention : Reuss Voigt Hill
#
# Bulk Modulus (GPa) = 37.31340 38.17549 37.74445
# Shear Modulus (GPa) = 17.13537 27.98679 22.56108
#
# Velocity S-wave (km/s) = 2.72095 3.47737 3.12215
# Velocity P-wave (km/s) = 5.09836 5.71113 5.41342
#
# Compressibility (1/GPa) = 0.02680003
#
# Stress axis : x y z
#
# Youngs Moduli (GPa) = 66.67844 117.89295 69.22982
#
# Poissons Ratio (x) = -0.05659 0.30705
# Poissons Ratio (y) = -0.03201 0.11125
# Poissons Ratio (z) = 0.29573 0.18945
#
# Static dielectric constant tensor:
#      x y z
#    x 1.854840 0.000000 0.000000 
#    y 0.000000 1.920220 0.000000 
#    z 0.000000 0.000000 2.031020 
# 
# From -- ./inp_files/2727.got.cif
#   From: 2010.05.17/outbox.cif.g08.bks.cpg/sg20_2_cif.got.tgz:2727.got - 2010.06.03 22:52:26.
