data_PCOD9318129
_publ_section_title
;
Structure prediction by ZEFSAII (Michael W. Deem and Ramdas Pophale) SiO2 
 PCOD9318129
Probable space group: C 2 2 21
;
_chemical_formula_sum "Si O2"
_cell_formula_units_Z 56
_cell_length_a 11.509870
_cell_length_b 19.235672
_cell_length_c 12.258158
_cell_angle_alpha 90.000000
_cell_angle_beta 90.000000
_cell_angle_gamma 90.000000
_cell_volume 2713.957212
_symmetry_space_group_name_H-M "C 2 2 21"
_symmetry_group_IT_number 20
_symmetry_cell_setting 'orthorhombic'
loop_
_space_group_symop_operation_xyz
x,y,z
-x,-y,1/2+z
x,-y,-z
-x,y,1/2-z
1/2+x,1/2+y,z
1/2-x,1/2-y,1/2+z
1/2+x,1/2-y,-z
1/2-x,1/2+y,1/2-z
loop_
_atom_site_type_symbol
_atom_site_label
_atom_site_fract_x
_atom_site_fract_y
_atom_site_fract_z
Si Si1 0.067541 0.546052 0.098991
Si Si2 0.188556 0.174328 0.206089
Si Si3 0.162027 0.805617 0.362941
Si Si4 0.709642 0.820806 0.931639
Si Si5 0.565329 0.689225 0.991052
Si Si6 0.393443 0.578323 0.682387
Si Si7 0.812446 0.529197 0.175108
O O1 0.104614 0.626891 0.095424
O O2 0.132035 0.518487 0.205798
O O3 0.929008 0.536634 0.104540
O O4 0.111946 0.500000 0.000000
O O5 0.275605 0.237813 0.182196
O O6 0.192193 0.172306 0.338020
O O7 0.244958 0.101873 0.170112
O O8 0.081589 0.185999 0.122111
O O9 0.243381 0.843433 0.450703
O O10 0.133301 0.857530 0.264833
O O11 0.052754 0.782931 0.437022
O O12 0.664873 0.742129 0.947944
O O13 0.574164 0.614060 0.932698
O O14 0.500000 0.542032 0.750000
O O15 0.282646 0.530520 0.659598
#
# Coordination Sequence:
#
# PCOD9318129 Si02
#       7
#     8   8   8   8   8   8   8
#     4  10  21  37  60  86 121 160 196 250 296 360
#     4  10  21  37  60  88 118 155 200 252 296 364
#     4  10  20  38  62  86 121 158 202 248 302 366
#     4  10  20  38  60  87 121 158 202 251 298 357
#     4  10  21  36  60  88 117 159 200 246 308 356
#     4  10  21  39  62  87 119 163 200 246 301 366
#     4  10  22  38  59  89 122 157 202 243 306 358
#
# _framework density 20.634074999999999
#
# number of rings (size 3 to 8) (size 9 to 14) (size 15 to 20)
#    0.000    2.000    1.429    1.714    2.000    1.714 
#    5.143    0.000    0.000    0.000    0.000    0.000 
#    0.000    0.000    0.000    0.000    0.000    0.000 
#
# Total GULP energy -155988.159875 kJ/mol
# GULP energy per Si atom -5571.005710 kJ/mol
# Density = 2.058711 g / cm^3
# Si number density = 20.634075 Si / 1000 Ang^3
#
#
#
# Elastic Constant Matrix: (Units=GPa)
#
#
# Indices 1 2 3 4 5 6 
#
# 1 64.6481 12.0627 -7.9228 0.0000 0.0000 0.0000
# 2 12.0627 49.4187 8.9929 0.0000 0.0000 0.0000
# 3 -7.9228 8.9929 67.2713 0.0000 0.0000 0.0000
# 4 0.0000 0.0000 0.0000 20.0865 0.0000 0.0000
# 5 0.0000 0.0000 0.0000 0.0000 15.5241 0.0000
# 6 0.0000 0.0000 0.0000 0.0000 0.0000 22.8139
#
#
#
# Elastic Compliance Matrix: (Units=1/GPa)
#
#
# Indices 1 2 3 4 5 6 
#
# 1 0.016627 -0.004525 0.002563 0.000000 0.000000 0.000000
# 2 -0.004525 0.021971 -0.003470 0.000000 0.000000 0.000000
# 3 0.002563 -0.003470 0.015631 0.000000 0.000000 0.000000
# 4 0.000000 0.000000 0.000000 0.049785 0.000000 0.000000
# 5 0.000000 0.000000 0.000000 0.000000 0.064416 0.000000
# 6 0.000000 0.000000 0.000000 0.000000 0.000000 0.043833
#
#
# Mechanical properties :
#
#
# Convention : Reuss Voigt Hill
#
# Bulk Modulus (GPa) = 23.05995 23.06708 23.06351
# Shear Modulus (GPa) = 21.04543 22.89858 21.97201
#
# Velocity S-wave (km/s) = 3.19711 3.33490 3.26673
# Velocity P-wave (km/s) = 4.98283 5.10217 5.04285
#
# Compressibility (1/GPa) = 0.04336524
#
# Stress axis : x y z
#
# Youngs Moduli (GPa) = 60.14406 45.51416 63.97573
#
# Poissons Ratio (x) = 0.20594 -0.16397
# Poissons Ratio (y) = 0.27214 0.22200
# Poissons Ratio (z) = -0.15415 0.15794
#
# Static dielectric constant tensor:
#      x y z
#    x 1.794160 0.000000 0.000000 
#    y 0.000000 1.700740 0.000000 
#    z 0.000000 0.000000 1.775320 
# 
# From -- ./inp_files/14337.got.cif
#   From: 2010.05.17/outbox.cif.g08.bks.cpg/sg20_8_cif.got.tgz:14337.got - 2010.06.03 22:52:26.
