data_PCOD9318931
_publ_section_title
;
Structure prediction by ZEFSAII (Michael W. Deem and Ramdas Pophale) SiO2 
 PCOD9318931
Probable space group: C 2 2 21
;
_chemical_formula_sum "Si O2"
_cell_formula_units_Z 64
_cell_length_a 8.392017
_cell_length_b 16.459798
_cell_length_c 24.581482
_cell_angle_alpha 90.000000
_cell_angle_beta 90.000000
_cell_angle_gamma 90.000000
_cell_volume 3395.462346
_symmetry_space_group_name_H-M "C 2 2 21"
_symmetry_group_IT_number 20
_symmetry_cell_setting 'orthorhombic'
loop_
_space_group_symop_operation_xyz
x,y,z
-x,-y,1/2+z
x,-y,-z
-x,y,1/2-z
1/2+x,1/2+y,z
1/2-x,1/2-y,1/2+z
1/2+x,1/2-y,-z
1/2-x,1/2+y,1/2-z
loop_
_atom_site_type_symbol
_atom_site_label
_atom_site_fract_x
_atom_site_fract_y
_atom_site_fract_z
Si Si1 0.191064 0.340855 0.879586
Si Si2 0.310411 0.511113 0.187327
Si Si3 0.809647 0.843051 0.998638
Si Si4 0.883208 0.423245 0.904702
Si Si5 0.309643 0.656945 0.501363
Si Si6 0.810413 0.011116 0.687326
Si Si7 0.191069 0.340851 0.379584
Si Si8 0.116792 0.423238 0.095300
O O1 0.255728 0.400917 0.833846
O O2 0.249995 0.250002 0.870345
O O3 0.001604 0.350807 0.886781
O O4 0.259164 0.368575 0.938112
O O5 0.499999 0.499998 0.183168
O O6 0.262935 0.500001 0.250000
O O7 0.224412 0.449320 0.146216
O O8 0.750006 0.749997 0.005838
O O9 0.722967 0.896965 0.044190
O O10 0.000002 0.846214 1.000000
O O11 0.777037 0.396973 0.955813
O O12 0.775584 0.449326 0.853787
O O13 0.000001 0.500003 0.916716
O O14 0.259169 0.631424 0.561891
O O15 0.755727 0.099088 0.666157
O O16 0.001608 0.350801 0.386780
#
# Coordination Sequence:
#
# PCOD9318931 Si02
#       8
#     8   8   8   8   8   8   8   8
#     4  10  21  38  59  85 118 151 189 235 286 345
#     4  10  22  41  60  83 115 151 195 242 286 337
#     4  11  21  36  59  88 121 153 190 236 288 343
#     4  10  22  38  60  86 118 154 193 235 287 343
#     4  11  21  36  59  88 121 153 190 236 288 343
#     4  10  22  41  60  83 115 151 195 242 286 337
#     4  10  21  38  59  85 118 151 189 235 286 345
#     4  10  22  38  60  86 118 154 193 235 287 343
#
# _framework density 18.848685
#
# number of rings (size 3 to 8) (size 9 to 14) (size 15 to 20)
#    0.000    1.750    0.000    5.250    0.000   11.500 
#    0.000   12.500    0.000    0.000    0.000    0.000 
#    0.000    0.000    0.000    0.000    0.000    0.000 
#
# Total GULP energy -178803.326809 kJ/mol
# GULP energy per Si atom -5587.603963 kJ/mol
# Density = 1.880578 g / cm^3
# Si number density = 18.848685 Si / 1000 Ang^3
#
#
#
# Elastic Constant Matrix: (Units=GPa)
#
#
# Indices 1 2 3 4 5 6 
#
# 1 131.9227 53.6541 77.6405 0.0000 0.0000 0.0000
# 2 53.6541 83.4244 78.3272 0.0000 0.0000 0.0000
# 3 77.6405 78.3272 191.4505 0.0000 0.0000 0.0000
# 4 0.0000 0.0000 0.0000 1.6849 0.0000 0.0000
# 5 0.0000 0.0000 0.0000 0.0000 23.6782 0.0000
# 6 0.0000 0.0000 0.0000 0.0000 0.0000 32.6482
#
#
#
# Elastic Compliance Matrix: (Units=1/GPa)
#
#
# Indices 1 2 3 4 5 6 
#
# 1 0.010976 -0.004676 -0.002538 0.000000 0.000000 0.000000
# 2 -0.004676 0.021455 -0.006882 0.000000 0.000000 0.000000
# 3 -0.002538 -0.006882 0.009068 0.000000 0.000000 0.000000
# 4 0.000000 0.000000 0.000000 0.593513 0.000000 0.000000
# 5 0.000000 0.000000 0.000000 0.000000 0.042233 0.000000
# 6 0.000000 0.000000 0.000000 0.000000 0.000000 0.030630
#
#
# Mechanical properties :
#
#
# Convention : Reuss Voigt Hill
#
# Bulk Modulus (GPa) = 75.14408 91.78235 83.46321
# Shear Modulus (GPa) = 6.75218 24.74733 15.74975
#
# Velocity S-wave (km/s) = 1.89475 3.62739 2.89379
# Velocity P-wave (km/s) = 6.68882 8.14518 7.45266
#
# Compressibility (1/GPa) = 0.01330777
#
# Stress axis : x y z
#
# Youngs Moduli (GPa) = 91.11076 46.60818 110.27830
#
# Poissons Ratio (x) = 0.21794 0.27988
# Poissons Ratio (y) = 0.42604 0.75890
# Poissons Ratio (z) = 0.23123 0.32074
#
# Static dielectric constant tensor:
#      x y z
#    x 1.668990 0.000000 0.000000 
#    y 0.000000 1.671090 0.000000 
#    z 0.000000 0.000000 1.622890 
# 
# From -- ./inp_files/26891.got.cif
#   From: 2010.05.17/outbox.cif.g08.bks.cpg/sg20_14_cif.got.tgz:26891.got - 2010.06.03 22:52:26.
