data_PCOD9318863
_publ_section_title
;
Structure prediction by ZEFSAII (Michael W. Deem and Ramdas Pophale) SiO2 
 PCOD9318863
Probable space group: C 2 2 21
;
_chemical_formula_sum "Si O2"
_cell_formula_units_Z 36
_cell_length_a 6.908983
_cell_length_b 17.140436
_cell_length_c 13.748111
_cell_angle_alpha 90.000000
_cell_angle_beta 90.000000
_cell_angle_gamma 90.000000
_cell_volume 1628.092287
_symmetry_space_group_name_H-M "C 2 2 21"
_symmetry_group_IT_number 20
_symmetry_cell_setting 'orthorhombic'
loop_
_space_group_symop_operation_xyz
x,y,z
-x,-y,1/2+z
x,-y,-z
-x,y,1/2-z
1/2+x,1/2+y,z
1/2-x,1/2-y,1/2+z
1/2+x,1/2-y,-z
1/2-x,1/2+y,1/2-z
loop_
_atom_site_type_symbol
_atom_site_label
_atom_site_fract_x
_atom_site_fract_y
_atom_site_fract_z
Si Si1 0.189274 0.786377 0.116592
Si Si2 0.831076 0.367021 0.507470
Si Si3 0.733780 0.769520 0.168117
Si Si4 0.026228 0.000000 0.500000
Si Si5 0.255795 0.889306 0.926122
O O1 0.282797 0.797367 0.221913
O O2 0.213751 0.848687 0.031021
O O3 0.958511 0.780255 0.136304
O O4 0.251073 0.701634 0.075757
O O5 0.886601 0.319135 0.410135
O O6 0.672731 0.429937 0.478120
O O7 0.014189 0.403871 0.564056
O O8 0.706254 0.676800 0.152873
O O9 0.879019 0.035063 0.419716
#
# Coordination Sequence:
#
# PCOD9318863 Si02
#       5
#     8   8   8   4   8
#     4   9  18  37  62  86 113 151 198 243 286 345
#     4  10  21  37  59  86 117 154 196 238 290 350
#     4   9  18  37  62  86 113 151 198 243 286 345
#     4  12  22  40  58  86 128 156 186 244 302 350
#     4  10  21  37  59  86 117 154 196 238 290 350
#
# _framework density 22.111768000000001
#
# number of rings (size 3 to 8) (size 9 to 14) (size 15 to 20)
#    0.000    2.222    2.222    0.667    3.111    0.889 
#    0.000    4.444    0.000    5.333    0.000    0.000 
#    0.000    0.000    0.000    0.000    0.000    0.000 
#
# Total GULP energy -100459.753005 kJ/mol
# GULP energy per Si atom -5581.097389 kJ/mol
# Density = 2.206144 g / cm^3
# Si number density = 22.111768 Si / 1000 Ang^3
#
#
#
# Elastic Constant Matrix: (Units=GPa)
#
#
# Indices 1 2 3 4 5 6 
#
# 1 89.7595 26.9134 -9.1183 0.0000 0.0000 0.0000
# 2 26.9134 72.6355 -15.0274 0.0000 0.0000 0.0000
# 3 -9.1183 -15.0274 68.0313 0.0000 0.0000 0.0000
# 4 0.0000 0.0000 0.0000 8.4656 0.0000 0.0000
# 5 0.0000 0.0000 0.0000 0.0000 24.3456 0.0000
# 6 0.0000 0.0000 0.0000 0.0000 0.0000 52.9453
#
#
#
# Elastic Compliance Matrix: (Units=1/GPa)
#
#
# Indices 1 2 3 4 5 6 
#
# 1 0.012564 -0.004513 0.000687 0.000000 0.000000 0.000000
# 2 -0.004513 0.016048 0.002940 0.000000 0.000000 0.000000
# 3 0.000687 0.002940 0.015441 0.000000 0.000000 0.000000
# 4 0.000000 0.000000 0.000000 0.118125 0.000000 0.000000
# 5 0.000000 0.000000 0.000000 0.000000 0.041075 0.000000
# 6 0.000000 0.000000 0.000000 0.000000 0.000000 0.018887
#
#
# Mechanical properties :
#
#
# Convention : Reuss Voigt Hill
#
# Bulk Modulus (GPa) = 23.65184 26.21796 24.93490
# Shear Modulus (GPa) = 21.00796 32.32856 26.66826
#
# Velocity S-wave (km/s) = 3.08568 3.82783 3.47661
# Velocity P-wave (km/s) = 4.83890 5.60528 5.23613
#
# Compressibility (1/GPa) = 0.04228002
#
# Stress axis : x y z
#
# Youngs Moduli (GPa) = 79.59322 62.31373 64.76429
#
# Poissons Ratio (x) = 0.28123 -0.04450
# Poissons Ratio (y) = 0.35921 -0.19040
# Poissons Ratio (z) = -0.05468 -0.18320
#
# Static dielectric constant tensor:
#      x y z
#    x 1.938530 0.000000 0.000000 
#    y 0.000000 1.812670 0.000000 
#    z 0.000000 0.000000 1.779700 
# 
# From -- ./inp_files/18645.got.cif
#   From: 2010.05.17/outbox.cif.g08.bks.cpg/sg20_10_cif.got.tgz:18645.got - 2010.06.03 22:52:26.
