data_PCOD9318474
_publ_section_title
;
Structure prediction by ZEFSAII (Michael W. Deem and Ramdas Pophale) SiO2 
 PCOD9318474
Probable space group: C 2 2 21
;
_chemical_formula_sum "Si O2"
_cell_formula_units_Z 60
_cell_length_a 11.549757
_cell_length_b 29.643469
_cell_length_c 7.684419
_cell_angle_alpha 90.000000
_cell_angle_beta 90.000000
_cell_angle_gamma 90.000000
_cell_volume 2630.951907
_symmetry_space_group_name_H-M "C 2 2 21"
_symmetry_group_IT_number 20
_symmetry_cell_setting 'orthorhombic'
loop_
_space_group_symop_operation_xyz
x,y,z
-x,-y,1/2+z
x,-y,-z
-x,y,1/2-z
1/2+x,1/2+y,z
1/2-x,1/2-y,1/2+z
1/2+x,1/2-y,-z
1/2-x,1/2+y,1/2-z
loop_
_atom_site_type_symbol
_atom_site_label
_atom_site_fract_x
_atom_site_fract_y
_atom_site_fract_z
Si Si1 0.286801 0.814705 0.340345
Si Si2 0.369101 0.401528 0.175731
Si Si3 0.242939 0.508551 0.789475
Si Si4 0.000000 0.529271 0.750000
Si Si5 0.133389 0.080180 0.267220
Si Si6 0.328183 0.139232 0.167490
Si Si7 0.952532 0.385926 0.470388
Si Si8 0.362003 0.764914 0.699243
O O1 0.182055 0.851166 0.324001
O O2 0.391983 0.851110 0.338120
O O3 0.333519 0.786228 0.509411
O O4 0.229776 0.775202 0.225076
O O5 0.500000 0.403388 0.250000
O O6 0.292782 0.442103 0.258595
O O7 0.352986 0.413332 0.972973
O O8 0.325399 0.469536 0.717796
O O9 0.114528 0.501331 0.713409
O O10 0.239313 0.500000 0.000000
O O11 0.955046 0.563670 0.601757
O O12 0.203967 0.116895 0.157709
O O13 0.000000 0.086668 0.250000
O O14 0.380837 0.120209 0.350173
O O15 0.328976 0.192934 0.177390
O O16 0.417158 0.125396 0.021309
O O17 0.500000 0.755333 0.750000
#
# Coordination Sequence:
#
# PCOD9318474 Si02
#       8
#     8   8   8   4   8   8   8   8
#     4  11  22  44  66  98 135 175 226 279 347 405
#     4  11  22  44  67  92 134 177 218 274 339 402
#     4  10  23  42  65  96 134 175 214 274 343 397
#     4  12  22  38  68 106 130 166 240 280 334 404
#     4  11  23  43  67  97 132 175 226 274 330 412
#     4  10  20  45  69  91 138 188 216 272 359 410
#     4  10  20  40  69  93 135 177 215 285 339 401
#     4  11  22  44  68  96 136 180 227 282 348 411
#
# _framework density 22.805433000000001
#
# number of rings (size 3 to 8) (size 9 to 14) (size 15 to 20)
#    0.000    1.333    6.667    1.600    0.000    4.267 
#    4.800    1.333    0.000    0.000    0.000    0.000 
#    0.000    0.000    0.000    0.000    0.000    0.000 
#
# Total GULP energy -167227.698649 kJ/mol
# GULP energy per Si atom -5574.256622 kJ/mol
# Density = 2.275353 g / cm^3
# Si number density = 22.805433 Si / 1000 Ang^3
#
#
#
# Elastic Constant Matrix: (Units=GPa)
#
#
# Indices 1 2 3 4 5 6 
#
# 1 176.3926 31.9515 24.9978 0.0000 0.0000 0.0000
# 2 31.9515 59.1289 19.7997 0.0000 0.0000 0.0000
# 3 24.9978 19.7997 58.6489 0.0000 0.0000 0.0000
# 4 0.0000 0.0000 0.0000 23.2247 0.0000 0.0000
# 5 0.0000 0.0000 0.0000 0.0000 33.1725 0.0000
# 6 0.0000 0.0000 0.0000 0.0000 0.0000 -178.5799
#
#
#
# Elastic Compliance Matrix: (Units=1/GPa)
#
#
# Indices 1 2 3 4 5 6 
#
# 1 0.006443 -0.002889 -0.001771 0.000000 0.000000 0.000000
# 2 -0.002889 0.020363 -0.005643 0.000000 0.000000 0.000000
# 3 -0.001771 -0.005643 0.019711 0.000000 0.000000 0.000000
# 4 0.000000 0.000000 0.000000 0.043058 0.000000 0.000000
# 5 0.000000 0.000000 0.000000 0.000000 0.030145 0.000000
# 6 0.000000 0.000000 0.000000 0.000000 0.000000 -0.005600
#
#
# Mechanical properties :
#
#
# Convention : Reuss Voigt Hill
#
# Bulk Modulus (GPa) = 38.59397 49.74095 44.16746
# Shear Modulus (GPa) = 34.87640 -9.94179 12.46731
#
# Velocity S-wave (km/s) = 3.91487 -2.09018 2.34066
# Velocity P-wave (km/s) = 6.11513 4.00415 5.16856
#
# Compressibility (1/GPa) = 0.02591078
#
# Stress axis : x y z
#
# Youngs Moduli (GPa) = 155.19669 49.10899 50.73401
#
# Poissons Ratio (x) = 0.14186 0.08986
# Poissons Ratio (y) = 0.44833 0.28630
# Poissons Ratio (z) = 0.27487 0.27713
#
# Static dielectric constant tensor:
#      x y z
#    x 2.017700 0.000000 0.000000 
#    y 0.000000 1.871170 0.000000 
#    z 0.000000 0.000000 1.905690 
# 
# From -- ./inp_files/7642.got.cif
#   From: 2010.05.17/outbox.cif.g08.bks.cpg/sg20_4_cif.got.tgz:7642.got - 2010.06.03 22:52:26.
