data_PCOD9318753
_publ_section_title
;
Structure prediction by ZEFSAII (Michael W. Deem and Ramdas Pophale) SiO2 
 PCOD9318753
Probable space group: C 2 2 21
;
_chemical_formula_sum "Si O2"
_cell_formula_units_Z 56
_cell_length_a 15.706124
_cell_length_b 14.913290
_cell_length_c 10.654312
_cell_angle_alpha 90.000000
_cell_angle_beta 90.000000
_cell_angle_gamma 90.000000
_cell_volume 2495.559308
_symmetry_space_group_name_H-M "C 2 2 21"
_symmetry_group_IT_number 20
_symmetry_cell_setting 'orthorhombic'
loop_
_space_group_symop_operation_xyz
x,y,z
-x,-y,1/2+z
x,-y,-z
-x,y,1/2-z
1/2+x,1/2+y,z
1/2-x,1/2-y,1/2+z
1/2+x,1/2-y,-z
1/2-x,1/2+y,1/2-z
loop_
_atom_site_type_symbol
_atom_site_label
_atom_site_fract_x
_atom_site_fract_y
_atom_site_fract_z
Si Si1 0.861613 0.705190 0.328603
Si Si2 0.595098 0.822157 0.088572
Si Si3 0.024020 0.166372 0.396760
Si Si4 0.684488 0.747151 0.332663
Si Si5 0.408019 0.003432 0.306539
Si Si6 0.239539 0.440951 0.379808
Si Si7 0.065739 0.896729 0.148333
O O1 0.844564 0.710610 0.478153
O O2 0.768552 0.705423 0.270189
O O3 0.907234 0.610768 0.314191
O O4 0.912733 0.795448 0.301821
O O5 0.507051 0.768814 0.073030
O O6 0.628112 0.786382 0.220043
O O7 0.594084 0.928626 0.084480
O O8 0.126201 0.174625 0.403367
O O9 0.000000 0.144229 0.250000
O O10 0.976902 0.111002 0.508284
O O11 0.713632 0.837351 0.402995
O O12 0.500000 0.979478 0.250000
O O13 0.323424 0.977834 0.227427
O O14 0.222442 0.500000 0.500000
O O15 0.341212 0.442701 0.352863
O O16 0.000000 0.935920 0.250000
#
# Coordination Sequence:
#
# PCOD9318753 Si02
#       7
#     8   8   8   8   8   8   8
#     4  10  21  34  57  86 116 150 190 243 303 368
#     4   9  18  35  53  78 116 148 184 240 298 349
#     4   9  18  35  61  87 117 161 204 247 304 370
#     4   9  19  35  56  84 113 150 197 246 293 353
#     4  11  22  36  57  86 118 152 194 242 305 378
#     4  10  23  40  59  84 122 167 204 253 317 377
#     4  10  22  41  62  89 126 164 210 265 310 357
#
# _framework density 22.439859999999999
#
# number of rings (size 3 to 8) (size 9 to 14) (size 15 to 20)
#    0.000    2.286    0.000    3.000    0.000   12.571 
#    0.000    2.143    0.000    0.000    0.000    0.000 
#    0.000    0.000    0.000    0.000    0.000    0.000 
#
# Total GULP energy -155937.239290 kJ/mol
# GULP energy per Si atom -5569.187118 kJ/mol
# Density = 2.238879 g / cm^3
# Si number density = 22.439860 Si / 1000 Ang^3
#
#
#
# Elastic Constant Matrix: (Units=GPa)
#
#
# Indices 1 2 3 4 5 6 
#
# 1 102.9963 0.0472 26.6889 0.0000 0.0000 0.0000
# 2 0.0472 65.7258 1.7511 0.0000 0.0000 0.0000
# 3 26.6889 1.7511 44.1627 0.0000 0.0000 0.0000
# 4 0.0000 0.0000 0.0000 0.6685 0.0000 0.0000
# 5 0.0000 0.0000 0.0000 0.0000 2.9038 0.0000
# 6 0.0000 0.0000 0.0000 0.0000 0.0000 15.8511
#
#
#
# Elastic Compliance Matrix: (Units=1/GPa)
#
#
# Indices 1 2 3 4 5 6 
#
# 1 0.011514 0.000177 -0.006965 0.000000 0.000000 0.000000
# 2 0.000177 0.015234 -0.000711 0.000000 0.000000 0.000000
# 3 -0.006965 -0.000711 0.026881 0.000000 0.000000 0.000000
# 4 0.000000 0.000000 0.000000 1.495948 0.000000 0.000000
# 5 0.000000 0.000000 0.000000 0.000000 0.344371 0.000000
# 6 0.000000 0.000000 0.000000 0.000000 0.000000 0.063087
#
#
# Mechanical properties :
#
#
# Convention : Reuss Voigt Hill
#
# Bulk Modulus (GPa) = 25.88643 29.98435 27.93539
# Shear Modulus (GPa) = 2.51901 16.17787 9.34844
#
# Velocity S-wave (km/s) = 1.06066 2.68795 2.04329
# Velocity P-wave (km/s) = 3.61399 4.79839 4.24768
#
# Compressibility (1/GPa) = 0.03863028
#
# Stress axis : x y z
#
# Youngs Moduli (GPa) = 86.85174 65.64465 37.20090
#
# Poissons Ratio (x) = -0.01164 0.25911
# Poissons Ratio (y) = -0.01540 0.02646
# Poissons Ratio (z) = 0.60494 0.04668
#
# Static dielectric constant tensor:
#      x y z
#    x 1.475070 0.000000 0.000000 
#    y 0.000000 1.872090 0.000000 
#    z 0.000000 0.000000 1.882020 
# 
# From -- ./inp_files/15154.got.cif
#   From: 2010.05.17/outbox.cif.g08.bks.cpg/sg20_8_cif.got.tgz:15154.got - 2010.06.03 22:52:26.
