data_PCOD9318238
_publ_section_title
;
Structure prediction by ZEFSAII (Michael W. Deem and Ramdas Pophale) SiO2 
 PCOD9318238
Probable space group: C 2 2 21
;
_chemical_formula_sum "Si O2"
_cell_formula_units_Z 28
_cell_length_a 22.880716
_cell_length_b 5.215319
_cell_length_c 9.476527
_cell_angle_alpha 90.000000
_cell_angle_beta 90.000000
_cell_angle_gamma 90.000000
_cell_volume 1130.836174
_symmetry_space_group_name_H-M "C 2 2 21"
_symmetry_group_IT_number 20
_symmetry_cell_setting 'orthorhombic'
loop_
_space_group_symop_operation_xyz
x,y,z
-x,-y,1/2+z
x,-y,-z
-x,y,1/2-z
1/2+x,1/2+y,z
1/2-x,1/2-y,1/2+z
1/2+x,1/2-y,-z
1/2-x,1/2+y,1/2-z
loop_
_atom_site_type_symbol
_atom_site_label
_atom_site_fract_x
_atom_site_fract_y
_atom_site_fract_z
Si Si1 0.051059 0.617830 0.346372
Si Si2 0.014822 0.000000 0.000000
Si Si3 0.734190 0.489375 0.839357
Si Si4 0.625293 0.207969 0.099348
O O1 0.056242 0.500000 0.500000
O O2 0.107741 0.598325 0.251442
O O3 0.000000 0.496131 0.250000
O O4 0.030354 0.911272 0.378182
O O5 0.064017 0.221619 0.978382
O O6 0.744092 0.225521 0.757294
O O7 0.665508 0.551989 0.862679
O O8 0.759286 0.500000 0.000000
O O9 0.656138 0.000000 0.000000
#
# Coordination Sequence:
#
# PCOD9318238 Si02
#       4
#     8   4   8   8
#     4  10  22  40  64 101 145 192 249 305 370 455
#     4  10  20  38  66  96 144 188 242 294 380 450
#     4  12  27  53  83 113 154 199 266 330 401 468
#     4  11  24  44  73 101 144 200 247 315 395 452
#
# _framework density 24.760438000000001
#
# number of rings (size 3 to 8) (size 9 to 14) (size 15 to 20)
#    0.000    1.143    1.429    6.000    0.000   11.429 
#    5.143    0.000    0.000    0.000    0.000    0.000 
#    0.000    0.000    0.000    0.000    0.000    0.000 
#
# Total GULP energy -78054.072726 kJ/mol
# GULP energy per Si atom -5575.290909 kJ/mol
# Density = 2.470408 g / cm^3
# Si number density = 24.760438 Si / 1000 Ang^3
#
#
#
# Elastic Constant Matrix: (Units=GPa)
#
#
# Indices 1 2 3 4 5 6 
#
# 1 60.3310 14.5738 31.2745 0.0000 0.0000 0.0000
# 2 14.5738 112.9148 74.7917 0.0000 0.0000 0.0000
# 3 31.2745 74.7917 233.8664 0.0000 0.0000 0.0000
# 4 0.0000 0.0000 0.0000 64.8001 0.0000 0.0000
# 5 0.0000 0.0000 0.0000 0.0000 33.7541 0.0000
# 6 0.0000 0.0000 0.0000 0.0000 0.0000 30.1722
#
#
#
# Elastic Compliance Matrix: (Units=1/GPa)
#
#
# Indices 1 2 3 4 5 6 
#
# 1 0.017885 -0.000919 -0.002098 0.000000 0.000000 0.000000
# 2 -0.000919 0.011284 -0.003486 0.000000 0.000000 0.000000
# 3 -0.002098 -0.003486 0.005671 0.000000 0.000000 0.000000
# 4 0.000000 0.000000 0.000000 0.015432 0.000000 0.000000
# 5 0.000000 0.000000 0.000000 0.000000 0.029626 0.000000
# 6 0.000000 0.000000 0.000000 0.000000 0.000000 0.033143
#
#
# Mechanical properties :
#
#
# Convention : Reuss Voigt Hill
#
# Bulk Modulus (GPa) = 45.79835 72.04357 58.92096
# Shear Modulus (GPa) = 37.50271 44.84343 41.17307
#
# Velocity S-wave (km/s) = 3.89604 4.26031 4.08224
# Velocity P-wave (km/s) = 6.22700 7.30477 6.78731
#
# Compressibility (1/GPa) = 0.02183485
#
# Stress axis : x y z
#
# Youngs Moduli (GPa) = 55.91387 88.62371 176.32853
#
# Poissons Ratio (x) = 0.08143 0.36991
# Poissons Ratio (y) = 0.05137 0.61463
# Poissons Ratio (z) = 0.11730 0.30892
#
# Static dielectric constant tensor:
#      x y z
#    x 1.962910 0.000000 0.000000 
#    y 0.000000 2.098920 0.000000 
#    z 0.000000 0.000000 1.995890 
# 
# From -- ./inp_files/10906.got.cif
#   From: 2010.05.17/outbox.cif.g08.bks.cpg/sg20_6_cif.got.tgz:10906.got - 2010.06.03 22:52:26.
