data_PCOD9318196
_publ_section_title
;
Structure prediction by ZEFSAII (Michael W. Deem and Ramdas Pophale) SiO2 
 PCOD9318196
Probable space group: C 2 2 21
;
_chemical_formula_sum "Si O2"
_cell_formula_units_Z 60
_cell_length_a 4.774626
_cell_length_b 19.530786
_cell_length_c 24.598190
_cell_angle_alpha 90.000000
_cell_angle_beta 90.000000
_cell_angle_gamma 90.000000
_cell_volume 2293.835300
_symmetry_space_group_name_H-M "C 2 2 21"
_symmetry_group_IT_number 20
_symmetry_cell_setting 'orthorhombic'
loop_
_space_group_symop_operation_xyz
x,y,z
-x,-y,1/2+z
x,-y,-z
-x,y,1/2-z
1/2+x,1/2+y,z
1/2-x,1/2-y,1/2+z
1/2+x,1/2-y,-z
1/2-x,1/2+y,1/2-z
loop_
_atom_site_type_symbol
_atom_site_label
_atom_site_fract_x
_atom_site_fract_y
_atom_site_fract_z
Si Si1 0.244850 0.529603 0.910436
Si Si2 0.000000 0.952442 0.250000
Si Si3 0.258110 0.679221 0.212590
Si Si4 0.763649 0.715632 0.025830
Si Si5 0.644371 0.371215 0.155758
Si Si6 0.017331 0.070073 0.484944
Si Si7 0.372021 0.779243 0.359533
Si Si8 0.610979 0.038059 0.187527
O O1 0.477995 0.578402 0.883827
O O2 0.357083 0.453654 0.927466
O O3 0.019051 0.507878 0.864065
O O4 0.234372 0.566749 0.969503
O O5 0.202020 0.901949 0.215796
O O6 0.903161 0.001538 0.201701
O O7 0.500000 0.645239 0.250000
O O8 0.438920 0.735072 0.181197
O O9 0.129250 0.618342 0.176264
O O10 0.000000 0.702772 0.250000
O O11 0.653425 0.639352 0.015139
O O12 0.702333 0.736053 0.087667
O O13 0.083482 0.732116 0.011670
O O14 0.921252 0.342455 0.127632
O O15 0.413163 0.310883 0.163289
O O16 0.847135 0.000000 0.500000
O O17 0.500000 0.032634 0.250000
#
# Coordination Sequence:
#
# PCOD9318196 Si02
#       8
#     8   4   8   8   8   8   8   8
#     4   8  18  39  64  93 135 165 232 273 351 391
#     4  10  24  40  62  92 132 176 228 272 344 404
#     4  11  24  42  65  93 134 177 228 275 338 407
#     4  12  25  46  74 103 140 182 232 287 358 424
#     4  11  25  42  66  98 136 182 225 284 341 421
#     4   8  19  40  74  95 136 175 230 288 350 410
#     4  12  26  42  68  96 138 177 230 278 352 409
#     4  10  20  38  63  94 127 177 222 281 339 411
#
# _framework density 26.157064999999999
#
# number of rings (size 3 to 8) (size 9 to 14) (size 15 to 20)
#    0.800    0.800    0.667    4.000    6.533    0.000 
#    0.000    2.000    0.000    0.000    0.000    0.000 
#    0.000    0.000    0.000    0.000    0.000    0.000 
#
# Total GULP energy -167308.791263 kJ/mol
# GULP energy per Si atom -5576.959709 kJ/mol
# Density = 2.609753 g / cm^3
# Si number density = 26.157065 Si / 1000 Ang^3
#
#
#
# Elastic Constant Matrix: (Units=GPa)
#
#
# Indices 1 2 3 4 5 6 
#
# 1 97.7078 18.9426 14.5751 0.0000 0.0000 0.0000
# 2 18.9426 101.5149 51.9581 0.0000 0.0000 0.0000
# 3 14.5751 51.9581 72.3448 0.0000 0.0000 0.0000
# 4 0.0000 0.0000 0.0000 31.7903 0.0000 0.0000
# 5 0.0000 0.0000 0.0000 0.0000 15.0530 0.0000
# 6 0.0000 0.0000 0.0000 0.0000 0.0000 22.3393
#
#
#
# Elastic Compliance Matrix: (Units=1/GPa)
#
#
# Indices 1 2 3 4 5 6 
#
# 1 0.010678 -0.001410 -0.001139 0.000000 0.000000 0.000000
# 2 -0.001410 0.015763 -0.011037 0.000000 0.000000 0.000000
# 3 -0.001139 -0.011037 0.021979 0.000000 0.000000 0.000000
# 4 0.000000 0.000000 0.000000 0.031456 0.000000 0.000000
# 5 0.000000 0.000000 0.000000 0.000000 0.066432 0.000000
# 6 0.000000 0.000000 0.000000 0.000000 0.000000 0.044764
#
#
# Mechanical properties :
#
#
# Convention : Reuss Voigt Hill
#
# Bulk Modulus (GPa) = 47.06153 49.16878 48.11516
# Shear Modulus (GPa) = 22.19019 26.24265 24.21642
#
# Velocity S-wave (km/s) = 2.91579 3.17088 3.04601
# Velocity P-wave (km/s) = 5.41911 5.67841 5.55027
#
# Compressibility (1/GPa) = 0.02124878
#
# Stress axis : x y z
#
# Youngs Moduli (GPa) = 93.65263 63.44071 45.49841
#
# Poissons Ratio (x) = 0.08942 0.05182
# Poissons Ratio (y) = 0.13201 0.50216
# Poissons Ratio (z) = 0.10666 0.70018
#
# Static dielectric constant tensor:
#      x y z
#    x 2.110910 0.000000 0.000000 
#    y 0.000000 2.117470 0.000000 
#    z 0.000000 0.000000 2.167270 
# 
# From -- ./inp_files/28469.got.cif
#   From: 2010.05.17/outbox.cif.g08.bks.cpg/sg20_15_cif.got.tgz:28469.got - 2010.06.03 22:52:26.
