data_PCOD9318710
_publ_section_title
;
Structure prediction by ZEFSAII (Michael W. Deem and Ramdas Pophale) SiO2 
 PCOD9318710
Probable space group: C 2 2 21
;
_chemical_formula_sum "Si O2"
_cell_formula_units_Z 40
_cell_length_a 11.072434
_cell_length_b 9.040403
_cell_length_c 16.750257
_cell_angle_alpha 90.000000
_cell_angle_beta 90.000000
_cell_angle_gamma 90.000000
_cell_volume 1676.688423
_symmetry_space_group_name_H-M "C 2 2 21"
_symmetry_group_IT_number 20
_symmetry_cell_setting 'orthorhombic'
loop_
_space_group_symop_operation_xyz
x,y,z
-x,-y,1/2+z
x,-y,-z
-x,y,1/2-z
1/2+x,1/2+y,z
1/2-x,1/2-y,1/2+z
1/2+x,1/2-y,-z
1/2-x,1/2+y,1/2-z
loop_
_atom_site_type_symbol
_atom_site_label
_atom_site_fract_x
_atom_site_fract_y
_atom_site_fract_z
Si Si1 0.694197 0.147972 0.960067
Si Si2 0.843596 0.724943 0.176814
Si Si3 0.696455 0.610295 0.925857
Si Si4 0.540126 0.967011 0.404148
Si Si5 0.125639 0.032392 0.230998
O O1 0.790369 0.241560 0.911297
O O2 0.586754 0.115973 0.897613
O O3 0.649217 0.239570 0.036543
O O4 0.745050 0.000000 0.000000
O O5 0.948055 0.606870 0.155368
O O6 0.866033 0.885489 0.214147
O O7 0.742531 0.637848 0.229002
O O8 0.834334 0.622410 0.893646
O O9 0.619218 0.536680 0.857380
O O10 0.697145 0.500000 0.000000
O O11 0.538097 0.000000 0.500000
O O12 0.000000 0.112026 0.250000
#
# Coordination Sequence:
#
# PCOD9318710 Si02
#       5
#     8   8   8   8   8
#     4  11  23  39  74 101 126 180 228 270 347 398
#     4  11  25  48  62 102 138 172 227 281 334 409
#     4  10  20  46  66  94 140 173 226 286 322 406
#     4   9  19  40  69  92 134 168 212 287 328 387
#     4  11  27  43  70  97 139 178 223 280 345 396
#
# _framework density 23.856549000000001
#
# number of rings (size 3 to 8) (size 9 to 14) (size 15 to 20)
#    0.000    1.600    6.000    0.000    8.400    3.200 
#    0.000    2.000    0.000    0.000    0.000    0.000 
#    0.000    0.000    0.000    0.000    0.000    0.000 
#
# Total GULP energy -111685.883852 kJ/mol
# GULP energy per Si atom -5584.294193 kJ/mol
# Density = 2.380225 g / cm^3
# Si number density = 23.856549 Si / 1000 Ang^3
#
#
#
# Elastic Constant Matrix: (Units=GPa)
#
#
# Indices 1 2 3 4 5 6 
#
# 1 37.1967 8.5042 2.2570 0.0000 0.0000 0.0000
# 2 8.5042 63.0928 -7.2398 0.0000 0.0000 0.0000
# 3 2.2570 -7.2398 54.9916 0.0000 0.0000 0.0000
# 4 0.0000 0.0000 0.0000 53.5979 0.0000 0.0000
# 5 0.0000 0.0000 0.0000 0.0000 18.0901 0.0000
# 6 0.0000 0.0000 0.0000 0.0000 0.0000 24.0673
#
#
#
# Elastic Compliance Matrix: (Units=1/GPa)
#
#
# Indices 1 2 3 4 5 6 
#
# 1 0.027888 -0.003950 -0.001665 0.000000 0.000000 0.000000
# 2 -0.003950 0.016652 0.002354 0.000000 0.000000 0.000000
# 3 -0.001665 0.002354 0.018563 0.000000 0.000000 0.000000
# 4 0.000000 0.000000 0.000000 0.018657 0.000000 0.000000
# 5 0.000000 0.000000 0.000000 0.000000 0.055279 0.000000
# 6 0.000000 0.000000 0.000000 0.000000 0.000000 0.041550
#
#
# Mechanical properties :
#
#
# Convention : Reuss Voigt Hill
#
# Bulk Modulus (GPa) = 17.67318 18.03598 17.85458
# Shear Modulus (GPa) = 24.51325 29.26837 26.89081
#
# Velocity S-wave (km/s) = 3.20898 3.50644 3.36100
# Velocity P-wave (km/s) = 4.59938 4.89593 4.74997
#
# Compressibility (1/GPa) = 0.05658291
#
# Stress axis : x y z
#
# Youngs Moduli (GPa) = 35.85742 60.05192 53.87092
#
# Poissons Ratio (x) = 0.23721 0.08968
# Poissons Ratio (y) = 0.14164 -0.12684
# Poissons Ratio (z) = 0.05969 -0.14139
#
# Static dielectric constant tensor:
#      x y z
#    x 2.000880 0.000000 0.000000 
#    y 0.000000 2.120550 0.000000 
#    z 0.000000 0.000000 2.012380 
# 
# From -- ./inp_files/24090.got.cif
#   From: 2010.05.17/outbox.cif.g08.bks.cpg/sg20_13_cif.got.tgz:24090.got - 2010.06.03 22:52:26.
