data_PCOD9318153
_publ_section_title
;
Structure prediction by ZEFSAII (Michael W. Deem and Ramdas Pophale) SiO2 
 PCOD9318153
Probable space group: C 2 2 21
;
_chemical_formula_sum "Si O2"
_cell_formula_units_Z 56
_cell_length_a 32.858368
_cell_length_b 5.510816
_cell_length_c 14.193169
_cell_angle_alpha 90.000000
_cell_angle_beta 90.000000
_cell_angle_gamma 90.000000
_cell_volume 2570.048233
_symmetry_space_group_name_H-M "C 2 2 21"
_symmetry_group_IT_number 20
_symmetry_cell_setting 'orthorhombic'
loop_
_space_group_symop_operation_xyz
x,y,z
-x,-y,1/2+z
x,-y,-z
-x,y,1/2-z
1/2+x,1/2+y,z
1/2-x,1/2-y,1/2+z
1/2+x,1/2-y,-z
1/2-x,1/2+y,1/2-z
loop_
_atom_site_type_symbol
_atom_site_label
_atom_site_fract_x
_atom_site_fract_y
_atom_site_fract_z
Si Si1 0.964632 0.544988 0.830463
Si Si2 0.668595 0.749570 0.440348
Si Si3 0.586483 0.402576 0.101769
Si Si4 0.006264 0.054687 0.636813
Si Si5 0.239281 0.246024 0.940154
Si Si6 0.340544 0.061946 0.389800
Si Si7 0.617883 0.228783 0.744867
O O1 0.920749 0.562880 0.782617
O O2 0.000000 0.532430 0.750000
O O3 0.966759 0.289594 0.883703
O O4 0.975193 0.791846 0.887348
O O5 0.667229 0.500000 0.500000
O O6 0.714998 0.779926 0.401812
O O7 0.637730 0.712217 0.354852
O O8 0.660356 0.000000 0.500000
O O9 0.538160 0.384116 0.096782
O O10 0.614479 0.172926 0.117875
O O11 0.596759 0.569458 0.190511
O O12 0.600624 0.500000 0.000000
O O13 0.000000 0.038879 0.750000
O O14 0.199878 0.278821 0.873455
O O15 0.241406 0.500000 0.000000
O O16 0.231681 0.000000 0.000000
O O17 0.338037 0.000000 0.500000
O O18 0.344819 0.858440 0.311187
#
# Coordination Sequence:
#
# PCOD9318153 Si02
#       7
#     8   8   8   8   8   8   8
#     4  10  20  39  64  87 123 176 219 272 343 392
#     4  10  25  50  73 100 134 187 248 295 349 403
#     4  12  24  40  65 102 144 182 226 285 360 433
#     4  10  20  38  62  83 124 175 221 266 332 406
#     4   9  20  43  69  94 140 184 222 287 341 410
#     4  11  23  39  65 104 144 183 223 273 356 435
#     4  12  25  43  72 100 140 186 229 304 344 422
#
# _framework density 21.789473000000001
#
# number of rings (size 3 to 8) (size 9 to 14) (size 15 to 20)
#    0.000    1.429    4.286    2.143    4.000    0.000 
#    2.571    2.143    0.000    0.000    0.000    0.000 
#    0.000    0.000    0.000    0.000    0.000    0.000 
#
# Total GULP energy -155968.210459 kJ/mol
# GULP energy per Si atom -5570.293231 kJ/mol
# Density = 2.173988 g / cm^3
# Si number density = 21.789473 Si / 1000 Ang^3
#
#
#
# Elastic Constant Matrix: (Units=GPa)
#
#
# Indices 1 2 3 4 5 6 
#
# 1 75.4595 -19.4366 56.2116 0.0000 0.0000 0.0000
# 2 -19.4366 87.9986 30.3943 0.0000 0.0000 0.0000
# 3 56.2116 30.3943 78.8499 0.0000 0.0000 0.0000
# 4 0.0000 0.0000 0.0000 -3.3406 0.0000 0.0000
# 5 0.0000 0.0000 0.0000 0.0000 55.2370 0.0000
# 6 0.0000 0.0000 0.0000 0.0000 0.0000 9.2746
#
#
#
# Elastic Compliance Matrix: (Units=1/GPa)
#
#
# Indices 1 2 3 4 5 6 
#
# 1 0.075542 0.040706 -0.069545 0.000000 0.000000 0.000000
# 2 0.040706 0.035043 -0.042527 0.000000 0.000000 0.000000
# 3 -0.069545 -0.042527 0.078653 0.000000 0.000000 0.000000
# 4 0.000000 0.000000 0.000000 -0.299347 0.000000 0.000000
# 5 0.000000 0.000000 0.000000 0.000000 0.018104 0.000000
# 6 0.000000 0.000000 0.000000 0.000000 0.000000 0.107821
#
#
# Mechanical properties :
#
#
# Convention : Reuss Voigt Hill
#
# Bulk Modulus (GPa) = 21.50209 41.84963 31.67586
# Shear Modulus (GPa) = 28.72719 23.91012 26.31865
#
# Velocity S-wave (km/s) = 3.63491 3.31618 3.47920
# Velocity P-wave (km/s) = 5.24465 5.82330 5.54153
#
# Compressibility (1/GPa) = 0.04650711
#
# Stress axis : x y z
#
# Youngs Moduli (GPa) = 13.23759 28.53612 12.71404
#
# Poissons Ratio (x) = -1.16158 0.88419
# Poissons Ratio (y) = -0.53885 0.54069
# Poissons Ratio (z) = 0.92060 1.21356
#
# Static dielectric constant tensor:
#      x y z
#    x 1.929850 0.000000 0.000000 
#    y 0.000000 1.962150 0.000000 
#    z 0.000000 0.000000 1.815570 
# 
# From -- ./inp_files/22308.got.cif
#   From: 2010.05.17/outbox.cif.g08.bks.cpg/sg20_12_cif.got.tgz:22308.got - 2010.06.03 22:52:26.
