data_PCOD9318599
_publ_section_title
;
Structure prediction by ZEFSAII (Michael W. Deem and Ramdas Pophale) SiO2 
 PCOD9318599
Probable space group: C 2 2 21
;
_chemical_formula_sum "Si O2"
_cell_formula_units_Z 48
_cell_length_a 14.789210
_cell_length_b 26.697468
_cell_length_c 5.483936
_cell_angle_alpha 90.000000
_cell_angle_beta 90.000000
_cell_angle_gamma 90.000000
_cell_volume 2165.246913
_symmetry_space_group_name_H-M "C 2 2 21"
_symmetry_group_IT_number 20
_symmetry_cell_setting 'orthorhombic'
loop_
_space_group_symop_operation_xyz
x,y,z
-x,-y,1/2+z
x,-y,-z
-x,y,1/2-z
1/2+x,1/2+y,z
1/2-x,1/2-y,1/2+z
1/2+x,1/2-y,-z
1/2-x,1/2+y,1/2-z
loop_
_atom_site_type_symbol
_atom_site_label
_atom_site_fract_x
_atom_site_fract_y
_atom_site_fract_z
Si Si1 0.763140 0.810185 0.592955
Si Si2 0.815293 0.558201 0.550564
Si Si3 0.406481 0.767504 0.396306
Si Si4 0.000000 0.532478 0.750000
Si Si5 0.000000 0.811647 0.250000
Si Si6 0.605108 0.142815 0.218516
Si Si7 0.172657 0.861277 0.405240
O O1 0.808948 0.757273 0.663944
O O2 0.654950 0.819117 0.596541
O O3 0.794600 0.833055 0.338876
O O4 0.795180 0.842071 0.829869
O O5 0.801234 0.500000 0.500000
O O6 0.904625 0.562015 0.724877
O O7 0.848844 0.589266 0.313537
O O8 0.722029 0.584985 0.625926
O O9 0.500000 0.768054 0.250000
O O10 0.438379 0.727405 0.601751
O O11 0.387276 0.823853 0.475155
O O12 0.004361 0.500000 0.500000
O O13 0.934279 0.848247 0.097239
O O14 0.500000 0.135587 0.250000
#
# Coordination Sequence:
#
# PCOD9318599 Si02
#       7
#     8   8   8   4   4   8   8
#     4  10  24  43  64  96 135 174 217 271 329 395
#     4  10  25  44  67  94 133 180 221 284 321 384
#     4  11  22  40  67  92 136 173 218 267 333 399
#     4  10  24  42  67  92 122 174 225 270 330 380
#     4  10  20  42  67  98 132 168 215 268 342 398
#     4  11  26  40  63 100 131 178 226 273 321 396
#     4  10  22  42  71  98 129 172 222 270 332 398
#
# _framework density 22.168371
#
# number of rings (size 3 to 8) (size 9 to 14) (size 15 to 20)
#    0.000    1.667    2.500    0.000    8.167   10.667 
#    0.000    0.000    0.000    9.000    0.000    0.000 
#    0.000    0.000    0.000    0.000    0.000    0.000 
#
# Total GULP energy -133676.901291 kJ/mol
# GULP energy per Si atom -5569.870887 kJ/mol
# Density = 2.211792 g / cm^3
# Si number density = 22.168371 Si / 1000 Ang^3
#
#
#
# Elastic Constant Matrix: (Units=GPa)
#
#
# Indices 1 2 3 4 5 6 
#
# 1 75.8675 43.7537 4.8564 0.0000 0.0000 0.0000
# 2 43.7537 150.8879 15.7230 0.0000 0.0000 0.0000
# 3 4.8564 15.7230 65.2100 0.0000 0.0000 0.0000
# 4 0.0000 0.0000 0.0000 19.7120 0.0000 0.0000
# 5 0.0000 0.0000 0.0000 0.0000 31.7087 0.0000
# 6 0.0000 0.0000 0.0000 0.0000 0.0000 33.5780
#
#
#
# Elastic Compliance Matrix: (Units=1/GPa)
#
#
# Indices 1 2 3 4 5 6 
#
# 1 0.015828 -0.004582 -0.000074 0.000000 0.000000 0.000000
# 2 -0.004582 0.008125 -0.001618 0.000000 0.000000 0.000000
# 3 -0.000074 -0.001618 0.015731 0.000000 0.000000 0.000000
# 4 0.000000 0.000000 0.000000 0.050730 0.000000 0.000000
# 5 0.000000 0.000000 0.000000 0.000000 0.031537 0.000000
# 6 0.000000 0.000000 0.000000 0.000000 0.000000 0.029781
#
#
# Mechanical properties :
#
#
# Convention : Reuss Voigt Hill
#
# Bulk Modulus (GPa) = 36.85150 46.73684 41.79417
# Shear Modulus (GPa) = 28.84749 32.17522 30.51136
#
# Velocity S-wave (km/s) = 3.61125 3.81386 3.71394
# Velocity P-wave (km/s) = 5.83505 6.36573 6.10615
#
# Compressibility (1/GPa) = 0.02713594
#
# Stress axis : x y z
#
# Youngs Moduli (GPa) = 63.17866 123.08163 63.57017
#
# Poissons Ratio (x) = 0.56397 0.00470
# Poissons Ratio (y) = 0.28949 0.10284
# Poissons Ratio (z) = 0.00467 0.19911
#
# Static dielectric constant tensor:
#      x y z
#    x 2.011920 0.000000 0.000000 
#    y 0.000000 1.799980 0.000000 
#    z 0.000000 0.000000 1.934680 
# 
# From -- ./inp_files/2100.got.cif
#   From: 2010.05.17/outbox.cif.g08.bks.cpg/sg20_2_cif.got.tgz:2100.got - 2010.06.03 22:52:26.
