data_PCOD9318814
_publ_section_title
;
Structure prediction by ZEFSAII (Michael W. Deem and Ramdas Pophale) SiO2 
 PCOD9318814
Probable space group: C 2 2 21
;
_chemical_formula_sum "Si O2"
_cell_formula_units_Z 48
_cell_length_a 11.486139
_cell_length_b 7.287872
_cell_length_c 24.449567
_cell_angle_alpha 90.000000
_cell_angle_beta 90.000000
_cell_angle_gamma 90.000000
_cell_volume 2046.661293
_symmetry_space_group_name_H-M "C 2 2 21"
_symmetry_group_IT_number 20
_symmetry_cell_setting 'orthorhombic'
loop_
_space_group_symop_operation_xyz
x,y,z
-x,-y,1/2+z
x,-y,-z
-x,y,1/2-z
1/2+x,1/2+y,z
1/2-x,1/2-y,1/2+z
1/2+x,1/2-y,-z
1/2-x,1/2+y,1/2-z
loop_
_atom_site_type_symbol
_atom_site_label
_atom_site_fract_x
_atom_site_fract_y
_atom_site_fract_z
Si Si1 0.345958 0.382085 0.600584
Si Si2 0.572772 0.719228 0.461132
Si Si3 0.026455 0.286683 0.812713
Si Si4 0.600412 0.854566 0.574356
Si Si5 0.997622 0.157522 0.189083
Si Si6 0.742612 0.717269 0.373502
O O1 0.461923 0.376368 0.565481
O O2 0.235509 0.297774 0.571851
O O3 0.389425 0.281473 0.655176
O O4 0.296650 0.583409 0.613471
O O5 0.551166 0.729277 0.525823
O O6 0.692321 0.645537 0.432315
O O7 0.576574 0.934692 0.442816
O O8 0.941640 0.337509 0.863272
O O9 0.000000 0.346519 0.750000
O O10 0.152514 0.354864 0.835112
O O11 0.012046 0.064170 0.810907
O O12 0.876145 0.212614 0.161504
O O13 0.000000 0.226114 0.250000
#
# Coordination Sequence:
#
# PCOD9318814 Si02
#       6
#     8   8   8   8   8   8
#     4   9  19  37  59  84 117 157 211 254 317 383
#     4   9  20  39  59  88 119 163 214 267 325 385
#     4  10  22  37  57  92 129 163 212 264 328 400
#     4  10  21  36  60  87 124 162 208 268 324 388
#     4   9  19  37  60  86 123 166 209 260 318 389
#     4   9  19  38  61  85 121 164 204 262 318 377
#
# _framework density 23.452829999999999
#
# number of rings (size 3 to 8) (size 9 to 14) (size 15 to 20)
#    0.000    2.667    0.000    0.000    4.667    1.333 
#    3.000   10.000    0.000    0.000    0.000    0.000 
#    0.000    0.000    0.000    0.000    0.000    0.000 
#
# Total GULP energy -133691.432223 kJ/mol
# GULP energy per Si atom -5570.476343 kJ/mol
# Density = 2.339945 g / cm^3
# Si number density = 23.452830 Si / 1000 Ang^3
#
#
#
# Elastic Constant Matrix: (Units=GPa)
#
#
# Indices 1 2 3 4 5 6 
#
# 1 137.2311 40.9687 38.3522 0.0000 0.0000 0.0000
# 2 40.9687 89.6016 47.8672 0.0000 0.0000 0.0000
# 3 38.3522 47.8672 143.0563 0.0000 0.0000 0.0000
# 4 0.0000 0.0000 0.0000 18.9341 0.0000 0.0000
# 5 0.0000 0.0000 0.0000 0.0000 24.7800 0.0000
# 6 0.0000 0.0000 0.0000 0.0000 0.0000 7.2456
#
#
#
# Elastic Compliance Matrix: (Units=1/GPa)
#
#
# Indices 1 2 3 4 5 6 
#
# 1 0.008606 -0.003291 -0.001206 0.000000 0.000000 0.000000
# 2 -0.003291 0.014848 -0.004086 0.000000 0.000000 0.000000
# 3 -0.001206 -0.004086 0.008681 0.000000 0.000000 0.000000
# 4 0.000000 0.000000 0.000000 0.052815 0.000000 0.000000
# 5 0.000000 0.000000 0.000000 0.000000 0.040355 0.000000
# 6 0.000000 0.000000 0.000000 0.000000 0.000000 0.138015
#
#
# Mechanical properties :
#
#
# Convention : Reuss Voigt Hill
#
# Bulk Modulus (GPa) = 66.80307 69.36279 68.08293
# Shear Modulus (GPa) = 17.51459 26.37201 21.94330
#
# Velocity S-wave (km/s) = 2.73573 3.35695 3.06213
# Velocity P-wave (km/s) = 6.20684 6.68320 6.44942
#
# Compressibility (1/GPa) = 0.01496937
#
# Stress axis : x y z
#
# Youngs Moduli (GPa) = 116.19125 67.34927 115.19662
#
# Poissons Ratio (x) = 0.22163 0.13895
# Poissons Ratio (y) = 0.38236 0.47069
# Poissons Ratio (z) = 0.14015 0.27519
#
# Static dielectric constant tensor:
#      x y z
#    x 1.884850 0.000000 0.000000 
#    y 0.000000 1.976370 0.000000 
#    z 0.000000 0.000000 2.056010 
# 
# From -- ./inp_files/29085.got.cif
#   From: 2010.05.17/outbox.cif.g08.bks.cpg/sg20_15_cif.got.tgz:29085.got - 2010.06.03 22:52:26.
