data_PCOD9318149
_publ_section_title
;
Structure prediction by ZEFSAII (Michael W. Deem and Ramdas Pophale) SiO2 
 PCOD9318149
Probable space group: C 2 2 21
;
_chemical_formula_sum "Si O2"
_cell_formula_units_Z 56
_cell_length_a 6.201960
_cell_length_b 29.024930
_cell_length_c 12.940911
_cell_angle_alpha 90.000000
_cell_angle_beta 90.000000
_cell_angle_gamma 90.000000
_cell_volume 2329.512216
_symmetry_space_group_name_H-M "C 2 2 21"
_symmetry_group_IT_number 20
_symmetry_cell_setting 'orthorhombic'
loop_
_space_group_symop_operation_xyz
x,y,z
-x,-y,1/2+z
x,-y,-z
-x,y,1/2-z
1/2+x,1/2+y,z
1/2-x,1/2-y,1/2+z
1/2+x,1/2-y,-z
1/2-x,1/2+y,1/2-z
loop_
_atom_site_type_symbol
_atom_site_label
_atom_site_fract_x
_atom_site_fract_y
_atom_site_fract_z
Si Si1 0.500000 0.679760 0.250000
Si Si2 0.000000 0.532657 0.750000
Si Si3 0.253010 0.333073 0.248800
Si Si4 0.510992 0.384031 0.582624
Si Si5 0.342885 0.821403 0.027803
Si Si6 0.762575 0.530329 0.092745
Si Si7 0.393506 0.084545 0.543360
Si Si8 0.652981 0.756717 0.650996
O O1 0.374109 0.645321 0.172332
O O2 0.643752 0.712789 0.182545
O O3 0.170544 0.501057 0.688877
O O4 0.100789 0.562685 0.842831
O O5 0.500000 0.356423 0.250000
O O6 0.239697 0.306786 0.359307
O O7 0.274855 0.296384 0.156316
O O8 0.000000 0.351550 0.250000
O O9 0.356806 0.348445 0.524248
O O10 0.372419 0.425848 0.628578
O O11 0.658146 0.408494 0.499348
O O12 0.506211 0.864341 0.037503
O O13 0.422218 0.779260 0.956585
O O14 0.657424 0.500000 0.000000
O O15 0.970692 0.552001 0.033722
O O16 0.500000 0.763432 0.750000
#
# Coordination Sequence:
#
# PCOD9318149 Si02
#       8
#     4   4   8   8   8   8   8   8
#     4  10  20  38  61  94 122 166 226 276 339 422
#     4  10  22  40  69  92 138 178 224 294 359 434
#     4  11  26  44  69 104 141 188 240 290 362 428
#     4  10  22  39  63  94 127 169 227 278 349 422
#     4  10  24  42  67  98 137 181 230 299 346 436
#     4   9  21  41  57  93 130 165 224 277 347 429
#     4  10  22  42  66  96 133 181 226 287 363 422
#     4  10  21  43  64  96 137 177 230 288 355 425
#
# _framework density 24.039366000000001
#
# number of rings (size 3 to 8) (size 9 to 14) (size 15 to 20)
#    0.000    2.000    0.714    0.857    5.000    4.000 
#    2.571    6.429    0.000    0.000    0.000    0.000 
#    0.000    0.000    0.000    0.000    0.000    0.000 
#
# Total GULP energy -156119.136766 kJ/mol
# GULP energy per Si atom -5575.683456 kJ/mol
# Density = 2.398465 g / cm^3
# Si number density = 24.039366 Si / 1000 Ang^3
#
#
#
# Elastic Constant Matrix: (Units=GPa)
#
#
# Indices 1 2 3 4 5 6 
#
# 1 86.9299 26.2249 14.0240 0.0000 0.0000 0.0000
# 2 26.2249 91.3880 29.6186 0.0000 0.0000 0.0000
# 3 14.0240 29.6186 87.3503 0.0000 0.0000 0.0000
# 4 0.0000 0.0000 0.0000 16.1526 0.0000 0.0000
# 5 0.0000 0.0000 0.0000 0.0000 25.3727 0.0000
# 6 0.0000 0.0000 0.0000 0.0000 0.0000 56.1765
#
#
#
# Elastic Compliance Matrix: (Units=1/GPa)
#
#
# Indices 1 2 3 4 5 6 
#
# 1 0.012656 -0.003340 -0.000899 0.000000 0.000000 0.000000
# 2 -0.003340 0.013175 -0.003931 0.000000 0.000000 0.000000
# 3 -0.000899 -0.003931 0.012925 0.000000 0.000000 0.000000
# 4 0.000000 0.000000 0.000000 0.061909 0.000000 0.000000
# 5 0.000000 0.000000 0.000000 0.000000 0.039413 0.000000
# 6 0.000000 0.000000 0.000000 0.000000 0.000000 0.017801
#
#
# Mechanical properties :
#
#
# Convention : Reuss Voigt Hill
#
# Bulk Modulus (GPa) = 44.61251 45.04481 44.82866
# Shear Modulus (GPa) = 27.51895 32.59373 30.05634
#
# Velocity S-wave (km/s) = 3.38708 3.68618 3.53979
# Velocity P-wave (km/s) = 5.82192 6.07419 5.94940
#
# Compressibility (1/GPa) = 0.02241524
#
# Stress axis : x y z
#
# Youngs Moduli (GPa) = 79.01181 75.90146 77.36661
#
# Poissons Ratio (x) = 0.25354 0.06958
# Poissons Ratio (y) = 0.26393 0.30413
# Poissons Ratio (z) = 0.07105 0.29837
#
# Static dielectric constant tensor:
#      x y z
#    x 2.001030 0.000000 0.000000 
#    y 0.000000 1.927310 0.000000 
#    z 0.000000 0.000000 1.969200 
# 
# From -- ./inp_files/18023.got.cif
#   From: 2010.05.17/outbox.cif.g08.bks.cpg/sg20_10_cif.got.tgz:18023.got - 2010.06.03 22:52:26.
