data_PCOD9318854
_publ_section_title
;
Structure prediction by ZEFSAII (Michael W. Deem and Ramdas Pophale) SiO2 
 PCOD9318854
Probable space group: C 2 2 21
;
_chemical_formula_sum "Si O2"
_cell_formula_units_Z 40
_cell_length_a 28.537731
_cell_length_b 11.716351
_cell_length_c 4.965833
_cell_angle_alpha 90.000000
_cell_angle_beta 90.000000
_cell_angle_gamma 90.000000
_cell_volume 1660.366353
_symmetry_space_group_name_H-M "C 2 2 21"
_symmetry_group_IT_number 20
_symmetry_cell_setting 'orthorhombic'
loop_
_space_group_symop_operation_xyz
x,y,z
-x,-y,1/2+z
x,-y,-z
-x,y,1/2-z
1/2+x,1/2+y,z
1/2-x,1/2-y,1/2+z
1/2+x,1/2-y,-z
1/2-x,1/2+y,1/2-z
loop_
_atom_site_type_symbol
_atom_site_label
_atom_site_fract_x
_atom_site_fract_y
_atom_site_fract_z
Si Si1 0.303206 0.324228 0.345233
Si Si2 0.500000 0.418720 0.250000
Si Si3 0.202949 0.338812 0.344426
Si Si4 0.105422 0.652542 0.781396
Si Si5 0.028794 0.500000 0.500000
Si Si6 0.098929 0.199162 0.717809
O O1 0.254510 0.391500 0.302372
O O2 0.300650 0.268864 0.639806
O O3 0.354730 0.374587 0.293006
O O4 0.300486 0.216487 0.139288
O O5 0.506926 0.500000 0.500000
O O6 0.451890 0.349766 0.278669
O O7 0.155602 0.406075 0.276983
O O8 0.061785 0.583533 0.669979
O O9 0.103568 0.765456 0.592999
O O10 0.102817 0.689080 0.090449
O O11 0.000000 0.444163 0.750000
#
# Coordination Sequence:
#
# PCOD9318854 Si02
#       6
#     8   4   8   8   4   8
#     4   8  14  27  50  83 103 138 182 229 269 331
#     4  12  26  42  60  86 116 146 186 250 300 336
#     4   8  14  27  50  78 111 135 183 229 271 323
#     4  10  21  37  57  86 114 154 193 231 278 339
#     4  12  26  38  54  84 126 156 194 244 278 316
#     4  10  21  37  62  83 112 151 194 229 284 357
#
# _framework density 24.091066999999999
#
# number of rings (size 3 to 8) (size 9 to 14) (size 15 to 20)
#    0.000    2.400    0.000    2.400    4.200    0.000 
#    0.000    0.000    2.200    0.000    2.600    0.000 
#    0.000    0.000    0.000    0.000    0.000    0.000 
#
# Total GULP energy -111591.951696 kJ/mol
# GULP energy per Si atom -5579.597585 kJ/mol
# Density = 2.403624 g / cm^3
# Si number density = 24.091067 Si / 1000 Ang^3
#
#
#
# Elastic Constant Matrix: (Units=GPa)
#
#
# Indices 1 2 3 4 5 6 
#
# 1 235.4482 29.5650 10.7262 0.0000 0.0000 0.0000
# 2 29.5650 17.8491 9.0024 0.0000 0.0000 0.0000
# 3 10.7262 9.0024 107.3934 0.0000 0.0000 0.0000
# 4 0.0000 0.0000 0.0000 19.0473 0.0000 0.0000
# 5 0.0000 0.0000 0.0000 0.0000 28.6951 0.0000
# 6 0.0000 0.0000 0.0000 0.0000 0.0000 -110.8362
#
#
#
# Elastic Compliance Matrix: (Units=1/GPa)
#
#
# Indices 1 2 3 4 5 6 
#
# 1 0.005367 -0.009001 0.000218 0.000000 0.000000 0.000000
# 2 -0.009001 0.073592 -0.005270 0.000000 0.000000 0.000000
# 3 0.000218 -0.005270 0.009732 0.000000 0.000000 0.000000
# 4 0.000000 0.000000 0.000000 0.052501 0.000000 0.000000
# 5 0.000000 0.000000 0.000000 0.000000 0.034849 0.000000
# 6 0.000000 0.000000 0.000000 0.000000 0.000000 -0.009022
#
#
# Mechanical properties :
#
#
# Convention : Reuss Voigt Hill
#
# Bulk Modulus (GPa) = 16.50539 51.03089 33.76814
# Shear Modulus (GPa) = 23.22139 8.14105 15.68122
#
# Velocity S-wave (km/s) = 3.10804 1.84028 2.55407
# Velocity P-wave (km/s) = 4.44365 5.07385 4.76917
#
# Compressibility (1/GPa) = 0.06058626
#
# Stress axis : x y z
#
# Youngs Moduli (GPa) = 186.30691 13.58845 102.75904
#
# Poissons Ratio (x) = 0.12231 -0.02244
# Poissons Ratio (y) = 1.67691 0.54154
# Poissons Ratio (z) = -0.04069 0.07161
#
# Static dielectric constant tensor:
#      x y z
#    x 2.093620 0.000000 0.000000 
#    y 0.000000 1.931380 0.000000 
#    z 0.000000 0.000000 1.855810 
# 
# From -- ./inp_files/1932.got.cif
#   From: 2010.05.17/outbox.cif.g08.bks.cpg/sg20_1_cif.got.tgz:1932.got - 2010.06.03 22:52:26.
