data_PCOD9318584
_publ_section_title
;
Structure prediction by ZEFSAII (Michael W. Deem and Ramdas Pophale) SiO2 
 PCOD9318584
Probable space group: C 2 2 21
;
_chemical_formula_sum "Si O2"
_cell_formula_units_Z 44
_cell_length_a 10.625031
_cell_length_b 9.136640
_cell_length_c 20.947068
_cell_angle_alpha 90.000000
_cell_angle_beta 90.000000
_cell_angle_gamma 90.000000
_cell_volume 2033.480264
_symmetry_space_group_name_H-M "C 2 2 21"
_symmetry_group_IT_number 20
_symmetry_cell_setting 'orthorhombic'
loop_
_space_group_symop_operation_xyz
x,y,z
-x,-y,1/2+z
x,-y,-z
-x,y,1/2-z
1/2+x,1/2+y,z
1/2-x,1/2-y,1/2+z
1/2+x,1/2-y,-z
1/2-x,1/2+y,1/2-z
loop_
_atom_site_type_symbol
_atom_site_label
_atom_site_fract_x
_atom_site_fract_y
_atom_site_fract_z
Si Si1 0.199179 0.189952 0.886379
Si Si2 0.856204 0.976893 0.253409
Si Si3 0.366908 0.171363 0.213292
Si Si4 0.025197 0.588620 0.414657
Si Si5 0.445749 0.225638 0.953935
Si Si6 0.604666 0.500000 0.000000
O O1 0.168792 0.110716 0.819874
O O2 0.336703 0.252807 0.902206
O O3 0.095590 0.314858 0.897248
O O4 0.181630 0.074094 0.943501
O O5 0.845063 0.844216 0.203099
O O6 0.000000 0.032589 0.250000
O O7 0.749363 0.098984 0.249476
O O8 0.500000 0.155251 0.250000
O O9 0.383990 0.092507 0.145945
O O10 0.985798 0.422089 0.429391
O O11 0.091212 0.668475 0.474835
O O12 0.523155 0.371691 0.966989
#
# Coordination Sequence:
#
# PCOD9318584 Si02
#       6
#     8   8   8   8   8   4
#     4  11  21  42  65  91 135 169 217 275 328 394
#     4  11  24  43  68  96 133 177 223 275 331 393
#     4  11  23  45  65  98 133 180 220 276 333 403
#     4  10  20  42  65  90 134 173 213 266 341 389
#     4  10  22  39  66  94 126 169 214 271 329 387
#     4  10  24  38  62 102 124 164 220 266 326 388
#
# _framework density 21.637781
#
# number of rings (size 3 to 8) (size 9 to 14) (size 15 to 20)
#    0.000    1.455    5.455    1.091    0.000    5.091 
#    3.273    1.818    0.000    0.000    0.000    0.000 
#    0.000    0.000    0.000    0.000    0.000    0.000 
#
# Total GULP energy -122831.334556 kJ/mol
# GULP energy per Si atom -5583.242480 kJ/mol
# Density = 2.158853 g / cm^3
# Si number density = 21.637781 Si / 1000 Ang^3
#
#
#
# Elastic Constant Matrix: (Units=GPa)
#
#
# Indices 1 2 3 4 5 6 
#
# 1 85.0571 27.8031 -14.0229 0.0000 0.0000 0.0000
# 2 27.8031 80.4560 -13.3743 0.0000 0.0000 0.0000
# 3 -14.0229 -13.3743 35.5977 0.0000 0.0000 0.0000
# 4 0.0000 0.0000 0.0000 22.8954 0.0000 0.0000
# 5 0.0000 0.0000 0.0000 0.0000 27.4215 0.0000
# 6 0.0000 0.0000 0.0000 0.0000 0.0000 30.0711
#
#
#
# Elastic Compliance Matrix: (Units=1/GPa)
#
#
# Indices 1 2 3 4 5 6 
#
# 1 0.013736 -0.004104 0.003869 0.000000 0.000000 0.000000
# 2 -0.004104 0.014483 0.003825 0.000000 0.000000 0.000000
# 3 0.003869 0.003825 0.031053 0.000000 0.000000 0.000000
# 4 0.000000 0.000000 0.000000 0.043677 0.000000 0.000000
# 5 0.000000 0.000000 0.000000 0.000000 0.036468 0.000000
# 6 0.000000 0.000000 0.000000 0.000000 0.000000 0.033255
#
#
# Mechanical properties :
#
#
# Convention : Reuss Voigt Hill
#
# Bulk Modulus (GPa) = 15.04820 22.43586 18.74203
# Shear Modulus (GPa) = 26.64661 29.45792 28.05226
#
# Velocity S-wave (km/s) = 3.51306 3.69373 3.60453
# Velocity P-wave (km/s) = 4.83995 5.34630 5.09941
#
# Compressibility (1/GPa) = 0.06645313
#
# Stress axis : x y z
#
# Youngs Moduli (GPa) = 72.80107 69.04638 32.20308
#
# Poissons Ratio (x) = 0.28334 -0.12460
# Poissons Ratio (y) = 0.29874 -0.12317
# Poissons Ratio (z) = -0.28169 -0.26409
#
# Static dielectric constant tensor:
#      x y z
#    x 1.796610 0.000000 0.000000 
#    y 0.000000 1.790570 0.000000 
#    z 0.000000 0.000000 1.827140 
# 
# From -- ./inp_files/28654.got.cif
#   From: 2010.05.17/outbox.cif.g08.bks.cpg/sg20_15_cif.got.tgz:28654.got - 2010.06.03 22:52:26.
