data_PCOD9318839
_publ_section_title
;
Structure prediction by ZEFSAII (Michael W. Deem and Ramdas Pophale) SiO2 
 PCOD9318839
Probable space group: C 2 2 21
;
_chemical_formula_sum "Si O2"
_cell_formula_units_Z 60
_cell_length_a 18.815959
_cell_length_b 18.647234
_cell_length_c 8.405742
_cell_angle_alpha 90.000000
_cell_angle_beta 90.000000
_cell_angle_gamma 90.000000
_cell_volume 2949.285630
_symmetry_space_group_name_H-M "C 2 2 21"
_symmetry_group_IT_number 20
_symmetry_cell_setting 'orthorhombic'
loop_
_space_group_symop_operation_xyz
x,y,z
-x,-y,1/2+z
x,-y,-z
-x,y,1/2-z
1/2+x,1/2+y,z
1/2-x,1/2-y,1/2+z
1/2+x,1/2-y,-z
1/2-x,1/2+y,1/2-z
loop_
_atom_site_type_symbol
_atom_site_label
_atom_site_fract_x
_atom_site_fract_y
_atom_site_fract_z
Si Si1 0.822101 0.997461 0.690203
Si Si2 0.526486 0.773229 0.079327
Si Si3 0.223005 0.500000 0.000000
Si Si4 0.384936 0.348775 0.650850
Si Si5 0.394312 0.792687 0.859307
Si Si6 0.292120 0.750903 0.131520
Si Si7 0.169457 0.840431 0.193027
Si Si8 0.840418 0.352117 0.555701
O O1 0.766887 0.984812 0.835628
O O2 0.878771 0.932246 0.695008
O O3 0.798332 0.000000 0.500000
O O4 0.847427 0.077843 0.732869
O O5 0.500000 0.798361 0.250000
O O6 0.541573 0.687598 0.095315
O O7 0.469705 0.792999 0.945400
O O8 0.601611 0.809649 0.045389
O O9 0.177222 0.428379 0.017202
O O10 0.351577 0.298195 0.785507
O O11 0.334750 0.338974 0.497479
O O12 0.384430 0.716690 0.767362
O O13 0.376768 0.853725 0.731361
O O14 0.332455 0.790859 0.990535
O O15 0.248296 0.810448 0.231568
O O16 0.230620 0.694907 0.081759
#
# Coordination Sequence:
#
# PCOD9318839 Si02
#       8
#     8   8   4   8   8   8   8   8
#     4  10  24  39  64 101 145 176 221 288 354 417
#     4  12  25  43  66  93 135 177 230 280 343 412
#     4  12  24  42  68 100 144 176 218 290 362 412
#     4  11  21  40  60  93 136 169 223 275 343 406
#     4  11  23  38  69  96 131 180 227 290 343 414
#     4  11  20  37  69 100 125 168 231 290 338 407
#     4  10  21  36  66  94 133 168 223 287 338 404
#     4  11  25  41  66 102 130 170 232 282 343 422
#
# _framework density 20.343910000000001
#
# number of rings (size 3 to 8) (size 9 to 14) (size 15 to 20)
#    0.000    1.067    5.333    2.800    3.733    0.000 
#    0.000    1.333    8.800    0.000    0.000    0.000 
#    0.000    0.000    0.000    0.000    0.000    0.000 
#
# Total GULP energy -167275.790114 kJ/mol
# GULP energy per Si atom -5575.859670 kJ/mol
# Density = 2.029761 g / cm^3
# Si number density = 20.343910 Si / 1000 Ang^3
#
#
#
# Elastic Constant Matrix: (Units=GPa)
#
#
# Indices 1 2 3 4 5 6 
#
# 1 60.0656 2.7502 9.1100 0.0000 0.0000 0.0000
# 2 2.7502 68.9756 3.9271 0.0000 0.0000 0.0000
# 3 9.1100 3.9271 76.7516 0.0000 0.0000 0.0000
# 4 0.0000 0.0000 0.0000 23.2362 0.0000 0.0000
# 5 0.0000 0.0000 0.0000 0.0000 36.1125 0.0000
# 6 0.0000 0.0000 0.0000 0.0000 0.0000 18.2258
#
#
#
# Elastic Compliance Matrix: (Units=1/GPa)
#
#
# Indices 1 2 3 4 5 6 
#
# 1 0.016975 -0.000564 -0.001986 0.000000 0.000000 0.000000
# 2 -0.000564 0.014559 -0.000678 0.000000 0.000000 0.000000
# 3 -0.001986 -0.000678 0.013299 0.000000 0.000000 0.000000
# 4 0.000000 0.000000 0.000000 0.043036 0.000000 0.000000
# 5 0.000000 0.000000 0.000000 0.000000 0.027691 0.000000
# 6 0.000000 0.000000 0.000000 0.000000 0.000000 0.054867
#
#
# Mechanical properties :
#
#
# Convention : Reuss Voigt Hill
#
# Bulk Modulus (GPa) = 26.05642 26.37415 26.21528
# Shear Modulus (GPa) = 26.36057 28.18193 27.27125
#
# Velocity S-wave (km/s) = 3.60355 3.72597 3.66527
# Velocity P-wave (km/s) = 5.49089 5.61273 5.55215
#
# Compressibility (1/GPa) = 0.03837826
#
# Stress axis : x y z
#
# Youngs Moduli (GPa) = 58.90844 68.68617 75.19092
#
# Poissons Ratio (x) = 0.03872 0.14933
# Poissons Ratio (y) = 0.03321 0.05098
# Poissons Ratio (z) = 0.11700 0.04657
#
# Static dielectric constant tensor:
#      x y z
#    x 1.743300 0.000000 0.000000 
#    y 0.000000 1.749680 0.000000 
#    z 0.000000 0.000000 1.826980 
# 
# From -- ./inp_files/9596.got.cif
#   From: 2010.05.17/outbox.cif.g08.bks.cpg/sg20_5_cif.got.tgz:9596.got - 2010.06.03 22:52:26.
