data_PCOD9318432
_publ_section_title
;
Structure prediction by ZEFSAII (Michael W. Deem and Ramdas Pophale) SiO2 
 PCOD9318432
Probable space group: C 2 2 21
;
_chemical_formula_sum "Si O2"
_cell_formula_units_Z 52
_cell_length_a 8.748054
_cell_length_b 18.722409
_cell_length_c 14.256781
_cell_angle_alpha 90.000000
_cell_angle_beta 90.000000
_cell_angle_gamma 90.000000
_cell_volume 2335.041814
_symmetry_space_group_name_H-M "C 2 2 21"
_symmetry_group_IT_number 20
_symmetry_cell_setting 'orthorhombic'
loop_
_space_group_symop_operation_xyz
x,y,z
-x,-y,1/2+z
x,-y,-z
-x,y,1/2-z
1/2+x,1/2+y,z
1/2-x,1/2-y,1/2+z
1/2+x,1/2-y,-z
1/2-x,1/2+y,1/2-z
loop_
_atom_site_type_symbol
_atom_site_label
_atom_site_fract_x
_atom_site_fract_y
_atom_site_fract_z
Si Si1 0.438097 0.679030 0.047233
Si Si2 0.838409 0.688227 0.215542
Si Si3 0.172292 0.472429 0.768456
Si Si4 0.650507 0.560108 0.578909
Si Si5 0.789761 0.324066 0.004876
Si Si6 0.814220 0.043131 0.595968
Si Si7 0.500000 0.688730 0.250000
O O1 0.606658 0.684997 0.003475
O O2 0.470298 0.648030 0.151461
O O3 0.327841 0.632598 0.980474
O O4 0.367539 0.757055 0.053720
O O5 0.827994 0.613864 0.274880
O O6 0.848670 0.672121 0.103356
O O7 0.669297 0.724082 0.230840
O O8 0.000000 0.722581 0.250000
O O9 0.236336 0.524805 0.847657
O O10 0.263888 0.489865 0.675236
O O11 0.000000 0.493308 0.750000
O O12 0.640002 0.500000 0.500000
O O13 0.482705 0.569922 0.623220
O O14 0.803382 0.394027 0.069527
O O15 0.828053 0.000000 0.500000
#
# Coordination Sequence:
#
# PCOD9318432 Si02
#       7
#     8   8   8   8   8   8   4
#     4  10  23  42  66  97 126 180 223 280 351 412
#     4  10  22  39  65  99 129 177 222 278 343 414
#     4  11  23  38  60  98 133 165 218 277 347 410
#     4  10  22  41  67  96 123 168 228 280 338 409
#     4  10  22  42  64  91 136 173 224 279 340 415
#     4  10  20  40  66  90 127 176 219 277 342 402
#     4  10  22  42  68  96 126 176 238 268 344 420
#
# _framework density 22.269409
#
# number of rings (size 3 to 8) (size 9 to 14) (size 15 to 20)
#    0.000    1.846    1.538    1.385    6.462    1.846 
#    6.923    0.000    0.000    0.000    0.000    0.000 
#    0.000    0.000    0.000    0.000    0.000    0.000 
#
# Total GULP energy -144818.907556 kJ/mol
# GULP energy per Si atom -5569.957983 kJ/mol
# Density = 2.221872 g / cm^3
# Si number density = 22.269409 Si / 1000 Ang^3
#
#
#
# Elastic Constant Matrix: (Units=GPa)
#
#
# Indices 1 2 3 4 5 6 
#
# 1 102.6576 9.9853 30.7457 0.0000 0.0000 0.0000
# 2 9.9853 57.3234 2.1839 0.0000 0.0000 0.0000
# 3 30.7457 2.1839 77.8397 0.0000 0.0000 0.0000
# 4 0.0000 0.0000 0.0000 16.4474 0.0000 0.0000
# 5 0.0000 0.0000 0.0000 0.0000 30.4854 0.0000
# 6 0.0000 0.0000 0.0000 0.0000 0.0000 30.1788
#
#
#
# Elastic Compliance Matrix: (Units=1/GPa)
#
#
# Indices 1 2 3 4 5 6 
#
# 1 0.011228 -0.001789 -0.004385 0.000000 0.000000 0.000000
# 2 -0.001789 0.017749 0.000209 0.000000 0.000000 0.000000
# 3 -0.004385 0.000209 0.014573 0.000000 0.000000 0.000000
# 4 0.000000 0.000000 0.000000 0.060800 0.000000 0.000000
# 5 0.000000 0.000000 0.000000 0.000000 0.032803 0.000000
# 6 0.000000 0.000000 0.000000 0.000000 0.000000 0.033136
#
#
# Mechanical properties :
#
#
# Convention : Reuss Voigt Hill
#
# Bulk Modulus (GPa) = 31.62581 35.96115 33.79348
# Shear Modulus (GPa) = 25.93922 28.41604 27.17763
#
# Velocity S-wave (km/s) = 3.41661 3.57601 3.49722
# Velocity P-wave (km/s) = 5.45862 5.76487 5.61383
#
# Compressibility (1/GPa) = 0.03161974
#
# Stress axis : x y z
#
# Youngs Moduli (GPa) = 89.06006 56.34263 68.61991
#
# Poissons Ratio (x) = 0.10079 0.30089
# Poissons Ratio (y) = 0.15931 -0.01432
# Poissons Ratio (z) = 0.39052 -0.01175
#
# Static dielectric constant tensor:
#      x y z
#    x 1.888170 0.000000 0.000000 
#    y 0.000000 1.825220 0.000000 
#    z 0.000000 0.000000 2.682630 
# 
# From -- ./inp_files/19113.got.cif
#   From: 2010.05.17/outbox.cif.g08.bks.cpg/sg20_10_cif.got.tgz:19113.got - 2010.06.03 22:52:26.
