data_PCOD9318637
_publ_section_title
;
Structure prediction by ZEFSAII (Michael W. Deem and Ramdas Pophale) SiO2 
 PCOD9318637
Probable space group: C 2 2 21
;
_chemical_formula_sum "Si O2"
_cell_formula_units_Z 32
_cell_length_a 21.326294
_cell_length_b 5.280788
_cell_length_c 11.394966
_cell_angle_alpha 90.000000
_cell_angle_beta 90.000000
_cell_angle_gamma 90.000000
_cell_volume 1283.296940
_symmetry_space_group_name_H-M "C 2 2 21"
_symmetry_group_IT_number 20
_symmetry_cell_setting 'orthorhombic'
loop_
_space_group_symop_operation_xyz
x,y,z
-x,-y,1/2+z
x,-y,-z
-x,y,1/2-z
1/2+x,1/2+y,z
1/2-x,1/2-y,1/2+z
1/2+x,1/2-y,-z
1/2-x,1/2+y,1/2-z
loop_
_atom_site_type_symbol
_atom_site_label
_atom_site_fract_x
_atom_site_fract_y
_atom_site_fract_z
Si Si1 0.593814 0.324319 0.214577
Si Si2 0.289897 0.048731 0.239351
Si Si3 0.135034 0.199415 0.410373
Si Si4 0.012909 0.717080 0.432176
O O1 0.653174 0.153774 0.180010
O O2 0.620284 0.561034 0.287271
O O3 0.554698 0.172375 0.315446
O O4 0.541908 0.395281 0.118742
O O5 0.247677 0.299280 0.218667
O O6 0.324369 0.942208 0.122692
O O7 0.067168 0.237438 0.470902
O O8 0.166965 0.000000 0.500000
O O9 0.975523 0.500000 0.500000
#
# Coordination Sequence:
#
# PCOD9318637 Si02
#       4
#     8   8   8   8
#     4  10  22  43  69 114 147 189 252 318 368 442
#     4  12  24  45  76 104 148 205 255 307 373 446
#     4  10  22  44  73 110 144 203 253 305 388 453
#     4  10  20  42  74 108 143 191 247 305 382 456
#
# _framework density 24.935772
#
# number of rings (size 3 to 8) (size 9 to 14) (size 15 to 20)
#    0.000    1.500    5.000    0.000    0.000    0.000 
#   22.500    1.250    5.500    0.000    0.000    0.000 
#    0.000    0.000    0.000    0.000    0.000    0.000 
#
# Total GULP energy -89071.434080 kJ/mol
# GULP energy per Si atom -5566.964630 kJ/mol
# Density = 2.487902 g / cm^3
# Si number density = 24.935772 Si / 1000 Ang^3
#
#
#
# Elastic Constant Matrix: (Units=GPa)
#
#
# Indices 1 2 3 4 5 6 
#
# 1 177.6715 72.0243 56.0393 0.0000 0.0000 0.0000
# 2 72.0243 131.5728 39.5157 0.0000 0.0000 0.0000
# 3 56.0393 39.5157 81.3985 0.0000 0.0000 0.0000
# 4 0.0000 0.0000 0.0000 42.4059 0.0000 0.0000
# 5 0.0000 0.0000 0.0000 0.0000 22.4815 0.0000
# 6 0.0000 0.0000 0.0000 0.0000 0.0000 11.3658
#
#
#
# Elastic Compliance Matrix: (Units=1/GPa)
#
#
# Indices 1 2 3 4 5 6 
#
# 1 0.008250 -0.003290 -0.004082 0.000000 0.000000 0.000000
# 2 -0.003290 0.010210 -0.002691 0.000000 0.000000 0.000000
# 3 -0.004082 -0.002691 0.016402 0.000000 0.000000 0.000000
# 4 0.000000 0.000000 0.000000 0.023582 0.000000 0.000000
# 5 0.000000 0.000000 0.000000 0.000000 0.044481 0.000000
# 6 0.000000 0.000000 0.000000 0.000000 0.000000 0.087983
#
#
# Mechanical properties :
#
#
# Convention : Reuss Voigt Hill
#
# Bulk Modulus (GPa) = 67.86928 80.64461 74.25694
# Shear Modulus (GPa) = 23.15392 30.12153 26.63773
#
# Velocity S-wave (km/s) = 3.05051 3.47935 3.27196
# Velocity P-wave (km/s) = 6.29954 6.96795 6.64216
#
# Compressibility (1/GPa) = 0.01473421
#
# Stress axis : x y z
#
# Youngs Moduli (GPa) = 121.21749 97.94720 60.96678
#
# Poissons Ratio (x) = 0.32223 0.24889
# Poissons Ratio (y) = 0.39879 0.16409
# Poissons Ratio (z) = 0.49486 0.26362
#
# Static dielectric constant tensor:
#      x y z
#    x 2.023170 0.000000 0.000000 
#    y 0.000000 2.582200 0.000000 
#    z 0.000000 0.000000 1.991350 
# 
# From -- ./inp_files/16493.got.cif
#   From: 2010.05.17/outbox.cif.g08.bks.cpg/sg20_9_cif.got.tgz:16493.got - 2010.06.03 22:52:26.
