data_PCOD9318080
_publ_section_title
;
Structure prediction by ZEFSAII (Michael W. Deem and Ramdas Pophale) SiO2 
 PCOD9318080
Probable space group: C 2 2 21
;
_chemical_formula_sum "Si O2"
_cell_formula_units_Z 56
_cell_length_a 5.318479
_cell_length_b 30.527637
_cell_length_c 13.729368
_cell_angle_alpha 90.000000
_cell_angle_beta 90.000000
_cell_angle_gamma 90.000000
_cell_volume 2229.108375
_symmetry_space_group_name_H-M "C 2 2 21"
_symmetry_group_IT_number 20
_symmetry_cell_setting 'orthorhombic'
loop_
_space_group_symop_operation_xyz
x,y,z
-x,-y,1/2+z
x,-y,-z
-x,y,1/2-z
1/2+x,1/2+y,z
1/2-x,1/2-y,1/2+z
1/2+x,1/2-y,-z
1/2-x,1/2+y,1/2-z
loop_
_atom_site_type_symbol
_atom_site_label
_atom_site_fract_x
_atom_site_fract_y
_atom_site_fract_z
Si Si1 0.500000 0.698848 0.750000
Si Si2 0.277003 0.198373 0.060114
Si Si3 0.282786 0.737092 0.129963
Si Si4 0.838540 0.412905 0.434322
Si Si5 0.500000 0.481534 0.750000
Si Si6 0.837018 0.496137 0.099816
Si Si7 0.884223 0.417489 0.652136
Si Si8 0.342861 0.630325 0.592723
O O1 0.276019 0.731770 0.721773
O O2 0.485666 0.666609 0.658306
O O3 0.542885 0.205332 0.113075
O O4 0.043792 0.211911 0.127195
O O5 0.289783 0.231156 0.966005
O O6 0.203450 0.152203 0.012479
O O7 0.837208 0.396324 0.547384
O O8 0.549609 0.407594 0.405720
O O9 0.940104 0.462360 0.422417
O O10 0.060042 0.385035 0.379767
O O11 0.312187 0.514075 0.695852
O O12 0.646995 0.447845 0.680171
O O13 0.914313 0.545375 0.125176
O O14 0.682906 0.500000 0.000000
O O15 0.000000 0.394992 0.750000
#
# Coordination Sequence:
#
# PCOD9318080 Si02
#       8
#     4   8   8   8   4   8   8   8
#     4  10  24  43  64 100 134 174 218 256 324 394
#     4   9  18  36  60  89 111 157 207 251 302 355
#     4   9  18  34  65  86 114 153 208 259 289 352
#     4  11  25  41  65  91 136 186 206 260 350 400
#     4  10  20  37  70  90 122 156 228 320 320 368
#     4   9  21  38  60  95 124 165 230 286 325 388
#     4   9  21  40  64  93 116 166 235 291 319 372
#     4  11  25  42  63  93 140 178 208 257 330 426
#
# _framework density 25.122152
#
# number of rings (size 3 to 8) (size 9 to 14) (size 15 to 20)
#    0.000    2.286    0.000    0.857    8.000    6.857 
#    5.143    0.000    9.429    0.000    0.000    0.000 
#    0.000    0.000    0.000    0.000    0.000    0.000 
#
# Total GULP energy -156126.495785 kJ/mol
# GULP energy per Si atom -5575.946278 kJ/mol
# Density = 2.506497 g / cm^3
# Si number density = 25.122152 Si / 1000 Ang^3
#
#
#
# Elastic Constant Matrix: (Units=GPa)
#
#
# Indices 1 2 3 4 5 6 
#
# 1 129.1347 20.3773 28.4978 0.0000 0.0000 0.0000
# 2 20.3773 49.2509 -0.7537 0.0000 0.0000 0.0000
# 3 28.4978 -0.7537 57.9553 0.0000 0.0000 0.0000
# 4 0.0000 0.0000 0.0000 24.9452 0.0000 0.0000
# 5 0.0000 0.0000 0.0000 0.0000 29.5863 0.0000
# 6 0.0000 0.0000 0.0000 0.0000 0.0000 55.7773
#
#
#
# Elastic Compliance Matrix: (Units=1/GPa)
#
#
# Indices 1 2 3 4 5 6 
#
# 1 0.009400 -0.003961 -0.004674 0.000000 0.000000 0.000000
# 2 -0.003961 0.021977 0.002233 0.000000 0.000000 0.000000
# 3 -0.004674 0.002233 0.019582 0.000000 0.000000 0.000000
# 4 0.000000 0.000000 0.000000 0.040088 0.000000 0.000000
# 5 0.000000 0.000000 0.000000 0.000000 0.033799 0.000000
# 6 0.000000 0.000000 0.000000 0.000000 0.000000 0.017928
#
#
# Mechanical properties :
#
#
# Convention : Reuss Voigt Hill
#
# Bulk Modulus (GPa) = 26.20755 36.95372 31.58064
# Shear Modulus (GPa) = 29.70946 34.60974 32.15960
#
# Velocity S-wave (km/s) = 3.44263 3.71571 3.58177
# Velocity P-wave (km/s) = 5.12415 5.75762 5.45010
#
# Compressibility (1/GPa) = 0.03815694
#
# Stress axis : x y z
#
# Youngs Moduli (GPa) = 106.37961 45.50181 51.06750
#
# Poissons Ratio (x) = 0.18023 0.23868
# Poissons Ratio (y) = 0.42135 -0.11406
# Poissons Ratio (z) = 0.49720 -0.10163
#
# Static dielectric constant tensor:
#      x y z
#    x 2.113330 0.000000 0.000000 
#    y 0.000000 2.049380 0.000000 
#    z 0.000000 0.000000 2.305470 
# 
# From -- ./inp_files/17987.got.cif
#   From: 2010.05.17/outbox.cif.g08.bks.cpg/sg20_9_cif.got.tgz:17987.got - 2010.06.03 22:52:26.
