data_PCOD9318965
_publ_section_title
;
Structure prediction by ZEFSAII (Michael W. Deem and Ramdas Pophale) SiO2 
 PCOD9318965
Probable space group: C 2 2 21
;
_chemical_formula_sum "Si O2"
_cell_formula_units_Z 60
_cell_length_a 26.828001
_cell_length_b 18.732291
_cell_length_c 5.504480
_cell_angle_alpha 90.000000
_cell_angle_beta 90.000000
_cell_angle_gamma 90.000000
_cell_volume 2766.275993
_symmetry_space_group_name_H-M "C 2 2 21"
_symmetry_group_IT_number 20
_symmetry_cell_setting 'orthorhombic'
loop_
_space_group_symop_operation_xyz
x,y,z
-x,-y,1/2+z
x,-y,-z
-x,y,1/2-z
1/2+x,1/2+y,z
1/2-x,1/2-y,1/2+z
1/2+x,1/2-y,-z
1/2-x,1/2+y,1/2-z
loop_
_atom_site_type_symbol
_atom_site_label
_atom_site_fract_x
_atom_site_fract_y
_atom_site_fract_z
Si Si1 0.276894 0.834411 0.692155
Si Si2 0.055695 0.148274 0.855954
Si Si3 0.650989 0.578755 0.762695
Si Si4 0.500000 0.701756 0.250000
Si Si5 0.315627 0.221896 0.807054
Si Si6 0.190568 0.917499 0.738092
Si Si7 0.032182 0.417358 0.502740
Si Si8 0.082099 0.274294 0.530322
O O1 0.307330 0.819588 0.446854
O O2 0.228492 0.781168 0.693846
O O3 0.249480 0.910548 0.702456
O O4 0.305560 0.820721 0.941557
O O5 0.092071 0.084560 0.790294
O O6 0.083380 0.220892 0.762453
O O7 0.000000 0.139342 0.750000
O O8 0.043854 0.154850 0.138789
O O9 0.671173 0.498458 0.753423
O O10 0.666433 0.612608 0.507935
O O11 0.674622 0.614987 0.001869
O O12 0.527071 0.752347 0.437981
O O13 0.372985 0.243881 0.847516
O O14 0.049177 0.500000 0.500000
O O15 0.076300 0.359578 0.536681
O O16 0.000000 0.408471 0.750000
O O17 0.000000 0.406891 0.250000
#
# Coordination Sequence:
#
# PCOD9318965 Si02
#       8
#     8   8   8   4   8   8   8   8
#     4  10  21  40  57  93 122 161 203 274 320 381
#     4  10  23  37  58  95 137 173 216 281 321 378
#     4  10  22  38  64  94 115 179 223 262 325 395
#     4  10  22  36  60  94 136 166 216 268 328 378
#     4  10  23  35  63  91 127 157 206 259 333 382
#     4  10  21  40  64  86 122 159 228 272 320 394
#     4  10  21  38  62  89 122 163 205 244 292 377
#     4  11  22  38  62  96 127 172 205 265 322 396
#
# _framework density 21.689809
#
# number of rings (size 3 to 8) (size 9 to 14) (size 15 to 20)
#    0.000    1.867    0.667    2.800    7.467    1.067 
#    0.000    2.667    8.800    0.000    0.000    0.000 
#    0.000    0.000    0.000    0.000    0.000    0.000 
#
# Total GULP energy -167080.958591 kJ/mol
# GULP energy per Si atom -5569.365286 kJ/mol
# Density = 2.164044 g / cm^3
# Si number density = 21.689809 Si / 1000 Ang^3
#
#
#
# Elastic Constant Matrix: (Units=GPa)
#
#
# Indices 1 2 3 4 5 6 
#
# 1 76.9254 18.0779 33.0699 0.0000 0.0000 0.0000
# 2 18.0779 67.1429 17.7824 0.0000 0.0000 0.0000
# 3 33.0699 17.7824 160.8039 0.0000 0.0000 0.0000
# 4 0.0000 0.0000 0.0000 5.1508 0.0000 0.0000
# 5 0.0000 0.0000 0.0000 0.0000 37.2946 0.0000
# 6 0.0000 0.0000 0.0000 0.0000 0.0000 39.4792
#
#
#
# Elastic Compliance Matrix: (Units=1/GPa)
#
#
# Indices 1 2 3 4 5 6 
#
# 1 0.014940 -0.003306 -0.002707 0.000000 0.000000 0.000000
# 2 -0.003306 0.016074 -0.001098 0.000000 0.000000 0.000000
# 3 -0.002707 -0.001098 0.006897 0.000000 0.000000 0.000000
# 4 0.000000 0.000000 0.000000 0.194145 0.000000 0.000000
# 5 0.000000 0.000000 0.000000 0.000000 0.026814 0.000000
# 6 0.000000 0.000000 0.000000 0.000000 0.000000 0.025330
#
#
# Mechanical properties :
#
#
# Convention : Reuss Voigt Hill
#
# Bulk Modulus (GPa) = 42.21071 49.19251 45.70161
# Shear Modulus (GPa) = 16.32294 32.11439 24.21867
#
# Velocity S-wave (km/s) = 2.74626 3.85206 3.34517
# Velocity P-wave (km/s) = 5.43684 6.52025 6.00304
#
# Compressibility (1/GPa) = 0.02369067
#
# Stress axis : x y z
#
# Youngs Moduli (GPa) = 66.93377 62.21089 144.99393
#
# Poissons Ratio (x) = 0.20565 0.39249
# Poissons Ratio (y) = 0.22126 0.15917
# Poissons Ratio (z) = 0.18119 0.06829
#
# Static dielectric constant tensor:
#      x y z
#    x 1.800020 0.000000 0.000000 
#    y 0.000000 1.840050 0.000000 
#    z 0.000000 0.000000 2.004070 
# 
# From -- ./inp_files/3817.got.cif
#   From: 2010.05.17/outbox.cif.g08.bks.cpg/sg20_2_cif.got.tgz:3817.got - 2010.06.03 22:52:26.
