data_PCOD9318610
_publ_section_title
;
Structure prediction by ZEFSAII (Michael W. Deem and Ramdas Pophale) SiO2 
 PCOD9318610
Probable space group: C 2 2 21
;
_chemical_formula_sum "Si O2"
_cell_formula_units_Z 44
_cell_length_a 8.885508
_cell_length_b 30.224171
_cell_length_c 7.895315
_cell_angle_alpha 90.000000
_cell_angle_beta 90.000000
_cell_angle_gamma 90.000000
_cell_volume 2120.343004
_symmetry_space_group_name_H-M "C 2 2 21"
_symmetry_group_IT_number 20
_symmetry_cell_setting 'orthorhombic'
loop_
_space_group_symop_operation_xyz
x,y,z
-x,-y,1/2+z
x,-y,-z
-x,y,1/2-z
1/2+x,1/2+y,z
1/2-x,1/2-y,1/2+z
1/2+x,1/2-y,-z
1/2-x,1/2+y,1/2-z
loop_
_atom_site_type_symbol
_atom_site_label
_atom_site_fract_x
_atom_site_fract_y
_atom_site_fract_z
Si Si1 0.897317 0.932478 0.958752
Si Si2 0.894102 0.152289 0.387155
Si Si3 0.866791 0.612690 0.350392
Si Si4 0.239524 0.281414 0.354602
Si Si5 0.000000 0.003722 0.750000
Si Si6 0.915264 0.705643 0.501313
O O1 0.729138 0.915065 0.986012
O O2 0.000613 0.888982 0.940611
O O3 0.876417 0.965941 0.796993
O O4 0.981645 0.962493 0.095540
O O5 0.754720 0.131288 0.284995
O O6 0.835768 0.182457 0.539702
O O7 0.000000 0.177856 0.250000
O O8 0.934106 0.655936 0.438483
O O9 0.000000 0.588898 0.250000
O O10 0.334148 0.236380 0.363855
O O11 0.078303 0.276472 0.446762
O O12 0.194940 0.294257 0.164430
#
# Coordination Sequence:
#
# PCOD9318610 Si02
#       6
#     8   8   8   8   4   8
#     4  10  22  39  70  95 127 170 208 271 323 399
#     4  10  21  40  62  89 123 173 214 264 328 388
#     4  11  21  41  63  91 129 172 215 268 339 381
#     4  11  25  42  61  91 129 175 231 277 327 388
#     4  10  20  42  68  96 128 156 222 258 322 400
#     4  11  26  40  62  90 130 175 224 281 327 387
#
# _framework density 20.751359000000001
#
# number of rings (size 3 to 8) (size 9 to 14) (size 15 to 20)
#    0.000    1.455    4.545    1.091   10.182    0.000 
#    0.000    0.000    8.000    0.000    0.000    0.000 
#    0.000    0.000    0.000    0.000    0.000    0.000 
#
# Total GULP energy -122569.708601 kJ/mol
# GULP energy per Si atom -5571.350391 kJ/mol
# Density = 2.070413 g / cm^3
# Si number density = 20.751359 Si / 1000 Ang^3
#
#
#
# Elastic Constant Matrix: (Units=GPa)
#
#
# Indices 1 2 3 4 5 6 
#
# 1 85.5760 18.6974 22.4145 0.0000 0.0000 0.0000
# 2 18.6974 79.4982 17.7102 0.0000 0.0000 0.0000
# 3 22.4145 17.7102 70.3221 0.0000 0.0000 0.0000
# 4 0.0000 0.0000 0.0000 37.1145 0.0000 0.0000
# 5 0.0000 0.0000 0.0000 0.0000 28.2978 0.0000
# 6 0.0000 0.0000 0.0000 0.0000 0.0000 4.4462
#
#
#
# Elastic Compliance Matrix: (Units=1/GPa)
#
#
# Indices 1 2 3 4 5 6 
#
# 1 0.013130 -0.002284 -0.003610 0.000000 0.000000 0.000000
# 2 -0.002284 0.013724 -0.002728 0.000000 0.000000 0.000000
# 3 -0.003610 -0.002728 0.016058 0.000000 0.000000 0.000000
# 4 0.000000 0.000000 0.000000 0.026944 0.000000 0.000000
# 5 0.000000 0.000000 0.000000 0.000000 0.035338 0.000000
# 6 0.000000 0.000000 0.000000 0.000000 0.000000 0.224911
#
#
# Mechanical properties :
#
#
# Convention : Reuss Voigt Hill
#
# Bulk Modulus (GPa) = 38.95945 39.22674 39.09309
# Shear Modulus (GPa) = 14.04870 25.74331 19.89601
#
# Velocity S-wave (km/s) = 2.60475 3.52598 3.09978
# Velocity P-wave (km/s) = 5.27839 5.95995 5.62949
#
# Compressibility (1/GPa) = 0.02566771
#
# Stress axis : x y z
#
# Youngs Moduli (GPa) = 76.16123 72.86588 62.27425
#
# Poissons Ratio (x) = 0.16642 0.22480
# Poissons Ratio (y) = 0.17394 0.16990
# Poissons Ratio (z) = 0.27493 0.19880
#
# Static dielectric constant tensor:
#      x y z
#    x 1.731270 0.000000 0.000000 
#    y 0.000000 1.755340 0.000000 
#    z 0.000000 0.000000 1.847110 
# 
# From -- ./inp_files/6392.got.cif
#   From: 2010.05.17/outbox.cif.g08.bks.cpg/sg20_4_cif.got.tgz:6392.got - 2010.06.03 22:52:26.
