data_PCOD9318286
_publ_section_title
;
Structure prediction by ZEFSAII (Michael W. Deem and Ramdas Pophale) SiO2 
 PCOD9318286
Probable space group: C 2 2 21
;
_chemical_formula_sum "Si O2"
_cell_formula_units_Z 40
_cell_length_a 18.702700
_cell_length_b 7.333428
_cell_length_c 15.498254
_cell_angle_alpha 90.000000
_cell_angle_beta 90.000000
_cell_angle_gamma 90.000000
_cell_volume 2125.661537
_symmetry_space_group_name_H-M "C 2 2 21"
_symmetry_group_IT_number 20
_symmetry_cell_setting 'orthorhombic'
loop_
_space_group_symop_operation_xyz
x,y,z
-x,-y,1/2+z
x,-y,-z
-x,y,1/2-z
1/2+x,1/2+y,z
1/2-x,1/2-y,1/2+z
1/2+x,1/2-y,-z
1/2-x,1/2+y,1/2-z
loop_
_atom_site_type_symbol
_atom_site_label
_atom_site_fract_x
_atom_site_fract_y
_atom_site_fract_z
Si Si1 0.396961 0.188481 0.843589
Si Si2 0.086982 0.801524 0.469592
Si Si3 0.323861 0.445272 0.184172
Si Si4 0.831678 0.590057 0.291711
Si Si5 0.484096 0.079130 0.346286
O O1 0.376987 0.383188 0.803386
O O2 0.353589 0.036012 0.790708
O O3 0.478732 0.119398 0.842137
O O4 0.382124 0.204449 0.945529
O O5 0.148968 0.844142 0.401350
O O6 0.026199 0.689255 0.419426
O O7 0.058909 0.000000 0.500000
O O8 0.244197 0.522617 0.174554
O O9 0.325923 0.297733 0.259969
O O10 0.899314 0.571546 0.355037
O O11 0.500000 0.161118 0.250000
#
# Coordination Sequence:
#
# PCOD9318286 Si02
#       5
#     8   8   8   8   8
#     4  10  21  39  63  89 121 168 206 253 318 372
#     4  10  21  39  63  91 121 171 209 253 319 384
#     4  11  21  39  64  91 125 162 211 255 317 379
#     4  11  22  39  62  96 125 160 210 269 306 378
#     4  10  20  39  61  91 124 156 211 264 303 369
#
# _framework density 18.817672999999999
#
# number of rings (size 3 to 8) (size 9 to 14) (size 15 to 20)
#    0.000    1.600    6.000    0.600    0.000    0.000 
#   21.600    6.000    0.000    4.800    0.000    0.000 
#    0.000    0.000    0.000    0.000    0.000    0.000 
#
# Total GULP energy -111491.634745 kJ/mol
# GULP energy per Si atom -5574.581737 kJ/mol
# Density = 1.877484 g / cm^3
# Si number density = 18.817673 Si / 1000 Ang^3
#
#
#
# Elastic Constant Matrix: (Units=GPa)
#
#
# Indices 1 2 3 4 5 6 
#
# 1 147.4301 60.7048 32.0301 0.0000 0.0000 0.0000
# 2 60.7048 92.3746 34.6677 0.0000 0.0000 0.0000
# 3 32.0301 34.6677 56.7599 0.0000 0.0000 0.0000
# 4 0.0000 0.0000 0.0000 25.6522 0.0000 0.0000
# 5 0.0000 0.0000 0.0000 0.0000 20.8428 0.0000
# 6 0.0000 0.0000 0.0000 0.0000 0.0000 24.1535
#
#
#
# Elastic Compliance Matrix: (Units=1/GPa)
#
#
# Indices 1 2 3 4 5 6 
#
# 1 0.009471 -0.005473 -0.002002 0.000000 0.000000 0.000000
# 2 -0.005473 0.017207 -0.007421 0.000000 0.000000 0.000000
# 3 -0.002002 -0.007421 0.023281 0.000000 0.000000 0.000000
# 4 0.000000 0.000000 0.000000 0.038983 0.000000 0.000000
# 5 0.000000 0.000000 0.000000 0.000000 0.047978 0.000000
# 6 0.000000 0.000000 0.000000 0.000000 0.000000 0.041402
#
#
# Mechanical properties :
#
#
# Convention : Reuss Voigt Hill
#
# Bulk Modulus (GPa) = 49.58690 61.26329 55.42509
# Shear Modulus (GPa) = 23.27345 25.40716 24.34031
#
# Velocity S-wave (km/s) = 3.52061 3.67846 3.60040
# Velocity P-wave (km/s) = 6.55246 7.11817 6.84117
#
# Compressibility (1/GPa) = 0.02016662
#
# Stress axis : x y z
#
# Youngs Moduli (GPa) = 105.58251 58.11523 42.95397
#
# Poissons Ratio (x) = 0.31805 0.08600
# Poissons Ratio (y) = 0.57783 0.31878
# Poissons Ratio (z) = 0.21138 0.43130
#
# Static dielectric constant tensor:
#      x y z
#    x 1.652790 0.000000 0.000000 
#    y 0.000000 1.698200 0.000000 
#    z 0.000000 0.000000 1.679090 
# 
# From -- ./inp_files/21150.got.cif
#   From: 2010.05.17/outbox.cif.g08.bks.cpg/sg20_11_cif.got.tgz:21150.got - 2010.06.03 22:52:26.
