data_PCOD9318709
_publ_section_title
;
Structure prediction by ZEFSAII (Michael W. Deem and Ramdas Pophale) SiO2 
 PCOD9318709
Probable space group: C 2 2 21
;
_chemical_formula_sum "Si O2"
_cell_formula_units_Z 52
_cell_length_a 8.629203
_cell_length_b 14.275186
_cell_length_c 20.680380
_cell_angle_alpha 90.000000
_cell_angle_beta 90.000000
_cell_angle_gamma 90.000000
_cell_volume 2547.481132
_symmetry_space_group_name_H-M "C 2 2 21"
_symmetry_group_IT_number 20
_symmetry_cell_setting 'orthorhombic'
loop_
_space_group_symop_operation_xyz
x,y,z
-x,-y,1/2+z
x,-y,-z
-x,y,1/2-z
1/2+x,1/2+y,z
1/2-x,1/2-y,1/2+z
1/2+x,1/2-y,-z
1/2-x,1/2+y,1/2-z
loop_
_atom_site_type_symbol
_atom_site_label
_atom_site_fract_x
_atom_site_fract_y
_atom_site_fract_z
Si Si1 0.107029 0.025169 0.073905
Si Si2 0.729196 0.288583 0.857972
Si Si3 0.116415 0.368435 0.049203
Si Si4 0.254543 0.073894 0.421344
Si Si5 0.149917 0.591128 0.635171
Si Si6 0.000000 0.286072 0.250000
Si Si7 0.010555 0.603032 0.175033
O O1 0.180182 0.120093 0.101652
O O2 0.925894 0.052005 0.074928
O O3 0.174421 0.938859 0.117252
O O4 0.149653 0.000000 0.000000
O O5 0.707062 0.201086 0.904448
O O6 0.618072 0.272258 0.795669
O O7 0.906441 0.307105 0.840094
O O8 0.171566 0.472704 0.065441
O O9 0.937697 0.362945 0.072856
O O10 0.168775 0.357909 0.975126
O O11 0.316969 0.109422 0.352813
O O12 0.102508 0.651564 0.698728
O O13 0.068934 0.489998 0.645731
O O14 0.000000 0.587996 0.250000
#
# Coordination Sequence:
#
# PCOD9318709 Si02
#       7
#     8   8   8   8   8   4   8
#     4  11  23  42  62 101 129 167 218 276 331 400
#     4  10  24  39  64  96 130 164 228 270 325 392
#     4   9  19  41  62  91 124 171 209 268 319 389
#     4  10  21  40  64  87 134 171 211 265 334 386
#     4   9  20  38  70  85 124 175 218 255 329 397
#     4  10  20  46  64  96 132 174 218 286 330 384
#     4  10  21  39  64  90 122 175 215 255 322 397
#
# _framework density 20.412319
#
# number of rings (size 3 to 8) (size 9 to 14) (size 15 to 20)
#    0.000    2.154    2.308    0.000    8.615    1.231 
#    5.538    0.000    0.000    0.000    0.000    0.000 
#    0.000    0.000    0.000    0.000    0.000    0.000 
#
# Total GULP energy -144748.477306 kJ/mol
# GULP energy per Si atom -5567.249127 kJ/mol
# Density = 2.036586 g / cm^3
# Si number density = 20.412319 Si / 1000 Ang^3
#
#
#
# Elastic Constant Matrix: (Units=GPa)
#
#
# Indices 1 2 3 4 5 6 
#
# 1 65.5002 17.5947 54.6399 0.0000 0.0000 0.0000
# 2 17.5947 42.7628 27.5927 0.0000 0.0000 0.0000
# 3 54.6399 27.5927 105.2430 0.0000 0.0000 0.0000
# 4 0.0000 0.0000 0.0000 35.0994 0.0000 0.0000
# 5 0.0000 0.0000 0.0000 0.0000 -10.7086 0.0000
# 6 0.0000 0.0000 0.0000 0.0000 0.0000 -9.1763
#
#
#
# Elastic Compliance Matrix: (Units=1/GPa)
#
#
# Indices 1 2 3 4 5 6 
#
# 1 0.027151 -0.002498 -0.013441 0.000000 0.000000 0.000000
# 2 -0.002498 0.028376 -0.006143 0.000000 0.000000 0.000000
# 3 -0.013441 -0.006143 0.018091 0.000000 0.000000 0.000000
# 4 0.000000 0.000000 0.000000 0.028491 0.000000 0.000000
# 5 0.000000 0.000000 0.000000 0.000000 -0.093383 0.000000
# 6 0.000000 0.000000 0.000000 0.000000 0.000000 -0.108976
#
#
# Mechanical properties :
#
#
# Convention : Reuss Voigt Hill
#
# Bulk Modulus (GPa) = 33.95174 45.90675 39.92924
# Shear Modulus (GPa) = -108.06340 10.62147 -48.72097
#
# Velocity S-wave (km/s) = -7.28390 2.28358 -4.89083
# Velocity P-wave (km/s) = 7.35331 5.43061 3.50569
#
# Compressibility (1/GPa) = 0.02945357
#
# Stress axis : x y z
#
# Youngs Moduli (GPa) = 36.83150 35.24070 55.27729
#
# Poissons Ratio (x) = 0.08804 0.74298
# Poissons Ratio (y) = 0.09202 0.33955
# Poissons Ratio (z) = 0.49505 0.21647
#
# Static dielectric constant tensor:
#      x y z
#    x 1.786960 0.000000 0.000000 
#    y 0.000000 1.771320 0.000000 
#    z 0.000000 0.000000 1.829240 
# 
# From -- ./inp_files/26624.got.cif
#   From: 2010.05.17/outbox.cif.g08.bks.cpg/sg20_14_cif.got.tgz:26624.got - 2010.06.03 22:52:26.
