data_PCOD9318278
_publ_section_title
;
Structure prediction by ZEFSAII (Michael W. Deem and Ramdas Pophale) SiO2 
 PCOD9318278
Probable space group: C 2 2 21
;
_chemical_formula_sum "Si O2"
_cell_formula_units_Z 56
_cell_length_a 12.421009
_cell_length_b 7.405565
_cell_length_c 23.258694
_cell_angle_alpha 90.000000
_cell_angle_beta 90.000000
_cell_angle_gamma 90.000000
_cell_volume 2139.441420
_symmetry_space_group_name_H-M "C 2 2 21"
_symmetry_group_IT_number 20
_symmetry_cell_setting 'orthorhombic'
loop_
_space_group_symop_operation_xyz
x,y,z
-x,-y,1/2+z
x,-y,-z
-x,y,1/2-z
1/2+x,1/2+y,z
1/2-x,1/2-y,1/2+z
1/2+x,1/2-y,-z
1/2-x,1/2+y,1/2-z
loop_
_atom_site_type_symbol
_atom_site_label
_atom_site_fract_x
_atom_site_fract_y
_atom_site_fract_z
Si Si1 0.672585 0.180583 0.257125
Si Si2 0.153637 0.538199 0.128620
Si Si3 0.099138 0.066171 0.217675
Si Si4 0.347307 0.653870 0.935560
Si Si5 0.792558 0.633212 0.958706
Si Si6 0.917914 0.486262 0.136881
Si Si7 0.579891 0.425405 0.089004
O O1 0.675867 0.108704 0.192470
O O2 0.793595 0.183312 0.280718
O O3 0.609234 0.043315 0.298442
O O4 0.623355 0.380435 0.253355
O O5 0.253957 0.439909 0.101079
O O6 0.118100 0.715512 0.092600
O O7 0.041394 0.430123 0.130572
O O8 0.076120 0.003929 0.153015
O O9 0.000000 0.155665 0.250000
O O10 0.463195 0.554607 0.938358
O O11 0.384204 0.829246 0.897012
O O12 0.297489 0.698569 0.998435
O O13 0.845872 0.660243 0.896332
O O14 0.686494 0.510929 0.944237
O O15 0.863265 0.500000 0.000000
#
# Coordination Sequence:
#
# PCOD9318278 Si02
#       7
#     8   8   8   8   8   8   8
#     4  11  20  38  65  93 125 162 206 253 317 380
#     4  10  21  36  63  92 117 155 203 254 312 367
#     4  11  22  39  66  92 131 168 203 257 319 379
#     4  10  22  39  63  88 119 159 214 252 308 369
#     4  10  22  40  60  83 117 165 204 252 308 361
#     4  10  20  39  60  87 121 160 201 251 306 376
#     4  10  21  41  60  89 122 160 204 256 310 366
#
# _framework density 26.175056999999999
#
# number of rings (size 3 to 8) (size 9 to 14) (size 15 to 20)
#    0.000    1.714    1.429    4.714    2.000    0.571 
#    2.571    3.571    0.000    0.000    0.000    0.000 
#    0.000    0.000    0.000    0.000    0.000    0.000 
#
# Total GULP energy -156657.527085 kJ/mol
# GULP energy per Si atom -5594.911682 kJ/mol
# Density = 2.611548 g / cm^3
# Si number density = 26.175057 Si / 1000 Ang^3
#
#
#
# Elastic Constant Matrix: (Units=GPa)
#
#
# Indices 1 2 3 4 5 6 
#
# 1 190.5318 17.0112 35.4888 0.0000 0.0000 0.0000
# 2 17.0112 73.1767 10.2293 0.0000 0.0000 0.0000
# 3 35.4888 10.2293 120.5375 0.0000 0.0000 0.0000
# 4 0.0000 0.0000 0.0000 34.5883 0.0000 0.0000
# 5 0.0000 0.0000 0.0000 0.0000 34.1003 0.0000
# 6 0.0000 0.0000 0.0000 0.0000 0.0000 34.3991
#
#
#
# Elastic Compliance Matrix: (Units=1/GPa)
#
#
# Indices 1 2 3 4 5 6 
#
# 1 0.005638 -0.001092 -0.001567 0.000000 0.000000 0.000000
# 2 -0.001092 0.014041 -0.000870 0.000000 0.000000 0.000000
# 3 -0.001567 -0.000870 0.008831 0.000000 0.000000 0.000000
# 4 0.000000 0.000000 0.000000 0.028912 0.000000 0.000000
# 5 0.000000 0.000000 0.000000 0.000000 0.029325 0.000000
# 6 0.000000 0.000000 0.000000 0.000000 0.000000 0.029071
#
#
# Mechanical properties :
#
#
# Convention : Reuss Voigt Hill
#
# Bulk Modulus (GPa) = 46.61515 56.63384 51.62449
# Shear Modulus (GPa) = 38.45375 42.05197 40.25286
#
# Velocity S-wave (km/s) = 3.83704 4.01255 3.92578
# Velocity P-wave (km/s) = 6.12194 6.56894 6.34937
#
# Compressibility (1/GPa) = 0.02145226
#
# Stress axis : x y z
#
# Youngs Moduli (GPa) = 177.37268 71.22024 113.23154
#
# Poissons Ratio (x) = 0.07774 0.17746
# Poissons Ratio (y) = 0.19361 0.09853
# Poissons Ratio (z) = 0.27799 0.06198
#
# Static dielectric constant tensor:
#      x y z
#    x 2.253380 0.000000 0.000000 
#    y 0.000000 2.338720 0.000000 
#    z 0.000000 0.000000 2.076370 
# 
# From -- ./inp_files/29132.got.cif
#   From: 2010.05.17/outbox.cif.g08.bks.cpg/sg20_15_cif.got.tgz:29132.got - 2010.06.03 22:52:26.
