data_PCOD9318414
_publ_section_title
;
Structure prediction by ZEFSAII (Michael W. Deem and Ramdas Pophale) SiO2 
 PCOD9318414
Probable space group: C 2 2 21
;
_chemical_formula_sum "Si O2"
_cell_formula_units_Z 64
_cell_length_a 18.301559
_cell_length_b 15.463975
_cell_length_c 10.711295
_cell_angle_alpha 90.000000
_cell_angle_beta 90.000000
_cell_angle_gamma 90.000000
_cell_volume 3031.455557
_symmetry_space_group_name_H-M "C 2 2 21"
_symmetry_group_IT_number 20
_symmetry_cell_setting 'orthorhombic'
loop_
_space_group_symop_operation_xyz
x,y,z
-x,-y,1/2+z
x,-y,-z
-x,y,1/2-z
1/2+x,1/2+y,z
1/2-x,1/2-y,1/2+z
1/2+x,1/2-y,-z
1/2-x,1/2+y,1/2-z
loop_
_atom_site_type_symbol
_atom_site_label
_atom_site_fract_x
_atom_site_fract_y
_atom_site_fract_z
Si Si1 0.700957 0.056998 0.187121
Si Si2 0.437181 0.987320 0.169392
Si Si3 0.451681 0.851626 0.968938
Si Si4 0.445495 0.465756 0.134762
Si Si5 0.647608 0.370769 0.727488
Si Si6 0.437909 0.233074 0.644651
Si Si7 0.647535 0.299963 0.451294
Si Si8 0.199720 0.370889 0.082565
O O1 0.631577 0.032638 0.268953
O O2 0.768794 0.103581 0.252755
O O3 0.725464 0.962707 0.136573
O O4 0.681820 0.111555 0.063024
O O5 0.500000 0.943557 0.250000
O O6 0.481462 0.069176 0.111959
O O7 0.414045 0.911633 0.075390
O O8 0.392214 0.787789 0.912528
O O9 0.515924 0.791545 0.022252
O O10 0.500000 0.447730 0.250000
O O11 0.394369 0.543295 0.184392
O O12 0.397756 0.381260 0.102132
O O13 0.476776 0.500000 0.000000
O O14 0.605229 0.323271 0.838992
O O15 0.645837 0.309740 0.603096
O O16 0.500000 0.237448 0.750000
O O17 0.372374 0.163337 0.650818
O O18 0.731429 0.307470 0.410308
#
# Coordination Sequence:
#
# PCOD9318414 Si02
#       8
#     8   8   8   8   8   8   8   8
#     4  10  20  40  64  93 127 174 223 280 349 412
#     4  11  24  41  64  92 132 172 225 286 353 411
#     4  11  24  40  63  95 130 175 220 288 346 407
#     4  10  21  40  69  97 135 181 233 283 347 413
#     4  10  21  37  65  96 127 177 224 281 334 425
#     4  12  22  37  66  99 126 173 232 274 333 417
#     4  10  21  40  62  94 132 173 227 275 346 412
#     4  10  21  38  66  95 127 170 227 280 335 427
#
# _framework density 21.111972000000002
#
# number of rings (size 3 to 8) (size 9 to 14) (size 15 to 20)
#    0.000    1.500    2.500    3.000    3.500    2.500 
#    0.000    0.000    5.500    0.000    0.000    0.000 
#    0.000    0.000    0.000    0.000    0.000    0.000 
#
# Total GULP energy -178490.376464 kJ/mol
# GULP energy per Si atom -5577.824265 kJ/mol
# Density = 2.106392 g / cm^3
# Si number density = 21.111972 Si / 1000 Ang^3
#
#
#
# Elastic Constant Matrix: (Units=GPa)
#
#
# Indices 1 2 3 4 5 6 
#
# 1 124.9788 36.7936 34.3395 0.0000 0.0000 0.0000
# 2 36.7936 101.5974 14.2669 0.0000 0.0000 0.0000
# 3 34.3395 14.2669 45.5589 0.0000 0.0000 0.0000
# 4 0.0000 0.0000 0.0000 21.7521 0.0000 0.0000
# 5 0.0000 0.0000 0.0000 0.0000 25.3795 0.0000
# 6 0.0000 0.0000 0.0000 0.0000 0.0000 40.6442
#
#
#
# Elastic Compliance Matrix: (Units=1/GPa)
#
#
# Indices 1 2 3 4 5 6 
#
# 1 0.010856 -0.002910 -0.007271 0.000000 0.000000 0.000000
# 2 -0.002910 0.011076 -0.001275 0.000000 0.000000 0.000000
# 3 -0.007271 -0.001275 0.027829 0.000000 0.000000 0.000000
# 4 0.000000 0.000000 0.000000 0.045973 0.000000 0.000000
# 5 0.000000 0.000000 0.000000 0.000000 0.039402 0.000000
# 6 0.000000 0.000000 0.000000 0.000000 0.000000 0.024604
#
#
# Mechanical properties :
#
#
# Convention : Reuss Voigt Hill
#
# Bulk Modulus (GPa) = 37.24605 49.21502 43.23054
# Shear Modulus (GPa) = 26.09581 30.00417 28.04999
#
# Velocity S-wave (km/s) = 3.51959 3.77396 3.64899
# Velocity P-wave (km/s) = 5.84783 6.50787 6.18666
#
# Compressibility (1/GPa) = 0.02684848
#
# Stress axis : x y z
#
# Youngs Moduli (GPa) = 92.11453 90.28699 35.93326
#
# Poissons Ratio (x) = 0.26278 0.26128
# Poissons Ratio (y) = 0.26810 0.04580
# Poissons Ratio (z) = 0.66978 0.11509
#
# Static dielectric constant tensor:
#      x y z
#    x 1.740030 0.000000 0.000000 
#    y 0.000000 1.756110 0.000000 
#    z 0.000000 0.000000 1.858440 
# 
# From -- ./inp_files/15914.got.cif
#   From: 2010.05.17/outbox.cif.g08.bks.cpg/sg20_8_cif.got.tgz:15914.got - 2010.06.03 22:52:26.
