data_PCOD9318748
_publ_section_title
;
Structure prediction by ZEFSAII (Michael W. Deem and Ramdas Pophale) SiO2 
 PCOD9318748
Probable space group: C 2 2 21
;
_chemical_formula_sum "Si O2"
_cell_formula_units_Z 64
_cell_length_a 22.729225
_cell_length_b 16.904954
_cell_length_c 8.657416
_cell_angle_alpha 90.000000
_cell_angle_beta 90.000000
_cell_angle_gamma 90.000000
_cell_volume 3326.495250
_symmetry_space_group_name_H-M "C 2 2 21"
_symmetry_group_IT_number 20
_symmetry_cell_setting 'orthorhombic'
loop_
_space_group_symop_operation_xyz
x,y,z
-x,-y,1/2+z
x,-y,-z
-x,y,1/2-z
1/2+x,1/2+y,z
1/2-x,1/2-y,1/2+z
1/2+x,1/2-y,-z
1/2-x,1/2+y,1/2-z
loop_
_atom_site_type_symbol
_atom_site_label
_atom_site_fract_x
_atom_site_fract_y
_atom_site_fract_z
Si Si1 0.298682 0.580242 0.937304
Si Si2 0.991960 0.755378 0.564523
Si Si3 0.518909 0.920926 0.427392
Si Si4 0.883919 0.780426 0.054582
Si Si5 0.835634 0.409601 0.462826
Si Si6 0.284891 0.414849 0.432170
Si Si7 0.130813 0.765499 0.077068
Si Si8 0.848519 0.617614 0.903126
O O1 0.340943 0.649296 0.986142
O O2 0.233400 0.589089 0.004620
O O3 0.291217 0.578719 0.752902
O O4 0.324802 0.500000 0.000000
O O5 0.929702 0.787601 0.509440
O O6 0.000000 0.757005 0.750000
O O7 0.995869 0.663037 0.511371
O O8 0.048491 0.795635 0.488233
O O9 0.500000 0.921828 0.250000
O O10 0.589402 0.921376 0.449063
O O11 0.493865 0.000000 0.500000
O O12 0.877637 0.767367 0.238101
O O13 0.861024 0.706843 0.954669
O O14 0.857121 0.500000 0.500000
O O15 0.857638 0.327087 0.536732
O O16 0.843941 0.395774 0.280119
O O17 0.305410 0.500000 0.500000
O O18 0.320267 0.332659 0.469578
O O19 0.215014 0.406644 0.471205
#
# Coordination Sequence:
#
# PCOD9318748 Si02
#       8
#     8   8   8   8   8   8   8   8
#     4   9  20  37  57  84 115 147 187 239 292 346
#     4  10  22  39  56  78 108 148 192 235 288 352
#     4  10  21  34  51  77 109 145 187 228 273 329
#     4  10  21  37  58  84 113 148 191 238 293 347
#     4  10  21  36  56  84 118 154 193 233 282 345
#     4  10  22  38  59  87 116 149 194 243 295 350
#     4  11  22  38  59  85 116 150 191 244 294 345
#     4  10  21  37  56  83 118 155 195 238 286 348
#
# _framework density 19.239467000000001
#
# number of rings (size 3 to 8) (size 9 to 14) (size 15 to 20)
#    0.000    2.000    0.000    3.750    0.000   11.000 
#    0.000    0.625    0.000    0.000    0.000    0.000 
#    0.000    0.000    0.000    0.000    0.000    0.000 
#
# Total GULP energy -178317.704121 kJ/mol
# GULP energy per Si atom -5572.428254 kJ/mol
# Density = 1.919568 g / cm^3
# Si number density = 19.239467 Si / 1000 Ang^3
#
#
#
# Elastic Constant Matrix: (Units=GPa)
#
#
# Indices 1 2 3 4 5 6 
#
# 1 123.3670 69.6045 16.3774 0.0000 0.0000 0.0000
# 2 69.6045 119.4976 30.4285 0.0000 0.0000 0.0000
# 3 16.3774 30.4285 17.8772 0.0000 0.0000 0.0000
# 4 0.0000 0.0000 0.0000 4.0740 0.0000 0.0000
# 5 0.0000 0.0000 0.0000 0.0000 23.7499 0.0000
# 6 0.0000 0.0000 0.0000 0.0000 0.0000 -32.0440
#
#
#
# Elastic Compliance Matrix: (Units=1/GPa)
#
#
# Indices 1 2 3 4 5 6 
#
# 1 0.012100 -0.007458 0.001608 0.000000 0.000000 0.000000
# 2 -0.007458 0.019366 -0.026131 0.000000 0.000000 0.000000
# 3 0.001608 -0.026131 0.098940 0.000000 0.000000 0.000000
# 4 0.000000 0.000000 0.000000 0.245461 0.000000 0.000000
# 5 0.000000 0.000000 0.000000 0.000000 0.042105 0.000000
# 6 0.000000 0.000000 0.000000 0.000000 0.000000 -0.031207
#
#
# Mechanical properties :
#
#
# Convention : Reuss Voigt Hill
#
# Bulk Modulus (GPa) = 15.04966 54.84030 34.94498
# Shear Modulus (GPa) = 10.57365 8.77808 9.67586
#
# Velocity S-wave (km/s) = 2.34686 2.13833 2.24501
# Velocity P-wave (km/s) = 3.89653 5.88749 4.99227
#
# Compressibility (1/GPa) = 0.06644670
#
# Stress axis : x y z
#
# Youngs Moduli (GPa) = 82.64504 51.63672 10.10710
#
# Poissons Ratio (x) = 0.38508 -0.01626
# Poissons Ratio (y) = 0.61633 0.26411
# Poissons Ratio (z) = -0.13293 1.34931
#
# Static dielectric constant tensor:
#      x y z
#    x 1.779830 0.000000 0.000000 
#    y 0.000000 1.709760 0.000000 
#    z 0.000000 0.000000 1.655550 
# 
# From -- ./inp_files/10803.got.cif
#   From: 2010.05.17/outbox.cif.g08.bks.cpg/sg20_6_cif.got.tgz:10803.got - 2010.06.03 22:52:26.
