data_PCOD9318721
_publ_section_title
;
Structure prediction by ZEFSAII (Michael W. Deem and Ramdas Pophale) SiO2 
 PCOD9318721
Probable space group: C 2 2 21
;
_chemical_formula_sum "Si O2"
_cell_formula_units_Z 28
_cell_length_a 23.146783
_cell_length_b 5.427575
_cell_length_c 8.979948
_cell_angle_alpha 90.000000
_cell_angle_beta 90.000000
_cell_angle_gamma 90.000000
_cell_volume 1128.158956
_symmetry_space_group_name_H-M "C 2 2 21"
_symmetry_group_IT_number 20
_symmetry_cell_setting 'orthorhombic'
loop_
_space_group_symop_operation_xyz
x,y,z
-x,-y,1/2+z
x,-y,-z
-x,y,1/2-z
1/2+x,1/2+y,z
1/2-x,1/2-y,1/2+z
1/2+x,1/2-y,-z
1/2-x,1/2+y,1/2-z
loop_
_atom_site_type_symbol
_atom_site_label
_atom_site_fract_x
_atom_site_fract_y
_atom_site_fract_z
Si Si1 0.812652 0.000000 0.000000
Si Si2 0.231889 0.764946 0.164498
Si Si3 0.945659 0.500000 0.000000
Si Si4 0.500000 0.346643 0.750000
Si Si5 0.110693 0.845366 0.254738
O O1 0.855166 0.031775 0.137848
O O2 0.769383 0.228346 0.016315
O O3 0.246462 0.507442 0.249606
O O4 0.162273 0.769863 0.144174
O O5 0.982924 0.315264 0.104802
O O6 0.908005 0.637271 0.126338
O O7 0.446827 0.521934 0.702494
#
# Coordination Sequence:
#
# PCOD9318721 Si02
#       5
#     4   8   4   4   8
#     4  10  20  46  77 100 153 198 248 328 404 464
#     4  10  23  41  75 111 142 198 259 312 402 475
#     4  12  24  46  81 106 157 218 264 326 406 476
#     4  12  26  46  78 116 148 228 262 332 406 476
#     4  11  23  45  75 107 153 200 263 324 400 475
#
# _framework density 24.819198
#
# number of rings (size 3 to 8) (size 9 to 14) (size 15 to 20)
#    0.000    1.143    2.857    2.571    4.000    3.429 
#    0.000    8.571   25.143    0.000    0.000    0.000 
#    0.000    0.000    0.000    0.000    0.000    0.000 
#
# Total GULP energy -78067.889910 kJ/mol
# GULP energy per Si atom -5576.277851 kJ/mol
# Density = 2.476271 g / cm^3
# Si number density = 24.819198 Si / 1000 Ang^3
#
#
#
# Elastic Constant Matrix: (Units=GPa)
#
#
# Indices 1 2 3 4 5 6 
#
# 1 216.3854 55.4635 18.7603 0.0000 0.0000 0.0000
# 2 55.4635 132.8208 33.6490 0.0000 0.0000 0.0000
# 3 18.7603 33.6490 49.3443 0.0000 0.0000 0.0000
# 4 0.0000 0.0000 0.0000 55.3102 0.0000 0.0000
# 5 0.0000 0.0000 0.0000 0.0000 -50.0694 0.0000
# 6 0.0000 0.0000 0.0000 0.0000 0.0000 90.2680
#
#
#
# Elastic Compliance Matrix: (Units=1/GPa)
#
#
# Indices 1 2 3 4 5 6 
#
# 1 0.005190 -0.002016 -0.000599 0.000000 0.000000 0.000000
# 2 -0.002016 0.009884 -0.005974 0.000000 0.000000 0.000000
# 3 -0.000599 -0.005974 0.024567 0.000000 0.000000 0.000000
# 4 0.000000 0.000000 0.000000 0.018080 0.000000 0.000000
# 5 0.000000 0.000000 0.000000 0.000000 -0.019972 0.000000
# 6 0.000000 0.000000 0.000000 0.000000 0.000000 0.011078
#
#
# Mechanical properties :
#
#
# Convention : Reuss Voigt Hill
#
# Bulk Modulus (GPa) = 44.51406 68.25512 56.38459
# Shear Modulus (GPa) = 68.03545 38.48029 53.25787
#
# Velocity S-wave (km/s) = 5.24137 3.94181 4.63734
# Velocity P-wave (km/s) = 7.38942 6.94823 7.17222
#
# Compressibility (1/GPa) = 0.02246481
#
# Stress axis : x y z
#
# Youngs Moduli (GPa) = 192.68158 101.17358 40.70490
#
# Poissons Ratio (x) = 0.20392 0.02437
# Poissons Ratio (y) = 0.38836 0.24316
# Poissons Ratio (z) = 0.11536 0.60439
#
# Static dielectric constant tensor:
#      x y z
#    x 2.000070 0.000000 0.000000 
#    y 0.000000 2.013830 0.000000 
#    z 0.000000 0.000000 2.088300 
# 
# From -- ./inp_files/11870.got.cif
#   From: 2010.05.17/outbox.cif.g08.bks.cpg/sg20_6_cif.got.tgz:11870.got - 2010.06.03 22:52:26.
