data_PCOD9318718
_publ_section_title
;
Structure prediction by ZEFSAII (Michael W. Deem and Ramdas Pophale) SiO2 
 PCOD9318718
Probable space group: C 2 2 21
;
_chemical_formula_sum "Si O2"
_cell_formula_units_Z 60
_cell_length_a 8.363725
_cell_length_b 12.762147
_cell_length_c 25.296104
_cell_angle_alpha 90.000000
_cell_angle_beta 90.000000
_cell_angle_gamma 90.000000
_cell_volume 2700.083069
_symmetry_space_group_name_H-M "C 2 2 21"
_symmetry_group_IT_number 20
_symmetry_cell_setting 'orthorhombic'
loop_
_space_group_symop_operation_xyz
x,y,z
-x,-y,1/2+z
x,-y,-z
-x,y,1/2-z
1/2+x,1/2+y,z
1/2-x,1/2-y,1/2+z
1/2+x,1/2-y,-z
1/2-x,1/2+y,1/2-z
loop_
_atom_site_type_symbol
_atom_site_label
_atom_site_fract_x
_atom_site_fract_y
_atom_site_fract_z
Si Si1 0.458246 0.876073 0.508170
Si Si2 0.519972 0.651700 0.366260
Si Si3 0.630100 0.532171 0.709930
Si Si4 0.160178 0.383998 0.718088
Si Si5 0.888108 0.823982 0.975429
Si Si6 0.859953 0.000000 0.500000
Si Si7 0.318974 0.910525 0.902096
Si Si8 0.606624 0.814130 0.201359
O O1 0.279723 0.839148 0.497197
O O2 0.565599 0.797486 0.474161
O O3 0.534364 0.858961 0.566578
O O4 0.457725 0.000000 0.500000
O O5 0.543574 0.552015 0.328128
O O6 0.635946 0.638737 0.415324
O O7 0.342710 0.654671 0.391779
O O8 0.525504 0.762095 0.336760
O O9 0.500000 0.583773 0.750000
O O10 0.743611 0.468522 0.748939
O O11 0.757565 0.606782 0.680641
O O12 0.128545 0.428814 0.658683
O O13 0.281593 0.285226 0.717105
O O14 0.000000 0.357982 0.750000
O O15 0.024833 0.898030 0.000644
O O16 0.753484 0.991669 0.553675
O O17 0.500000 0.855383 0.250000
#
# Coordination Sequence:
#
# PCOD9318718 Si02
#       8
#     8   8   8   8   8   4   8   8
#     4  12  26  48  72 108 144 191 248 299 369 447
#     4  10  22  46  69 101 151 186 237 304 359 429
#     4  12  22  44  70  99 148 186 239 297 351 434
#     4  11  23  44  66 103 150 184 244 298 359 444
#     4  11  25  46  74 105 146 187 241 306 364 441
#     4  10  20  46  72 100 140 186 242 300 370 434
#     4  10  22  43  71 100 145 190 234 306 363 430
#     4  11  22  43  68 101 142 190 237 296 365 426
#
# _framework density 22.221540000000001
#
# number of rings (size 3 to 8) (size 9 to 14) (size 15 to 20)
#    0.000    1.067    5.333    2.400    1.867    1.067 
#   12.000    0.000    0.000    0.000    0.000    0.000 
#    0.000    0.000    0.000    0.000    0.000    0.000 
#
# Total GULP energy -167079.162350 kJ/mol
# GULP energy per Si atom -5569.305412 kJ/mol
# Density = 2.217096 g / cm^3
# Si number density = 22.221540 Si / 1000 Ang^3
#
#
#
# Elastic Constant Matrix: (Units=GPa)
#
#
# Indices 1 2 3 4 5 6 
#
# 1 94.5958 24.8761 11.0589 0.0000 0.0000 0.0000
# 2 24.8761 89.5812 12.5373 0.0000 0.0000 0.0000
# 3 11.0589 12.5373 86.4822 0.0000 0.0000 0.0000
# 4 0.0000 0.0000 0.0000 4.2226 0.0000 0.0000
# 5 0.0000 0.0000 0.0000 0.0000 27.5073 0.0000
# 6 0.0000 0.0000 0.0000 0.0000 0.0000 -23.9666
#
#
#
# Elastic Compliance Matrix: (Units=1/GPa)
#
#
# Indices 1 2 3 4 5 6 
#
# 1 0.011493 -0.003048 -0.001028 0.000000 0.000000 0.000000
# 2 -0.003048 0.012202 -0.001379 0.000000 0.000000 0.000000
# 3 -0.001028 -0.001379 0.011894 0.000000 0.000000 0.000000
# 4 0.000000 0.000000 0.000000 0.236824 0.000000 0.000000
# 5 0.000000 0.000000 0.000000 0.000000 0.036354 0.000000
# 6 0.000000 0.000000 0.000000 0.000000 0.000000 -0.041725
#
#
# Mechanical properties :
#
#
# Convention : Reuss Voigt Hill
#
# Bulk Modulus (GPa) = 40.51818 40.84485 40.68152
# Shear Modulus (GPa) = 17.47160 16.36513 16.91837
#
# Velocity S-wave (km/s) = 2.80705 2.71671 2.76225
# Velocity P-wave (km/s) = 5.36464 5.31614 5.34045
#
# Compressibility (1/GPa) = 0.02468028
#
# Stress axis : x y z
#
# Youngs Moduli (GPa) = 87.01021 81.95110 84.07277
#
# Poissons Ratio (x) = 0.24976 0.08641
# Poissons Ratio (y) = 0.26518 0.11596
# Poissons Ratio (z) = 0.08943 0.11303
#
# Static dielectric constant tensor:
#      x y z
#    x 1.857850 0.000000 0.000000 
#    y 0.000000 1.864660 0.000000 
#    z 0.000000 0.000000 1.926960 
# 
# From -- ./inp_files/30159.got.cif
#   From: 2010.05.17/outbox.cif.g08.bks.cpg/sg20_16_cif.got.tgz:30159.got - 2010.06.03 22:52:26.
