data_PCOD9318029
_publ_section_title
;
Structure prediction by ZEFSAII (Michael W. Deem and Ramdas Pophale) SiO2 
 PCOD9318029
Probable space group: C 2 2 21
;
_chemical_formula_sum "Si O2"
_cell_formula_units_Z 40
_cell_length_a 17.231291
_cell_length_b 7.938689
_cell_length_c 13.440846
_cell_angle_alpha 90.000000
_cell_angle_beta 90.000000
_cell_angle_gamma 90.000000
_cell_volume 1838.625210
_symmetry_space_group_name_H-M "C 2 2 21"
_symmetry_group_IT_number 20
_symmetry_cell_setting 'orthorhombic'
loop_
_space_group_symop_operation_xyz
x,y,z
-x,-y,1/2+z
x,-y,-z
-x,y,1/2-z
1/2+x,1/2+y,z
1/2-x,1/2-y,1/2+z
1/2+x,1/2-y,-z
1/2-x,1/2+y,1/2-z
loop_
_atom_site_type_symbol
_atom_site_label
_atom_site_fract_x
_atom_site_fract_y
_atom_site_fract_z
Si Si1 0.073172 0.550955 0.802035
Si Si2 0.528652 0.710203 0.038267
Si Si3 0.390697 0.409162 0.366380
Si Si4 0.284996 0.114330 0.399579
Si Si5 0.609495 0.388287 0.673779
O O1 0.042321 0.614207 0.908821
O O2 0.153752 0.458532 0.819453
O O3 0.090962 0.717911 0.736068
O O4 0.000000 0.463116 0.750000
O O5 0.597275 0.591575 0.083065
O O6 0.450999 0.628211 0.083070
O O7 0.542253 0.701400 0.920972
O O8 0.313405 0.309313 0.398667
O O9 0.400254 0.455079 0.250390
O O10 0.196808 0.106435 0.364827
O O11 0.292915 0.000000 0.500000
#
# Coordination Sequence:
#
# PCOD9318029 Si02
#       5
#     8   8   8   8   8
#     4   9  19  39  61  82 120 159 198 244 301 358
#     4   9  19  39  62  86 113 163 206 241 289 362
#     4  10  20  37  62  85 122 156 203 244 295 362
#     4  12  23  36  59  96 127 154 194 259 310 349
#     4  10  22  39  64  88 117 163 205 248 296 361
#
# _framework density 21.755383999999999
#
# number of rings (size 3 to 8) (size 9 to 14) (size 15 to 20)
#    0.000    2.000    2.000    3.000    2.800    1.600 
#    0.000    0.000    0.000    4.800    0.000    0.000 
#    0.000    0.000    0.000    0.000    0.000    0.000 
#
# Total GULP energy -111379.923385 kJ/mol
# GULP energy per Si atom -5568.996169 kJ/mol
# Density = 2.170587 g / cm^3
# Si number density = 21.755384 Si / 1000 Ang^3
#
#
#
# Elastic Constant Matrix: (Units=GPa)
#
#
# Indices 1 2 3 4 5 6 
#
# 1 178.1516 34.8946 87.1742 0.0000 0.0000 0.0000
# 2 34.8946 60.0240 29.9615 0.0000 0.0000 0.0000
# 3 87.1742 29.9615 108.9924 0.0000 0.0000 0.0000
# 4 0.0000 0.0000 0.0000 35.3553 0.0000 0.0000
# 5 0.0000 0.0000 0.0000 0.0000 32.8893 0.0000
# 6 0.0000 0.0000 0.0000 0.0000 0.0000 29.8993
#
#
#
# Elastic Compliance Matrix: (Units=1/GPa)
#
#
# Indices 1 2 3 4 5 6 
#
# 1 0.009423 -0.001989 -0.006990 0.000000 0.000000 0.000000
# 2 -0.001989 0.019729 -0.003833 0.000000 0.000000 0.000000
# 3 -0.006990 -0.003833 0.015819 0.000000 0.000000 0.000000
# 4 0.000000 0.000000 0.000000 0.028284 0.000000 0.000000
# 5 0.000000 0.000000 0.000000 0.000000 0.030405 0.000000
# 6 0.000000 0.000000 0.000000 0.000000 0.000000 0.033446
#
#
# Mechanical properties :
#
#
# Convention : Reuss Voigt Hill
#
# Bulk Modulus (GPa) = 51.68381 72.35875 62.02128
# Shear Modulus (GPa) = 29.55432 32.63796 31.09614
#
# Velocity S-wave (km/s) = 3.68976 3.87748 3.78478
# Velocity P-wave (km/s) = 6.47772 7.30608 6.90433
#
# Compressibility (1/GPa) = 0.01934842
#
# Stress axis : x y z
#
# Youngs Moduli (GPa) = 106.12079 50.68575 63.21357
#
# Poissons Ratio (x) = 0.10081 0.44187
# Poissons Ratio (y) = 0.21107 0.24228
# Poissons Ratio (z) = 0.74180 0.19426
#
# Static dielectric constant tensor:
#      x y z
#    x 1.761780 0.000000 0.000000 
#    y 0.000000 1.888920 0.000000 
#    z 0.000000 0.000000 1.885450 
# 
# From -- ./inp_files/21136.got.cif
#   From: 2010.05.17/outbox.cif.g08.bks.cpg/sg20_11_cif.got.tgz:21136.got - 2010.06.03 22:52:26.
