data_PCOD9318404
_publ_section_title
;
Structure prediction by ZEFSAII (Michael W. Deem and Ramdas Pophale) SiO2 
 PCOD9318404
Probable space group: C 2 2 21
;
_chemical_formula_sum "Si O2"
_cell_formula_units_Z 60
_cell_length_a 10.048117
_cell_length_b 11.473896
_cell_length_c 20.643599
_cell_angle_alpha 90.000000
_cell_angle_beta 90.000000
_cell_angle_gamma 90.000000
_cell_volume 2380.022193
_symmetry_space_group_name_H-M "C 2 2 21"
_symmetry_group_IT_number 20
_symmetry_cell_setting 'orthorhombic'
loop_
_space_group_symop_operation_xyz
x,y,z
-x,-y,1/2+z
x,-y,-z
-x,y,1/2-z
1/2+x,1/2+y,z
1/2-x,1/2-y,1/2+z
1/2+x,1/2-y,-z
1/2-x,1/2+y,1/2-z
loop_
_atom_site_type_symbol
_atom_site_label
_atom_site_fract_x
_atom_site_fract_y
_atom_site_fract_z
Si Si1 0.861841 0.833793 0.137454
Si Si2 0.461970 0.450944 0.925575
Si Si3 0.145580 0.602048 0.276901
Si Si4 0.760265 0.500000 0.000000
Si Si5 0.009604 0.657245 0.448623
Si Si6 0.716515 0.897984 0.373210
Si Si7 0.925474 0.702010 0.587563
Si Si8 0.215126 0.354885 0.858636
O O1 0.868318 0.732241 0.191941
O O2 0.703674 0.846168 0.124207
O O3 0.926635 0.776658 0.073639
O O4 0.942467 0.955119 0.133336
O O5 0.565762 0.344304 0.912749
O O6 0.322309 0.383000 0.913586
O O7 0.468151 0.500000 0.000000
O O8 0.202424 0.507730 0.326687
O O9 0.237028 0.597826 0.212876
O O10 0.000000 0.569037 0.250000
O O11 0.703595 0.570058 0.939446
O O12 0.861738 0.416487 0.963338
O O13 0.921590 0.666876 0.512317
O O14 0.923731 0.607636 0.390135
O O15 0.565484 0.851830 0.387648
O O16 0.790089 0.784184 0.347272
#
# Coordination Sequence:
#
# PCOD9318404 Si02
#       8
#     8   8   8   4   8   8   8   8
#     4  12  25  43  69 104 143 192 230 288 374 426
#     4  11  24  46  71 108 144 183 233 304 374 429
#     4  12  26  47  68  99 138 190 248 289 353 441
#     4  10  20  40  64 100 136 174 234 284 350 428
#     4  11  22  41  66 106 136 178 232 288 359 432
#     4  10  24  44  70 102 135 183 237 300 357 424
#     4  10  25  44  70 107 145 178 237 301 364 441
#     4  11  26  43  72 102 137 188 240 295 362 434
#
# _framework density 25.209848999999998
#
# number of rings (size 3 to 8) (size 9 to 14) (size 15 to 20)
#    0.000    1.067    4.000    0.800   12.133    1.067 
#    1.200    2.000    0.000    0.000    0.000    0.000 
#    0.000    0.000    0.000    0.000    0.000    0.000 
#
# Total GULP energy -167614.567307 kJ/mol
# GULP energy per Si atom -5587.152244 kJ/mol
# Density = 2.515247 g / cm^3
# Si number density = 25.209849 Si / 1000 Ang^3
#
#
#
# Elastic Constant Matrix: (Units=GPa)
#
#
# Indices 1 2 3 4 5 6 
#
# 1 77.7184 8.7514 29.9927 0.0000 0.0000 0.0000
# 2 8.7514 109.8434 44.8113 0.0000 0.0000 0.0000
# 3 29.9927 44.8113 143.1065 0.0000 0.0000 0.0000
# 4 0.0000 0.0000 0.0000 48.8687 0.0000 0.0000
# 5 0.0000 0.0000 0.0000 0.0000 2.7487 0.0000
# 6 0.0000 0.0000 0.0000 0.0000 0.0000-3938.4823
#
#
#
# Elastic Compliance Matrix: (Units=1/GPa)
#
#
# Indices 1 2 3 4 5 6 
#
# 1 0.014000 0.000094 -0.002963 0.000000 0.000000 0.000000
# 2 0.000094 0.010438 -0.003288 0.000000 0.000000 0.000000
# 3 -0.002963 -0.003288 0.008638 0.000000 0.000000 0.000000
# 4 0.000000 0.000000 0.000000 0.020463 0.000000 0.000000
# 5 0.000000 0.000000 0.000000 0.000000 0.363814 0.000000
# 6 0.000000 0.000000 0.000000 0.000000 0.000000 -0.000254
#
#
# Mechanical properties :
#
#
# Convention : Reuss Voigt Hill
#
# Bulk Modulus (GPa) = 48.16847 55.30880 51.73863
# Shear Modulus (GPa) = 11.45906 -760.89881 -374.71987
#
# Velocity S-wave (km/s) = 2.13432 -17.39199 -12.20504
# Velocity P-wave (km/s) = 5.02218 19.52745 13.34352
#
# Compressibility (1/GPa) = 0.02076047
#
# Stress axis : x y z
#
# Youngs Moduli (GPa) = 71.42818 95.80571 115.76099
#
# Poissons Ratio (x) = -0.00896 0.34305
# Poissons Ratio (y) = -0.00668 0.38062
# Poissons Ratio (z) = 0.21168 0.31501
#
# Static dielectric constant tensor:
#      x y z
#    x 2.037640 0.000000 0.000000 
#    y 0.000000 2.796170 0.000000 
#    z 0.000000 0.000000 4.658030 
# 
# From -- ./inp_files/27287.got.cif
#   From: 2010.05.17/outbox.cif.g08.bks.cpg/sg20_14_cif.got.tgz:27287.got - 2010.06.03 22:52:26.
