data_PCOD9318711
_publ_section_title
;
Structure prediction by ZEFSAII (Michael W. Deem and Ramdas Pophale) SiO2 
 PCOD9318711
Probable space group: C 2 2 21
;
_chemical_formula_sum "Si O2"
_cell_formula_units_Z 44
_cell_length_a 16.414869
_cell_length_b 9.897863
_cell_length_c 14.410529
_cell_angle_alpha 90.000000
_cell_angle_beta 90.000000
_cell_angle_gamma 90.000000
_cell_volume 2341.309262
_symmetry_space_group_name_H-M "C 2 2 21"
_symmetry_group_IT_number 20
_symmetry_cell_setting 'orthorhombic'
loop_
_space_group_symop_operation_xyz
x,y,z
-x,-y,1/2+z
x,-y,-z
-x,y,1/2-z
1/2+x,1/2+y,z
1/2-x,1/2-y,1/2+z
1/2+x,1/2-y,-z
1/2-x,1/2+y,1/2-z
loop_
_atom_site_type_symbol
_atom_site_label
_atom_site_fract_x
_atom_site_fract_y
_atom_site_fract_z
Si Si1 0.173230 0.600677 0.381831
Si Si2 0.511072 0.868326 0.948402
Si Si3 0.500000 0.480162 0.250000
Si Si4 0.443458 0.628729 0.066904
Si Si5 0.719315 0.196867 0.574093
Si Si6 0.373018 0.750931 0.697483
O O1 0.225803 0.669570 0.463532
O O2 0.198035 0.445318 0.376842
O O3 0.168855 0.680150 0.286122
O O4 0.081632 0.601694 0.420641
O O5 0.558555 0.838693 0.854187
O O6 0.502015 0.736993 0.014656
O O7 0.544780 0.000000 0.000000
O O8 0.481442 0.571806 0.161115
O O9 0.578162 0.383630 0.229201
O O10 0.356593 0.701152 0.085715
O O11 0.431221 0.500000 0.000000
O O12 0.803672 0.237017 0.619953
#
# Coordination Sequence:
#
# PCOD9318711 Si02
#       6
#     8   8   4   8   8   8
#     4  10  20  46  67  85 138 177 212 266 334 392
#     4  11  21  44  69  95 132 178 218 270 326 394
#     4  12  24  38  68  98 130 172 218 274 332 388
#     4  11  22  42  66  95 133 169 219 275 327 385
#     4  10  24  41  65  94 129 173 214 273 333 385
#     4  12  24  42  68 101 129 177 221 271 331 393
#
# _framework density 18.792904
#
# number of rings (size 3 to 8) (size 9 to 14) (size 15 to 20)
#    0.000    1.091    7.273    1.091    2.545    5.091 
#    3.273    0.000    0.000    0.000    0.000    0.000 
#    0.000    0.000    0.000    0.000    0.000    0.000 
#
# Total GULP energy -122784.172055 kJ/mol
# GULP energy per Si atom -5581.098730 kJ/mol
# Density = 1.875013 g / cm^3
# Si number density = 18.792904 Si / 1000 Ang^3
#
#
#
# Elastic Constant Matrix: (Units=GPa)
#
#
# Indices 1 2 3 4 5 6 
#
# 1 47.2691 14.4648 35.4031 0.0000 0.0000 0.0000
# 2 14.4648 78.5198 15.0118 0.0000 0.0000 0.0000
# 3 35.4031 15.0118 57.3026 0.0000 0.0000 0.0000
# 4 0.0000 0.0000 0.0000 -11.6611 0.0000 0.0000
# 5 0.0000 0.0000 0.0000 0.0000 30.6299 0.0000
# 6 0.0000 0.0000 0.0000 0.0000 0.0000 3.2522
#
#
#
# Elastic Compliance Matrix: (Units=1/GPa)
#
#
# Indices 1 2 3 4 5 6 
#
# 1 0.039944 -0.002780 -0.023950 0.000000 0.000000 0.000000
# 2 -0.002780 0.013601 -0.001846 0.000000 0.000000 0.000000
# 3 -0.023950 -0.001846 0.032732 0.000000 0.000000 0.000000
# 4 0.000000 0.000000 0.000000 -0.085755 0.000000 0.000000
# 5 0.000000 0.000000 0.000000 0.000000 0.032648 0.000000
# 6 0.000000 0.000000 0.000000 0.000000 0.000000 0.307488
#
#
# Mechanical properties :
#
#
# Convention : Reuss Voigt Hill
#
# Bulk Modulus (GPa) = 34.33435 34.76122 34.54779
# Shear Modulus (GPa) = 12.26944 12.32497 12.29721
#
# Velocity S-wave (km/s) = 2.55792 2.56370 2.56081
# Velocity P-wave (km/s) = 5.19937 5.22499 5.21220
#
# Compressibility (1/GPa) = 0.02912535
#
# Stress axis : x y z
#
# Youngs Moduli (GPa) = 25.03497 73.52637 30.55123
#
# Poissons Ratio (x) = 0.20437 0.73171
# Poissons Ratio (y) = 0.06958 0.05639
# Poissons Ratio (z) = 0.59960 0.13571
#
# Static dielectric constant tensor:
#      x y z
#    x 1.635590 0.000000 0.000000 
#    y 0.000000 1.687540 0.000000 
#    z 0.000000 0.000000 1.664820 
# 
# From -- ./inp_files/21196.got.cif
#   From: 2010.05.17/outbox.cif.g08.bks.cpg/sg20_11_cif.got.tgz:21196.got - 2010.06.03 22:52:26.
