data_PCOD9318198
_publ_section_title
;
Structure prediction by ZEFSAII (Michael W. Deem and Ramdas Pophale) SiO2 
 PCOD9318198
Probable space group: C 2 2 21
;
_chemical_formula_sum "Si O2"
_cell_formula_units_Z 56
_cell_length_a 9.763470
_cell_length_b 14.155040
_cell_length_c 19.868429
_cell_angle_alpha 90.000000
_cell_angle_beta 90.000000
_cell_angle_gamma 90.000000
_cell_volume 2745.862752
_symmetry_space_group_name_H-M "C 2 2 21"
_symmetry_group_IT_number 20
_symmetry_cell_setting 'orthorhombic'
loop_
_space_group_symop_operation_xyz
x,y,z
-x,-y,1/2+z
x,-y,-z
-x,y,1/2-z
1/2+x,1/2+y,z
1/2-x,1/2-y,1/2+z
1/2+x,1/2-y,-z
1/2-x,1/2+y,1/2-z
loop_
_atom_site_type_symbol
_atom_site_label
_atom_site_fract_x
_atom_site_fract_y
_atom_site_fract_z
Si Si1 0.645798 0.334227 0.594418
Si Si2 0.373328 0.888274 0.054611
Si Si3 0.443551 0.164476 0.438718
Si Si4 0.340450 0.762739 0.232384
Si Si5 0.618279 0.643386 0.018690
Si Si6 0.118952 0.535055 0.694439
Si Si7 0.693712 0.837542 0.649597
O O1 0.631331 0.224014 0.571414
O O2 0.792061 0.373506 0.572651
O O3 0.657081 0.317371 0.674571
O O4 0.519635 0.387731 0.558341
O O5 0.433128 0.941522 0.118916
O O6 0.469300 0.897017 0.990395
O O7 0.217332 0.913459 0.033004
O O8 0.424653 0.266381 0.474031
O O9 0.535524 0.175107 0.371988
O O10 0.500000 0.773636 0.250000
O O11 0.298515 0.868585 0.210128
O O12 0.252216 0.734039 0.296220
O O13 0.718879 0.670556 0.080810
O O14 0.205241 0.440640 0.683527
O O15 0.000000 0.520600 0.750000
#
# Coordination Sequence:
#
# PCOD9318198 Si02
#       7
#     8   8   8   8   8   8   8
#     4   9  16  31  56  88 118 159 210 247 310 389
#     4   8  17  35  57  82 121 160 207 263 311 373
#     4   9  19  31  58  96 119 156 213 265 316 378
#     4  10  20  38  64  86 127 176 210 260 331 390
#     4   9  17  34  58  88 121 166 214 255 325 392
#     4  10  23  39  61  96 128 167 225 267 323 402
#     4  11  22  37  66  91 125 170 217 269 321 395
#
# _framework density 20.394317999999998
#
# number of rings (size 3 to 8) (size 9 to 14) (size 15 to 20)
#    0.000    2.571    1.429    0.857    4.000    2.286 
#    0.000    0.000    9.429    3.429    0.000    0.000 
#    0.000    0.000    0.000    0.000    0.000    0.000 
#
# Total GULP energy -155897.163778 kJ/mol
# GULP energy per Si atom -5567.755849 kJ/mol
# Density = 2.034790 g / cm^3
# Si number density = 20.394318 Si / 1000 Ang^3
#
#
#
# Elastic Constant Matrix: (Units=GPa)
#
#
# Indices 1 2 3 4 5 6 
#
# 1 106.8811 0.8507 27.5078 0.0000 0.0000 0.0000
# 2 0.8507 56.7580 19.7513 0.0000 0.0000 0.0000
# 3 27.5078 19.7513 105.4276 0.0000 0.0000 0.0000
# 4 0.0000 0.0000 0.0000 16.0783 0.0000 0.0000
# 5 0.0000 0.0000 0.0000 0.0000 43.4462 0.0000
# 6 0.0000 0.0000 0.0000 0.0000 0.0000 0.7388
#
#
#
# Elastic Compliance Matrix: (Units=1/GPa)
#
#
# Indices 1 2 3 4 5 6 
#
# 1 0.010065 0.000816 -0.002779 0.000000 0.000000 0.000000
# 2 0.000816 0.018914 -0.003756 0.000000 0.000000 0.000000
# 3 -0.002779 -0.003756 0.010914 0.000000 0.000000 0.000000
# 4 0.000000 0.000000 0.000000 0.062196 0.000000 0.000000
# 5 0.000000 0.000000 0.000000 0.000000 0.023017 0.000000
# 6 0.000000 0.000000 0.000000 0.000000 0.000000 1.353628
#
#
# Mechanical properties :
#
#
# Convention : Reuss Voigt Hill
#
# Bulk Modulus (GPa) = 35.14408 40.58735 37.86572
# Shear Modulus (GPa) = 3.33410 26.78310 15.05860
#
# Velocity S-wave (km/s) = 1.27999 3.62783 2.72025
# Velocity P-wave (km/s) = 4.41069 6.12313 5.33605
#
# Compressibility (1/GPa) = 0.02845429
#
# Stress axis : x y z
#
# Youngs Moduli (GPa) = 99.35488 52.87201 91.62543
#
# Poissons Ratio (x) = -0.04316 0.25463
# Poissons Ratio (y) = -0.08110 0.34417
# Poissons Ratio (z) = 0.27611 0.19860
#
# Static dielectric constant tensor:
#      x y z
#    x 1.754330 0.000000 0.000000 
#    y 0.000000 1.787960 0.000000 
#    z 0.000000 0.000000 1.769840 
# 
# From -- ./inp_files/26746.got.cif
#   From: 2010.05.17/outbox.cif.g08.bks.cpg/sg20_14_cif.got.tgz:26746.got - 2010.06.03 22:52:26.
