data_PCOD9318330
_publ_section_title
;
Structure prediction by ZEFSAII (Michael W. Deem and Ramdas Pophale) SiO2 
 PCOD9318330
Probable space group: C 2 2 21
;
_chemical_formula_sum "Si O2"
_cell_formula_units_Z 64
_cell_length_a 12.316823
_cell_length_b 17.419903
_cell_length_c 15.721312
_cell_angle_alpha 90.000000
_cell_angle_beta 90.000000
_cell_angle_gamma 90.000000
_cell_volume 3373.131089
_symmetry_space_group_name_H-M "C 2 2 21"
_symmetry_group_IT_number 20
_symmetry_cell_setting 'orthorhombic'
loop_
_space_group_symop_operation_xyz
x,y,z
-x,-y,1/2+z
x,-y,-z
-x,y,1/2-z
1/2+x,1/2+y,z
1/2-x,1/2-y,1/2+z
1/2+x,1/2-y,-z
1/2-x,1/2+y,1/2-z
loop_
_atom_site_type_symbol
_atom_site_label
_atom_site_fract_x
_atom_site_fract_y
_atom_site_fract_z
Si Si1 0.381748 0.149054 0.713270
Si Si2 0.753054 0.589211 0.148096
Si Si3 0.865642 0.184072 0.035294
Si Si4 0.916494 0.354373 0.978504
Si Si5 0.845915 0.409361 0.475775
Si Si6 0.260777 0.091212 0.871722
Si Si7 0.417558 0.407736 0.500410
Si Si8 0.117907 0.181297 0.264638
O O1 0.500000 0.125382 0.750000
O O2 0.355546 0.106398 0.625790
O O3 0.294270 0.133223 0.786326
O O4 0.385238 0.241606 0.707189
O O5 0.753224 0.498061 0.150392
O O6 0.715078 0.627632 0.234517
O O7 0.866116 0.616826 0.109582
O O8 0.661144 0.612878 0.078962
O O9 0.885554 0.265499 0.990265
O O10 0.868952 0.200028 0.136374
O O11 0.756289 0.139785 0.009392
O O12 0.967402 0.130900 0.011460
O O13 0.852709 0.397236 0.055716
O O14 0.042418 0.374402 0.986797
O O15 0.837042 0.500000 0.500000
O O16 0.148602 0.116091 0.916049
O O17 0.427402 0.500000 0.500000
O O18 0.000000 0.142817 0.250000
#
# Coordination Sequence:
#
# PCOD9318330 Si02
#       8
#     8   8   8   8   8   8   8   8
#     4  11  22  41  64  91 128 170 218 266 319 395
#     4  10  21  37  66  87 120 163 224 258 305 391
#     4  12  24  39  66  97 134 164 211 277 335 383
#     4  11  22  41  65  92 124 175 218 259 322 403
#     4  12  27  43  64 100 140 171 211 281 350 383
#     4  10  20  39  65  91 118 168 221 260 307 393
#     4   9  20  39  62  90 121 163 207 263 319 389
#     4  11  21  39  63  96 122 168 221 265 316 391
#
# _framework density 18.973469999999999
#
# number of rings (size 3 to 8) (size 9 to 14) (size 15 to 20)
#    0.000    1.250    3.750    3.750    5.250    0.000 
#    0.000    1.250    0.000    3.000    0.000    0.000 
#    0.000    0.000    0.000    0.000    0.000    0.000 
#
# Total GULP energy -178714.260957 kJ/mol
# GULP energy per Si atom -5584.820655 kJ/mol
# Density = 1.893029 g / cm^3
# Si number density = 18.973470 Si / 1000 Ang^3
#
#
#
# Elastic Constant Matrix: (Units=GPa)
#
#
# Indices 1 2 3 4 5 6 
#
# 1 115.5669 38.3857 26.6391 0.0000 0.0000 0.0000
# 2 38.3857 77.5376 23.1058 0.0000 0.0000 0.0000
# 3 26.6391 23.1058 54.4713 0.0000 0.0000 0.0000
# 4 0.0000 0.0000 0.0000 21.2988 0.0000 0.0000
# 5 0.0000 0.0000 0.0000 0.0000 21.3829 0.0000
# 6 0.0000 0.0000 0.0000 0.0000 0.0000 32.2510
#
#
#
# Elastic Compliance Matrix: (Units=1/GPa)
#
#
# Indices 1 2 3 4 5 6 
#
# 1 0.010904 -0.004360 -0.003483 0.000000 0.000000 0.000000
# 2 -0.004360 0.016507 -0.004869 0.000000 0.000000 0.000000
# 3 -0.003483 -0.004869 0.022127 0.000000 0.000000 0.000000
# 4 0.000000 0.000000 0.000000 0.046951 0.000000 0.000000
# 5 0.000000 0.000000 0.000000 0.000000 0.046766 0.000000
# 6 0.000000 0.000000 0.000000 0.000000 0.000000 0.031007
#
#
# Mechanical properties :
#
#
# Convention : Reuss Voigt Hill
#
# Bulk Modulus (GPa) = 41.47250 47.09301 44.28276
# Shear Modulus (GPa) = 24.07025 25.61621 24.84323
#
# Velocity S-wave (km/s) = 3.56564 3.67837 3.62244
# Velocity P-wave (km/s) = 6.23357 6.55094 6.39422
#
# Compressibility (1/GPa) = 0.02411236
#
# Stress axis : x y z
#
# Youngs Moduli (GPa) = 91.70829 60.58175 45.19316
#
# Poissons Ratio (x) = 0.26415 0.15741
# Poissons Ratio (y) = 0.39987 0.22007
# Poissons Ratio (z) = 0.31943 0.29500
#
# Static dielectric constant tensor:
#      x y z
#    x 1.658600 0.000000 0.000000 
#    y 0.000000 1.666450 0.000000 
#    z 0.000000 0.000000 1.662850 
# 
# From -- ./inp_files/20266.got.cif
#   From: 2010.05.17/outbox.cif.g08.bks.cpg/sg20_11_cif.got.tgz:20266.got - 2010.06.03 22:52:26.
