data_PCOD9318906
_publ_section_title
;
Structure prediction by ZEFSAII (Michael W. Deem and Ramdas Pophale) SiO2 
 PCOD9318906
Probable space group: C 2 2 21
;
_chemical_formula_sum "Si O2"
_cell_formula_units_Z 32
_cell_length_a 29.608928
_cell_length_b 5.106142
_cell_length_c 9.034325
_cell_angle_alpha 90.000000
_cell_angle_beta 90.000000
_cell_angle_gamma 90.000000
_cell_volume 1365.876025
_symmetry_space_group_name_H-M "C 2 2 21"
_symmetry_group_IT_number 20
_symmetry_cell_setting 'orthorhombic'
loop_
_space_group_symop_operation_xyz
x,y,z
-x,-y,1/2+z
x,-y,-z
-x,y,1/2-z
1/2+x,1/2+y,z
1/2-x,1/2-y,1/2+z
1/2+x,1/2-y,-z
1/2-x,1/2+y,1/2-z
loop_
_atom_site_type_symbol
_atom_site_label
_atom_site_fract_x
_atom_site_fract_y
_atom_site_fract_z
Si Si1 0.897434 0.481522 0.678911
Si Si2 0.716954 0.244662 0.601342
Si Si3 0.547799 0.513799 0.178960
Si Si4 0.180858 0.909972 0.165568
O O1 0.895341 0.500000 0.500000
O O2 0.935996 0.274196 0.725743
O O3 0.852241 0.317833 0.718612
O O4 0.914802 0.768810 0.723988
O O5 0.719970 0.500000 0.500000
O O6 0.767522 0.190634 0.659690
O O7 0.684176 0.334512 0.732140
O O8 0.703650 0.000000 0.500000
O O9 0.500000 0.581101 0.250000
O O10 0.544545 0.500000 0.000000
O O11 0.168177 0.000000 0.000000
#
# Coordination Sequence:
#
# PCOD9318906 Si02
#       4
#     8   8   8   8
#     4  10  21  37  64  98 125 160 220 276 314 380
#     4  11  25  41  62  96 138 179 223 283 344 395
#     4  10  21  39  64  94 127 162 205 264 331 398
#     4  11  22  41  68  96 129 177 230 275 330 397
#
# _framework density 23.428186
#
# number of rings (size 3 to 8) (size 9 to 14) (size 15 to 20)
#    0.000    1.500    0.000    6.750    0.000    8.000 
#    0.000    1.250    0.000   16.500    0.000    0.000 
#    0.000    0.000    0.000    0.000    0.000    0.000 
#
# Total GULP energy -89509.717357 kJ/mol
# GULP energy per Si atom -5594.357335 kJ/mol
# Density = 2.337486 g / cm^3
# Si number density = 23.428186 Si / 1000 Ang^3
#
#
#
# Elastic Constant Matrix: (Units=GPa)
#
#
# Indices 1 2 3 4 5 6 
#
# 1 142.3822 62.3824 51.3924 0.0000 0.0000 0.0000
# 2 62.3824 191.2732 46.8156 0.0000 0.0000 0.0000
# 3 51.3924 46.8156 64.3749 0.0000 0.0000 0.0000
# 4 0.0000 0.0000 0.0000 29.5211 0.0000 0.0000
# 5 0.0000 0.0000 0.0000 0.0000 11.4127 0.0000
# 6 0.0000 0.0000 0.0000 0.0000 0.0000 48.3120
#
#
#
# Elastic Compliance Matrix: (Units=1/GPa)
#
#
# Indices 1 2 3 4 5 6 
#
# 1 0.010269 -0.001633 -0.007011 0.000000 0.000000 0.000000
# 2 -0.001633 0.006620 -0.003510 0.000000 0.000000 0.000000
# 3 -0.007011 -0.003510 0.023683 0.000000 0.000000 0.000000
# 4 0.000000 0.000000 0.000000 0.033874 0.000000 0.000000
# 5 0.000000 0.000000 0.000000 0.000000 0.087622 0.000000
# 6 0.000000 0.000000 0.000000 0.000000 0.000000 0.020699
#
#
# Mechanical properties :
#
#
# Convention : Reuss Voigt Hill
#
# Bulk Modulus (GPa) = 61.48358 79.91234 70.69796
# Shear Modulus (GPa) = 23.52969 33.67848 28.60408
#
# Velocity S-wave (km/s) = 3.17256 3.79558 3.49797
# Velocity P-wave (km/s) = 6.30243 7.30699 6.82322
#
# Compressibility (1/GPa) = 0.01626450
#
# Stress axis : x y z
#
# Youngs Moduli (GPa) = 97.37638 151.05680 42.22349
#
# Poissons Ratio (x) = 0.24674 0.29601
# Poissons Ratio (y) = 0.15906 0.14822
# Poissons Ratio (z) = 0.68266 0.53025
#
# Static dielectric constant tensor:
#      x y z
#    x 1.958240 0.000000 0.000000 
#    y 0.000000 1.908590 0.000000 
#    z 0.000000 0.000000 1.879750 
# 
# From -- ./inp_files/11290.got.cif
#   From: 2010.05.17/outbox.cif.g08.bks.cpg/sg20_6_cif.got.tgz:11290.got - 2010.06.03 22:52:26.
