data_PCOD9318516
_publ_section_title
;
Structure prediction by ZEFSAII (Michael W. Deem and Ramdas Pophale) SiO2 
 PCOD9318516
Probable space group: C 2 2 21
;
_chemical_formula_sum "Si O2"
_cell_formula_units_Z 48
_cell_length_a 28.474833
_cell_length_b 5.571559
_cell_length_c 14.687757
_cell_angle_alpha 90.000000
_cell_angle_beta 90.000000
_cell_angle_gamma 90.000000
_cell_volume 2330.201075
_symmetry_space_group_name_H-M "C 2 2 21"
_symmetry_group_IT_number 20
_symmetry_cell_setting 'orthorhombic'
loop_
_space_group_symop_operation_xyz
x,y,z
-x,-y,1/2+z
x,-y,-z
-x,y,1/2-z
1/2+x,1/2+y,z
1/2-x,1/2-y,1/2+z
1/2+x,1/2-y,-z
1/2-x,1/2+y,1/2-z
loop_
_atom_site_type_symbol
_atom_site_label
_atom_site_fract_x
_atom_site_fract_y
_atom_site_fract_z
Si Si1 0.012963 0.000000 0.500000
Si Si2 0.547088 0.525314 0.295412
Si Si3 0.852568 0.726304 0.761944
Si Si4 0.743474 0.305603 0.696996
Si Si5 0.673614 0.570153 0.898953
Si Si6 0.043663 0.500000 0.000000
Si Si7 0.907908 0.348665 0.671277
O O1 0.039849 0.003791 0.403315
O O2 0.984480 0.250149 0.506736
O O3 0.500000 0.639372 0.250000
O O4 0.596976 0.657267 0.282564
O O5 0.554972 0.282717 0.235899
O O6 0.810691 0.763117 0.833813
O O7 0.829876 0.853777 0.673326
O O8 0.867775 0.458860 0.736331
O O9 0.751263 0.076383 0.765502
O O10 0.785656 0.256000 0.627971
O O11 0.620984 0.670570 0.892921
O O12 0.684067 0.500000 0.000000
O O13 0.070774 0.525957 0.903489
#
# Coordination Sequence:
#
# PCOD9318516 Si02
#       7
#     4   8   8   8   8   4   8
#     4  12  28  48  66 101 138 189 228 294 350 422
#     4  11  24  44  68  99 138 186 233 288 351 417
#     4  10  22  39  68  92 136 180 226 276 344 416
#     4  10  20  41  63  92 129 175 212 266 338 403
#     4  10  21  37  63 100 135 171 223 288 345 407
#     4  12  26  42  70  97 138 173 238 296 352 408
#     4  11  22  39  67 100 132 182 226 290 348 416
#
# _framework density 20.599081000000002
#
# number of rings (size 3 to 8) (size 9 to 14) (size 15 to 20)
#    0.000    1.333    3.333    2.000    5.833    0.667 
#    0.000    1.667    0.000    0.000    0.000    0.000 
#    0.000    0.000    0.000    0.000    0.000    0.000 
#
# Total GULP energy -133643.056874 kJ/mol
# GULP energy per Si atom -5568.460703 kJ/mol
# Density = 2.055220 g / cm^3
# Si number density = 20.599081 Si / 1000 Ang^3
#
#
#
# Elastic Constant Matrix: (Units=GPa)
#
#
# Indices 1 2 3 4 5 6 
#
# 1 132.5848 19.8665 38.6294 0.0000 0.0000 0.0000
# 2 19.8665 57.9041 0.6189 0.0000 0.0000 0.0000
# 3 38.6294 0.6189 102.7232 0.0000 0.0000 0.0000
# 4 0.0000 0.0000 0.0000 17.1482 0.0000 0.0000
# 5 0.0000 0.0000 0.0000 0.0000 15.8744 0.0000
# 6 0.0000 0.0000 0.0000 0.0000 0.0000 32.7501
#
#
#
# Elastic Compliance Matrix: (Units=1/GPa)
#
#
# Indices 1 2 3 4 5 6 
#
# 1 0.008977 -0.003044 -0.003357 0.000000 0.000000 0.000000
# 2 -0.003044 0.018303 0.001034 0.000000 0.000000 0.000000
# 3 -0.003357 0.001034 0.010991 0.000000 0.000000 0.000000
# 4 0.000000 0.000000 0.000000 0.058315 0.000000 0.000000
# 5 0.000000 0.000000 0.000000 0.000000 0.062995 0.000000
# 6 0.000000 0.000000 0.000000 0.000000 0.000000 0.030534
#
#
# Mechanical properties :
#
#
# Convention : Reuss Voigt Hill
#
# Bulk Modulus (GPa) = 36.31440 45.71576 41.01508
# Shear Modulus (GPa) = 23.80636 28.76103 26.28370
#
# Velocity S-wave (km/s) = 3.40325 3.74067 3.57594
# Velocity P-wave (km/s) = 5.75415 6.39516 6.08310
#
# Compressibility (1/GPa) = 0.02753729
#
# Stress axis : x y z
#
# Youngs Moduli (GPa) = 111.40032 54.63519 90.98180
#
# Poissons Ratio (x) = 0.16631 0.30546
# Poissons Ratio (y) = 0.33910 -0.09411
# Poissons Ratio (z) = 0.37401 -0.05651
#
# Static dielectric constant tensor:
#      x y z
#    x 1.805940 0.000000 0.000000 
#    y 0.000000 1.819230 0.000000 
#    z 0.000000 0.000000 1.763170 
# 
# From -- ./inp_files/22190.got.cif
#   From: 2010.05.17/outbox.cif.g08.bks.cpg/sg20_12_cif.got.tgz:22190.got - 2010.06.03 22:52:26.
