data_PCOD9318704
_publ_section_title
;
Structure prediction by ZEFSAII (Michael W. Deem and Ramdas Pophale) SiO2 
 PCOD9318704
Probable space group: C 2 2 21
;
_chemical_formula_sum "Si O2"
_cell_formula_units_Z 56
_cell_length_a 25.785461
_cell_length_b 6.711981
_cell_length_c 15.057605
_cell_angle_alpha 90.000000
_cell_angle_beta 90.000000
_cell_angle_gamma 90.000000
_cell_volume 2606.042650
_symmetry_space_group_name_H-M "C 2 2 21"
_symmetry_group_IT_number 20
_symmetry_cell_setting 'orthorhombic'
loop_
_space_group_symop_operation_xyz
x,y,z
-x,-y,1/2+z
x,-y,-z
-x,y,1/2-z
1/2+x,1/2+y,z
1/2-x,1/2-y,1/2+z
1/2+x,1/2-y,-z
1/2-x,1/2+y,1/2-z
loop_
_atom_site_type_symbol
_atom_site_label
_atom_site_fract_x
_atom_site_fract_y
_atom_site_fract_z
Si Si1 0.820148 0.471695 0.732303
Si Si2 0.779121 0.312602 0.559687
Si Si3 0.176479 0.708718 0.602442
Si Si4 0.928101 0.560380 0.092331
Si Si5 0.126336 0.904780 0.325672
Si Si6 0.405897 0.296366 0.671487
Si Si7 0.137499 0.000000 0.000000
Si Si8 0.000000 0.585295 0.750000
O O1 0.780331 0.404617 0.658075
O O2 0.797763 0.599034 0.813047
O O3 0.844353 0.273314 0.775181
O O4 0.864322 0.618295 0.690726
O O5 0.791937 0.500000 0.500000
O O6 0.723178 0.222841 0.532993
O O7 0.824377 0.152718 0.550035
O O8 0.123320 0.583699 0.590119
O O9 0.160771 0.934220 0.623498
O O10 0.909198 0.787644 0.103234
O O11 0.961897 0.525644 0.180963
O O12 0.955363 0.500000 0.000000
O O13 0.100293 0.036672 0.248255
O O14 0.395126 0.387674 0.575292
O O15 0.462710 0.210544 0.686204
#
# Coordination Sequence:
#
# PCOD9318704 Si02
#       8
#     8   8   8   8   8   8   4   4
#     4  10  21  43  65  97 139 180 231 286 342 416
#     4  12  26  39  68 104 142 189 227 279 355 421
#     4  10  25  42  67 102 140 181 238 285 340 433
#     4  11  26  48  72 105 141 179 240 302 351 423
#     4  10  20  45  72  90 140 186 220 294 348 406
#     4  11  23  47  70 101 141 179 241 296 345 423
#     4  12  26  44  70 106 146 188 236 290 350 424
#     4  12  24  54  70 102 140 184 244 298 358 420
#
# _framework density 21.488520000000001
#
# number of rings (size 3 to 8) (size 9 to 14) (size 15 to 20)
#    0.000    1.143    7.143    0.000    5.000    1.714 
#    7.714    0.000    0.000    0.000    0.000    0.000 
#    0.000    0.000    0.000    0.000    0.000    0.000 
#
# Total GULP energy -156295.111150 kJ/mol
# GULP energy per Si atom -5581.968255 kJ/mol
# Density = 2.143961 g / cm^3
# Si number density = 21.488520 Si / 1000 Ang^3
#
#
#
# Elastic Constant Matrix: (Units=GPa)
#
#
# Indices 1 2 3 4 5 6 
#
# 1 59.5980 27.4712 5.0414 0.0000 0.0000 0.0000
# 2 27.4712 124.6013 19.2772 0.0000 0.0000 0.0000
# 3 5.0414 19.2772 75.8671 0.0000 0.0000 0.0000
# 4 0.0000 0.0000 0.0000 28.9770 0.0000 0.0000
# 5 0.0000 0.0000 0.0000 0.0000 -13.1957 0.0000
# 6 0.0000 0.0000 0.0000 0.0000 0.0000 0.2008
#
#
#
# Elastic Compliance Matrix: (Units=1/GPa)
#
#
# Indices 1 2 3 4 5 6 
#
# 1 0.018680 -0.004087 -0.000203 0.000000 0.000000 0.000000
# 2 -0.004087 0.009248 -0.002078 0.000000 0.000000 0.000000
# 3 -0.000203 -0.002078 0.013723 0.000000 0.000000 0.000000
# 4 0.000000 0.000000 0.000000 0.034510 0.000000 0.000000
# 5 0.000000 0.000000 0.000000 0.000000 -0.075782 0.000000
# 6 0.000000 0.000000 0.000000 0.000000 0.000000 4.980387
#
#
# Mechanical properties :
#
#
# Convention : Reuss Voigt Hill
#
# Bulk Modulus (GPa) = 34.58476 40.40512 37.49494
# Shear Modulus (GPa) = 0.99937 17.08151 9.04044
#
# Velocity S-wave (km/s) = 0.68270 2.82248 2.05335
# Velocity P-wave (km/s) = 4.09279 5.42824 4.80711
#
# Compressibility (1/GPa) = 0.02891447
#
# Stress axis : x y z
#
# Youngs Moduli (GPa) = 53.53269 108.12878 72.87299
#
# Poissons Ratio (x) = 0.44193 0.01478
# Poissons Ratio (y) = 0.21879 0.15145
# Poissons Ratio (z) = 0.01086 0.22472
#
# Static dielectric constant tensor:
#      x y z
#    x 1.794470 0.000000 0.000000 
#    y 0.000000 1.850840 0.000000 
#    z 0.000000 0.000000 1.876450 
# 
# From -- ./inp_files/22336.got.cif
#   From: 2010.05.17/outbox.cif.g08.bks.cpg/sg20_12_cif.got.tgz:22336.got - 2010.06.03 22:52:26.
