data_PCOD9318601
_publ_section_title
;
Structure prediction by ZEFSAII (Michael W. Deem and Ramdas Pophale) SiO2 
 PCOD9318601
Probable space group: C 2 2 21
;
_chemical_formula_sum "Si O2"
_cell_formula_units_Z 36
_cell_length_a 12.083721
_cell_length_b 7.915618
_cell_length_c 15.635274
_cell_angle_alpha 90.000000
_cell_angle_beta 90.000000
_cell_angle_gamma 90.000000
_cell_volume 1495.515826
_symmetry_space_group_name_H-M "C 2 2 21"
_symmetry_group_IT_number 20
_symmetry_cell_setting 'orthorhombic'
loop_
_space_group_symop_operation_xyz
x,y,z
-x,-y,1/2+z
x,-y,-z
-x,y,1/2-z
1/2+x,1/2+y,z
1/2-x,1/2-y,1/2+z
1/2+x,1/2-y,-z
1/2-x,1/2+y,1/2-z
loop_
_atom_site_type_symbol
_atom_site_label
_atom_site_fract_x
_atom_site_fract_y
_atom_site_fract_z
Si Si1 0.613365 0.500000 0.500000
Si Si2 0.291587 0.147413 0.825828
Si Si3 0.069852 0.789345 0.921653
Si Si4 0.258011 0.000000 0.000000
Si Si5 0.794346 0.490673 0.644422
Si Si6 0.000000 0.845647 0.750000
O O1 0.534674 0.660011 0.479490
O O2 0.692855 0.526750 0.580638
O O3 0.316955 0.043846 0.911481
O O4 0.199921 0.288746 0.848300
O O5 0.403712 0.241536 0.797226
O O6 0.263368 0.047571 0.740104
O O7 0.101613 0.600988 0.889201
O O8 0.059154 0.910914 0.836625
O O9 0.176757 0.848001 0.973765
#
# Coordination Sequence:
#
# PCOD9318601 Si02
#       6
#     4   8   8   4   8   4
#     4  11  22  44  77 104 150 201 236 322 377 440
#     4  11  23  44  75 105 150 202 251 308 383 448
#     4  10  23  41  73 104 135 195 257 284 381 457
#     4  11  24  42  69 108 142 193 248 314 365 448
#     4  11  23  43  78 105 149 201 242 317 376 442
#     4  10  20  42  68 102 144 192 238 308 358 448
#
# _framework density 24.071961000000002
#
# number of rings (size 3 to 8) (size 9 to 14) (size 15 to 20)
#    0.000    1.333    2.222    4.000    0.000    0.000 
#    0.000    8.889   44.000    1.333    0.000    0.000 
#    0.000    0.000    0.000    0.000    0.000    0.000 
#
# Total GULP energy -100404.524317 kJ/mol
# GULP energy per Si atom -5578.029129 kJ/mol
# Density = 2.401717 g / cm^3
# Si number density = 24.071961 Si / 1000 Ang^3
#
#
#
# Elastic Constant Matrix: (Units=GPa)
#
#
# Indices 1 2 3 4 5 6 
#
# 1 70.7422 18.6060 34.1249 0.0000 0.0000 0.0000
# 2 18.6060 83.1779 42.7495 0.0000 0.0000 0.0000
# 3 34.1249 42.7495 212.3276 0.0000 0.0000 0.0000
# 4 0.0000 0.0000 0.0000 51.7004 0.0000 0.0000
# 5 0.0000 0.0000 0.0000 0.0000 47.4636 0.0000
# 6 0.0000 0.0000 0.0000 0.0000 0.0000 15.6123
#
#
#
# Elastic Compliance Matrix: (Units=1/GPa)
#
#
# Indices 1 2 3 4 5 6 
#
# 1 0.015770 -0.002482 -0.002035 0.000000 0.000000 0.000000
# 2 -0.002482 0.013801 -0.002380 0.000000 0.000000 0.000000
# 3 -0.002035 -0.002380 0.005516 0.000000 0.000000 0.000000
# 4 0.000000 0.000000 0.000000 0.019342 0.000000 0.000000
# 5 0.000000 0.000000 0.000000 0.000000 0.021069 0.000000
# 6 0.000000 0.000000 0.000000 0.000000 0.000000 0.064052
#
#
# Mechanical properties :
#
#
# Convention : Reuss Voigt Hill
#
# Bulk Modulus (GPa) = 46.96181 61.91206 54.43693
# Shear Modulus (GPa) = 31.16418 41.00641 36.08530
#
# Velocity S-wave (km/s) = 3.60199 4.13182 3.87597
# Velocity P-wave (km/s) = 6.07046 6.96692 6.53408
#
# Compressibility (1/GPa) = 0.02129390
#
# Stress axis : x y z
#
# Youngs Moduli (GPa) = 63.41091 72.46044 181.29503
#
# Poissons Ratio (x) = 0.17983 0.36891
# Poissons Ratio (y) = 0.15737 0.43143
# Poissons Ratio (z) = 0.12903 0.17244
#
# Static dielectric constant tensor:
#      x y z
#    x 1.974830 0.000000 0.000000 
#    y 0.000000 2.070900 0.000000 
#    z 0.000000 0.000000 2.101210 
# 
# From -- ./inp_files/18471.got.cif
#   From: 2010.05.17/outbox.cif.g08.bks.cpg/sg20_10_cif.got.tgz:18471.got - 2010.06.03 22:52:26.
