data_PCOD9318316
_publ_section_title
;
Structure prediction by ZEFSAII (Michael W. Deem and Ramdas Pophale) SiO2 
 PCOD9318316
Probable space group: C 2 2 21
;
_chemical_formula_sum "Si O2"
_cell_formula_units_Z 40
_cell_length_a 13.237535
_cell_length_b 28.139613
_cell_length_c 5.125346
_cell_angle_alpha 90.000000
_cell_angle_beta 90.000000
_cell_angle_gamma 90.000000
_cell_volume 1909.186834
_symmetry_space_group_name_H-M "C 2 2 21"
_symmetry_group_IT_number 20
_symmetry_cell_setting 'orthorhombic'
loop_
_space_group_symop_operation_xyz
x,y,z
-x,-y,1/2+z
x,-y,-z
-x,y,1/2-z
1/2+x,1/2+y,z
1/2-x,1/2-y,1/2+z
1/2+x,1/2-y,-z
1/2-x,1/2+y,1/2-z
loop_
_atom_site_type_symbol
_atom_site_label
_atom_site_fract_x
_atom_site_fract_y
_atom_site_fract_z
Si Si1 0.165643 0.049962 0.919579
Si Si2 0.066164 0.659321 0.992091
Si Si3 0.892368 0.854512 0.243025
Si Si4 0.748395 0.590170 0.416873
Si Si5 0.730005 0.778425 0.275861
O O1 0.093746 0.095880 0.899106
O O2 0.225999 0.052920 0.648949
O O3 0.241929 0.063607 0.147404
O O4 0.117617 0.000000 0.000000
O O5 0.150252 0.620091 0.059719
O O6 0.000000 0.670016 0.250000
O O7 0.128780 0.703144 0.865589
O O8 0.000000 0.641268 0.750000
O O9 0.801990 0.822552 0.353866
O O10 0.000000 0.829610 0.250000
O O11 0.844201 0.872308 0.968794
O O12 0.713461 0.749785 0.542428
#
# Coordination Sequence:
#
# PCOD9318316 Si02
#       5
#     8   8   8   8   8
#     4  10  20  39  64  92 127 167 206 251 320 387
#     4  11  22  39  67  90 118 164 213 258 316 372
#     4   9  23  41  64  91 129 166 205 261 322 375
#     4   9  21  38  60  90 123 162 201 259 306 373
#     4  11  25  42  63  92 129 162 213 265 318 384
#
# _framework density 20.951326000000002
#
# number of rings (size 3 to 8) (size 9 to 14) (size 15 to 20)
#    1.200    0.800    0.000    3.000    5.600    3.200 
#    3.600    0.000    0.000   12.000    0.000    0.000 
#    0.000    0.000    0.000    0.000    0.000    0.000 
#
# Total GULP energy -111353.143683 kJ/mol
# GULP energy per Si atom -5567.657184 kJ/mol
# Density = 2.090364 g / cm^3
# Si number density = 20.951326 Si / 1000 Ang^3
#
#
#
# Elastic Constant Matrix: (Units=GPa)
#
#
# Indices 1 2 3 4 5 6 
#
# 1 93.7613 5.0146 21.6863 0.0000 0.0000 0.0000
# 2 5.0146 56.7245 8.7130 0.0000 0.0000 0.0000
# 3 21.6863 8.7130 102.5171 0.0000 0.0000 0.0000
# 4 0.0000 0.0000 0.0000 28.9240 0.0000 0.0000
# 5 0.0000 0.0000 0.0000 0.0000 18.2371 0.0000
# 6 0.0000 0.0000 0.0000 0.0000 0.0000 4.1353
#
#
#
# Elastic Compliance Matrix: (Units=1/GPa)
#
#
# Indices 1 2 3 4 5 6 
#
# 1 0.011237 -0.000637 -0.002323 0.000000 0.000000 0.000000
# 2 -0.000637 0.017898 -0.001387 0.000000 0.000000 0.000000
# 3 -0.002323 -0.001387 0.010364 0.000000 0.000000 0.000000
# 4 0.000000 0.000000 0.000000 0.034573 0.000000 0.000000
# 5 0.000000 0.000000 0.000000 0.000000 0.054833 0.000000
# 6 0.000000 0.000000 0.000000 0.000000 0.000000 0.241822
#
#
# Mechanical properties :
#
#
# Convention : Reuss Voigt Hill
#
# Bulk Modulus (GPa) = 32.46041 35.98118 34.22079
# Shear Modulus (GPa) = 12.83076 24.76523 18.79799
#
# Velocity S-wave (km/s) = 2.47737 3.44181 2.99862
# Velocity P-wave (km/s) = 4.86930 5.74506 5.32521
#
# Compressibility (1/GPa) = 0.03080676
#
# Stress axis : x y z
#
# Youngs Moduli (GPa) = 88.99421 55.87118 96.49074
#
# Poissons Ratio (x) = 0.03556 0.22414
# Poissons Ratio (y) = 0.05665 0.13379
# Poissons Ratio (z) = 0.20672 0.07747
#
# Static dielectric constant tensor:
#      x y z
#    x 1.738510 0.000000 0.000000 
#    y 0.000000 1.825260 0.000000 
#    z 0.000000 0.000000 1.775630 
# 
# From -- ./inp_files/1405.got.cif
#   From: 2010.05.17/outbox.cif.g08.bks.cpg/sg20_1_cif.got.tgz:1405.got - 2010.06.03 22:52:26.
