data_PCOD9318543
_publ_section_title
;
Structure prediction by ZEFSAII (Michael W. Deem and Ramdas Pophale) SiO2 
 PCOD9318543
Probable space group: C 2 2 21
;
_chemical_formula_sum "Si O2"
_cell_formula_units_Z 48
_cell_length_a 15.160238
_cell_length_b 9.843351
_cell_length_c 14.674277
_cell_angle_alpha 90.000000
_cell_angle_beta 90.000000
_cell_angle_gamma 90.000000
_cell_volume 2189.806315
_symmetry_space_group_name_H-M "C 2 2 21"
_symmetry_group_IT_number 20
_symmetry_cell_setting 'orthorhombic'
loop_
_space_group_symop_operation_xyz
x,y,z
-x,-y,1/2+z
x,-y,-z
-x,y,1/2-z
1/2+x,1/2+y,z
1/2-x,1/2-y,1/2+z
1/2+x,1/2-y,-z
1/2-x,1/2+y,1/2-z
loop_
_atom_site_type_symbol
_atom_site_label
_atom_site_fract_x
_atom_site_fract_y
_atom_site_fract_z
Si Si1 0.396852 0.135490 0.044652
Si Si2 0.729048 0.587641 0.693250
Si Si3 0.707055 0.279323 0.948201
Si Si4 0.643200 0.854094 0.756349
Si Si5 0.948315 0.798083 0.408822
Si Si6 0.414209 0.430779 0.702236
O O1 0.295618 0.150581 0.013295
O O2 0.386721 0.127423 0.153201
O O3 0.464344 0.260300 0.034615
O O4 0.435122 0.000000 0.000000
O O5 0.751385 0.641691 0.592922
O O6 0.710133 0.724117 0.752264
O O7 0.809854 0.493001 0.718890
O O8 0.643245 0.498137 0.716393
O O9 0.653524 0.348421 0.863031
O O10 0.635401 0.277923 0.026457
O O11 0.569560 0.808506 0.827344
O O12 0.948455 0.945417 0.361996
O O13 0.500000 0.363396 0.750000
#
# Coordination Sequence:
#
# PCOD9318543 Si02
#       6
#     8   8   8   8   8   8
#     4  11  23  43  66  98 132 182 232 281 345 409
#     4  10  20  41  67  99 129 176 230 267 348 405
#     4  11  24  43  68  99 139 181 227 287 352 413
#     4  10  22  41  71  92 134 183 220 281 344 411
#     4  11  24  42  68  98 137 183 232 284 348 419
#     4  11  21  43  70  95 138 183 232 282 351 415
#
# _framework density 21.919747000000001
#
# number of rings (size 3 to 8) (size 9 to 14) (size 15 to 20)
#    0.000    1.333    3.333    5.000    4.667    0.000 
#    6.000    0.000    0.000    0.000    0.000    0.000 
#    0.000    0.000    0.000    0.000    0.000    0.000 
#
# Total GULP energy -133800.567451 kJ/mol
# GULP energy per Si atom -5575.023644 kJ/mol
# Density = 2.186986 g / cm^3
# Si number density = 21.919747 Si / 1000 Ang^3
#
#
#
# Elastic Constant Matrix: (Units=GPa)
#
#
# Indices 1 2 3 4 5 6 
#
# 1 102.7244 5.2851 17.2201 0.0000 0.0000 0.0000
# 2 5.2851 29.0615 3.2306 0.0000 0.0000 0.0000
# 3 17.2201 3.2306 44.2518 0.0000 0.0000 0.0000
# 4 0.0000 0.0000 0.0000 20.1761 0.0000 0.0000
# 5 0.0000 0.0000 0.0000 0.0000 35.2414 0.0000
# 6 0.0000 0.0000 0.0000 0.0000 0.0000 1.9634
#
#
#
# Elastic Compliance Matrix: (Units=1/GPa)
#
#
# Indices 1 2 3 4 5 6 
#
# 1 0.010476 -0.001464 -0.003970 0.000000 0.000000 0.000000
# 2 -0.001464 0.034896 -0.001978 0.000000 0.000000 0.000000
# 3 -0.003970 -0.001978 0.024287 0.000000 0.000000 0.000000
# 4 0.000000 0.000000 0.000000 0.049564 0.000000 0.000000
# 5 0.000000 0.000000 0.000000 0.000000 0.028376 0.000000
# 6 0.000000 0.000000 0.000000 0.000000 0.000000 0.509318
#
#
# Mechanical properties :
#
#
# Convention : Reuss Voigt Hill
#
# Bulk Modulus (GPa) = 18.23624 25.27881 21.75753
# Shear Modulus (GPa) = 7.24620 21.49630 14.37125
#
# Velocity S-wave (km/s) = 1.82015 3.13498 2.56331
# Velocity P-wave (km/s) = 3.57140 4.96605 4.32530
#
# Compressibility (1/GPa) = 0.05483586
#
# Stress axis : x y z
#
# Youngs Moduli (GPa) = 95.46050 28.65669 41.17413
#
# Poissons Ratio (x) = 0.04195 0.16344
# Poissons Ratio (y) = 0.13974 0.08144
# Poissons Ratio (z) = 0.37894 0.05668
#
# Static dielectric constant tensor:
#      x y z
#    x 1.891290 0.000000 0.000000 
#    y 0.000000 1.873140 0.000000 
#    z 0.000000 0.000000 1.806140 
# 
# From -- ./inp_files/20656.got.cif
#   From: 2010.05.17/outbox.cif.g08.bks.cpg/sg20_11_cif.got.tgz:20656.got - 2010.06.03 22:52:26.
