data_PCOD9318267
_publ_section_title
;
Structure prediction by ZEFSAII (Michael W. Deem and Ramdas Pophale) SiO2 
 PCOD9318267
Probable space group: C 2 2 21
;
_chemical_formula_sum "Si O2"
_cell_formula_units_Z 28
_cell_length_a 13.844554
_cell_length_b 4.996339
_cell_length_c 16.091653
_cell_angle_alpha 90.000000
_cell_angle_beta 90.000000
_cell_angle_gamma 90.000000
_cell_volume 1113.093191
_symmetry_space_group_name_H-M "C 2 2 21"
_symmetry_group_IT_number 20
_symmetry_cell_setting 'orthorhombic'
loop_
_space_group_symop_operation_xyz
x,y,z
-x,-y,1/2+z
x,-y,-z
-x,y,1/2-z
1/2+x,1/2+y,z
1/2-x,1/2-y,1/2+z
1/2+x,1/2-y,-z
1/2-x,1/2+y,1/2-z
loop_
_atom_site_type_symbol
_atom_site_label
_atom_site_fract_x
_atom_site_fract_y
_atom_site_fract_z
Si Si1 0.106024 0.102835 0.578628
Si Si2 0.457095 0.755118 0.332824
Si Si3 0.450746 0.000000 0.500000
Si Si4 0.310575 0.366232 0.240979
O O1 0.020404 0.274718 0.539072
O O2 0.166267 0.000000 0.500000
O O3 0.158084 0.253660 0.652054
O O4 0.054545 0.862769 0.627310
O O5 0.500000 0.906288 0.250000
O O6 0.391823 0.511510 0.297039
O O7 0.405443 0.886045 0.413805
O O8 0.260531 0.111662 0.282109
#
# Coordination Sequence:
#
# PCOD9318267 Si02
#       4
#     8   8   4   8
#     4   9  21  41  65  95 125 174 226 275 321 386
#     4   9  21  40  67  96 128 175 224 274 321 393
#     4  10  20  38  78  96 126 164 242 272 322 376
#     4  11  26  43  66  97 138 178 213 265 341 397
#
# _framework density 25.15513
#
# number of rings (size 3 to 8) (size 9 to 14) (size 15 to 20)
#    0.000    2.286    0.000    0.000   16.000    1.143 
#    2.571    0.000    0.000    0.000    0.000    0.000 
#    0.000    0.000    0.000    0.000    0.000    0.000 
#
# Total GULP energy -77995.429584 kJ/mol
# GULP energy per Si atom -5571.102113 kJ/mol
# Density = 2.509788 g / cm^3
# Si number density = 25.155130 Si / 1000 Ang^3
#
#
#
# Elastic Constant Matrix: (Units=GPa)
#
#
# Indices 1 2 3 4 5 6 
#
# 1 33.7678 6.4192 48.4160 0.0000 0.0000 0.0000
# 2 6.4192 89.1199 52.4770 0.0000 0.0000 0.0000
# 3 48.4160 52.4770 227.8039 0.0000 0.0000 0.0000
# 4 0.0000 0.0000 0.0000 45.5107 0.0000 0.0000
# 5 0.0000 0.0000 0.0000 0.0000 26.7744 0.0000
# 6 0.0000 0.0000 0.0000 0.0000 0.0000 21.2673
#
#
#
# Elastic Compliance Matrix: (Units=1/GPa)
#
#
# Indices 1 2 3 4 5 6 
#
# 1 0.043128 0.002650 -0.009777 0.000000 0.000000 0.000000
# 2 0.002650 0.013145 -0.003591 0.000000 0.000000 0.000000
# 3 -0.009777 -0.003591 0.007295 0.000000 0.000000 0.000000
# 4 0.000000 0.000000 0.000000 0.021973 0.000000 0.000000
# 5 0.000000 0.000000 0.000000 0.000000 0.037349 0.000000
# 6 0.000000 0.000000 0.000000 0.000000 0.000000 0.047021
#
#
# Mechanical properties :
#
#
# Convention : Reuss Voigt Hill
#
# Bulk Modulus (GPa) = 23.73474 62.81287 43.27381
# Shear Modulus (GPa) = 24.34401 34.93576 29.63988
#
# Velocity S-wave (km/s) = 3.11425 3.73072 3.43634
# Velocity P-wave (km/s) = 4.73152 6.60167 5.74323
#
# Compressibility (1/GPa) = 0.04213233
#
# Stress axis : x y z
#
# Youngs Moduli (GPa) = 23.18682 76.07676 137.08194
#
# Poissons Ratio (x) = -0.20164 1.34021
# Poissons Ratio (y) = -0.06145 0.49230
# Poissons Ratio (z) = 0.22669 0.27321
#
# Static dielectric constant tensor:
#      x y z
#    x 2.107210 0.000000 0.000000 
#    y 0.000000 2.058390 0.000000 
#    z 0.000000 0.000000 2.157570 
# 
# From -- ./inp_files/17390.got.cif
#   From: 2010.05.17/outbox.cif.g08.bks.cpg/sg20_9_cif.got.tgz:17390.got - 2010.06.03 22:52:26.
