data_PCOD9318495
_publ_section_title
;
Structure prediction by ZEFSAII (Michael W. Deem and Ramdas Pophale) SiO2 
 PCOD9318495
Probable space group: C 2 2 21
;
_chemical_formula_sum "Si O2"
_cell_formula_units_Z 40
_cell_length_a 12.055995
_cell_length_b 11.228037
_cell_length_c 13.402759
_cell_angle_alpha 90.000000
_cell_angle_beta 90.000000
_cell_angle_gamma 90.000000
_cell_volume 1814.266589
_symmetry_space_group_name_H-M "C 2 2 21"
_symmetry_group_IT_number 20
_symmetry_cell_setting 'orthorhombic'
loop_
_space_group_symop_operation_xyz
x,y,z
-x,-y,1/2+z
x,-y,-z
-x,y,1/2-z
1/2+x,1/2+y,z
1/2-x,1/2-y,1/2+z
1/2+x,1/2-y,-z
1/2-x,1/2+y,1/2-z
loop_
_atom_site_type_symbol
_atom_site_label
_atom_site_fract_x
_atom_site_fract_y
_atom_site_fract_z
Si Si1 0.032833 0.694432 0.053040
Si Si2 0.283599 0.902126 0.303074
Si Si3 0.941283 0.795316 0.643446
Si Si4 0.412758 0.434182 0.340463
Si Si5 0.718072 0.000000 0.000000
Si Si6 0.500000 0.942720 0.750000
O O1 0.065603 0.825354 0.087131
O O2 0.137404 0.608433 0.031417
O O3 0.974121 0.634816 0.149655
O O4 0.989736 0.720888 0.940376
O O5 0.324966 0.772441 0.336865
O O6 0.206069 0.910160 0.208975
O O7 0.221855 0.960393 0.399312
O O8 0.395120 0.976461 0.279323
O O9 0.000000 0.792644 0.750000
O O10 0.922109 0.932904 0.617227
O O11 0.500000 0.425777 0.250000
#
# Coordination Sequence:
#
# PCOD9318495 Si02
#       6
#     8   8   8   8   4   4
#     4  10  20  41  66  96 128 164 219 270 316 380
#     4  10  21  41  66  95 128 170 219 263 320 386
#     4  10  22  42  62  94 137 170 210 266 326 386
#     4  11  24  40  63  94 135 171 210 265 326 395
#     4   8  20  38  66  90 126 166 214 264 312 374
#     4  10  20  40  72  96 126 168 226 274 310 384
#
# _framework density 22.047474999999999
#
# number of rings (size 3 to 8) (size 9 to 14) (size 15 to 20)
#    0.000    2.000    2.000    0.600    5.600    0.000 
#    7.200    4.000    0.000    0.000    0.000    0.000 
#    0.000    0.000    0.000    0.000    0.000    0.000 
#
# Total GULP energy -111527.533993 kJ/mol
# GULP energy per Si atom -5576.376700 kJ/mol
# Density = 2.199729 g / cm^3
# Si number density = 22.047475 Si / 1000 Ang^3
#
#
#
# Elastic Constant Matrix: (Units=GPa)
#
#
# Indices 1 2 3 4 5 6 
#
# 1 35.1066 10.3907 7.1342 0.0000 0.0000 0.0000
# 2 10.3907 129.3384 33.6009 0.0000 0.0000 0.0000
# 3 7.1342 33.6009 107.7528 0.0000 0.0000 0.0000
# 4 0.0000 0.0000 0.0000 42.9903 0.0000 0.0000
# 5 0.0000 0.0000 0.0000 0.0000 12.4979 0.0000
# 6 0.0000 0.0000 0.0000 0.0000 0.0000 -0.4037
#
#
#
# Elastic Compliance Matrix: (Units=1/GPa)
#
#
# Indices 1 2 3 4 5 6 
#
# 1 0.029349 -0.002016 -0.001314 0.000000 0.000000 0.000000
# 2 -0.002016 0.008552 -0.002533 0.000000 0.000000 0.000000
# 3 -0.001314 -0.002533 0.010157 0.000000 0.000000 0.000000
# 4 0.000000 0.000000 0.000000 0.023261 0.000000 0.000000
# 5 0.000000 0.000000 0.000000 0.000000 0.080013 0.000000
# 6 0.000000 0.000000 0.000000 0.000000 0.000000 -2.477297
#
#
# Mechanical properties :
#
#
# Convention : Reuss Voigt Hill
#
# Bulk Modulus (GPa) = 27.52554 41.60549 34.56552
# Shear Modulus (GPa) = -2.17190 25.75504 11.79157
#
# Velocity S-wave (km/s) = -0.99360 3.42155 2.31514
# Velocity P-wave (km/s) = 3.34596 5.87547 4.78104
#
# Compressibility (1/GPa) = 0.03632990
#
# Stress axis : x y z
#
# Youngs Moduli (GPa) = 34.07327 116.93516 98.44968
#
# Poissons Ratio (x) = 0.23578 0.12940
# Poissons Ratio (y) = 0.06870 0.24939
# Poissons Ratio (z) = 0.04479 0.29622
#
# Static dielectric constant tensor:
#      x y z
#    x 1.786240 0.000000 0.000000 
#    y 0.000000 1.821880 0.000000 
#    z 0.000000 0.000000 1.892490 
# 
# From -- ./inp_files/19705.got.cif
#   From: 2010.05.17/outbox.cif.g08.bks.cpg/sg20_10_cif.got.tgz:19705.got - 2010.06.03 22:52:26.
