data_PCOD9318448
_publ_section_title
;
Structure prediction by ZEFSAII (Michael W. Deem and Ramdas Pophale) SiO2 
 PCOD9318448
Probable space group: C 2 2 21
;
_chemical_formula_sum "Si O2"
_cell_formula_units_Z 48
_cell_length_a 26.174403
_cell_length_b 9.586703
_cell_length_c 8.542913
_cell_angle_alpha 90.000000
_cell_angle_beta 90.000000
_cell_angle_gamma 90.000000
_cell_volume 2143.640933
_symmetry_space_group_name_H-M "C 2 2 21"
_symmetry_group_IT_number 20
_symmetry_cell_setting 'orthorhombic'
loop_
_space_group_symop_operation_xyz
x,y,z
-x,-y,1/2+z
x,-y,-z
-x,y,1/2-z
1/2+x,1/2+y,z
1/2-x,1/2-y,1/2+z
1/2+x,1/2-y,-z
1/2-x,1/2+y,1/2-z
loop_
_atom_site_type_symbol
_atom_site_label
_atom_site_fract_x
_atom_site_fract_y
_atom_site_fract_z
Si Si1 0.375696 0.277988 0.721232
Si Si2 0.968210 0.634168 0.900902
Si Si3 0.602126 0.574511 0.654874
Si Si4 0.051578 0.837057 0.048763
Si Si5 0.782500 0.370602 0.105989
Si Si6 0.711257 0.368442 0.387731
O O1 0.420819 0.218067 0.830919
O O2 0.372442 0.442903 0.754917
O O3 0.398795 0.275224 0.545082
O O4 0.325868 0.196167 0.780151
O O5 0.000000 0.583600 0.750000
O O6 0.953079 0.500000 0.000000
O O7 0.005155 0.739888 0.994781
O O8 0.580523 0.500000 0.500000
O O9 0.563472 0.652340 0.767692
O O10 0.651044 0.668937 0.618346
O O11 0.043805 0.000000 0.000000
O O12 0.736218 0.402688 0.222877
O O13 0.800283 0.500000 0.000000
O O14 0.763336 0.258287 0.979623
O O15 0.715526 0.500000 0.500000
#
# Coordination Sequence:
#
# PCOD9318448 Si02
#       6
#     8   8   8   8   8   8
#     4  10  21  42  65  92 134 175 222 279 334 407
#     4  10  22  42  63  96 137 174 221 278 344 407
#     4  10  20  40  67  94 132 170 226 278 336 395
#     4   9  21  40  67  96 126 180 229 276 337 404
#     4  12  25  41  67  98 133 178 225 277 343 403
#     4  11  24  45  65  98 135 177 225 282 338 405
#
# _framework density 22.391811000000001
#
# number of rings (size 3 to 8) (size 9 to 14) (size 15 to 20)
#    0.000    1.667    3.333    1.500    2.333    2.667 
#    6.000    5.000    0.000    0.000    0.000    0.000 
#    0.000    0.000    0.000    0.000    0.000    0.000 
#
# Total GULP energy -134077.040406 kJ/mol
# GULP energy per Si atom -5586.543350 kJ/mol
# Density = 2.234085 g / cm^3
# Si number density = 22.391811 Si / 1000 Ang^3
#
#
#
# Elastic Constant Matrix: (Units=GPa)
#
#
# Indices 1 2 3 4 5 6 
#
# 1 62.2795 8.5054 41.4820 0.0000 0.0000 0.0000
# 2 8.5054 60.2529 20.4817 0.0000 0.0000 0.0000
# 3 41.4820 20.4817 136.4327 0.0000 0.0000 0.0000
# 4 0.0000 0.0000 0.0000 41.3094 0.0000 0.0000
# 5 0.0000 0.0000 0.0000 0.0000 29.7284 0.0000
# 6 0.0000 0.0000 0.0000 0.0000 0.0000 -13.5842
#
#
#
# Elastic Compliance Matrix: (Units=1/GPa)
#
#
# Indices 1 2 3 4 5 6 
#
# 1 0.020171 -0.000804 -0.006012 0.000000 0.000000 0.000000
# 2 -0.000804 0.017521 -0.002386 0.000000 0.000000 0.000000
# 3 -0.006012 -0.002386 0.009516 0.000000 0.000000 0.000000
# 4 0.000000 0.000000 0.000000 0.024208 0.000000 0.000000
# 5 0.000000 0.000000 0.000000 0.000000 0.033638 0.000000
# 6 0.000000 0.000000 0.000000 0.000000 0.000000 -0.073615
#
#
# Mechanical properties :
#
#
# Convention : Reuss Voigt Hill
#
# Bulk Modulus (GPa) = 34.71715 44.43369 39.57542
# Shear Modulus (GPa) = 84.11305 24.05711 54.08508
#
# Velocity S-wave (km/s) = 6.13561 3.28132 4.92000
# Velocity P-wave (km/s) = 8.10755 5.85174 7.07019
#
# Compressibility (1/GPa) = 0.02880420
#
# Stress axis : x y z
#
# Youngs Moduli (GPa) = 49.57629 57.07367 105.08803
#
# Poissons Ratio (x) = 0.04586 0.63182
# Poissons Ratio (y) = 0.03984 0.25074
# Poissons Ratio (z) = 0.29807 0.13618
#
# Static dielectric constant tensor:
#      x y z
#    x 1.853960 0.000000 0.000000 
#    y 0.000000 1.813330 0.000000 
#    z 0.000000 0.000000 1.912750 
# 
# From -- ./inp_files/11424.got.cif
#   From: 2010.05.17/outbox.cif.g08.bks.cpg/sg20_6_cif.got.tgz:11424.got - 2010.06.03 22:52:26.
