data_PCOD9318850
_publ_section_title
;
Structure prediction by ZEFSAII (Michael W. Deem and Ramdas Pophale) SiO2 
 PCOD9318850
Probable space group: C 2 2 21
;
_chemical_formula_sum "Si O2"
_cell_formula_units_Z 32
_cell_length_a 21.254886
_cell_length_b 6.622771
_cell_length_c 10.329345
_cell_angle_alpha 90.000000
_cell_angle_beta 90.000000
_cell_angle_gamma 90.000000
_cell_volume 1454.023084
_symmetry_space_group_name_H-M "C 2 2 21"
_symmetry_group_IT_number 20
_symmetry_cell_setting 'orthorhombic'
loop_
_space_group_symop_operation_xyz
x,y,z
-x,-y,1/2+z
x,-y,-z
-x,y,1/2-z
1/2+x,1/2+y,z
1/2-x,1/2-y,1/2+z
1/2+x,1/2-y,-z
1/2-x,1/2+y,1/2-z
loop_
_atom_site_type_symbol
_atom_site_label
_atom_site_fract_x
_atom_site_fract_y
_atom_site_fract_z
Si Si1 0.440793 0.771108 0.816514
Si Si2 0.850526 0.764774 0.959201
Si Si3 0.621893 0.406914 0.815617
Si Si4 0.975070 0.000000 0.500000
Si Si5 0.766329 0.000000 0.500000
O O1 0.500000 0.889996 0.750000
O O2 0.398798 0.638264 0.718177
O O3 0.390748 0.840119 0.924714
O O4 0.480688 0.608569 0.898587
O O5 0.878938 0.775377 0.814258
O O6 0.781227 0.672382 0.952849
O O7 0.845791 0.000000 0.000000
O O8 0.688706 0.417840 0.886286
O O9 0.569648 0.652806 0.078822
#
# Coordination Sequence:
#
# PCOD9318850 Si02
#       5
#     8   8   8   4   4
#     4   9  16  31  57  81 108 140 187 235 279 329
#     4  10  21  37  57  83 110 151 188 230 283 334
#     4   9  19  32  54  86 108 147 188 228 281 335
#     4   9  14  30  54  84 106 135 190 232 274 333
#     4  11  24  36  56  84 122 149 186 232 278 337
#
# _framework density 22.007904
#
# number of rings (size 3 to 8) (size 9 to 14) (size 15 to 20)
#    0.000    2.500    3.750    0.000    7.000    0.000 
#    0.000    0.000    5.500    0.000    6.500    0.000 
#    0.000    0.000    0.000    0.000    0.000    0.000 
#
# Total GULP energy -89079.412235 kJ/mol
# GULP energy per Si atom -5567.463265 kJ/mol
# Density = 2.195781 g / cm^3
# Si number density = 22.007904 Si / 1000 Ang^3
#
#
#
# Elastic Constant Matrix: (Units=GPa)
#
#
# Indices 1 2 3 4 5 6 
#
# 1 128.5056 -1.1485 32.8024 0.0000 0.0000 0.0000
# 2 -1.1485 23.7925 1.8279 0.0000 0.0000 0.0000
# 3 32.8024 1.8279 115.5195 0.0000 0.0000 0.0000
# 4 0.0000 0.0000 0.0000 26.9493 0.0000 0.0000
# 5 0.0000 0.0000 0.0000 0.0000 34.0715 0.0000
# 6 0.0000 0.0000 0.0000 0.0000 0.0000 -29.4706
#
#
#
# Elastic Compliance Matrix: (Units=1/GPa)
#
#
# Indices 1 2 3 4 5 6 
#
# 1 0.008398 0.000589 -0.002394 0.000000 0.000000 0.000000
# 2 0.000589 0.042123 -0.000834 0.000000 0.000000 0.000000
# 3 -0.002394 -0.000834 0.009350 0.000000 0.000000 0.000000
# 4 0.000000 0.000000 0.000000 0.037107 0.000000 0.000000
# 5 0.000000 0.000000 0.000000 0.000000 0.029350 0.000000
# 6 0.000000 0.000000 0.000000 0.000000 0.000000 -0.033932
#
#
# Mechanical properties :
#
#
# Convention : Reuss Voigt Hill
#
# Bulk Modulus (GPa) = 18.31733 37.19793 27.75763
# Shear Modulus (GPa) = 43.15191 21.93242 32.54216
#
# Velocity S-wave (km/s) = 4.43283 3.16027 3.84950
# Velocity P-wave (km/s) = 5.87717 5.50047 5.69194
#
# Compressibility (1/GPa) = 0.05459310
#
# Stress axis : x y z
#
# Youngs Moduli (GPa) = 119.07414 23.74023 106.95720
#
# Poissons Ratio (x) = -0.01399 0.25606
# Poissons Ratio (y) = -0.07017 0.08919
# Poissons Ratio (z) = 0.28507 0.01980
#
# Static dielectric constant tensor:
#      x y z
#    x 1.811150 0.000000 0.000000 
#    y 0.000000 1.840470 0.000000 
#    z 0.000000 0.000000 1.910220 
# 
# From -- ./inp_files/12633.got.cif
#   From: 2010.05.17/outbox.cif.g08.bks.cpg/sg20_7_cif.got.tgz:12633.got - 2010.06.03 22:52:26.
