data_PCOD9318090
_publ_section_title
;
Structure prediction by ZEFSAII (Michael W. Deem and Ramdas Pophale) SiO2 
 PCOD9318090
Probable space group: C 2 2 21
;
_chemical_formula_sum "Si O2"
_cell_formula_units_Z 28
_cell_length_a 11.312907
_cell_length_b 24.095851
_cell_length_c 5.213981
_cell_angle_alpha 90.000000
_cell_angle_beta 90.000000
_cell_angle_gamma 90.000000
_cell_volume 1421.300570
_symmetry_space_group_name_H-M "C 2 2 21"
_symmetry_group_IT_number 20
_symmetry_cell_setting 'orthorhombic'
loop_
_space_group_symop_operation_xyz
x,y,z
-x,-y,1/2+z
x,-y,-z
-x,y,1/2-z
1/2+x,1/2+y,z
1/2-x,1/2-y,1/2+z
1/2+x,1/2-y,-z
1/2-x,1/2+y,1/2-z
loop_
_atom_site_type_symbol
_atom_site_label
_atom_site_fract_x
_atom_site_fract_y
_atom_site_fract_z
Si Si1 0.853668 0.203092 0.871748
Si Si2 0.881270 0.683719 0.887453
Si Si3 0.337264 0.634466 0.385391
Si Si4 0.000000 0.035002 0.250000
O O1 0.711687 0.208388 0.820791
O O2 0.893098 0.171308 0.614641
O O3 0.902911 0.263460 0.931827
O O4 0.862375 0.164716 0.119427
O O5 0.000000 0.664530 0.750000
O O6 0.801871 0.638522 0.039264
O O7 0.395503 0.574642 0.356879
O O8 0.038759 0.000000 0.500000
#
# Coordination Sequence:
#
# PCOD9318090 Si02
#       4
#     8   8   8   4
#     4  10  20  38  55  98 134 172 216 245 315 403
#     4  10  21  38  60  94 140 183 214 250 312 412
#     4  10  22  41  58  95 126 166 221 274 325 380
#     4  12  26  46  70  92 120 174 222 304 338 376
#
# _framework density 19.700265999999999
#
# number of rings (size 3 to 8) (size 9 to 14) (size 15 to 20)
#    1.714    0.000    2.857    1.714    2.000    1.143 
#    5.143    0.000    0.000    0.000    7.429    0.000 
#    0.000    0.000    0.000    0.000    0.000    0.000 
#
# Total GULP energy -78080.417743 kJ/mol
# GULP energy per Si atom -5577.172696 kJ/mol
# Density = 1.965543 g / cm^3
# Si number density = 19.700266 Si / 1000 Ang^3
#
#
#
# Elastic Constant Matrix: (Units=GPa)
#
#
# Indices 1 2 3 4 5 6 
#
# 1 118.7121 38.5421 43.8824 0.0000 0.0000 0.0000
# 2 38.5421 95.7203 46.0938 0.0000 0.0000 0.0000
# 3 43.8824 46.0938 150.6696 0.0000 0.0000 0.0000
# 4 0.0000 0.0000 0.0000 25.1761 0.0000 0.0000
# 5 0.0000 0.0000 0.0000 0.0000 50.7792 0.0000
# 6 0.0000 0.0000 0.0000 0.0000 0.0000 18.6003
#
#
#
# Elastic Compliance Matrix: (Units=1/GPa)
#
#
# Indices 1 2 3 4 5 6 
#
# 1 0.010183 -0.003134 -0.002007 0.000000 0.000000 0.000000
# 2 -0.003134 0.013216 -0.003131 0.000000 0.000000 0.000000
# 3 -0.002007 -0.003131 0.008179 0.000000 0.000000 0.000000
# 4 0.000000 0.000000 0.000000 0.039720 0.000000 0.000000
# 5 0.000000 0.000000 0.000000 0.000000 0.019693 0.000000
# 6 0.000000 0.000000 0.000000 0.000000 0.000000 0.053763
#
#
# Mechanical properties :
#
#
# Convention : Reuss Voigt Hill
#
# Bulk Modulus (GPa) = 66.50693 69.12651 67.81672
# Shear Modulus (GPa) = 30.06440 34.68336 32.37388
#
# Velocity S-wave (km/s) = 3.91076 4.20045 4.05819
# Velocity P-wave (km/s) = 7.36375 7.66096 7.51382
#
# Compressibility (1/GPa) = 0.01503603
#
# Stress axis : x y z
#
# Youngs Moduli (GPa) = 98.20187 75.66351 122.25943
#
# Poissons Ratio (x) = 0.23711 0.24539
# Poissons Ratio (y) = 0.30774 0.38274
# Poissons Ratio (z) = 0.19710 0.23687
#
# Static dielectric constant tensor:
#      x y z
#    x 1.846130 0.000000 0.000000 
#    y 0.000000 1.664590 0.000000 
#    z 0.000000 0.000000 1.731760 
# 
# From -- ./inp_files/1306.got.cif
#   From: 2010.05.17/outbox.cif.g08.bks.cpg/sg20_1_cif.got.tgz:1306.got - 2010.06.03 22:52:26.
