data_PCOD9318970
_publ_section_title
;
Structure prediction by ZEFSAII (Michael W. Deem and Ramdas Pophale) SiO2 
 PCOD9318970
Probable space group: C 2 2 21
;
_chemical_formula_sum "Si O2"
_cell_formula_units_Z 52
_cell_length_a 11.005635
_cell_length_b 26.727640
_cell_length_c 9.074228
_cell_angle_alpha 90.000000
_cell_angle_beta 90.000000
_cell_angle_gamma 90.000000
_cell_volume 2669.226364
_symmetry_space_group_name_H-M "C 2 2 21"
_symmetry_group_IT_number 20
_symmetry_cell_setting 'orthorhombic'
loop_
_space_group_symop_operation_xyz
x,y,z
-x,-y,1/2+z
x,-y,-z
-x,y,1/2-z
1/2+x,1/2+y,z
1/2-x,1/2-y,1/2+z
1/2+x,1/2-y,-z
1/2-x,1/2+y,1/2-z
loop_
_atom_site_type_symbol
_atom_site_label
_atom_site_fract_x
_atom_site_fract_y
_atom_site_fract_z
Si Si1 0.164430 0.948412 0.593616
Si Si2 0.220760 0.347825 0.872918
Si Si3 0.705093 0.281680 0.369037
Si Si4 0.615840 0.639375 0.850556
Si Si5 0.879641 0.945160 0.563341
Si Si6 0.386788 0.305852 0.644702
Si Si7 0.500000 0.792438 0.750000
O O1 0.254244 0.902255 0.558053
O O2 0.171356 0.951885 0.771471
O O3 0.024075 0.931460 0.569706
O O4 0.182909 0.000000 0.500000
O O5 0.287059 0.343823 0.714186
O O6 0.084206 0.328150 0.850737
O O7 0.289222 0.306693 0.971858
O O8 0.700551 0.327083 0.253182
O O9 0.824345 0.247856 0.355343
O O10 0.593186 0.244203 0.335972
O O11 0.500000 0.624655 0.750000
O O12 0.671038 0.592734 0.939497
O O13 0.578694 0.676784 0.982050
O O14 0.874058 0.000000 0.500000
O O15 0.500000 0.308334 0.750000
#
# Coordination Sequence:
#
# PCOD9318970 Si02
#       7
#     8   8   8   8   8   8   4
#     4  10  21  38  62  95 123 166 217 266 343 397
#     4  11  23  41  66  90 131 173 219 275 332 398
#     4  11  24  38  62  93 130 176 219 274 325 402
#     4  12  23  36  59  88 130 174 215 268 333 395
#     4  10  22  36  57  91 132 166 206 275 336 409
#     4  11  22  38  58  91 129 172 221 262 329 396
#     4  10  24  44  62  98 130 178 228 270 334 392
#
# _framework density 19.481300000000001
#
# number of rings (size 3 to 8) (size 9 to 14) (size 15 to 20)
#    0.000    1.231    2.308    4.615    8.615    0.000 
#    0.000    0.000    0.000    0.923    2.000    0.000 
#    0.000    0.000    0.000    0.000    0.000    0.000 
#
# Total GULP energy -145030.473526 kJ/mol
# GULP energy per Si atom -5578.095136 kJ/mol
# Density = 1.943696 g / cm^3
# Si number density = 19.481300 Si / 1000 Ang^3
#
#
#
# Elastic Constant Matrix: (Units=GPa)
#
#
# Indices 1 2 3 4 5 6 
#
# 1 47.6209 29.4908 16.7219 0.0000 0.0000 0.0000
# 2 29.4908 122.3849 38.8461 0.0000 0.0000 0.0000
# 3 16.7219 38.8461 106.9322 0.0000 0.0000 0.0000
# 4 0.0000 0.0000 0.0000 34.6942 0.0000 0.0000
# 5 0.0000 0.0000 0.0000 0.0000 12.8198 0.0000
# 6 0.0000 0.0000 0.0000 0.0000 0.0000 15.0931
#
#
#
# Elastic Compliance Matrix: (Units=1/GPa)
#
#
# Indices 1 2 3 4 5 6 
#
# 1 0.025036 -0.005415 -0.001948 0.000000 0.000000 0.000000
# 2 -0.005415 0.010407 -0.002934 0.000000 0.000000 0.000000
# 3 -0.001948 -0.002934 0.010722 0.000000 0.000000 0.000000
# 4 0.000000 0.000000 0.000000 0.028823 0.000000 0.000000
# 5 0.000000 0.000000 0.000000 0.000000 0.078004 0.000000
# 6 0.000000 0.000000 0.000000 0.000000 0.000000 0.066255
#
#
# Mechanical properties :
#
#
# Convention : Reuss Voigt Hill
#
# Bulk Modulus (GPa) = 39.10485 49.67286 44.38886
# Shear Modulus (GPa) = 20.13157 25.31337 22.72247
#
# Velocity S-wave (km/s) = 3.21811 3.60858 3.41893
# Velocity P-wave (km/s) = 5.82451 6.55100 6.19841
#
# Compressibility (1/GPa) = 0.02557227
#
# Stress axis : x y z
#
# Youngs Moduli (GPa) = 39.94176 96.08985 93.26462
#
# Poissons Ratio (x) = 0.52029 0.18169
# Poissons Ratio (y) = 0.21627 0.27363
# Poissons Ratio (z) = 0.07781 0.28192
#
# Static dielectric constant tensor:
#      x y z
#    x 1.684020 0.000000 0.000000 
#    y 0.000000 1.742080 0.000000 
#    z 0.000000 0.000000 1.731190 
# 
# From -- ./inp_files/7515.got.cif
#   From: 2010.05.17/outbox.cif.g08.bks.cpg/sg20_4_cif.got.tgz:7515.got - 2010.06.03 22:52:26.
