data_PCOD9318935
_publ_section_title
;
Structure prediction by ZEFSAII (Michael W. Deem and Ramdas Pophale) SiO2 
 PCOD9318935
Probable space group: C 2 2 21
;
_chemical_formula_sum "Si O2"
_cell_formula_units_Z 60
_cell_length_a 23.360742
_cell_length_b 14.664316
_cell_length_c 8.409349
_cell_angle_alpha 90.000000
_cell_angle_beta 90.000000
_cell_angle_gamma 90.000000
_cell_volume 2880.784823
_symmetry_space_group_name_H-M "C 2 2 21"
_symmetry_group_IT_number 20
_symmetry_cell_setting 'orthorhombic'
loop_
_space_group_symop_operation_xyz
x,y,z
-x,-y,1/2+z
x,-y,-z
-x,y,1/2-z
1/2+x,1/2+y,z
1/2-x,1/2-y,1/2+z
1/2+x,1/2-y,-z
1/2-x,1/2+y,1/2-z
loop_
_atom_site_type_symbol
_atom_site_label
_atom_site_fract_x
_atom_site_fract_y
_atom_site_fract_z
Si Si1 0.864271 0.872137 0.388893
Si Si2 0.828538 0.959877 0.823166
Si Si3 0.350042 0.794020 0.841366
Si Si4 0.121240 0.756089 0.682802
Si Si5 0.799841 0.575159 0.370179
Si Si6 0.000000 0.780006 0.750000
Si Si7 0.008384 0.900088 0.055659
Si Si8 0.281621 0.749088 0.416730
O O1 0.873372 0.787055 0.269332
O O2 0.923817 0.890810 0.473258
O O3 0.813467 0.837069 0.502216
O O4 0.850881 0.963824 0.295471
O O5 0.862639 0.864447 0.823663
O O6 0.760448 0.951805 0.791117
O O7 0.833243 0.000000 0.000000
O O8 0.347790 0.891066 0.752849
O O9 0.283158 0.770168 0.872001
O O10 0.380520 0.787667 0.009278
O O11 0.177811 0.720140 0.772561
O O12 0.062211 0.734392 0.774447
O O13 0.816678 0.500000 0.500000
O O14 0.783109 0.667219 0.463281
O O15 0.014250 0.833458 0.583996
O O16 0.000000 0.888290 0.250000
O O17 0.988126 0.000000 0.000000
#
# Coordination Sequence:
#
# PCOD9318935 Si02
#       8
#     8   8   8   8   8   4   8   8
#     4  11  23  37  56  84 124 171 210 258 309 373
#     4  11  20  34  57  87 127 173 216 249 305 375
#     4  11  20  38  62  86 119 165 210 260 333 382
#     4  12  22  39  60  88 125 171 213 268 312 371
#     4  10  21  38  59  88 124 161 205 264 325 390
#     4  12  26  42  58  90 130 172 232 260 306 378
#     4  12  25  40  58  84 127 177 223 267 303 358
#     4  11  21  39  58  89 125 162 208 265 325 379
#
# _framework density 20.827656999999999
#
# number of rings (size 3 to 8) (size 9 to 14) (size 15 to 20)
#    0.000    0.800    6.000    3.200    0.000    0.000 
#    0.000    2.000    0.000    0.000    0.000    1.867 
#    0.000    0.000    0.000    0.000    0.000    0.000 
#
# Total GULP energy -167487.523330 kJ/mol
# GULP energy per Si atom -5582.917444 kJ/mol
# Density = 2.078025 g / cm^3
# Si number density = 20.827657 Si / 1000 Ang^3
#
#
#
# Elastic Constant Matrix: (Units=GPa)
#
#
# Indices 1 2 3 4 5 6 
#
# 1 58.5704 12.5158 0.5154 0.0000 0.0000 0.0000
# 2 12.5158 44.3589 16.1536 0.0000 0.0000 0.0000
# 3 0.5154 16.1536 99.2372 0.0000 0.0000 0.0000
# 4 0.0000 0.0000 0.0000 37.7149 0.0000 0.0000
# 5 0.0000 0.0000 0.0000 0.0000 34.7406 0.0000
# 6 0.0000 0.0000 0.0000 0.0000 0.0000 17.2564
#
#
#
# Elastic Compliance Matrix: (Units=1/GPa)
#
#
# Indices 1 2 3 4 5 6 
#
# 1 0.018227 -0.005430 0.000789 0.000000 0.000000 0.000000
# 2 -0.005430 0.025582 -0.004136 0.000000 0.000000 0.000000
# 3 0.000789 -0.004136 0.010746 0.000000 0.000000 0.000000
# 4 0.000000 0.000000 0.000000 0.026515 0.000000 0.000000
# 5 0.000000 0.000000 0.000000 0.000000 0.028785 0.000000
# 6 0.000000 0.000000 0.000000 0.000000 0.000000 0.057950
#
#
# Mechanical properties :
#
#
# Convention : Reuss Voigt Hill
#
# Bulk Modulus (GPa) = 27.02635 28.94846 27.98741
# Shear Modulus (GPa) = 25.29202 29.47449 27.38325
#
# Velocity S-wave (km/s) = 3.48853 3.76594 3.62989
# Velocity P-wave (km/s) = 5.40655 5.73053 5.57090
#
# Compressibility (1/GPa) = 0.03700093
#
# Stress axis : x y z
#
# Youngs Moduli (GPa) = 54.86406 39.09058 93.05792
#
# Poissons Ratio (x) = 0.21227 -0.07344
# Poissons Ratio (y) = 0.29792 0.38488
# Poissons Ratio (z) = -0.04330 0.16168
#
# Static dielectric constant tensor:
#      x y z
#    x 1.744580 0.000000 0.000000 
#    y 0.000000 1.760870 0.000000 
#    z 0.000000 0.000000 1.872850 
# 
# From -- ./inp_files/10757.got.cif
#   From: 2010.05.17/outbox.cif.g08.bks.cpg/sg20_6_cif.got.tgz:10757.got - 2010.06.03 22:52:26.
