data_PCOD9318024
_publ_section_title
;
Structure prediction by ZEFSAII (Michael W. Deem and Ramdas Pophale) SiO2 
 PCOD9318024
Probable space group: C 2 2 21
;
_chemical_formula_sum "Si O2"
_cell_formula_units_Z 52
_cell_length_a 12.028891
_cell_length_b 8.524186
_cell_length_c 19.397895
_cell_angle_alpha 90.000000
_cell_angle_beta 90.000000
_cell_angle_gamma 90.000000
_cell_volume 1988.992343
_symmetry_space_group_name_H-M "C 2 2 21"
_symmetry_group_IT_number 20
_symmetry_cell_setting 'orthorhombic'
loop_
_space_group_symop_operation_xyz
x,y,z
-x,-y,1/2+z
x,-y,-z
-x,y,1/2-z
1/2+x,1/2+y,z
1/2-x,1/2-y,1/2+z
1/2+x,1/2-y,-z
1/2-x,1/2+y,1/2-z
loop_
_atom_site_type_symbol
_atom_site_label
_atom_site_fract_x
_atom_site_fract_y
_atom_site_fract_z
Si Si1 0.055743 0.500000 0.000000
Si Si2 0.361632 0.451756 0.319771
Si Si3 0.584632 0.670841 0.518448
Si Si4 0.910749 0.820733 0.170974
Si Si5 0.460382 0.997798 0.351385
Si Si6 0.129978 0.752154 0.758858
Si Si7 0.679831 0.785935 0.386698
O O1 0.988142 0.332534 0.989403
O O2 0.106852 0.505974 0.923362
O O3 0.352509 0.363967 0.243997
O O4 0.490368 0.447456 0.336593
O O5 0.318480 0.627833 0.312453
O O6 0.293400 0.379935 0.381977
O O7 0.531383 0.500000 0.500000
O O8 0.639226 0.676097 0.594341
O O9 0.670011 0.693137 0.455996
O O10 0.984846 0.660633 0.172408
O O11 0.385700 0.919477 0.291751
O O12 0.570727 0.894140 0.370952
O O13 0.183663 0.799052 0.686576
O O14 0.000000 0.794274 0.750000
#
# Coordination Sequence:
#
# PCOD9318024 Si02
#       7
#     4   8   8   8   8   8   8
#     4   8  18  36  64  92 120 162 226 252 314 396
#     4  11  23  37  63 102 128 159 226 278 314 397
#     4  10  20  40  70  89 128 179 209 267 338 394
#     4  10  22  39  66  92 130 172 218 267 339 393
#     4   9  20  38  65  85 126 176 212 263 327 396
#     4  10  20  37  61  96 126 171 214 264 327 393
#     4  10  23  37  67  94 132 165 218 271 326 396
#
# _framework density 26.143891
#
# number of rings (size 3 to 8) (size 9 to 14) (size 15 to 20)
#    0.000    2.154    1.538    0.923   12.923    0.000 
#    0.000    0.000   37.231    0.000    0.000    0.000 
#    0.000    0.000    0.000    0.000    0.000    0.000 
#
# Total GULP energy -144829.696867 kJ/mol
# GULP energy per Si atom -5570.372956 kJ/mol
# Density = 2.608439 g / cm^3
# Si number density = 26.143891 Si / 1000 Ang^3
#
#
#
# Elastic Constant Matrix: (Units=GPa)
#
#
# Indices 1 2 3 4 5 6 
#
# 1 47.7287 4.6095 23.5910 0.0000 0.0000 0.0000
# 2 4.6095 136.1696 38.2615 0.0000 0.0000 0.0000
# 3 23.5910 38.2615 184.3648 0.0000 0.0000 0.0000
# 4 0.0000 0.0000 0.0000 29.2953 0.0000 0.0000
# 5 0.0000 0.0000 0.0000 0.0000 10.5769 0.0000
# 6 0.0000 0.0000 0.0000 0.0000 0.0000 17.8844
#
#
#
# Elastic Compliance Matrix: (Units=1/GPa)
#
#
# Indices 1 2 3 4 5 6 
#
# 1 0.022367 0.000050 -0.002872 0.000000 0.000000 0.000000
# 2 0.000050 0.007799 -0.001625 0.000000 0.000000 0.000000
# 3 -0.002872 -0.001625 0.006129 0.000000 0.000000 0.000000
# 4 0.000000 0.000000 0.000000 0.034135 0.000000 0.000000
# 5 0.000000 0.000000 0.000000 0.000000 0.094546 0.000000
# 6 0.000000 0.000000 0.000000 0.000000 0.000000 0.055915
#
#
# Mechanical properties :
#
#
# Convention : Reuss Voigt Hill
#
# Bulk Modulus (GPa) = 36.49693 55.68745 46.09219
# Shear Modulus (GPa) = 20.92773 31.67139 26.29956
#
# Velocity S-wave (km/s) = 2.83235 3.48433 3.17512
# Velocity P-wave (km/s) = 4.96856 6.12650 5.57766
#
# Compressibility (1/GPa) = 0.02739956
#
# Stress axis : x y z
#
# Youngs Moduli (GPa) = 44.70939 128.22735 163.16458
#
# Poissons Ratio (x) = -0.00641 0.46867
# Poissons Ratio (y) = -0.00223 0.26512
# Poissons Ratio (z) = 0.12842 0.20835
#
# Static dielectric constant tensor:
#      x y z
#    x 2.082060 0.000000 0.000000 
#    y 0.000000 2.275710 0.000000 
#    z 0.000000 0.000000 2.095320 
# 
# From -- ./inp_files/27513.got.cif
#   From: 2010.05.17/outbox.cif.g08.bks.cpg/sg20_14_cif.got.tgz:27513.got - 2010.06.03 22:52:26.
