data_PCOD9318556
_publ_section_title
;
Structure prediction by ZEFSAII (Michael W. Deem and Ramdas Pophale) SiO2 
 PCOD9318556
Probable space group: C 2 2 21
;
_chemical_formula_sum "Si O2"
_cell_formula_units_Z 40
_cell_length_a 9.001027
_cell_length_b 10.816633
_cell_length_c 18.328826
_cell_angle_alpha 90.000000
_cell_angle_beta 90.000000
_cell_angle_gamma 90.000000
_cell_volume 1784.509267
_symmetry_space_group_name_H-M "C 2 2 21"
_symmetry_group_IT_number 20
_symmetry_cell_setting 'orthorhombic'
loop_
_space_group_symop_operation_xyz
x,y,z
-x,-y,1/2+z
x,-y,-z
-x,y,1/2-z
1/2+x,1/2+y,z
1/2-x,1/2-y,1/2+z
1/2+x,1/2-y,-z
1/2-x,1/2+y,1/2-z
loop_
_atom_site_type_symbol
_atom_site_label
_atom_site_fract_x
_atom_site_fract_y
_atom_site_fract_z
Si Si1 0.926575 0.116291 0.320928
Si Si2 0.894199 0.140762 0.809819
Si Si3 0.047488 0.688374 0.571416
Si Si4 0.148806 0.526179 0.707580
Si Si5 0.272845 0.636480 0.971372
O O1 0.000000 0.178686 0.250000
O O2 0.969636 0.196817 0.388354
O O3 0.753540 0.090857 0.309649
O O4 0.007934 0.983732 0.325020
O O5 0.747788 0.106565 0.763688
O O6 0.840230 0.169847 0.891510
O O7 0.000000 0.210021 0.750000
O O8 0.113639 0.597420 0.632646
O O9 0.173484 0.751749 0.522776
O O10 0.906361 0.630045 0.530910
O O11 0.000000 0.495182 0.750000
O O12 0.323971 0.500000 0.000000
#
# Coordination Sequence:
#
# PCOD9318556 Si02
#       5
#     8   8   8   8   8
#     4   9  21  41  71  96 128 177 218 274 341 390
#     4   9  20  43  70  91 135 179 216 285 329 386
#     4  12  26  42  70  97 134 184 221 271 349 409
#     4  10  20  41  72  99 131 168 228 281 326 401
#     4  12  27  45  64 100 142 173 225 287 337 398
#
# _framework density 22.415126999999998
#
# number of rings (size 3 to 8) (size 9 to 14) (size 15 to 20)
#    0.000    2.000    4.000    0.600    5.600    1.600 
#    0.000    1.000    0.000    0.000    0.000    0.000 
#    0.000    0.000    0.000    0.000    0.000    0.000 
#
# Total GULP energy -111642.024226 kJ/mol
# GULP energy per Si atom -5582.101211 kJ/mol
# Density = 2.236411 g / cm^3
# Si number density = 22.415127 Si / 1000 Ang^3
#
#
#
# Elastic Constant Matrix: (Units=GPa)
#
#
# Indices 1 2 3 4 5 6 
#
# 1 151.0173 35.5397 53.7729 0.0000 0.0000 0.0000
# 2 35.5397 70.5731 50.4152 0.0000 0.0000 0.0000
# 3 53.7729 50.4152 124.4800 0.0000 0.0000 0.0000
# 4 0.0000 0.0000 0.0000 28.1142 0.0000 0.0000
# 5 0.0000 0.0000 0.0000 0.0000 39.8533 0.0000
# 6 0.0000 0.0000 0.0000 0.0000 0.0000 7.4807
#
#
#
# Elastic Compliance Matrix: (Units=1/GPa)
#
#
# Indices 1 2 3 4 5 6 
#
# 1 0.008064 -0.002213 -0.002587 0.000000 0.000000 0.000000
# 2 -0.002213 0.020545 -0.007365 0.000000 0.000000 0.000000
# 3 -0.002587 -0.007365 0.012134 0.000000 0.000000 0.000000
# 4 0.000000 0.000000 0.000000 0.035569 0.000000 0.000000
# 5 0.000000 0.000000 0.000000 0.000000 0.025092 0.000000
# 6 0.000000 0.000000 0.000000 0.000000 0.000000 0.133678
#
#
# Mechanical properties :
#
#
# Convention : Reuss Voigt Hill
#
# Bulk Modulus (GPa) = 60.92711 69.50290 65.21500
# Shear Modulus (GPa) = 18.87626 28.84582 23.86104
#
# Velocity S-wave (km/s) = 2.90508 3.59122 3.26622
# Velocity P-wave (km/s) = 6.20427 6.94768 6.58647
#
# Compressibility (1/GPa) = 0.01641306
#
# Stress axis : x y z
#
# Youngs Moduli (GPa) = 124.01266 48.67272 82.41274
#
# Poissons Ratio (x) = 0.10769 0.21322
# Poissons Ratio (y) = 0.27438 0.60699
# Poissons Ratio (z) = 0.32086 0.35849
#
# Static dielectric constant tensor:
#      x y z
#    x 1.839750 0.000000 0.000000 
#    y 0.000000 1.870870 0.000000 
#    z 0.000000 0.000000 1.859490 
# 
# From -- ./inp_files/26496.got.cif
#   From: 2010.05.17/outbox.cif.g08.bks.cpg/sg20_14_cif.got.tgz:26496.got - 2010.06.03 22:52:26.
