data_PCOD9318200
_publ_section_title
;
Structure prediction by ZEFSAII (Michael W. Deem and Ramdas Pophale) SiO2 
 PCOD9318200
Probable space group: C 2 2 21
;
_chemical_formula_sum "Si O2"
_cell_formula_units_Z 56
_cell_length_a 7.727097
_cell_length_b 18.492075
_cell_length_c 20.962502
_cell_angle_alpha 90.000000
_cell_angle_beta 90.000000
_cell_angle_gamma 90.000000
_cell_volume 2995.333111
_symmetry_space_group_name_H-M "C 2 2 21"
_symmetry_group_IT_number 20
_symmetry_cell_setting 'orthorhombic'
loop_
_space_group_symop_operation_xyz
x,y,z
-x,-y,1/2+z
x,-y,-z
-x,y,1/2-z
1/2+x,1/2+y,z
1/2-x,1/2-y,1/2+z
1/2+x,1/2-y,-z
1/2-x,1/2+y,1/2-z
loop_
_atom_site_type_symbol
_atom_site_label
_atom_site_fract_x
_atom_site_fract_y
_atom_site_fract_z
Si Si1 0.000000 0.608476 0.750000
Si Si2 0.000000 0.883294 0.250000
Si Si3 0.893887 0.135018 0.316653
Si Si4 0.015015 0.158645 0.038934
Si Si5 0.670865 0.075865 0.531014
Si Si6 0.777881 0.705179 0.675611
Si Si7 0.776013 0.974410 0.328793
Si Si8 0.336692 0.180202 0.532877
O O1 0.044533 0.663962 0.806750
O O2 0.148087 0.555641 0.725271
O O3 0.852383 0.830473 0.225004
O O4 0.954234 0.936251 0.308259
O O5 0.992343 0.144824 0.384645
O O6 0.786229 0.209409 0.314135
O O7 0.000000 0.130391 0.250000
O O8 0.790402 0.060427 0.325313
O O9 0.089963 0.238655 0.023532
O O10 0.158813 0.106480 0.006062
O O11 0.819304 0.155769 0.012868
O O12 0.720419 0.056614 0.603437
O O13 0.505944 0.129307 0.529127
O O14 0.618995 0.000000 0.500000
O O15 0.748065 0.684518 0.602715
#
# Coordination Sequence:
#
# PCOD9318200 Si02
#       8
#     4   4   8   8   8   8   8   8
#     4  10  20  38  64  88 120 170 200 256 322 376
#     4  10  22  38  66  94 118 170 212 258 326 388
#     4  11  23  43  63  93 132 169 210 270 334 388
#     4  11  24  43  72  96 131 175 219 277 329 388
#     4  12  24  43  65  96 134 170 219 272 328 389
#     4  10  21  40  64  90 123 161 216 258 312 388
#     4  11  22  41  63  90 132 166 207 270 329 387
#     4  11  23  44  67  98 127 171 222 269 327 393
#
# _framework density 18.69575
#
# number of rings (size 3 to 8) (size 9 to 14) (size 15 to 20)
#    0.000    1.143    5.714    0.857    0.000    1.143 
#    7.714    0.000    0.000    0.000    0.000    0.000 
#    0.000    0.000    0.000    0.000    0.000    0.000 
#
# Total GULP energy -156015.237258 kJ/mol
# GULP energy per Si atom -5571.972759 kJ/mol
# Density = 1.865320 g / cm^3
# Si number density = 18.695750 Si / 1000 Ang^3
#
#
#
# Elastic Constant Matrix: (Units=GPa)
#
#
# Indices 1 2 3 4 5 6 
#
# 1 71.8492 45.2269 36.3545 0.0000 0.0000 0.0000
# 2 45.2269 149.3875 43.1719 0.0000 0.0000 0.0000
# 3 36.3545 43.1719 104.6995 0.0000 0.0000 0.0000
# 4 0.0000 0.0000 0.0000 26.6227 0.0000 0.0000
# 5 0.0000 0.0000 0.0000 0.0000 29.1720 0.0000
# 6 0.0000 0.0000 0.0000 0.0000 0.0000 19.8279
#
#
#
# Elastic Compliance Matrix: (Units=1/GPa)
#
#
# Indices 1 2 3 4 5 6 
#
# 1 0.019128 -0.004395 -0.004830 0.000000 0.000000 0.000000
# 2 -0.004395 0.008610 -0.002024 0.000000 0.000000 0.000000
# 3 -0.004830 -0.002024 0.012063 0.000000 0.000000 0.000000
# 4 0.000000 0.000000 0.000000 0.037562 0.000000 0.000000
# 5 0.000000 0.000000 0.000000 0.000000 0.034279 0.000000
# 6 0.000000 0.000000 0.000000 0.000000 0.000000 0.050434
#
#
# Mechanical properties :
#
#
# Convention : Reuss Voigt Hill
#
# Bulk Modulus (GPa) = 57.79328 63.93808 60.86568
# Shear Modulus (GPa) = 26.26857 28.53671 27.40264
#
# Velocity S-wave (km/s) = 3.75247 3.91112 3.83262
# Velocity P-wave (km/s) = 7.05368 7.39387 7.22578
#
# Compressibility (1/GPa) = 0.01730305
#
# Stress axis : x y z
#
# Youngs Moduli (GPa) = 52.27802 116.14945 82.90079
#
# Poissons Ratio (x) = 0.51053 0.40037
# Poissons Ratio (y) = 0.22978 0.16778
# Poissons Ratio (z) = 0.25248 0.23507
#
# Static dielectric constant tensor:
#      x y z
#    x 1.714600 0.000000 0.000000 
#    y 0.000000 1.627650 0.000000 
#    z 0.000000 0.000000 1.727020 
# 
# From -- ./inp_files/26860.got.cif
#   From: 2010.05.17/outbox.cif.g08.bks.cpg/sg20_14_cif.got.tgz:26860.got - 2010.06.03 22:52:26.
