data_PCOD9318485
_publ_section_title
;
Structure prediction by ZEFSAII (Michael W. Deem and Ramdas Pophale) SiO2 
 PCOD9318485
Probable space group: C 2 2 21
;
_chemical_formula_sum "Si O2"
_cell_formula_units_Z 40
_cell_length_a 8.696372
_cell_length_b 22.373732
_cell_length_c 9.348328
_cell_angle_alpha 90.000000
_cell_angle_beta 90.000000
_cell_angle_gamma 90.000000
_cell_volume 1818.906951
_symmetry_space_group_name_H-M "C 2 2 21"
_symmetry_group_IT_number 20
_symmetry_cell_setting 'orthorhombic'
loop_
_space_group_symop_operation_xyz
x,y,z
-x,-y,1/2+z
x,-y,-z
-x,y,1/2-z
1/2+x,1/2+y,z
1/2-x,1/2-y,1/2+z
1/2+x,1/2-y,-z
1/2-x,1/2+y,1/2-z
loop_
_atom_site_type_symbol
_atom_site_label
_atom_site_fract_x
_atom_site_fract_y
_atom_site_fract_z
Si Si1 0.476793 0.500000 0.500000
Si Si2 0.491803 0.000000 0.500000
Si Si3 0.754602 0.429796 0.828282
Si Si4 0.874917 0.196264 0.375114
Si Si5 0.389301 0.708600 0.879535
Si Si6 0.756683 0.088424 0.988046
O O1 0.373521 0.521702 0.368887
O O2 0.586171 0.445985 0.456830
O O3 0.595206 0.959589 0.603577
O O4 0.379465 0.952009 0.423835
O O5 0.699456 0.368670 0.905321
O O6 0.764685 0.414870 0.660583
O O7 0.729429 0.238496 0.342344
O O8 0.000000 0.187387 0.250000
O O9 0.983738 0.222847 0.498990
O O10 0.500000 0.690777 0.750000
O O11 0.281132 0.654769 0.933641
#
# Coordination Sequence:
#
# PCOD9318485 Si02
#       6
#     4   4   8   8   8   8
#     4  10  20  40  70  96 128 186 244 284 342 446
#     4  10  26  40  68 110 134 190 238 308 340 448
#     4  11  22  45  72 100 138 194 239 287 375 429
#     4  12  25  51  77 105 147 199 246 303 371 441
#     4  12  28  46  75 114 144 193 249 311 361 436
#     4  11  23  46  69 102 146 185 237 295 376 422
#
# _framework density 21.991228
#
# number of rings (size 3 to 8) (size 9 to 14) (size 15 to 20)
#    0.000    0.800    4.000    2.400    2.800    3.200 
#    3.600    0.000    0.000    0.000    0.000    0.000 
#    0.000    0.000    0.000    0.000    0.000    0.000 
#
# Total GULP energy -111755.348333 kJ/mol
# GULP energy per Si atom -5587.767417 kJ/mol
# Density = 2.194118 g / cm^3
# Si number density = 21.991228 Si / 1000 Ang^3
#
#
#
# Elastic Constant Matrix: (Units=GPa)
#
#
# Indices 1 2 3 4 5 6 
#
# 1 156.5366 61.0467 38.5508 0.0000 0.0000 0.0000
# 2 61.0467 103.4626 15.2886 0.0000 0.0000 0.0000
# 3 38.5508 15.2886 59.0990 0.0000 0.0000 0.0000
# 4 0.0000 0.0000 0.0000 23.0834 0.0000 0.0000
# 5 0.0000 0.0000 0.0000 0.0000 30.1399 0.0000
# 6 0.0000 0.0000 0.0000 0.0000 0.0000 14.1251
#
#
#
# Elastic Compliance Matrix: (Units=1/GPa)
#
#
# Indices 1 2 3 4 5 6 
#
# 1 0.009508 -0.004880 -0.004940 0.000000 0.000000 0.000000
# 2 -0.004880 0.012554 -0.000064 0.000000 0.000000 0.000000
# 3 -0.004940 -0.000064 0.020160 0.000000 0.000000 0.000000
# 4 0.000000 0.000000 0.000000 0.043321 0.000000 0.000000
# 5 0.000000 0.000000 0.000000 0.000000 0.033179 0.000000
# 6 0.000000 0.000000 0.000000 0.000000 0.000000 0.070796
#
#
# Mechanical properties :
#
#
# Convention : Reuss Voigt Hill
#
# Bulk Modulus (GPa) = 44.53645 60.98560 52.76102
# Shear Modulus (GPa) = 23.06589 27.08383 25.07486
#
# Velocity S-wave (km/s) = 3.24214 3.51319 3.38038
# Velocity P-wave (km/s) = 5.85757 6.65196 6.26737
#
# Compressibility (1/GPa) = 0.02245352
#
# Stress axis : x y z
#
# Youngs Moduli (GPa) = 105.17518 79.65405 49.60416
#
# Poissons Ratio (x) = 0.38872 0.24503
# Poissons Ratio (y) = 0.51327 0.00319
# Poissons Ratio (z) = 0.51953 0.00513
#
# Static dielectric constant tensor:
#      x y z
#    x 1.801530 0.000000 0.000000 
#    y 0.000000 1.799890 0.000000 
#    z 0.000000 0.000000 1.901330 
# 
# From -- ./inp_files/6174.got.cif
#   From: 2010.05.17/outbox.cif.g08.bks.cpg/sg20_4_cif.got.tgz:6174.got - 2010.06.03 22:52:26.
