data_PCOD9318628
_publ_section_title
;
Structure prediction by ZEFSAII (Michael W. Deem and Ramdas Pophale) SiO2 
 PCOD9318628
Probable space group: C 2 2 21
;
_chemical_formula_sum "Si O2"
_cell_formula_units_Z 24
_cell_length_a 9.182043
_cell_length_b 10.394244
_cell_length_c 10.244358
_cell_angle_alpha 90.000000
_cell_angle_beta 90.000000
_cell_angle_gamma 90.000000
_cell_volume 977.725578
_symmetry_space_group_name_H-M "C 2 2 21"
_symmetry_group_IT_number 20
_symmetry_cell_setting 'orthorhombic'
loop_
_space_group_symop_operation_xyz
x,y,z
-x,-y,1/2+z
x,-y,-z
-x,y,1/2-z
1/2+x,1/2+y,z
1/2-x,1/2-y,1/2+z
1/2+x,1/2-y,-z
1/2-x,1/2+y,1/2-z
loop_
_atom_site_type_symbol
_atom_site_label
_atom_site_fract_x
_atom_site_fract_y
_atom_site_fract_z
Si Si1 0.756526 0.540562 0.851305
Si Si2 0.181448 0.263933 0.674253
Si Si3 0.952376 0.358165 0.467739
O O1 0.775358 0.406248 0.774064
O O2 0.667098 0.645809 0.773099
O O3 0.913314 0.609246 0.870745
O O4 0.711646 0.500000 0.000000
O O5 0.319532 0.223384 0.585163
O O6 0.039853 0.293374 0.587031
O O7 0.894689 0.500000 0.500000
#
# Coordination Sequence:
#
# PCOD9318628 Si02
#       3
#     8   8   8
#     4   9  21  41  66  97 132 179 231 278 340 413
#     4  10  20  42  70  96 135 179 229 289 345 412
#     4   9  21  41  66  97 132 180 233 285 345 403
#
# _framework density 24.546766999999999
#
# number of rings (size 3 to 8) (size 9 to 14) (size 15 to 20)
#    0.000    3.333    0.000    1.000    0.000    5.333 
#    0.000   53.333    0.000    0.000    0.000    0.000 
#    0.000    0.000    0.000    0.000    0.000    0.000 
#
# Total GULP energy -67050.183586 kJ/mol
# GULP energy per Si atom -5587.515299 kJ/mol
# Density = 2.449090 g / cm^3
# Si number density = 24.546767 Si / 1000 Ang^3
#
#
#
# Elastic Constant Matrix: (Units=GPa)
#
#
# Indices 1 2 3 4 5 6 
#
# 1 89.2892 109.9203 48.0064 0.0000 0.0000 0.0000
# 2 109.9203 221.0064 104.6173 0.0000 0.0000 0.0000
# 3 48.0064 104.6173 126.6825 0.0000 0.0000 0.0000
# 4 0.0000 0.0000 0.0000 53.4684 0.0000 0.0000
# 5 0.0000 0.0000 0.0000 0.0000 53.9479 0.0000
# 6 0.0000 0.0000 0.0000 0.0000 0.0000 45.2561
#
#
#
# Elastic Compliance Matrix: (Units=1/GPa)
#
#
# Indices 1 2 3 4 5 6 
#
# 1 0.029062 -0.015172 0.001517 0.000000 0.000000 0.000000
# 2 -0.015172 0.015350 -0.006927 0.000000 0.000000 0.000000
# 3 0.001517 -0.006927 0.013039 0.000000 0.000000 0.000000
# 4 0.000000 0.000000 0.000000 0.018703 0.000000 0.000000
# 5 0.000000 0.000000 0.000000 0.000000 0.018536 0.000000
# 6 0.000000 0.000000 0.000000 0.000000 0.000000 0.022096
#
#
# Mechanical properties :
#
#
# Convention : Reuss Voigt Hill
#
# Bulk Modulus (GPa) = 61.40112 106.89622 84.14867
# Shear Modulus (GPa) = 30.60342 42.16340 36.38341
#
# Velocity S-wave (km/s) = 3.53475 4.14898 3.85412
# Velocity P-wave (km/s) = 6.45968 8.16055 7.35942
#
# Compressibility (1/GPa) = 0.01628635
#
# Stress axis : x y z
#
# Youngs Moduli (GPa) = 34.40888 65.14766 76.69176
#
# Poissons Ratio (x) = 0.98844 -0.11630
# Poissons Ratio (y) = 0.52206 0.53121
# Poissons Ratio (z) = -0.05218 0.45125
#
# Static dielectric constant tensor:
#      x y z
#    x 1.891260 0.000000 0.000000 
#    y 0.000000 1.913910 0.000000 
#    z 0.000000 0.000000 2.138930 
# 
# From -- ./inp_files/13436.got.cif
#   From: 2010.05.17/outbox.cif.g08.bks.cpg/sg20_7_cif.got.tgz:13436.got - 2010.06.03 22:52:26.
