data_PCOD9318524
_publ_section_title
;
Structure prediction by ZEFSAII (Michael W. Deem and Ramdas Pophale) SiO2 
 PCOD9318524
Probable space group: C 2 2 21
;
_chemical_formula_sum "Si O2"
_cell_formula_units_Z 32
_cell_length_a 12.720358
_cell_length_b 7.849122
_cell_length_c 13.463859
_cell_angle_alpha 90.000000
_cell_angle_beta 90.000000
_cell_angle_gamma 90.000000
_cell_volume 1344.280716
_symmetry_space_group_name_H-M "C 2 2 21"
_symmetry_group_IT_number 20
_symmetry_cell_setting 'orthorhombic'
loop_
_space_group_symop_operation_xyz
x,y,z
-x,-y,1/2+z
x,-y,-z
-x,y,1/2-z
1/2+x,1/2+y,z
1/2-x,1/2-y,1/2+z
1/2+x,1/2-y,-z
1/2-x,1/2+y,1/2-z
loop_
_atom_site_type_symbol
_atom_site_label
_atom_site_fract_x
_atom_site_fract_y
_atom_site_fract_z
Si Si1 0.580963 0.000000 0.500000
Si Si2 0.022369 0.144482 0.577696
Si Si3 0.669371 0.810166 0.314314
Si Si4 0.500000 0.547966 0.250000
Si Si5 0.262717 0.982758 0.386600
O O1 0.516975 0.165787 0.463568
O O2 0.647803 0.058427 0.596710
O O3 0.147436 0.110452 0.602142
O O4 0.993731 0.000000 0.500000
O O5 0.953715 0.085660 0.671543
O O6 0.572606 0.678397 0.308242
O O7 0.681513 0.884427 0.203822
O O8 0.757125 0.676313 0.347349
O O9 0.301331 0.000000 0.500000
#
# Coordination Sequence:
#
# PCOD9318524 Si02
#       5
#     4   8   8   4   8
#     4  12  20  40  72  94 130 188 210 266 352 406
#     4  10  20  42  66  93 134 170 215 275 333 393
#     4  11  23  40  71  97 137 176 226 271 341 397
#     4  10  22  44  62  98 134 172 220 284 320 400
#     4  10  20  41  65 101 133 169 224 277 325 394
#
# _framework density 23.804552000000001
#
# number of rings (size 3 to 8) (size 9 to 14) (size 15 to 20)
#    0.000    1.500    7.500    1.500    0.000    1.000 
#    2.250    7.500    0.000    0.000    0.000    0.000 
#    0.000    0.000    0.000    0.000    0.000    0.000 
#
# Total GULP energy -89170.347245 kJ/mol
# GULP energy per Si atom -5573.146703 kJ/mol
# Density = 2.375037 g / cm^3
# Si number density = 23.804552 Si / 1000 Ang^3
#
#
#
# Elastic Constant Matrix: (Units=GPa)
#
#
# Indices 1 2 3 4 5 6 
#
# 1 24.4114 10.8665 1.7483 0.0000 0.0000 0.0000
# 2 10.8665 180.1209 69.3601 0.0000 0.0000 0.0000
# 3 1.7483 69.3601 179.8480 0.0000 0.0000 0.0000
# 4 0.0000 0.0000 0.0000 71.5961 0.0000 0.0000
# 5 0.0000 0.0000 0.0000 0.0000 -17.0839 0.0000
# 6 0.0000 0.0000 0.0000 0.0000 0.0000 22.5675
#
#
#
# Elastic Compliance Matrix: (Units=1/GPa)
#
#
# Indices 1 2 3 4 5 6 
#
# 1 0.042164 -0.002802 0.000671 0.000000 0.000000 0.000000
# 2 -0.002802 0.006706 -0.002559 0.000000 0.000000 0.000000
# 3 0.000671 -0.002559 0.006541 0.000000 0.000000 0.000000
# 4 0.000000 0.000000 0.000000 0.013967 0.000000 0.000000
# 5 0.000000 0.000000 0.000000 0.000000 -0.058535 0.000000
# 6 0.000000 0.000000 0.000000 0.000000 0.000000 0.044312
#
#
# Mechanical properties :
#
#
# Convention : Reuss Voigt Hill
#
# Bulk Modulus (GPa) = 21.72500 60.92557 41.32528
# Shear Modulus (GPa) = 62.59481 35.57631 49.08556
#
# Velocity S-wave (km/s) = 5.13346 3.87009 4.54588
# Velocity P-wave (km/s) = 6.65453 6.75424 6.70457
#
# Compressibility (1/GPa) = 0.04602992
#
# Stress axis : x y z
#
# Youngs Moduli (GPa) = 23.71712 149.11318 152.88941
#
# Poissons Ratio (x) = 0.41781 -0.10255
# Poissons Ratio (y) = 0.06645 0.39126
# Poissons Ratio (z) = -0.01591 0.38160
#
# Static dielectric constant tensor:
#      x y z
#    x 2.017660 0.000000 0.000000 
#    y 0.000000 1.877250 0.000000 
#    z 0.000000 0.000000 1.951130 
# 
# From -- ./inp_files/12537.got.cif
#   From: 2010.05.17/outbox.cif.g08.bks.cpg/sg20_7_cif.got.tgz:12537.got - 2010.06.03 22:52:26.
