data_PCOD9318638
_publ_section_title
;
Structure prediction by ZEFSAII (Michael W. Deem and Ramdas Pophale) SiO2 
 PCOD9318638
Probable space group: C 2 2 21
;
_chemical_formula_sum "Si O2"
_cell_formula_units_Z 52
_cell_length_a 9.104988
_cell_length_b 19.906829
_cell_length_c 13.579535
_cell_angle_alpha 90.000000
_cell_angle_beta 90.000000
_cell_angle_gamma 90.000000
_cell_volume 2461.310262
_symmetry_space_group_name_H-M "C 2 2 21"
_symmetry_group_IT_number 20
_symmetry_cell_setting 'orthorhombic'
loop_
_space_group_symop_operation_xyz
x,y,z
-x,-y,1/2+z
x,-y,-z
-x,y,1/2-z
1/2+x,1/2+y,z
1/2-x,1/2-y,1/2+z
1/2+x,1/2-y,-z
1/2-x,1/2+y,1/2-z
loop_
_atom_site_type_symbol
_atom_site_label
_atom_site_fract_x
_atom_site_fract_y
_atom_site_fract_z
Si Si1 0.647982 0.192557 0.010277
Si Si2 0.500000 0.387919 0.250000
Si Si3 0.248195 0.682894 0.633983
Si Si4 0.299089 0.422365 0.521348
Si Si5 0.896959 0.350771 0.838451
Si Si6 0.874746 0.926177 0.043769
Si Si7 0.871687 0.243948 0.302408
O O1 0.735230 0.248697 0.072765
O O2 0.510183 0.171343 0.076649
O O3 0.751741 0.129932 0.979672
O O4 0.597364 0.230876 0.911662
O O5 0.601994 0.339699 0.185964
O O6 0.413285 0.427832 0.162210
O O7 0.216900 0.622288 0.560390
O O8 0.144068 0.695574 0.725205
O O9 0.286845 0.500000 0.500000
O O10 0.218968 0.404834 0.621989
O O11 0.472070 0.405461 0.511049
O O12 0.787761 0.290997 0.806123
O O13 0.000000 0.373544 0.750000
O O14 0.836325 0.000000 0.000000
O O15 0.000000 0.200659 0.250000
#
# Coordination Sequence:
#
# PCOD9318638 Si02
#       7
#     8   4   8   8   8   8   8
#     4  12  25  42  73 106 142 183 232 304 364 422
#     4  10  20  42  74  98 146 190 230 306 354 426
#     4  11  21  41  69  99 138 178 229 294 352 419
#     4  10  24  45  70  95 137 191 232 285 346 425
#     4  12  26  44  66 102 144 177 231 298 366 414
#     4  10  24  47  73 105 143 189 246 292 358 431
#     4  12  26  41  70 107 135 182 236 288 363 435
#
# _framework density 21.126957999999998
#
# number of rings (size 3 to 8) (size 9 to 14) (size 15 to 20)
#    0.000    0.923    4.615    1.846    4.308    0.615 
#    8.308    2.308    1.692    0.000    0.000    0.000 
#    0.000    0.000    0.000    0.000    0.000    0.000 
#
# Total GULP energy -145121.217007 kJ/mol
# GULP energy per Si atom -5581.585270 kJ/mol
# Density = 2.107887 g / cm^3
# Si number density = 21.126958 Si / 1000 Ang^3
#
#
#
# Elastic Constant Matrix: (Units=GPa)
#
#
# Indices 1 2 3 4 5 6 
#
# 1 105.2214 44.0449 60.2502 0.0000 0.0000 0.0000
# 2 44.0449 91.8265 42.5335 0.0000 0.0000 0.0000
# 3 60.2502 42.5335 132.5917 0.0000 0.0000 0.0000
# 4 0.0000 0.0000 0.0000 20.5533 0.0000 0.0000
# 5 0.0000 0.0000 0.0000 0.0000 43.4518 0.0000
# 6 0.0000 0.0000 0.0000 0.0000 0.0000 26.5753
#
#
#
# Elastic Compliance Matrix: (Units=1/GPa)
#
#
# Indices 1 2 3 4 5 6 
#
# 1 0.014280 -0.004515 -0.005041 0.000000 0.000000 0.000000
# 2 -0.004515 0.014218 -0.002509 0.000000 0.000000 0.000000
# 3 -0.005041 -0.002509 0.010637 0.000000 0.000000 0.000000
# 4 0.000000 0.000000 0.000000 0.048654 0.000000 0.000000
# 5 0.000000 0.000000 0.000000 0.000000 0.023014 0.000000
# 6 0.000000 0.000000 0.000000 0.000000 0.000000 0.037629
#
#
# Mechanical properties :
#
#
# Convention : Reuss Voigt Hill
#
# Bulk Modulus (GPa) = 66.64061 69.25520 67.94790
# Shear Modulus (GPa) = 28.15900 30.30350 29.23125
#
# Velocity S-wave (km/s) = 3.65478 3.79139 3.72371
# Velocity P-wave (km/s) = 7.03003 7.21234 7.12177
#
# Compressibility (1/GPa) = 0.01500587
#
# Stress axis : x y z
#
# Youngs Moduli (GPa) = 70.02898 70.33393 94.00785
#
# Poissons Ratio (x) = 0.31753 0.47386
# Poissons Ratio (y) = 0.31615 0.23591
# Poissons Ratio (z) = 0.35299 0.17650
#
# Static dielectric constant tensor:
#      x y z
#    x 1.896860 0.000000 0.000000 
#    y 0.000000 1.770710 0.000000 
#    z 0.000000 0.000000 1.787010 
# 
# From -- ./inp_files/19112.got.cif
#   From: 2010.05.17/outbox.cif.g08.bks.cpg/sg20_10_cif.got.tgz:19112.got - 2010.06.03 22:52:26.
