data_PCOD9318797
_publ_section_title
;
Structure prediction by ZEFSAII (Michael W. Deem and Ramdas Pophale) SiO2 
 PCOD9318797
Probable space group: C 2 2 21
;
_chemical_formula_sum "Si O2"
_cell_formula_units_Z 64
_cell_length_a 21.502679
_cell_length_b 18.244726
_cell_length_c 9.361819
_cell_angle_alpha 90.000000
_cell_angle_beta 90.000000
_cell_angle_gamma 90.000000
_cell_volume 3672.739768
_symmetry_space_group_name_H-M "C 2 2 21"
_symmetry_group_IT_number 20
_symmetry_cell_setting 'orthorhombic'
loop_
_space_group_symop_operation_xyz
x,y,z
-x,-y,1/2+z
x,-y,-z
-x,y,1/2-z
1/2+x,1/2+y,z
1/2-x,1/2-y,1/2+z
1/2+x,1/2-y,-z
1/2-x,1/2+y,1/2-z
loop_
_atom_site_type_symbol
_atom_site_label
_atom_site_fract_x
_atom_site_fract_y
_atom_site_fract_z
Si Si1 0.621611 0.439404 0.389801
Si Si2 0.262266 0.050207 0.620932
Si Si3 0.367964 0.346516 0.552525
Si Si4 0.938128 0.028172 0.339722
Si Si5 0.812555 0.701767 0.234383
Si Si6 0.244733 0.442257 0.615382
Si Si7 0.208300 0.293466 0.075464
Si Si8 0.426677 0.698960 0.752004
O O1 0.596910 0.500000 0.500000
O O2 0.693136 0.424792 0.429434
O O3 0.614040 0.480367 0.238891
O O4 0.585909 0.363443 0.371429
O O5 0.299148 0.125561 0.641186
O O6 0.292508 0.000000 0.500000
O O7 0.248439 0.995223 0.748994
O O8 0.416704 0.388011 0.652490
O O9 0.307215 0.400800 0.556353
O O10 0.344269 0.267618 0.605196
O O11 0.399320 0.333992 0.397630
O O12 0.000000 0.016944 0.250000
O O13 0.945107 0.000000 0.500000
O O14 0.800104 0.623409 0.163566
O O15 0.790936 0.700538 0.401603
O O16 0.769816 0.759112 0.147005
O O17 0.882837 0.730865 0.224708
O O18 0.220897 0.500000 0.500000
O O19 0.500000 0.713383 0.750000
#
# Coordination Sequence:
#
# PCOD9318797 Si02
#       8
#     8   8   8   8   8   8   8   8
#     4  11  22  32  51  81 112 146 191 224 265 327
#     4  11  20  35  56  86 116 145 186 230 286 345
#     4  10  22  38  55  80 116 150 186 231 290 329
#     4  12  23  36  51  75 111 155 192 228 267 332
#     4  10  22  38  55  87 114 147 192 231 292 340
#     4  11  21  36  60  86 116 147 177 239 298 347
#     4  10  21  36  57  81 117 147 184 237 284 347
#     4  11  22  39  58  78 111 159 197 231 271 340
#
# _framework density 17.425682999999999
#
# number of rings (size 3 to 8) (size 9 to 14) (size 15 to 20)
#    0.000    1.250    5.000    1.875    5.250    0.000 
#    0.000    0.000    0.000    0.000    6.500    0.000 
#    0.000    0.000    0.000    0.000    0.000    0.000 
#
# Total GULP energy -178349.234882 kJ/mol
# GULP energy per Si atom -5573.413590 kJ/mol
# Density = 1.738602 g / cm^3
# Si number density = 17.425683 Si / 1000 Ang^3
#
#
#
# Elastic Constant Matrix: (Units=GPa)
#
#
# Indices 1 2 3 4 5 6 
#
# 1 67.2419 41.6760 23.9008 0.0000 0.0000 0.0000
# 2 41.6760 130.1828 27.6662 0.0000 0.0000 0.0000
# 3 23.9008 27.6662 59.2229 0.0000 0.0000 0.0000
# 4 0.0000 0.0000 0.0000 31.3032 0.0000 0.0000
# 5 0.0000 0.0000 0.0000 0.0000 13.7691 0.0000
# 6 0.0000 0.0000 0.0000 0.0000 0.0000 159.1833
#
#
#
# Elastic Compliance Matrix: (Units=1/GPa)
#
#
# Indices 1 2 3 4 5 6 
#
# 1 0.020138 -0.005240 -0.005679 0.000000 0.000000 0.000000
# 2 -0.005240 0.009892 -0.002506 0.000000 0.000000 0.000000
# 3 -0.005679 -0.002506 0.020348 0.000000 0.000000 0.000000
# 4 0.000000 0.000000 0.000000 0.031946 0.000000 0.000000
# 5 0.000000 0.000000 0.000000 0.000000 0.072627 0.000000
# 6 0.000000 0.000000 0.000000 0.000000 0.000000 0.006282
#
#
# Mechanical properties :
#
#
# Convention : Reuss Voigt Hill
#
# Bulk Modulus (GPa) = 42.50452 49.23706 45.87079
# Shear Modulus (GPa) = 25.51994 51.74476 38.63235
#
# Velocity S-wave (km/s) = 3.83103 5.45518 4.71359
# Velocity P-wave (km/s) = 6.63430 8.24594 7.48363
#
# Compressibility (1/GPa) = 0.02352691
#
# Stress axis : x y z
#
# Youngs Moduli (GPa) = 49.65729 101.09584 49.14443
#
# Poissons Ratio (x) = 0.52973 0.27911
# Poissons Ratio (y) = 0.26020 0.12317
# Poissons Ratio (z) = 0.28202 0.25337
#
# Static dielectric constant tensor:
#      x y z
#    x 1.587750 0.000000 0.000000 
#    y 0.000000 1.625780 0.000000 
#    z 0.000000 0.000000 1.247490 
# 
# From -- ./inp_files/10870.got.cif
#   From: 2010.05.17/outbox.cif.g08.bks.cpg/sg20_6_cif.got.tgz:10870.got - 2010.06.03 22:52:26.
