data_PCOD9318590
_publ_section_title
;
Structure prediction by ZEFSAII (Michael W. Deem and Ramdas Pophale) SiO2 
 PCOD9318590
Probable space group: C 2 2 21
;
_chemical_formula_sum "Si O2"
_cell_formula_units_Z 60
_cell_length_a 17.268900
_cell_length_b 17.614777
_cell_length_c 8.740230
_cell_angle_alpha 90.000000
_cell_angle_beta 90.000000
_cell_angle_gamma 90.000000
_cell_volume 2658.671532
_symmetry_space_group_name_H-M "C 2 2 21"
_symmetry_group_IT_number 20
_symmetry_cell_setting 'orthorhombic'
loop_
_space_group_symop_operation_xyz
x,y,z
-x,-y,1/2+z
x,-y,-z
-x,y,1/2-z
1/2+x,1/2+y,z
1/2-x,1/2-y,1/2+z
1/2+x,1/2-y,-z
1/2-x,1/2+y,1/2-z
loop_
_atom_site_type_symbol
_atom_site_label
_atom_site_fract_x
_atom_site_fract_y
_atom_site_fract_z
Si Si1 0.611049 0.424380 0.454397
Si Si2 0.500000 0.188161 0.250000
Si Si3 0.218476 0.803120 0.914264
Si Si4 0.423813 0.917600 0.506585
Si Si5 0.185499 0.941289 0.133397
Si Si6 0.088240 0.703980 0.762774
Si Si7 0.760684 0.432944 0.675951
Si Si8 0.376705 0.260158 0.051570
O O1 0.564605 0.500000 0.500000
O O2 0.626840 0.426477 0.273099
O O3 0.690023 0.430770 0.555531
O O4 0.585020 0.340073 0.494669
O O5 0.475864 0.137781 0.393220
O O6 0.424498 0.234010 0.198118
O O7 0.140369 0.761784 0.861245
O O8 0.248595 0.860146 0.783189
O O9 0.284319 0.738156 0.925679
O O10 0.206841 0.860483 0.057403
O O11 0.410654 0.876957 0.345510
O O12 0.341894 0.928115 0.591734
O O13 0.461210 0.000000 0.500000
O O14 0.251871 0.991396 0.219384
O O15 0.158054 0.000000 0.000000
O O16 0.117255 0.702597 0.589546
O O17 0.000000 0.730060 0.750000
#
# Coordination Sequence:
#
# PCOD9318590 Si02
#       8
#     8   4   8   8   8   8   8   8
#     4  10  21  39  69 100 136 176 234 299 361 427
#     4  12  28  48  68 104 144 190 250 306 368 444
#     4  11  24  41  72 104 140 192 248 303 372 433
#     4  12  27  46  70  98 149 201 240 296 378 448
#     4   9  21  37  63 108 140 174 237 303 354 431
#     4  12  28  48  71 107 147 196 250 313 380 446
#     4  10  20  42  66 107 139 184 240 301 359 437
#     4  12  26  45  73 103 147 190 248 306 369 451
#
# _framework density 22.567661999999999
#
# number of rings (size 3 to 8) (size 9 to 14) (size 15 to 20)
#    0.000    1.067    4.000    2.000    8.400    0.000 
#    0.000    0.000    1.467    2.400    0.000    0.000 
#    0.000    0.000    0.000    0.000    0.000    0.000 
#
# Total GULP energy -167589.150546 kJ/mol
# GULP energy per Si atom -5586.305018 kJ/mol
# Density = 2.251630 g / cm^3
# Si number density = 22.567662 Si / 1000 Ang^3
#
#
#
# Elastic Constant Matrix: (Units=GPa)
#
#
# Indices 1 2 3 4 5 6 
#
# 1 73.5085 12.3785 6.2664 0.0000 0.0000 0.0000
# 2 12.3785 128.9638 31.3252 0.0000 0.0000 0.0000
# 3 6.2664 31.3252 106.4871 0.0000 0.0000 0.0000
# 4 0.0000 0.0000 0.0000 31.4603 0.0000 0.0000
# 5 0.0000 0.0000 0.0000 0.0000 10.2163 0.0000
# 6 0.0000 0.0000 0.0000 0.0000 0.0000 1.3213
#
#
#
# Elastic Compliance Matrix: (Units=1/GPa)
#
#
# Indices 1 2 3 4 5 6 
#
# 1 0.013848 -0.001218 -0.000457 0.000000 0.000000 0.000000
# 2 -0.001218 0.008458 -0.002416 0.000000 0.000000 0.000000
# 3 -0.000457 -0.002416 0.010128 0.000000 0.000000 0.000000
# 4 0.000000 0.000000 0.000000 0.031786 0.000000 0.000000
# 5 0.000000 0.000000 0.000000 0.000000 0.097882 0.000000
# 6 0.000000 0.000000 0.000000 0.000000 0.000000 0.756853
#
#
# Mechanical properties :
#
#
# Convention : Reuss Voigt Hill
#
# Bulk Modulus (GPa) = 41.23367 45.43329 43.33348
# Shear Modulus (GPa) = 5.34632 25.86554 15.60593
#
# Velocity S-wave (km/s) = 1.54083 3.38913 2.63252
# Velocity P-wave (km/s) = 4.63426 5.95741 5.33699
#
# Compressibility (1/GPa) = 0.02425203
#
# Stress axis : x y z
#
# Youngs Moduli (GPa) = 72.21288 118.23147 98.73137
#
# Poissons Ratio (x) = 0.14404 0.04507
# Poissons Ratio (y) = 0.08798 0.23857
# Poissons Ratio (z) = 0.03297 0.28569
#
# Static dielectric constant tensor:
#      x y z
#    x 1.826880 0.000000 0.000000 
#    y 0.000000 1.909950 0.000000 
#    z 0.000000 0.000000 1.860010 
# 
# From -- ./inp_files/9594.got.cif
#   From: 2010.05.17/outbox.cif.g08.bks.cpg/sg20_5_cif.got.tgz:9594.got - 2010.06.03 22:52:26.
