data_PCOD9318035
_publ_section_title
;
Structure prediction by ZEFSAII (Michael W. Deem and Ramdas Pophale) SiO2 
 PCOD9318035
Probable space group: C 2 2 21
;
_chemical_formula_sum "Si O2"
_cell_formula_units_Z 60
_cell_length_a 28.940571
_cell_length_b 17.270538
_cell_length_c 5.436013
_cell_angle_alpha 90.000000
_cell_angle_beta 90.000000
_cell_angle_gamma 90.000000
_cell_volume 2717.023838
_symmetry_space_group_name_H-M "C 2 2 21"
_symmetry_group_IT_number 20
_symmetry_cell_setting 'orthorhombic'
loop_
_space_group_symop_operation_xyz
x,y,z
-x,-y,1/2+z
x,-y,-z
-x,y,1/2-z
1/2+x,1/2+y,z
1/2-x,1/2-y,1/2+z
1/2+x,1/2-y,-z
1/2-x,1/2+y,1/2-z
loop_
_atom_site_type_symbol
_atom_site_label
_atom_site_fract_x
_atom_site_fract_y
_atom_site_fract_z
Si Si1 0.357535 0.089283 0.484993
Si Si2 0.500000 0.783984 0.250000
Si Si3 0.357579 0.201797 0.867421
Si Si4 0.429826 0.320075 0.021538
Si Si5 0.279896 0.185382 0.233635
Si Si6 0.814367 0.823430 0.522804
Si Si7 0.904785 0.091446 0.489897
Si Si8 0.544812 0.909353 0.919149
O O1 0.373596 0.122227 0.748035
O O2 0.311046 0.131544 0.405545
O O3 0.403170 0.102980 0.317740
O O4 0.348079 0.000000 0.500000
O O5 0.525105 0.728749 0.446566
O O6 0.464416 0.842158 0.380780
O O7 0.389722 0.254254 0.038699
O O8 0.348574 0.260132 0.641249
O O9 0.308433 0.182506 0.983154
O O10 0.418909 0.374296 0.780292
O O11 0.429809 0.365905 0.279049
O O12 0.286936 0.274714 0.316302
O O13 0.227318 0.158758 0.210171
O O14 0.849688 0.891851 0.464842
O O15 0.913880 0.000000 0.500000
O O16 0.500000 0.901319 0.750000
O O17 0.544626 0.000000 0.000000
#
# Coordination Sequence:
#
# PCOD9318035 Si02
#       8
#     8   4   8   8   8   8   8   8
#     4  10  24  41  56  90 139 183 228 283 359 425
#     4  12  26  40  72 108 138 182 236 306 350 446
#     4  10  20  37  62  89 127 176 221 281 342 410
#     4  11  25  44  73 109 136 181 239 293 358 431
#     4  11  20  38  62  92 130 174 225 292 340 421
#     4  10  21  37  64  96 126 173 234 288 346 418
#     4  11  25  49  73 102 142 187 233 298 368 439
#     4  11  24  41  63  98 140 188 236 291 355 426
#
# _framework density 22.082986999999999
#
# number of rings (size 3 to 8) (size 9 to 14) (size 15 to 20)
#    0.000    1.333    4.667    0.400    3.733    0.533 
#    2.400    1.333    0.000    0.000    0.000    0.000 
#    0.000    0.000    0.000    0.000    0.000    0.000 
#
# Total GULP energy -167244.975627 kJ/mol
# GULP energy per Si atom -5574.832521 kJ/mol
# Density = 2.203273 g / cm^3
# Si number density = 22.082987 Si / 1000 Ang^3
#
#
#
# Elastic Constant Matrix: (Units=GPa)
#
#
# Indices 1 2 3 4 5 6 
#
# 1 87.8481 31.2277 13.2958 0.0000 0.0000 0.0000
# 2 31.2277 144.4220 45.4360 0.0000 0.0000 0.0000
# 3 13.2958 45.4360 86.0333 0.0000 0.0000 0.0000
# 4 0.0000 0.0000 0.0000 27.0921 0.0000 0.0000
# 5 0.0000 0.0000 0.0000 0.0000 30.1128 0.0000
# 6 0.0000 0.0000 0.0000 0.0000 0.0000 29.8861
#
#
#
# Elastic Compliance Matrix: (Units=1/GPa)
#
#
# Indices 1 2 3 4 5 6 
#
# 1 0.012357 -0.002484 -0.000598 0.000000 0.000000 0.000000
# 2 -0.002484 0.008803 -0.004265 0.000000 0.000000 0.000000
# 3 -0.000598 -0.004265 0.013968 0.000000 0.000000 0.000000
# 4 0.000000 0.000000 0.000000 0.036911 0.000000 0.000000
# 5 0.000000 0.000000 0.000000 0.000000 0.033208 0.000000
# 6 0.000000 0.000000 0.000000 0.000000 0.000000 0.033460
#
#
# Mechanical properties :
#
#
# Convention : Reuss Voigt Hill
#
# Bulk Modulus (GPa) = 48.93724 55.35805 52.14765
# Shear Modulus (GPa) = 31.20840 32.64113 31.92476
#
# Velocity S-wave (km/s) = 3.76338 3.84879 3.80632
# Velocity P-wave (km/s) = 6.41036 6.69877 6.55615
#
# Compressibility (1/GPa) = 0.02043434
#
# Stress axis : x y z
#
# Youngs Moduli (GPa) = 80.92793 113.59675 71.59028
#
# Poissons Ratio (x) = 0.28214 0.04281
# Poissons Ratio (y) = 0.20100 0.30535
# Poissons Ratio (z) = 0.04839 0.48452
#
# Static dielectric constant tensor:
#      x y z
#    x 1.882490 0.000000 0.000000 
#    y 0.000000 1.800030 0.000000 
#    z 0.000000 0.000000 1.933430 
# 
# From -- ./inp_files/4770.got.cif
#   From: 2010.05.17/outbox.cif.g08.bks.cpg/sg20_3_cif.got.tgz:4770.got - 2010.06.03 22:52:26.
