data_PCOD9318242
_publ_section_title
;
Structure prediction by ZEFSAII (Michael W. Deem and Ramdas Pophale) SiO2 
 PCOD9318242
Probable space group: C 2 2 21
;
_chemical_formula_sum "Si O2"
_cell_formula_units_Z 40
_cell_length_a 14.197547
_cell_length_b 18.669832
_cell_length_c 6.570791
_cell_angle_alpha 90.000000
_cell_angle_beta 90.000000
_cell_angle_gamma 90.000000
_cell_volume 1741.692087
_symmetry_space_group_name_H-M "C 2 2 21"
_symmetry_group_IT_number 20
_symmetry_cell_setting 'orthorhombic'
loop_
_space_group_symop_operation_xyz
x,y,z
-x,-y,1/2+z
x,-y,-z
-x,y,1/2-z
1/2+x,1/2+y,z
1/2-x,1/2-y,1/2+z
1/2+x,1/2-y,-z
1/2-x,1/2+y,1/2-z
loop_
_atom_site_type_symbol
_atom_site_label
_atom_site_fract_x
_atom_site_fract_y
_atom_site_fract_z
Si Si1 0.110403 0.238553 0.580532
Si Si2 0.415792 0.703782 0.434997
Si Si3 0.283037 0.576286 0.496007
Si Si4 0.300309 0.163882 0.625033
Si Si5 0.395993 0.101658 0.236105
O O1 0.029159 0.199800 0.448564
O O2 0.214047 0.209567 0.529214
O O3 0.096590 0.324376 0.602777
O O4 0.101564 0.218381 0.821334
O O5 0.352393 0.634447 0.395267
O O6 0.374052 0.773275 0.318922
O O7 0.334241 0.500000 0.500000
O O8 0.243866 0.612739 0.703477
O O9 0.189805 0.560800 0.364738
O O10 0.357527 0.119815 0.458848
O O11 0.500000 0.069456 0.250000
#
# Coordination Sequence:
#
# PCOD9318242 Si02
#       5
#     8   8   8   8   8
#     4   9  16  33  63 100 116 157 215 267 303 362
#     4   9  17  35  65  91 125 164 212 260 312 369
#     4  11  25  41  61  93 131 168 205 261 327 382
#     4  10  20  38  67  91 121 167 210 265 312 369
#     4  11  21  39  60  90 126 158 213 263 309 370
#
# _framework density 22.966170999999999
#
# number of rings (size 3 to 8) (size 9 to 14) (size 15 to 20)
#    0.000    2.000    6.000    0.000    0.000    1.600 
#    3.600    3.000   17.600    0.000    0.000    0.000 
#    0.000    0.000    0.000    0.000    0.000    0.000 
#
# Total GULP energy -111636.029691 kJ/mol
# GULP energy per Si atom -5581.801485 kJ/mol
# Density = 2.291390 g / cm^3
# Si number density = 22.966171 Si / 1000 Ang^3
#
#
#
# Elastic Constant Matrix: (Units=GPa)
#
#
# Indices 1 2 3 4 5 6 
#
# 1 130.7884 5.4207 19.7031 0.0000 0.0000 0.0000
# 2 5.4207 93.6581 19.8744 0.0000 0.0000 0.0000
# 3 19.7031 19.8744 53.7603 0.0000 0.0000 0.0000
# 4 0.0000 0.0000 0.0000 15.2544 0.0000 0.0000
# 5 0.0000 0.0000 0.0000 0.0000 46.0298 0.0000
# 6 0.0000 0.0000 0.0000 0.0000 0.0000 1.2239
#
#
#
# Elastic Compliance Matrix: (Units=1/GPa)
#
#
# Indices 1 2 3 4 5 6 
#
# 1 0.008095 0.000175 -0.003032 0.000000 0.000000 0.000000
# 2 0.000175 0.011590 -0.004349 0.000000 0.000000 0.000000
# 3 -0.003032 -0.004349 0.021320 0.000000 0.000000 0.000000
# 4 0.000000 0.000000 0.000000 0.065555 0.000000 0.000000
# 5 0.000000 0.000000 0.000000 0.000000 0.021725 0.000000
# 6 0.000000 0.000000 0.000000 0.000000 0.000000 0.817093
#
#
# Mechanical properties :
#
#
# Convention : Reuss Voigt Hill
#
# Bulk Modulus (GPa) = 37.60227 40.91143 39.25685
# Shear Modulus (GPa) = 5.16181 28.04886 16.60533
#
# Velocity S-wave (km/s) = 1.50082 3.49852 2.69185
# Velocity P-wave (km/s) = 4.40587 5.84568 5.17608
#
# Compressibility (1/GPa) = 0.02659414
#
# Stress axis : x y z
#
# Youngs Moduli (GPa) = 123.52707 86.28272 46.90479
#
# Poissons Ratio (x) = -0.01508 0.14219
# Poissons Ratio (y) = -0.02159 0.20397
# Poissons Ratio (z) = 0.37448 0.37521
#
# Static dielectric constant tensor:
#      x y z
#    x 1.860430 0.000000 0.000000 
#    y 0.000000 1.824610 0.000000 
#    z 0.000000 0.000000 2.113200 
# 
# From -- ./inp_files/2619.got.cif
#   From: 2010.05.17/outbox.cif.g08.bks.cpg/sg20_2_cif.got.tgz:2619.got - 2010.06.03 22:52:26.
