data_PCOD9318211
_publ_section_title
;
Structure prediction by ZEFSAII (Michael W. Deem and Ramdas Pophale) SiO2 
 PCOD9318211
Probable space group: C 2 2 21
;
_chemical_formula_sum "Si O2"
_cell_formula_units_Z 52
_cell_length_a 7.491775
_cell_length_b 11.668967
_cell_length_c 26.893245
_cell_angle_alpha 90.000000
_cell_angle_beta 90.000000
_cell_angle_gamma 90.000000
_cell_volume 2351.041773
_symmetry_space_group_name_H-M "C 2 2 21"
_symmetry_group_IT_number 20
_symmetry_cell_setting 'orthorhombic'
loop_
_space_group_symop_operation_xyz
x,y,z
-x,-y,1/2+z
x,-y,-z
-x,y,1/2-z
1/2+x,1/2+y,z
1/2-x,1/2-y,1/2+z
1/2+x,1/2-y,-z
1/2-x,1/2+y,1/2-z
loop_
_atom_site_type_symbol
_atom_site_label
_atom_site_fract_x
_atom_site_fract_y
_atom_site_fract_z
Si Si1 0.500000 0.128757 0.750000
Si Si2 0.090812 0.894397 0.475072
Si Si3 0.416128 0.107169 0.139519
Si Si4 0.826575 0.983876 0.718088
Si Si5 0.500195 0.644689 0.634632
Si Si6 0.152236 0.802494 0.939950
Si Si7 0.926500 0.647628 0.644841
O O1 0.678664 0.050879 0.750627
O O2 0.501763 0.191568 0.697365
O O3 0.993855 0.904646 0.421466
O O4 0.225433 0.791227 0.466698
O O5 0.951614 0.867967 0.518119
O O6 0.195180 0.000000 0.500000
O O7 0.543048 0.219107 0.137593
O O8 0.283593 0.120974 0.093138
O O9 0.291595 0.109929 0.188955
O O10 0.506743 0.982852 0.138388
O O11 0.000000 0.950451 0.750000
O O12 0.895905 0.069672 0.674591
O O13 0.712062 0.643272 0.645889
O O14 0.029418 0.731822 0.900778
#
# Coordination Sequence:
#
# PCOD9318211 Si02
#       7
#     4   8   8   8   8   8   8
#     4  10  20  38  64  92 124 170 216 260 322 386
#     4  10  22  39  64  89 126 163 208 259 317 381
#     4   9  21  41  60  90 127 161 211 265 310 387
#     4  11  21  41  67  90 131 171 212 270 321 375
#     4  10  22  42  62  93 130 163 215 267 314 388
#     4  10  23  40  60  94 125 160 216 257 317 385
#     4   9  19  40  61  84 128 159 210 265 311 378
#
# _framework density 22.117853
#
# number of rings (size 3 to 8) (size 9 to 14) (size 15 to 20)
#    0.000    2.462    1.538    0.923    0.000    8.615 
#   11.077    6.154    0.000    0.000    0.000    0.000 
#    0.000    0.000    0.000    0.000    0.000    0.000 
#
# Total GULP energy -145103.100360 kJ/mol
# GULP energy per Si atom -5580.888475 kJ/mol
# Density = 2.206751 g / cm^3
# Si number density = 22.117853 Si / 1000 Ang^3
#
#
#
# Elastic Constant Matrix: (Units=GPa)
#
#
# Indices 1 2 3 4 5 6 
#
# 1 46.3719 6.6762 10.0170 0.0000 0.0000 0.0000
# 2 6.6762 64.2422 24.6905 0.0000 0.0000 0.0000
# 3 10.0170 24.6905 128.5591 0.0000 0.0000 0.0000
# 4 0.0000 0.0000 0.0000 29.0365 0.0000 0.0000
# 5 0.0000 0.0000 0.0000 0.0000 22.4553 0.0000
# 6 0.0000 0.0000 0.0000 0.0000 0.0000 -1.0209
#
#
#
# Elastic Compliance Matrix: (Units=1/GPa)
#
#
# Indices 1 2 3 4 5 6 
#
# 1 0.022118 -0.001767 -0.001384 0.000000 0.000000 0.000000
# 2 -0.001767 0.016948 -0.003117 0.000000 0.000000 0.000000
# 3 -0.001384 -0.003117 0.008485 0.000000 0.000000 0.000000
# 4 0.000000 0.000000 0.000000 0.034439 0.000000 0.000000
# 5 0.000000 0.000000 0.000000 0.000000 0.044533 0.000000
# 6 0.000000 0.000000 0.000000 0.000000 0.000000 -0.979513
#
#
# Mechanical properties :
#
#
# Convention : Reuss Voigt Hill
#
# Bulk Modulus (GPa) = 28.55921 35.77118 32.16519
# Shear Modulus (GPa) = -6.03295 23.28014 8.62360
#
# Velocity S-wave (km/s) = -1.65335 3.24782 1.97671
# Velocity P-wave (km/s) = 3.04886 5.50205 4.44793
#
# Compressibility (1/GPa) = 0.03501498
#
# Stress axis : x y z
#
# Youngs Moduli (GPa) = 45.21179 59.00487 117.85430
#
# Poissons Ratio (x) = 0.10424 0.16312
# Poissons Ratio (y) = 0.07987 0.36738
# Poissons Ratio (z) = 0.06258 0.18393
#
# Static dielectric constant tensor:
#      x y z
#    x 1.802920 0.000000 0.000000 
#    y 0.000000 1.864340 0.000000 
#    z 0.000000 0.000000 1.828000 
# 
# From -- ./inp_files/30124.got.cif
#   From: 2010.05.17/outbox.cif.g08.bks.cpg/sg20_16_cif.got.tgz:30124.got - 2010.06.03 22:52:26.
