data_PCOD9318945
_publ_section_title
;
Structure prediction by ZEFSAII (Michael W. Deem and Ramdas Pophale) SiO2 
 PCOD9318945
Probable space group: C 2 2 21
;
_chemical_formula_sum "Si O2"
_cell_formula_units_Z 60
_cell_length_a 22.780559
_cell_length_b 25.638426
_cell_length_c 5.036966
_cell_angle_alpha 90.000000
_cell_angle_beta 90.000000
_cell_angle_gamma 90.000000
_cell_volume 2941.878657
_symmetry_space_group_name_H-M "C 2 2 21"
_symmetry_group_IT_number 20
_symmetry_cell_setting 'orthorhombic'
loop_
_space_group_symop_operation_xyz
x,y,z
-x,-y,1/2+z
x,-y,-z
-x,y,1/2-z
1/2+x,1/2+y,z
1/2-x,1/2-y,1/2+z
1/2+x,1/2-y,-z
1/2-x,1/2+y,1/2-z
loop_
_atom_site_type_symbol
_atom_site_label
_atom_site_fract_x
_atom_site_fract_y
_atom_site_fract_z
Si Si1 0.435362 0.142345 0.867876
Si Si2 0.120742 0.310960 0.877972
Si Si3 0.340635 0.945541 0.149139
Si Si4 0.881497 0.190466 0.732765
Si Si5 0.846373 0.129961 0.250865
Si Si6 0.939874 0.948658 0.874716
Si Si7 0.283248 0.101432 0.350464
Si Si8 0.000000 0.137190 0.750000
O O1 0.500000 0.136476 0.750000
O O2 0.404759 0.184159 0.673108
O O3 0.400064 0.088240 0.837145
O O4 0.423942 0.161475 0.168268
O O5 0.128118 0.251646 0.793113
O O6 0.180477 0.344707 0.881837
O O7 0.310557 0.939317 0.437309
O O8 0.297144 0.916801 0.946234
O O9 0.351799 0.000000 0.000000
O O10 0.839805 0.159812 0.527859
O O11 0.947954 0.174170 0.644153
O O12 0.871483 0.169935 0.030499
O O13 0.891939 0.082202 0.296109
O O14 0.785852 0.108986 0.131549
O O15 0.000000 0.969866 0.750000
O O16 0.965941 0.902845 0.059119
O O17 0.911175 0.000000 0.000000
#
# Coordination Sequence:
#
# PCOD9318945 Si02
#       8
#     8   8   8   8   8   8   8   4
#     4  10  21  38  60  91 126 158 205 249 296 372
#     4  10  22  39  60  90 122 167 199 248 313 356
#     4  10  21  40  64  88 124 162 201 252 313 356
#     4  11  23  38  59  88 121 158 203 248 306 366
#     4  11  24  40  60  90 118 156 207 256 298 367
#     4  11  21  38  58  78 114 153 192 244 310 359
#     4  10  22  41  62  88 125 158 206 258 301 371
#     4  10  22  36  54  82 118 150 196 248 304 360
#
# _framework density 20.395132
#
# number of rings (size 3 to 8) (size 9 to 14) (size 15 to 20)
#    0.000    1.600    2.000    2.400    1.867    2.133 
#    0.000    4.667    0.000    0.000    0.000    0.000 
#    0.000    0.000    0.000    0.000    0.000    0.000 
#
# Total GULP energy -167317.258113 kJ/mol
# GULP energy per Si atom -5577.241937 kJ/mol
# Density = 2.034871 g / cm^3
# Si number density = 20.395132 Si / 1000 Ang^3
#
#
#
# Elastic Constant Matrix: (Units=GPa)
#
#
# Indices 1 2 3 4 5 6 
#
# 1 45.1086 10.1012 0.0192 0.0000 0.0000 0.0000
# 2 10.1012 79.8996 -0.2201 0.0000 0.0000 0.0000
# 3 0.0192 -0.2201 66.0580 0.0000 0.0000 0.0000
# 4 0.0000 0.0000 0.0000 29.1922 0.0000 0.0000
# 5 0.0000 0.0000 0.0000 0.0000 15.0039 0.0000
# 6 0.0000 0.0000 0.0000 0.0000 0.0000 9.2772
#
#
#
# Elastic Compliance Matrix: (Units=1/GPa)
#
#
# Indices 1 2 3 4 5 6 
#
# 1 0.022815 -0.002884 -0.000016 0.000000 0.000000 0.000000
# 2 -0.002884 0.012880 0.000044 0.000000 0.000000 0.000000
# 3 -0.000016 0.000044 0.015138 0.000000 0.000000 0.000000
# 4 0.000000 0.000000 0.000000 0.034256 0.000000 0.000000
# 5 0.000000 0.000000 0.000000 0.000000 0.066649 0.000000
# 6 0.000000 0.000000 0.000000 0.000000 0.000000 0.107791
#
#
# Mechanical properties :
#
#
# Convention : Reuss Voigt Hill
#
# Bulk Modulus (GPa) = 22.16323 23.42965 22.79644
# Shear Modulus (GPa) = 17.83908 22.77239 20.30573
#
# Velocity S-wave (km/s) = 2.96070 3.34512 3.15876
# Velocity P-wave (km/s) = 4.75165 5.14126 4.95029
#
# Compressibility (1/GPa) = 0.04511977
#
# Stress axis : x y z
#
# Youngs Moduli (GPa) = 43.83155 77.63691 66.05731
#
# Poissons Ratio (x) = 0.22393 0.00107
# Poissons Ratio (y) = 0.12643 -0.00289
# Poissons Ratio (z) = 0.00071 -0.00340
#
# Static dielectric constant tensor:
#      x y z
#    x 1.738980 0.000000 0.000000 
#    y 0.000000 1.724830 0.000000 
#    z 0.000000 0.000000 1.745030 
# 
# From -- ./inp_files/3323.got.cif
#   From: 2010.05.17/outbox.cif.g08.bks.cpg/sg20_2_cif.got.tgz:3323.got - 2010.06.03 22:52:26.
