data_PCOD9318433
_publ_section_title
;
Structure prediction by ZEFSAII (Michael W. Deem and Ramdas Pophale) SiO2 
 PCOD9318433
Probable space group: C 2 2 21
;
_chemical_formula_sum "Si O2"
_cell_formula_units_Z 44
_cell_length_a 8.912023
_cell_length_b 13.525566
_cell_length_c 16.308039
_cell_angle_alpha 90.000000
_cell_angle_beta 90.000000
_cell_angle_gamma 90.000000
_cell_volume 1965.773553
_symmetry_space_group_name_H-M "C 2 2 21"
_symmetry_group_IT_number 20
_symmetry_cell_setting 'orthorhombic'
loop_
_space_group_symop_operation_xyz
x,y,z
-x,-y,1/2+z
x,-y,-z
-x,y,1/2-z
1/2+x,1/2+y,z
1/2-x,1/2-y,1/2+z
1/2+x,1/2-y,-z
1/2-x,1/2+y,1/2-z
loop_
_atom_site_type_symbol
_atom_site_label
_atom_site_fract_x
_atom_site_fract_y
_atom_site_fract_z
Si Si1 0.873068 0.000000 0.000000
Si Si2 0.901965 0.152267 0.528196
Si Si3 0.784402 0.360226 0.367542
Si Si4 0.105052 0.322714 0.551729
Si Si5 0.362416 0.568826 0.702498
Si Si6 0.449129 0.001872 0.841016
O O1 0.780378 0.945403 0.070677
O O2 0.992325 0.916616 0.972296
O O3 0.728238 0.136910 0.510905
O O4 0.924271 0.130088 0.625184
O O5 0.969093 0.260120 0.514645
O O6 0.713316 0.256011 0.398704
O O7 0.720337 0.371026 0.274950
O O8 0.958734 0.397203 0.360769
O O9 0.024796 0.411775 0.598075
O O10 0.500000 0.517931 0.750000
O O11 0.230655 0.505482 0.664068
O O12 0.500000 0.972996 0.750000
#
# Coordination Sequence:
#
# PCOD9318433 Si02
#       6
#     4   8   8   8   8   8
#     4  10  20  40  66  90 132 174 222 278 350 400
#     4  11  25  40  68  99 134 180 230 291 349 423
#     4  10  24  43  68  96 139 180 221 291 350 420
#     4  11  25  42  66 105 134 176 239 282 355 424
#     4  11  21  46  68  91 136 183 225 287 357 419
#     4  10  25  43  71 101 134 186 230 285 361 415
#
# _framework density 22.383047000000001
#
# number of rings (size 3 to 8) (size 9 to 14) (size 15 to 20)
#    0.000    1.455    3.636    1.091   10.182    0.000 
#    0.000    2.727    0.000    0.000    0.000    0.000 
#    0.000    0.000    0.000    0.000    0.000    0.000 
#
# Total GULP energy -122555.443722 kJ/mol
# GULP energy per Si atom -5570.701987 kJ/mol
# Density = 2.233210 g / cm^3
# Si number density = 22.383047 Si / 1000 Ang^3
#
#
#
# Elastic Constant Matrix: (Units=GPa)
#
#
# Indices 1 2 3 4 5 6 
#
# 1 104.6083 -1.8579 2.0654 0.0000 0.0000 0.0000
# 2 -1.8579 52.7970 14.6423 0.0000 0.0000 0.0000
# 3 2.0654 14.6423 71.3831 0.0000 0.0000 0.0000
# 4 0.0000 0.0000 0.0000 24.8999 0.0000 0.0000
# 5 0.0000 0.0000 0.0000 0.0000 39.5913 0.0000
# 6 0.0000 0.0000 0.0000 0.0000 0.0000 25.5107
#
#
#
# Elastic Compliance Matrix: (Units=1/GPa)
#
#
# Indices 1 2 3 4 5 6 
#
# 1 0.009575 0.000439 -0.000367 0.000000 0.000000 0.000000
# 2 0.000439 0.020103 -0.004136 0.000000 0.000000 0.000000
# 3 -0.000367 -0.004136 0.014868 0.000000 0.000000 0.000000
# 4 0.000000 0.000000 0.000000 0.040161 0.000000 0.000000
# 5 0.000000 0.000000 0.000000 0.000000 0.025258 0.000000
# 6 0.000000 0.000000 0.000000 0.000000 0.000000 0.039199
#
#
# Mechanical properties :
#
#
# Convention : Reuss Voigt Hill
#
# Bulk Modulus (GPa) = 27.46020 28.72089 28.09054
# Shear Modulus (GPa) = 29.51044 32.26296 30.88670
#
# Velocity S-wave (km/s) = 3.63496 3.80070 3.71875
# Velocity P-wave (km/s) = 5.46920 5.66743 5.56920
#
# Compressibility (1/GPa) = 0.03641634
#
# Stress axis : x y z
#
# Youngs Moduli (GPa) = 104.44399 49.74372 67.25861
#
# Poissons Ratio (x) = -0.02182 0.02468
# Poissons Ratio (y) = -0.04582 0.27820
# Poissons Ratio (z) = 0.03833 0.20575
#
# Static dielectric constant tensor:
#      x y z
#    x 1.889390 0.000000 0.000000 
#    y 0.000000 1.916670 0.000000 
#    z 0.000000 0.000000 1.841200 
# 
# From -- ./inp_files/23380.got.cif
#   From: 2010.05.17/outbox.cif.g08.bks.cpg/sg20_12_cif.got.tgz:23380.got - 2010.06.03 22:52:26.
