data_PCOD9318864
_publ_section_title
;
Structure prediction by ZEFSAII (Michael W. Deem and Ramdas Pophale) SiO2 
 PCOD9318864
Probable space group: C 2 2 21
;
_chemical_formula_sum "Si O2"
_cell_formula_units_Z 40
_cell_length_a 18.538768
_cell_length_b 5.453835
_cell_length_c 14.276880
_cell_angle_alpha 90.000000
_cell_angle_beta 90.000000
_cell_angle_gamma 90.000000
_cell_volume 1443.497957
_symmetry_space_group_name_H-M "C 2 2 21"
_symmetry_group_IT_number 20
_symmetry_cell_setting 'orthorhombic'
loop_
_space_group_symop_operation_xyz
x,y,z
-x,-y,1/2+z
x,-y,-z
-x,y,1/2-z
1/2+x,1/2+y,z
1/2-x,1/2-y,1/2+z
1/2+x,1/2-y,-z
1/2-x,1/2+y,1/2-z
loop_
_atom_site_type_symbol
_atom_site_label
_atom_site_fract_x
_atom_site_fract_y
_atom_site_fract_z
Si Si1 0.483663 0.927943 0.099096
Si Si2 0.673500 0.368402 0.362554
Si Si3 0.495480 0.423932 0.139643
Si Si4 0.847331 0.631591 0.768938
Si Si5 0.182221 0.255310 0.052907
O O1 0.521046 0.666434 0.088172
O O2 0.426676 0.886988 0.182615
O O3 0.531575 0.162688 0.122835
O O4 0.449138 0.000000 0.000000
O O5 0.588774 0.387203 0.387343
O O6 0.689389 0.643542 0.326254
O O7 0.729979 0.282459 0.439667
O O8 0.678948 0.146817 0.286552
O O9 0.500000 0.462161 0.250000
O O10 0.841457 0.718233 0.662055
O O11 0.156841 0.500000 0.000000
O O12 0.166828 0.000000 0.000000
#
# Coordination Sequence:
#
# PCOD9318864 Si02
#       5
#     8   8   8   8   8
#     4  10  21  38  66  99 125 162 216 268 319 384
#     4  10  21  37  59  86 119 163 212 260 310 369
#     4  10  21  38  62  89 122 162 203 264 332 378
#     4  10  21  39  61  90 129 169 209 260 320 375
#     4  12  24  38  60  94 131 172 214 256 309 380
#
# _framework density 27.710463000000001
#
# number of rings (size 3 to 8) (size 9 to 14) (size 15 to 20)
#    0.000    1.600    0.000    4.800    0.000    9.600 
#    0.000    0.000    0.000   48.000    0.000    0.000 
#    0.000    0.000    0.000    0.000    0.000    0.000 
#
# Total GULP energy -111892.119251 kJ/mol
# GULP energy per Si atom -5594.605963 kJ/mol
# Density = 2.764739 g / cm^3
# Si number density = 27.710463 Si / 1000 Ang^3
#
#
#
# Elastic Constant Matrix: (Units=GPa)
#
#
# Indices 1 2 3 4 5 6 
#
# 1 96.5200 19.0502 19.3170 0.0000 0.0000 0.0000
# 2 19.0502 311.6935 90.7808 0.0000 0.0000 0.0000
# 3 19.3170 90.7808 164.6556 0.0000 0.0000 0.0000
# 4 0.0000 0.0000 0.0000 66.8681 0.0000 0.0000
# 5 0.0000 0.0000 0.0000 0.0000 41.1013 0.0000
# 6 0.0000 0.0000 0.0000 0.0000 0.0000 -7.6684
#
#
#
# Elastic Compliance Matrix: (Units=1/GPa)
#
#
# Indices 1 2 3 4 5 6 
#
# 1 0.010640 -0.000342 -0.001060 0.000000 0.000000 0.000000
# 2 -0.000342 0.003833 -0.002073 0.000000 0.000000 0.000000
# 3 -0.001060 -0.002073 0.007341 0.000000 0.000000 0.000000
# 4 0.000000 0.000000 0.000000 0.014955 0.000000 0.000000
# 5 0.000000 0.000000 0.000000 0.000000 0.024330 0.000000
# 6 0.000000 0.000000 0.000000 0.000000 0.000000 -0.130406
#
#
# Mechanical properties :
#
#
# Convention : Reuss Voigt Hill
#
# Bulk Modulus (GPa) = 67.27535 92.35168 79.81352
# Shear Modulus (GPa) = -87.10384 49.64161 -18.73112
#
# Velocity S-wave (km/s) = -5.61265 4.23713 -2.60274
# Velocity P-wave (km/s) = 4.20378 7.57215 4.45341
#
# Compressibility (1/GPa) = 0.01486428
#
# Stress axis : x y z
#
# Youngs Moduli (GPa) = 93.98412 260.89400 136.22755
#
# Poissons Ratio (x) = 0.08912 0.14439
# Poissons Ratio (y) = 0.03210 0.28243
# Poissons Ratio (z) = 0.09962 0.54088
#
# Static dielectric constant tensor:
#      x y z
#    x 2.231670 0.000000 0.000000 
#    y 0.000000 2.261160 0.000000 
#    z 0.000000 0.000000 2.125440 
# 
# From -- ./inp_files/16849.got.cif
#   From: 2010.05.17/outbox.cif.g08.bks.cpg/sg20_9_cif.got.tgz:16849.got - 2010.06.03 22:52:26.
