data_PCOD9318800
_publ_section_title
;
Structure prediction by ZEFSAII (Michael W. Deem and Ramdas Pophale) SiO2 
 PCOD9318800
Probable space group: C 2 2 21
;
_chemical_formula_sum "Si O2"
_cell_formula_units_Z 56
_cell_length_a 16.748409
_cell_length_b 33.232008
_cell_length_c 4.991012
_cell_angle_alpha 90.000000
_cell_angle_beta 90.000000
_cell_angle_gamma 90.000000
_cell_volume 2777.913739
_symmetry_space_group_name_H-M "C 2 2 21"
_symmetry_group_IT_number 20
_symmetry_cell_setting 'orthorhombic'
loop_
_space_group_symop_operation_xyz
x,y,z
-x,-y,1/2+z
x,-y,-z
-x,y,1/2-z
1/2+x,1/2+y,z
1/2-x,1/2-y,1/2+z
1/2+x,1/2-y,-z
1/2-x,1/2+y,1/2-z
loop_
_atom_site_type_symbol
_atom_site_label
_atom_site_fract_x
_atom_site_fract_y
_atom_site_fract_z
Si Si1 0.444209 0.299940 0.009358
Si Si2 0.055602 0.893088 0.488142
Si Si3 0.302487 0.754696 0.200804
Si Si4 0.595157 0.167512 0.743685
Si Si5 0.801993 0.954625 0.957032
Si Si6 0.594288 0.885244 0.750267
Si Si7 0.805519 0.545201 0.965101
O O1 0.500000 0.299644 0.750000
O O2 0.366373 0.274602 0.940115
O O3 0.500000 0.284158 0.250000
O O4 0.422375 0.346434 0.067959
O O5 0.133085 0.920492 0.503475
O O6 0.000000 0.907954 0.250000
O O7 0.000000 0.894280 0.750000
O O8 0.261149 0.736218 0.464887
O O9 0.350462 0.794099 0.295950
O O10 0.500000 0.176863 0.750000
O O11 0.611027 0.152216 0.444881
O O12 0.612974 0.131289 0.952784
O O13 0.772192 0.953070 0.653173
O O14 0.726848 0.949295 0.162628
O O15 0.833059 0.000000 0.000000
O O16 0.500000 0.893920 0.750000
O O17 0.637649 0.922201 0.604222
O O18 0.839436 0.500000 0.000000
#
# Coordination Sequence:
#
# PCOD9318800 Si02
#       7
#     8   8   8   8   8   8   8
#     4  10  22  41  61  81 115 159 195 236 298 361
#     4  10  21  37  58  84 111 149 199 242 286 344
#     4  12  25  39  60  92 120 149 199 252 298 352
#     4  10  22  40  61  84 117 158 196 241 302 360
#     4  10  21  36  57  85 119 156 191 234 294 353
#     4  10  21  39  62  88 115 152 202 245 287 348
#     4  10  21  38  58  84 118 155 189 230 292 352
#
# _framework density 20.159013000000002
#
# number of rings (size 3 to 8) (size 9 to 14) (size 15 to 20)
#    0.000    1.714    0.000    3.857    0.000    5.714 
#    0.000    4.286    0.000    0.000    0.000    0.000 
#    0.000    0.000    0.000    0.000    0.000    0.000 
#
# Total GULP energy -156310.645806 kJ/mol
# GULP energy per Si atom -5582.523065 kJ/mol
# Density = 2.011313 g / cm^3
# Si number density = 20.159013 Si / 1000 Ang^3
#
#
#
# Elastic Constant Matrix: (Units=GPa)
#
#
# Indices 1 2 3 4 5 6 
#
# 1 49.4318 51.9919 5.1078 0.0000 0.0000 0.0000
# 2 51.9919 84.4029 -2.4462 0.0000 0.0000 0.0000
# 3 5.1078 -2.4462 91.0669 0.0000 0.0000 0.0000
# 4 0.0000 0.0000 0.0000 26.9756 0.0000 0.0000
# 5 0.0000 0.0000 0.0000 0.0000 26.5784 0.0000
# 6 0.0000 0.0000 0.0000 0.0000 0.0000 41.2207
#
#
#
# Elastic Compliance Matrix: (Units=1/GPa)
#
#
# Indices 1 2 3 4 5 6 
#
# 1 0.059087 -0.036522 -0.004295 0.000000 0.000000 0.000000
# 2 -0.036522 0.034431 0.002973 0.000000 0.000000 0.000000
# 3 -0.004295 0.002973 0.011302 0.000000 0.000000 0.000000
# 4 0.000000 0.000000 0.000000 0.037071 0.000000 0.000000
# 5 0.000000 0.000000 0.000000 0.000000 0.037624 0.000000
# 6 0.000000 0.000000 0.000000 0.000000 0.000000 0.024260
#
#
# Mechanical properties :
#
#
# Convention : Reuss Voigt Hill
#
# Bulk Modulus (GPa) = 34.32550 37.13430 35.72990
# Shear Modulus (GPa) = 17.29069 30.30483 23.79776
#
# Velocity S-wave (km/s) = 2.93185 3.88143 3.43957
# Velocity P-wave (km/s) = 5.34091 6.20871 5.79109
#
# Compressibility (1/GPa) = 0.02913286
#
# Stress axis : x y z
#
# Youngs Moduli (GPa) = 16.92420 29.04325 88.48226
#
# Poissons Ratio (x) = 1.06071 0.38004
# Poissons Ratio (y) = 0.61810 -0.26308
# Poissons Ratio (z) = 0.07269 -0.08635
#
# Static dielectric constant tensor:
#      x y z
#    x 1.682000 0.000000 0.000000 
#    y 0.000000 1.726660 0.000000 
#    z 0.000000 0.000000 1.693280 
# 
# From -- ./inp_files/2234.got.cif
#   From: 2010.05.17/outbox.cif.g08.bks.cpg/sg20_2_cif.got.tgz:2234.got - 2010.06.03 22:52:26.
