data_PCOD9318258
_publ_section_title
;
Structure prediction by ZEFSAII (Michael W. Deem and Ramdas Pophale) SiO2 
 PCOD9318258
Probable space group: C 2 2 21
;
_chemical_formula_sum "Si O2"
_cell_formula_units_Z 56
_cell_length_a 6.051449
_cell_length_b 34.063768
_cell_length_c 13.256463
_cell_angle_alpha 90.000000
_cell_angle_beta 90.000000
_cell_angle_gamma 90.000000
_cell_volume 2732.623053
_symmetry_space_group_name_H-M "C 2 2 21"
_symmetry_group_IT_number 20
_symmetry_cell_setting 'orthorhombic'
loop_
_space_group_symop_operation_xyz
x,y,z
-x,-y,1/2+z
x,-y,-z
-x,y,1/2-z
1/2+x,1/2+y,z
1/2-x,1/2-y,1/2+z
1/2+x,1/2-y,-z
1/2-x,1/2+y,1/2-z
loop_
_atom_site_type_symbol
_atom_site_label
_atom_site_fract_x
_atom_site_fract_y
_atom_site_fract_z
Si Si1 0.252887 0.128568 0.052550
Si Si2 0.312247 0.500000 0.500000
Si Si3 0.346233 0.257740 0.350575
Si Si4 0.112969 0.066560 0.514762
Si Si5 0.000000 0.686529 0.750000
Si Si6 0.562898 0.695178 0.462865
Si Si7 0.505502 0.943650 0.633550
Si Si8 0.646428 0.864844 0.089188
O O1 0.410620 0.101852 0.122950
O O2 0.058677 0.098241 0.027847
O O3 0.397001 0.135112 0.951865
O O4 0.144607 0.170318 0.082509
O O5 0.474239 0.530411 0.556336
O O6 0.164980 0.473367 0.573294
O O7 0.500000 0.253685 0.250000
O O8 0.478460 0.275899 0.446893
O O9 0.217732 0.218688 0.385817
O O10 0.145294 0.286832 0.322805
O O11 0.271716 0.053883 0.423308
O O12 0.265180 0.091038 0.590854
O O13 0.164675 0.657866 0.807467
O O14 0.716416 0.662045 0.512530
O O15 0.500000 0.953997 0.750000
#
# Coordination Sequence:
#
# PCOD9318258 Si02
#       8
#     8   4   8   8   4   8   8   8
#     4   9  20  39  65  89 121 174 215 270 339 382
#     4  10  20  38  70  94 138 172 210 264 326 398
#     4  12  26  41  65  98 128 184 228 284 361 418
#     4   9  20  39  66  91 127 171 210 261 333 386
#     4  12  22  40  66  92 126 168 232 272 338 418
#     4  11  23  42  64  87 138 170 224 293 341 402
#     4  10  21  40  70  97 133 176 219 268 328 397
#     4  10  20  39  66  90 124 175 214 277 330 396
#
# _framework density 20.493131999999999
#
# number of rings (size 3 to 8) (size 9 to 14) (size 15 to 20)
#    0.000    1.714    2.857    1.286    0.000    2.286 
#    0.000   12.143   37.714    0.000    0.000    0.000 
#    0.000    0.000    0.000    0.000    0.000    0.000 
#
# Total GULP energy -156105.451160 kJ/mol
# GULP energy per Si atom -5575.194684 kJ/mol
# Density = 2.044649 g / cm^3
# Si number density = 20.493132 Si / 1000 Ang^3
#
#
#
# Elastic Constant Matrix: (Units=GPa)
#
#
# Indices 1 2 3 4 5 6 
#
# 1 77.1445 28.0734 9.5022 0.0000 0.0000 0.0000
# 2 28.0734 100.9716 34.9497 0.0000 0.0000 0.0000
# 3 9.5022 34.9497 50.3268 0.0000 0.0000 0.0000
# 4 0.0000 0.0000 0.0000 6.6551 0.0000 0.0000
# 5 0.0000 0.0000 0.0000 0.0000 15.0043 0.0000
# 6 0.0000 0.0000 0.0000 0.0000 0.0000 14.0388
#
#
#
# Elastic Compliance Matrix: (Units=1/GPa)
#
#
# Indices 1 2 3 4 5 6 
#
# 1 0.014422 -0.004038 0.000081 0.000000 0.000000 0.000000
# 2 -0.004038 0.014168 -0.009077 0.000000 0.000000 0.000000
# 3 0.000081 -0.009077 0.026158 0.000000 0.000000 0.000000
# 4 0.000000 0.000000 0.000000 0.150260 0.000000 0.000000
# 5 0.000000 0.000000 0.000000 0.000000 0.066648 0.000000
# 6 0.000000 0.000000 0.000000 0.000000 0.000000 0.071231
#
#
# Mechanical properties :
#
#
# Convention : Reuss Voigt Hill
#
# Bulk Modulus (GPa) = 34.86579 41.49928 38.18253
# Shear Modulus (GPa) = 13.20952 17.53416 15.37184
#
# Velocity S-wave (km/s) = 2.54162 2.92826 2.74176
# Velocity P-wave (km/s) = 5.06591 5.63269 5.35680
#
# Compressibility (1/GPa) = 0.02868141
#
# Stress axis : x y z
#
# Youngs Moduli (GPa) = 69.33798 70.58046 38.22885
#
# Poissons Ratio (x) = 0.28500 -0.00310
# Poissons Ratio (y) = 0.27998 0.34700
# Poissons Ratio (z) = -0.00562 0.64065
#
# Static dielectric constant tensor:
#      x y z
#    x 1.844140 0.000000 0.000000 
#    y 0.000000 1.762080 0.000000 
#    z 0.000000 0.000000 1.786590 
# 
# From -- ./inp_files/18035.got.cif
#   From: 2010.05.17/outbox.cif.g08.bks.cpg/sg20_10_cif.got.tgz:18035.got - 2010.06.03 22:52:26.
