data_PCOD9318642
_publ_section_title
;
Structure prediction by ZEFSAII (Michael W. Deem and Ramdas Pophale) SiO2 
 PCOD9318642
Probable space group: C 2 2 21
;
_chemical_formula_sum "Si O2"
_cell_formula_units_Z 28
_cell_length_a 9.256415
_cell_length_b 10.346318
_cell_length_c 11.300226
_cell_angle_alpha 90.000000
_cell_angle_beta 90.000000
_cell_angle_gamma 90.000000
_cell_volume 1082.220532
_symmetry_space_group_name_H-M "C 2 2 21"
_symmetry_group_IT_number 20
_symmetry_cell_setting 'orthorhombic'
loop_
_space_group_symop_operation_xyz
x,y,z
-x,-y,1/2+z
x,-y,-z
-x,y,1/2-z
1/2+x,1/2+y,z
1/2-x,1/2-y,1/2+z
1/2+x,1/2-y,-z
1/2-x,1/2+y,1/2-z
loop_
_atom_site_type_symbol
_atom_site_label
_atom_site_fract_x
_atom_site_fract_y
_atom_site_fract_z
Si Si1 0.573550 0.819162 0.544977
Si Si2 0.334378 0.646213 0.632899
Si Si3 0.659346 0.000000 0.000000
Si Si4 0.760343 0.401348 0.751460
O O1 0.493840 0.692028 0.593473
O O2 0.722530 0.828704 0.474955
O O3 0.602300 0.907674 0.660096
O O4 0.447807 0.882930 0.467881
O O5 0.343035 0.499879 0.678766
O O6 0.263158 0.745646 0.729912
O O7 0.737547 0.044899 0.118157
#
# Coordination Sequence:
#
# PCOD9318642 Si02
#       4
#     8   8   4   8
#     4  11  24  48  78 108 148 197 253 305 381 448
#     4  11  25  47  83 107 151 202 251 310 382 446
#     4  10  20  42  78 100 140 200 236 296 376 434
#     4  11  25  47  79 107 150 196 254 307 376 452
#
# _framework density 25.872729
#
# number of rings (size 3 to 8) (size 9 to 14) (size 15 to 20)
#    0.000    1.143    2.857    3.429    8.000    0.000 
#    0.000   11.429    0.000    0.000    0.000    0.000 
#    0.000    0.000    0.000    0.000    0.000    0.000 
#
# Total GULP energy -77941.673975 kJ/mol
# GULP energy per Si atom -5567.262427 kJ/mol
# Density = 2.581384 g / cm^3
# Si number density = 25.872729 Si / 1000 Ang^3
#
#
#
# Elastic Constant Matrix: (Units=GPa)
#
#
# Indices 1 2 3 4 5 6 
#
# 1 77.5033 6.9973 50.5241 0.0000 0.0000 0.0000
# 2 6.9973 79.5236 25.6090 0.0000 0.0000 0.0000
# 3 50.5241 25.6090 106.7963 0.0000 0.0000 0.0000
# 4 0.0000 0.0000 0.0000 50.5111 0.0000 0.0000
# 5 0.0000 0.0000 0.0000 0.0000 47.0590 0.0000
# 6 0.0000 0.0000 0.0000 0.0000 0.0000 47.7186
#
#
#
# Elastic Compliance Matrix: (Units=1/GPa)
#
#
# Indices 1 2 3 4 5 6 
#
# 1 0.018781 0.001310 -0.009199 0.000000 0.000000 0.000000
# 2 0.001310 0.013719 -0.003909 0.000000 0.000000 0.000000
# 3 -0.009199 -0.003909 0.014653 0.000000 0.000000 0.000000
# 4 0.000000 0.000000 0.000000 0.019798 0.000000 0.000000
# 5 0.000000 0.000000 0.000000 0.000000 0.021250 0.000000
# 6 0.000000 0.000000 0.000000 0.000000 0.000000 0.020956
#
#
# Mechanical properties :
#
#
# Convention : Reuss Voigt Hill
#
# Bulk Modulus (GPa) = 42.45283 47.78712 45.11997
# Shear Modulus (GPa) = 35.56029 41.10395 38.33212
#
# Velocity S-wave (km/s) = 3.71135 3.99017 3.85329
# Velocity P-wave (km/s) = 5.89996 6.30387 6.10526
#
# Compressibility (1/GPa) = 0.02355555
#
# Stress axis : x y z
#
# Youngs Moduli (GPa) = 53.24405 72.89407 68.24465
#
# Poissons Ratio (x) = -0.09548 0.62781
# Poissons Ratio (y) = -0.06974 0.26679
# Poissons Ratio (z) = 0.48981 0.28497
#
# Static dielectric constant tensor:
#      x y z
#    x 2.024620 0.000000 0.000000 
#    y 0.000000 2.131920 0.000000 
#    z 0.000000 0.000000 2.151210 
# 
# From -- ./inp_files/13500.got.cif
#   From: 2010.05.17/outbox.cif.g08.bks.cpg/sg20_7_cif.got.tgz:13500.got - 2010.06.03 22:52:26.
