data_PCOD9318679
_publ_section_title
;
Structure prediction by ZEFSAII (Michael W. Deem and Ramdas Pophale) SiO2 
 PCOD9318679
Probable space group: C 2 2 21
;
_chemical_formula_sum "Si O2"
_cell_formula_units_Z 48
_cell_length_a 9.049010
_cell_length_b 17.742839
_cell_length_c 13.217875
_cell_angle_alpha 90.000000
_cell_angle_beta 90.000000
_cell_angle_gamma 90.000000
_cell_volume 2122.197606
_symmetry_space_group_name_H-M "C 2 2 21"
_symmetry_group_IT_number 20
_symmetry_cell_setting 'orthorhombic'
loop_
_space_group_symop_operation_xyz
x,y,z
-x,-y,1/2+z
x,-y,-z
-x,y,1/2-z
1/2+x,1/2+y,z
1/2-x,1/2-y,1/2+z
1/2+x,1/2-y,-z
1/2-x,1/2+y,1/2-z
loop_
_atom_site_type_symbol
_atom_site_label
_atom_site_fract_x
_atom_site_fract_y
_atom_site_fract_z
Si Si1 0.646653 0.173454 0.688624
Si Si2 0.686848 0.240110 0.361151
Si Si3 0.169005 0.420813 0.748881
Si Si4 0.483338 0.283775 0.532097
Si Si5 0.436432 0.569448 0.139163
Si Si6 0.674308 0.537706 0.895098
O O1 0.500000 0.143303 0.750000
O O2 0.757516 0.205187 0.773252
O O3 0.579953 0.238544 0.616241
O O4 0.745948 0.116716 0.622215
O O5 0.677366 0.158207 0.310107
O O6 0.540280 0.263321 0.420992
O O7 0.816601 0.239227 0.444435
O O8 0.260905 0.418981 0.853265
O O9 0.253229 0.485867 0.690319
O O10 0.000000 0.441410 0.750000
O O11 0.499873 0.372244 0.557527
O O12 0.500000 0.595182 0.250000
O O13 0.500636 0.485604 0.119752
O O14 0.719394 0.500000 0.000000
#
# Coordination Sequence:
#
# PCOD9318679 Si02
#       6
#     8   8   8   8   8   8
#     4  10  22  43  69 101 146 182 232 300 351 410
#     4  11  23  40  69 102 140 183 236 296 343 418
#     4  11  23  44  68  95 135 193 228 276 358 424
#     4  11  21  41  68 101 140 180 232 291 353 405
#     4  10  20  44  67  88 138 187 218 279 358 414
#     4  11  23  44  70  98 136 184 232 296 360 417
#
# _framework density 22.618064
#
# number of rings (size 3 to 8) (size 9 to 14) (size 15 to 20)
#    0.000    1.333    5.000    2.000    2.333    0.000 
#    9.000    0.833    0.000    0.000    0.000    0.000 
#    0.000    0.000    0.000    0.000    0.000    0.000 
#
# Total GULP energy -134056.323306 kJ/mol
# GULP energy per Si atom -5585.680138 kJ/mol
# Density = 2.256658 g / cm^3
# Si number density = 22.618064 Si / 1000 Ang^3
#
#
#
# Elastic Constant Matrix: (Units=GPa)
#
#
# Indices 1 2 3 4 5 6 
#
# 1 102.4686 15.6217 13.1802 0.0000 0.0000 0.0000
# 2 15.6217 81.7529 15.6939 0.0000 0.0000 0.0000
# 3 13.1802 15.6939 49.0348 0.0000 0.0000 0.0000
# 4 0.0000 0.0000 0.0000 32.6475 0.0000 0.0000
# 5 0.0000 0.0000 0.0000 0.0000 36.5580 0.0000
# 6 0.0000 0.0000 0.0000 0.0000 0.0000 49.8637
#
#
#
# Elastic Compliance Matrix: (Units=1/GPa)
#
#
# Indices 1 2 3 4 5 6 
#
# 1 0.010285 -0.001528 -0.002275 0.000000 0.000000 0.000000
# 2 -0.001528 0.013260 -0.003833 0.000000 0.000000 0.000000
# 3 -0.002275 -0.003833 0.022232 0.000000 0.000000 0.000000
# 4 0.000000 0.000000 0.000000 0.030630 0.000000 0.000000
# 5 0.000000 0.000000 0.000000 0.000000 0.027354 0.000000
# 6 0.000000 0.000000 0.000000 0.000000 0.000000 0.020055
#
#
# Mechanical properties :
#
#
# Convention : Reuss Voigt Hill
#
# Bulk Modulus (GPa) = 32.78358 35.80531 34.29445
# Shear Modulus (GPa) = 33.49934 36.39787 34.94861
#
# Velocity S-wave (km/s) = 3.85267 4.01588 3.93512
# Velocity P-wave (km/s) = 5.85804 6.11293 5.98684
#
# Compressibility (1/GPa) = 0.03050307
#
# Stress axis : x y z
#
# Youngs Moduli (GPa) = 97.23118 75.41547 44.98015
#
# Poissons Ratio (x) = 0.11527 0.10234
# Poissons Ratio (y) = 0.14862 0.17241
# Poissons Ratio (z) = 0.22123 0.28907
#
# Static dielectric constant tensor:
#      x y z
#    x 1.982410 0.000000 0.000000 
#    y 0.000000 1.829910 0.000000 
#    z 0.000000 0.000000 1.833240 
# 
# From -- ./inp_files/18894.got.cif
#   From: 2010.05.17/outbox.cif.g08.bks.cpg/sg20_10_cif.got.tgz:18894.got - 2010.06.03 22:52:26.
