data_PCOD9318643
_publ_section_title
;
Structure prediction by ZEFSAII (Michael W. Deem and Ramdas Pophale) SiO2 
 PCOD9318643
Probable space group: C 2 2 21
;
_chemical_formula_sum "Si O2"
_cell_formula_units_Z 52
_cell_length_a 23.181578
_cell_length_b 9.530949
_cell_length_c 8.940789
_cell_angle_alpha 90.000000
_cell_angle_beta 90.000000
_cell_angle_gamma 90.000000
_cell_volume 1975.399716
_symmetry_space_group_name_H-M "C 2 2 21"
_symmetry_group_IT_number 20
_symmetry_cell_setting 'orthorhombic'
loop_
_space_group_symop_operation_xyz
x,y,z
-x,-y,1/2+z
x,-y,-z
-x,y,1/2-z
1/2+x,1/2+y,z
1/2-x,1/2-y,1/2+z
1/2+x,1/2-y,-z
1/2-x,1/2+y,1/2-z
loop_
_atom_site_type_symbol
_atom_site_label
_atom_site_fract_x
_atom_site_fract_y
_atom_site_fract_z
Si Si1 0.287024 0.267257 0.219295
Si Si2 0.822461 0.781251 0.568103
Si Si3 0.089238 0.432403 0.173920
Si Si4 0.811801 0.000000 0.000000
Si Si5 0.468740 0.794732 0.077937
Si Si6 0.085373 0.729526 0.272615
Si Si7 0.406766 0.444472 0.760442
O O1 0.230968 0.179073 0.176762
O O2 0.299637 0.291444 0.396484
O O3 0.349223 0.214380 0.164629
O O4 0.276425 0.399296 0.108644
O O5 0.851566 0.632040 0.613351
O O6 0.877505 0.877230 0.613860
O O7 0.080808 0.392377 0.348539
O O8 0.030919 0.357657 0.115331
O O9 0.083640 0.400994 0.839455
O O10 0.856218 0.930379 0.884202
O O11 0.456018 0.643097 0.152839
O O12 0.460487 0.788889 0.902548
O O13 0.080330 0.892853 0.228729
#
# Coordination Sequence:
#
# PCOD9318643 Si02
#       7
#     8   8   8   4   8   8   8
#     4  11  25  46  84 120 165 221 275 342 419 498
#     4  11  26  48  78 121 167 220 274 342 417 506
#     4  10  25  45  74 113 168 208 278 339 425 504
#     4  10  20  42  78 114 156 200 274 348 396 496
#     4  10  20  48  77 110 159 218 263 349 420 506
#     4  11  23  45  80 117 155 218 274 343 418 494
#     4  10  20  44  84 113 160 210 282 336 420 501
#
# _framework density 26.323785999999998
#
# number of rings (size 3 to 8) (size 9 to 14) (size 15 to 20)
#    0.000    1.538    3.077    1.385    2.154    6.769 
#   13.846    6.154   33.846    0.000    0.000    0.000 
#    0.000    0.000    0.000    0.000    0.000    0.000 
#
# Total GULP energy -145238.445196 kJ/mol
# GULP energy per Si atom -5586.094046 kJ/mol
# Density = 2.626387 g / cm^3
# Si number density = 26.323786 Si / 1000 Ang^3
#
#
#
# Elastic Constant Matrix: (Units=GPa)
#
#
# Indices 1 2 3 4 5 6 
#
# 1 127.5439 52.3484 29.5493 0.0000 0.0000 0.0000
# 2 52.3484 165.4331 33.1281 0.0000 0.0000 0.0000
# 3 29.5493 33.1281 138.5581 0.0000 0.0000 0.0000
# 4 0.0000 0.0000 0.0000 41.2815 0.0000 0.0000
# 5 0.0000 0.0000 0.0000 0.0000 43.1839 0.0000
# 6 0.0000 0.0000 0.0000 0.0000 0.0000 22.5843
#
#
#
# Elastic Compliance Matrix: (Units=1/GPa)
#
#
# Indices 1 2 3 4 5 6 
#
# 1 0.009240 -0.002656 -0.001335 0.000000 0.000000 0.000000
# 2 -0.002656 0.007112 -0.001134 0.000000 0.000000 0.000000
# 3 -0.001335 -0.001134 0.007773 0.000000 0.000000 0.000000
# 4 0.000000 0.000000 0.000000 0.024224 0.000000 0.000000
# 5 0.000000 0.000000 0.000000 0.000000 0.023157 0.000000
# 6 0.000000 0.000000 0.000000 0.000000 0.000000 0.044278
#
#
# Mechanical properties :
#
#
# Convention : Reuss Voigt Hill
#
# Bulk Modulus (GPa) = 72.07791 73.50965 72.79378
# Shear Modulus (GPa) = 38.26689 42.51056 40.38873
#
# Velocity S-wave (km/s) = 3.81688 4.02295 3.92127
# Velocity P-wave (km/s) = 6.84584 7.04022 6.94371
#
# Compressibility (1/GPa) = 0.01387388
#
# Stress axis : x y z
#
# Youngs Moduli (GPa) = 108.22357 140.59922 128.64852
#
# Poissons Ratio (x) = 0.37350 0.17180
# Poissons Ratio (y) = 0.28749 0.14589
# Poissons Ratio (z) = 0.14453 0.15944
#
# Static dielectric constant tensor:
#      x y z
#    x 2.114350 0.000000 0.000000 
#    y 0.000000 2.196900 0.000000 
#    z 0.000000 0.000000 2.171410 
# 
# From -- ./inp_files/10722.got.cif
#   From: 2010.05.17/outbox.cif.g08.bks.cpg/sg20_6_cif.got.tgz:10722.got - 2010.06.03 22:52:26.
