data_PCOD9318086
_publ_section_title
;
Structure prediction by ZEFSAII (Michael W. Deem and Ramdas Pophale) SiO2 
 PCOD9318086
Probable space group: C 2 2 21
;
_chemical_formula_sum "Si O2"
_cell_formula_units_Z 32
_cell_length_a 27.206647
_cell_length_b 11.712465
_cell_length_c 5.214385
_cell_angle_alpha 90.000000
_cell_angle_beta 90.000000
_cell_angle_gamma 90.000000
_cell_volume 1661.599763
_symmetry_space_group_name_H-M "C 2 2 21"
_symmetry_group_IT_number 20
_symmetry_cell_setting 'orthorhombic'
loop_
_space_group_symop_operation_xyz
x,y,z
-x,-y,1/2+z
x,-y,-z
-x,y,1/2-z
1/2+x,1/2+y,z
1/2-x,1/2-y,1/2+z
1/2+x,1/2-y,-z
1/2-x,1/2+y,1/2-z
loop_
_atom_site_type_symbol
_atom_site_label
_atom_site_fract_x
_atom_site_fract_y
_atom_site_fract_z
Si Si1 0.798348 0.610386 0.337615
Si Si2 0.299192 0.344104 0.589588
Si Si3 0.968695 0.137694 0.996873
Si Si4 0.857061 0.801870 0.100416
O O1 0.812150 0.500000 0.500000
O O2 0.750670 0.592592 0.162627
O O3 0.783517 0.712262 0.534003
O O4 0.840686 0.672130 0.171259
O O5 0.332895 0.371692 0.341052
O O6 0.331816 0.343580 0.842089
O O7 0.000000 0.169761 0.250000
O O8 0.914552 0.187035 0.950894
O O9 0.000000 0.169854 0.750000
O O10 0.963166 0.000000 0.000000
#
# Coordination Sequence:
#
# PCOD9318086 Si02
#       4
#     8   8   8   8
#     4  10  21  38  59  84 125 165 199 244 293 350
#     4  10  20  38  54  87 122 157 203 235 290 353
#     4  10  21  38  61  88 117 155 196 248 315 362
#     4  10  20  38  56  85 121 154 202 246 295 356
#
# _framework density 19.258545999999999
#
# number of rings (size 3 to 8) (size 9 to 14) (size 15 to 20)
#    1.500    0.500    2.500    1.500    0.000    2.000 
#    0.000    5.000    0.000    0.000    6.500    0.000 
#    0.000    0.000    0.000    0.000    0.000    0.000 
#
# Total GULP energy -89179.719247 kJ/mol
# GULP energy per Si atom -5573.732453 kJ/mol
# Density = 1.921471 g / cm^3
# Si number density = 19.258546 Si / 1000 Ang^3
#
#
#
# Elastic Constant Matrix: (Units=GPa)
#
#
# Indices 1 2 3 4 5 6 
#
# 1 203.9132 41.5265 98.9513 0.0000 0.0000 0.0000
# 2 41.5265 50.4208 42.0061 0.0000 0.0000 0.0000
# 3 98.9513 42.0061 190.0724 0.0000 0.0000 0.0000
# 4 0.0000 0.0000 0.0000 12.0967 0.0000 0.0000
# 5 0.0000 0.0000 0.0000 0.0000 27.3629 0.0000
# 6 0.0000 0.0000 0.0000 0.0000 0.0000 8.9662
#
#
#
# Elastic Compliance Matrix: (Units=1/GPa)
#
#
# Indices 1 2 3 4 5 6 
#
# 1 0.006993 -0.003342 -0.002902 0.000000 0.000000 0.000000
# 2 -0.003342 0.025906 -0.003986 0.000000 0.000000 0.000000
# 3 -0.002902 -0.003986 0.007653 0.000000 0.000000 0.000000
# 4 0.000000 0.000000 0.000000 0.082667 0.000000 0.000000
# 5 0.000000 0.000000 0.000000 0.000000 0.036546 0.000000
# 6 0.000000 0.000000 0.000000 0.000000 0.000000 0.111530
#
#
# Mechanical properties :
#
#
# Convention : Reuss Voigt Hill
#
# Bulk Modulus (GPa) = 49.76871 89.93049 69.84960
# Shear Modulus (GPa) = 16.75328 27.14668 21.94998
#
# Velocity S-wave (km/s) = 2.95263 3.75853 3.37968
# Velocity P-wave (km/s) = 6.12556 8.10143 7.18177
#
# Compressibility (1/GPa) = 0.02009295
#
# Stress axis : x y z
#
# Youngs Moduli (GPa) = 143.00539 38.60172 130.67300
#
# Poissons Ratio (x) = 0.12899 0.37920
# Poissons Ratio (y) = 0.47787 0.52080
# Poissons Ratio (z) = 0.41499 0.15385
#
# Static dielectric constant tensor:
#      x y z
#    x 1.684060 0.000000 0.000000 
#    y 0.000000 1.748820 0.000000 
#    z 0.000000 0.000000 1.699880 
# 
# From -- ./inp_files/1129.got.cif
#   From: 2010.05.17/outbox.cif.g08.bks.cpg/sg20_1_cif.got.tgz:1129.got - 2010.06.03 22:52:26.
