data_PCOD9318513
_publ_section_title
;
Structure prediction by ZEFSAII (Michael W. Deem and Ramdas Pophale) SiO2 
 PCOD9318513
Probable space group: C 2 2 21
;
_chemical_formula_sum "Si O2"
_cell_formula_units_Z 28
_cell_length_a 13.683124
_cell_length_b 18.831323
_cell_length_c 4.901952
_cell_angle_alpha 90.000000
_cell_angle_beta 90.000000
_cell_angle_gamma 90.000000
_cell_volume 1263.092480
_symmetry_space_group_name_H-M "C 2 2 21"
_symmetry_group_IT_number 20
_symmetry_cell_setting 'orthorhombic'
loop_
_space_group_symop_operation_xyz
x,y,z
-x,-y,1/2+z
x,-y,-z
-x,y,1/2-z
1/2+x,1/2+y,z
1/2-x,1/2-y,1/2+z
1/2+x,1/2-y,-z
1/2-x,1/2+y,1/2-z
loop_
_atom_site_type_symbol
_atom_site_label
_atom_site_fract_x
_atom_site_fract_y
_atom_site_fract_z
Si Si1 0.754638 0.922128 0.548519
Si Si2 0.308848 0.723700 0.675542
Si Si3 0.383478 0.921482 0.445678
Si Si4 0.000000 0.693332 0.250000
O O1 0.817418 0.855471 0.446658
O O2 0.658803 0.918740 0.356514
O O3 0.799355 0.000000 0.500000
O O4 0.711206 0.916288 0.851628
O O5 0.270762 0.768973 0.415834
O O6 0.407303 0.756178 0.801599
O O7 0.458179 0.860306 0.523949
O O8 0.425151 0.000000 0.500000
#
# Coordination Sequence:
#
# PCOD9318513 Si02
#       4
#     8   8   8   4
#     4  10  20  41  63  87 129 174 217 269 327 390
#     4  12  24  42  63  97 135 173 224 274 335 400
#     4  10  22  37  61  94 128 168 213 268 337 400
#     4  12  24  40  68  98 138 176 218 280 336 406
#
# _framework density 22.167815000000001
#
# number of rings (size 3 to 8) (size 9 to 14) (size 15 to 20)
#    0.000    1.143    5.714    0.000    0.000    8.000 
#    0.000    0.000    0.000    8.571    0.000    0.000 
#    0.000    0.000    0.000    0.000    0.000    0.000 
#
# Total GULP energy -78264.866609 kJ/mol
# GULP energy per Si atom -5590.347615 kJ/mol
# Density = 2.211736 g / cm^3
# Si number density = 22.167815 Si / 1000 Ang^3
#
#
#
# Elastic Constant Matrix: (Units=GPa)
#
#
# Indices 1 2 3 4 5 6 
#
# 1 67.0313 41.9947 -10.2539 0.0000 0.0000 0.0000
# 2 41.9947 192.2913 -2.9528 0.0000 0.0000 0.0000
# 3 -10.2539 -2.9528 57.6037 0.0000 0.0000 0.0000
# 4 0.0000 0.0000 0.0000 29.3879 0.0000 0.0000
# 5 0.0000 0.0000 0.0000 0.0000 26.5092 0.0000
# 6 0.0000 0.0000 0.0000 0.0000 0.0000 46.3018
#
#
#
# Elastic Compliance Matrix: (Units=1/GPa)
#
#
# Indices 1 2 3 4 5 6 
#
# 1 0.017776 -0.003837 0.002968 0.000000 0.000000 0.000000
# 2 -0.003837 0.006033 -0.000374 0.000000 0.000000 0.000000
# 3 0.002968 -0.000374 0.017869 0.000000 0.000000 0.000000
# 4 0.000000 0.000000 0.000000 0.034028 0.000000 0.000000
# 5 0.000000 0.000000 0.000000 0.000000 0.037723 0.000000
# 6 0.000000 0.000000 0.000000 0.000000 0.000000 0.021597
#
#
# Mechanical properties :
#
#
# Convention : Reuss Voigt Hill
#
# Bulk Modulus (GPa) = 25.51522 41.61138 33.56330
# Shear Modulus (GPa) = 33.20611 39.64901 36.42756
#
# Velocity S-wave (km/s) = 3.87452 4.23375 4.05812
# Velocity P-wave (km/s) = 5.61702 6.53540 6.09353
#
# Compressibility (1/GPa) = 0.03919229
#
# Stress axis : x y z
#
# Youngs Moduli (GPa) = 56.25592 165.76690 55.96250
#
# Poissons Ratio (x) = 0.63597 -0.16607
# Poissons Ratio (y) = 0.21583 0.02091
# Poissons Ratio (z) = -0.16694 0.06195
#
# Static dielectric constant tensor:
#      x y z
#    x 1.821000 0.000000 0.000000 
#    y 0.000000 1.910550 0.000000 
#    z 0.000000 0.000000 1.807520 
# 
# From -- ./inp_files/1702.got.cif
#   From: 2010.05.17/outbox.cif.g08.bks.cpg/sg20_1_cif.got.tgz:1702.got - 2010.06.03 22:52:26.
