data_PCOD9318005
_publ_section_title
;
Structure prediction by ZEFSAII (Michael W. Deem and Ramdas Pophale) SiO2 
 PCOD9318005
Probable space group: C 2 2 21
;
_chemical_formula_sum "Si O2"
_cell_formula_units_Z 52
_cell_length_a 15.721460
_cell_length_b 13.858166
_cell_length_c 8.932492
_cell_angle_alpha 90.000000
_cell_angle_beta 90.000000
_cell_angle_gamma 90.000000
_cell_volume 1946.127413
_symmetry_space_group_name_H-M "C 2 2 21"
_symmetry_group_IT_number 20
_symmetry_cell_setting 'orthorhombic'
loop_
_space_group_symop_operation_xyz
x,y,z
-x,-y,1/2+z
x,-y,-z
-x,y,1/2-z
1/2+x,1/2+y,z
1/2-x,1/2-y,1/2+z
1/2+x,1/2-y,-z
1/2-x,1/2+y,1/2-z
loop_
_atom_site_type_symbol
_atom_site_label
_atom_site_fract_x
_atom_site_fract_y
_atom_site_fract_z
Si Si1 0.839771 0.592914 0.295059
Si Si2 0.674103 0.511163 0.243055
Si Si3 0.612428 0.000000 0.500000
Si Si4 0.866920 0.220423 0.344354
Si Si5 0.000000 0.517981 0.750000
Si Si6 0.186118 0.797195 0.277589
Si Si7 0.963617 0.788982 0.974575
Si Si8 0.537772 0.500000 0.500000
O O1 0.757600 0.534290 0.341784
O O2 0.931028 0.549918 0.334040
O O3 0.824567 0.703748 0.325114
O O4 0.839726 0.570264 0.112876
O O5 0.660326 0.606642 0.143610
O O6 0.684842 0.400073 0.195238
O O7 0.594427 0.505576 0.352291
O O8 0.556454 0.062311 0.618167
O O9 0.945835 0.261703 0.441915
O O10 0.780259 0.282404 0.347127
O O11 0.907505 0.220239 0.175638
O O12 0.105744 0.783263 0.391670
O O13 0.003287 0.896403 0.001443
#
# Coordination Sequence:
#
# PCOD9318005 Si02
#       8
#     8   8   4   8   4   8   8   4
#     4   9  19  37  57  88 130 167 221 273 321 411
#     4   9  18  35  60  86 121 168 212 271 344 393
#     4   8  18  37  61  84 128 176 212 276 329 397
#     4   9  19  38  61  89 127 170 214 275 337 411
#     4   8  18  38  60  90 120 176 218 270 340 398
#     4  10  20  37  60  96 131 167 222 280 333 404
#     4   9  18  37  60  87 126 165 215 269 333 408
#     4   8  16  33  57  82 112 156 210 264 321 405
#
# _framework density 26.719732
#
# number of rings (size 3 to 8) (size 9 to 14) (size 15 to 20)
#    0.923    2.154    0.000    0.000    0.000    1.846 
#    2.769   13.846    0.000    0.000    0.000    0.000 
#    0.000    0.000    0.000    0.000    0.000    0.000 
#
# Total GULP energy -144822.813873 kJ/mol
# GULP energy per Si atom -5570.108226 kJ/mol
# Density = 2.665892 g / cm^3
# Si number density = 26.719732 Si / 1000 Ang^3
#
#
#
# Elastic Constant Matrix: (Units=GPa)
#
#
# Indices 1 2 3 4 5 6 
#
# 1 184.2404 19.4374 38.9328 0.0000 0.0000 0.0000
# 2 19.4374 140.9430 20.8462 0.0000 0.0000 0.0000
# 3 38.9328 20.8462 90.9136 0.0000 0.0000 0.0000
# 4 0.0000 0.0000 0.0000 -3.4271 0.0000 0.0000
# 5 0.0000 0.0000 0.0000 0.0000 -137.6077 0.0000
# 6 0.0000 0.0000 0.0000 0.0000 0.0000 -0.1411
#
#
#
# Elastic Compliance Matrix: (Units=1/GPa)
#
#
# Indices 1 2 3 4 5 6 
#
# 1 0.005997 -0.000463 -0.002462 0.000000 0.000000 0.000000
# 2 -0.000463 0.007380 -0.001494 0.000000 0.000000 0.000000
# 3 -0.002462 -0.001494 0.012396 0.000000 0.000000 0.000000
# 4 0.000000 0.000000 0.000000 -0.291794 0.000000 0.000000
# 5 0.000000 0.000000 0.000000 0.000000 -0.007267 0.000000
# 6 0.000000 0.000000 0.000000 0.000000 0.000000 -7.086873
#
#
# Mechanical properties :
#
#
# Convention : Reuss Voigt Hill
#
# Bulk Modulus (GPa) = 59.04782 63.83665 61.44223
# Shear Modulus (GPa) = -0.68067 -5.77648 -3.22857
#
# Velocity S-wave (km/s) = -0.50527 -1.47193 -1.10042
# Velocity P-wave (km/s) = 4.66975 4.58850 4.62930
#
# Compressibility (1/GPa) = 0.01693543
#
# Stress axis : x y z
#
# Youngs Moduli (GPa) = 166.75660 135.50377 80.66925
#
# Poissons Ratio (x) = 0.06272 0.19860
# Poissons Ratio (y) = 0.07719 0.12052
# Poissons Ratio (z) = 0.41054 0.20244
#
# Static dielectric constant tensor:
#      x y z
#    x 2.099840 0.000000 0.000000 
#    y 0.000000 2.167900 0.000000 
#    z 0.000000 0.000000 2.124820 
# 
# From -- ./inp_files/21439.got.cif
#   From: 2010.05.17/outbox.cif.g08.bks.cpg/sg20_11_cif.got.tgz:21439.got - 2010.06.03 22:52:26.
