data_PCOD9318395
_publ_section_title
;
Structure prediction by ZEFSAII (Michael W. Deem and Ramdas Pophale) SiO2 
 PCOD9318395
Probable space group: C 2 2 21
;
_chemical_formula_sum "Si O2"
_cell_formula_units_Z 48
_cell_length_a 13.026988
_cell_length_b 20.631938
_cell_length_c 8.399480
_cell_angle_alpha 90.000000
_cell_angle_beta 90.000000
_cell_angle_gamma 90.000000
_cell_volume 2257.545112
_symmetry_space_group_name_H-M "C 2 2 21"
_symmetry_group_IT_number 20
_symmetry_cell_setting 'orthorhombic'
loop_
_space_group_symop_operation_xyz
x,y,z
-x,-y,1/2+z
x,-y,-z
-x,y,1/2-z
1/2+x,1/2+y,z
1/2-x,1/2-y,1/2+z
1/2+x,1/2-y,-z
1/2-x,1/2+y,1/2-z
loop_
_atom_site_type_symbol
_atom_site_label
_atom_site_fract_x
_atom_site_fract_y
_atom_site_fract_z
Si Si1 0.879645 0.080813 0.755685
Si Si2 0.608638 0.245144 0.664755
Si Si3 0.128297 0.605182 0.106615
Si Si4 0.237825 0.000000 0.000000
Si Si5 0.267943 0.692958 0.883043
Si Si6 0.601826 0.883646 0.540840
Si Si7 0.730893 0.500000 0.500000
O O1 0.838314 0.026499 0.635793
O O2 0.822727 0.149786 0.747162
O O3 0.000000 0.088749 0.750000
O O4 0.841937 0.053109 0.923876
O O5 0.500000 0.261246 0.750000
O O6 0.646731 0.286070 0.512014
O O7 0.699600 0.247046 0.795527
O O8 0.603220 0.172369 0.591174
O O9 0.121208 0.639874 0.277463
O O10 0.193634 0.538926 0.117916
O O11 0.014073 0.589415 0.047526
O O12 0.184184 0.650275 0.978627
O O13 0.314252 0.939006 0.982953
#
# Coordination Sequence:
#
# PCOD9318395 Si02
#       7
#     8   8   8   4   8   8   4
#     4  11  24  43  65  97 133 185 230 282 344 419
#     4  12  25  47  71 104 138 189 240 295 357 424
#     4  10  21  40  64 101 136 177 218 285 360 419
#     4  12  22  42  70 102 136 178 234 292 354 424
#     4  11  25  45  69  97 143 179 236 293 346 420
#     4  11  22  40  69 103 134 175 226 290 361 426
#     4  10  20  40  62  94 142 168 222 286 340 416
#
# _framework density 21.262032999999999
#
# number of rings (size 3 to 8) (size 9 to 14) (size 15 to 20)
#    0.000    1.000    5.000    2.000    0.000    1.333 
#    9.000    1.667    0.000    0.000    0.000    0.000 
#    0.000    0.000    0.000    0.000    0.000    0.000 
#
# Total GULP energy -133881.904116 kJ/mol
# GULP energy per Si atom -5578.412671 kJ/mol
# Density = 2.121364 g / cm^3
# Si number density = 21.262033 Si / 1000 Ang^3
#
#
#
# Elastic Constant Matrix: (Units=GPa)
#
#
# Indices 1 2 3 4 5 6 
#
# 1 162.1673 25.7697 35.6793 0.0000 0.0000 0.0000
# 2 25.7697 33.4199 3.9956 0.0000 0.0000 0.0000
# 3 35.6793 3.9956 57.4562 0.0000 0.0000 0.0000
# 4 0.0000 0.0000 0.0000 38.7225 0.0000 0.0000
# 5 0.0000 0.0000 0.0000 0.0000 33.3307 0.0000
# 6 0.0000 0.0000 0.0000 0.0000 0.0000 29.4237
#
#
#
# Elastic Compliance Matrix: (Units=1/GPa)
#
#
# Indices 1 2 3 4 5 6 
#
# 1 0.008088 -0.005683 -0.004627 0.000000 0.000000 0.000000
# 2 -0.005683 0.034167 0.001153 0.000000 0.000000 0.000000
# 3 -0.004627 0.001153 0.020198 0.000000 0.000000 0.000000
# 4 0.000000 0.000000 0.000000 0.025825 0.000000 0.000000
# 5 0.000000 0.000000 0.000000 0.000000 0.030002 0.000000
# 6 0.000000 0.000000 0.000000 0.000000 0.000000 0.033986
#
#
# Mechanical properties :
#
#
# Convention : Reuss Voigt Hill
#
# Bulk Modulus (GPa) = 22.65630 42.65917 32.65774
# Shear Modulus (GPa) = 26.98448 32.80197 29.89323
#
# Velocity S-wave (km/s) = 3.56636 3.93205 3.75366
# Velocity P-wave (km/s) = 5.25714 6.38136 5.84633
#
# Compressibility (1/GPa) = 0.04413783
#
# Stress axis : x y z
#
# Youngs Moduli (GPa) = 123.64651 29.26841 49.51062
#
# Poissons Ratio (x) = 0.16633 0.22909
# Poissons Ratio (y) = 0.70269 -0.05709
# Poissons Ratio (z) = 0.57212 -0.03375
#
# Static dielectric constant tensor:
#      x y z
#    x 1.735230 0.000000 0.000000 
#    y 0.000000 1.797490 0.000000 
#    z 0.000000 0.000000 1.824550 
# 
# From -- ./inp_files/7438.got.cif
#   From: 2010.05.17/outbox.cif.g08.bks.cpg/sg20_4_cif.got.tgz:7438.got - 2010.06.03 22:52:26.
