data_PCOD9318207
_publ_section_title
;
Structure prediction by ZEFSAII (Michael W. Deem and Ramdas Pophale) SiO2 
 PCOD9318207
Probable space group: C 2 2 21
;
_chemical_formula_sum "Si O2"
_cell_formula_units_Z 60
_cell_length_a 9.472506
_cell_length_b 25.137356
_cell_length_c 10.956804
_cell_angle_alpha 90.000000
_cell_angle_beta 90.000000
_cell_angle_gamma 90.000000
_cell_volume 2608.965749
_symmetry_space_group_name_H-M "C 2 2 21"
_symmetry_group_IT_number 20
_symmetry_cell_setting 'orthorhombic'
loop_
_space_group_symop_operation_xyz
x,y,z
-x,-y,1/2+z
x,-y,-z
-x,y,1/2-z
1/2+x,1/2+y,z
1/2-x,1/2-y,1/2+z
1/2+x,1/2-y,-z
1/2-x,1/2+y,1/2-z
loop_
_atom_site_type_symbol
_atom_site_label
_atom_site_fract_x
_atom_site_fract_y
_atom_site_fract_z
Si Si1 0.561793 0.286986 0.116404
Si Si2 0.175623 0.969936 0.390089
Si Si3 0.661918 0.881547 0.017275
Si Si4 0.675216 0.279796 0.554302
Si Si5 0.734006 0.427000 0.746056
Si Si6 0.000000 0.846884 0.750000
Si Si7 0.122338 0.562153 0.495767
Si Si8 0.920277 0.088567 0.615316
O O1 0.500000 0.282033 0.250000
O O2 0.716530 0.263068 0.104735
O O3 0.564536 0.349522 0.084537
O O4 0.447599 0.257823 0.031643
O O5 0.263166 0.915770 0.375487
O O6 0.031402 0.949078 0.452592
O O7 0.254799 0.000000 0.500000
O O8 0.174977 0.013821 0.284493
O O9 0.727195 0.822624 0.018459
O O10 0.709361 0.902211 0.881177
O O11 0.498323 0.895702 0.030908
O O12 0.587877 0.310363 0.658557
O O13 0.614948 0.388125 0.801066
O O14 0.846552 0.429566 0.852621
O O15 0.080022 0.500000 0.500000
O O16 0.263234 0.570839 0.578356
O O17 0.000000 0.081944 0.750000
#
# Coordination Sequence:
#
# PCOD9318207 Si02
#       8
#     8   8   8   8   8   4   8   8
#     4  11  27  47  74 104 137 184 239 301 365 431
#     4  10  20  38  64  90 138 182 220 277 342 415
#     4  10  23  43  63  98 141 180 224 292 355 419
#     4  11  25  48  76 103 143 182 241 302 365 426
#     4  10  22  37  66  97 139 179 235 286 342 426
#     4  10  24  42  70 110 134 182 236 290 362 420
#     4  12  24  37  64 101 136 186 237 282 355 417
#     4  11  24  43  63  95 137 180 233 289 342 427
#
# _framework density 22.997620999999999
#
# number of rings (size 3 to 8) (size 9 to 14) (size 15 to 20)
#    0.000    1.333    1.333    3.600   10.267    2.133 
#    0.000    2.000    0.000    0.000    0.000    0.000 
#    0.000    0.000    0.000    0.000    0.000    0.000 
#
# Total GULP energy -167400.270302 kJ/mol
# GULP energy per Si atom -5580.009010 kJ/mol
# Density = 2.294528 g / cm^3
# Si number density = 22.997621 Si / 1000 Ang^3
#
#
#
# Elastic Constant Matrix: (Units=GPa)
#
#
# Indices 1 2 3 4 5 6 
#
# 1 156.6970 30.4820 31.6310 0.0000 0.0000 0.0000
# 2 30.4820 64.5513 17.9152 0.0000 0.0000 0.0000
# 3 31.6310 17.9152 68.3244 0.0000 0.0000 0.0000
# 4 0.0000 0.0000 0.0000 31.4023 0.0000 0.0000
# 5 0.0000 0.0000 0.0000 0.0000 30.7350 0.0000
# 6 0.0000 0.0000 0.0000 0.0000 0.0000 29.2297
#
#
#
# Elastic Compliance Matrix: (Units=1/GPa)
#
#
# Indices 1 2 3 4 5 6 
#
# 1 0.007472 -0.002770 -0.002733 0.000000 0.000000 0.000000
# 2 -0.002770 0.017734 -0.003368 0.000000 0.000000 0.000000
# 3 -0.002733 -0.003368 0.016784 0.000000 0.000000 0.000000
# 4 0.000000 0.000000 0.000000 0.031845 0.000000 0.000000
# 5 0.000000 0.000000 0.000000 0.000000 0.032536 0.000000
# 6 0.000000 0.000000 0.000000 0.000000 0.000000 0.034212
#
#
# Mechanical properties :
#
#
# Convention : Reuss Voigt Hill
#
# Bulk Modulus (GPa) = 41.23800 49.95881 45.59841
# Shear Modulus (GPa) = 30.04662 32.24304 31.14483
#
# Velocity S-wave (km/s) = 3.61849 3.74841 3.68402
# Velocity P-wave (km/s) = 5.95217 6.36434 6.16170
#
# Compressibility (1/GPa) = 0.02424948
#
# Stress axis : x y z
#
# Youngs Moduli (GPa) = 133.82812 56.38811 59.57938
#
# Poissons Ratio (x) = 0.15620 0.16283
# Poissons Ratio (y) = 0.37071 0.20064
# Poissons Ratio (z) = 0.36575 0.18990
#
# Static dielectric constant tensor:
#      x y z
#    x 1.907940 0.000000 0.000000 
#    y 0.000000 1.874990 0.000000 
#    z 0.000000 0.000000 2.083570 
# 
# From -- ./inp_files/13298.got.cif
#   From: 2010.05.17/outbox.cif.g08.bks.cpg/sg20_7_cif.got.tgz:13298.got - 2010.06.03 22:52:26.
