data_PCOD9318930
_publ_section_title
;
Structure prediction by ZEFSAII (Michael W. Deem and Ramdas Pophale) SiO2 
 PCOD9318930
Probable space group: C 2 2 21
;
_chemical_formula_sum "Si O2"
_cell_formula_units_Z 48
_cell_length_a 9.571914
_cell_length_b 17.639847
_cell_length_c 13.752203
_cell_angle_alpha 90.000000
_cell_angle_beta 90.000000
_cell_angle_gamma 90.000000
_cell_volume 2322.019574
_symmetry_space_group_name_H-M "C 2 2 21"
_symmetry_group_IT_number 20
_symmetry_cell_setting 'orthorhombic'
loop_
_space_group_symop_operation_xyz
x,y,z
-x,-y,1/2+z
x,-y,-z
-x,y,1/2-z
1/2+x,1/2+y,z
1/2-x,1/2-y,1/2+z
1/2+x,1/2-y,-z
1/2-x,1/2+y,1/2-z
loop_
_atom_site_type_symbol
_atom_site_label
_atom_site_fract_x
_atom_site_fract_y
_atom_site_fract_z
Si Si1 0.645890 0.705838 0.115005
Si Si2 0.096811 0.915971 0.386398
Si Si3 0.903189 0.084029 0.113602
Si Si4 0.149885 0.640202 0.236575
Si Si5 0.649885 0.859798 0.236575
Si Si6 0.145890 0.794162 0.115005
O O1 0.515563 0.649645 0.132564
O O2 0.782071 0.667076 0.162101
O O3 0.625179 0.784227 0.171722
O O4 0.661072 0.717773 1.000000
O O5 0.137056 0.909601 0.500000
O O6 0.231490 0.905895 0.319657
O O7 0.984437 0.850355 0.367436
O O8 0.034878 1.000000 0.371971
O O9 0.768510 0.094105 0.180343
O O10 0.125179 0.715772 0.171722
O O11 0.000000 0.602347 0.250000
O O12 0.500000 0.897653 0.250000
O O13 0.717930 0.832924 0.337899
#
# Coordination Sequence:
#
# PCOD9318930 Si02
#       6
#     8   8   8   8   8   8
#     4  10  21  38  59  84 116 155 197 236 279 340
#     4  10  22  41  63  85 113 153 197 238 283 340
#     4  10  22  41  63  85 113 153 197 238 283 340
#     4  11  22  35  57  88 119 151 188 237 293 342
#     4  11  22  35  57  88 119 151 188 237 293 342
#     4  10  21  38  59  84 116 155 197 236 279 340
#
# _framework density 20.671661
#
# number of rings (size 3 to 8) (size 9 to 14) (size 15 to 20)
#    0.000    1.667    0.000    6.000    0.000    8.667 
#    0.000    0.000    0.000    4.000    0.000    0.000 
#    0.000    0.000    0.000    0.000    0.000    0.000 
#
# Total GULP energy -134232.477484 kJ/mol
# GULP energy per Si atom -5593.019895 kJ/mol
# Density = 2.062461 g / cm^3
# Si number density = 20.671661 Si / 1000 Ang^3
#
#
#
# Elastic Constant Matrix: (Units=GPa)
#
#
# Indices 1 2 3 4 5 6 
#
# 1 102.2981 3.7081 39.7378 0.0000 0.0000 0.0000
# 2 3.7081 75.5913 13.1076 0.0000 0.0000 0.0000
# 3 39.7378 13.1076 126.4677 0.0000 0.0000 0.0000
# 4 0.0000 0.0000 0.0000 -78.7993 0.0000 0.0000
# 5 0.0000 0.0000 0.0000 0.0000 22.1143 0.0000
# 6 0.0000 0.0000 0.0000 0.0000 0.0000 28.2500
#
#
#
# Elastic Compliance Matrix: (Units=1/GPa)
#
#
# Indices 1 2 3 4 5 6 
#
# 1 0.011135 0.000062 -0.003505 0.000000 0.000000 0.000000
# 2 0.000062 0.013471 -0.001416 0.000000 0.000000 0.000000
# 3 -0.003505 -0.001416 0.009155 0.000000 0.000000 0.000000
# 4 0.000000 0.000000 0.000000 -0.012690 0.000000 0.000000
# 5 0.000000 0.000000 0.000000 0.000000 0.045220 0.000000
# 6 0.000000 0.000000 0.000000 0.000000 0.000000 0.035398
#
#
# Mechanical properties :
#
#
# Convention : Reuss Voigt Hill
#
# Bulk Modulus (GPa) = 41.59172 46.38490 43.98831
# Shear Modulus (GPa) = 41.86859 10.83324 26.35091
#
# Velocity S-wave (km/s) = 4.50534 2.29172 3.57422
# Velocity P-wave (km/s) = 6.87226 5.43049 6.19347
#
# Compressibility (1/GPa) = 0.02404325
#
# Stress axis : x y z
#
# Youngs Moduli (GPa) = 89.80974 74.23090 109.22752
#
# Poissons Ratio (x) = -0.00457 0.38285
# Poissons Ratio (y) = -0.00553 0.15462
# Poissons Ratio (z) = 0.31479 0.10508
#
# Static dielectric constant tensor:
#      x y z
#    x 1.733570 0.000000 0.000000 
#    y 0.000000 1.727610 0.000000 
#    z 0.000000 0.000000 1.731960 
# 
# From -- ./inp_files/19035.got.cif
#   From: 2010.05.17/outbox.cif.g08.bks.cpg/sg20_10_cif.got.tgz:19035.got - 2010.06.03 22:52:26.
