data_PCOD9318986
_publ_section_title
;
Structure prediction by ZEFSAII (Michael W. Deem and Ramdas Pophale) SiO2 
 PCOD9318986
Probable space group: C 2 2 21
;
_chemical_formula_sum "Si O2"
_cell_formula_units_Z 44
_cell_length_a 8.496393
_cell_length_b 18.748174
_cell_length_c 13.112409
_cell_angle_alpha 90.000000
_cell_angle_beta 90.000000
_cell_angle_gamma 90.000000
_cell_volume 2088.699944
_symmetry_space_group_name_H-M "C 2 2 21"
_symmetry_group_IT_number 20
_symmetry_cell_setting 'orthorhombic'
loop_
_space_group_symop_operation_xyz
x,y,z
-x,-y,1/2+z
x,-y,-z
-x,y,1/2-z
1/2+x,1/2+y,z
1/2-x,1/2-y,1/2+z
1/2+x,1/2-y,-z
1/2-x,1/2+y,1/2-z
loop_
_atom_site_type_symbol
_atom_site_label
_atom_site_fract_x
_atom_site_fract_y
_atom_site_fract_z
Si Si1 0.000000 0.156401 0.250000
Si Si2 0.152481 0.806319 0.957414
Si Si3 0.575190 0.083559 0.470179
Si Si4 0.847428 0.165591 0.943211
Si Si5 0.128941 0.414843 0.163073
Si Si6 0.733455 0.075621 0.132959
O O1 0.054948 0.198824 0.149044
O O2 0.151733 0.109232 0.283225
O O3 0.266321 0.874490 0.952319
O O4 0.256769 0.737006 0.974745
O O5 0.029979 0.817937 0.048494
O O6 0.478339 0.110606 0.567971
O O7 0.451472 0.096006 0.378097
O O8 0.598993 0.000000 0.500000
O O9 0.772714 0.140460 0.836601
O O10 0.812482 0.103275 0.027139
O O11 0.212786 0.491036 0.145564
O O12 0.000000 0.420825 0.250000
#
# Coordination Sequence:
#
# PCOD9318986 Si02
#       6
#     4   8   8   8   8   8
#     4  10  24  36  66  94 130 158 220 268 308 390
#     4  11  23  41  64  93 124 173 212 263 329 383
#     4   9  20  38  66  89 122 168 208 253 323 382
#     4  10  21  40  62  86 127 165 209 262 323 388
#     4  10  21  38  64  91 128 165 213 265 313 375
#     4   9  20  40  61  92 122 167 206 259 316 379
#
# _framework density 21.065736000000001
#
# number of rings (size 3 to 8) (size 9 to 14) (size 15 to 20)
#    0.000    2.182    0.000    3.818    6.364    2.909 
#    0.000    0.000    0.000    0.000    0.000    0.000 
#    0.000    0.000    0.000    0.000    0.000    0.000 
#
# Total GULP energy -122544.244099 kJ/mol
# GULP energy per Si atom -5570.192914 kJ/mol
# Density = 2.101779 g / cm^3
# Si number density = 21.065736 Si / 1000 Ang^3
#
#
#
# Elastic Constant Matrix: (Units=GPa)
#
#
# Indices 1 2 3 4 5 6 
#
# 1 133.1416 58.8901 17.4794 0.0000 0.0000 0.0000
# 2 58.8901 60.0180 13.7847 0.0000 0.0000 0.0000
# 3 17.4794 13.7847 55.1032 0.0000 0.0000 0.0000
# 4 0.0000 0.0000 0.0000 12.6637 0.0000 0.0000
# 5 0.0000 0.0000 0.0000 0.0000 40.8050 0.0000
# 6 0.0000 0.0000 0.0000 0.0000 0.0000 24.9288
#
#
#
# Elastic Compliance Matrix: (Units=1/GPa)
#
#
# Indices 1 2 3 4 5 6 
#
# 1 0.013323 -0.012840 -0.001014 0.000000 0.000000 0.000000
# 2 -0.012840 0.030051 -0.003445 0.000000 0.000000 0.000000
# 3 -0.001014 -0.003445 0.019331 0.000000 0.000000 0.000000
# 4 0.000000 0.000000 0.000000 0.078966 0.000000 0.000000
# 5 0.000000 0.000000 0.000000 0.000000 0.024507 0.000000
# 6 0.000000 0.000000 0.000000 0.000000 0.000000 0.040114
#
#
# Mechanical properties :
#
#
# Convention : Reuss Voigt Hill
#
# Bulk Modulus (GPa) = 35.57686 47.61902 41.59794
# Shear Modulus (GPa) = 19.97925 26.22006 23.09966
#
# Velocity S-wave (km/s) = 3.08299 3.53183 3.31501
# Velocity P-wave (km/s) = 5.44043 6.26784 5.86873
#
# Compressibility (1/GPa) = 0.02810815
#
# Stress axis : x y z
#
# Youngs Moduli (GPa) = 75.05726 33.27637 51.72973
#
# Poissons Ratio (x) = 0.42726 0.05247
# Poissons Ratio (y) = 0.96372 0.17819
# Poissons Ratio (z) = 0.07613 0.11463
#
# Static dielectric constant tensor:
#      x y z
#    x 1.779400 0.000000 0.000000 
#    y 0.000000 1.760990 0.000000 
#    z 0.000000 0.000000 1.846290 
# 
# From -- ./inp_files/18757.got.cif
#   From: 2010.05.17/outbox.cif.g08.bks.cpg/sg20_10_cif.got.tgz:18757.got - 2010.06.03 22:52:26.
