data_PCOD9318058
_publ_section_title
;
Structure prediction by ZEFSAII (Michael W. Deem and Ramdas Pophale) SiO2 
 PCOD9318058
Probable space group: C 2 2 21
;
_chemical_formula_sum "Si O2"
_cell_formula_units_Z 48
_cell_length_a 28.967708
_cell_length_b 8.514432
_cell_length_c 10.305889
_cell_angle_alpha 90.000000
_cell_angle_beta 90.000000
_cell_angle_gamma 90.000000
_cell_volume 2541.881358
_symmetry_space_group_name_H-M "C 2 2 21"
_symmetry_group_IT_number 20
_symmetry_cell_setting 'orthorhombic'
loop_
_space_group_symop_operation_xyz
x,y,z
-x,-y,1/2+z
x,-y,-z
-x,y,1/2-z
1/2+x,1/2+y,z
1/2-x,1/2-y,1/2+z
1/2+x,1/2-y,-z
1/2-x,1/2+y,1/2-z
loop_
_atom_site_type_symbol
_atom_site_label
_atom_site_fract_x
_atom_site_fract_y
_atom_site_fract_z
Si Si1 0.948965 0.646425 0.402472
Si Si2 0.350807 0.811624 0.978517
Si Si3 0.291428 0.325869 0.254012
Si Si4 0.689041 0.302187 0.743982
Si Si5 0.949351 0.355127 0.899513
Si Si6 0.356380 0.311975 0.489097
O O1 0.947825 0.500000 0.500000
O O2 0.944872 0.595496 0.251540
O O3 0.905825 0.752517 0.441252
O O4 0.000153 0.722759 0.413731
O O5 0.338661 0.733342 0.114170
O O6 0.314740 0.756873 0.869705
O O7 0.402387 0.765270 0.933141
O O8 0.348621 0.000000 0.000000
O O9 0.299663 0.512622 0.249091
O O10 0.237537 0.288363 0.259053
O O11 0.317908 0.267188 0.382720
O O12 0.659665 0.253143 0.870116
O O13 0.950121 0.500000 0.000000
O O14 0.357761 0.500000 0.500000
#
# Coordination Sequence:
#
# PCOD9318058 Si02
#       6
#     8   8   8   8   8   8
#     4  10  20  37  65  88 116 155 199 242 293 353
#     4  11  22  38  60  88 121 155 196 245 296 352
#     4  11  22  42  60  87 118 159 198 248 298 355
#     4  11  24  38  62  86 120 155 201 246 298 355
#     4   9  20  37  60  91 121 149 194 248 295 345
#     4  10  23  40  58  85 121 154 192 244 298 351
#
# _framework density 18.883651
#
# number of rings (size 3 to 8) (size 9 to 14) (size 15 to 20)
#    0.000    1.667    1.667    2.500    4.667    2.667 
#    0.000    1.667    0.000    0.000    0.000    0.000 
#    0.000    0.000    0.000    0.000    0.000    0.000 
#
# Total GULP energy -133945.626216 kJ/mol
# GULP energy per Si atom -5581.067759 kJ/mol
# Density = 1.884067 g / cm^3
# Si number density = 18.883651 Si / 1000 Ang^3
#
#
#
# Elastic Constant Matrix: (Units=GPa)
#
#
# Indices 1 2 3 4 5 6 
#
# 1 132.5479 11.6566 74.2404 0.0000 0.0000 0.0000
# 2 11.6566 28.6571 19.7621 0.0000 0.0000 0.0000
# 3 74.2404 19.7621 173.9957 0.0000 0.0000 0.0000
# 4 0.0000 0.0000 0.0000 16.0249 0.0000 0.0000
# 5 0.0000 0.0000 0.0000 0.0000 29.5816 0.0000
# 6 0.0000 0.0000 0.0000 0.0000 0.0000 -38.8800
#
#
#
# Elastic Compliance Matrix: (Units=1/GPa)
#
#
# Indices 1 2 3 4 5 6 
#
# 1 0.009952 -0.001215 -0.004109 0.000000 0.000000 0.000000
# 2 -0.001215 0.038009 -0.003799 0.000000 0.000000 0.000000
# 3 -0.004109 -0.003799 0.007932 0.000000 0.000000 0.000000
# 4 0.000000 0.000000 0.000000 0.062403 0.000000 0.000000
# 5 0.000000 0.000000 0.000000 0.000000 0.033805 0.000000
# 6 0.000000 0.000000 0.000000 0.000000 0.000000 -0.025720
#
#
# Mechanical properties :
#
#
# Convention : Reuss Voigt Hill
#
# Bulk Modulus (GPa) = 26.56110 60.72433 43.64272
# Shear Modulus (GPa) = 31.81172 16.64807 24.22989
#
# Velocity S-wave (km/s) = 4.10886 2.97242 3.58595
# Velocity P-wave (km/s) = 6.05033 6.63380 6.34877
#
# Compressibility (1/GPa) = 0.03764904
#
# Stress axis : x y z
#
# Youngs Moduli (GPa) = 100.47741 26.30952 126.07596
#
# Poissons Ratio (x) = 0.03197 0.51799
# Poissons Ratio (y) = 0.12208 0.47891
# Poissons Ratio (z) = 0.41281 0.09994
#
# Static dielectric constant tensor:
#      x y z
#    x 1.667660 0.000000 0.000000 
#    y 0.000000 1.639080 0.000000 
#    z 0.000000 0.000000 1.657840 
# 
# From -- ./inp_files/11440.got.cif
#   From: 2010.05.17/outbox.cif.g08.bks.cpg/sg20_6_cif.got.tgz:11440.got - 2010.06.03 22:52:26.
