data_PCOD9318622
_publ_section_title
;
Structure prediction by ZEFSAII (Michael W. Deem and Ramdas Pophale) SiO2 
 PCOD9318622
Probable space group: C 2 2 21
;
_chemical_formula_sum "Si O2"
_cell_formula_units_Z 64
_cell_length_a 29.315796
_cell_length_b 5.875838
_cell_length_c 17.612303
_cell_angle_alpha 90.000000
_cell_angle_beta 90.000000
_cell_angle_gamma 90.000000
_cell_volume 3033.804931
_symmetry_space_group_name_H-M "C 2 2 21"
_symmetry_group_IT_number 20
_symmetry_cell_setting 'orthorhombic'
loop_
_space_group_symop_operation_xyz
x,y,z
-x,-y,1/2+z
x,-y,-z
-x,y,1/2-z
1/2+x,1/2+y,z
1/2-x,1/2-y,1/2+z
1/2+x,1/2-y,-z
1/2-x,1/2+y,1/2-z
loop_
_atom_site_type_symbol
_atom_site_label
_atom_site_fract_x
_atom_site_fract_y
_atom_site_fract_z
Si Si1 0.608036 0.879881 0.641086
Si Si2 0.435615 0.105507 0.425022
Si Si3 0.982992 0.780137 0.673743
Si Si4 0.528384 0.632403 0.571029
Si Si5 0.236440 0.419479 0.214524
Si Si6 0.153805 0.241300 0.283781
Si Si7 0.693133 0.583337 0.587803
Si Si8 0.898846 0.108302 0.703729
O O1 0.563456 0.830269 0.591955
O O2 0.654962 0.785376 0.600841
O O3 0.599939 0.738187 0.717423
O O4 0.612692 0.131004 0.674420
O O5 0.477856 0.271229 0.446788
O O6 0.400708 0.230629 0.369174
O O7 0.414028 0.000000 0.500000
O O8 0.460710 0.904297 0.380275
O O9 0.000000 0.661476 0.750000
O O10 0.943537 0.955299 0.696209
O O11 0.020458 0.940274 0.634635
O O12 0.548193 0.500000 0.500000
O O13 0.251742 0.674417 0.243081
O O14 0.183547 0.427637 0.239178
O O15 0.257923 0.374654 0.130518
O O16 0.175030 0.113959 0.356206
O O17 0.142625 0.062090 0.217814
O O18 0.695835 0.500000 0.500000
#
# Coordination Sequence:
#
# PCOD9318622 Si02
#       8
#     8   8   8   8   8   8   8   8
#     4  11  21  39  61  97 133 172 218 276 340 413
#     4  11  24  39  62  88 122 179 226 285 348 403
#     4  11  22  39  60  86 120 165 224 280 330 404
#     4  11  23  39  57  90 130 170 221 276 343 405
#     4  10  20  42  70 102 136 186 229 273 339 428
#     4  10  22  40  67  99 132 178 223 280 338 409
#     4  10  22  40  64 103 140 176 219 276 343 411
#     4  10  23  38  62  92 124 166 226 282 332 408
#
# _framework density 21.095621999999999
#
# number of rings (size 3 to 8) (size 9 to 14) (size 15 to 20)
#    0.000    1.500    3.750    1.125    3.500    0.500 
#    2.250    0.000    0.000    4.500    6.500    0.000 
#    0.000    0.000    0.000    0.000    0.000    0.000 
#
# Total GULP energy -178222.168338 kJ/mol
# GULP energy per Si atom -5569.442761 kJ/mol
# Density = 2.104761 g / cm^3
# Si number density = 21.095622 Si / 1000 Ang^3
#
#
#
# Elastic Constant Matrix: (Units=GPa)
#
#
# Indices 1 2 3 4 5 6 
#
# 1 35.4476 13.6016 35.7736 0.0000 0.0000 0.0000
# 2 13.6016 69.9209 31.5528 0.0000 0.0000 0.0000
# 3 35.7736 31.5528 136.3425 0.0000 0.0000 0.0000
# 4 0.0000 0.0000 0.0000 17.3620 0.0000 0.0000
# 5 0.0000 0.0000 0.0000 0.0000 34.0103 0.0000
# 6 0.0000 0.0000 0.0000 0.0000 0.0000 21.7966
#
#
#
# Elastic Compliance Matrix: (Units=1/GPa)
#
#
# Indices 1 2 3 4 5 6 
#
# 1 0.039049 -0.003319 -0.009478 0.000000 0.000000 0.000000
# 2 -0.003319 0.016252 -0.002890 0.000000 0.000000 0.000000
# 3 -0.009478 -0.002890 0.010490 0.000000 0.000000 0.000000
# 4 0.000000 0.000000 0.000000 0.057597 0.000000 0.000000
# 5 0.000000 0.000000 0.000000 0.000000 0.029403 0.000000
# 6 0.000000 0.000000 0.000000 0.000000 0.000000 0.045879
#
#
# Mechanical properties :
#
#
# Convention : Reuss Voigt Hill
#
# Bulk Modulus (GPa) = 29.05549 44.84079 36.94814
# Shear Modulus (GPa) = 20.70262 25.35266 23.02764
#
# Velocity S-wave (km/s) = 3.13608 3.47046 3.30750
# Velocity P-wave (km/s) = 5.18811 6.11235 5.66910
#
# Compressibility (1/GPa) = 0.03441690
#
# Stress axis : x y z
#
# Youngs Moduli (GPa) = 25.60890 61.53173 95.32869
#
# Poissons Ratio (x) = 0.20424 0.90348
# Poissons Ratio (y) = 0.08500 0.27551
# Poissons Ratio (z) = 0.24271 0.17783
#
# Static dielectric constant tensor:
#      x y z
#    x 1.844300 0.000000 0.000000 
#    y 0.000000 1.755580 0.000000 
#    z 0.000000 0.000000 1.705370 
# 
# From -- ./inp_files/25769.got.cif
#   From: 2010.05.17/outbox.cif.g08.bks.cpg/sg20_13_cif.got.tgz:25769.got - 2010.06.03 22:52:26.
