data_PCOD9318067
_publ_section_title
;
Structure prediction by ZEFSAII (Michael W. Deem and Ramdas Pophale) SiO2 
 PCOD9318067
Probable space group: C 2 2 21
;
_chemical_formula_sum "Si O2"
_cell_formula_units_Z 48
_cell_length_a 10.971431
_cell_length_b 15.178818
_cell_length_c 12.691127
_cell_angle_alpha 90.000000
_cell_angle_beta 90.000000
_cell_angle_gamma 90.000000
_cell_volume 2113.495950
_symmetry_space_group_name_H-M "C 2 2 21"
_symmetry_group_IT_number 20
_symmetry_cell_setting 'orthorhombic'
loop_
_space_group_symop_operation_xyz
x,y,z
-x,-y,1/2+z
x,-y,-z
-x,y,1/2-z
1/2+x,1/2+y,z
1/2-x,1/2-y,1/2+z
1/2+x,1/2-y,-z
1/2-x,1/2+y,1/2-z
loop_
_atom_site_type_symbol
_atom_site_label
_atom_site_fract_x
_atom_site_fract_y
_atom_site_fract_z
Si Si1 0.790099 0.659216 0.613852
Si Si2 0.813027 0.231989 0.689426
Si Si3 0.161530 0.000000 0.500000
Si Si4 0.835459 0.420713 0.067317
Si Si5 0.588137 0.643320 0.351583
Si Si6 0.000000 0.575926 0.750000
Si Si7 0.987574 0.274977 0.524854
O O1 0.692059 0.703578 0.688415
O O2 0.743325 0.573567 0.555383
O O3 0.903403 0.636046 0.689252
O O4 0.852179 0.718477 0.526991
O O5 0.756385 0.147246 0.624846
O O6 0.718038 0.314116 0.680698
O O7 0.943220 0.256070 0.641856
O O8 0.092975 0.953509 0.597304
O O9 0.919046 0.466889 0.158728
O O10 0.929380 0.360966 0.997809
O O11 0.778948 0.500000 0.000000
O O12 0.500000 0.649461 0.250000
O O13 0.548205 0.700635 0.453017
#
# Coordination Sequence:
#
# PCOD9318067 Si02
#       7
#     8   8   4   8   8   4   8
#     4  10  20  39  64  93 122 170 215 264 322 395
#     4  10  20  40  65  90 122 171 218 259 327 393
#     4  12  26  40  70  98 132 170 228 268 328 408
#     4   9  19  35  57  86 121 155 202 262 317 367
#     4  11  23  43  65  94 129 180 211 268 345 395
#     4   8  18  32  56  84 120 156 192 256 312 364
#     4  10  20  37  66  86 122 167 219 258 317 394
#
# _framework density 22.711186999999999
#
# number of rings (size 3 to 8) (size 9 to 14) (size 15 to 20)
#    0.000    2.000    3.333    1.000    7.000    1.333 
#    7.500    1.667    0.000    0.000    0.000    0.000 
#    0.000    0.000    0.000    0.000    0.000    0.000 
#
# Total GULP energy -133885.624235 kJ/mol
# GULP energy per Si atom -5578.567676 kJ/mol
# Density = 2.265950 g / cm^3
# Si number density = 22.711187 Si / 1000 Ang^3
#
#
#
# Elastic Constant Matrix: (Units=GPa)
#
#
# Indices 1 2 3 4 5 6 
#
# 1 76.2894 10.5009 30.6085 0.0000 0.0000 0.0000
# 2 10.5009 49.8739 7.3049 0.0000 0.0000 0.0000
# 3 30.6085 7.3049 84.9997 0.0000 0.0000 0.0000
# 4 0.0000 0.0000 0.0000 -126.4391 0.0000 0.0000
# 5 0.0000 0.0000 0.0000 0.0000 34.8796 0.0000
# 6 0.0000 0.0000 0.0000 0.0000 0.0000 -6.9050
#
#
#
# Elastic Compliance Matrix: (Units=1/GPa)
#
#
# Indices 1 2 3 4 5 6 
#
# 1 0.015623 -0.002497 -0.005411 0.000000 0.000000 0.000000
# 2 -0.002497 0.020705 -0.000880 0.000000 0.000000 0.000000
# 3 -0.005411 -0.000880 0.013789 0.000000 0.000000 0.000000
# 4 0.000000 0.000000 0.000000 -0.007909 0.000000 0.000000
# 5 0.000000 0.000000 0.000000 0.000000 0.028670 0.000000
# 6 0.000000 0.000000 0.000000 0.000000 0.000000 -0.144823
#
#
# Mechanical properties :
#
#
# Convention : Reuss Voigt Hill
#
# Bulk Modulus (GPa) = 30.73111 34.22129 32.47620
# Shear Modulus (GPa) = -109.83734 -8.84298 -59.34016
#
# Velocity S-wave (km/s) = -6.96187 -1.97538 -5.11712
# Velocity P-wave (km/s) = 7.14583 3.14610 4.53679
#
# Compressibility (1/GPa) = 0.03254032
#
# Stress axis : x y z
#
# Youngs Moduli (GPa) = 64.00945 48.29707 72.52173
#
# Poissons Ratio (x) = 0.12059 0.39243
# Poissons Ratio (y) = 0.15982 0.06384
# Poissons Ratio (z) = 0.34637 0.04252
#
# Static dielectric constant tensor:
#      x y z
#    x 2.226950 0.000000 0.000000 
#    y 0.000000 1.853100 0.000000 
#    z 0.000000 0.000000 1.912960 
# 
# From -- ./inp_files/15099.got.cif
#   From: 2010.05.17/outbox.cif.g08.bks.cpg/sg20_8_cif.got.tgz:15099.got - 2010.06.03 22:52:26.
