data_PCOD9318171
_publ_section_title
;
Structure prediction by ZEFSAII (Michael W. Deem and Ramdas Pophale) SiO2 
 PCOD9318171
Probable space group: C 2 2 21
;
_chemical_formula_sum "Si O2"
_cell_formula_units_Z 60
_cell_length_a 20.228345
_cell_length_b 5.000440
_cell_length_c 28.182221
_cell_angle_alpha 90.000000
_cell_angle_beta 90.000000
_cell_angle_gamma 90.000000
_cell_volume 2850.649281
_symmetry_space_group_name_H-M "C 2 2 21"
_symmetry_group_IT_number 20
_symmetry_cell_setting 'orthorhombic'
loop_
_space_group_symop_operation_xyz
x,y,z
-x,-y,1/2+z
x,-y,-z
-x,y,1/2-z
1/2+x,1/2+y,z
1/2-x,1/2-y,1/2+z
1/2+x,1/2-y,-z
1/2-x,1/2+y,1/2-z
loop_
_atom_site_type_symbol
_atom_site_label
_atom_site_fract_x
_atom_site_fract_y
_atom_site_fract_z
Si Si1 0.792917 0.543000 0.581729
Si Si2 0.493021 0.491751 0.097324
Si Si3 0.588044 0.992085 0.627855
Si Si4 0.370814 0.456017 0.445353
Si Si5 0.180115 0.349222 0.454446
Si Si6 0.231055 0.374505 0.189856
Si Si7 0.317093 0.872870 0.209709
Si Si8 0.431976 0.500000 0.000000
O O1 0.809925 0.842982 0.565694
O O2 0.726034 0.394332 0.564180
O O3 0.794432 0.549559 0.638422
O O4 0.848917 0.348643 0.561227
O O5 0.455709 0.273677 0.129032
O O6 0.571611 0.513797 0.092801
O O7 0.459875 0.772210 0.110222
O O8 0.473805 0.398280 0.043994
O O9 0.619637 0.061020 0.678459
O O10 0.650266 0.983129 0.590137
O O11 0.390217 0.500000 0.500000
O O12 0.210647 0.500000 0.500000
O O13 0.115652 0.220478 0.478353
O O14 0.259428 0.074496 0.191779
O O15 0.180714 0.411710 0.233596
O O16 0.292438 0.572837 0.200142
#
# Coordination Sequence:
#
# PCOD9318171 Si02
#       8
#     8   8   8   8   8   8   8   4
#     4  12  26  40  63  89 129 167 210 260 304 386
#     4  11  23  42  62  84 120 164 219 252 301 355
#     4  11  22  37  65  92 121 154 202 271 313 371
#     4  12  27  45  61  85 125 181 222 246 292 374
#     4  11  23  35  58  93 131 155 200 250 340 362
#     4  10  21  38  62  90 131 165 197 252 319 400
#     4  10  20  38  62  96 126 159 200 253 333 387
#     4  10  22  36  56  84 118 156 192 264 308 352
#
# _framework density 21.047836
#
# number of rings (size 3 to 8) (size 9 to 14) (size 15 to 20)
#    0.000    1.067    3.333    3.200    5.600    0.000 
#    0.000    0.000    0.000    4.800    0.000    0.000 
#    0.000    0.000    0.000    0.000    0.000    0.000 
#
# Total GULP energy -167594.559863 kJ/mol
# GULP energy per Si atom -5586.485329 kJ/mol
# Density = 2.099993 g / cm^3
# Si number density = 21.047836 Si / 1000 Ang^3
#
#
#
# Elastic Constant Matrix: (Units=GPa)
#
#
# Indices 1 2 3 4 5 6 
#
# 1 44.6895 2.5934 -0.0955 0.0000 0.0000 0.0000
# 2 2.5934 41.5382 4.7999 0.0000 0.0000 0.0000
# 3 -0.0955 4.7999 73.1910 0.0000 0.0000 0.0000
# 4 0.0000 0.0000 0.0000 26.1177 0.0000 0.0000
# 5 0.0000 0.0000 0.0000 0.0000 13.0938 0.0000
# 6 0.0000 0.0000 0.0000 0.0000 0.0000 11.3821
#
#
#
# Elastic Compliance Matrix: (Units=1/GPa)
#
#
# Indices 1 2 3 4 5 6 
#
# 1 0.022459 -0.001416 0.000122 0.000000 0.000000 0.000000
# 2 -0.001416 0.024347 -0.001599 0.000000 0.000000 0.000000
# 3 0.000122 -0.001599 0.013768 0.000000 0.000000 0.000000
# 4 0.000000 0.000000 0.000000 0.038288 0.000000 0.000000
# 5 0.000000 0.000000 0.000000 0.000000 0.076372 0.000000
# 6 0.000000 0.000000 0.000000 0.000000 0.000000 0.087857
#
#
# Mechanical properties :
#
#
# Convention : Reuss Voigt Hill
#
# Bulk Modulus (GPa) = 18.25187 19.33492 18.79339
# Shear Modulus (GPa) = 17.41311 20.26012 18.83662
#
# Velocity S-wave (km/s) = 2.87942 3.10590 2.99481
# Velocity P-wave (km/s) = 4.44356 4.69769 4.57239
#
# Compressibility (1/GPa) = 0.05478892
#
# Stress axis : x y z
#
# Youngs Moduli (GPa) = 44.52545 41.07221 72.63281
#
# Poissons Ratio (x) = 0.05817 -0.00887
# Poissons Ratio (y) = 0.06306 0.11611
# Poissons Ratio (z) = -0.00544 0.06566
#
# Static dielectric constant tensor:
#      x y z
#    x 1.793400 0.000000 0.000000 
#    y 0.000000 1.768610 0.000000 
#    z 0.000000 0.000000 1.766190 
# 
# From -- ./inp_files/29561.got.cif
#   From: 2010.05.17/outbox.cif.g08.bks.cpg/sg20_15_cif.got.tgz:29561.got - 2010.06.03 22:52:26.
