data_PCOD9318160
_publ_section_title
;
Structure prediction by ZEFSAII (Michael W. Deem and Ramdas Pophale) SiO2 
 PCOD9318160
Probable space group: C 2 2 21
;
_chemical_formula_sum "Si O2"
_cell_formula_units_Z 28
_cell_length_a 5.710969
_cell_length_b 20.013258
_cell_length_c 9.701531
_cell_angle_alpha 90.000000
_cell_angle_beta 90.000000
_cell_angle_gamma 90.000000
_cell_volume 1108.837417
_symmetry_space_group_name_H-M "C 2 2 21"
_symmetry_group_IT_number 20
_symmetry_cell_setting 'orthorhombic'
loop_
_space_group_symop_operation_xyz
x,y,z
-x,-y,1/2+z
x,-y,-z
-x,y,1/2-z
1/2+x,1/2+y,z
1/2-x,1/2-y,1/2+z
1/2+x,1/2-y,-z
1/2-x,1/2+y,1/2-z
loop_
_atom_site_type_symbol
_atom_site_label
_atom_site_fract_x
_atom_site_fract_y
_atom_site_fract_z
Si Si1 0.516242 0.696565 0.053296
Si Si2 0.873330 0.538900 0.874009
Si Si3 0.528975 0.158734 0.032297
Si Si4 0.000000 0.139517 0.750000
O O1 0.521270 0.776405 0.069489
O O2 0.483290 0.683497 0.888018
O O3 0.764104 0.663427 0.091143
O O4 0.271652 0.669735 0.113277
O O5 0.705557 0.589416 0.794488
O O6 0.000000 0.499070 0.750000
O O7 0.752785 0.500000 0.000000
O O8 0.047487 0.587559 0.958345
#
# Coordination Sequence:
#
# PCOD9318160 Si02
#       4
#     8   8   8   4
#     4   9  17  32  61  84 118 155 210 268 330 381
#     4  11  23  41  65  92 136 182 224 274 332 405
#     4   9  18  35  56  89 119 158 210 264 325 389
#     4  10  20  38  62  88 130 174 220 278 336 392
#
# _framework density 25.251671000000002
#
# number of rings (size 3 to 8) (size 9 to 14) (size 15 to 20)
#    0.000    2.286    2.857    0.000    0.000    1.143 
#    2.571    0.000    0.000    0.000    0.000    0.000 
#    0.000    0.000    0.000    0.000    0.000    0.000 
#
# Total GULP energy -77945.888095 kJ/mol
# GULP energy per Si atom -5567.563435 kJ/mol
# Density = 2.519420 g / cm^3
# Si number density = 25.251671 Si / 1000 Ang^3
#
#
#
# Elastic Constant Matrix: (Units=GPa)
#
#
# Indices 1 2 3 4 5 6 
#
# 1 196.3302 -6.1948 15.9843 0.0000 0.0000 0.0000
# 2 -6.1948 20.0287 9.6511 0.0000 0.0000 0.0000
# 3 15.9843 9.6511 149.8855 0.0000 0.0000 0.0000
# 4 0.0000 0.0000 0.0000 -4.5909 0.0000 0.0000
# 5 0.0000 0.0000 0.0000 0.0000 -5.8690 0.0000
# 6 0.0000 0.0000 0.0000 0.0000 0.0000 25.3686
#
#
#
# Elastic Compliance Matrix: (Units=1/GPa)
#
#
# Indices 1 2 3 4 5 6 
#
# 1 0.005210 0.001939 -0.000680 0.000000 0.000000 0.000000
# 2 0.001939 0.052249 -0.003571 0.000000 0.000000 0.000000
# 3 -0.000680 -0.003571 0.006974 0.000000 0.000000 0.000000
# 4 0.000000 0.000000 0.000000 -0.217824 0.000000 0.000000
# 5 0.000000 0.000000 0.000000 0.000000 -0.170388 0.000000
# 6 0.000000 0.000000 0.000000 0.000000 0.000000 0.039419
#
#
# Mechanical properties :
#
#
# Convention : Reuss Voigt Hill
#
# Bulk Modulus (GPa) = 16.71995 45.01396 30.86696
# Shear Modulus (GPa) = -19.24564 26.10200 3.42818
#
# Velocity S-wave (km/s) = -2.76371 3.21857 1.16643
# Velocity P-wave (km/s) = 1.88372 5.62824 3.75024
#
# Compressibility (1/GPa) = 0.05980878
#
# Stress axis : x y z
#
# Youngs Moduli (GPa) = 191.93657 19.13912 143.38405
#
# Poissons Ratio (x) = -0.03712 0.09757
# Poissons Ratio (y) = -0.37223 0.51204
# Poissons Ratio (z) = 0.13061 0.06835
#
# Static dielectric constant tensor:
#      x y z
#    x 2.106550 0.000000 0.000000 
#    y 0.000000 2.008230 0.000000 
#    z 0.000000 0.000000 2.007370 
# 
# From -- ./inp_files/11822.got.cif
#   From: 2010.05.17/outbox.cif.g08.bks.cpg/sg20_6_cif.got.tgz:11822.got - 2010.06.03 22:52:26.
