data_PCOD9318496
_publ_section_title
;
Structure prediction by ZEFSAII (Michael W. Deem and Ramdas Pophale) SiO2 
 PCOD9318496
Probable space group: C 2 2 21
;
_chemical_formula_sum "Si O2"
_cell_formula_units_Z 60
_cell_length_a 8.962348
_cell_length_b 29.200761
_cell_length_c 11.977119
_cell_angle_alpha 90.000000
_cell_angle_beta 90.000000
_cell_angle_gamma 90.000000
_cell_volume 3134.500457
_symmetry_space_group_name_H-M "C 2 2 21"
_symmetry_group_IT_number 20
_symmetry_cell_setting 'orthorhombic'
loop_
_space_group_symop_operation_xyz
x,y,z
-x,-y,1/2+z
x,-y,-z
-x,y,1/2-z
1/2+x,1/2+y,z
1/2-x,1/2-y,1/2+z
1/2+x,1/2-y,-z
1/2-x,1/2+y,1/2-z
loop_
_atom_site_type_symbol
_atom_site_label
_atom_site_fract_x
_atom_site_fract_y
_atom_site_fract_z
Si Si1 0.162326 0.715608 0.194495
Si Si2 0.633466 0.782378 0.410296
Si Si3 0.533339 0.886526 0.377298
Si Si4 0.000000 0.426391 0.750000
Si Si5 0.479968 0.385221 0.616466
Si Si6 0.809393 0.372926 0.566437
Si Si7 0.858046 0.789035 0.601549
Si Si8 0.787814 0.450130 0.950381
O O1 0.227671 0.765038 0.164498
O O2 0.173030 0.681518 0.089375
O O3 0.290165 0.698672 0.278331
O O4 0.000000 0.715286 0.250000
O O5 0.594398 0.834386 0.382120
O O6 0.709376 0.777338 0.531640
O O7 0.487460 0.749609 0.397903
O O8 0.500000 0.899975 0.250000
O O9 0.383703 0.885150 0.450299
O O10 0.638693 0.919480 0.450857
O O11 0.102842 0.394648 0.828414
O O12 0.102046 0.452219 0.658261
O O13 0.500000 0.381754 0.750000
O O14 0.644179 0.391979 0.569419
O O15 0.426322 0.337053 0.563564
O O16 0.360474 0.423907 0.588427
O O17 0.760389 0.500000 0.000000
#
# Coordination Sequence:
#
# PCOD9318496 Si02
#       8
#     8   8   8   4   8   8   8   8
#     4  12  22  36  60  95 131 177 231 276 325 392
#     4  12  24  38  58  93 137 181 222 267 334 406
#     4  11  25  46  64  94 139 182 224 272 338 412
#     4  10  20  40  74 104 126 166 230 284 332 390
#     4  12  21  42  69 104 135 166 227 290 338 386
#     4  11  21  39  71  99 129 177 230 283 328 387
#     4  12  22  38  60  95 134 178 224 274 325 396
#     4  11  25  45  72 102 135 172 224 285 346 402
#
# _framework density 19.141805999999999
#
# number of rings (size 3 to 8) (size 9 to 14) (size 15 to 20)
#    0.000    0.533    6.000    3.600    0.933    0.000 
#    2.400    4.667    0.000    0.000    0.000    0.000 
#    0.000    0.000    0.000    0.000    0.000    0.000 
#
# Total GULP energy -167453.632365 kJ/mol
# GULP energy per Si atom -5581.787745 kJ/mol
# Density = 1.909824 g / cm^3
# Si number density = 19.141806 Si / 1000 Ang^3
#
#
#
# Elastic Constant Matrix: (Units=GPa)
#
#
# Indices 1 2 3 4 5 6 
#
# 1 133.2998 57.4677 58.2430 0.0000 0.0000 0.0000
# 2 57.4677 95.5366 25.5093 0.0000 0.0000 0.0000
# 3 58.2430 25.5093 111.0103 0.0000 0.0000 0.0000
# 4 0.0000 0.0000 0.0000 19.5026 0.0000 0.0000
# 5 0.0000 0.0000 0.0000 0.0000 22.1447 0.0000
# 6 0.0000 0.0000 0.0000 0.0000 0.0000 17.4005
#
#
#
# Elastic Compliance Matrix: (Units=1/GPa)
#
#
# Indices 1 2 3 4 5 6 
#
# 1 0.012335 -0.006064 -0.005078 0.000000 0.000000 0.000000
# 2 -0.006064 0.014132 -0.000066 0.000000 0.000000 0.000000
# 3 -0.005078 -0.000066 0.011688 0.000000 0.000000 0.000000
# 4 0.000000 0.000000 0.000000 0.051275 0.000000 0.000000
# 5 0.000000 0.000000 0.000000 0.000000 0.045158 0.000000
# 6 0.000000 0.000000 0.000000 0.000000 0.000000 0.057470
#
#
# Mechanical properties :
#
#
# Convention : Reuss Voigt Hill
#
# Bulk Modulus (GPa) = 63.53740 69.14297 66.34019
# Shear Modulus (GPa) = 22.75625 25.05135 23.90380
#
# Velocity S-wave (km/s) = 3.45167 3.62155 3.53763
# Velocity P-wave (km/s) = 7.01074 7.32717 7.17070
#
# Compressibility (1/GPa) = 0.01573876
#
# Stress axis : x y z
#
# Youngs Moduli (GPa) = 81.07032 70.75949 85.55981
#
# Poissons Ratio (x) = 0.42907 0.43450
# Poissons Ratio (y) = 0.49160 0.00565
# Poissons Ratio (z) = 0.41170 0.00467
#
# Static dielectric constant tensor:
#      x y z
#    x 1.668350 0.000000 0.000000 
#    y 0.000000 1.681970 0.000000 
#    z 0.000000 0.000000 1.758540 
# 
# From -- ./inp_files/13282.got.cif
#   From: 2010.05.17/outbox.cif.g08.bks.cpg/sg20_7_cif.got.tgz:13282.got - 2010.06.03 22:52:26.
