data_PCOD9318764
_publ_section_title
;
Structure prediction by ZEFSAII (Michael W. Deem and Ramdas Pophale) SiO2 
 PCOD9318764
Probable space group: C 2 2 21
;
_chemical_formula_sum "Si O2"
_cell_formula_units_Z 48
_cell_length_a 19.783861
_cell_length_b 5.078092
_cell_length_c 18.181359
_cell_angle_alpha 90.000000
_cell_angle_beta 90.000000
_cell_angle_gamma 90.000000
_cell_volume 1826.576892
_symmetry_space_group_name_H-M "C 2 2 21"
_symmetry_group_IT_number 20
_symmetry_cell_setting 'orthorhombic'
loop_
_space_group_symop_operation_xyz
x,y,z
-x,-y,1/2+z
x,-y,-z
-x,y,1/2-z
1/2+x,1/2+y,z
1/2-x,1/2-y,1/2+z
1/2+x,1/2-y,-z
1/2-x,1/2+y,1/2-z
loop_
_atom_site_type_symbol
_atom_site_label
_atom_site_fract_x
_atom_site_fract_y
_atom_site_fract_z
Si Si1 0.659944 0.024872 0.253584
Si Si2 0.526415 0.120493 0.923861
Si Si3 0.006420 0.879825 0.163312
Si Si4 0.810694 0.974400 0.675797
Si Si5 0.750267 0.751007 0.954371
Si Si6 0.391262 0.689321 0.116996
O O1 0.733391 0.027231 0.293330
O O2 0.667565 0.825711 0.184758
O O3 0.612125 0.873993 0.310613
O O4 0.648527 0.321550 0.227093
O O5 0.546133 0.397482 0.884846
O O6 0.446020 0.177878 0.936496
O O7 0.532252 0.901957 0.860854
O O8 0.554081 0.000000 0.000000
O O9 0.000000 0.924935 0.250000
O O10 0.929477 0.919111 0.134498
O O11 0.804432 0.115520 0.597995
O O12 0.816075 0.854108 0.910798
O O13 0.776213 0.500000 0.000000
O O14 0.724709 0.000000 0.000000
#
# Coordination Sequence:
#
# PCOD9318764 Si02
#       6
#     8   8   8   8   8   8
#     4   9  17  31  48  70 101 137 180 211 254 303
#     4  10  21  35  56  83 117 146 178 222 290 349
#     4  10  22  37  55  81 118 150 185 227 283 345
#     4   9  18  31  46  68 103 141 174 212 249 313
#     4  11  22  32  50  78 114 143 172 218 276 337
#     4   9  23  30  57  80 113 139 181 222 284 330
#
# _framework density 26.278663999999999
#
# number of rings (size 3 to 8) (size 9 to 14) (size 15 to 20)
#    1.000    1.333    0.000    2.500    7.000    2.667 
#    0.000    0.000    0.000    0.000    0.000   11.667 
#    0.000    0.000    0.000    0.000    0.000    0.000 
#
# Total GULP energy -134154.218551 kJ/mol
# GULP energy per Si atom -5589.759106 kJ/mol
# Density = 2.621885 g / cm^3
# Si number density = 26.278664 Si / 1000 Ang^3
#
#
#
# Elastic Constant Matrix: (Units=GPa)
#
#
# Indices 1 2 3 4 5 6 
#
# 1 82.8920 6.3526 3.8410 0.0000 0.0000 0.0000
# 2 6.3526 162.9880 25.9166 0.0000 0.0000 0.0000
# 3 3.8410 25.9166 91.8219 0.0000 0.0000 0.0000
# 4 0.0000 0.0000 0.0000 41.9648 0.0000 0.0000
# 5 0.0000 0.0000 0.0000 0.0000 -5.6997 0.0000
# 6 0.0000 0.0000 0.0000 0.0000 0.0000 28.9027
#
#
#
# Elastic Compliance Matrix: (Units=1/GPa)
#
#
# Indices 1 2 3 4 5 6 
#
# 1 0.012113 -0.000410 -0.000391 0.000000 0.000000 0.000000
# 2 -0.000410 0.006438 -0.001800 0.000000 0.000000 0.000000
# 3 -0.000391 -0.001800 0.011415 0.000000 0.000000 0.000000
# 4 0.000000 0.000000 0.000000 0.023830 0.000000 0.000000
# 5 0.000000 0.000000 0.000000 0.000000 -0.175446 0.000000
# 6 0.000000 0.000000 0.000000 0.000000 0.000000 0.034599
#
#
# Mechanical properties :
#
#
# Convention : Reuss Voigt Hill
#
# Bulk Modulus (GPa) = 40.38056 45.54693 42.96375
# Shear Modulus (GPa) = -67.93898 33.13964 -17.39967
#
# Velocity S-wave (km/s) = -5.09013 3.55503 -2.57596
# Velocity P-wave (km/s) = 4.37564 5.84986 2.74542
#
# Compressibility (1/GPa) = 0.02476439
#
# Stress axis : x y z
#
# Youngs Moduli (GPa) = 82.55299 155.33753 87.60394
#
# Poissons Ratio (x) = 0.06368 0.03425
# Poissons Ratio (y) = 0.03384 0.15767
# Poissons Ratio (z) = 0.03228 0.27958
#
# Static dielectric constant tensor:
#      x y z
#    x 2.140810 0.000000 0.000000 
#    y 0.000000 1.986180 0.000000 
#    z 0.000000 0.000000 2.098920 
# 
# From -- ./inp_files/22250.got.cif
#   From: 2010.05.17/outbox.cif.g08.bks.cpg/sg20_12_cif.got.tgz:22250.got - 2010.06.03 22:52:26.
