data_PCOD9318398
_publ_section_title
;
Structure prediction by ZEFSAII (Michael W. Deem and Ramdas Pophale) SiO2 
 PCOD9318398
Probable space group: C 2 2 21
;
_chemical_formula_sum "Si O2"
_cell_formula_units_Z 28
_cell_length_a 7.296423
_cell_length_b 12.339947
_cell_length_c 11.739242
_cell_angle_alpha 90.000000
_cell_angle_beta 90.000000
_cell_angle_gamma 90.000000
_cell_volume 1056.971686
_symmetry_space_group_name_H-M "C 2 2 21"
_symmetry_group_IT_number 20
_symmetry_cell_setting 'orthorhombic'
loop_
_space_group_symop_operation_xyz
x,y,z
-x,-y,1/2+z
x,-y,-z
-x,y,1/2-z
1/2+x,1/2+y,z
1/2-x,1/2-y,1/2+z
1/2+x,1/2-y,-z
1/2-x,1/2+y,1/2-z
loop_
_atom_site_type_symbol
_atom_site_label
_atom_site_fract_x
_atom_site_fract_y
_atom_site_fract_z
Si Si1 0.665460 0.361062 0.454470
Si Si2 0.338915 0.500000 0.500000
Si Si3 0.207600 0.617217 0.714269
Si Si4 0.549221 0.176633 0.132040
O O1 0.484767 0.402929 0.517557
O O2 0.690160 0.416469 0.331158
O O3 0.626090 0.235561 0.423928
O O4 0.839185 0.379561 0.532965
O O5 0.226048 0.532524 0.611179
O O6 0.315286 0.725154 0.672863
O O7 0.000000 0.641875 0.750000
O O8 0.500000 0.118330 0.250000
#
# Coordination Sequence:
#
# PCOD9318398 Si02
#       4
#     8   4   8   8
#     4  10  20  40  63  91 128 164 205 256 306 369
#     4  10  22  40  62  88 128 168 200 250 316 366
#     4  10  21  40  64  92 125 162 206 260 309 366
#     4   9  19  37  66  95 122 161 207 255 311 367
#
# _framework density 26.490773999999998
#
# number of rings (size 3 to 8) (size 9 to 14) (size 15 to 20)
#    0.000    2.286    0.000    4.286    0.000    1.143 
#    0.000   32.857    0.000   20.571    0.000    0.000 
#    0.000    0.000    0.000    0.000    0.000    0.000 
#
# Total GULP energy -78415.583444 kJ/mol
# GULP energy per Si atom -5601.113103 kJ/mol
# Density = 2.643048 g / cm^3
# Si number density = 26.490774 Si / 1000 Ang^3
#
#
#
# Elastic Constant Matrix: (Units=GPa)
#
#
# Indices 1 2 3 4 5 6 
#
# 1 124.5498 10.1690 75.5769 0.0000 0.0000 0.0000
# 2 10.1690 48.4891 54.5960 0.0000 0.0000 0.0000
# 3 75.5769 54.5960 227.0529 0.0000 0.0000 0.0000
# 4 0.0000 0.0000 0.0000 42.9850 0.0000 0.0000
# 5 0.0000 0.0000 0.0000 0.0000 74.2638 0.0000
# 6 0.0000 0.0000 0.0000 0.0000 0.0000 15.4512
#
#
#
# Elastic Compliance Matrix: (Units=1/GPa)
#
#
# Indices 1 2 3 4 5 6 
#
# 1 0.010248 0.002320 -0.003969 0.000000 0.000000 0.000000
# 2 0.002320 0.028805 -0.007698 0.000000 0.000000 0.000000
# 3 -0.003969 -0.007698 0.007576 0.000000 0.000000 0.000000
# 4 0.000000 0.000000 0.000000 0.023264 0.000000 0.000000
# 5 0.000000 0.000000 0.000000 0.000000 0.013466 0.000000
# 6 0.000000 0.000000 0.000000 0.000000 0.000000 0.064720
#
#
# Mechanical properties :
#
#
# Convention : Reuss Voigt Hill
#
# Bulk Modulus (GPa) = 35.79911 75.64173 55.72042
# Shear Modulus (GPa) = 28.39543 43.85664 36.12603
#
# Velocity S-wave (km/s) = 3.27754 4.07325 3.69687
# Velocity P-wave (km/s) = 5.27884 7.12305 6.26913
#
# Compressibility (1/GPa) = 0.02793365
#
# Stress axis : x y z
#
# Youngs Moduli (GPa) = 97.58158 34.71673 131.98841
#
# Poissons Ratio (x) = -0.08053 0.52384
# Poissons Ratio (y) = -0.22635 1.01608
# Poissons Ratio (z) = 0.38729 0.26726
#
# Static dielectric constant tensor:
#      x y z
#    x 2.079260 0.000000 0.000000 
#    y 0.000000 2.171460 0.000000 
#    z 0.000000 0.000000 2.050100 
# 
# From -- ./inp_files/5672.got.cif
#   From: 2010.05.17/outbox.cif.g08.bks.cpg/sg20_3_cif.got.tgz:5672.got - 2010.06.03 22:52:26.
