data_PCOD9318000
_publ_section_title
;
Structure prediction by ZEFSAII (Michael W. Deem and Ramdas Pophale) SiO2 
 PCOD9318000
Probable space group: C 2 2 21
;
_chemical_formula_sum "Si O2"
_cell_formula_units_Z 48
_cell_length_a 14.892350
_cell_length_b 14.168616
_cell_length_c 9.979461
_cell_angle_alpha 90.000000
_cell_angle_beta 90.000000
_cell_angle_gamma 90.000000
_cell_volume 2105.706074
_symmetry_space_group_name_H-M "C 2 2 21"
_symmetry_group_IT_number 20
_symmetry_cell_setting 'orthorhombic'
loop_
_space_group_symop_operation_xyz
x,y,z
-x,-y,1/2+z
x,-y,-z
-x,y,1/2-z
1/2+x,1/2+y,z
1/2-x,1/2-y,1/2+z
1/2+x,1/2-y,-z
1/2-x,1/2+y,1/2-z
loop_
_atom_site_type_symbol
_atom_site_label
_atom_site_fract_x
_atom_site_fract_y
_atom_site_fract_z
Si Si1 0.171038 0.703417 0.880723
Si Si2 0.074811 0.533635 0.850473
Si Si3 0.602650 0.391068 0.999437
Si Si4 0.601209 0.393795 0.548723
Si Si5 0.353648 0.296179 0.227008
Si Si6 0.716622 0.113966 0.166706
O O1 0.082546 0.646878 0.841854
O O2 0.246377 0.686201 0.769763
O O3 0.161883 0.810790 0.928501
O O4 0.199951 0.647594 0.014502
O O5 0.172112 0.487940 0.816378
O O6 0.000000 0.498647 0.750000
O O7 0.052330 0.500000 0.000000
O O8 0.505340 0.390130 0.926993
O O9 0.598037 0.353049 0.153980
O O10 0.634506 0.500000 0.000000
O O11 0.620645 0.500000 0.500000
O O12 0.615161 0.325542 0.420427
O O13 0.674565 0.379667 0.666268
O O14 0.348204 0.184129 0.250165
#
# Coordination Sequence:
#
# PCOD9318000 Si02
#       6
#     8   8   8   8   8   8
#     4   9  20  37  56  83 118 154 199 257 319 370
#     4  10  21  39  62  90 127 172 217 264 320 386
#     4  10  22  38  60  91 121 155 208 263 310 378
#     4  10  20  37  60  87 122 161 203 257 323 381
#     4  10  20  37  60  85 116 161 203 250 315 383
#     4   9  19  36  59  84 117 161 206 253 314 380
#
# _framework density 22.795203000000001
#
# number of rings (size 3 to 8) (size 9 to 14) (size 15 to 20)
#    0.000    2.333    0.000    3.000    0.000    8.000 
#    0.000    7.500    0.000    0.000    0.000    0.000 
#    0.000    0.000    0.000    0.000    0.000    0.000 
#
# Total GULP energy -133701.228968 kJ/mol
# GULP energy per Si atom -5570.884540 kJ/mol
# Density = 2.274332 g / cm^3
# Si number density = 22.795203 Si / 1000 Ang^3
#
#
#
# Elastic Constant Matrix: (Units=GPa)
#
#
# Indices 1 2 3 4 5 6 
#
# 1 76.7312 11.5047 13.6160 0.0000 0.0000 0.0000
# 2 11.5047 126.5527 5.4566 0.0000 0.0000 0.0000
# 3 13.6160 5.4566 44.3058 0.0000 0.0000 0.0000
# 4 0.0000 0.0000 0.0000 20.6084 0.0000 0.0000
# 5 0.0000 0.0000 0.0000 0.0000 31.2071 0.0000
# 6 0.0000 0.0000 0.0000 0.0000 0.0000 -10.3948
#
#
#
# Elastic Compliance Matrix: (Units=1/GPa)
#
#
# Indices 1 2 3 4 5 6 
#
# 1 0.013932 -0.001088 -0.004147 0.000000 0.000000 0.000000
# 2 -0.001088 0.008029 -0.000655 0.000000 0.000000 0.000000
# 3 -0.004147 -0.000655 0.023926 0.000000 0.000000 0.000000
# 4 0.000000 0.000000 0.000000 0.048524 0.000000 0.000000
# 5 0.000000 0.000000 0.000000 0.000000 0.032044 0.000000
# 6 0.000000 0.000000 0.000000 0.000000 0.000000 -0.096202
#
#
# Mechanical properties :
#
#
# Convention : Reuss Voigt Hill
#
# Bulk Modulus (GPa) = 29.31973 34.30492 31.81232
# Shear Modulus (GPa) = 93.63274 22.75164 58.19219
#
# Velocity S-wave (km/s) = 6.41598 3.16268 5.05803
# Velocity P-wave (km/s) = 8.23265 5.33091 6.93524
#
# Compressibility (1/GPa) = 0.03410672
#
# Stress axis : x y z
#
# Youngs Moduli (GPa) = 71.77946 124.54936 41.79617
#
# Poissons Ratio (x) = 0.13547 0.17335
# Poissons Ratio (y) = 0.07807 0.02736
# Poissons Ratio (z) = 0.29770 0.08153
#
# Static dielectric constant tensor:
#      x y z
#    x 1.899590 0.000000 0.000000 
#    y 0.000000 1.902360 0.000000 
#    z 0.000000 0.000000 2.011350 
# 
# From -- ./inp_files/15041.got.cif
#   From: 2010.05.17/outbox.cif.g08.bks.cpg/sg20_8_cif.got.tgz:15041.got - 2010.06.03 22:52:26.
