data_PCOD9318712
_publ_section_title
;
Structure prediction by ZEFSAII (Michael W. Deem and Ramdas Pophale) SiO2 
 PCOD9318712
Probable space group: C 2 2 21
;
_chemical_formula_sum "Si O2"
_cell_formula_units_Z 40
_cell_length_a 8.090789
_cell_length_b 17.432392
_cell_length_c 12.808314
_cell_angle_alpha 90.000000
_cell_angle_beta 90.000000
_cell_angle_gamma 90.000000
_cell_volume 1806.507731
_symmetry_space_group_name_H-M "C 2 2 21"
_symmetry_group_IT_number 20
_symmetry_cell_setting 'orthorhombic'
loop_
_space_group_symop_operation_xyz
x,y,z
-x,-y,1/2+z
x,-y,-z
-x,y,1/2-z
1/2+x,1/2+y,z
1/2-x,1/2-y,1/2+z
1/2+x,1/2-y,-z
1/2-x,1/2+y,1/2-z
loop_
_atom_site_type_symbol
_atom_site_label
_atom_site_fract_x
_atom_site_fract_y
_atom_site_fract_z
Si Si1 0.674386 0.500096 0.209043
Si Si2 0.994663 0.339121 0.512494
Si Si3 0.325158 0.870544 0.305724
Si Si4 0.144945 0.500000 0.500000
Si Si5 0.000000 0.149343 0.250000
Si Si6 0.250309 0.740645 0.634696
O O1 0.500000 0.468384 0.250000
O O2 0.791638 0.461184 0.294455
O O3 0.741932 0.475070 0.097444
O O4 0.636099 0.590543 0.202753
O O5 0.852477 0.343776 0.422671
O O6 0.912305 0.287118 0.600632
O O7 0.038659 0.427207 0.537324
O O8 0.160817 0.303666 0.461172
O O9 0.500000 0.859456 0.250000
O O10 0.214384 0.817372 0.230898
O O11 0.894224 0.200922 0.172227
#
# Coordination Sequence:
#
# PCOD9318712 Si02
#       6
#     8   8   8   4   4   8
#     4  10  25  41  71  97 136 183 228 290 344 414
#     4  11  26  41  76  99 143 183 237 288 355 419
#     4  10  20  46  67  96 145 179 223 288 356 407
#     4  12  24  46  70 108 140 186 244 286 348 434
#     4  10  24  42  66  94 140 172 230 282 346 414
#     4  11  23  46  68 105 137 184 225 296 348 421
#
# _framework density 22.14217
#
# number of rings (size 3 to 8) (size 9 to 14) (size 15 to 20)
#    0.600    0.800    7.000    0.000    5.600    3.200 
#    0.000    2.000    0.000    0.000    0.000    0.000 
#    0.000    0.000    0.000    0.000    0.000    0.000 
#
# Total GULP energy -111425.417214 kJ/mol
# GULP energy per Si atom -5571.270861 kJ/mol
# Density = 2.209177 g / cm^3
# Si number density = 22.142170 Si / 1000 Ang^3
#
#
#
# Elastic Constant Matrix: (Units=GPa)
#
#
# Indices 1 2 3 4 5 6 
#
# 1 48.8830 43.8447 22.1667 0.0000 0.0000 0.0000
# 2 43.8447 116.2896 16.4716 0.0000 0.0000 0.0000
# 3 22.1667 16.4716 48.1170 0.0000 0.0000 0.0000
# 4 0.0000 0.0000 0.0000 29.8730 0.0000 0.0000
# 5 0.0000 0.0000 0.0000 0.0000 27.6068 0.0000
# 6 0.0000 0.0000 0.0000 0.0000 0.0000 10.0466
#
#
#
# Elastic Compliance Matrix: (Units=1/GPa)
#
#
# Indices 1 2 3 4 5 6 
#
# 1 0.037326 -0.012230 -0.013009 0.000000 0.000000 0.000000
# 2 -0.012230 0.013045 0.001169 0.000000 0.000000 0.000000
# 3 -0.013009 0.001169 0.026375 0.000000 0.000000 0.000000
# 4 0.000000 0.000000 0.000000 0.033475 0.000000 0.000000
# 5 0.000000 0.000000 0.000000 0.000000 0.036223 0.000000
# 6 0.000000 0.000000 0.000000 0.000000 0.000000 0.099536
#
#
# Mechanical properties :
#
#
# Convention : Reuss Voigt Hill
#
# Bulk Modulus (GPa) = 34.95816 42.02839 38.49327
# Shear Modulus (GPa) = 16.46600 22.22572 19.34586
#
# Velocity S-wave (km/s) = 2.72995 3.17168 2.95907
# Velocity P-wave (km/s) = 5.07535 5.69518 5.39417
#
# Compressibility (1/GPa) = 0.02860562
#
# Stress axis : x y z
#
# Youngs Moduli (GPa) = 26.79112 76.65834 37.91408
#
# Poissons Ratio (x) = 0.93756 0.49321
# Poissons Ratio (y) = 0.32767 -0.04431
# Poissons Ratio (z) = 0.34852 -0.08960
#
# Static dielectric constant tensor:
#      x y z
#    x 1.901760 0.000000 0.000000 
#    y 0.000000 1.863730 0.000000 
#    z 0.000000 0.000000 1.865870 
# 
# From -- ./inp_files/12775.got.cif
#   From: 2010.05.17/outbox.cif.g08.bks.cpg/sg20_7_cif.got.tgz:12775.got - 2010.06.03 22:52:26.
