data_PCOD9318825
_publ_section_title
;
Structure prediction by ZEFSAII (Michael W. Deem and Ramdas Pophale) SiO2 
 PCOD9318825
Probable space group: C 2 2 21
;
_chemical_formula_sum "Si O2"
_cell_formula_units_Z 60
_cell_length_a 11.376423
_cell_length_b 18.542891
_cell_length_c 14.758717
_cell_angle_alpha 90.000000
_cell_angle_beta 90.000000
_cell_angle_gamma 90.000000
_cell_volume 3113.377499
_symmetry_space_group_name_H-M "C 2 2 21"
_symmetry_group_IT_number 20
_symmetry_cell_setting 'orthorhombic'
loop_
_space_group_symop_operation_xyz
x,y,z
-x,-y,1/2+z
x,-y,-z
-x,y,1/2-z
1/2+x,1/2+y,z
1/2-x,1/2-y,1/2+z
1/2+x,1/2-y,-z
1/2-x,1/2+y,1/2-z
loop_
_atom_site_type_symbol
_atom_site_label
_atom_site_fract_x
_atom_site_fract_y
_atom_site_fract_z
Si Si1 0.517936 0.856781 0.470092
Si Si2 0.633167 0.500000 0.500000
Si Si3 0.886205 0.419045 0.312524
Si Si4 0.831158 0.572473 0.401032
Si Si5 0.181949 0.714118 0.206634
Si Si6 0.260099 0.862708 0.144307
Si Si7 0.430198 0.253498 0.118058
Si Si8 0.500931 0.410528 0.357956
O O1 0.425548 0.859345 0.386589
O O2 0.449425 0.903454 0.545964
O O3 0.638273 0.885401 0.425521
O O4 0.555942 0.783463 0.520623
O O5 0.721442 0.563097 0.468172
O O6 0.554000 0.474741 0.416384
O O7 0.853112 0.493940 0.359373
O O8 0.786612 0.395038 0.243241
O O9 0.000000 0.431611 0.250000
O O10 0.798985 0.633407 0.327824
O O11 0.262632 0.776182 0.162387
O O12 0.169131 0.721248 0.315126
O O13 0.054316 0.735600 0.166475
O O14 0.132301 0.889574 0.114674
O O15 0.422537 0.339276 0.120172
O O16 0.500000 0.422863 0.250000
#
# Coordination Sequence:
#
# PCOD9318825 Si02
#       8
#     8   4   8   8   8   8   8   8
#     4  10  21  36  61  97 123 150 213 267 314 366
#     4  12  26  40  66  92 124 178 210 260 320 392
#     4  10  21  38  63  88 129 167 197 259 336 380
#     4  11  22  38  60  97 125 160 213 265 317 383
#     4   9  19  36  61  90 117 164 212 251 313 368
#     4  10  21  42  63  90 123 170 206 262 318 383
#     4   9  18  37  64  88 120 163 208 261 301 380
#     4  11  22  44  65  87 124 170 219 247 318 390
#
# _framework density 19.271674999999998
#
# number of rings (size 3 to 8) (size 9 to 14) (size 15 to 20)
#    0.000    1.867    4.000    0.800    5.600    0.000 
#    9.600    1.333    0.000    0.000    0.000    0.000 
#    0.000    0.000    0.000    0.000    0.000    0.000 
#
# Total GULP energy -167167.297418 kJ/mol
# GULP energy per Si atom -5572.243247 kJ/mol
# Density = 1.922781 g / cm^3
# Si number density = 19.271675 Si / 1000 Ang^3
#
#
#
# Elastic Constant Matrix: (Units=GPa)
#
#
# Indices 1 2 3 4 5 6 
#
# 1 70.2884 29.1262 37.5407 0.0000 0.0000 0.0000
# 2 29.1262 73.8699 51.3331 0.0000 0.0000 0.0000
# 3 37.5407 51.3331 101.9210 0.0000 0.0000 0.0000
# 4 0.0000 0.0000 0.0000 29.2027 0.0000 0.0000
# 5 0.0000 0.0000 0.0000 0.0000 25.0131 0.0000
# 6 0.0000 0.0000 0.0000 0.0000 0.0000 18.2595
#
#
#
# Elastic Compliance Matrix: (Units=1/GPa)
#
#
# Indices 1 2 3 4 5 6 
#
# 1 0.018421 -0.003920 -0.004810 0.000000 0.000000 0.000000
# 2 -0.003920 0.021661 -0.009466 0.000000 0.000000 0.000000
# 3 -0.004810 -0.009466 0.016351 0.000000 0.000000 0.000000
# 4 0.000000 0.000000 0.000000 0.034243 0.000000 0.000000
# 5 0.000000 0.000000 0.000000 0.000000 0.039979 0.000000
# 6 0.000000 0.000000 0.000000 0.000000 0.000000 0.054766
#
#
# Mechanical properties :
#
#
# Convention : Reuss Voigt Hill
#
# Bulk Modulus (GPa) = 49.90112 53.56437 51.73275
# Shear Modulus (GPa) = 21.88244 23.03369 22.45806
#
# Velocity S-wave (km/s) = 3.37333 3.46093 3.41741
# Velocity P-wave (km/s) = 6.41266 6.62008 6.51719
#
# Compressibility (1/GPa) = 0.02003963
#
# Stress axis : x y z
#
# Youngs Moduli (GPa) = 54.28634 46.16622 61.15913
#
# Poissons Ratio (x) = 0.18099 0.29420
# Poissons Ratio (y) = 0.21282 0.57891
# Poissons Ratio (z) = 0.26114 0.43699
#
# Static dielectric constant tensor:
#      x y z
#    x 1.678730 0.000000 0.000000 
#    y 0.000000 1.685530 0.000000 
#    z 0.000000 0.000000 1.714210 
# 
# From -- ./inp_files/20235.got.cif
#   From: 2010.05.17/outbox.cif.g08.bks.cpg/sg20_11_cif.got.tgz:20235.got - 2010.06.03 22:52:26.
