data_PCOD9318530
_publ_section_title
;
Structure prediction by ZEFSAII (Michael W. Deem and Ramdas Pophale) SiO2 
 PCOD9318530
Probable space group: C 2 2 21
;
_chemical_formula_sum "Si O2"
_cell_formula_units_Z 64
_cell_length_a 16.647007
_cell_length_b 12.933093
_cell_length_c 14.120360
_cell_angle_alpha 90.000000
_cell_angle_beta 90.000000
_cell_angle_gamma 90.000000
_cell_volume 3040.075238
_symmetry_space_group_name_H-M "C 2 2 21"
_symmetry_group_IT_number 20
_symmetry_cell_setting 'orthorhombic'
loop_
_space_group_symop_operation_xyz
x,y,z
-x,-y,1/2+z
x,-y,-z
-x,y,1/2-z
1/2+x,1/2+y,z
1/2-x,1/2-y,1/2+z
1/2+x,1/2-y,-z
1/2-x,1/2+y,1/2-z
loop_
_atom_site_type_symbol
_atom_site_label
_atom_site_fract_x
_atom_site_fract_y
_atom_site_fract_z
Si Si1 0.330518 0.330621 0.147176
Si Si2 0.085307 0.831200 0.743499
Si Si3 0.459690 0.889039 0.532953
Si Si4 0.146543 0.336678 0.795182
Si Si5 0.605124 0.253570 0.531013
Si Si6 0.274178 0.664350 0.569024
Si Si7 0.849479 0.272499 0.406044
Si Si8 0.779362 0.011671 0.278556
O O1 0.373543 0.240505 0.208391
O O2 0.238515 0.294488 0.133735
O O3 0.320559 0.436799 0.201808
O O4 0.373203 0.339958 0.046502
O O5 0.098087 0.795784 0.636894
O O6 0.087689 0.739226 0.820378
O O7 0.158302 0.895820 0.784831
O O8 0.000000 0.886478 0.750000
O O9 0.427530 0.873742 0.639858
O O10 0.526203 0.805260 0.503866
O O11 0.380986 0.867041 0.469050
O O12 0.490893 0.000000 0.500000
O O13 0.202971 0.260231 0.860148
O O14 0.197034 0.434913 0.756747
O O15 0.684280 0.181171 0.530937
O O16 0.336923 0.679780 0.482861
O O17 0.274627 0.558691 0.627965
#
# Coordination Sequence:
#
# PCOD9318530 Si02
#       8
#     8   8   8   8   8   8   8   8
#     4  10  22  41  67  92 125 176 215 276 320 383
#     4  12  23  42  64  94 129 173 213 270 329 399
#     4  11  24  40  64  98 129 172 219 273 341 398
#     4  10  20  41  65  94 131 163 222 273 329 389
#     4  11  23  43  62  91 137 169 216 272 338 383
#     4   9  21  40  68  95 125 171 217 273 325 390
#     4  10  20  43  66  91 131 167 212 276 333 380
#     4  11  21  41  68  98 124 171 231 260 325 411
#
# _framework density 21.052112000000001
#
# number of rings (size 3 to 8) (size 9 to 14) (size 15 to 20)
#    0.000    1.500    3.750    1.500    0.000    2.500 
#    6.750    2.500    0.000    0.000    0.000    0.000 
#    0.000    0.000    0.000    0.000    0.000    0.000 
#
# Total GULP energy -178509.755090 kJ/mol
# GULP energy per Si atom -5578.429847 kJ/mol
# Density = 2.100420 g / cm^3
# Si number density = 21.052112 Si / 1000 Ang^3
#
#
#
# Elastic Constant Matrix: (Units=GPa)
#
#
# Indices 1 2 3 4 5 6 
#
# 1 46.8398 -12.2478 5.9022 0.0000 0.0000 0.0000
# 2 -12.2478 40.1045 9.0110 0.0000 0.0000 0.0000
# 3 5.9022 9.0110 114.0515 0.0000 0.0000 0.0000
# 4 0.0000 0.0000 0.0000 14.7876 0.0000 0.0000
# 5 0.0000 0.0000 0.0000 0.0000 19.4062 0.0000
# 6 0.0000 0.0000 0.0000 0.0000 0.0000 15.0793
#
#
#
# Elastic Compliance Matrix: (Units=1/GPa)
#
#
# Indices 1 2 3 4 5 6 
#
# 1 0.023568 0.007607 -0.001821 0.000000 0.000000 0.000000
# 2 0.007607 0.027841 -0.002593 0.000000 0.000000 0.000000
# 3 -0.001821 -0.002593 0.009067 0.000000 0.000000 0.000000
# 4 0.000000 0.000000 0.000000 0.067624 0.000000 0.000000
# 5 0.000000 0.000000 0.000000 0.000000 0.051530 0.000000
# 6 0.000000 0.000000 0.000000 0.000000 0.000000 0.066316
#
#
# Mechanical properties :
#
#
# Convention : Reuss Voigt Hill
#
# Bulk Modulus (GPa) = 14.95644 22.92518 18.94081
# Shear Modulus (GPa) = 19.09509 23.07663 21.08586
#
# Velocity S-wave (km/s) = 3.01498 3.31443 3.16825
# Velocity P-wave (km/s) = 4.38634 5.05576 4.73290
#
# Compressibility (1/GPa) = 0.06686083
#
# Stress axis : x y z
#
# Youngs Moduli (GPa) = 42.43078 35.91883 110.28916
#
# Poissons Ratio (x) = -0.27322 0.20080
# Poissons Ratio (y) = -0.32275 0.28601
# Poissons Ratio (z) = 0.07725 0.09315
#
# Static dielectric constant tensor:
#      x y z
#    x 1.769940 0.000000 0.000000 
#    y 0.000000 1.795890 0.000000 
#    z 0.000000 0.000000 1.820560 
# 
# From -- ./inp_files/21482.got.cif
#   From: 2010.05.17/outbox.cif.g08.bks.cpg/sg20_11_cif.got.tgz:21482.got - 2010.06.03 22:52:26.
