data_PCOD9318131
_publ_section_title
;
Structure prediction by ZEFSAII (Michael W. Deem and Ramdas Pophale) SiO2 
 PCOD9318131
Probable space group: C 2 2 21
;
_chemical_formula_sum "Si O2"
_cell_formula_units_Z 48
_cell_length_a 19.601160
_cell_length_b 11.923020
_cell_length_c 11.011928
_cell_angle_alpha 90.000000
_cell_angle_beta 90.000000
_cell_angle_gamma 90.000000
_cell_volume 2573.542883
_symmetry_space_group_name_H-M "C 2 2 21"
_symmetry_group_IT_number 20
_symmetry_cell_setting 'orthorhombic'
loop_
_space_group_symop_operation_xyz
x,y,z
-x,-y,1/2+z
x,-y,-z
-x,y,1/2-z
1/2+x,1/2+y,z
1/2-x,1/2-y,1/2+z
1/2+x,1/2-y,-z
1/2-x,1/2+y,1/2-z
loop_
_atom_site_type_symbol
_atom_site_label
_atom_site_fract_x
_atom_site_fract_y
_atom_site_fract_z
Si Si1 0.635047 0.925057 0.741945
Si Si2 0.050972 0.609036 0.863200
Si Si3 0.443744 0.000000 0.000000
Si Si4 0.223671 0.007857 0.141370
Si Si5 0.588595 0.646397 0.088147
Si Si6 0.883420 0.834818 0.303998
Si Si7 0.500000 0.508462 0.750000
O O1 0.600158 0.965463 0.615854
O O2 0.715111 0.947380 0.722926
O O3 0.619699 0.794979 0.767921
O O4 0.602410 0.005504 0.844705
O O5 0.087582 0.726921 0.866432
O O6 0.000000 0.604964 0.750000
O O7 0.997615 0.599223 0.973233
O O8 0.157916 0.088346 0.133765
O O9 0.191547 0.891718 0.191038
O O10 0.246750 0.000000 0.000000
O O11 0.526391 0.574542 0.143698
O O12 0.589660 0.650103 0.942404
O O13 0.935925 0.909048 0.224313
#
# Coordination Sequence:
#
# PCOD9318131 Si02
#       7
#     8   8   4   8   8   8   4
#     4  11  22  38  61  89 122 161 203 255 299 373
#     4  10  21  34  58  89 115 154 195 251 307 347
#     4  10  22  38  58  90 122 152 206 246 306 362
#     4   9  20  40  58  84 117 166 202 242 309 352
#     4  10  20  40  61  87 123 158 200 252 300 369
#     4  10  23  36  63  89 121 161 202 248 306 361
#     4  10  20  38  60  88 116 158 198 240 306 356
#
# _framework density 18.651332
#
# number of rings (size 3 to 8) (size 9 to 14) (size 15 to 20)
#    0.000    2.000    1.667    2.500    8.167    0.000 
#    0.000    0.000    0.000    0.000    4.333    0.000 
#    0.000    0.000    0.000    0.000    0.000    0.000 
#
# Total GULP energy -133752.961913 kJ/mol
# GULP energy per Si atom -5573.040080 kJ/mol
# Density = 1.860888 g / cm^3
# Si number density = 18.651332 Si / 1000 Ang^3
#
#
#
# Elastic Constant Matrix: (Units=GPa)
#
#
# Indices 1 2 3 4 5 6 
#
# 1 91.5765 47.4154 49.9086 0.0000 0.0000 0.0000
# 2 47.4154 152.2758 31.4417 0.0000 0.0000 0.0000
# 3 49.9086 31.4417 43.2572 0.0000 0.0000 0.0000
# 4 0.0000 0.0000 0.0000 24.8163 0.0000 0.0000
# 5 0.0000 0.0000 0.0000 0.0000 19.6760 0.0000
# 6 0.0000 0.0000 0.0000 0.0000 0.0000 23.4873
#
#
#
# Elastic Compliance Matrix: (Units=1/GPa)
#
#
# Indices 1 2 3 4 5 6 
#
# 1 0.030271 -0.002605 -0.033032 0.000000 0.000000 0.000000
# 2 -0.002605 0.007951 -0.002773 0.000000 0.000000 0.000000
# 3 -0.033032 -0.002773 0.063244 0.000000 0.000000 0.000000
# 4 0.000000 0.000000 0.000000 0.040296 0.000000 0.000000
# 5 0.000000 0.000000 0.000000 0.000000 0.050823 0.000000
# 6 0.000000 0.000000 0.000000 0.000000 0.000000 0.042576
#
#
# Mechanical properties :
#
#
# Convention : Reuss Voigt Hill
#
# Bulk Modulus (GPa) = 40.57565 60.51563 50.54564
# Shear Modulus (GPa) = 15.61540 24.15220 19.88380
#
# Velocity S-wave (km/s) = 2.89663 3.60242 3.26863
# Velocity P-wave (km/s) = 5.74363 7.05829 6.43462
#
# Compressibility (1/GPa) = 0.02464532
#
# Stress axis : x y z
#
# Youngs Moduli (GPa) = 33.03511 125.77215 15.81178
#
# Poissons Ratio (x) = 0.32768 0.52229
# Poissons Ratio (y) = 0.08607 0.04385
# Poissons Ratio (z) = 1.09120 0.34879
#
# Static dielectric constant tensor:
#      x y z
#    x 1.638800 0.000000 0.000000 
#    y 0.000000 1.661180 0.000000 
#    z 0.000000 0.000000 1.690210 
# 
# From -- ./inp_files/15754.got.cif
#   From: 2010.05.17/outbox.cif.g08.bks.cpg/sg20_8_cif.got.tgz:15754.got - 2010.06.03 22:52:26.
