data_PCOD9318862
_publ_section_title
;
Structure prediction by ZEFSAII (Michael W. Deem and Ramdas Pophale) SiO2 
 PCOD9318862
Probable space group: C 2 2 21
;
_chemical_formula_sum "Si O2"
_cell_formula_units_Z 40
_cell_length_a 19.522276
_cell_length_b 9.565566
_cell_length_c 10.325143
_cell_angle_alpha 90.000000
_cell_angle_beta 90.000000
_cell_angle_gamma 90.000000
_cell_volume 1928.133926
_symmetry_space_group_name_H-M "C 2 2 21"
_symmetry_group_IT_number 20
_symmetry_cell_setting 'orthorhombic'
loop_
_space_group_symop_operation_xyz
x,y,z
-x,-y,1/2+z
x,-y,-z
-x,y,1/2-z
1/2+x,1/2+y,z
1/2-x,1/2-y,1/2+z
1/2+x,1/2-y,-z
1/2-x,1/2+y,1/2-z
loop_
_atom_site_type_symbol
_atom_site_label
_atom_site_fract_x
_atom_site_fract_y
_atom_site_fract_z
Si Si1 0.537360 0.398163 0.874533
Si Si2 0.332129 0.115633 0.113070
Si Si3 0.684058 0.345017 0.943081
Si Si4 0.974893 0.336478 0.964129
Si Si5 0.879382 0.613482 0.386494
O O1 0.500000 0.461300 0.750000
O O2 0.616359 0.352052 0.853094
O O3 0.496158 0.259125 0.915285
O O4 0.535751 0.500000 0.000000
O O5 0.258091 0.189074 0.116403
O O6 0.349337 0.053921 0.254121
O O7 0.399982 0.207712 0.085189
O O8 0.328860 0.000000 0.000000
O O9 0.689080 0.500000 0.000000
O O10 0.665545 0.240728 0.059484
O O11 0.968664 0.500000 0.000000
O O12 0.042391 0.332685 0.873602
O O13 0.879620 0.500000 0.500000
#
# Coordination Sequence:
#
# PCOD9318862 Si02
#       5
#     8   8   8   8   8
#     4  10  22  40  61  85 116 154 196 239 286 341
#     4  10  21  37  60  87 116 150 191 236 288 347
#     4   9  21  38  55  80 119 154 183 232 289 336
#     4   9  20  36  59  86 114 149 191 235 283 341
#     4  10  21  37  59  86 116 149 190 240 290 337
#
# _framework density 20.745446999999999
#
# number of rings (size 3 to 8) (size 9 to 14) (size 15 to 20)
#    0.000    2.400    0.000    0.600    0.000   19.200 
#    0.000    2.000    0.000    0.000    0.000    0.000 
#    0.000    0.000    0.000    0.000    0.000    0.000 
#
# Total GULP energy -111419.611776 kJ/mol
# GULP energy per Si atom -5570.980589 kJ/mol
# Density = 2.069823 g / cm^3
# Si number density = 20.745447 Si / 1000 Ang^3
#
#
#
# Elastic Constant Matrix: (Units=GPa)
#
#
# Indices 1 2 3 4 5 6 
#
# 1 205.9365 16.2958 69.0803 0.0000 0.0000 0.0000
# 2 16.2958 59.9181 9.7702 0.0000 0.0000 0.0000
# 3 69.0803 9.7702 119.9682 0.0000 0.0000 0.0000
# 4 0.0000 0.0000 0.0000 21.5991 0.0000 0.0000
# 5 0.0000 0.0000 0.0000 0.0000 24.7168 0.0000
# 6 0.0000 0.0000 0.0000 0.0000 0.0000 30.0859
#
#
#
# Elastic Compliance Matrix: (Units=1/GPa)
#
#
# Indices 1 2 3 4 5 6 
#
# 1 0.006089 -0.001099 -0.003417 0.000000 0.000000 0.000000
# 2 -0.001099 0.017112 -0.000761 0.000000 0.000000 0.000000
# 3 -0.003417 -0.000761 0.010365 0.000000 0.000000 0.000000
# 4 0.000000 0.000000 0.000000 0.046298 0.000000 0.000000
# 5 0.000000 0.000000 0.000000 0.000000 0.040458 0.000000
# 6 0.000000 0.000000 0.000000 0.000000 0.000000 0.033238
#
#
# Mechanical properties :
#
#
# Convention : Reuss Voigt Hill
#
# Bulk Modulus (GPa) = 43.45292 64.01282 53.73287
# Shear Modulus (GPa) = 29.10617 34.65878 31.88247
#
# Velocity S-wave (km/s) = 3.74975 4.09182 3.92451
# Velocity P-wave (km/s) = 6.30386 7.29707 6.81858
#
# Compressibility (1/GPa) = 0.02301341
#
# Stress axis : x y z
#
# Youngs Moduli (GPa) = 164.23294 58.43721 96.47965
#
# Poissons Ratio (x) = 0.06422 0.32964
# Poissons Ratio (y) = 0.18047 0.07341
# Poissons Ratio (z) = 0.56112 0.04446
#
# Static dielectric constant tensor:
#      x y z
#    x 1.820550 0.000000 0.000000 
#    y 0.000000 1.730080 0.000000 
#    z 0.000000 0.000000 1.772080 
# 
# From -- ./inp_files/9130.got.cif
#   From: 2010.05.17/outbox.cif.g08.bks.cpg/sg20_5_cif.got.tgz:9130.got - 2010.06.03 22:52:26.
