data_PCOD9318004
_publ_section_title
;
Structure prediction by ZEFSAII (Michael W. Deem and Ramdas Pophale) SiO2 
 PCOD9318004
Probable space group: C 2 2 21
;
_chemical_formula_sum "Si O2"
_cell_formula_units_Z 32
_cell_length_a 23.588620
_cell_length_b 13.255959
_cell_length_c 4.867407
_cell_angle_alpha 90.000000
_cell_angle_beta 90.000000
_cell_angle_gamma 90.000000
_cell_volume 1521.988422
_symmetry_space_group_name_H-M "C 2 2 21"
_symmetry_group_IT_number 20
_symmetry_cell_setting 'orthorhombic'
loop_
_space_group_symop_operation_xyz
x,y,z
-x,-y,1/2+z
x,-y,-z
-x,y,1/2-z
1/2+x,1/2+y,z
1/2-x,1/2-y,1/2+z
1/2+x,1/2-y,-z
1/2-x,1/2+y,1/2-z
loop_
_atom_site_type_symbol
_atom_site_label
_atom_site_fract_x
_atom_site_fract_y
_atom_site_fract_z
Si Si1 0.602899 0.714214 0.678594
Si Si2 0.714559 0.768684 0.947827
Si Si3 0.865815 0.567418 0.259239
Si Si4 0.562610 0.598183 0.149885
O O1 0.664407 0.699276 0.824792
O O2 0.600026 0.835145 0.645278
O O3 0.594662 0.648389 0.406889
O O4 0.559067 0.680506 0.910650
O O5 0.769679 0.751003 0.760810
O O6 0.688858 0.879468 0.899078
O O7 0.893274 0.500000 0.500000
O O8 0.850880 0.500000 0.000000
O O9 0.500000 0.569855 0.250000
O O10 0.588428 0.500000 0.000000
#
# Coordination Sequence:
#
# PCOD9318004 Si02
#       4
#     8   8   8   8
#     4  10  23  38  65  89 126 166 208 264 311 391
#     4  10  20  37  60  87 128 161 208 264 311 377
#     4  10  20  37  63  87 116 168 205 241 314 388
#     4  12  23  42  65  93 124 169 214 263 331 393
#
# _framework density 21.025126
#
# number of rings (size 3 to 8) (size 9 to 14) (size 15 to 20)
#    1.500    0.000    0.000    7.500    0.000    0.000 
#    0.000   12.500    0.000   15.000    0.000    0.000 
#    0.000    0.000    0.000    0.000    0.000    0.000 
#
# Total GULP energy -89166.262787 kJ/mol
# GULP energy per Si atom -5572.891424 kJ/mol
# Density = 2.097727 g / cm^3
# Si number density = 21.025126 Si / 1000 Ang^3
#
#
#
# Elastic Constant Matrix: (Units=GPa)
#
#
# Indices 1 2 3 4 5 6 
#
# 1 31.0576 6.4191 9.0279 0.0000 0.0000 0.0000
# 2 6.4191 97.5707 21.1237 0.0000 0.0000 0.0000
# 3 9.0279 21.1237 93.2346 0.0000 0.0000 0.0000
# 4 0.0000 0.0000 0.0000 33.7977 0.0000 0.0000
# 5 0.0000 0.0000 0.0000 0.0000 35.9551 0.0000
# 6 0.0000 0.0000 0.0000 0.0000 0.0000 15.8370
#
#
#
# Elastic Compliance Matrix: (Units=1/GPa)
#
#
# Indices 1 2 3 4 5 6 
#
# 1 0.033359 -0.001572 -0.002874 0.000000 0.000000 0.000000
# 2 -0.001572 0.010852 -0.002306 0.000000 0.000000 0.000000
# 3 -0.002874 -0.002306 0.011526 0.000000 0.000000 0.000000
# 4 0.000000 0.000000 0.000000 0.029588 0.000000 0.000000
# 5 0.000000 0.000000 0.000000 0.000000 0.027812 0.000000
# 6 0.000000 0.000000 0.000000 0.000000 0.000000 0.063143
#
#
# Mechanical properties :
#
#
# Convention : Reuss Voigt Hill
#
# Bulk Modulus (GPa) = 23.67904 32.77828 28.22866
# Shear Modulus (GPa) = 24.52629 29.47077 26.99853
#
# Velocity S-wave (km/s) = 3.41914 3.74798 3.58733
# Velocity P-wave (km/s) = 5.18402 5.86120 5.53298
#
# Compressibility (1/GPa) = 0.04223145
#
# Stress axis : x y z
#
# Youngs Moduli (GPa) = 29.97724 92.15106 86.75702
#
# Poissons Ratio (x) = 0.14490 0.24933
# Poissons Ratio (y) = 0.04714 0.20009
# Poissons Ratio (z) = 0.08615 0.21253
#
# Static dielectric constant tensor:
#      x y z
#    x 1.810660 0.000000 0.000000 
#    y 0.000000 1.795220 0.000000 
#    z 0.000000 0.000000 1.743270 
# 
# From -- ./inp_files/3510.got.cif
#   From: 2010.05.17/outbox.cif.g08.bks.cpg/sg20_2_cif.got.tgz:3510.got - 2010.06.03 22:52:26.
