data_PCOD9318105
_publ_section_title
;
Structure prediction by ZEFSAII (Michael W. Deem and Ramdas Pophale) SiO2 
 PCOD9318105
Probable space group: C 2 2 21
;
_chemical_formula_sum "Si O2"
_cell_formula_units_Z 56
_cell_length_a 12.355722
_cell_length_b 21.156819
_cell_length_c 8.993375
_cell_angle_alpha 90.000000
_cell_angle_beta 90.000000
_cell_angle_gamma 90.000000
_cell_volume 2350.938139
_symmetry_space_group_name_H-M "C 2 2 21"
_symmetry_group_IT_number 20
_symmetry_cell_setting 'orthorhombic'
loop_
_space_group_symop_operation_xyz
x,y,z
-x,-y,1/2+z
x,-y,-z
-x,y,1/2-z
1/2+x,1/2+y,z
1/2-x,1/2-y,1/2+z
1/2+x,1/2-y,-z
1/2-x,1/2+y,1/2-z
loop_
_atom_site_type_symbol
_atom_site_label
_atom_site_fract_x
_atom_site_fract_y
_atom_site_fract_z
Si Si1 0.155256 0.284250 0.229692
Si Si2 0.114104 0.527331 0.833540
Si Si3 0.388707 0.845609 0.974031
Si Si4 0.122319 0.359490 0.977531
Si Si5 0.280739 0.450682 0.626687
Si Si6 0.892953 0.203626 0.846862
Si Si7 0.347938 0.644524 0.158481
O O1 0.097296 0.326617 0.353675
O O2 0.124685 0.291925 0.056764
O O3 0.281917 0.302122 0.244941
O O4 0.132495 0.211504 0.265741
O O5 0.151471 0.596669 0.882282
O O6 0.201498 0.491106 0.734830
O O7 0.000000 0.528165 0.750000
O O8 0.101963 0.500000 0.000000
O O9 0.293222 0.895580 0.949504
O O10 0.380602 0.776771 0.899673
O O11 0.503197 0.874725 0.922643
O O12 0.217632 0.362383 0.862250
O O13 0.319787 0.500000 0.500000
O O14 0.368619 0.414021 0.730374
O O15 0.000000 0.195798 0.750000
O O16 0.891084 0.156270 0.990117
#
# Coordination Sequence:
#
# PCOD9318105 Si02
#       7
#     8   8   8   8   8   8   8
#     4  10  20  38  58  87 128 167 219 279 341 402
#     4  12  23  37  55  89 134 178 224 259 309 417
#     4  11  22  36  60  92 136 180 213 260 348 415
#     4  11  21  37  58  88 135 176 213 267 338 417
#     4  12  24  39  59  91 139 190 228 266 328 413
#     4  10  21  38  63  88 127 178 233 287 357 400
#     4  10  22  38  58  88 130 178 229 290 328 413
#
# _framework density 23.820277999999998
#
# number of rings (size 3 to 8) (size 9 to 14) (size 15 to 20)
#    0.000    1.143    2.857    5.143    0.000    0.000 
#    0.000    0.000    0.000    0.000    0.000    0.000 
#   64.286    3.143    0.000    0.000    0.000    0.000 
#
# Total GULP energy -156431.708800 kJ/mol
# GULP energy per Si atom -5586.846743 kJ/mol
# Density = 2.376606 g / cm^3
# Si number density = 23.820278 Si / 1000 Ang^3
#
#
#
# Elastic Constant Matrix: (Units=GPa)
#
#
# Indices 1 2 3 4 5 6 
#
# 1 71.7202 9.6480 12.1767 0.0000 0.0000 0.0000
# 2 9.6480 91.8830 55.0384 0.0000 0.0000 0.0000
# 3 12.1767 55.0384 120.0993 0.0000 0.0000 0.0000
# 4 0.0000 0.0000 0.0000 43.2404 0.0000 0.0000
# 5 0.0000 0.0000 0.0000 0.0000 31.0155 0.0000
# 6 0.0000 0.0000 0.0000 0.0000 0.0000 10.0447
#
#
#
# Elastic Compliance Matrix: (Units=1/GPa)
#
#
# Indices 1 2 3 4 5 6 
#
# 1 0.014237 -0.000869 -0.001045 0.000000 0.000000 0.000000
# 2 -0.000869 0.015054 -0.006811 0.000000 0.000000 0.000000
# 3 -0.001045 -0.006811 0.011554 0.000000 0.000000 0.000000
# 4 0.000000 0.000000 0.000000 0.023127 0.000000 0.000000
# 5 0.000000 0.000000 0.000000 0.000000 0.032242 0.000000
# 6 0.000000 0.000000 0.000000 0.000000 0.000000 0.099555
#
#
# Mechanical properties :
#
#
# Convention : Reuss Voigt Hill
#
# Bulk Modulus (GPa) = 42.74358 48.60319 45.67339
# Shear Modulus (GPa) = 22.62257 30.64940 26.63599
#
# Velocity S-wave (km/s) = 3.08509 3.59094 3.34759
# Velocity P-wave (km/s) = 5.53837 6.13527 5.84445
#
# Compressibility (1/GPa) = 0.02339532
#
# Stress axis : x y z
#
# Youngs Moduli (GPa) = 70.23740 66.42551 86.55209
#
# Poissons Ratio (x) = 0.05771 0.09048
# Poissons Ratio (y) = 0.06102 0.58951
# Poissons Ratio (z) = 0.07342 0.45242
#
# Static dielectric constant tensor:
#      x y z
#    x 1.927490 0.000000 0.000000 
#    y 0.000000 2.186110 0.000000 
#    z 0.000000 0.000000 2.028130 
# 
# From -- ./inp_files/8723.got.cif
#   From: 2010.05.17/outbox.cif.g08.bks.cpg/sg20_5_cif.got.tgz:8723.got - 2010.06.03 22:52:26.
