data_PCOD9318607
_publ_section_title
;
Structure prediction by ZEFSAII (Michael W. Deem and Ramdas Pophale) SiO2 
 PCOD9318607
Probable space group: C 2 2 21
;
_chemical_formula_sum "Si O2"
_cell_formula_units_Z 60
_cell_length_a 29.400071
_cell_length_b 11.108871
_cell_length_c 9.338846
_cell_angle_alpha 90.000000
_cell_angle_beta 90.000000
_cell_angle_gamma 90.000000
_cell_volume 3050.082010
_symmetry_space_group_name_H-M "C 2 2 21"
_symmetry_group_IT_number 20
_symmetry_cell_setting 'orthorhombic'
loop_
_space_group_symop_operation_xyz
x,y,z
-x,-y,1/2+z
x,-y,-z
-x,y,1/2-z
1/2+x,1/2+y,z
1/2-x,1/2-y,1/2+z
1/2+x,1/2-y,-z
1/2-x,1/2+y,1/2-z
loop_
_atom_site_type_symbol
_atom_site_label
_atom_site_fract_x
_atom_site_fract_y
_atom_site_fract_z
Si Si1 0.043524 0.138395 0.952154
Si Si2 0.781888 0.625452 0.963954
Si Si3 0.384432 0.758852 0.759502
Si Si4 0.560675 0.362767 0.489816
Si Si5 0.785870 0.285286 0.709095
Si Si6 0.451059 0.791241 0.263591
Si Si7 0.190707 0.500000 0.000000
Si Si8 0.135033 0.453940 0.264598
O O1 0.076653 0.194018 0.833596
O O2 0.989439 0.142245 0.916392
O O3 0.051760 0.227947 0.084439
O O4 0.053186 0.000000 0.000000
O O5 0.754046 0.702833 0.850177
O O6 0.829360 0.586783 0.887139
O O7 0.757378 0.500000 0.000000
O O8 0.784287 0.686839 0.120580
O O9 0.399927 0.714703 0.915765
O O10 0.335278 0.722427 0.696928
O O11 0.378569 0.904304 0.764297
O O12 0.575418 0.500000 0.500000
O O13 0.550828 0.313799 0.647086
O O14 0.784832 0.405519 0.607584
O O15 0.500000 0.854036 0.250000
O O16 0.410796 0.880388 0.229639
O O17 0.159258 0.428428 0.112100
#
# Coordination Sequence:
#
# PCOD9318607 Si02
#       8
#     8   8   8   8   8   8   4   8
#     4  10  21  38  61  90 131 173 215 268 323 384
#     4  12  24  46  69  94 128 176 216 274 343 404
#     4  11  22  40  64  95 122 169 217 266 327 397
#     4  10  21  38  61  89 128 174 218 264 324 389
#     4  11  25  41  70  96 128 167 228 273 339 405
#     4  10  21  35  58  92 126 167 214 265 318 384
#     4  10  20  42  68  94 122 172 214 268 338 402
#     4  11  23  41  66  91 134 171 214 270 341 400
#
# _framework density 19.671602
#
# number of rings (size 3 to 8) (size 9 to 14) (size 15 to 20)
#    0.000    1.333    2.667    4.400    0.000    3.733 
#    0.000    6.667    1.467    0.000    0.000    0.000 
#    0.000    0.000    0.000    0.000    0.000    0.000 
#
# Total GULP energy -167227.980067 kJ/mol
# GULP energy per Si atom -5574.266002 kJ/mol
# Density = 1.962683 g / cm^3
# Si number density = 19.671602 Si / 1000 Ang^3
#
#
#
# Elastic Constant Matrix: (Units=GPa)
#
#
# Indices 1 2 3 4 5 6 
#
# 1 100.8141 63.4609 37.2690 0.0000 0.0000 0.0000
# 2 63.4609 86.6950 24.1084 0.0000 0.0000 0.0000
# 3 37.2690 24.1084 111.8138 0.0000 0.0000 0.0000
# 4 0.0000 0.0000 0.0000 21.9090 0.0000 0.0000
# 5 0.0000 0.0000 0.0000 0.0000 32.7820 0.0000
# 6 0.0000 0.0000 0.0000 0.0000 0.0000 32.3831
#
#
#
# Elastic Compliance Matrix: (Units=1/GPa)
#
#
# Indices 1 2 3 4 5 6 
#
# 1 0.019725 -0.013415 -0.003682 0.000000 0.000000 0.000000
# 2 -0.013415 0.021394 -0.000141 0.000000 0.000000 0.000000
# 3 -0.003682 -0.000141 0.010201 0.000000 0.000000 0.000000
# 4 0.000000 0.000000 0.000000 0.045643 0.000000 0.000000
# 5 0.000000 0.000000 0.000000 0.000000 0.030505 0.000000
# 6 0.000000 0.000000 0.000000 0.000000 0.000000 0.030880
#
#
# Mechanical properties :
#
#
# Convention : Reuss Voigt Hill
#
# Bulk Modulus (GPa) = 59.37145 60.99995 60.18570
# Shear Modulus (GPa) = 25.19672 29.04714 27.12193
#
# Velocity S-wave (km/s) = 3.58280 3.84683 3.71716
# Velocity P-wave (km/s) = 6.88202 7.12792 7.00605
#
# Compressibility (1/GPa) = 0.01684311
#
# Stress axis : x y z
#
# Youngs Moduli (GPa) = 50.69765 46.74306 98.02722
#
# Poissons Ratio (x) = 0.62704 0.36095
# Poissons Ratio (y) = 0.68009 0.01386
# Poissons Ratio (z) = 0.18668 0.00661
#
# Static dielectric constant tensor:
#      x y z
#    x 1.699000 0.000000 0.000000 
#    y 0.000000 1.689240 0.000000 
#    z 0.000000 0.000000 1.735200 
# 
# From -- ./inp_files/11148.got.cif
#   From: 2010.05.17/outbox.cif.g08.bks.cpg/sg20_6_cif.got.tgz:11148.got - 2010.06.03 22:52:26.
