data_PCOD9318188
_publ_section_title
;
Structure prediction by ZEFSAII (Michael W. Deem and Ramdas Pophale) SiO2 
 PCOD9318188
Probable space group: C 2 2 21
;
_chemical_formula_sum "Si O2"
_cell_formula_units_Z 64
_cell_length_a 8.775787
_cell_length_b 11.311724
_cell_length_c 29.328972
_cell_angle_alpha 90.000000
_cell_angle_beta 90.000000
_cell_angle_gamma 90.000000
_cell_volume 2911.465946
_symmetry_space_group_name_H-M "C 2 2 21"
_symmetry_group_IT_number 20
_symmetry_cell_setting 'orthorhombic'
loop_
_space_group_symop_operation_xyz
x,y,z
-x,-y,1/2+z
x,-y,-z
-x,y,1/2-z
1/2+x,1/2+y,z
1/2-x,1/2-y,1/2+z
1/2+x,1/2-y,-z
1/2-x,1/2+y,1/2-z
loop_
_atom_site_type_symbol
_atom_site_label
_atom_site_fract_x
_atom_site_fract_y
_atom_site_fract_z
Si Si1 0.233957 0.326605 0.959920
Si Si2 0.039020 0.163667 0.700133
Si Si3 0.954518 0.977335 0.067990
Si Si4 0.795861 0.407426 0.359236
Si Si5 0.311579 0.829959 0.646087
Si Si6 0.824746 0.832596 0.610496
Si Si7 0.495323 0.615094 0.302110
Si Si8 0.081887 0.719687 0.462589
O O1 0.342572 0.438921 0.959922
O O2 0.224605 0.294878 0.906151
O O3 0.062919 0.358311 0.973989
O O4 0.301937 0.233696 0.995774
O O5 0.934593 0.240201 0.666305
O O6 0.000000 0.213511 0.750000
O O7 0.216530 0.151698 0.685093
O O8 0.993411 0.026520 0.701073
O O9 0.853377 0.942711 0.111698
O O10 0.988239 0.851725 0.045516
O O11 0.087068 0.065453 0.083294
O O12 0.873995 0.533751 0.351833
O O13 0.880532 0.305781 0.388255
O O14 0.150655 0.837658 0.673475
O O15 0.854767 0.863215 0.663316
O O16 0.665535 0.820851 0.583702
O O17 0.500000 0.660910 0.250000
#
# Coordination Sequence:
#
# PCOD9318188 Si02
#       8
#     8   8   8   8   8   8   8   8
#     4  11  22  41  65  93 127 172 216 266 332 393
#     4  10  20  38  63  91 128 176 220 269 326 393
#     4  10  20  43  63  88 130 172 212 269 332 385
#     4   9  20  37  61  88 128 166 213 267 333 378
#     4  10  20  40  64  90 130 170 215 271 328 395
#     4  11  20  41  68  93 129 174 215 276 327 392
#     4  10  22  40  64  93 126 174 221 267 332 394
#     4  11  25  40  68  94 132 170 224 271 334 404
#
# _framework density 21.982053000000001
#
# number of rings (size 3 to 8) (size 9 to 14) (size 15 to 20)
#    0.000    1.750    3.750    2.625    1.750    0.000 
#    0.000   13.125    0.000    0.000    0.000    0.000 
#    0.000    0.000    0.000    0.000    0.000    0.000 
#
# Total GULP energy -178191.417383 kJ/mol
# GULP energy per Si atom -5568.481793 kJ/mol
# Density = 2.193202 g / cm^3
# Si number density = 21.982053 Si / 1000 Ang^3
#
#
#
# Elastic Constant Matrix: (Units=GPa)
#
#
# Indices 1 2 3 4 5 6 
#
# 1 44.0609 34.0040 33.7113 0.0000 0.0000 0.0000
# 2 34.0040 71.3407 11.2020 0.0000 0.0000 0.0000
# 3 33.7113 11.2020 137.5276 0.0000 0.0000 0.0000
# 4 0.0000 0.0000 0.0000 33.5404 0.0000 0.0000
# 5 0.0000 0.0000 0.0000 0.0000 29.1264 0.0000
# 6 0.0000 0.0000 0.0000 0.0000 0.0000 32.3182
#
#
#
# Elastic Compliance Matrix: (Units=1/GPa)
#
#
# Indices 1 2 3 4 5 6 
#
# 1 0.045612 -0.020244 -0.009532 0.000000 0.000000 0.000000
# 2 -0.020244 0.023184 0.003074 0.000000 0.000000 0.000000
# 3 -0.009532 0.003074 0.009357 0.000000 0.000000 0.000000
# 4 0.000000 0.000000 0.000000 0.029815 0.000000 0.000000
# 5 0.000000 0.000000 0.000000 0.000000 0.034333 0.000000
# 6 0.000000 0.000000 0.000000 0.000000 0.000000 0.030942
#
#
# Mechanical properties :
#
#
# Convention : Reuss Voigt Hill
#
# Bulk Modulus (GPa) = 40.40471 45.64042 43.02256
# Shear Modulus (GPa) = 21.28605 30.59782 25.94193
#
# Velocity S-wave (km/s) = 3.11519 3.73493 3.43905
# Velocity P-wave (km/s) = 5.59999 6.27752 5.94841
#
# Compressibility (1/GPa) = 0.02474959
#
# Stress axis : x y z
#
# Youngs Moduli (GPa) = 21.92419 43.13392 106.86834
#
# Poissons Ratio (x) = 0.87319 1.01863
# Poissons Ratio (y) = 0.44383 -0.32850
# Poissons Ratio (z) = 0.20897 -0.13259
#
# Static dielectric constant tensor:
#      x y z
#    x 1.826540 0.000000 0.000000 
#    y 0.000000 1.854060 0.000000 
#    z 0.000000 0.000000 1.909160 
# 
# From -- ./inp_files/31065.got.cif
#   From: 2010.05.17/outbox.cif.g08.bks.cpg/sg20_16_cif.got.tgz:31065.got - 2010.06.03 22:52:26.
