data_PCOD9318946
_publ_section_title
;
Structure prediction by ZEFSAII (Michael W. Deem and Ramdas Pophale) SiO2 
 PCOD9318946
Probable space group: C 2 2 21
;
_chemical_formula_sum "Si O2"
_cell_formula_units_Z 60
_cell_length_a 17.173021
_cell_length_b 7.170443
_cell_length_c 22.327315
_cell_angle_alpha 90.000000
_cell_angle_beta 90.000000
_cell_angle_gamma 90.000000
_cell_volume 2749.344670
_symmetry_space_group_name_H-M "C 2 2 21"
_symmetry_group_IT_number 20
_symmetry_cell_setting 'orthorhombic'
loop_
_space_group_symop_operation_xyz
x,y,z
-x,-y,1/2+z
x,-y,-z
-x,y,1/2-z
1/2+x,1/2+y,z
1/2-x,1/2-y,1/2+z
1/2+x,1/2-y,-z
1/2-x,1/2+y,1/2-z
loop_
_atom_site_type_symbol
_atom_site_label
_atom_site_fract_x
_atom_site_fract_y
_atom_site_fract_z
Si Si1 0.443696 0.433470 0.115574
Si Si2 0.893445 0.552649 0.616438
Si Si3 0.278827 0.830082 0.677492
Si Si4 0.546105 0.059575 0.438127
Si Si5 0.674459 0.237409 0.577763
Si Si6 0.712484 0.000000 0.000000
Si Si7 0.332295 0.364728 0.212647
Si Si8 0.565161 0.373121 0.798625
O O1 0.391265 0.607289 0.094290
O O2 0.396504 0.309458 0.164611
O O3 0.518058 0.511462 0.150710
O O4 0.454422 0.282779 0.063974
O O5 0.860040 0.364263 0.645630
O O6 0.842348 0.572990 0.555196
O O7 0.888362 0.716666 0.665086
O O8 0.985432 0.522717 0.608884
O O9 0.226130 0.697498 0.637042
O O10 0.291833 0.784359 0.745998
O O11 0.231751 0.022758 0.675841
O O12 0.627980 0.951164 0.436521
O O13 0.508241 0.000000 0.500000
O O14 0.731494 0.337909 0.528976
O O15 0.376727 0.501729 0.259146
O O16 0.500000 0.304103 0.750000
#
# Coordination Sequence:
#
# PCOD9318946 Si02
#       8
#     8   8   8   8   8   4   8   8
#     4  10  22  40  66  93 128 167 216 277 327 392
#     4  11  22  41  66  94 131 178 219 278 334 397
#     4  10  22  37  62  91 131 169 210 271 334 400
#     4  12  24  40  68  95 123 170 230 266 327 398
#     4  10  22  43  63  89 129 171 214 275 328 391
#     4  10  22  44  66  90 140 174 218 282 340 394
#     4  10  21  38  60  92 128 168 212 269 336 400
#     4  10  21  40  65  96 132 168 220 278 339 397
#
# _framework density 21.823381999999999
#
# number of rings (size 3 to 8) (size 9 to 14) (size 15 to 20)
#    0.000    1.600    2.000    2.400    1.867    1.067 
#    2.400    0.000    2.933    0.000    0.000    0.000 
#    0.000    0.000    0.000    0.000    0.000    0.000 
#
# Total GULP energy -167269.432875 kJ/mol
# GULP energy per Si atom -5575.647763 kJ/mol
# Density = 2.177371 g / cm^3
# Si number density = 21.823382 Si / 1000 Ang^3
#
#
#
# Elastic Constant Matrix: (Units=GPa)
#
#
# Indices 1 2 3 4 5 6 
#
# 1 87.9011 20.1364 12.1416 0.0000 0.0000 0.0000
# 2 20.1364 33.3755 10.6648 0.0000 0.0000 0.0000
# 3 12.1416 10.6648 52.4044 0.0000 0.0000 0.0000
# 4 0.0000 0.0000 0.0000 41.9057 0.0000 0.0000
# 5 0.0000 0.0000 0.0000 0.0000 30.5202 0.0000
# 6 0.0000 0.0000 0.0000 0.0000 0.0000 12.7526
#
#
#
# Elastic Compliance Matrix: (Units=1/GPa)
#
#
# Indices 1 2 3 4 5 6 
#
# 1 0.013318 -0.007539 -0.001551 0.000000 0.000000 0.000000
# 2 -0.007539 0.036314 -0.005644 0.000000 0.000000 0.000000
# 3 -0.001551 -0.005644 0.020590 0.000000 0.000000 0.000000
# 4 0.000000 0.000000 0.000000 0.023863 0.000000 0.000000
# 5 0.000000 0.000000 0.000000 0.000000 0.032765 0.000000
# 6 0.000000 0.000000 0.000000 0.000000 0.000000 0.078415
#
#
# Mechanical properties :
#
#
# Convention : Reuss Voigt Hill
#
# Bulk Modulus (GPa) = 24.53745 28.84074 26.68910
# Shear Modulus (GPa) = 20.13540 25.75158 22.94349
#
# Velocity S-wave (km/s) = 3.04081 3.43884 3.24593
# Velocity P-wave (km/s) = 4.85765 5.38625 5.12877
#
# Compressibility (1/GPa) = 0.04075402
#
# Stress axis : x y z
#
# Youngs Moduli (GPa) = 75.08737 27.53743 48.56657
#
# Poissons Ratio (x) = 0.20761 0.07534
# Poissons Ratio (y) = 0.56611 0.27409
# Poissons Ratio (z) = 0.11648 0.15541
#
# Static dielectric constant tensor:
#      x y z
#    x 1.808960 0.000000 0.000000 
#    y 0.000000 1.814260 0.000000 
#    z 0.000000 0.000000 1.837050 
# 
# From -- ./inp_files/29313.got.cif
#   From: 2010.05.17/outbox.cif.g08.bks.cpg/sg20_15_cif.got.tgz:29313.got - 2010.06.03 22:52:26.
