data_PCOD9318415
_publ_section_title
;
Structure prediction by ZEFSAII (Michael W. Deem and Ramdas Pophale) SiO2 
 PCOD9318415
Probable space group: C 2 2 21
;
_chemical_formula_sum "Si O2"
_cell_formula_units_Z 32
_cell_length_a 9.348094
_cell_length_b 28.459273
_cell_length_c 5.000616
_cell_angle_alpha 90.000000
_cell_angle_beta 90.000000
_cell_angle_gamma 90.000000
_cell_volume 1330.363676
_symmetry_space_group_name_H-M "C 2 2 21"
_symmetry_group_IT_number 20
_symmetry_cell_setting 'orthorhombic'
loop_
_space_group_symop_operation_xyz
x,y,z
-x,-y,1/2+z
x,-y,-z
-x,y,1/2-z
1/2+x,1/2+y,z
1/2-x,1/2-y,1/2+z
1/2+x,1/2-y,-z
1/2-x,1/2+y,1/2-z
loop_
_atom_site_type_symbol
_atom_site_label
_atom_site_fract_x
_atom_site_fract_y
_atom_site_fract_z
Si Si1 0.694378 0.370111 0.542178
Si Si2 0.250558 0.500000 0.500000
Si Si3 0.637947 0.101435 0.566404
Si Si4 0.160707 0.764821 0.725384
Si Si5 0.500000 0.445214 0.750000
O O1 0.745279 0.371220 0.239190
O O2 0.650256 0.318544 0.629674
O O3 0.566565 0.407816 0.545892
O O4 0.821167 0.386090 0.756723
O O5 0.160185 0.544950 0.588639
O O6 0.364633 0.478251 0.704476
O O7 0.500000 0.112405 0.750000
O O8 0.255143 0.738876 0.502573
O O9 0.000000 0.745048 0.750000
#
# Coordination Sequence:
#
# PCOD9318415 Si02
#       5
#     8   4   8   8   4
#     4  11  24  44  69  95 132 181 231 285 344 423
#     4  10  22  38  66  98 134 184 222 290 328 404
#     4  11  25  41  65  99 139 183 229 279 345 414
#     4  12  27  48  75 110 145 189 243 313 378 449
#     4  10  20  40  64  94 128 170 236 268 332 396
#
# _framework density 24.053571999999999
#
# number of rings (size 3 to 8) (size 9 to 14) (size 15 to 20)
#    0.000    1.000    1.250    4.500    0.000   16.000 
#    0.000    0.000    0.000    0.000    0.000    0.000 
#    0.000    0.000    0.000    0.000    0.000    0.000 
#
# Total GULP energy -89279.331820 kJ/mol
# GULP energy per Si atom -5579.958239 kJ/mol
# Density = 2.399883 g / cm^3
# Si number density = 24.053572 Si / 1000 Ang^3
#
#
#
# Elastic Constant Matrix: (Units=GPa)
#
#
# Indices 1 2 3 4 5 6 
#
# 1 65.5234 -15.1895 29.8336 0.0000 0.0000 0.0000
# 2 -15.1895 84.5613 5.4343 0.0000 0.0000 0.0000
# 3 29.8336 5.4343 115.6695 0.0000 0.0000 0.0000
# 4 0.0000 0.0000 0.0000 -39.6691 0.0000 0.0000
# 5 0.0000 0.0000 0.0000 0.0000 22.5119 0.0000
# 6 0.0000 0.0000 0.0000 0.0000 0.0000 -35.9745
#
#
#
# Elastic Compliance Matrix: (Units=1/GPa)
#
#
# Indices 1 2 3 4 5 6 
#
# 1 0.018327 0.003607 -0.004896 0.000000 0.000000 0.000000
# 2 0.003607 0.012571 -0.001521 0.000000 0.000000 0.000000
# 3 -0.004896 -0.001521 0.009980 0.000000 0.000000 0.000000
# 4 0.000000 0.000000 0.000000 -0.025209 0.000000 0.000000
# 5 0.000000 0.000000 0.000000 0.000000 0.044421 0.000000
# 6 0.000000 0.000000 0.000000 0.000000 0.000000 -0.027797
#
#
# Mechanical properties :
#
#
# Convention : Reuss Voigt Hill
#
# Bulk Modulus (GPa) = 28.36309 33.99012 31.17661
# Shear Modulus (GPa) = 100.67100 5.75205 53.21153
#
# Velocity S-wave (km/s) = 6.47639 1.54808 4.70851
# Velocity P-wave (km/s) = 8.23056 4.16618 6.52301
#
# Compressibility (1/GPa) = 0.03525709
#
# Stress axis : x y z
#
# Youngs Moduli (GPa) = 54.56363 79.54604 100.20379
#
# Poissons Ratio (x) = -0.28690 0.49064
# Poissons Ratio (y) = -0.19680 0.15240
# Poissons Ratio (z) = 0.26717 0.12098
#
# Static dielectric constant tensor:
#      x y z
#    x 2.225760 0.000000 0.000000 
#    y 0.000000 1.896520 0.000000 
#    z 0.000000 0.000000 1.926390 
# 
# From -- ./inp_files/705.got.cif
#   From: 2010.05.17/outbox.cif.g08.bks.cpg/sg20_1_cif.got.tgz:705.got - 2010.06.03 22:52:26.
