data_PCOD9318210
_publ_section_title
;
Structure prediction by ZEFSAII (Michael W. Deem and Ramdas Pophale) SiO2 
 PCOD9318210
Probable space group: C 2 2 21
;
_chemical_formula_sum "Si O2"
_cell_formula_units_Z 56
_cell_length_a 15.789824
_cell_length_b 14.617043
_cell_length_c 10.299636
_cell_angle_alpha 90.000000
_cell_angle_beta 90.000000
_cell_angle_gamma 90.000000
_cell_volume 2377.161513
_symmetry_space_group_name_H-M "C 2 2 21"
_symmetry_group_IT_number 20
_symmetry_cell_setting 'orthorhombic'
loop_
_space_group_symop_operation_xyz
x,y,z
-x,-y,1/2+z
x,-y,-z
-x,y,1/2-z
1/2+x,1/2+y,z
1/2-x,1/2-y,1/2+z
1/2+x,1/2-y,-z
1/2-x,1/2+y,1/2-z
loop_
_atom_site_type_symbol
_atom_site_label
_atom_site_fract_x
_atom_site_fract_y
_atom_site_fract_z
Si Si1 0.939344 0.023058 0.857933
Si Si2 0.502733 0.923626 0.609952
Si Si3 0.362461 0.354176 0.697044
Si Si4 0.633224 0.233766 0.050755
Si Si5 0.806267 0.593824 0.078266
Si Si6 0.723548 0.189211 0.678781
Si Si7 0.251624 0.413533 0.085698
O O1 0.912328 0.929924 0.779633
O O2 0.000000 0.069957 0.750000
O O3 0.853173 0.077033 0.896572
O O4 0.979493 0.000000 0.000000
O O5 0.500000 0.971396 0.750000
O O6 0.441062 0.837709 0.584262
O O7 0.598751 0.889451 0.617325
O O8 0.491001 0.000000 0.500000
O O9 0.391370 0.313540 0.555271
O O10 0.269356 0.398353 0.678932
O O11 0.344766 0.262997 0.778022
O O12 0.679286 0.274796 0.178442
O O13 0.707682 0.171479 0.985890
O O14 0.800663 0.500000 0.000000
O O15 0.788577 0.667155 0.968829
O O16 0.716327 0.100252 0.769315
O O17 0.225620 0.500000 0.000000
#
# Coordination Sequence:
#
# PCOD9318210 Si02
#       7
#     8   8   8   8   8   8   8
#     4  11  25  43  66  96 131 174 226 281 331 392
#     4  11  25  42  66 100 136 174 219 275 333 397
#     4  10  22  41  65  93 128 172 221 269 330 399
#     4  10  22  40  65  97 134 174 219 273 335 402
#     4  10  22  39  63  94 129 170 215 266 325 394
#     4  10  20  38  64  92 124 169 217 268 328 390
#     4  10  21  39  65  92 121 167 219 266 324 394
#
# _framework density 23.557507000000001
#
# number of rings (size 3 to 8) (size 9 to 14) (size 15 to 20)
#    0.000    1.714    0.000    3.857    0.000   12.000 
#    0.000    7.857    0.000    0.000    0.000    0.000 
#    0.000    0.000    0.000    0.000    0.000    0.000 
#
# Total GULP energy -156192.710182 kJ/mol
# GULP energy per Si atom -5578.311078 kJ/mol
# Density = 2.350389 g / cm^3
# Si number density = 23.557507 Si / 1000 Ang^3
#
#
#
# Elastic Constant Matrix: (Units=GPa)
#
#
# Indices 1 2 3 4 5 6 
#
# 1 91.9311 25.3349 31.1264 0.0000 0.0000 0.0000
# 2 25.3349 72.3790 29.8910 0.0000 0.0000 0.0000
# 3 31.1264 29.8910 113.5401 0.0000 0.0000 0.0000
# 4 0.0000 0.0000 0.0000 81.1093 0.0000 0.0000
# 5 0.0000 0.0000 0.0000 0.0000 20.5688 0.0000
# 6 0.0000 0.0000 0.0000 0.0000 0.0000 16.0334
#
#
#
# Elastic Compliance Matrix: (Units=1/GPa)
#
#
# Indices 1 2 3 4 5 6 
#
# 1 0.012683 -0.003370 -0.002590 0.000000 0.000000 0.000000
# 2 -0.003370 0.016397 -0.003393 0.000000 0.000000 0.000000
# 3 -0.002590 -0.003393 0.010411 0.000000 0.000000 0.000000
# 4 0.000000 0.000000 0.000000 0.012329 0.000000 0.000000
# 5 0.000000 0.000000 0.000000 0.000000 0.048617 0.000000
# 6 0.000000 0.000000 0.000000 0.000000 0.000000 0.062370
#
#
# Mechanical properties :
#
#
# Convention : Reuss Voigt Hill
#
# Bulk Modulus (GPa) = 48.11046 50.06165 49.08606
# Shear Modulus (GPa) = 26.53352 36.30885 31.42119
#
# Velocity S-wave (km/s) = 3.35972 3.93018 3.65610
# Velocity P-wave (km/s) = 5.95963 6.47241 6.22131
#
# Compressibility (1/GPa) = 0.02078550
#
# Stress axis : x y z
#
# Youngs Moduli (GPa) = 78.84372 60.98699 96.05529
#
# Poissons Ratio (x) = 0.20553 0.24877
# Poissons Ratio (y) = 0.26570 0.32590
# Poissons Ratio (z) = 0.20419 0.20692
#
# Static dielectric constant tensor:
#      x y z
#    x 0.877030 0.000000 0.000000 
#    y 0.000000 1.927860 0.000000 
#    z 0.000000 0.000000 1.949330 
# 
# From -- ./inp_files/15145.got.cif
#   From: 2010.05.17/outbox.cif.g08.bks.cpg/sg20_8_cif.got.tgz:15145.got - 2010.06.03 22:52:26.
