data_PCOD9318526
_publ_section_title
;
Structure prediction by ZEFSAII (Michael W. Deem and Ramdas Pophale) SiO2 
 PCOD9318526
Probable space group: C 2 2 21
;
_chemical_formula_sum "Si O2"
_cell_formula_units_Z 48
_cell_length_a 11.191387
_cell_length_b 25.131329
_cell_length_c 8.544375
_cell_angle_alpha 90.000000
_cell_angle_beta 90.000000
_cell_angle_gamma 90.000000
_cell_volume 2403.143309
_symmetry_space_group_name_H-M "C 2 2 21"
_symmetry_group_IT_number 20
_symmetry_cell_setting 'orthorhombic'
loop_
_space_group_symop_operation_xyz
x,y,z
-x,-y,1/2+z
x,-y,-z
-x,y,1/2-z
1/2+x,1/2+y,z
1/2-x,1/2-y,1/2+z
1/2+x,1/2-y,-z
1/2-x,1/2+y,1/2-z
loop_
_atom_site_type_symbol
_atom_site_label
_atom_site_fract_x
_atom_site_fract_y
_atom_site_fract_z
Si Si1 0.239369 0.028016 0.778155
Si Si2 0.087287 0.000000 0.500000
Si Si3 0.372430 0.427032 0.580860
Si Si4 0.273936 0.682122 0.397606
Si Si5 0.381359 0.759623 0.652123
Si Si6 0.987456 0.634462 0.068919
Si Si7 0.000000 0.430967 0.250000
O O1 0.175927 0.067288 0.902303
O O2 0.378639 0.036861 0.769676
O O3 0.170407 0.032450 0.616392
O O4 0.214592 0.967516 0.829882
O O5 0.999707 0.956763 0.579501
O O6 0.359448 0.367643 0.642931
O O7 0.336494 0.715745 0.532747
O O8 0.228473 0.721939 0.262355
O O9 0.148973 0.654446 0.447487
O O10 0.500000 0.742278 0.750000
O O11 0.427351 0.813741 0.569697
O O12 0.000000 0.612509 0.250000
O O13 0.014554 0.600484 0.914931
#
# Coordination Sequence:
#
# PCOD9318526 Si02
#       7
#     8   4   8   8   8   8   4
#     4  10  23  39  60  96 124 173 219 266 329 398
#     4  10  22  40  60  92 138 162 220 264 316 410
#     4  10  20  42  61  85 133 175 210 277 329 393
#     4  10  20  41  65  89 128 176 221 277 347 391
#     4   9  22  40  60  97 129 172 223 292 329 404
#     4   9  22  42  61  96 137 171 226 288 335 398
#     4  12  22  42  70  98 132 184 224 280 338 412
#
# _framework density 19.973839000000002
#
# number of rings (size 3 to 8) (size 9 to 14) (size 15 to 20)
#    0.000    2.667    1.667    2.000    2.333    5.333 
#    6.000    6.667    0.000    0.000    0.000    0.000 
#    0.000    0.000    0.000    0.000    0.000    0.000 
#
# Total GULP energy -133794.645298 kJ/mol
# GULP energy per Si atom -5574.776887 kJ/mol
# Density = 1.992838 g / cm^3
# Si number density = 19.973839 Si / 1000 Ang^3
#
#
#
# Elastic Constant Matrix: (Units=GPa)
#
#
# Indices 1 2 3 4 5 6 
#
# 1 109.5424 27.6395 51.5971 0.0000 0.0000 0.0000
# 2 27.6395 65.2333 42.0328 0.0000 0.0000 0.0000
# 3 51.5971 42.0328 101.9553 0.0000 0.0000 0.0000
# 4 0.0000 0.0000 0.0000 18.5210 0.0000 0.0000
# 5 0.0000 0.0000 0.0000 0.0000 30.3051 0.0000
# 6 0.0000 0.0000 0.0000 0.0000 0.0000 -1.8052
#
#
#
# Elastic Compliance Matrix: (Units=1/GPa)
#
#
# Indices 1 2 3 4 5 6 
#
# 1 0.012109 -0.001610 -0.005464 0.000000 0.000000 0.000000
# 2 -0.001610 0.021089 -0.007880 0.000000 0.000000 0.000000
# 3 -0.005464 -0.007880 0.015822 0.000000 0.000000 0.000000
# 4 0.000000 0.000000 0.000000 0.053993 0.000000 0.000000
# 5 0.000000 0.000000 0.000000 0.000000 0.032998 0.000000
# 6 0.000000 0.000000 0.000000 0.000000 0.000000 -0.553962
#
#
# Mechanical properties :
#
#
# Convention : Reuss Voigt Hill
#
# Bulk Modulus (GPa) = 52.32174 57.69666 55.00920
# Shear Modulus (GPa) = -13.10019 19.76828 3.33404
#
# Velocity S-wave (km/s) = -2.56377 3.14938 1.29338
# Velocity P-wave (km/s) = 4.18188 6.49412 5.46176
#
# Compressibility (1/GPa) = 0.01911251
#
# Stress axis : x y z
#
# Youngs Moduli (GPa) = 82.58388 47.41855 63.20239
#
# Poissons Ratio (x) = 0.07632 0.34537
# Poissons Ratio (y) = 0.13292 0.49801
# Poissons Ratio (z) = 0.45128 0.37364
#
# Static dielectric constant tensor:
#      x y z
#    x 1.705390 0.000000 0.000000 
#    y 0.000000 1.704820 0.000000 
#    z 0.000000 0.000000 1.731070 
# 
# From -- ./inp_files/7454.got.cif
#   From: 2010.05.17/outbox.cif.g08.bks.cpg/sg20_4_cif.got.tgz:7454.got - 2010.06.03 22:52:26.
