data_PCOD9318918
_publ_section_title
;
Structure prediction by ZEFSAII (Michael W. Deem and Ramdas Pophale) SiO2 
 PCOD9318918
Probable space group: C 2 2 21
;
_chemical_formula_sum "Si O2"
_cell_formula_units_Z 48
_cell_length_a 30.342028
_cell_length_b 8.765528
_cell_length_c 8.222275
_cell_angle_alpha 90.000000
_cell_angle_beta 90.000000
_cell_angle_gamma 90.000000
_cell_volume 2186.828293
_symmetry_space_group_name_H-M "C 2 2 21"
_symmetry_group_IT_number 20
_symmetry_cell_setting 'orthorhombic'
loop_
_space_group_symop_operation_xyz
x,y,z
-x,-y,1/2+z
x,-y,-z
-x,y,1/2-z
1/2+x,1/2+y,z
1/2-x,1/2-y,1/2+z
1/2+x,1/2-y,-z
1/2-x,1/2+y,1/2-z
loop_
_atom_site_type_symbol
_atom_site_label
_atom_site_fract_x
_atom_site_fract_y
_atom_site_fract_z
Si Si1 0.112297 0.187160 0.166494
Si Si2 0.465519 0.880617 0.370442
Si Si3 0.796553 0.188081 0.825323
Si Si4 0.109095 0.829566 0.219571
Si Si5 0.526848 0.339986 0.413850
Si Si6 0.793975 0.165468 0.212558
O O1 0.073497 0.296826 0.227139
O O2 0.162675 0.234009 0.201031
O O3 0.109054 0.015465 0.237348
O O4 0.102535 0.187784 0.973248
O O5 0.500000 0.961612 0.250000
O O6 0.496003 0.760118 0.468689
O O7 0.447029 0.000000 0.500000
O O8 0.843712 0.242637 0.760862
O O9 0.752545 0.271415 0.770799
O O10 0.793460 0.015603 0.758877
O O11 0.798585 0.187819 0.019900
O O12 0.071944 0.769392 0.342001
O O13 0.536135 0.500000 0.500000
O O14 0.500000 0.375534 0.250000
#
# Coordination Sequence:
#
# PCOD9318918 Si02
#       6
#     8   8   8   8   8   8
#     4  10  21  42  64  94 126 168 212 264 316 373
#     4  12  27  45  63  90 131 173 213 265 329 383
#     4  10  22  40  65  96 126 164 207 261 319 377
#     4  10  21  37  68  95 125 163 216 266 311 368
#     4  12  23  39  67  97 127 167 220 268 317 378
#     4  10  22  41  66  94 129 166 209 261 316 380
#
# _framework density 21.949597000000001
#
# number of rings (size 3 to 8) (size 9 to 14) (size 15 to 20)
#    0.000    1.333    1.667    4.000    7.000    2.000 
#    6.000    0.000    0.000    0.000    0.000    0.000 
#    0.000    0.000    0.000    0.000    0.000    0.000 
#
# Total GULP energy -134136.540090 kJ/mol
# GULP energy per Si atom -5589.022504 kJ/mol
# Density = 2.189964 g / cm^3
# Si number density = 21.949597 Si / 1000 Ang^3
#
#
#
# Elastic Constant Matrix: (Units=GPa)
#
#
# Indices 1 2 3 4 5 6 
#
# 1 183.8790 29.9052 32.3719 0.0000 0.0000 0.0000
# 2 29.9052 29.7929 7.7235 0.0000 0.0000 0.0000
# 3 32.3719 7.7235 23.8908 0.0000 0.0000 0.0000
# 4 0.0000 0.0000 0.0000 19.9455 0.0000 0.0000
# 5 0.0000 0.0000 0.0000 0.0000 47.1609 0.0000
# 6 0.0000 0.0000 0.0000 0.0000 0.0000 31.5072
#
#
#
# Elastic Compliance Matrix: (Units=1/GPa)
#
#
# Indices 1 2 3 4 5 6 
#
# 1 0.007926 -0.005645 -0.008915 0.000000 0.000000 0.000000
# 2 -0.005645 0.040655 -0.005495 0.000000 0.000000 0.000000
# 3 -0.008915 -0.005495 0.055713 0.000000 0.000000 0.000000
# 4 0.000000 0.000000 0.000000 0.050137 0.000000 0.000000
# 5 0.000000 0.000000 0.000000 0.000000 0.021204 0.000000
# 6 0.000000 0.000000 0.000000 0.000000 0.000000 0.031739
#
#
# Mechanical properties :
#
#
# Convention : Reuss Voigt Hill
#
# Bulk Modulus (GPa) = 15.57974 41.95156 28.76565
# Shear Modulus (GPa) = 18.59589 30.89354 24.74471
#
# Velocity S-wave (km/s) = 2.91384 3.75570 3.36123
# Velocity P-wave (km/s) = 4.29348 6.16127 5.31014
#
# Compressibility (1/GPa) = 0.06418593
#
# Stress axis : x y z
#
# Youngs Moduli (GPa) = 126.17032 24.59694 17.94922
#
# Poissons Ratio (x) = 0.13884 0.16001
# Poissons Ratio (y) = 0.71219 0.09863
# Poissons Ratio (z) = 1.12476 0.13515
#
# Static dielectric constant tensor:
#      x y z
#    x 1.833430 0.000000 0.000000 
#    y 0.000000 1.819480 0.000000 
#    z 0.000000 0.000000 1.805870 
# 
# From -- ./inp_files/11422.got.cif
#   From: 2010.05.17/outbox.cif.g08.bks.cpg/sg20_6_cif.got.tgz:11422.got - 2010.06.03 22:52:26.
