data_PCOD9318557
_publ_section_title
;
Structure prediction by ZEFSAII (Michael W. Deem and Ramdas Pophale) SiO2 
 PCOD9318557
Probable space group: C 2 2 21
;
_chemical_formula_sum "Si O2"
_cell_formula_units_Z 32
_cell_length_a 34.090344
_cell_length_b 7.387123
_cell_length_c 5.442496
_cell_angle_alpha 90.000000
_cell_angle_beta 90.000000
_cell_angle_gamma 90.000000
_cell_volume 1370.581396
_symmetry_space_group_name_H-M "C 2 2 21"
_symmetry_group_IT_number 20
_symmetry_cell_setting 'orthorhombic'
loop_
_space_group_symop_operation_xyz
x,y,z
-x,-y,1/2+z
x,-y,-z
-x,y,1/2-z
1/2+x,1/2+y,z
1/2-x,1/2-y,1/2+z
1/2+x,1/2-y,-z
1/2-x,1/2+y,1/2-z
loop_
_atom_site_type_symbol
_atom_site_label
_atom_site_fract_x
_atom_site_fract_y
_atom_site_fract_z
Si Si1 0.273969 0.708952 0.536292
Si Si2 0.092466 0.000000 0.500000
Si Si3 0.591388 0.864302 0.302212
Si Si4 0.964135 0.810046 0.392151
Si Si5 0.159243 0.500000 0.000000
O O1 0.283496 0.500000 0.500000
O O2 0.248128 0.766071 0.297554
O O3 0.312581 0.830646 0.534772
O O4 0.111457 0.829840 0.632720
O O5 0.066914 0.887610 0.303347
O O6 0.628262 0.981871 0.217550
O O7 0.572083 0.000000 0.500000
O O8 0.558948 0.804210 0.098532
O O9 0.000000 0.717797 0.250000
O O10 0.980872 0.000000 0.500000
#
# Coordination Sequence:
#
# PCOD9318557 Si02
#       5
#     8   4   8   8   4
#     4  12  26  51  83 122 156 205 262 327 402 479
#     4  10  22  44  77 100 150 196 266 320 400 463
#     4  11  26  45  74 113 158 203 268 334 397 493
#     4  10  20  41  78 110 145 209 268 334 403 475
#     4  12  28  48  79 108 164 206 260 326 394 487
#
# _framework density 23.347756
#
# number of rings (size 3 to 8) (size 9 to 14) (size 15 to 20)
#    0.000    1.000    3.750    1.500    3.500    5.000 
#    0.000    0.000   27.500    1.500    0.000    0.000 
#    0.000    0.000    0.000    0.000    0.000    0.000 
#
# Total GULP energy -89336.911923 kJ/mol
# GULP energy per Si atom -5583.556995 kJ/mol
# Density = 2.329462 g / cm^3
# Si number density = 23.347756 Si / 1000 Ang^3
#
#
#
# Elastic Constant Matrix: (Units=GPa)
#
#
# Indices 1 2 3 4 5 6 
#
# 1 113.9261 57.7747 58.3255 0.0000 0.0000 0.0000
# 2 57.7747 175.3088 37.9768 0.0000 0.0000 0.0000
# 3 58.3255 37.9768 127.4566 0.0000 0.0000 0.0000
# 4 0.0000 0.0000 0.0000 54.8775 0.0000 0.0000
# 5 0.0000 0.0000 0.0000 0.0000 8.1515 0.0000
# 6 0.0000 0.0000 0.0000 0.0000 0.0000 498.9987
#
#
#
# Elastic Compliance Matrix: (Units=1/GPa)
#
#
# Indices 1 2 3 4 5 6 
#
# 1 0.012939 -0.003187 -0.004971 0.000000 0.000000 0.000000
# 2 -0.003187 0.006883 -0.000592 0.000000 0.000000 0.000000
# 3 -0.004971 -0.000592 0.010297 0.000000 0.000000 0.000000
# 4 0.000000 0.000000 0.000000 0.018222 0.000000 0.000000
# 5 0.000000 0.000000 0.000000 0.000000 0.122676 0.000000
# 6 0.000000 0.000000 0.000000 0.000000 0.000000 0.002004
#
#
# Mechanical properties :
#
#
# Convention : Reuss Voigt Hill
#
# Bulk Modulus (GPa) = 79.25591 80.53839 79.89715
# Shear Modulus (GPa) = 25.67663 129.91316 77.79489
#
# Velocity S-wave (km/s) = 3.31984 7.46749 5.77862
# Velocity P-wave (km/s) = 6.97959 10.43654 8.87795
#
# Compressibility (1/GPa) = 0.01261736
#
# Stress axis : x y z
#
# Youngs Moduli (GPa) = 77.28498 145.28708 97.11317
#
# Poissons Ratio (x) = 0.46307 0.48279
# Poissons Ratio (y) = 0.24633 0.05752
# Poissons Ratio (z) = 0.38422 0.08605
#
# Static dielectric constant tensor:
#      x y z
#    x 1.815300 0.000000 0.000000 
#    y 0.000000 1.925690 0.000000 
#    z 0.000000 0.000000 -7.109460 
# 
# From -- ./inp_files/4487.got.cif
#   From: 2010.05.17/outbox.cif.g08.bks.cpg/sg20_3_cif.got.tgz:4487.got - 2010.06.03 22:52:26.
