data_PCOD9318656
_publ_section_title
;
Structure prediction by ZEFSAII (Michael W. Deem and Ramdas Pophale) SiO2 
 PCOD9318656
Probable space group: C 2 2 21
;
_chemical_formula_sum "Si O2"
_cell_formula_units_Z 48
_cell_length_a 14.944286
_cell_length_b 8.041854
_cell_length_c 18.026962
_cell_angle_alpha 90.000000
_cell_angle_beta 90.000000
_cell_angle_gamma 90.000000
_cell_volume 2166.476077
_symmetry_space_group_name_H-M "C 2 2 21"
_symmetry_group_IT_number 20
_symmetry_cell_setting 'orthorhombic'
loop_
_space_group_symop_operation_xyz
x,y,z
-x,-y,1/2+z
x,-y,-z
-x,y,1/2-z
1/2+x,1/2+y,z
1/2-x,1/2-y,1/2+z
1/2+x,1/2-y,-z
1/2-x,1/2+y,1/2-z
loop_
_atom_site_type_symbol
_atom_site_label
_atom_site_fract_x
_atom_site_fract_y
_atom_site_fract_z
Si Si1 0.471331 0.007608 0.080132
Si Si2 0.280238 0.111957 0.608058
Si Si3 0.336522 0.434739 0.320550
Si Si4 0.661638 0.163666 0.304890
Si Si5 0.946297 0.257795 0.322681
Si Si6 0.656747 0.790899 0.950960
O O1 0.419299 0.078704 0.151132
O O2 0.560330 0.120184 0.063979
O O3 0.499177 0.822262 0.106199
O O4 0.423115 0.000000 0.000000
O O5 0.191813 0.193243 0.637314
O O6 0.354789 0.136673 0.671443
O O7 0.319520 0.211152 0.537213
O O8 0.273636 0.922806 0.584318
O O9 0.352054 0.270141 0.270263
O O10 0.245494 0.534649 0.299653
O O11 0.416382 0.567589 0.316299
O O12 0.333264 0.375503 0.405447
O O13 0.000000 0.301782 0.250000
#
# Coordination Sequence:
#
# PCOD9318656 Si02
#       6
#     8   8   8   8   8   8
#     4  11  24  45  68  98 131 176 237 286 333 399
#     4   9  20  44  65  94 134 181 215 274 345 404
#     4  11  26  42  66  99 138 183 227 273 352 408
#     4  11  26  41  67 101 139 174 229 282 342 404
#     4  10  23  41  66  91 131 179 223 278 337 400
#     4  10  20  43  70  90 130 184 225 268 341 410
#
# _framework density 22.155794
#
# number of rings (size 3 to 8) (size 9 to 14) (size 15 to 20)
#    0.000    1.667    3.333    1.000   14.000    2.000 
#    0.000    0.000    0.000    0.000    0.000    0.000 
#    0.000    0.000    0.000    0.000    0.000    0.000 
#
# Total GULP energy -133928.404728 kJ/mol
# GULP energy per Si atom -5580.350197 kJ/mol
# Density = 2.210537 g / cm^3
# Si number density = 22.155794 Si / 1000 Ang^3
#
#
#
# Elastic Constant Matrix: (Units=GPa)
#
#
# Indices 1 2 3 4 5 6 
#
# 1 30.4732 19.0819 23.1578 0.0000 0.0000 0.0000
# 2 19.0819 68.0779 34.2234 0.0000 0.0000 0.0000
# 3 23.1578 34.2234 109.7127 0.0000 0.0000 0.0000
# 4 0.0000 0.0000 0.0000 39.1398 0.0000 0.0000
# 5 0.0000 0.0000 0.0000 0.0000 33.7566 0.0000
# 6 0.0000 0.0000 0.0000 0.0000 0.0000 16.8788
#
#
#
# Elastic Compliance Matrix: (Units=1/GPa)
#
#
# Indices 1 2 3 4 5 6 
#
# 1 0.043224 -0.008929 -0.006338 0.000000 0.000000 0.000000
# 2 -0.008929 0.019265 -0.004125 0.000000 0.000000 0.000000
# 3 -0.006338 -0.004125 0.011739 0.000000 0.000000 0.000000
# 4 0.000000 0.000000 0.000000 0.025549 0.000000 0.000000
# 5 0.000000 0.000000 0.000000 0.000000 0.029624 0.000000
# 6 0.000000 0.000000 0.000000 0.000000 0.000000 0.059246
#
#
# Mechanical properties :
#
#
# Convention : Reuss Voigt Hill
#
# Bulk Modulus (GPa) = 28.21351 40.13224 34.17287
# Shear Modulus (GPa) = 20.89893 26.74174 23.82033
#
# Velocity S-wave (km/s) = 3.07460 3.47794 3.28247
# Velocity P-wave (km/s) = 5.03647 5.85500 5.46109
#
# Compressibility (1/GPa) = 0.03544401
#
# Stress axis : x y z
#
# Youngs Moduli (GPa) = 23.13544 51.90638 85.18419
#
# Poissons Ratio (x) = 0.46348 0.53992
# Poissons Ratio (y) = 0.20658 0.35137
# Poissons Ratio (z) = 0.14664 0.21411
#
# Static dielectric constant tensor:
#      x y z
#    x 1.852340 0.000000 0.000000 
#    y 0.000000 1.827480 0.000000 
#    z 0.000000 0.000000 1.841730 
# 
# From -- ./inp_files/24804.got.cif
#   From: 2010.05.17/outbox.cif.g08.bks.cpg/sg20_13_cif.got.tgz:24804.got - 2010.06.03 22:52:26.
