data_PCOD9318031
_publ_section_title
;
Structure prediction by ZEFSAII (Michael W. Deem and Ramdas Pophale) SiO2 
 PCOD9318031
Probable space group: C 2 2 21
;
_chemical_formula_sum "Si O2"
_cell_formula_units_Z 64
_cell_length_a 19.043012
_cell_length_b 18.993254
_cell_length_c 9.110772
_cell_angle_alpha 90.000000
_cell_angle_beta 90.000000
_cell_angle_gamma 90.000000
_cell_volume 3295.263862
_symmetry_space_group_name_H-M "C 2 2 21"
_symmetry_group_IT_number 20
_symmetry_cell_setting 'orthorhombic'
loop_
_space_group_symop_operation_xyz
x,y,z
-x,-y,1/2+z
x,-y,-z
-x,y,1/2-z
1/2+x,1/2+y,z
1/2-x,1/2-y,1/2+z
1/2+x,1/2-y,-z
1/2-x,1/2+y,1/2-z
loop_
_atom_site_type_symbol
_atom_site_label
_atom_site_fract_x
_atom_site_fract_y
_atom_site_fract_z
Si Si1 0.824068 0.077043 0.506798
Si Si2 0.529307 0.067664 0.412856
Si Si3 0.790320 0.675468 0.442976
Si Si4 0.848239 0.731908 0.888352
Si Si5 0.314976 0.061150 0.192485
Si Si6 0.023755 0.276239 0.579647
Si Si7 0.779055 0.402512 0.252483
Si Si8 0.400449 0.283640 0.582300
O O1 0.752969 0.071404 0.409670
O O2 0.795594 0.093541 0.669402
O O3 0.870601 0.139023 0.444457
O O4 0.857947 0.000000 0.500000
O O5 0.500000 0.062578 0.250000
O O6 0.613287 0.066622 0.397370
O O7 0.506954 0.143688 0.472186
O O8 0.504303 0.000000 0.500000
O O9 0.722335 0.721850 0.401455
O O10 0.812917 0.622069 0.314811
O O11 0.773227 0.629033 0.585953
O O12 0.851405 0.729441 0.489803
O O13 0.825628 0.653264 0.840102
O O14 0.892558 0.761974 0.751509
O O15 0.894669 0.734046 0.036396
O O16 0.309937 0.981457 0.254016
O O17 0.000000 0.270751 0.750000
O O18 0.977336 0.224324 0.483409
#
# Coordination Sequence:
#
# PCOD9318031 Si02
#       8
#     8   8   8   8   8   8   8   8
#     4  10  20  37  62  87 119 157 204 255 316 371
#     4  11  24  39  61  87 129 175 209 247 299 381
#     4  11  22  35  63  92 127 159 208 263 312 367
#     4  11  22  39  60  92 124 169 202 260 312 379
#     4  11  21  40  60  91 126 165 209 256 316 366
#     4  11  25  40  61  88 122 165 211 259 311 373
#     4  10  22  35  61  92 127 164 200 259 304 372
#     4  11  23  39  61  90 122 166 206 260 315 374
#
# _framework density 19.421814000000001
#
# number of rings (size 3 to 8) (size 9 to 14) (size 15 to 20)
#    0.000    1.250    2.500    4.875    1.750    4.000 
#    0.000    0.000    0.000    3.000    0.000    0.000 
#    0.000    0.000    0.000    0.000    0.000    0.000 
#
# Total GULP energy -178851.345966 kJ/mol
# GULP energy per Si atom -5589.104561 kJ/mol
# Density = 1.937761 g / cm^3
# Si number density = 19.421814 Si / 1000 Ang^3
#
#
#
# Elastic Constant Matrix: (Units=GPa)
#
#
# Indices 1 2 3 4 5 6 
#
# 1 46.9403 21.7285 2.2650 0.0000 0.0000 0.0000
# 2 21.7285 126.8158 25.4533 0.0000 0.0000 0.0000
# 3 2.2650 25.4533 56.2564 0.0000 0.0000 0.0000
# 4 0.0000 0.0000 0.0000 31.7357 0.0000 0.0000
# 5 0.0000 0.0000 0.0000 0.0000 27.4014 0.0000
# 6 0.0000 0.0000 0.0000 0.0000 0.0000 -120.4821
#
#
#
# Elastic Compliance Matrix: (Units=1/GPa)
#
#
# Indices 1 2 3 4 5 6 
#
# 1 0.023185 -0.004163 0.000950 0.000000 0.000000 0.000000
# 2 -0.004163 0.009421 -0.004095 0.000000 0.000000 0.000000
# 3 0.000950 -0.004095 0.019590 0.000000 0.000000 0.000000
# 4 0.000000 0.000000 0.000000 0.031510 0.000000 0.000000
# 5 0.000000 0.000000 0.000000 0.000000 0.036494 0.000000
# 6 0.000000 0.000000 0.000000 0.000000 0.000000 -0.008300
#
#
# Mechanical properties :
#
#
# Convention : Reuss Voigt Hill
#
# Bulk Modulus (GPa) = 26.60975 36.54511 31.57743
# Shear Modulus (GPa) = 35.96016 -0.23129 17.86444
#
# Velocity S-wave (km/s) = 4.30761 -0.34546 3.03613
# Velocity P-wave (km/s) = 6.20253 4.32415 5.34648
#
# Compressibility (1/GPa) = 0.03758021
#
# Stress axis : x y z
#
# Youngs Moduli (GPa) = 43.13142 106.15004 51.04600
#
# Poissons Ratio (x) = 0.44192 -0.04850
# Poissons Ratio (y) = 0.17956 0.20902
# Poissons Ratio (z) = -0.04098 0.43466
#
# Static dielectric constant tensor:
#      x y z
#    x 1.674750 0.000000 0.000000 
#    y 0.000000 1.681570 0.000000 
#    z 0.000000 0.000000 1.742260 
# 
# From -- ./inp_files/10369.got.cif
#   From: 2010.05.17/outbox.cif.g08.bks.cpg/sg20_6_cif.got.tgz:10369.got - 2010.06.03 22:52:26.
