data_PCOD9318347
_publ_section_title
;
Structure prediction by ZEFSAII (Michael W. Deem and Ramdas Pophale) SiO2 
 PCOD9318347
Probable space group: C 2 2 21
;
_chemical_formula_sum "Si O2"
_cell_formula_units_Z 48
_cell_length_a 15.347349
_cell_length_b 8.047620
_cell_length_c 16.090018
_cell_angle_alpha 90.000000
_cell_angle_beta 90.000000
_cell_angle_gamma 90.000000
_cell_volume 1987.272214
_symmetry_space_group_name_H-M "C 2 2 21"
_symmetry_group_IT_number 20
_symmetry_cell_setting 'orthorhombic'
loop_
_space_group_symop_operation_xyz
x,y,z
-x,-y,1/2+z
x,-y,-z
-x,y,1/2-z
1/2+x,1/2+y,z
1/2-x,1/2-y,1/2+z
1/2+x,1/2-y,-z
1/2-x,1/2+y,1/2-z
loop_
_atom_site_type_symbol
_atom_site_label
_atom_site_fract_x
_atom_site_fract_y
_atom_site_fract_z
Si Si1 0.993970 0.769028 0.605655
Si Si2 0.170435 0.677232 0.549035
Si Si3 0.435677 0.062997 0.315048
Si Si4 0.635903 0.474719 0.823758
Si Si5 0.717026 0.851217 0.254931
Si Si6 0.645504 0.269372 0.036545
O O1 0.992139 0.597797 0.656674
O O2 0.964403 0.918441 0.666027
O O3 0.913774 0.757256 0.542963
O O4 0.080263 0.777560 0.550860
O O5 0.160374 0.500000 0.500000
O O6 0.189596 0.666646 0.648478
O O7 0.254940 0.773074 0.514801
O O8 0.500000 0.152199 0.250000
O O9 0.406048 0.162329 0.395380
O O10 0.344653 0.997786 0.278070
O O11 0.688881 0.308477 0.798322
O O12 0.680270 0.603627 0.758860
O O13 0.655046 0.556208 0.913831
#
# Coordination Sequence:
#
# PCOD9318347 Si02
#       6
#     8   8   8   8   8   8
#     4  11  23  43  71  99 141 188 245 291 358 438
#     4  11  22  40  70  98 134 190 234 279 365 430
#     4  11  22  41  67 103 138 188 235 294 361 435
#     4  10  22  40  69  98 140 180 230 294 358 418
#     4  10  20  39  66  99 135 181 230 281 359 426
#     4  11  23  43  68 103 140 186 242 300 358 427
#
# _framework density 24.153711000000001
#
# number of rings (size 3 to 8) (size 9 to 14) (size 15 to 20)
#    0.000    1.333    1.667    6.000    0.000    0.000 
#    3.000    3.333    0.000    0.000    0.000    0.000 
#    0.000    0.000    0.000    0.000    0.000    0.000 
#
# Total GULP energy -133872.037040 kJ/mol
# GULP energy per Si atom -5578.001543 kJ/mol
# Density = 2.409874 g / cm^3
# Si number density = 24.153711 Si / 1000 Ang^3
#
#
#
# Elastic Constant Matrix: (Units=GPa)
#
#
# Indices 1 2 3 4 5 6 
#
# 1 133.5624 15.4892 15.9409 0.0000 0.0000 0.0000
# 2 15.4892 66.9314 14.0680 0.0000 0.0000 0.0000
# 3 15.9409 14.0680 103.3529 0.0000 0.0000 0.0000
# 4 0.0000 0.0000 0.0000 43.8309 0.0000 0.0000
# 5 0.0000 0.0000 0.0000 0.0000 52.8549 0.0000
# 6 0.0000 0.0000 0.0000 0.0000 0.0000 21.8222
#
#
#
# Elastic Compliance Matrix: (Units=1/GPa)
#
#
# Indices 1 2 3 4 5 6 
#
# 1 0.007790 -0.001596 -0.000984 0.000000 0.000000 0.000000
# 2 -0.001596 0.015708 -0.001892 0.000000 0.000000 0.000000
# 3 -0.000984 -0.001892 0.010085 0.000000 0.000000 0.000000
# 4 0.000000 0.000000 0.000000 0.022815 0.000000 0.000000
# 5 0.000000 0.000000 0.000000 0.000000 0.018920 0.000000
# 6 0.000000 0.000000 0.000000 0.000000 0.000000 0.045825
#
#
# Mechanical properties :
#
#
# Convention : Reuss Voigt Hill
#
# Bulk Modulus (GPa) = 40.58730 43.87144 42.22937
# Shear Modulus (GPa) = 36.15369 40.92483 38.53926
#
# Velocity S-wave (km/s) = 3.87307 4.12071 3.99881
# Velocity P-wave (km/s) = 6.06969 6.39087 6.23235
#
# Compressibility (1/GPa) = 0.02463825
#
# Stress axis : x y z
#
# Youngs Moduli (GPa) = 128.37508 63.66334 99.15793
#
# Poissons Ratio (x) = 0.10159 0.09760
# Poissons Ratio (y) = 0.20486 0.18760
# Poissons Ratio (z) = 0.12635 0.12045
#
# Static dielectric constant tensor:
#      x y z
#    x 2.040340 0.000000 0.000000 
#    y 0.000000 2.040640 0.000000 
#    z 0.000000 0.000000 1.901240 
# 
# From -- ./inp_files/24798.got.cif
#   From: 2010.05.17/outbox.cif.g08.bks.cpg/sg20_13_cif.got.tgz:24798.got - 2010.06.03 22:52:26.
