data_PCOD9318760
_publ_section_title
;
Structure prediction by ZEFSAII (Michael W. Deem and Ramdas Pophale) SiO2 
 PCOD9318760
Probable space group: C 2 2 21
;
_chemical_formula_sum "Si O2"
_cell_formula_units_Z 44
_cell_length_a 9.748355
_cell_length_b 9.330379
_cell_length_c 18.255684
_cell_angle_alpha 90.000000
_cell_angle_beta 90.000000
_cell_angle_gamma 90.000000
_cell_volume 1660.461197
_symmetry_space_group_name_H-M "C 2 2 21"
_symmetry_group_IT_number 20
_symmetry_cell_setting 'orthorhombic'
loop_
_space_group_symop_operation_xyz
x,y,z
-x,-y,1/2+z
x,-y,-z
-x,y,1/2-z
1/2+x,1/2+y,z
1/2-x,1/2-y,1/2+z
1/2+x,1/2-y,-z
1/2-x,1/2+y,1/2-z
loop_
_atom_site_type_symbol
_atom_site_label
_atom_site_fract_x
_atom_site_fract_y
_atom_site_fract_z
Si Si1 0.038106 0.158086 0.972072
Si Si2 0.793732 0.421421 0.564554
Si Si3 0.746700 0.624208 0.274679
Si Si4 0.442510 0.126826 0.906269
Si Si5 0.000000 0.587440 0.750000
Si Si6 0.842046 0.080099 0.666012
O O1 0.163483 0.269832 0.967306
O O2 0.028257 0.131088 0.883333
O O3 0.949609 0.252131 0.030694
O O4 0.068864 0.000000 0.000000
O O5 0.713935 0.500000 0.500000
O O6 0.716591 0.410030 0.640520
O O7 0.938648 0.507737 0.577341
O O8 0.874920 0.521568 0.257354
O O9 0.800929 0.787489 0.279684
O O10 0.644545 0.563409 0.213470
O O11 0.485314 0.176488 0.824342
O O12 0.291490 0.061475 0.888790
#
# Coordination Sequence:
#
# PCOD9318760 Si02
#       6
#     8   8   8   8   4   8
#     4  10  21  35  53  85 121 147 192 254 300 336
#     4   8  16  33  56  75 107 154 194 233 288 361
#     4   9  18  34  55  86 115 148 200 243 294 358
#     4   9  18  36  57  79 113 159 199 232 297 374
#     4   8  16  34  60  76 104 158 200 238 290 366
#     4  10  21  37  60  88 118 157 200 248 301 357
#
# _framework density 26.498661999999999
#
# number of rings (size 3 to 8) (size 9 to 14) (size 15 to 20)
#    0.000    2.909    0.000    0.000    0.000    8.000 
#    0.000   16.364    0.000    1.091    0.000    0.000 
#    0.000    0.000    0.000    0.000    0.000    0.000 
#
# Total GULP energy -122561.568327 kJ/mol
# GULP energy per Si atom -5570.980379 kJ/mol
# Density = 2.643835 g / cm^3
# Si number density = 26.498662 Si / 1000 Ang^3
#
#
#
# Elastic Constant Matrix: (Units=GPa)
#
#
# Indices 1 2 3 4 5 6 
#
# 1 91.6042 51.8703 41.2963 0.0000 0.0000 0.0000
# 2 51.8703 165.1450 61.8620 0.0000 0.0000 0.0000
# 3 41.2963 61.8620 144.8924 0.0000 0.0000 0.0000
# 4 0.0000 0.0000 0.0000 63.6238 0.0000 0.0000
# 5 0.0000 0.0000 0.0000 0.0000 32.9968 0.0000
# 6 0.0000 0.0000 0.0000 0.0000 0.0000 20.1945
#
#
#
# Elastic Compliance Matrix: (Units=1/GPa)
#
#
# Indices 1 2 3 4 5 6 
#
# 1 0.014009 -0.003457 -0.002517 0.000000 0.000000 0.000000
# 2 -0.003457 0.008061 -0.002456 0.000000 0.000000 0.000000
# 3 -0.002517 -0.002456 0.008668 0.000000 0.000000 0.000000
# 4 0.000000 0.000000 0.000000 0.015717 0.000000 0.000000
# 5 0.000000 0.000000 0.000000 0.000000 0.030306 0.000000
# 6 0.000000 0.000000 0.000000 0.000000 0.000000 0.049518
#
#
# Mechanical properties :
#
#
# Convention : Reuss Voigt Hill
#
# Bulk Modulus (GPa) = 72.06086 79.07765 75.56926
# Shear Modulus (GPa) = 33.83735 39.80391 36.82063
#
# Velocity S-wave (km/s) = 3.57731 3.87991 3.73168
# Velocity P-wave (km/s) = 6.65703 7.06955 6.86639
#
# Compressibility (1/GPa) = 0.01387716
#
# Stress axis : x y z
#
# Youngs Moduli (GPa) = 71.38422 124.04881 115.37085
#
# Poissons Ratio (x) = 0.42887 0.29034
# Poissons Ratio (y) = 0.24680 0.28340
# Poissons Ratio (z) = 0.17964 0.30472
#
# Static dielectric constant tensor:
#      x y z
#    x 2.160230 0.000000 0.000000 
#    y 0.000000 2.089190 0.000000 
#    z 0.000000 0.000000 2.212020 
# 
# From -- ./inp_files/24737.got.cif
#   From: 2010.05.17/outbox.cif.g08.bks.cpg/sg20_13_cif.got.tgz:24737.got - 2010.06.03 22:52:26.
