data_PCOD9318809
_publ_section_title
;
Structure prediction by ZEFSAII (Michael W. Deem and Ramdas Pophale) SiO2 
 PCOD9318809
Probable space group: C 2 2 21
;
_chemical_formula_sum "Si O2"
_cell_formula_units_Z 64
_cell_length_a 13.966857
_cell_length_b 10.519093
_cell_length_c 22.160167
_cell_angle_alpha 90.000000
_cell_angle_beta 90.000000
_cell_angle_gamma 90.000000
_cell_volume 3255.742212
_symmetry_space_group_name_H-M "C 2 2 21"
_symmetry_group_IT_number 20
_symmetry_cell_setting 'orthorhombic'
loop_
_space_group_symop_operation_xyz
x,y,z
-x,-y,1/2+z
x,-y,-z
-x,y,1/2-z
1/2+x,1/2+y,z
1/2-x,1/2-y,1/2+z
1/2+x,1/2-y,-z
1/2-x,1/2+y,1/2-z
loop_
_atom_site_type_symbol
_atom_site_label
_atom_site_fract_x
_atom_site_fract_y
_atom_site_fract_z
Si Si1 0.975635 0.605302 0.648964
Si Si2 0.688014 0.894101 0.051223
Si Si3 0.136656 0.110408 0.782487
Si Si4 0.863344 0.389592 0.717513
Si Si5 0.688014 0.605899 0.051223
Si Si6 0.182377 0.998370 0.344772
Si Si7 0.975635 0.894698 0.648964
Si Si8 0.682377 0.998370 0.655228
O O1 0.910980 0.596435 0.588888
O O2 0.930465 0.503437 0.694831
O O3 0.966400 0.750000 0.671793
O O4 0.085557 0.570435 0.638104
O O5 0.697046 0.750000 0.027817
O O6 0.770979 0.922983 0.099971
O O7 0.691095 0.000000 0.000000
O O8 0.096214 0.250000 0.794626
O O9 0.158925 0.091993 0.712067
O O10 0.069535 0.996563 0.805169
O O11 0.235833 0.092106 0.818903
O O12 0.764167 0.407894 0.681097
O O13 0.841075 0.408007 0.787933
O O14 0.589020 0.596435 0.088888
O O15 0.770979 0.577017 0.099971
O O16 0.691095 0.500000 0.000000
O O17 0.085557 0.070435 0.361896
#
# Coordination Sequence:
#
# PCOD9318809 Si02
#       8
#     8   8   8   8   8   8   8   8
#     4  10  22  39  59  85 118 154 191 233 285 344
#     4  10  23  42  60  82 113 149 194 245 289 335
#     4  10  21  36  58  90 122 150 187 234 284 343
#     4  10  21  36  58  90 122 150 187 234 284 343
#     4  10  23  42  60  82 113 149 194 245 289 335
#     4  10  21  37  61  86 116 154 192 233 285 343
#     4  10  22  39  59  85 118 154 191 233 285 344
#     4  10  21  37  61  86 116 154 192 233 285 343
#
# _framework density 19.657577
#
# number of rings (size 3 to 8) (size 9 to 14) (size 15 to 20)
#    0.000    2.000    0.000    2.250    0.000   17.000 
#    0.000    2.500    0.000    0.000    0.000    0.000 
#    0.000    0.000    0.000    0.000    0.000    0.000 
#
# Total GULP energy -178783.766961 kJ/mol
# GULP energy per Si atom -5586.992718 kJ/mol
# Density = 1.961284 g / cm^3
# Si number density = 19.657577 Si / 1000 Ang^3
#
#
#
# Elastic Constant Matrix: (Units=GPa)
#
#
# Indices 1 2 3 4 5 6 
#
# 1 137.5381 59.6972 35.4436 0.0000 0.0000 0.0000
# 2 59.6972 191.6817 69.8689 0.0000 0.0000 0.0000
# 3 35.4436 69.8689 88.5504 0.0000 0.0000 0.0000
# 4 0.0000 0.0000 0.0000 11.1289 0.0000 0.0000
# 5 0.0000 0.0000 0.0000 0.0000 9.9358 0.0000
# 6 0.0000 0.0000 0.0000 0.0000 0.0000 -0.5401
#
#
#
# Elastic Compliance Matrix: (Units=1/GPa)
#
#
# Indices 1 2 3 4 5 6 
#
# 1 0.008622 -0.002004 -0.001870 0.000000 0.000000 0.000000
# 2 -0.002004 0.007789 -0.005344 0.000000 0.000000 0.000000
# 3 -0.001870 -0.005344 0.016258 0.000000 0.000000 0.000000
# 4 0.000000 0.000000 0.000000 0.089856 0.000000 0.000000
# 5 0.000000 0.000000 0.000000 0.000000 0.100646 0.000000
# 6 0.000000 0.000000 0.000000 0.000000 0.000000 -1.851567
#
#
# Mechanical properties :
#
#
# Convention : Reuss Voigt Hill
#
# Bulk Modulus (GPa) = 70.25455 83.08774 76.67115
# Shear Modulus (GPa) = -3.11485 20.95560 8.92038
#
# Velocity S-wave (km/s) = -1.26016 3.26856 2.13254
# Velocity P-wave (km/s) = 5.80512 7.52356 6.71950
#
# Compressibility (1/GPa) = 0.01423395
#
# Stress axis : x y z
#
# Youngs Moduli (GPa) = 115.97777 128.39048 61.50869
#
# Poissons Ratio (x) = 0.25724 0.11504
# Poissons Ratio (y) = 0.23237 0.32868
# Poissons Ratio (z) = 0.21692 0.68606
#
# Static dielectric constant tensor:
#      x y z
#    x 1.698520 0.000000 0.000000 
#    y 0.000000 1.687510 0.000000 
#    z 0.000000 0.000000 1.665990 
# 
# From -- ./inp_files/29379.got.cif
#   From: 2010.05.17/outbox.cif.g08.bks.cpg/sg20_15_cif.got.tgz:29379.got - 2010.06.03 22:52:26.
