data_PCOD9318815
_publ_section_title
;
Structure prediction by ZEFSAII (Michael W. Deem and Ramdas Pophale) SiO2 
 PCOD9318815
Probable space group: C 2 2 21
;
_chemical_formula_sum "Si O2"
_cell_formula_units_Z 32
_cell_length_a 12.020435
_cell_length_b 7.829166
_cell_length_c 14.803039
_cell_angle_alpha 90.000000
_cell_angle_beta 90.000000
_cell_angle_gamma 90.000000
_cell_volume 1393.113719
_symmetry_space_group_name_H-M "C 2 2 21"
_symmetry_group_IT_number 20
_symmetry_cell_setting 'orthorhombic'
loop_
_space_group_symop_operation_xyz
x,y,z
-x,-y,1/2+z
x,-y,-z
-x,y,1/2-z
1/2+x,1/2+y,z
1/2-x,1/2-y,1/2+z
1/2+x,1/2-y,-z
1/2-x,1/2+y,1/2-z
loop_
_atom_site_type_symbol
_atom_site_label
_atom_site_fract_x
_atom_site_fract_y
_atom_site_fract_z
Si Si1 0.631815 0.220225 0.652074
Si Si2 0.144650 0.180253 0.539389
Si Si3 0.230657 0.601982 0.302442
Si Si4 0.535344 0.532417 0.846389
O O1 0.652698 0.196013 0.545682
O O2 0.724839 0.327740 0.707493
O O3 0.525254 0.345985 0.653327
O O4 0.631492 0.035498 0.698737
O O5 0.204908 0.246590 0.628294
O O6 0.019061 0.140376 0.573584
O O7 0.187859 0.000000 0.500000
O O8 0.334749 0.498541 0.345081
O O9 0.500000 0.612082 0.750000
#
# Coordination Sequence:
#
# PCOD9318815 Si02
#       4
#     8   8   8   8
#     4  10  21  36  60  89 116 154 204 248 292 363
#     4  10  21  38  59  89 121 153 202 249 293 361
#     4  11  21  41  63  85 123 164 198 249 313 354
#     4   9  20  39  59  83 118 157 196 246 302 356
#
# _framework density 22.970129
#
# number of rings (size 3 to 8) (size 9 to 14) (size 15 to 20)
#    0.000    2.000    0.000    5.250    0.000    6.000 
#    0.000   21.250    0.000    0.000    0.000    0.000 
#    0.000    0.000    0.000    0.000    0.000    0.000 
#
# Total GULP energy -89291.201974 kJ/mol
# GULP energy per Si atom -5580.700123 kJ/mol
# Density = 2.291785 g / cm^3
# Si number density = 22.970129 Si / 1000 Ang^3
#
#
#
# Elastic Constant Matrix: (Units=GPa)
#
#
# Indices 1 2 3 4 5 6 
#
# 1 65.0425 17.1124 29.6825 0.0000 0.0000 0.0000
# 2 17.1124 81.6587 24.3106 0.0000 0.0000 0.0000
# 3 29.6825 24.3106 128.9376 0.0000 0.0000 0.0000
# 4 0.0000 0.0000 0.0000 47.0758 0.0000 0.0000
# 5 0.0000 0.0000 0.0000 0.0000 38.3297 0.0000
# 6 0.0000 0.0000 0.0000 0.0000 0.0000 17.1111
#
#
#
# Elastic Compliance Matrix: (Units=1/GPa)
#
#
# Indices 1 2 3 4 5 6 
#
# 1 0.017703 -0.002645 -0.003577 0.000000 0.000000 0.000000
# 2 -0.002645 0.013370 -0.001912 0.000000 0.000000 0.000000
# 3 -0.003577 -0.001912 0.008940 0.000000 0.000000 0.000000
# 4 0.000000 0.000000 0.000000 0.021242 0.000000 0.000000
# 5 0.000000 0.000000 0.000000 0.000000 0.026089 0.000000
# 6 0.000000 0.000000 0.000000 0.000000 0.000000 0.058442
#
#
# Mechanical properties :
#
#
# Convention : Reuss Voigt Hill
#
# Bulk Modulus (GPa) = 42.11443 46.42776 44.27110
# Shear Modulus (GPa) = 29.41748 34.13887 31.77817
#
# Velocity S-wave (km/s) = 3.58255 3.85935 3.72352
# Velocity P-wave (km/s) = 5.95710 6.33368 6.14828
#
# Compressibility (1/GPa) = 0.02374483
#
# Stress axis : x y z
#
# Youngs Moduli (GPa) = 56.48874 74.79683 111.86270
#
# Poissons Ratio (x) = 0.19784 0.40009
# Poissons Ratio (y) = 0.14941 0.21387
# Poissons Ratio (z) = 0.20204 0.14300
#
# Static dielectric constant tensor:
#      x y z
#    x 1.861280 0.000000 0.000000 
#    y 0.000000 1.923210 0.000000 
#    z 0.000000 0.000000 1.900710 
# 
# From -- ./inp_files/18168.got.cif
#   From: 2010.05.17/outbox.cif.g08.bks.cpg/sg20_10_cif.got.tgz:18168.got - 2010.06.03 22:52:26.
