data_PCOD9318793
_publ_section_title
;
Structure prediction by ZEFSAII (Michael W. Deem and Ramdas Pophale) SiO2 
 PCOD9318793
Probable space group: C 2 2 21
;
_chemical_formula_sum "Si O2"
_cell_formula_units_Z 48
_cell_length_a 13.070799
_cell_length_b 14.368437
_cell_length_c 10.233631
_cell_angle_alpha 90.000000
_cell_angle_beta 90.000000
_cell_angle_gamma 90.000000
_cell_volume 1921.947046
_symmetry_space_group_name_H-M "C 2 2 21"
_symmetry_group_IT_number 20
_symmetry_cell_setting 'orthorhombic'
loop_
_space_group_symop_operation_xyz
x,y,z
-x,-y,1/2+z
x,-y,-z
-x,y,1/2-z
1/2+x,1/2+y,z
1/2-x,1/2-y,1/2+z
1/2+x,1/2-y,-z
1/2-x,1/2+y,1/2-z
loop_
_atom_site_type_symbol
_atom_site_label
_atom_site_fract_x
_atom_site_fract_y
_atom_site_fract_z
Si Si1 0.825301 0.965587 0.685940
Si Si2 0.809669 0.854441 0.422746
Si Si3 0.423523 0.808668 0.007327
Si Si4 0.862192 0.103827 0.027784
Si Si5 0.603248 0.053917 0.268570
Si Si6 0.140868 0.650120 0.005486
O O1 0.843555 0.901242 0.560814
O O2 0.846537 0.906444 0.814987
O O3 0.704470 0.987144 0.673029
O O4 0.862059 0.072371 0.677698
O O5 0.685098 0.836812 0.426513
O O6 0.848514 0.749585 0.422549
O O7 0.424530 0.696818 0.000522
O O8 0.419700 0.858460 0.864296
O O9 0.532369 0.841826 0.066822
O O10 0.753209 0.123045 0.952062
O O11 0.902154 0.000000 0.000000
O O12 0.500000 0.998269 0.250000
O O13 0.629766 0.077084 0.120835
#
# Coordination Sequence:
#
# PCOD9318793 Si02
#       6
#     8   8   8   8   8   8
#     4   9  18  34  52  79 107 141 180 225 274 321
#     4   9  18  34  58  75 107 148 183 223 272 329
#     4   9  18  35  55  81 107 149 184 221 273 335
#     4  10  21  36  56  84 114 143 178 239 276 323
#     4   8  15  30  54  79 106 138 180 224 266 327
#     4   9  18  35  56  79 110 145 185 222 276 332
#
# _framework density 24.974672999999999
#
# number of rings (size 3 to 8) (size 9 to 14) (size 15 to 20)
#    0.000    3.000    0.000    0.000    2.333    0.000 
#   18.000    0.833    0.000    0.000    0.000    0.000 
#    0.000    0.000    0.000    0.000    0.000    0.000 
#
# Total GULP energy -133603.196321 kJ/mol
# GULP energy per Si atom -5566.799847 kJ/mol
# Density = 2.491783 g / cm^3
# Si number density = 24.974673 Si / 1000 Ang^3
#
#
#
# Elastic Constant Matrix: (Units=GPa)
#
#
# Indices 1 2 3 4 5 6 
#
# 1 60.7853 10.3721 21.3123 0.0000 0.0000 0.0000
# 2 10.3721 130.4082 22.5932 0.0000 0.0000 0.0000
# 3 21.3123 22.5932 28.1184 0.0000 0.0000 0.0000
# 4 0.0000 0.0000 0.0000 26.3794 0.0000 0.0000
# 5 0.0000 0.0000 0.0000 0.0000 9.3930 0.0000
# 6 0.0000 0.0000 0.0000 0.0000 0.0000 -43.9012
#
#
#
# Elastic Compliance Matrix: (Units=1/GPa)
#
#
# Indices 1 2 3 4 5 6 
#
# 1 0.022611 0.001360 -0.018231 0.000000 0.000000 0.000000
# 2 0.001360 0.008990 -0.008255 0.000000 0.000000 0.000000
# 3 -0.018231 -0.008255 0.056015 0.000000 0.000000 0.000000
# 4 0.000000 0.000000 0.000000 0.037908 0.000000 0.000000
# 5 0.000000 0.000000 0.000000 0.000000 0.106462 0.000000
# 6 0.000000 0.000000 0.000000 0.000000 0.000000 -0.022778
#
#
# Mechanical properties :
#
#
# Convention : Reuss Voigt Hill
#
# Bulk Modulus (GPa) = 26.76288 36.42968 31.59628
# Shear Modulus (GPa) = 18.38810 9.37651 13.88231
#
# Velocity S-wave (km/s) = 2.71637 1.93973 2.36022
# Velocity P-wave (km/s) = 4.53624 4.43115 4.48400
#
# Compressibility (1/GPa) = 0.03736518
#
# Stress axis : x y z
#
# Youngs Moduli (GPa) = 44.22536 111.23292 17.85241
#
# Poissons Ratio (x) = -0.15129 0.32547
# Poissons Ratio (y) = -0.06015 0.14736
# Poissons Ratio (z) = 0.80628 0.91818
#
# Static dielectric constant tensor:
#      x y z
#    x 2.104330 0.000000 0.000000 
#    y 0.000000 1.968980 0.000000 
#    z 0.000000 0.000000 1.965450 
# 
# From -- ./inp_files/15050.got.cif
#   From: 2010.05.17/outbox.cif.g08.bks.cpg/sg20_8_cif.got.tgz:15050.got - 2010.06.03 22:52:26.
