data_PCOD9318118
_publ_section_title
;
Structure prediction by ZEFSAII (Michael W. Deem and Ramdas Pophale) SiO2 
 PCOD9318118
Probable space group: C 2 2 21
;
_chemical_formula_sum "Si O2"
_cell_formula_units_Z 48
_cell_length_a 30.256797
_cell_length_b 5.523077
_cell_length_c 13.934699
_cell_angle_alpha 90.000000
_cell_angle_beta 90.000000
_cell_angle_gamma 90.000000
_cell_volume 2328.636184
_symmetry_space_group_name_H-M "C 2 2 21"
_symmetry_group_IT_number 20
_symmetry_cell_setting 'orthorhombic'
loop_
_space_group_symop_operation_xyz
x,y,z
-x,-y,1/2+z
x,-y,-z
-x,y,1/2-z
1/2+x,1/2+y,z
1/2-x,1/2-y,1/2+z
1/2+x,1/2-y,-z
1/2-x,1/2+y,1/2-z
loop_
_atom_site_type_symbol
_atom_site_label
_atom_site_fract_x
_atom_site_fract_y
_atom_site_fract_z
Si Si1 0.089916 0.000000 0.000000
Si Si2 0.500000 0.868909 0.250000
Si Si3 0.137195 0.666075 0.857702
Si Si4 0.337755 0.256851 0.943680
Si Si5 0.777373 0.704647 0.753916
Si Si6 0.082609 0.100084 0.318870
Si Si7 0.070404 0.279846 0.822690
O O1 0.120734 0.793582 0.953702
O O2 0.061782 0.096558 0.909910
O O3 0.534322 0.715195 0.312674
O O4 0.468858 0.029489 0.317567
O O5 0.188392 0.682516 0.834566
O O6 0.111438 0.802697 0.771430
O O7 0.117233 0.399412 0.848378
O O8 0.306533 0.220095 0.851032
O O9 0.387227 0.328347 0.907702
O O10 0.322328 0.500000 0.000000
O O11 0.338207 0.000000 0.000000
O O12 0.749073 0.457111 0.755712
O O13 0.075364 0.824820 0.284986
#
# Coordination Sequence:
#
# PCOD9318118 Si02
#       7
#     4   4   8   8   8   8   8
#     4  10  20  38  60 100 118 174 214 278 324 406
#     4  10  20  38  62  92 124 174 222 274 330 404
#     4   9  21  38  65  88 128 168 217 259 335 401
#     4  11  25  45  70  99 137 180 229 282 336 410
#     4  11  25  45  71 101 135 179 219 276 346 408
#     4   9  21  38  65  88 125 178 219 270 331 401
#     4  10  20  38  65  89 129 172 220 273 339 398
#
# _framework density 20.612924
#
# number of rings (size 3 to 8) (size 9 to 14) (size 15 to 20)
#    0.000    2.000    0.000    2.000   14.000    0.000 
#    4.500    6.667    7.333    0.000    0.000    0.000 
#    0.000    0.000    0.000    0.000    0.000    0.000 
#
# Total GULP energy -133776.191076 kJ/mol
# GULP energy per Si atom -5574.007962 kJ/mol
# Density = 2.056601 g / cm^3
# Si number density = 20.612924 Si / 1000 Ang^3
#
#
#
# Elastic Constant Matrix: (Units=GPa)
#
#
# Indices 1 2 3 4 5 6 
#
# 1 123.6913 56.1117 28.9096 0.0000 0.0000 0.0000
# 2 56.1117 126.0681 42.4181 0.0000 0.0000 0.0000
# 3 28.9096 42.4181 76.2992 0.0000 0.0000 0.0000
# 4 0.0000 0.0000 0.0000 30.2917 0.0000 0.0000
# 5 0.0000 0.0000 0.0000 0.0000 19.5839 0.0000
# 6 0.0000 0.0000 0.0000 0.0000 0.0000 19.3364
#
#
#
# Elastic Compliance Matrix: (Units=1/GPa)
#
#
# Indices 1 2 3 4 5 6 
#
# 1 0.010299 -0.004024 -0.001665 0.000000 0.000000 0.000000
# 2 -0.004024 0.011329 -0.004774 0.000000 0.000000 0.000000
# 3 -0.001665 -0.004774 0.016391 0.000000 0.000000 0.000000
# 4 0.000000 0.000000 0.000000 0.033012 0.000000 0.000000
# 5 0.000000 0.000000 0.000000 0.000000 0.051062 0.000000
# 6 0.000000 0.000000 0.000000 0.000000 0.000000 0.051716
#
#
# Mechanical properties :
#
#
# Convention : Reuss Voigt Hill
#
# Bulk Modulus (GPa) = 58.50049 64.54862 61.52455
# Shear Modulus (GPa) = 24.94579 27.08369 26.01474
#
# Velocity S-wave (km/s) = 3.48257 3.62873 3.55640
# Velocity P-wave (km/s) = 6.67931 6.99568 6.83932
#
# Compressibility (1/GPa) = 0.01709388
#
# Stress axis : x y z
#
# Youngs Moduli (GPa) = 97.09469 88.26564 61.00782
#
# Poissons Ratio (x) = 0.35516 0.10160
# Poissons Ratio (y) = 0.39068 0.29125
# Poissons Ratio (z) = 0.16170 0.42137
#
# Static dielectric constant tensor:
#      x y z
#    x 1.722380 0.000000 0.000000 
#    y 0.000000 1.860050 0.000000 
#    z 0.000000 0.000000 1.767950 
# 
# From -- ./inp_files/22168.got.cif
#   From: 2010.05.17/outbox.cif.g08.bks.cpg/sg20_12_cif.got.tgz:22168.got - 2010.06.03 22:52:26.
