data_PCOD9318572
_publ_section_title
;
Structure prediction by ZEFSAII (Michael W. Deem and Ramdas Pophale) SiO2 
 PCOD9318572
Probable space group: C 2 2 21
;
_chemical_formula_sum "Si O2"
_cell_formula_units_Z 56
_cell_length_a 13.708064
_cell_length_b 12.832084
_cell_length_c 11.734159
_cell_angle_alpha 90.000000
_cell_angle_beta 90.000000
_cell_angle_gamma 90.000000
_cell_volume 2064.074108
_symmetry_space_group_name_H-M "C 2 2 21"
_symmetry_group_IT_number 20
_symmetry_cell_setting 'orthorhombic'
loop_
_space_group_symop_operation_xyz
x,y,z
-x,-y,1/2+z
x,-y,-z
-x,y,1/2-z
1/2+x,1/2+y,z
1/2-x,1/2-y,1/2+z
1/2+x,1/2-y,-z
1/2-x,1/2+y,1/2-z
loop_
_atom_site_type_symbol
_atom_site_label
_atom_site_fract_x
_atom_site_fract_y
_atom_site_fract_z
Si Si1 0.233531 0.061063 0.650750
Si Si2 0.673046 0.661772 0.867765
Si Si3 0.417244 0.500000 0.000000
Si Si4 0.119018 0.451102 0.621306
Si Si5 0.500000 0.786538 0.750000
Si Si6 0.042462 0.404358 0.096040
Si Si7 0.283478 0.349462 0.782690
Si Si8 0.938870 0.163568 0.404155
O O1 0.205023 0.070888 0.783160
O O2 0.139380 0.088383 0.576516
O O3 0.341864 0.100533 0.629291
O O4 0.230879 0.938698 0.624088
O O5 0.582163 0.716034 0.805162
O O6 0.758318 0.744846 0.848522
O O7 0.641044 0.643736 0.995515
O O8 0.485421 0.430053 0.918774
O O9 0.154507 0.500000 0.500000
O O10 0.037364 0.361738 0.648125
O O11 0.202895 0.389106 0.690274
O O12 0.055672 0.552669 0.661077
O O13 0.022151 0.281381 0.077343
O O14 0.045522 0.500000 0.000000
O O15 0.383524 0.339718 0.715872
#
# Coordination Sequence:
#
# PCOD9318572 Si02
#       8
#     8   8   4   8   4   8   8   8
#     4  12  25  46  73 106 151 204 246 310 388 452
#     4  11  23  42  72 100 144 198 242 301 370 456
#     4  12  30  50  76 110 156 206 258 314 388 474
#     4  10  22  40  71 102 137 182 239 317 368 437
#     4  10  20  42  64 100 142 184 242 292 374 444
#     4  11  22  47  74 108 144 191 254 309 373 447
#     4  11  26  46  71 111 150 192 253 319 381 451
#     4  12  26  49  74 111 152 199 256 311 378 467
#
# _framework density 27.130807000000001
#
# number of rings (size 3 to 8) (size 9 to 14) (size 15 to 20)
#    0.000    0.857    2.143    6.000    3.000    4.000 
#    2.571    1.429    0.000    0.000    0.000    0.000 
#    0.000    0.000    0.000    0.000    0.000    0.000 
#
# Total GULP energy -156092.555500 kJ/mol
# GULP energy per Si atom -5574.734125 kJ/mol
# Density = 2.706906 g / cm^3
# Si number density = 27.130807 Si / 1000 Ang^3
#
#
#
# Elastic Constant Matrix: (Units=GPa)
#
#
# Indices 1 2 3 4 5 6 
#
# 1 74.1408 15.9077 -3.6251 0.0000 0.0000 0.0000
# 2 15.9077 103.4801 -11.0823 0.0000 0.0000 0.0000
# 3 -3.6251 -11.0823 53.6279 0.0000 0.0000 0.0000
# 4 0.0000 0.0000 0.0000 42.1886 0.0000 0.0000
# 5 0.0000 0.0000 0.0000 0.0000 47.2847 0.0000
# 6 0.0000 0.0000 0.0000 0.0000 0.0000 -29.1404
#
#
#
# Elastic Compliance Matrix: (Units=1/GPa)
#
#
# Indices 1 2 3 4 5 6 
#
# 1 0.013962 -0.002091 0.000512 0.000000 0.000000 0.000000
# 2 -0.002091 0.010196 0.001966 0.000000 0.000000 0.000000
# 3 0.000512 0.001966 0.019088 0.000000 0.000000 0.000000
# 4 0.000000 0.000000 0.000000 0.023703 0.000000 0.000000
# 5 0.000000 0.000000 0.000000 0.000000 0.021148 0.000000
# 6 0.000000 0.000000 0.000000 0.000000 0.000000 -0.034317
#
#
# Mechanical properties :
#
#
# Convention : Reuss Voigt Hill
#
# Bulk Modulus (GPa) = 22.71882 25.96106 24.33994
# Shear Modulus (GPa) = 73.87614 27.40316 50.63965
#
# Velocity S-wave (km/s) = 5.22386 3.18156 4.32499
# Velocity P-wave (km/s) = 6.69156 4.80479 5.82507
#
# Compressibility (1/GPa) = 0.04401637
#
# Stress axis : x y z
#
# Youngs Moduli (GPa) = 71.62494 98.08042 52.38958
#
# Poissons Ratio (x) = 0.20513 -0.02680
# Poissons Ratio (y) = 0.14980 -0.10298
# Poissons Ratio (z) = -0.03664 -0.19279
#
# Static dielectric constant tensor:
#      x y z
#    x 1.639360 0.000000 0.000000 
#    y 0.000000 2.106700 0.000000 
#    z 0.000000 0.000000 3.075440 
# 
# From -- ./inp_files/20768.got.cif
#   From: 2010.05.17/outbox.cif.g08.bks.cpg/sg20_11_cif.got.tgz:20768.got - 2010.06.03 22:52:26.
