data_PCOD9318549
_publ_section_title
;
Structure prediction by ZEFSAII (Michael W. Deem and Ramdas Pophale) SiO2 
 PCOD9318549
Probable space group: C 2 2 21
;
_chemical_formula_sum "Si O2"
_cell_formula_units_Z 48
_cell_length_a 15.280115
_cell_length_b 15.084363
_cell_length_c 7.546664
_cell_angle_alpha 90.000000
_cell_angle_beta 90.000000
_cell_angle_gamma 90.000000
_cell_volume 1739.436633
_symmetry_space_group_name_H-M "C 2 2 21"
_symmetry_group_IT_number 20
_symmetry_cell_setting 'orthorhombic'
loop_
_space_group_symop_operation_xyz
x,y,z
-x,-y,1/2+z
x,-y,-z
-x,y,1/2-z
1/2+x,1/2+y,z
1/2-x,1/2-y,1/2+z
1/2+x,1/2-y,-z
1/2-x,1/2+y,1/2-z
loop_
_atom_site_type_symbol
_atom_site_label
_atom_site_fract_x
_atom_site_fract_y
_atom_site_fract_z
Si Si1 0.815937 0.573817 0.686210
Si Si2 0.000810 0.403747 0.967875
Si Si3 0.697041 0.711451 0.770860
Si Si4 0.907429 0.775562 0.907985
Si Si5 0.051039 0.901569 0.064445
Si Si6 0.241504 0.106463 0.330664
O O1 0.044655 0.500000 0.500000
O O2 0.907512 0.580296 0.580212
O O3 0.793820 0.666612 0.782492
O O4 0.787345 0.522130 0.234353
O O5 0.000000 0.390295 0.750000
O O6 0.954923 0.321587 0.067708
O O7 0.654414 0.723979 0.580474
O O8 0.639721 0.647743 0.888573
O O9 0.739908 0.579975 0.536528
O O10 0.692648 0.811085 0.837357
O O11 0.847608 0.842037 0.779283
O O12 0.989957 0.839916 0.945941
O O13 0.000000 0.909741 0.250000
O O14 0.066793 0.000000 0.000000
#
# Coordination Sequence:
#
# PCOD9318549 Si02
#       6
#     8   8   8   8   8   8
#     4  10  22  42  75  99 143 205 242 303 390 441
#     4  12  25  46  74 105 149 196 248 310 374 454
#     4  10  22  44  70  97 140 200 244 294 380 450
#     4  10  23  40  68  97 139 187 238 293 379 426
#     4  10  22  41  69 100 141 183 240 304 373 446
#     4  10  20  41  68  98 141 187 249 297 362 452
#
# _framework density 27.595143
#
# number of rings (size 3 to 8) (size 9 to 14) (size 15 to 20)
#    0.000    1.667    1.667    3.500    7.000    1.333 
#    9.000    0.833    0.000    0.000    0.000    0.000 
#    0.000    0.000    0.000    0.000    0.000    0.000 
#
# Total GULP energy -133709.557634 kJ/mol
# GULP energy per Si atom -5571.231568 kJ/mol
# Density = 2.753234 g / cm^3
# Si number density = 27.595143 Si / 1000 Ang^3
#
#
#
# Elastic Constant Matrix: (Units=GPa)
#
#
# Indices 1 2 3 4 5 6 
#
# 1 123.2499 82.2429 32.6959 0.0000 0.0000 0.0000
# 2 82.2429 262.8342 35.8698 0.0000 0.0000 0.0000
# 3 32.6959 35.8698 119.9810 0.0000 0.0000 0.0000
# 4 0.0000 0.0000 0.0000 1.0559 0.0000 0.0000
# 5 0.0000 0.0000 0.0000 0.0000 28.7468 0.0000
# 6 0.0000 0.0000 0.0000 0.0000 0.0000 74.1613
#
#
#
# Elastic Compliance Matrix: (Units=1/GPa)
#
#
# Indices 1 2 3 4 5 6 
#
# 1 0.010694 -0.003074 -0.001995 0.000000 0.000000 0.000000
# 2 -0.003074 0.004850 -0.000612 0.000000 0.000000 0.000000
# 3 -0.001995 -0.000612 0.009061 0.000000 0.000000 0.000000
# 4 0.000000 0.000000 0.000000 0.947016 0.000000 0.000000
# 5 0.000000 0.000000 0.000000 0.000000 0.034786 0.000000
# 6 0.000000 0.000000 0.000000 0.000000 0.000000 0.013484
#
#
# Mechanical properties :
#
#
# Convention : Reuss Voigt Hill
#
# Bulk Modulus (GPa) = 75.51387 89.74248 82.62817
# Shear Modulus (GPa) = 4.82779 44.47658 24.65219
#
# Velocity S-wave (km/s) = 1.32412 4.01902 2.99214
# Velocity P-wave (km/s) = 5.45546 7.35720 6.47651
#
# Compressibility (1/GPa) = 0.01324260
#
# Stress axis : x y z
#
# Youngs Moduli (GPa) = 93.50935 206.18066 110.35781
#
# Poissons Ratio (x) = 0.63379 0.22019
# Poissons Ratio (y) = 0.28745 0.06757
# Poissons Ratio (z) = 0.18657 0.12625
#
# Static dielectric constant tensor:
#      x y z
#    x 2.257940 0.000000 0.000000 
#    y 0.000000 2.461410 0.000000 
#    z 0.000000 0.000000 2.249750 
# 
# From -- ./inp_files/15221.got.cif
#   From: 2010.05.17/outbox.cif.g08.bks.cpg/sg20_8_cif.got.tgz:15221.got - 2010.06.03 22:52:26.
