data_PCOD9318340
_publ_section_title
;
Structure prediction by ZEFSAII (Michael W. Deem and Ramdas Pophale) SiO2 
 PCOD9318340
Probable space group: C 2 2 21
;
_chemical_formula_sum "Si O2"
_cell_formula_units_Z 56
_cell_length_a 12.190275
_cell_length_b 13.768060
_cell_length_c 14.875569
_cell_angle_alpha 90.000000
_cell_angle_beta 90.000000
_cell_angle_gamma 90.000000
_cell_volume 2496.662508
_symmetry_space_group_name_H-M "C 2 2 21"
_symmetry_group_IT_number 20
_symmetry_cell_setting 'orthorhombic'
loop_
_space_group_symop_operation_xyz
x,y,z
-x,-y,1/2+z
x,-y,-z
-x,y,1/2-z
1/2+x,1/2+y,z
1/2-x,1/2-y,1/2+z
1/2+x,1/2-y,-z
1/2-x,1/2+y,1/2-z
loop_
_atom_site_type_symbol
_atom_site_label
_atom_site_fract_x
_atom_site_fract_y
_atom_site_fract_z
Si Si1 0.405847 0.314555 0.827032
Si Si2 0.181888 0.374112 0.278751
Si Si3 0.565270 0.857415 0.456228
Si Si4 0.663602 0.863673 0.082379
Si Si5 0.878977 0.050965 0.636413
Si Si6 0.387458 0.478082 0.097959
Si Si7 0.710862 0.360359 0.953562
O O1 0.500000 0.317908 0.750000
O O2 0.442138 0.254065 0.916907
O O3 0.312391 0.242454 0.790790
O O4 0.365342 0.419337 0.854499
O O5 0.115075 0.408879 0.366328
O O6 0.125370 0.388325 0.183881
O O7 0.301873 0.418904 0.281348
O O8 0.278372 0.418910 0.074742
O O9 0.441618 0.886984 0.478720
O O10 0.657566 0.870412 0.531614
O O11 0.688316 0.749711 0.073051
O O12 0.838258 0.115779 0.552116
O O13 0.845179 0.939865 0.611232
O O14 0.007420 0.066021 0.647949
O O15 0.438872 0.500000 0.000000
#
# Coordination Sequence:
#
# PCOD9318340 Si02
#       7
#     8   8   8   8   8   8   8
#     4  10  20  39  66  89 121 170 207 257 315 389
#     4   9  21  39  66  93 119 171 215 256 314 387
#     4   9  19  41  65  88 124 167 214 251 326 384
#     4  12  23  37  64  98 130 159 215 276 311 372
#     4  10  22  40  66  89 128 164 225 254 315 394
#     4  12  26  38  60 101 129 164 212 274 316 368
#     4  10  21  38  68  91 122 176 206 263 320 388
#
# _framework density 22.429943999999999
#
# number of rings (size 3 to 8) (size 9 to 14) (size 15 to 20)
#    0.857    0.857    2.857    2.143    4.000    0.000 
#    5.143    0.000    0.000    0.000    0.000    0.000 
#    0.000    0.000    0.000    0.000    0.000    0.000 
#
# Total GULP energy -156177.011087 kJ/mol
# GULP energy per Si atom -5577.750396 kJ/mol
# Density = 2.237889 g / cm^3
# Si number density = 22.429944 Si / 1000 Ang^3
#
#
#
# Elastic Constant Matrix: (Units=GPa)
#
#
# Indices 1 2 3 4 5 6 
#
# 1 194.4711 49.2364 10.8510 0.0000 0.0000 0.0000
# 2 49.2364 104.1380 10.8819 0.0000 0.0000 0.0000
# 3 10.8510 10.8819 35.1566 0.0000 0.0000 0.0000
# 4 0.0000 0.0000 0.0000 24.9692 0.0000 0.0000
# 5 0.0000 0.0000 0.0000 0.0000 27.3002 0.0000
# 6 0.0000 0.0000 0.0000 0.0000 0.0000 25.1661
#
#
#
# Elastic Compliance Matrix: (Units=1/GPa)
#
#
# Indices 1 2 3 4 5 6 
#
# 1 0.005874 -0.002674 -0.000985 0.000000 0.000000 0.000000
# 2 -0.002674 0.011141 -0.002623 0.000000 0.000000 0.000000
# 3 -0.000985 -0.002623 0.029560 0.000000 0.000000 0.000000
# 4 0.000000 0.000000 0.000000 0.040049 0.000000 0.000000
# 5 0.000000 0.000000 0.000000 0.000000 0.036630 0.000000
# 6 0.000000 0.000000 0.000000 0.000000 0.000000 0.039736
#
#
# Mechanical properties :
#
#
# Convention : Reuss Voigt Hill
#
# Bulk Modulus (GPa) = 29.40295 52.85601 41.12948
# Shear Modulus (GPa) = 26.75330 33.00686 29.88008
#
# Velocity S-wave (km/s) = 3.45737 3.84025 3.65382
# Velocity P-wave (km/s) = 5.39213 6.57871 6.01475
#
# Compressibility (1/GPa) = 0.03401019
#
# Stress axis : x y z
#
# Youngs Moduli (GPa) = 170.23509 89.75709 33.82929
#
# Poissons Ratio (x) = 0.24004 0.03333
# Poissons Ratio (y) = 0.45527 0.08874
# Poissons Ratio (z) = 0.16773 0.23544
#
# Static dielectric constant tensor:
#      x y z
#    x 1.869190 0.000000 0.000000 
#    y 0.000000 1.834840 0.000000 
#    z 0.000000 0.000000 1.895260 
# 
# From -- ./inp_files/20944.got.cif
#   From: 2010.05.17/outbox.cif.g08.bks.cpg/sg20_11_cif.got.tgz:20944.got - 2010.06.03 22:52:26.
