data_PCOD9318968
_publ_section_title
;
Structure prediction by ZEFSAII (Michael W. Deem and Ramdas Pophale) SiO2 
 PCOD9318968
Probable space group: C 2 2 21
;
_chemical_formula_sum "Si O2"
_cell_formula_units_Z 40
_cell_length_a 5.338130
_cell_length_b 9.633057
_cell_length_c 29.023151
_cell_angle_alpha 90.000000
_cell_angle_beta 90.000000
_cell_angle_gamma 90.000000
_cell_volume 1492.443289
_symmetry_space_group_name_H-M "C 2 2 21"
_symmetry_group_IT_number 20
_symmetry_cell_setting 'orthorhombic'
loop_
_space_group_symop_operation_xyz
x,y,z
-x,-y,1/2+z
x,-y,-z
-x,y,1/2-z
1/2+x,1/2+y,z
1/2-x,1/2-y,1/2+z
1/2+x,1/2-y,-z
1/2-x,1/2+y,1/2-z
loop_
_atom_site_type_symbol
_atom_site_label
_atom_site_fract_x
_atom_site_fract_y
_atom_site_fract_z
Si Si1 0.025008 0.400030 0.634222
Si Si2 0.023890 0.855940 0.680678
Si Si3 0.687169 0.080644 0.710265
Si Si4 0.853063 0.217800 0.946027
Si Si5 0.648862 0.877144 0.463894
O O1 0.068032 0.545033 0.660104
O O2 0.103998 0.357183 0.583062
O O3 0.731040 0.371173 0.640744
O O4 0.242198 0.314680 0.663617
O O5 0.953078 0.003724 0.704163
O O6 0.168663 0.746197 0.712946
O O7 0.500000 0.024915 0.750000
O O8 0.093047 0.123453 0.936716
O O9 0.596857 0.142922 0.934190
O O10 0.838978 0.242805 0.001315
O O11 0.631951 0.000000 0.500000
#
# Coordination Sequence:
#
# PCOD9318968 Si02
#       5
#     8   8   8   8   8
#     4  10  24  42  64 100 133 179 228 291 349 420
#     4  10  25  43  67 100 134 181 232 286 350 421
#     4  10  26  45  73  98 142 183 238 291 362 424
#     4  10  21  39  62  91 129 163 220 269 335 412
#     4  10  21  38  62  92 125 170 213 267 335 408
#
# _framework density 26.801687000000001
#
# number of rings (size 3 to 8) (size 9 to 14) (size 15 to 20)
#    1.200    0.800    0.000    1.800    5.600    3.200 
#    0.000    0.000    0.000    0.000    0.000    0.000 
#    0.000    0.000    0.000    0.000    0.000    0.000 
#
# Total GULP energy -111464.270197 kJ/mol
# GULP energy per Si atom -5573.213510 kJ/mol
# Density = 2.674069 g / cm^3
# Si number density = 26.801687 Si / 1000 Ang^3
#
#
#
# Elastic Constant Matrix: (Units=GPa)
#
#
# Indices 1 2 3 4 5 6 
#
# 1 209.8217 35.0703 24.4753 0.0000 0.0000 0.0000
# 2 35.0703 85.8620 -3.5859 0.0000 0.0000 0.0000
# 3 24.4753 -3.5859 94.7477 0.0000 0.0000 0.0000
# 4 0.0000 0.0000 0.0000 17.6458 0.0000 0.0000
# 5 0.0000 0.0000 0.0000 0.0000 32.3948 0.0000
# 6 0.0000 0.0000 0.0000 0.0000 0.0000 33.6338
#
#
#
# Elastic Compliance Matrix: (Units=1/GPa)
#
#
# Indices 1 2 3 4 5 6 
#
# 1 0.005308 -0.002229 -0.001456 0.000000 0.000000 0.000000
# 2 -0.002229 0.012601 0.001053 0.000000 0.000000 0.000000
# 3 -0.001456 0.001053 0.010970 0.000000 0.000000 0.000000
# 4 0.000000 0.000000 0.000000 0.056671 0.000000 0.000000
# 5 0.000000 0.000000 0.000000 0.000000 0.030869 0.000000
# 6 0.000000 0.000000 0.000000 0.000000 0.000000 0.029732
#
#
# Mechanical properties :
#
#
# Convention : Reuss Voigt Hill
#
# Bulk Modulus (GPa) = 42.34463 55.81674 49.08068
# Shear Modulus (GPa) = 31.38991 39.03300 35.21145
#
# Velocity S-wave (km/s) = 3.42598 3.82037 3.62854
# Velocity P-wave (km/s) = 5.61100 6.35070 5.99227
#
# Compressibility (1/GPa) = 0.02361575
#
# Stress axis : x y z
#
# Youngs Moduli (GPa) = 188.38416 79.35892 91.15599
#
# Poissons Ratio (x) = 0.17689 0.13269
# Poissons Ratio (y) = 0.41990 -0.09596
# Poissons Ratio (z) = 0.27421 -0.08354
#
# Static dielectric constant tensor:
#      x y z
#    x 2.167600 0.000000 0.000000 
#    y 0.000000 2.189610 0.000000 
#    z 0.000000 0.000000 2.313320 
# 
# From -- ./inp_files/30654.got.cif
#   From: 2010.05.17/outbox.cif.g08.bks.cpg/sg20_16_cif.got.tgz:30654.got - 2010.06.03 22:52:26.
