data_PCOD9318018
_publ_section_title
;
Structure prediction by ZEFSAII (Michael W. Deem and Ramdas Pophale) SiO2 
 PCOD9318018
Probable space group: C 2 2 21
;
_chemical_formula_sum "Si O2"
_cell_formula_units_Z 40
_cell_length_a 24.359807
_cell_length_b 8.935909
_cell_length_c 7.812500
_cell_angle_alpha 90.000000
_cell_angle_beta 90.000000
_cell_angle_gamma 90.000000
_cell_volume 1700.601708
_symmetry_space_group_name_H-M "C 2 2 21"
_symmetry_group_IT_number 20
_symmetry_cell_setting 'orthorhombic'
loop_
_space_group_symop_operation_xyz
x,y,z
-x,-y,1/2+z
x,-y,-z
-x,y,1/2-z
1/2+x,1/2+y,z
1/2-x,1/2-y,1/2+z
1/2+x,1/2-y,-z
1/2-x,1/2+y,1/2-z
loop_
_atom_site_type_symbol
_atom_site_label
_atom_site_fract_x
_atom_site_fract_y
_atom_site_fract_z
Si Si1 0.153102 0.095395 0.167984
Si Si2 0.168347 0.203069 0.638226
Si Si3 0.435934 0.843628 0.719600
Si Si4 0.228137 0.325460 0.961203
Si Si5 0.438000 0.811494 0.309752
O O1 0.195370 0.216346 0.091065
O O2 0.103125 0.184663 0.251896
O O3 0.173899 0.966756 0.294431
O O4 0.134219 0.000000 0.000000
O O5 0.105353 0.251597 0.660235
O O6 0.207784 0.221428 0.475381
O O7 0.199577 0.299488 0.781466
O O8 0.500000 0.813048 0.750000
O O9 0.429001 0.814777 0.516239
O O10 0.425551 0.020027 0.751794
O O11 0.221139 0.500000 0.000000
O O12 0.500000 0.780439 0.250000
#
# Coordination Sequence:
#
# PCOD9318018 Si02
#       5
#     8   8   8   8   8
#     4  10  20  37  61  91 123 160 205 257 317 361
#     4  11  23  41  65  94 128 164 210 263 314 377
#     4  10  21  41  66  92 125 163 204 258 319 371
#     4  11  22  41  66  89 125 172 205 256 317 372
#     4  10  20  39  67  88 122 167 210 250 312 380
#
# _framework density 23.521086
#
# number of rings (size 3 to 8) (size 9 to 14) (size 15 to 20)
#    0.000    1.600    4.000    2.400    0.000    0.800 
#    7.200    2.000   13.200    0.000    0.000    0.000 
#    0.000    0.000    0.000    0.000    0.000    0.000 
#
# Total GULP energy -111838.759811 kJ/mol
# GULP energy per Si atom -5591.937991 kJ/mol
# Density = 2.346755 g / cm^3
# Si number density = 23.521086 Si / 1000 Ang^3
#
#
#
# Elastic Constant Matrix: (Units=GPa)
#
#
# Indices 1 2 3 4 5 6 
#
# 1 128.5475 70.4745 13.0455 0.0000 0.0000 0.0000
# 2 70.4745 120.3005 6.2395 0.0000 0.0000 0.0000
# 3 13.0455 6.2395 48.2407 0.0000 0.0000 0.0000
# 4 0.0000 0.0000 0.0000 20.2732 0.0000 0.0000
# 5 0.0000 0.0000 0.0000 0.0000 29.2646 0.0000
# 6 0.0000 0.0000 0.0000 0.0000 0.0000 28.2364
#
#
#
# Elastic Compliance Matrix: (Units=1/GPa)
#
#
# Indices 1 2 3 4 5 6 
#
# 1 0.011707 -0.006739 -0.002294 0.000000 0.000000 0.000000
# 2 -0.006739 0.012248 0.000238 0.000000 0.000000 0.000000
# 3 -0.002294 0.000238 0.021319 0.000000 0.000000 0.000000
# 4 0.000000 0.000000 0.000000 0.049326 0.000000 0.000000
# 5 0.000000 0.000000 0.000000 0.000000 0.034171 0.000000
# 6 0.000000 0.000000 0.000000 0.000000 0.000000 0.035415
#
#
# Mechanical properties :
#
#
# Convention : Reuss Voigt Hill
#
# Bulk Modulus (GPa) = 36.12221 52.95639 44.53930
# Shear Modulus (GPa) = 26.17751 29.37680 27.77716
#
# Velocity S-wave (km/s) = 3.33969 3.53789 3.44022
# Velocity P-wave (km/s) = 5.50110 6.26516 5.89552
#
# Compressibility (1/GPa) = 0.02768380
#
# Stress axis : x y z
#
# Youngs Moduli (GPa) = 85.42192 81.64608 46.90655
#
# Poissons Ratio (x) = 0.55021 0.10761
# Poissons Ratio (y) = 0.57566 -0.01117
# Poissons Ratio (z) = 0.19597 -0.01945
#
# Static dielectric constant tensor:
#      x y z
#    x 1.902050 0.000000 0.000000 
#    y 0.000000 1.849050 0.000000 
#    z 0.000000 0.000000 2.005720 
# 
# From -- ./inp_files/6036.got.cif
#   From: 2010.05.17/outbox.cif.g08.bks.cpg/sg20_4_cif.got.tgz:6036.got - 2010.06.03 22:52:26.
