data_PCOD9318378
_publ_section_title
;
Structure prediction by ZEFSAII (Michael W. Deem and Ramdas Pophale) SiO2 
 PCOD9318378
Probable space group: C 2 2 21
;
_chemical_formula_sum "Si O2"
_cell_formula_units_Z 56
_cell_length_a 11.658436
_cell_length_b 12.423884
_cell_length_c 19.384206
_cell_angle_alpha 90.000000
_cell_angle_beta 90.000000
_cell_angle_gamma 90.000000
_cell_volume 2807.667645
_symmetry_space_group_name_H-M "C 2 2 21"
_symmetry_group_IT_number 20
_symmetry_cell_setting 'orthorhombic'
loop_
_space_group_symop_operation_xyz
x,y,z
-x,-y,1/2+z
x,-y,-z
-x,y,1/2-z
1/2+x,1/2+y,z
1/2-x,1/2-y,1/2+z
1/2+x,1/2-y,-z
1/2-x,1/2+y,1/2-z
loop_
_atom_site_type_symbol
_atom_site_label
_atom_site_fract_x
_atom_site_fract_y
_atom_site_fract_z
Si Si1 0.896872 0.158294 0.118727
Si Si2 0.644289 0.768398 0.518537
Si Si3 0.113086 0.500000 0.500000
Si Si4 0.335354 0.300212 0.631133
Si Si5 0.000000 0.203490 0.750000
Si Si6 0.250452 0.233161 0.769180
Si Si7 0.777210 0.036521 0.628686
Si Si8 0.468894 0.416962 0.107758
O O1 0.831884 0.185595 0.189228
O O2 0.028656 0.199561 0.120842
O O3 0.905121 0.031139 0.103870
O O4 0.834923 0.223591 0.057816
O O5 0.761750 0.787147 0.561311
O O6 0.580171 0.673395 0.558314
O O7 0.568823 0.879040 0.517261
O O8 0.184785 0.527590 0.568653
O O9 0.295838 0.220188 0.691387
O O10 0.299093 0.418190 0.658983
O O11 0.883667 0.267343 0.733035
O O12 0.967838 0.128356 0.814496
O O13 0.251543 0.122502 0.812754
O O14 0.897226 0.065723 0.592263
#
# Coordination Sequence:
#
# PCOD9318378 Si02
#       8
#     8   8   4   8   4   8   8   8
#     4  11  24  38  69  97 124 167 217 275 323 375
#     4  11  22  40  64  90 131 160 214 262 324 382
#     4  10  20  40  60  90 118 180 202 262 312 414
#     4  10  23  39  66  93 125 167 219 267 320 392
#     4  10  22  40  64  92 126 180 208 264 328 394
#     4  11  21  40  63  94 127 165 213 273 316 387
#     4   9  21  37  66  88 120 170 222 259 319 385
#     4  10  22  38  66  95 122 161 222 274 312 367
#
# _framework density 19.945381000000001
#
# number of rings (size 3 to 8) (size 9 to 14) (size 15 to 20)
#    0.000    1.714    2.857    0.857   12.000    0.000 
#    0.000    0.000   22.000    0.000    0.000    0.000 
#    0.000    0.000    0.000    0.000    0.000    0.000 
#
# Total GULP energy -156169.861233 kJ/mol
# GULP energy per Si atom -5577.495044 kJ/mol
# Density = 1.989998 g / cm^3
# Si number density = 19.945381 Si / 1000 Ang^3
#
#
#
# Elastic Constant Matrix: (Units=GPa)
#
#
# Indices 1 2 3 4 5 6 
#
# 1 57.4004 35.1826 19.9785 0.0000 0.0000 0.0000
# 2 35.1826 80.0905 13.5702 0.0000 0.0000 0.0000
# 3 19.9785 13.5702 90.4447 0.0000 0.0000 0.0000
# 4 0.0000 0.0000 0.0000 29.9191 0.0000 0.0000
# 5 0.0000 0.0000 0.0000 0.0000 19.8955 0.0000
# 6 0.0000 0.0000 0.0000 0.0000 0.0000 378.3298
#
#
#
# Elastic Compliance Matrix: (Units=1/GPa)
#
#
# Indices 1 2 3 4 5 6 
#
# 1 0.025179 -0.010382 -0.004004 0.000000 0.000000 0.000000
# 2 -0.010382 0.017093 -0.000271 0.000000 0.000000 0.000000
# 3 -0.004004 -0.000271 0.011982 0.000000 0.000000 0.000000
# 4 0.000000 0.000000 0.000000 0.033424 0.000000 0.000000
# 5 0.000000 0.000000 0.000000 0.000000 0.050263 0.000000
# 6 0.000000 0.000000 0.000000 0.000000 0.000000 0.002643
#
#
# Mechanical properties :
#
#
# Convention : Reuss Voigt Hill
#
# Bulk Modulus (GPa) = 40.09942 40.59980 40.34961
# Shear Modulus (GPa) = 28.05679 96.24249 62.14964
#
# Velocity S-wave (km/s) = 3.75464 6.95398 5.58816
# Velocity P-wave (km/s) = 6.24057 9.21286 7.86834
#
# Compressibility (1/GPa) = 0.02493801
#
# Stress axis : x y z
#
# Youngs Moduli (GPa) = 39.71609 58.50488 83.46110
#
# Poissons Ratio (x) = 0.60741 0.33418
# Poissons Ratio (y) = 0.41234 0.02263
# Poissons Ratio (z) = 0.15902 0.01587
#
# Static dielectric constant tensor:
#      x y z
#    x 1.717630 0.000000 0.000000 
#    y 0.000000 1.750040 0.000000 
#    z 0.000000 0.000000 0.394060 
# 
# From -- ./inp_files/27221.got.cif
#   From: 2010.05.17/outbox.cif.g08.bks.cpg/sg20_14_cif.got.tgz:27221.got - 2010.06.03 22:52:26.
