data_PCOD9318578
_publ_section_title
;
Structure prediction by ZEFSAII (Michael W. Deem and Ramdas Pophale) SiO2 
 PCOD9318578
Probable space group: C 2 2 21
;
_chemical_formula_sum "Si O2"
_cell_formula_units_Z 44
_cell_length_a 11.927947
_cell_length_b 6.976209
_cell_length_c 25.181685
_cell_angle_alpha 90.000000
_cell_angle_beta 90.000000
_cell_angle_gamma 90.000000
_cell_volume 2095.414626
_symmetry_space_group_name_H-M "C 2 2 21"
_symmetry_group_IT_number 20
_symmetry_cell_setting 'orthorhombic'
loop_
_space_group_symop_operation_xyz
x,y,z
-x,-y,1/2+z
x,-y,-z
-x,y,1/2-z
1/2+x,1/2+y,z
1/2-x,1/2-y,1/2+z
1/2+x,1/2-y,-z
1/2-x,1/2+y,1/2-z
loop_
_atom_site_type_symbol
_atom_site_label
_atom_site_fract_x
_atom_site_fract_y
_atom_site_fract_z
Si Si1 0.108086 0.877480 0.850141
Si Si2 0.371516 0.500000 0.000000
Si Si3 0.788076 0.242172 0.669843
Si Si4 0.631262 0.907251 0.240160
Si Si5 0.725860 0.878477 0.550604
Si Si6 0.401220 0.228726 0.909152
O O1 0.145056 0.783276 0.795146
O O2 0.194542 0.856771 0.898732
O O3 0.995763 0.766362 0.865924
O O4 0.105522 0.106328 0.841744
O O5 0.303845 0.332620 0.030130
O O6 0.434648 0.626248 0.043793
O O7 0.821985 0.424728 0.703247
O O8 0.718899 0.287262 0.616336
O O9 0.700562 0.120968 0.705882
O O10 0.500000 0.939661 0.250000
O O11 0.772482 0.000000 0.500000
O O12 0.620719 0.013272 0.569598
#
# Coordination Sequence:
#
# PCOD9318578 Si02
#       6
#     8   4   8   8   8   8
#     4  11  23  41  65  95 127 167 215 264 320 379
#     4  10  20  42  64  92 130 170 208 260 320 376
#     4  11  24  42  63  91 128 165 213 266 318 382
#     4  12  24  40  63  91 123 167 213 263 322 383
#     4   9  21  41  63  94 131 165 210 261 311 385
#     4  10  22  40  64  93 130 166 214 263 316 383
#
# _framework density 20.998228999999998
#
# number of rings (size 3 to 8) (size 9 to 14) (size 15 to 20)
#    0.000    1.455    3.636    1.091    1.273    3.636 
#    4.909    0.000    0.000    0.000    0.000    0.000 
#    0.000    0.000    0.000    0.000    0.000    0.000 
#
# Total GULP energy -122702.045607 kJ/mol
# GULP energy per Si atom -5577.365709 kJ/mol
# Density = 2.095044 g / cm^3
# Si number density = 20.998229 Si / 1000 Ang^3
#
#
#
# Elastic Constant Matrix: (Units=GPa)
#
#
# Indices 1 2 3 4 5 6 
#
# 1 47.3751 18.9057 -2.1507 0.0000 0.0000 0.0000
# 2 18.9057 80.8014 -4.9788 0.0000 0.0000 0.0000
# 3 -2.1507 -4.9788 51.3770 0.0000 0.0000 0.0000
# 4 0.0000 0.0000 0.0000 44.3076 0.0000 0.0000
# 5 0.0000 0.0000 0.0000 0.0000 24.7599 0.0000
# 6 0.0000 0.0000 0.0000 0.0000 0.0000 4.4381
#
#
#
# Elastic Compliance Matrix: (Units=1/GPa)
#
#
# Indices 1 2 3 4 5 6 
#
# 1 0.023292 -0.005422 0.000450 0.000000 0.000000 0.000000
# 2 -0.005422 0.013713 0.001102 0.000000 0.000000 0.000000
# 3 0.000450 0.001102 0.019590 0.000000 0.000000 0.000000
# 4 0.000000 0.000000 0.000000 0.022570 0.000000 0.000000
# 5 0.000000 0.000000 0.000000 0.000000 0.040388 0.000000
# 6 0.000000 0.000000 0.000000 0.000000 0.000000 0.225324
#
#
# Mechanical properties :
#
#
# Convention : Reuss Voigt Hill
#
# Bulk Modulus (GPa) = 20.46954 22.56732 21.51843
# Shear Modulus (GPa) = 13.55375 25.88625 19.72000
#
# Velocity S-wave (km/s) = 2.54337 3.51491 3.06784
# Velocity P-wave (km/s) = 4.28886 5.21952 4.77691
#
# Compressibility (1/GPa) = 0.04885308
#
# Stress axis : x y z
#
# Youngs Moduli (GPa) = 42.93259 72.92569 51.04757
#
# Poissons Ratio (x) = 0.39542 -0.02295
# Poissons Ratio (y) = 0.23279 -0.05625
# Poissons Ratio (z) = -0.01930 -0.08035
#
# Static dielectric constant tensor:
#      x y z
#    x 1.760760 0.000000 0.000000 
#    y 0.000000 1.749660 0.000000 
#    z 0.000000 0.000000 1.776700 
# 
# From -- ./inp_files/30382.got.cif
#   From: 2010.05.17/outbox.cif.g08.bks.cpg/sg20_16_cif.got.tgz:30382.got - 2010.06.03 22:52:26.
