data_PCOD9318766
_publ_section_title
;
Structure prediction by ZEFSAII (Michael W. Deem and Ramdas Pophale) SiO2 
 PCOD9318766
Probable space group: C 2 2 21
;
_chemical_formula_sum "Si O2"
_cell_formula_units_Z 52
_cell_length_a 21.504614
_cell_length_b 13.325070
_cell_length_c 9.706385
_cell_angle_alpha 90.000000
_cell_angle_beta 90.000000
_cell_angle_gamma 90.000000
_cell_volume 2781.369348
_symmetry_space_group_name_H-M "C 2 2 21"
_symmetry_group_IT_number 20
_symmetry_cell_setting 'orthorhombic'
loop_
_space_group_symop_operation_xyz
x,y,z
-x,-y,1/2+z
x,-y,-z
-x,y,1/2-z
1/2+x,1/2+y,z
1/2-x,1/2-y,1/2+z
1/2+x,1/2-y,-z
1/2-x,1/2+y,1/2-z
loop_
_atom_site_type_symbol
_atom_site_label
_atom_site_fract_x
_atom_site_fract_y
_atom_site_fract_z
Si Si1 0.090707 0.120656 0.480095
Si Si2 0.212588 0.249832 0.455477
Si Si3 0.610886 0.560605 0.862051
Si Si4 0.000000 0.922929 0.750000
Si Si5 0.069204 0.749514 0.245067
Si Si6 0.695989 0.153352 0.245398
Si Si7 0.248809 0.546779 0.653735
O O1 0.154336 0.175307 0.433006
O O2 0.032969 0.135556 0.375138
O O3 0.076147 0.175709 0.623799
O O4 0.098091 0.000000 0.500000
O O5 0.273548 0.198577 0.391806
O O6 0.217385 0.285094 0.615521
O O7 0.209446 0.352126 0.365804
O O8 0.556478 0.494472 0.795920
O O9 0.584798 0.672723 0.877756
O O10 0.680152 0.567493 0.796490
O O11 0.622091 0.500000 0.000000
O O12 0.122242 0.667032 0.247320
O O13 0.000000 0.709753 0.250000
O O14 0.717750 0.039322 0.257032
O O15 0.251226 0.500000 0.500000
#
# Coordination Sequence:
#
# PCOD9318766 Si02
#       7
#     8   8   8   4   8   8   8
#     4  11  22  35  53  85 114 150 183 234 288 340
#     4  10  21  37  57  84 116 148 191 236 290 334
#     4  11  19  29  51  76 111 141 179 224 276 345
#     4  12  20  32  50  80 114 150 174 222 302 334
#     4  11  20  35  52  80 113 146 189 229 285 338
#     4  10  21  35  57  84 109 152 191 239 285 344
#     4   9  19  36  54  79 108 147 189 224 279 342
#
# _framework density 18.695827000000001
#
# number of rings (size 3 to 8) (size 9 to 14) (size 15 to 20)
#    0.000    1.538    3.846    2.308    0.000    0.000 
#    2.769    0.000    1.692    0.000    0.000    0.000 
#    0.000    0.000    0.000    0.000    0.000    0.000 
#
# Total GULP energy -144870.118275 kJ/mol
# GULP energy per Si atom -5571.927626 kJ/mol
# Density = 1.865327 g / cm^3
# Si number density = 18.695827 Si / 1000 Ang^3
#
#
#
# Elastic Constant Matrix: (Units=GPa)
#
#
# Indices 1 2 3 4 5 6 
#
# 1 150.3232 43.3557 30.4728 0.0000 0.0000 0.0000
# 2 43.3557 52.0398 10.2758 0.0000 0.0000 0.0000
# 3 30.4728 10.2758 25.4964 0.0000 0.0000 0.0000
# 4 0.0000 0.0000 0.0000 10.8264 0.0000 0.0000
# 5 0.0000 0.0000 0.0000 0.0000 19.3676 0.0000
# 6 0.0000 0.0000 0.0000 0.0000 0.0000 49.2758
#
#
#
# Elastic Compliance Matrix: (Units=1/GPa)
#
#
# Indices 1 2 3 4 5 6 
#
# 1 0.010667 -0.006921 -0.009960 0.000000 0.000000 0.000000
# 2 -0.006921 0.025367 -0.001953 0.000000 0.000000 0.000000
# 3 -0.009960 -0.001953 0.051912 0.000000 0.000000 0.000000
# 4 0.000000 0.000000 0.000000 0.092367 0.000000 0.000000
# 5 0.000000 0.000000 0.000000 0.000000 0.051633 0.000000
# 6 0.000000 0.000000 0.000000 0.000000 0.000000 0.020294
#
#
# Mechanical properties :
#
#
# Convention : Reuss Voigt Hill
#
# Bulk Modulus (GPa) = 19.88846 44.00757 31.94801
# Shear Modulus (GPa) = 16.30430 25.47763 20.89097
#
# Velocity S-wave (km/s) = 2.95631 3.69554 3.34640
# Velocity P-wave (km/s) = 4.72377 6.46523 5.66185
#
# Compressibility (1/GPa) = 0.05028042
#
# Stress axis : x y z
#
# Youngs Moduli (GPa) = 93.74325 39.42089 19.26321
#
# Poissons Ratio (x) = 0.27281 0.19187
# Poissons Ratio (y) = 0.64875 0.03761
# Poissons Ratio (z) = 0.93371 0.07697
#
# Static dielectric constant tensor:
#      x y z
#    x 1.641500 0.000000 0.000000 
#    y 0.000000 1.656830 0.000000 
#    z 0.000000 0.000000 1.762240 
# 
# From -- ./inp_files/15845.got.cif
#   From: 2010.05.17/outbox.cif.g08.bks.cpg/sg20_8_cif.got.tgz:15845.got - 2010.06.03 22:52:26.
