data_PCOD9318527
_publ_section_title
;
Structure prediction by ZEFSAII (Michael W. Deem and Ramdas Pophale) SiO2 
 PCOD9318527
Probable space group: C 2 2 21
;
_chemical_formula_sum "Si O2"
_cell_formula_units_Z 60
_cell_length_a 10.106034
_cell_length_b 9.814399
_cell_length_c 27.021442
_cell_angle_alpha 90.000000
_cell_angle_beta 90.000000
_cell_angle_gamma 90.000000
_cell_volume 2680.112267
_symmetry_space_group_name_H-M "C 2 2 21"
_symmetry_group_IT_number 20
_symmetry_cell_setting 'orthorhombic'
loop_
_space_group_symop_operation_xyz
x,y,z
-x,-y,1/2+z
x,-y,-z
-x,y,1/2-z
1/2+x,1/2+y,z
1/2-x,1/2-y,1/2+z
1/2+x,1/2-y,-z
1/2-x,1/2+y,1/2-z
loop_
_atom_site_type_symbol
_atom_site_label
_atom_site_fract_x
_atom_site_fract_y
_atom_site_fract_z
Si Si1 0.000000 0.291269 0.250000
Si Si2 0.237899 0.836886 0.007628
Si Si3 0.223588 0.860677 0.359486
Si Si4 0.511095 0.700203 0.447062
Si Si5 0.645185 0.521808 0.262595
Si Si6 0.746658 0.547238 0.159406
Si Si7 0.002454 0.396594 0.140009
Si Si8 0.962886 0.089476 0.587876
O O1 0.117602 0.184282 0.263932
O O2 0.021600 0.370993 0.198910
O O3 0.376981 0.763493 0.017384
O O4 0.140595 0.826943 0.055154
O O5 0.141918 0.779723 0.964518
O O6 0.260620 0.000000 0.000000
O O7 0.267383 0.709077 0.343784
O O8 0.353544 0.934504 0.381129
O O9 0.092859 0.840316 0.391585
O O10 0.186894 0.953769 0.312860
O O11 0.535737 0.765658 0.393058
O O12 0.518464 0.538039 0.443357
O O13 0.500000 0.463199 0.250000
O O14 0.741547 0.500122 0.216413
O O15 0.624490 0.476928 0.131655
O O16 0.883488 0.501649 0.134920
#
# Coordination Sequence:
#
# PCOD9318527 Si02
#       8
#     4   8   8   8   8   8   8   8
#     4  10  20  46  68  96 136 188 218 280 344 394
#     4  10  25  45  71 102 137 176 228 286 347 411
#     4  12  24  44  66 100 134 181 234 277 338 419
#     4  11  23  47  72 100 138 180 224 287 344 411
#     4  10  20  41  65  90 132 181 222 279 335 397
#     4  12  24  43  64  97 137 180 223 281 343 403
#     4  12  24  42  70 100 139 175 227 282 341 404
#     4  11  23  46  71  96 135 178 222 285 349 400
#
# _framework density 22.387119999999999
#
# number of rings (size 3 to 8) (size 9 to 14) (size 15 to 20)
#    0.400    0.533    5.333    1.600    1.867    1.067 
#    8.400    0.000    0.000    0.000    0.000    0.000 
#    0.000    0.000    0.000    0.000    0.000    0.000 
#
# Total GULP energy -167486.853907 kJ/mol
# GULP energy per Si atom -5582.895130 kJ/mol
# Density = 2.233617 g / cm^3
# Si number density = 22.387120 Si / 1000 Ang^3
#
#
#
# Elastic Constant Matrix: (Units=GPa)
#
#
# Indices 1 2 3 4 5 6 
#
# 1 122.4285 24.6351 -1.9911 0.0000 0.0000 0.0000
# 2 24.6351 32.5577 3.6181 0.0000 0.0000 0.0000
# 3 -1.9911 3.6181 62.0225 0.0000 0.0000 0.0000
# 4 0.0000 0.0000 0.0000 24.8086 0.0000 0.0000
# 5 0.0000 0.0000 0.0000 0.0000 36.9346 0.0000
# 6 0.0000 0.0000 0.0000 0.0000 0.0000 33.9399
#
#
#
# Elastic Compliance Matrix: (Units=1/GPa)
#
#
# Indices 1 2 3 4 5 6 
#
# 1 0.009669 -0.007398 0.000742 0.000000 0.000000 0.000000
# 2 -0.007398 0.036576 -0.002371 0.000000 0.000000 0.000000
# 3 0.000742 -0.002371 0.016285 0.000000 0.000000 0.000000
# 4 0.000000 0.000000 0.000000 0.040309 0.000000 0.000000
# 5 0.000000 0.000000 0.000000 0.000000 0.027075 0.000000
# 6 0.000000 0.000000 0.000000 0.000000 0.000000 0.029464
#
#
# Mechanical properties :
#
#
# Convention : Reuss Voigt Hill
#
# Bulk Modulus (GPa) = 22.48448 29.94813 26.21630
# Shear Modulus (GPa) = 26.00667 31.85305 28.92986
#
# Velocity S-wave (km/s) = 3.41204 3.77613 3.59869
# Velocity P-wave (km/s) = 5.05846 5.69374 5.38547
#
# Compressibility (1/GPa) = 0.04447512
#
# Stress axis : x y z
#
# Youngs Moduli (GPa) = 103.42518 27.34003 61.40500
#
# Poissons Ratio (x) = 0.20227 -0.04556
# Poissons Ratio (y) = 0.76519 0.14560
# Poissons Ratio (z) = -0.07674 0.06483
#
# Static dielectric constant tensor:
#      x y z
#    x 1.858630 0.000000 0.000000 
#    y 0.000000 1.788000 0.000000 
#    z 0.000000 0.000000 1.897720 
# 
# From -- ./inp_files/30149.got.cif
#   From: 2010.05.17/outbox.cif.g08.bks.cpg/sg20_16_cif.got.tgz:30149.got - 2010.06.03 22:52:26.
