data_PCOD9318765
_publ_section_title
;
Structure prediction by ZEFSAII (Michael W. Deem and Ramdas Pophale) SiO2 
 PCOD9318765
Probable space group: C 2 2 21
;
_chemical_formula_sum "Si O2"
_cell_formula_units_Z 60
_cell_length_a 5.994920
_cell_length_b 16.046560
_cell_length_c 29.137830
_cell_angle_alpha 90.000000
_cell_angle_beta 90.000000
_cell_angle_gamma 90.000000
_cell_volume 2802.996410
_symmetry_space_group_name_H-M "C 2 2 21"
_symmetry_group_IT_number 20
_symmetry_cell_setting 'orthorhombic'
loop_
_space_group_symop_operation_xyz
x,y,z
-x,-y,1/2+z
x,-y,-z
-x,y,1/2-z
1/2+x,1/2+y,z
1/2-x,1/2-y,1/2+z
1/2+x,1/2-y,-z
1/2-x,1/2+y,1/2-z
loop_
_atom_site_type_symbol
_atom_site_label
_atom_site_fract_x
_atom_site_fract_y
_atom_site_fract_z
Si Si1 0.000000 0.034058 0.250000
Si Si2 0.236317 0.982479 0.950134
Si Si3 0.380370 0.079113 0.794865
Si Si4 0.245514 0.716835 0.930331
Si Si5 0.053466 0.347965 0.981150
Si Si6 0.085306 0.844578 0.591271
Si Si7 0.236931 0.962797 0.663448
Si Si8 0.406287 0.605784 0.623149
O O1 0.117531 0.078302 0.292283
O O2 0.189413 0.975912 0.228643
O O3 0.466843 0.937284 0.963209
O O4 0.088854 0.916033 0.922834
O O5 0.234790 0.062401 0.917610
O O6 0.128652 0.000000 0.000000
O O7 0.500000 0.119763 0.750000
O O8 0.256585 0.130766 0.834912
O O9 0.545362 0.013330 0.820382
O O10 0.362387 0.783906 0.964561
O O11 0.436655 0.674476 0.900047
O O12 0.066615 0.764694 0.898542
O O13 0.117209 0.655848 0.965522
O O14 0.271496 0.323632 0.953061
O O15 0.250901 0.887635 0.627500
O O16 0.074925 0.035099 0.643334
#
# Coordination Sequence:
#
# PCOD9318765 Si02
#       8
#     4   8   8   8   8   8   8   8
#     4   8  16  32  58  90 120 144 184 248 322 378
#     4  10  22  35  55  83 120 156 207 269 298 352
#     4   9  17  33  58  91 124 152 192 256 328 377
#     4  11  23  37  57  79 120 171 214 250 308 378
#     4  11  22  37  54  76 114 167 213 250 303 359
#     4  10  21  37  53  83 119 161 207 250 301 366
#     4   9  18  34  58  90 118 148 198 257 313 364
#     4  10  21  35  56  88 122 155 207 261 315 374
#
# _framework density 21.405663000000001
#
# number of rings (size 3 to 8) (size 9 to 14) (size 15 to 20)
#    0.000    2.133    1.333    1.600    1.867    5.867 
#    0.000    0.000    0.000    0.000   31.200    0.000 
#    0.000    0.000    0.000    0.000    0.000    0.000 
#
# Total GULP energy -167242.779789 kJ/mol
# GULP energy per Si atom -5574.759326 kJ/mol
# Density = 2.135694 g / cm^3
# Si number density = 21.405663 Si / 1000 Ang^3
#
#
#
# Elastic Constant Matrix: (Units=GPa)
#
#
# Indices 1 2 3 4 5 6 
#
# 1 90.3027 31.6793 36.6798 0.0000 0.0000 0.0000
# 2 31.6793 49.0753 34.5484 0.0000 0.0000 0.0000
# 3 36.6798 34.5484 116.1700 0.0000 0.0000 0.0000
# 4 0.0000 0.0000 0.0000 15.2346 0.0000 0.0000
# 5 0.0000 0.0000 0.0000 0.0000 47.3345 0.0000
# 6 0.0000 0.0000 0.0000 0.0000 0.0000 -3.0661
#
#
#
# Elastic Compliance Matrix: (Units=1/GPa)
#
#
# Indices 1 2 3 4 5 6 
#
# 1 0.014792 -0.007919 -0.002316 0.000000 0.000000 0.000000
# 2 -0.007919 0.030012 -0.006425 0.000000 0.000000 0.000000
# 3 -0.002316 -0.006425 0.011250 0.000000 0.000000 0.000000
# 4 0.000000 0.000000 0.000000 0.065640 0.000000 0.000000
# 5 0.000000 0.000000 0.000000 0.000000 0.021126 0.000000
# 6 0.000000 0.000000 0.000000 0.000000 0.000000 -0.326145
#
#
# Mechanical properties :
#
#
# Convention : Reuss Voigt Hill
#
# Bulk Modulus (GPa) = 43.98430 51.26255 47.62342
# Shear Modulus (GPa) = -35.10569 22.07664 -6.51452
#
# Velocity S-wave (km/s) = -4.05411 3.21494 -1.74642
# Velocity P-wave (km/s) = 1.14970 6.14664 4.26963
#
# Compressibility (1/GPa) = 0.02273538
#
# Stress axis : x y z
#
# Youngs Moduli (GPa) = 67.60217 33.32026 88.88897
#
# Poissons Ratio (x) = 0.26385 0.20583
# Poissons Ratio (y) = 0.53532 0.57112
# Poissons Ratio (z) = 0.15654 0.21408
#
# Static dielectric constant tensor:
#      x y z
#    x 1.800790 0.000000 0.000000 
#    y 0.000000 1.815550 0.000000 
#    z 0.000000 0.000000 1.859270 
# 
# From -- ./inp_files/29926.got.cif
#   From: 2010.05.17/outbox.cif.g08.bks.cpg/sg20_15_cif.got.tgz:29926.got - 2010.06.03 22:52:26.
