data_PCOD9318751
_publ_section_title
;
Structure prediction by ZEFSAII (Michael W. Deem and Ramdas Pophale) SiO2 
 PCOD9318751
Probable space group: C 2 2 21
;
_chemical_formula_sum "Si O2"
_cell_formula_units_Z 48
_cell_length_a 22.221544
_cell_length_b 5.432673
_cell_length_c 15.220178
_cell_angle_alpha 90.000000
_cell_angle_beta 90.000000
_cell_angle_gamma 90.000000
_cell_volume 1837.416144
_symmetry_space_group_name_H-M "C 2 2 21"
_symmetry_group_IT_number 20
_symmetry_cell_setting 'orthorhombic'
loop_
_space_group_symop_operation_xyz
x,y,z
-x,-y,1/2+z
x,-y,-z
-x,y,1/2-z
1/2+x,1/2+y,z
1/2-x,1/2-y,1/2+z
1/2+x,1/2-y,-z
1/2-x,1/2+y,1/2-z
loop_
_atom_site_type_symbol
_atom_site_label
_atom_site_fract_x
_atom_site_fract_y
_atom_site_fract_z
Si Si1 0.056311 0.929710 0.595535
Si Si2 0.255918 0.249050 0.047941
Si Si3 0.390129 0.251769 0.548769
Si Si4 0.968011 0.427536 0.842329
Si Si5 0.639380 0.357841 0.766909
Si Si6 0.170001 0.645777 0.282231
O O1 0.025963 0.661645 0.594407
O O2 0.103430 0.899795 0.675865
O O3 0.081730 0.000000 0.500000
O O4 0.014339 0.160573 0.621031
O O5 0.183464 0.246689 0.049687
O O6 0.286561 0.233941 0.141921
O O7 0.274134 0.500000 0.000000
O O8 0.276492 0.000000 0.000000
O O9 0.409700 0.500000 0.500000
O O10 0.402393 0.272094 0.652849
O O11 0.407573 0.000000 0.500000
O O12 0.896907 0.394354 0.821936
O O13 0.000000 0.470973 0.750000
O O14 0.665825 0.629608 0.787224
O O15 0.683969 0.128100 0.751784
#
# Coordination Sequence:
#
# PCOD9318751 Si02
#       6
#     8   8   8   8   8   8
#     4  10  21  38  63  95 127 159 197 250 315 374
#     4  10  21  36  55  86 124 159 204 254 299 359
#     4  10  21  38  59  83 119 168 214 253 295 348
#     4  10  21  38  61  85 119 159 196 244 305 373
#     4  10  21  36  58  89 122 160 205 253 300 363
#     4  10  21  34  56  84 115 155 193 246 313 357
#
# _framework density 26.123642
#
# number of rings (size 3 to 8) (size 9 to 14) (size 15 to 20)
#    0.000    2.000    0.000    3.000    0.000    9.333 
#    0.000    0.000    0.000   40.000    0.000    0.000 
#    0.000    0.000    0.000    0.000    0.000    0.000 
#
# Total GULP energy -134333.416434 kJ/mol
# GULP energy per Si atom -5597.225685 kJ/mol
# Density = 2.606418 g / cm^3
# Si number density = 26.123642 Si / 1000 Ang^3
#
#
#
# Elastic Constant Matrix: (Units=GPa)
#
#
# Indices 1 2 3 4 5 6 
#
# 1 94.0022 35.9918 44.6399 0.0000 0.0000 0.0000
# 2 35.9918 291.1828 83.4479 0.0000 0.0000 0.0000
# 3 44.6399 83.4479 180.6154 0.0000 0.0000 0.0000
# 4 0.0000 0.0000 0.0000 51.4448 0.0000 0.0000
# 5 0.0000 0.0000 0.0000 0.0000 15.4862 0.0000
# 6 0.0000 0.0000 0.0000 0.0000 0.0000 17.9238
#
#
#
# Elastic Compliance Matrix: (Units=1/GPa)
#
#
# Indices 1 2 3 4 5 6 
#
# 1 0.012190 -0.000742 -0.002670 0.000000 0.000000 0.000000
# 2 -0.000742 0.004003 -0.001666 0.000000 0.000000 0.000000
# 3 -0.002670 -0.001666 0.006967 0.000000 0.000000 0.000000
# 4 0.000000 0.000000 0.000000 0.019438 0.000000 0.000000
# 5 0.000000 0.000000 0.000000 0.000000 0.064574 0.000000
# 6 0.000000 0.000000 0.000000 0.000000 0.000000 0.055792
#
#
# Mechanical properties :
#
#
# Convention : Reuss Voigt Hill
#
# Bulk Modulus (GPa) = 76.90127 99.32883 88.11505
# Shear Modulus (GPa) = 28.17622 43.75234 35.96428
#
# Velocity S-wave (km/s) = 3.28772 4.09689 3.71441
# Velocity P-wave (km/s) = 6.62673 7.77718 7.22489
#
# Compressibility (1/GPa) = 0.01300369
#
# Stress axis : x y z
#
# Youngs Moduli (GPa) = 82.03442 249.78189 143.54402
#
# Poissons Ratio (x) = 0.18522 0.38329
# Poissons Ratio (y) = 0.06083 0.23921
# Poissons Ratio (z) = 0.21905 0.41624
#
# Static dielectric constant tensor:
#      x y z
#    x 2.141330 0.000000 0.000000 
#    y 0.000000 2.158370 0.000000 
#    z 0.000000 0.000000 2.051260 
# 
# From -- ./inp_files/22159.got.cif
#   From: 2010.05.17/outbox.cif.g08.bks.cpg/sg20_12_cif.got.tgz:22159.got - 2010.06.03 22:52:26.
