data_PCOD9318686
_publ_section_title
;
Structure prediction by ZEFSAII (Michael W. Deem and Ramdas Pophale) SiO2 
 PCOD9318686
Probable space group: C 2 2 21
;
_chemical_formula_sum "Si O2"
_cell_formula_units_Z 32
_cell_length_a 32.985360
_cell_length_b 5.677958
_cell_length_c 7.328272
_cell_angle_alpha 90.000000
_cell_angle_beta 90.000000
_cell_angle_gamma 90.000000
_cell_volume 1372.508316
_symmetry_space_group_name_H-M "C 2 2 21"
_symmetry_group_IT_number 20
_symmetry_cell_setting 'orthorhombic'
loop_
_space_group_symop_operation_xyz
x,y,z
-x,-y,1/2+z
x,-y,-z
-x,y,1/2-z
1/2+x,1/2+y,z
1/2-x,1/2-y,1/2+z
1/2+x,1/2-y,-z
1/2-x,1/2+y,1/2-z
loop_
_atom_site_type_symbol
_atom_site_label
_atom_site_fract_x
_atom_site_fract_y
_atom_site_fract_z
Si Si1 0.197857 0.139983 0.215311
Si Si2 0.034662 0.754521 0.101358
Si Si3 0.832903 0.500000 0.000000
Si Si4 0.116986 0.880077 0.305274
Si Si5 0.759778 0.500000 0.500000
O O1 0.193585 0.337643 0.372912
O O2 0.211944 0.269535 0.030756
O O3 0.152739 0.032104 0.212231
O O4 0.231414 0.985326 0.320330
O O5 0.077821 0.824250 0.188732
O O6 0.000000 0.712647 0.250000
O O7 0.038866 0.500000 0.000000
O O8 0.022440 0.000000 0.000000
O O9 0.861148 0.641924 0.136582
O O10 0.105912 0.000000 0.500000
#
# Coordination Sequence:
#
# PCOD9318686 Si02
#       5
#     8   8   4   8   4
#     4  11  24  44  66 105 143 202 252 326 380 460
#     4  12  29  51  82 122 161 204 255 316 389 469
#     4  10  20  44  70 100 145 198 247 316 390 452
#     4  10  24  46  76 106 152 198 256 313 392 460
#     4  12  24  44  68  96 151 196 265 312 392 446
#
# _framework density 23.314975
#
# number of rings (size 3 to 8) (size 9 to 14) (size 15 to 20)
#    0.000    1.000    3.750    3.000    8.750    2.000 
#    0.000    0.000    0.000    0.000    0.000    0.000 
#    0.000    0.000    0.000    0.000    0.000    0.000 
#
# Total GULP energy -89439.820170 kJ/mol
# GULP energy per Si atom -5589.988761 kJ/mol
# Density = 2.326191 g / cm^3
# Si number density = 23.314975 Si / 1000 Ang^3
#
#
#
# Elastic Constant Matrix: (Units=GPa)
#
#
# Indices 1 2 3 4 5 6 
#
# 1 171.1415 63.3721 85.0375 0.0000 0.0000 0.0000
# 2 63.3721 117.3181 53.3251 0.0000 0.0000 0.0000
# 3 85.0375 53.3251 119.2268 0.0000 0.0000 0.0000
# 4 0.0000 0.0000 0.0000 51.4387 0.0000 0.0000
# 5 0.0000 0.0000 0.0000 0.0000 56.9953 0.0000
# 6 0.0000 0.0000 0.0000 0.0000 0.0000 14.3289
#
#
#
# Elastic Compliance Matrix: (Units=1/GPa)
#
#
# Indices 1 2 3 4 5 6 
#
# 1 0.009651 -0.002616 -0.005713 0.000000 0.000000 0.000000
# 2 -0.002616 0.011408 -0.003236 0.000000 0.000000 0.000000
# 3 -0.005713 -0.003236 0.013910 0.000000 0.000000 0.000000
# 4 0.000000 0.000000 0.000000 0.019441 0.000000 0.000000
# 5 0.000000 0.000000 0.000000 0.000000 0.017545 0.000000
# 6 0.000000 0.000000 0.000000 0.000000 0.000000 0.069789
#
#
# Mechanical properties :
#
#
# Convention : Reuss Voigt Hill
#
# Bulk Modulus (GPa) = 84.48062 90.12843 87.30452
# Shear Modulus (GPa) = 29.61731 38.28270 33.95001
#
# Velocity S-wave (km/s) = 3.56801 4.05653 3.82009
# Velocity P-wave (km/s) = 7.29982 7.78983 7.54880
#
# Compressibility (1/GPa) = 0.01183703
#
# Stress axis : x y z
#
# Youngs Moduli (GPa) = 103.62017 87.65722 71.89222
#
# Poissons Ratio (x) = 0.22933 0.41073
# Poissons Ratio (y) = 0.27109 0.23267
# Poissons Ratio (z) = 0.59199 0.28369
#
# Static dielectric constant tensor:
#      x y z
#    x 1.808050 0.000000 0.000000 
#    y 0.000000 1.993310 0.000000 
#    z 0.000000 0.000000 1.915000 
# 
# From -- ./inp_files/11271.got.cif
#   From: 2010.05.17/outbox.cif.g08.bks.cpg/sg20_6_cif.got.tgz:11271.got - 2010.06.03 22:52:26.
