data_PCOD9318923
_publ_section_title
;
Structure prediction by ZEFSAII (Michael W. Deem and Ramdas Pophale) SiO2 
 PCOD9318923
Probable space group: C 2 2 21
;
_chemical_formula_sum "Si O2"
_cell_formula_units_Z 48
_cell_length_a 7.931597
_cell_length_b 11.433975
_cell_length_c 23.764261
_cell_angle_alpha 90.000000
_cell_angle_beta 90.000000
_cell_angle_gamma 90.000000
_cell_volume 2155.173268
_symmetry_space_group_name_H-M "C 2 2 21"
_symmetry_group_IT_number 20
_symmetry_cell_setting 'orthorhombic'
loop_
_space_group_symop_operation_xyz
x,y,z
-x,-y,1/2+z
x,-y,-z
-x,y,1/2-z
1/2+x,1/2+y,z
1/2-x,1/2-y,1/2+z
1/2+x,1/2-y,-z
1/2-x,1/2+y,1/2-z
loop_
_atom_site_type_symbol
_atom_site_label
_atom_site_fract_x
_atom_site_fract_y
_atom_site_fract_z
Si Si1 0.347042 0.548990 0.217446
Si Si2 0.614118 0.076594 0.701472
Si Si3 0.090026 0.599298 0.133798
Si Si4 0.606114 0.621840 0.531371
Si Si5 0.972625 0.627313 0.495827
Si Si6 0.971673 0.155559 0.655684
O O1 0.500000 0.606980 0.250000
O O2 0.198662 0.527080 0.261409
O O3 0.272895 0.605850 0.161964
O O4 0.416602 0.424003 0.196041
O O5 0.500000 0.137072 0.750000
O O6 0.776350 0.136651 0.673177
O O7 0.497032 0.020379 0.653437
O O8 0.096729 0.620890 0.067973
O O9 0.987227 0.708099 0.159265
O O10 0.563819 0.500000 0.500000
O O11 0.809821 0.624299 0.536184
O O12 0.562061 0.746236 0.500843
O O13 0.513274 0.620357 0.591476
O O14 0.066461 0.500000 0.500000
#
# Coordination Sequence:
#
# PCOD9318923 Si02
#       6
#     8   8   8   8   8   8
#     4   9  18  34  56  82 113 148 188 234 284 345
#     4   9  20  36  56  84 113 147 192 236 285 351
#     4  10  21  38  57  82 116 152 192 240 294 351
#     4  10  22  39  60  88 120 158 202 248 301 358
#     4  10  22  39  60  85 118 157 199 250 299 353
#     4  10  21  38  59  83 116 154 192 242 297 352
#
# _framework density 22.271991
#
# number of rings (size 3 to 8) (size 9 to 14) (size 15 to 20)
#    0.000    2.333    0.000    2.000    0.000   12.667 
#    0.000    5.000    0.000    0.000    0.000    0.000 
#    0.000    0.000    0.000    0.000    0.000    0.000 
#
# Total GULP energy -133729.469549 kJ/mol
# GULP energy per Si atom -5572.061231 kJ/mol
# Density = 2.222130 g / cm^3
# Si number density = 22.271991 Si / 1000 Ang^3
#
#
#
# Elastic Constant Matrix: (Units=GPa)
#
#
# Indices 1 2 3 4 5 6 
#
# 1 67.8309 17.7039 16.3323 0.0000 0.0000 0.0000
# 2 17.7039 138.9593 24.4524 0.0000 0.0000 0.0000
# 3 16.3323 24.4524 56.9283 0.0000 0.0000 0.0000
# 4 0.0000 0.0000 0.0000 12.0108 0.0000 0.0000
# 5 0.0000 0.0000 0.0000 0.0000 30.7840 0.0000
# 6 0.0000 0.0000 0.0000 0.0000 0.0000 44.8093
#
#
#
# Elastic Compliance Matrix: (Units=1/GPa)
#
#
# Indices 1 2 3 4 5 6 
#
# 1 0.016063 -0.001337 -0.004034 0.000000 0.000000 0.000000
# 2 -0.001337 0.007896 -0.003008 0.000000 0.000000 0.000000
# 3 -0.004034 -0.003008 0.020015 0.000000 0.000000 0.000000
# 4 0.000000 0.000000 0.000000 0.083258 0.000000 0.000000
# 5 0.000000 0.000000 0.000000 0.000000 0.032484 0.000000
# 6 0.000000 0.000000 0.000000 0.000000 0.000000 0.022317
#
#
# Mechanical properties :
#
#
# Convention : Reuss Voigt Hill
#
# Bulk Modulus (GPa) = 36.74254 42.29952 39.52103
# Shear Modulus (GPa) = 24.05429 31.20283 27.62856
#
# Velocity S-wave (km/s) = 3.28994 3.74704 3.52590
# Velocity P-wave (km/s) = 5.56458 6.14442 5.86168
#
# Compressibility (1/GPa) = 0.02721641
#
# Stress axis : x y z
#
# Youngs Moduli (GPa) = 62.25594 126.64698 49.96159
#
# Poissons Ratio (x) = 0.16927 0.20155
# Poissons Ratio (y) = 0.08321 0.15029
# Poissons Ratio (z) = 0.25115 0.38097
#
# Static dielectric constant tensor:
#      x y z
#    x 1.831270 0.000000 0.000000 
#    y 0.000000 1.877350 0.000000 
#    z 0.000000 0.000000 1.821010 
# 
# From -- ./inp_files/28705.got.cif
#   From: 2010.05.17/outbox.cif.g08.bks.cpg/sg20_15_cif.got.tgz:28705.got - 2010.06.03 22:52:26.
