data_PCOD9318994
_publ_section_title
;
Structure prediction by ZEFSAII (Michael W. Deem and Ramdas Pophale) SiO2 
 PCOD9318994
Probable space group: C 2 2 21
;
_chemical_formula_sum "Si O2"
_cell_formula_units_Z 64
_cell_length_a 8.089722
_cell_length_b 13.047452
_cell_length_c 26.770184
_cell_angle_alpha 90.000000
_cell_angle_beta 90.000000
_cell_angle_gamma 90.000000
_cell_volume 2825.599868
_symmetry_space_group_name_H-M "C 2 2 21"
_symmetry_group_IT_number 20
_symmetry_cell_setting 'orthorhombic'
loop_
_space_group_symop_operation_xyz
x,y,z
-x,-y,1/2+z
x,-y,-z
-x,y,1/2-z
1/2+x,1/2+y,z
1/2-x,1/2-y,1/2+z
1/2+x,1/2-y,-z
1/2-x,1/2+y,1/2-z
loop_
_atom_site_type_symbol
_atom_site_label
_atom_site_fract_x
_atom_site_fract_y
_atom_site_fract_z
Si Si1 0.823483 0.452843 0.219374
Si Si2 0.405464 0.082094 0.093584
Si Si3 0.536953 0.494112 0.105627
Si Si4 0.916512 0.194044 0.064184
Si Si5 0.155963 0.889603 0.315434
Si Si6 0.449068 0.719837 0.545036
Si Si7 0.410563 0.158957 0.197500
Si Si8 0.510981 0.885513 0.124554
O O1 0.696223 0.403999 0.257324
O O2 0.777847 0.571826 0.211175
O O3 0.867103 0.397647 0.167196
O O4 0.000000 0.453656 0.250000
O O5 0.212081 0.052892 0.099402
O O6 0.436911 0.183080 0.061398
O O7 0.487484 0.106516 0.148153
O O8 0.481883 0.970566 0.081348
O O9 0.410232 0.579320 0.085450
O O10 0.487371 0.458851 0.161310
O O11 0.529780 0.386818 0.075275
O O12 0.735472 0.239839 0.054443
O O13 0.003208 0.272358 0.102546
O O14 0.014575 0.195241 0.012306
O O15 0.130699 0.769521 0.322129
O O16 0.318959 0.910030 0.348073
O O17 0.500000 0.174342 0.250000
#
# Coordination Sequence:
#
# PCOD9318994 Si02
#       8
#     8   8   8   8   8   8   8   8
#     4   8  19  38  62  96 135 180 233 288 355 429
#     4  11  23  48  74  97 150 191 242 305 367 444
#     4  12  26  47  73 109 145 191 249 303 377 450
#     4  12  27  46  76 107 149 191 248 310 375 449
#     4  11  22  40  69 103 141 187 244 300 363 450
#     4  12  27  49  72 108 146 196 243 313 377 444
#     4  10  21  38  65  96 136 188 231 298 359 427
#     4  10  22  44  70 102 142 193 242 299 373 438
#
# _framework density 22.650058999999999
#
# number of rings (size 3 to 8) (size 9 to 14) (size 15 to 20)
#    0.000    1.250    2.500    3.375    1.750    4.500 
#    2.250    1.250    0.000    0.000    0.000    0.000 
#    0.000    0.000    0.000    0.000    0.000    0.000 
#
# Total GULP energy -178615.270973 kJ/mol
# GULP energy per Si atom -5581.727218 kJ/mol
# Density = 2.259851 g / cm^3
# Si number density = 22.650059 Si / 1000 Ang^3
#
#
#
# Elastic Constant Matrix: (Units=GPa)
#
#
# Indices 1 2 3 4 5 6 
#
# 1 60.7662 38.4690 12.3869 0.0000 0.0000 0.0000
# 2 38.4690 163.3188 42.7250 0.0000 0.0000 0.0000
# 3 12.3869 42.7250 95.1253 0.0000 0.0000 0.0000
# 4 0.0000 0.0000 0.0000 9.5478 0.0000 0.0000
# 5 0.0000 0.0000 0.0000 0.0000 30.8675 0.0000
# 6 0.0000 0.0000 0.0000 0.0000 0.0000 31.9071
#
#
#
# Elastic Compliance Matrix: (Units=1/GPa)
#
#
# Indices 1 2 3 4 5 6 
#
# 1 0.019365 -0.004421 -0.000536 0.000000 0.000000 0.000000
# 2 -0.004421 0.007948 -0.002994 0.000000 0.000000 0.000000
# 3 -0.000536 -0.002994 0.011927 0.000000 0.000000 0.000000
# 4 0.000000 0.000000 0.000000 0.104736 0.000000 0.000000
# 5 0.000000 0.000000 0.000000 0.000000 0.032397 0.000000
# 6 0.000000 0.000000 0.000000 0.000000 0.000000 0.031341
#
#
# Mechanical properties :
#
#
# Convention : Reuss Voigt Hill
#
# Bulk Modulus (GPa) = 42.84976 56.26358 49.55667
# Shear Modulus (GPa) = 21.60822 29.50643 25.55733
#
# Velocity S-wave (km/s) = 3.09204 3.61322 3.36275
# Velocity P-wave (km/s) = 5.63089 6.50396 6.08311
#
# Compressibility (1/GPa) = 0.02333736
#
# Stress axis : x y z
#
# Youngs Moduli (GPa) = 51.64068 125.82459 83.84388
#
# Poissons Ratio (x) = 0.55628 0.04493
# Poissons Ratio (y) = 0.22831 0.25102
# Poissons Ratio (z) = 0.02767 0.37671
#
# Static dielectric constant tensor:
#      x y z
#    x 1.924360 0.000000 0.000000 
#    y 0.000000 1.816030 0.000000 
#    z 0.000000 0.000000 1.858800 
# 
# From -- ./inp_files/31069.got.cif
#   From: 2010.05.17/outbox.cif.g08.bks.cpg/sg20_16_cif.got.tgz:31069.got - 2010.06.03 22:52:26.
