data_PCOD9318625
_publ_section_title
;
Structure prediction by ZEFSAII (Michael W. Deem and Ramdas Pophale) SiO2 
 PCOD9318625
Probable space group: C 2 2 21
;
_chemical_formula_sum "Si O2"
_cell_formula_units_Z 40
_cell_length_a 10.446612
_cell_length_b 10.198910
_cell_length_c 16.930058
_cell_angle_alpha 90.000000
_cell_angle_beta 90.000000
_cell_angle_gamma 90.000000
_cell_volume 1803.797041
_symmetry_space_group_name_H-M "C 2 2 21"
_symmetry_group_IT_number 20
_symmetry_cell_setting 'orthorhombic'
loop_
_space_group_symop_operation_xyz
x,y,z
-x,-y,1/2+z
x,-y,-z
-x,y,1/2-z
1/2+x,1/2+y,z
1/2-x,1/2-y,1/2+z
1/2+x,1/2-y,-z
1/2-x,1/2+y,1/2-z
loop_
_atom_site_type_symbol
_atom_site_label
_atom_site_fract_x
_atom_site_fract_y
_atom_site_fract_z
Si Si1 0.123783 0.716478 0.504166
Si Si2 0.548054 0.995434 0.624636
Si Si3 0.880767 0.863743 0.539114
Si Si4 0.860772 0.190316 0.277377
Si Si5 0.701740 0.025822 0.785154
O O1 0.095724 0.625556 0.580075
O O2 0.080639 0.627481 0.429971
O O3 0.274570 0.739892 0.492483
O O4 0.024086 0.833364 0.511819
O O5 0.624734 0.986047 0.705958
O O6 0.397738 0.006790 0.643604
O O7 0.872505 0.864086 0.633747
O O8 0.839194 0.000000 0.500000
O O9 0.770572 0.319053 0.278766
O O10 0.000000 0.240000 0.250000
O O11 0.817438 0.076186 0.217713
#
# Coordination Sequence:
#
# PCOD9318625 Si02
#       5
#     8   8   8   8   8
#     4  11  22  43  70  98 139 183 237 282 354 419
#     4  10  20  42  70  92 134 190 222 282 344 426
#     4  12  25  45  71 104 146 186 233 298 356 420
#     4  12  25  45  71 104 146 186 233 298 356 420
#     4  11  22  43  70  98 139 183 237 282 354 419
#
# _framework density 22.175445
#
# number of rings (size 3 to 8) (size 9 to 14) (size 15 to 20)
#    0.000    0.800    8.000    0.000    0.000    6.400 
#    7.200    0.000    0.000    0.000    0.000    0.000 
#    0.000    0.000    0.000    0.000    0.000    0.000 
#
# Total GULP energy -111795.661142 kJ/mol
# GULP energy per Si atom -5589.783057 kJ/mol
# Density = 2.212497 g / cm^3
# Si number density = 22.175445 Si / 1000 Ang^3
#
#
#
# Elastic Constant Matrix: (Units=GPa)
#
#
# Indices 1 2 3 4 5 6 
#
# 1 77.9452 5.8229 -3.2456 0.0000 0.0000 0.0000
# 2 5.8229 68.3889 -23.6357 0.0000 0.0000 0.0000
# 3 -3.2456 -23.6357 32.1464 0.0000 0.0000 0.0000
# 4 0.0000 0.0000 0.0000 19.4873 0.0000 0.0000
# 5 0.0000 0.0000 0.0000 0.0000 27.9813 0.0000
# 6 0.0000 0.0000 0.0000 0.0000 0.0000 37.1984
#
#
#
# Elastic Compliance Matrix: (Units=1/GPa)
#
#
# Indices 1 2 3 4 5 6 
#
# 1 0.012922 -0.000871 0.000665 0.000000 0.000000 0.000000
# 2 -0.000871 0.019662 0.014369 0.000000 0.000000 0.000000
# 3 0.000665 0.014369 0.041740 0.000000 0.000000 0.000000
# 4 0.000000 0.000000 0.000000 0.051315 0.000000 0.000000
# 5 0.000000 0.000000 0.000000 0.000000 0.035738 0.000000
# 6 0.000000 0.000000 0.000000 0.000000 0.000000 0.026883
#
#
# Mechanical properties :
#
#
# Convention : Reuss Voigt Hill
#
# Bulk Modulus (GPa) = 9.74183 15.15151 12.44667
# Shear Modulus (GPa) = 25.75311 30.23601 27.99456
#
# Velocity S-wave (km/s) = 3.41153 3.69655 3.55690
# Velocity P-wave (km/s) = 4.46326 5.00667 4.74275
#
# Compressibility (1/GPa) = 0.10265012
#
# Stress axis : x y z
#
# Youngs Moduli (GPa) = 77.38599 50.85853 23.95808
#
# Poissons Ratio (x) = 0.04428 -0.01592
# Poissons Ratio (y) = 0.06737 -0.34425
# Poissons Ratio (z) = -0.05143 -0.73078
#
# Static dielectric constant tensor:
#      x y z
#    x 1.855850 0.000000 0.000000 
#    y 0.000000 1.808880 0.000000 
#    z 0.000000 0.000000 1.799160 
# 
# From -- ./inp_files/24080.got.cif
#   From: 2010.05.17/outbox.cif.g08.bks.cpg/sg20_13_cif.got.tgz:24080.got - 2010.06.03 22:52:26.
