data_PCOD9318412
_publ_section_title
;
Structure prediction by ZEFSAII (Michael W. Deem and Ramdas Pophale) SiO2 
 PCOD9318412
Probable space group: C 2 2 21
;
_chemical_formula_sum "Si O2"
_cell_formula_units_Z 40
_cell_length_a 9.591358
_cell_length_b 23.893681
_cell_length_c 8.836673
_cell_angle_alpha 90.000000
_cell_angle_beta 90.000000
_cell_angle_gamma 90.000000
_cell_volume 2025.125522
_symmetry_space_group_name_H-M "C 2 2 21"
_symmetry_group_IT_number 20
_symmetry_cell_setting 'orthorhombic'
loop_
_space_group_symop_operation_xyz
x,y,z
-x,-y,1/2+z
x,-y,-z
-x,y,1/2-z
1/2+x,1/2+y,z
1/2-x,1/2-y,1/2+z
1/2+x,1/2-y,-z
1/2-x,1/2+y,1/2-z
loop_
_atom_site_type_symbol
_atom_site_label
_atom_site_fract_x
_atom_site_fract_y
_atom_site_fract_z
Si Si1 0.607571 0.712338 0.365216
Si Si2 0.651180 0.003448 0.682030
Si Si3 0.856842 0.898813 0.330931
Si Si4 0.393818 0.724759 0.635862
Si Si5 0.354778 0.406317 0.696854
O O1 0.500000 0.743397 0.250000
O O2 0.502738 0.706743 0.505709
O O3 0.753630 0.741938 0.404789
O O4 0.647793 0.653738 0.282156
O O5 0.500000 0.006504 0.750000
O O6 0.738560 0.058806 0.721629
O O7 0.645000 0.000000 0.500000
O O8 0.730390 0.947734 0.737141
O O9 0.838536 0.833374 0.292480
O O10 0.859467 0.901410 0.514509
O O11 0.000000 0.915966 0.250000
O O12 0.500000 0.755998 0.750000
O O13 0.500000 0.433055 0.750000
#
# Coordination Sequence:
#
# PCOD9318412 Si02
#       5
#     8   8   8   8   8
#     4  11  22  42  63  94 130 168 217 263 317 384
#     4  10  23  41  61  93 129 162 209 263 319 373
#     4  10  21  40  64  90 123 163 212 258 308 378
#     4  11  23  39  64  95 129 168 214 265 319 378
#     4  10  20  40  64  90 120 166 212 254 310 381
#
# _framework density 19.751861999999999
#
# number of rings (size 3 to 8) (size 9 to 14) (size 15 to 20)
#    0.000    1.600    4.000    1.800    0.000    3.200 
#    3.600    0.000    0.000    0.000    0.000    0.000 
#    0.000    0.000    0.000    0.000    0.000    0.000 
#
# Total GULP energy -111406.485951 kJ/mol
# GULP energy per Si atom -5570.324298 kJ/mol
# Density = 1.970691 g / cm^3
# Si number density = 19.751862 Si / 1000 Ang^3
#
#
#
# Elastic Constant Matrix: (Units=GPa)
#
#
# Indices 1 2 3 4 5 6 
#
# 1 199.5260 95.9972 34.8945 0.0000 0.0000 0.0000
# 2 95.9972 94.1458 27.5854 0.0000 0.0000 0.0000
# 3 34.8945 27.5854 40.9339 0.0000 0.0000 0.0000
# 4 0.0000 0.0000 0.0000 17.2688 0.0000 0.0000
# 5 0.0000 0.0000 0.0000 0.0000 37.6875 0.0000
# 6 0.0000 0.0000 0.0000 0.0000 0.0000 24.1308
#
#
#
# Elastic Compliance Matrix: (Units=1/GPa)
#
#
# Indices 1 2 3 4 5 6 
#
# 1 0.009975 -0.009569 -0.002055 0.000000 0.000000 0.000000
# 2 -0.009569 0.022415 -0.006948 0.000000 0.000000 0.000000
# 3 -0.002055 -0.006948 0.030863 0.000000 0.000000 0.000000
# 4 0.000000 0.000000 0.000000 0.057908 0.000000 0.000000
# 5 0.000000 0.000000 0.000000 0.000000 0.026534 0.000000
# 6 0.000000 0.000000 0.000000 0.000000 0.000000 0.041441
#
#
# Mechanical properties :
#
#
# Convention : Reuss Voigt Hill
#
# Bulk Modulus (GPa) = 38.30009 72.39552 55.34780
# Shear Modulus (GPa) = 21.27799 27.55934 24.41867
#
# Velocity S-wave (km/s) = 3.28573 3.73939 3.51988
# Velocity P-wave (km/s) = 5.81614 7.44152 6.67846
#
# Compressibility (1/GPa) = 0.02610960
#
# Stress axis : x y z
#
# Youngs Moduli (GPa) = 100.24729 44.61235 32.40075
#
# Poissons Ratio (x) = 0.42692 0.06657
# Poissons Ratio (y) = 0.95931 0.22512
# Poissons Ratio (z) = 0.20598 0.30997
#
# Static dielectric constant tensor:
#      x y z
#    x 1.669220 0.000000 0.000000 
#    y 0.000000 1.706960 0.000000 
#    z 0.000000 0.000000 1.893570 
# 
# From -- ./inp_files/6047.got.cif
#   From: 2010.05.17/outbox.cif.g08.bks.cpg/sg20_4_cif.got.tgz:6047.got - 2010.06.03 22:52:26.
