data_PCOD9318269
_publ_section_title
;
Structure prediction by ZEFSAII (Michael W. Deem and Ramdas Pophale) SiO2 
 PCOD9318269
Probable space group: C 2 2 21
;
_chemical_formula_sum "Si O2"
_cell_formula_units_Z 48
_cell_length_a 9.544627
_cell_length_b 6.832346
_cell_length_c 29.625037
_cell_angle_alpha 90.000000
_cell_angle_beta 90.000000
_cell_angle_gamma 90.000000
_cell_volume 1931.913663
_symmetry_space_group_name_H-M "C 2 2 21"
_symmetry_group_IT_number 20
_symmetry_cell_setting 'orthorhombic'
loop_
_space_group_symop_operation_xyz
x,y,z
-x,-y,1/2+z
x,-y,-z
-x,y,1/2-z
1/2+x,1/2+y,z
1/2-x,1/2-y,1/2+z
1/2+x,1/2-y,-z
1/2-x,1/2+y,1/2-z
loop_
_atom_site_type_symbol
_atom_site_label
_atom_site_fract_x
_atom_site_fract_y
_atom_site_fract_z
Si Si1 0.574694 0.835916 0.706906
Si Si2 0.036881 0.693854 0.392053
Si Si3 0.257639 0.720242 0.461061
Si Si4 0.743783 0.182312 0.060450
Si Si5 0.591691 0.407570 0.791938
Si Si6 0.504144 0.635000 0.110111
O O1 0.500000 0.931833 0.750000
O O2 0.570663 0.909282 0.655034
O O3 0.474203 0.633578 0.704064
O O4 0.743346 0.858002 0.716987
O O5 0.111716 0.650185 0.439605
O O6 0.874267 0.688820 0.402066
O O7 0.067725 0.923335 0.384025
O O8 0.280731 0.697188 0.514393
O O9 0.372151 0.635833 0.426528
O O10 0.253980 0.955634 0.454407
O O11 0.883789 0.253029 0.085066
O O12 0.500000 0.335816 0.750000
O O13 0.559855 0.313289 0.840696
#
# Coordination Sequence:
#
# PCOD9318269 Si02
#       6
#     8   8   8   8   8   8
#     4  10  22  43  69 100 137 178 230 285 350 418
#     4  10  21  39  62  87 126 168 220 269 338 407
#     4  10  20  39  56  86 125 164 216 280 333 404
#     4  10  22  35  59  89 121 167 218 275 339 403
#     4  10  22  43  70  99 137 179 229 285 350 418
#     4  10  21  39  62  87 126 168 219 270 338 406
#
# _framework density 24.845828999999998
#
# number of rings (size 3 to 8) (size 9 to 14) (size 15 to 20)
#    0.000    2.000    1.667    1.000    2.333    3.333 
#    0.000    3.333    0.000    0.000    0.000    0.000 
#    0.000    0.000    0.000    0.000    0.000    0.000 
#
# Total GULP energy -133645.934667 kJ/mol
# GULP energy per Si atom -5568.580611 kJ/mol
# Density = 2.478928 g / cm^3
# Si number density = 24.845829 Si / 1000 Ang^3
#
#
#
# Elastic Constant Matrix: (Units=GPa)
#
#
# Indices 1 2 3 4 5 6 
#
# 1 156.3309 -5.1546 69.1435 0.0000 0.0000 0.0000
# 2 -5.1546 88.5294 -8.9323 0.0000 0.0000 0.0000
# 3 69.1435 -8.9323 232.8596 0.0000 0.0000 0.0000
# 4 0.0000 0.0000 0.0000 -26.5079 0.0000 0.0000
# 5 0.0000 0.0000 0.0000 0.0000 51.3191 0.0000
# 6 0.0000 0.0000 0.0000 0.0000 0.0000 -152.1251
#
#
#
# Elastic Compliance Matrix: (Units=1/GPa)
#
#
# Indices 1 2 3 4 5 6 
#
# 1 0.007368 0.000209 -0.002180 0.000000 0.000000 0.000000
# 2 0.000209 0.011346 0.000373 0.000000 0.000000 0.000000
# 3 -0.002180 0.000373 0.004956 0.000000 0.000000 0.000000
# 4 0.000000 0.000000 0.000000 -0.037725 0.000000 0.000000
# 5 0.000000 0.000000 0.000000 0.000000 0.019486 0.000000
# 6 0.000000 0.000000 0.000000 0.000000 0.000000 -0.006574
#
#
# Mechanical properties :
#
#
# Convention : Reuss Voigt Hill
#
# Bulk Modulus (GPa) = 48.84212 65.31479 57.07846
# Shear Modulus (GPa) = 563.28484 2.71478 282.99981
#
# Velocity S-wave (km/s) = 15.07329 1.04643 10.68408
# Velocity P-wave (km/s) = 17.96217 5.27306 13.23716
#
# Compressibility (1/GPa) = 0.02047413
#
# Stress axis : x y z
#
# Youngs Moduli (GPa) = 135.72891 88.14063 201.77730
#
# Poissons Ratio (x) = -0.01843 0.43981
# Poissons Ratio (y) = -0.02838 -0.07529
# Poissons Ratio (z) = 0.29584 -0.03289
#
# Static dielectric constant tensor:
#      x y z
#    x 1.963900 0.000000 0.000000 
#    y 0.000000 2.174240 0.000000 
#    z 0.000000 0.000000 1.994440 
# 
# From -- ./inp_files/30937.got.cif
#   From: 2010.05.17/outbox.cif.g08.bks.cpg/sg20_16_cif.got.tgz:30937.got - 2010.06.03 22:52:26.
