data_PCOD9318705
_publ_section_title
;
Structure prediction by ZEFSAII (Michael W. Deem and Ramdas Pophale) SiO2 
 PCOD9318705
Probable space group: C 2 2 21
;
_chemical_formula_sum "Si O2"
_cell_formula_units_Z 40
_cell_length_a 17.213302
_cell_length_b 7.244159
_cell_length_c 15.236575
_cell_angle_alpha 90.000000
_cell_angle_beta 90.000000
_cell_angle_gamma 90.000000
_cell_volume 1899.938381
_symmetry_space_group_name_H-M "C 2 2 21"
_symmetry_group_IT_number 20
_symmetry_cell_setting 'orthorhombic'
loop_
_space_group_symop_operation_xyz
x,y,z
-x,-y,1/2+z
x,-y,-z
-x,y,1/2-z
1/2+x,1/2+y,z
1/2-x,1/2-y,1/2+z
1/2+x,1/2-y,-z
1/2-x,1/2+y,1/2-z
loop_
_atom_site_type_symbol
_atom_site_label
_atom_site_fract_x
_atom_site_fract_y
_atom_site_fract_z
Si Si1 0.706230 0.445039 0.678096
Si Si2 0.645704 0.705651 0.828733
Si Si3 0.000000 0.579373 0.250000
Si Si4 0.891349 0.615372 0.872293
Si Si5 0.175680 0.000000 0.000000
Si Si6 0.178611 0.267960 0.552006
O O1 0.690470 0.569080 0.762349
O O2 0.792794 0.372875 0.659802
O O3 0.848218 0.766215 0.814277
O O4 0.679836 0.570757 0.596146
O O5 0.568030 0.790233 0.787405
O O6 0.631161 0.585506 0.916958
O O7 0.028729 0.446569 0.329042
O O8 0.880513 0.697861 0.970788
O O9 0.844910 0.422843 0.877245
O O10 0.235626 0.833914 0.975971
#
# Coordination Sequence:
#
# PCOD9318705 Si02
#       6
#     8   8   4   8   4   8
#     4  12  22  45  77 104 136 196 245 300 353 422
#     4  12  25  42  76 107 148 189 241 301 358 443
#     4  12  26  48  60 114 156 198 228 290 384 436
#     4  10  22  43  72 101 146 183 239 294 351 433
#     4  10  22  44  70 112 134 176 256 302 340 426
#     4  10  20  45  73 108 131 184 251 300 351 415
#
# _framework density 21.053315000000001
#
# number of rings (size 3 to 8) (size 9 to 14) (size 15 to 20)
#    0.000    1.200    6.000    3.000    0.000    0.800 
#    0.000   12.000    0.000    0.000    0.000    0.000 
#    0.000    0.000    0.000    0.000    0.000    0.000 
#
# Total GULP energy -111582.064524 kJ/mol
# GULP energy per Si atom -5579.103226 kJ/mol
# Density = 2.100540 g / cm^3
# Si number density = 21.053315 Si / 1000 Ang^3
#
#
#
# Elastic Constant Matrix: (Units=GPa)
#
#
# Indices 1 2 3 4 5 6 
#
# 1 79.0860 55.3150 50.0737 0.0000 0.0000 0.0000
# 2 55.3150 120.0714 61.1842 0.0000 0.0000 0.0000
# 3 50.0737 61.1842 124.7039 0.0000 0.0000 0.0000
# 4 0.0000 0.0000 0.0000 47.2773 0.0000 0.0000
# 5 0.0000 0.0000 0.0000 0.0000 36.3330 0.0000
# 6 0.0000 0.0000 0.0000 0.0000 0.0000 7.2942
#
#
#
# Elastic Compliance Matrix: (Units=1/GPa)
#
#
# Indices 1 2 3 4 5 6 
#
# 1 0.020627 -0.007043 -0.004827 0.000000 0.000000 0.000000
# 2 -0.007043 0.013509 -0.003800 0.000000 0.000000 0.000000
# 3 -0.004827 -0.003800 0.011822 0.000000 0.000000 0.000000
# 4 0.000000 0.000000 0.000000 0.021152 0.000000 0.000000
# 5 0.000000 0.000000 0.000000 0.000000 0.027523 0.000000
# 6 0.000000 0.000000 0.000000 0.000000 0.000000 0.137095
#
#
# Mechanical properties :
#
#
# Convention : Reuss Voigt Hill
#
# Bulk Modulus (GPa) = 68.40973 73.00077 70.70525
# Shear Modulus (GPa) = 18.66093 28.66681 23.66387
#
# Velocity S-wave (km/s) = 2.98042 3.69403 3.35624
# Velocity P-wave (km/s) = 6.66393 7.27626 6.97682
#
# Compressibility (1/GPa) = 0.01461780
#
# Stress axis : x y z
#
# Youngs Moduli (GPa) = 48.48123 74.02329 84.58967
#
# Poissons Ratio (x) = 0.52132 0.40832
# Poissons Ratio (y) = 0.34144 0.32146
# Poissons Ratio (z) = 0.23402 0.28130
#
# Static dielectric constant tensor:
#      x y z
#    x 1.734190 0.000000 0.000000 
#    y 0.000000 1.748580 0.000000 
#    z 0.000000 0.000000 1.870150 
# 
# From -- ./inp_files/18738.got.cif
#   From: 2010.05.17/outbox.cif.g08.bks.cpg/sg20_10_cif.got.tgz:18738.got - 2010.06.03 22:52:26.
