data_PCOD9318696
_publ_section_title
;
Structure prediction by ZEFSAII (Michael W. Deem and Ramdas Pophale) SiO2 
 PCOD9318696
Probable space group: C 2 2 21
;
_chemical_formula_sum "Si O2"
_cell_formula_units_Z 56
_cell_length_a 6.420344
_cell_length_b 20.182711
_cell_length_c 16.884246
_cell_angle_alpha 90.000000
_cell_angle_beta 90.000000
_cell_angle_gamma 90.000000
_cell_volume 2187.859710
_symmetry_space_group_name_H-M "C 2 2 21"
_symmetry_group_IT_number 20
_symmetry_cell_setting 'orthorhombic'
loop_
_space_group_symop_operation_xyz
x,y,z
-x,-y,1/2+z
x,-y,-z
-x,y,1/2-z
1/2+x,1/2+y,z
1/2-x,1/2-y,1/2+z
1/2+x,1/2-y,-z
1/2-x,1/2+y,1/2-z
loop_
_atom_site_type_symbol
_atom_site_label
_atom_site_fract_x
_atom_site_fract_y
_atom_site_fract_z
Si Si1 0.500000 0.427174 0.250000
Si Si2 0.123129 0.969661 0.869202
Si Si3 0.229982 0.000000 0.500000
Si Si4 0.050845 0.850278 0.107291
Si Si5 0.894221 0.750187 0.832851
Si Si6 0.806736 0.271917 0.914871
Si Si7 0.290098 0.142985 0.232702
Si Si8 0.888142 0.409208 0.999298
O O1 0.353439 0.475486 0.300602
O O2 0.418307 0.381711 0.178832
O O3 0.136224 0.902009 0.818255
O O4 0.916475 0.980257 0.924145
O O5 0.313440 0.957892 0.928944
O O6 0.384674 0.062040 0.521351
O O7 0.228013 0.804129 0.144837
O O8 0.908965 0.797542 0.062312
O O9 0.185781 0.903405 0.057596
O O10 0.795205 0.820794 0.809854
O O11 0.000000 0.729163 0.750000
O O12 0.061585 0.759991 0.902115
O O13 0.857984 0.296722 0.825461
O O14 0.884012 0.333794 0.966526
O O15 0.500000 0.103105 0.250000
#
# Coordination Sequence:
#
# PCOD9318696 Si02
#       8
#     4   8   4   8   8   8   8   8
#     4  12  26  46  76 106 152 202 252 330 400 456
#     4  11  28  49  77 108 151 211 274 330 399 474
#     4  12  26  56  78 102 154 220 266 336 386 478
#     4  12  25  47  73 113 157 199 253 332 405 485
#     4  10  22  39  71 108 155 192 243 317 403 476
#     4  10  24  43  72 110 153 201 246 313 401 485
#     4  10  20  44  74 114 155 193 262 332 390 473
#     4  11  28  49  76 112 154 207 281 324 400 485
#
# _framework density 25.595791999999999
#
# number of rings (size 3 to 8) (size 9 to 14) (size 15 to 20)
#    0.000    1.143    1.429    3.857    7.000    9.143 
#    0.000    5.000    0.000    0.000    0.000    0.000 
#    0.000    0.000    0.000    0.000    0.000    0.000 
#
# Total GULP energy -156279.478938 kJ/mol
# GULP energy per Si atom -5581.409962 kJ/mol
# Density = 2.553753 g / cm^3
# Si number density = 25.595792 Si / 1000 Ang^3
#
#
#
# Elastic Constant Matrix: (Units=GPa)
#
#
# Indices 1 2 3 4 5 6 
#
# 1 115.2872 55.4280 64.2183 0.0000 0.0000 0.0000
# 2 55.4280 130.2136 49.8534 0.0000 0.0000 0.0000
# 3 64.2183 49.8534 107.5195 0.0000 0.0000 0.0000
# 4 0.0000 0.0000 0.0000 60.0875 0.0000 0.0000
# 5 0.0000 0.0000 0.0000 0.0000 32.0429 0.0000
# 6 0.0000 0.0000 0.0000 0.0000 0.0000 41.6287
#
#
#
# Elastic Compliance Matrix: (Units=1/GPa)
#
#
# Indices 1 2 3 4 5 6 
#
# 1 0.014127 -0.003384 -0.006869 0.000000 0.000000 0.000000
# 2 -0.003384 0.010148 -0.002684 0.000000 0.000000 0.000000
# 3 -0.006869 -0.002684 0.014648 0.000000 0.000000 0.000000
# 4 0.000000 0.000000 0.000000 0.016642 0.000000 0.000000
# 5 0.000000 0.000000 0.000000 0.000000 0.031208 0.000000
# 6 0.000000 0.000000 0.000000 0.000000 0.000000 0.024022
#
#
# Mechanical properties :
#
#
# Convention : Reuss Voigt Hill
#
# Bulk Modulus (GPa) = 76.63326 76.89107 76.76216
# Shear Modulus (GPa) = 35.45664 38.98653 37.22159
#
# Velocity S-wave (km/s) = 3.72594 3.90700 3.81754
# Velocity P-wave (km/s) = 6.96527 7.10342 7.03468
#
# Compressibility (1/GPa) = 0.01304917
#
# Stress axis : x y z
#
# Youngs Moduli (GPa) = 70.78730 98.54477 68.27026
#
# Poissons Ratio (x) = 0.33344 0.46892
# Poissons Ratio (y) = 0.23952 0.18325
# Poissons Ratio (z) = 0.48621 0.26451
#
# Static dielectric constant tensor:
#      x y z
#    x 2.148370 0.000000 0.000000 
#    y 0.000000 2.094120 0.000000 
#    z 0.000000 0.000000 2.067050 
# 
# From -- ./inp_files/26859.got.cif
#   From: 2010.05.17/outbox.cif.g08.bks.cpg/sg20_14_cif.got.tgz:26859.got - 2010.06.03 22:52:26.
