data_PCOD9318717
_publ_section_title
;
Structure prediction by ZEFSAII (Michael W. Deem and Ramdas Pophale) SiO2 
 PCOD9318717
Probable space group: C 2 2 21
;
_chemical_formula_sum "Si O2"
_cell_formula_units_Z 28
_cell_length_a 29.307892
_cell_length_b 7.300947
_cell_length_c 5.837747
_cell_angle_alpha 90.000000
_cell_angle_beta 90.000000
_cell_angle_gamma 90.000000
_cell_volume 1249.134052
_symmetry_space_group_name_H-M "C 2 2 21"
_symmetry_group_IT_number 20
_symmetry_cell_setting 'orthorhombic'
loop_
_space_group_symop_operation_xyz
x,y,z
-x,-y,1/2+z
x,-y,-z
-x,y,1/2-z
1/2+x,1/2+y,z
1/2-x,1/2-y,1/2+z
1/2+x,1/2-y,-z
1/2-x,1/2+y,1/2-z
loop_
_atom_site_type_symbol
_atom_site_label
_atom_site_fract_x
_atom_site_fract_y
_atom_site_fract_z
Si Si1 0.901222 0.698215 0.385385
Si Si2 0.189432 0.765104 0.853240
Si Si3 0.024900 0.000000 0.000000
Si Si4 0.140744 0.500000 0.500000
Si Si5 0.733746 0.500000 0.500000
O O1 0.908355 0.500000 0.500000
O O2 0.854206 0.779332 0.484786
O O3 0.942657 0.828013 0.444118
O O4 0.890960 0.650507 0.122164
O O5 0.172743 0.608346 0.674669
O O6 0.203140 0.947004 0.717141
O O7 0.233676 0.675474 0.968887
O O8 0.000000 0.032418 0.250000
#
# Coordination Sequence:
#
# PCOD9318717 Si02
#       5
#     8   8   4   4   4
#     4  10  25  48  77 105 153 199 249 312 404 460
#     4  11  24  41  63 105 141 208 246 320 367 445
#     4  12  32  51  83 126 150 190 262 328 402 490
#     4  10  20  46  71  99 140 204 249 297 394 454
#     4  12  24  39  66  99 156 188 275 305 360 438
#
# _framework density 22.415528999999999
#
# number of rings (size 3 to 8) (size 9 to 14) (size 15 to 20)
#    0.000    1.143    4.286    1.714   12.000    1.143 
#    0.000    0.000    0.000    0.000    0.000    0.000 
#    0.000    0.000    0.000    0.000    0.000    0.000 
#
# Total GULP energy -78288.139579 kJ/mol
# GULP energy per Si atom -5592.009970 kJ/mol
# Density = 2.236451 g / cm^3
# Si number density = 22.415529 Si / 1000 Ang^3
#
#
#
# Elastic Constant Matrix: (Units=GPa)
#
#
# Indices 1 2 3 4 5 6 
#
# 1 134.1371 71.7176 77.5912 0.0000 0.0000 0.0000
# 2 71.7176 95.5485 28.0499 0.0000 0.0000 0.0000
# 3 77.5912 28.0499 115.9157 0.0000 0.0000 0.0000
# 4 0.0000 0.0000 0.0000 48.7723 0.0000 0.0000
# 5 0.0000 0.0000 0.0000 0.0000 27.7875 0.0000
# 6 0.0000 0.0000 0.0000 0.0000 0.0000 46.7962
#
#
#
# Elastic Compliance Matrix: (Units=1/GPa)
#
#
# Indices 1 2 3 4 5 6 
#
# 1 0.019754 -0.011782 -0.010372 0.000000 0.000000 0.000000
# 2 -0.011782 0.018294 0.003460 0.000000 0.000000 0.000000
# 3 -0.010372 0.003460 0.014732 0.000000 0.000000 0.000000
# 4 0.000000 0.000000 0.000000 0.020503 0.000000 0.000000
# 5 0.000000 0.000000 0.000000 0.000000 0.035987 0.000000
# 6 0.000000 0.000000 0.000000 0.000000 0.000000 0.021369
#
#
# Mechanical properties :
#
#
# Convention : Reuss Voigt Hill
#
# Bulk Modulus (GPa) = 64.96890 77.81319 71.39105
# Shear Modulus (GPa) = 28.87509 35.88737 32.38123
#
# Velocity S-wave (km/s) = 3.59301 4.00560 3.80490
# Velocity P-wave (km/s) = 6.80145 7.49549 7.15689
#
# Compressibility (1/GPa) = 0.01539198
#
# Stress axis : x y z
#
# Youngs Moduli (GPa) = 50.62220 54.66297 67.87803
#
# Poissons Ratio (x) = 0.64406 0.70402
# Poissons Ratio (y) = 0.59645 -0.23486
# Poissons Ratio (z) = 0.52504 -0.18914
#
# Static dielectric constant tensor:
#      x y z
#    x 1.775610 0.000000 0.000000 
#    y 0.000000 1.832650 0.000000 
#    z 0.000000 0.000000 2.170240 
# 
# From -- ./inp_files/488.got.cif
#   From: 2010.05.17/outbox.cif.g08.bks.cpg/sg20_1_cif.got.tgz:488.got - 2010.06.03 22:52:26.
