data_PCOD9318179
_publ_section_title
;
Structure prediction by ZEFSAII (Michael W. Deem and Ramdas Pophale) SiO2 
 PCOD9318179
Probable space group: C 2 2 21
;
_chemical_formula_sum "Si O2"
_cell_formula_units_Z 28
_cell_length_a 16.971680
_cell_length_b 15.048218
_cell_length_c 5.093075
_cell_angle_alpha 90.000000
_cell_angle_beta 90.000000
_cell_angle_gamma 90.000000
_cell_volume 1300.738456
_symmetry_space_group_name_H-M "C 2 2 21"
_symmetry_group_IT_number 20
_symmetry_cell_setting 'orthorhombic'
loop_
_space_group_symop_operation_xyz
x,y,z
-x,-y,1/2+z
x,-y,-z
-x,y,1/2-z
1/2+x,1/2+y,z
1/2-x,1/2-y,1/2+z
1/2+x,1/2-y,-z
1/2-x,1/2+y,1/2-z
loop_
_atom_site_type_symbol
_atom_site_label
_atom_site_fract_x
_atom_site_fract_y
_atom_site_fract_z
Si Si1 0.280797 0.204436 0.550234
Si Si2 0.000000 0.934754 0.250000
Si Si3 0.943626 0.604531 0.499642
Si Si4 0.333291 0.562210 0.749453
O O1 0.235293 0.219218 0.271431
O O2 0.369992 0.172286 0.502146
O O3 0.238890 0.125064 0.705281
O O4 0.083205 0.885114 0.238621
O O5 0.998407 0.000000 0.500000
O O6 0.916276 0.500000 0.500000
O O7 0.000000 0.617316 0.750000
O O8 0.000000 0.616941 0.250000
O O9 0.324765 0.500000 0.500000
O O10 0.338799 0.500000 0.000000
#
# Coordination Sequence:
#
# PCOD9318179 Si02
#       4
#     8   4   8   8
#     4  12  25  41  61  99 136 168 214 271 344 394
#     4   8  16  32  56  84 110 144 200 248 290 358
#     4  10  22  43  70  95 126 175 232 279 320 387
#     4  10  20  38  63  88 120 167 216 257 305 378
#
# _framework density 21.526233999999999
#
# number of rings (size 3 to 8) (size 9 to 14) (size 15 to 20)
#    0.000    1.714    0.000    4.286    0.000    3.429 
#    7.714    0.000    0.000    0.000    0.000    0.000 
#    0.000    0.000    0.000    0.000    0.000    0.000 
#
# Total GULP energy -78091.010671 kJ/mol
# GULP energy per Si atom -5577.929334 kJ/mol
# Density = 2.147724 g / cm^3
# Si number density = 21.526234 Si / 1000 Ang^3
#
#
#
# Elastic Constant Matrix: (Units=GPa)
#
#
# Indices 1 2 3 4 5 6 
#
# 1 132.9265 53.7594 49.3264 0.0000 0.0000 0.0000
# 2 53.7594 54.9830 34.9247 0.0000 0.0000 0.0000
# 3 49.3264 34.9247 189.1401 0.0000 0.0000 0.0000
# 4 0.0000 0.0000 0.0000 -91.8831 0.0000 0.0000
# 5 0.0000 0.0000 0.0000 0.0000 16.6936 0.0000
# 6 0.0000 0.0000 0.0000 0.0000 0.0000 31.9079
#
#
#
# Elastic Compliance Matrix: (Units=1/GPa)
#
#
# Indices 1 2 3 4 5 6 
#
# 1 0.012661 -0.011648 -0.001151 0.000000 0.000000 0.000000
# 2 -0.011648 0.031320 -0.002746 0.000000 0.000000 0.000000
# 3 -0.001151 -0.002746 0.006094 0.000000 0.000000 0.000000
# 4 0.000000 0.000000 0.000000 -0.010883 0.000000 0.000000
# 5 0.000000 0.000000 0.000000 0.000000 0.059903 0.000000
# 6 0.000000 0.000000 0.000000 0.000000 0.000000 0.031340
#
#
# Mechanical properties :
#
#
# Convention : Reuss Voigt Hill
#
# Bulk Modulus (GPa) = 52.67017 72.56340 62.61678
# Shear Modulus (GPa) = 29.78797 7.27963 18.53380
#
# Velocity S-wave (km/s) = 3.72398 1.84095 2.93744
# Velocity P-wave (km/s) = 6.55833 6.18880 6.37624
#
# Compressibility (1/GPa) = 0.01898608
#
# Stress axis : x y z
#
# Youngs Moduli (GPa) = 78.98361 31.92835 164.08929
#
# Poissons Ratio (x) = 0.37190 0.18888
# Poissons Ratio (y) = 0.92000 0.45052
# Poissons Ratio (z) = 0.09092 0.08766
#
# Static dielectric constant tensor:
#      x y z
#    x 1.845770 0.000000 0.000000 
#    y 0.000000 1.942000 0.000000 
#    z 0.000000 0.000000 1.873130 
# 
# From -- ./inp_files/2369.got.cif
#   From: 2010.05.17/outbox.cif.g08.bks.cpg/sg20_2_cif.got.tgz:2369.got - 2010.06.03 22:52:26.
