data_PCOD9318858
_publ_section_title
;
Structure prediction by ZEFSAII (Michael W. Deem and Ramdas Pophale) SiO2 
 PCOD9318858
Probable space group: C 2 2 21
;
_chemical_formula_sum "Si O2"
_cell_formula_units_Z 64
_cell_length_a 22.056843
_cell_length_b 15.086993
_cell_length_c 9.614368
_cell_angle_alpha 90.000000
_cell_angle_beta 90.000000
_cell_angle_gamma 90.000000
_cell_volume 3199.387045
_symmetry_space_group_name_H-M "C 2 2 21"
_symmetry_group_IT_number 20
_symmetry_cell_setting 'orthorhombic'
loop_
_space_group_symop_operation_xyz
x,y,z
-x,-y,1/2+z
x,-y,-z
-x,y,1/2-z
1/2+x,1/2+y,z
1/2-x,1/2-y,1/2+z
1/2+x,1/2-y,-z
1/2-x,1/2+y,1/2-z
loop_
_atom_site_type_symbol
_atom_site_label
_atom_site_fract_x
_atom_site_fract_y
_atom_site_fract_z
Si Si1 0.048951 0.567334 0.626727
Si Si2 0.135396 0.537788 0.870740
Si Si3 0.157270 0.265513 0.119091
Si Si4 0.942538 0.232291 0.150805
Si Si5 0.713077 0.699639 0.745153
Si Si6 0.353642 0.605873 0.003555
Si Si7 0.233486 0.608293 0.197950
Si Si8 0.798482 0.097347 0.490293
O O1 0.044287 0.500000 0.500000
O O2 0.109128 0.545807 0.716296
O O3 0.045318 0.671059 0.581744
O O4 0.000000 0.556875 0.750000
O O5 0.143024 0.636660 0.927931
O O6 0.194401 0.475072 0.854750
O O7 0.096456 0.500000 0.000000
O O8 0.114024 0.251039 0.248900
O O9 0.227334 0.275889 0.158893
O O10 0.152760 0.175240 0.033381
O O11 0.914685 0.155884 0.053830
O O12 0.000000 0.209968 0.250000
O O13 0.666794 0.650305 0.642624
O O14 0.697227 0.797710 0.804239
O O15 0.731528 0.632014 0.867735
O O16 0.295264 0.618912 0.107214
O O17 0.362592 0.500000 0.000000
O O18 0.254034 0.592329 0.357744
O O19 0.825838 0.000000 0.500000
#
# Coordination Sequence:
#
# PCOD9318858 Si02
#       8
#     8   8   8   8   8   8   8   8
#     4  10  23  42  67  94 124 166 214 269 331 402
#     4  11  21  35  59  91 129 164 207 260 322 392
#     4  10  21  37  58  85 126 171 202 258 327 388
#     4  10  23  44  68  89 126 179 225 266 328 400
#     4  11  22  34  60  94 130 158 213 269 334 389
#     4  12  23  41  67  95 129 179 223 270 334 401
#     4  11  22  37  59  93 132 170 205 263 330 404
#     4  11  21  34  54  87 122 163 206 260 314 381
#
# _framework density 20.003831000000002
#
# number of rings (size 3 to 8) (size 9 to 14) (size 15 to 20)
#    0.000    1.250    2.500    6.000    1.750    1.500 
#    0.000    0.625    0.000    0.000    0.000    0.000 
#    0.000    0.000    0.000    0.000    0.000    0.000 
#
# Total GULP energy -178216.718048 kJ/mol
# GULP energy per Si atom -5569.272439 kJ/mol
# Density = 1.995830 g / cm^3
# Si number density = 20.003831 Si / 1000 Ang^3
#
#
#
# Elastic Constant Matrix: (Units=GPa)
#
#
# Indices 1 2 3 4 5 6 
#
# 1 47.0562 41.2836 24.7522 0.0000 0.0000 0.0000
# 2 41.2836 206.3590 71.2213 0.0000 0.0000 0.0000
# 3 24.7522 71.2213 98.3495 0.0000 0.0000 0.0000
# 4 0.0000 0.0000 0.0000 36.8847 0.0000 0.0000
# 5 0.0000 0.0000 0.0000 0.0000 8.1764 0.0000
# 6 0.0000 0.0000 0.0000 0.0000 0.0000 13.7706
#
#
#
# Elastic Compliance Matrix: (Units=1/GPa)
#
#
# Indices 1 2 3 4 5 6 
#
# 1 0.026809 -0.004046 -0.003817 0.000000 0.000000 0.000000
# 2 -0.004046 0.007071 -0.004103 0.000000 0.000000 0.000000
# 3 -0.003817 -0.004103 0.014099 0.000000 0.000000 0.000000
# 4 0.000000 0.000000 0.000000 0.027111 0.000000 0.000000
# 5 0.000000 0.000000 0.000000 0.000000 0.122304 0.000000
# 6 0.000000 0.000000 0.000000 0.000000 0.000000 0.072618
#
#
# Mechanical properties :
#
#
# Convention : Reuss Voigt Hill
#
# Bulk Modulus (GPa) = 41.58328 69.58654 55.58491
# Shear Modulus (GPa) = 16.55848 26.06685 21.31267
#
# Velocity S-wave (km/s) = 2.88021 3.61375 3.26763
# Velocity P-wave (km/s) = 5.64744 7.23010 6.48722
#
# Compressibility (1/GPa) = 0.02404813
#
# Stress axis : x y z
#
# Youngs Moduli (GPa) = 37.30154 141.41827 70.92488
#
# Poissons Ratio (x) = 0.57215 0.27074
# Poissons Ratio (y) = 0.15091 0.29097
# Poissons Ratio (z) = 0.14239 0.58017
#
# Static dielectric constant tensor:
#      x y z
#    x 1.723800 0.000000 0.000000 
#    y 0.000000 1.808490 0.000000 
#    z 0.000000 0.000000 1.880880 
# 
# From -- ./inp_files/10831.got.cif
#   From: 2010.05.17/outbox.cif.g08.bks.cpg/sg20_6_cif.got.tgz:10831.got - 2010.06.03 22:52:26.
