data_PCOD9318443
_publ_section_title
;
Structure prediction by ZEFSAII (Michael W. Deem and Ramdas Pophale) SiO2 
 PCOD9318443
Probable space group: C 2 2 21
;
_chemical_formula_sum "Si O2"
_cell_formula_units_Z 44
_cell_length_a 9.559135
_cell_length_b 10.736281
_cell_length_c 20.155174
_cell_angle_alpha 90.000000
_cell_angle_beta 90.000000
_cell_angle_gamma 90.000000
_cell_volume 2068.516629
_symmetry_space_group_name_H-M "C 2 2 21"
_symmetry_group_IT_number 20
_symmetry_cell_setting 'orthorhombic'
loop_
_space_group_symop_operation_xyz
x,y,z
-x,-y,1/2+z
x,-y,-z
-x,y,1/2-z
1/2+x,1/2+y,z
1/2-x,1/2-y,1/2+z
1/2+x,1/2-y,-z
1/2-x,1/2+y,1/2-z
loop_
_atom_site_type_symbol
_atom_site_label
_atom_site_fract_x
_atom_site_fract_y
_atom_site_fract_z
Si Si1 0.121631 0.500000 0.000000
Si Si2 0.095261 0.293607 0.809727
Si Si3 0.839344 0.942217 0.386193
Si Si4 0.849878 0.089377 0.897201
Si Si5 0.905919 0.379488 0.914666
Si Si6 0.345170 0.448924 0.759559
O O1 0.224353 0.463626 0.059526
O O2 0.016123 0.606560 0.025592
O O3 0.150093 0.204836 0.869369
O O4 0.230042 0.347975 0.775272
O O5 0.000000 0.237565 0.750000
O O6 0.996856 0.394354 0.846857
O O7 0.995183 0.964804 0.415325
O O8 0.714773 0.016148 0.421697
O O9 0.820759 0.990088 0.311089
O O10 0.848945 0.238743 0.907199
O O11 0.836759 0.045304 0.820938
O O12 0.500000 0.394067 0.750000
#
# Coordination Sequence:
#
# PCOD9318443 Si02
#       6
#     4   8   8   8   8   8
#     4  12  26  44  66  94 124 180 228 264 320 378
#     4  11  20  41  67  96 138 165 208 273 326 395
#     4  10  22  40  67  97 132 166 206 268 334 389
#     4  10  24  45  67  93 133 168 216 277 321 382
#     4  11  24  43  65  95 128 172 220 267 322 388
#     4  10  20  40  66  99 129 169 210 261 341 388
#
# _framework density 21.271280999999998
#
# number of rings (size 3 to 8) (size 9 to 14) (size 15 to 20)
#    0.000    1.455    3.636    2.727    0.000    5.091 
#    9.818    0.000    0.000    0.000    0.000    0.000 
#    0.000    0.000    0.000    0.000    0.000    0.000 
#
# Total GULP energy -122554.230027 kJ/mol
# GULP energy per Si atom -5570.646819 kJ/mol
# Density = 2.122287 g / cm^3
# Si number density = 21.271281 Si / 1000 Ang^3
#
#
#
# Elastic Constant Matrix: (Units=GPa)
#
#
# Indices 1 2 3 4 5 6 
#
# 1 147.5986 69.7922 50.1178 0.0000 0.0000 0.0000
# 2 69.7922 72.6691 12.2933 0.0000 0.0000 0.0000
# 3 50.1178 12.2933 66.0225 0.0000 0.0000 0.0000
# 4 0.0000 0.0000 0.0000 -55.8052 0.0000 0.0000
# 5 0.0000 0.0000 0.0000 0.0000 44.0509 0.0000
# 6 0.0000 0.0000 0.0000 0.0000 0.0000 31.3283
#
#
#
# Elastic Compliance Matrix: (Units=1/GPa)
#
#
# Indices 1 2 3 4 5 6 
#
# 1 0.017356 -0.014910 -0.010399 0.000000 0.000000 0.000000
# 2 -0.014910 0.027017 0.006288 0.000000 0.000000 0.000000
# 3 -0.010399 0.006288 0.021870 0.000000 0.000000 0.000000
# 4 0.000000 0.000000 0.000000 -0.017919 0.000000 0.000000
# 5 0.000000 0.000000 0.000000 0.000000 0.022701 0.000000
# 6 0.000000 0.000000 0.000000 0.000000 0.000000 0.031920
#
#
# Mechanical properties :
#
#
# Convention : Reuss Voigt Hill
#
# Bulk Modulus (GPa) = 35.46066 61.18852 48.32459
# Shear Modulus (GPa) = 33.24741 14.18727 23.71734
#
# Velocity S-wave (km/s) = 3.95779 2.58537 3.34277
# Velocity P-wave (km/s) = 6.13126 6.14333 6.13730
#
# Compressibility (1/GPa) = 0.02820026
#
# Stress axis : x y z
#
# Youngs Moduli (GPa) = 57.61546 37.01350 45.72570
#
# Poissons Ratio (x) = 0.55188 0.47550
# Poissons Ratio (y) = 0.85905 -0.28751
# Poissons Ratio (z) = 0.59915 -0.23273
#
# Static dielectric constant tensor:
#      x y z
#    x 1.976050 0.000000 0.000000 
#    y 0.000000 1.841140 0.000000 
#    z 0.000000 0.000000 1.794540 
# 
# From -- ./inp_files/28670.got.cif
#   From: 2010.05.17/outbox.cif.g08.bks.cpg/sg20_15_cif.got.tgz:28670.got - 2010.06.03 22:52:26.
