data_PCOD9318728
_publ_section_title
;
Structure prediction by ZEFSAII (Michael W. Deem and Ramdas Pophale) SiO2 
 PCOD9318728
Probable space group: C 2 2 21
;
_chemical_formula_sum "Si O2"
_cell_formula_units_Z 44
_cell_length_a 11.707846
_cell_length_b 10.106625
_cell_length_c 13.916246
_cell_angle_alpha 90.000000
_cell_angle_beta 90.000000
_cell_angle_gamma 90.000000
_cell_volume 1646.664984
_symmetry_space_group_name_H-M "C 2 2 21"
_symmetry_group_IT_number 20
_symmetry_cell_setting 'orthorhombic'
loop_
_space_group_symop_operation_xyz
x,y,z
-x,-y,1/2+z
x,-y,-z
-x,y,1/2-z
1/2+x,1/2+y,z
1/2-x,1/2-y,1/2+z
1/2+x,1/2-y,-z
1/2-x,1/2+y,1/2-z
loop_
_atom_site_type_symbol
_atom_site_label
_atom_site_fract_x
_atom_site_fract_y
_atom_site_fract_z
Si Si1 0.697869 0.958754 0.704984
Si Si2 0.880076 0.718498 0.504906
Si Si3 0.077456 0.500000 0.500000
Si Si4 0.307185 0.500000 0.000000
Si Si5 0.478686 0.365531 0.854748
Si Si6 0.000000 0.386327 0.250000
Si Si7 0.868981 0.190899 0.713738
O O1 0.651354 0.978932 0.596514
O O2 0.600522 0.016163 0.778930
O O3 0.803268 0.053327 0.723471
O O4 0.110252 0.946827 0.583490
O O5 0.991688 0.624817 0.501988
O O6 0.773053 0.623953 0.527614
O O7 0.909285 0.833630 0.581400
O O8 0.866726 0.777813 0.399553
O O9 0.500000 0.423533 0.750000
O O10 0.442203 0.216720 0.823119
O O11 0.797681 0.305420 0.768457
O O12 0.000000 0.200122 0.750000
#
# Coordination Sequence:
#
# PCOD9318728 Si02
#       7
#     8   8   4   4   8   4   8
#     4  12  25  52  86 120 168 229 279 358 435 506
#     4  11  24  48  86 119 159 221 286 348 418 521
#     4  11  20  48  83 116 168 219 290 347 430 514
#     4  11  26  50  83 120 162 221 270 353 442 488
#     4  10  24  51  80 115 169 211 281 351 420 514
#     4  10  20  48  80 114 158 218 274 334 428 504
#     4  12  28  54  86 126 171 227 288 352 430 521
#
# _framework density 26.720675
#
# number of rings (size 3 to 8) (size 9 to 14) (size 15 to 20)
#    0.545    0.364    4.545    1.091    2.545    1.455 
#    8.182    2.727    0.000    0.000    0.000    0.000 
#    0.000    0.000    0.000    0.000    0.000    0.000 
#
# Total GULP energy -123295.934738 kJ/mol
# GULP energy per Si atom -5604.360670 kJ/mol
# Density = 2.665986 g / cm^3
# Si number density = 26.720675 Si / 1000 Ang^3
#
#
#
# Elastic Constant Matrix: (Units=GPa)
#
#
# Indices 1 2 3 4 5 6 
#
# 1 190.3199 106.4159 102.0894 0.0000 0.0000 0.0000
# 2 106.4159 157.3421 82.2873 0.0000 0.0000 0.0000
# 3 102.0894 82.2873 207.3980 0.0000 0.0000 0.0000
# 4 0.0000 0.0000 0.0000 -2.7194 0.0000 0.0000
# 5 0.0000 0.0000 0.0000 0.0000 36.6980 0.0000
# 6 0.0000 0.0000 0.0000 0.0000 0.0000 45.0412
#
#
#
# Elastic Compliance Matrix: (Units=1/GPa)
#
#
# Indices 1 2 3 4 5 6 
#
# 1 0.009503 -0.005023 -0.002685 0.000000 0.000000 0.000000
# 2 -0.005023 0.010675 -0.001763 0.000000 0.000000 0.000000
# 3 -0.002685 -0.001763 0.006843 0.000000 0.000000 0.000000
# 4 0.000000 0.000000 0.000000 -0.367734 0.000000 0.000000
# 5 0.000000 0.000000 0.000000 0.000000 0.027249 0.000000
# 6 0.000000 0.000000 0.000000 0.000000 0.000000 0.022202
#
#
# Mechanical properties :
#
#
# Convention : Reuss Voigt Hill
#
# Bulk Modulus (GPa) = 123.77642 126.29390 125.03516
# Shear Modulus (GPa) = -18.54412 33.42177 7.43883
#
# Velocity S-wave (km/s) = -2.63724 3.54048 1.67032
# Velocity P-wave (km/s) = 6.09504 8.00502 7.11442
#
# Compressibility (1/GPa) = 0.00807908
#
# Stress axis : x y z
#
# Youngs Moduli (GPa) = 105.22822 93.67838 146.14322
#
# Poissons Ratio (x) = 0.47057 0.39237
# Poissons Ratio (y) = 0.52858 0.25761
# Poissons Ratio (z) = 0.28252 0.16513
#
# Static dielectric constant tensor:
#      x y z
#    x 2.117030 0.000000 0.000000 
#    y 0.000000 2.088120 0.000000 
#    z 0.000000 0.000000 2.173120 
# 
# From -- ./inp_files/18834.got.cif
#   From: 2010.05.17/outbox.cif.g08.bks.cpg/sg20_10_cif.got.tgz:18834.got - 2010.06.03 22:52:26.
