data_PCOD9318852
_publ_section_title
;
Structure prediction by ZEFSAII (Michael W. Deem and Ramdas Pophale) SiO2 
 PCOD9318852
Probable space group: C 2 2 21
;
_chemical_formula_sum "Si O2"
_cell_formula_units_Z 48
_cell_length_a 17.009810
_cell_length_b 8.973963
_cell_length_c 17.849755
_cell_angle_alpha 90.000000
_cell_angle_beta 90.000000
_cell_angle_gamma 90.000000
_cell_volume 2724.683091
_symmetry_space_group_name_H-M "C 2 2 21"
_symmetry_group_IT_number 20
_symmetry_cell_setting 'orthorhombic'
loop_
_space_group_symop_operation_xyz
x,y,z
-x,-y,1/2+z
x,-y,-z
-x,y,1/2-z
1/2+x,1/2+y,z
1/2-x,1/2-y,1/2+z
1/2+x,1/2-y,-z
1/2-x,1/2+y,1/2-z
loop_
_atom_site_type_symbol
_atom_site_label
_atom_site_fract_x
_atom_site_fract_y
_atom_site_fract_z
Si Si1 0.387273 0.592902 0.923662
Si Si2 0.761171 0.448002 0.311768
Si Si3 0.809975 0.877616 0.674036
Si Si4 0.834035 0.364151 0.559306
Si Si5 0.432702 0.568470 0.583700
Si Si6 0.292924 0.835952 0.973414
O O1 0.318837 0.570225 0.862163
O O2 0.475199 0.566330 0.896827
O O3 0.373836 0.500000 0.000000
O O4 0.374283 0.760147 0.951880
O O5 0.808975 0.294182 0.297642
O O6 0.734148 0.522794 0.235039
O O7 0.813203 0.556353 0.362977
O O8 0.759578 0.856442 0.599565
O O9 0.886017 0.967025 0.643898
O O10 0.851067 0.500000 0.500000
O O11 0.898451 0.235975 0.574995
O O12 0.758708 0.270929 0.527494
O O13 0.422941 0.500000 0.500000
O O14 0.306481 0.000000 0.000000
#
# Coordination Sequence:
#
# PCOD9318852 Si02
#       6
#     8   8   8   8   8   8
#     4  10  21  37  57  83 115 151 188 229 293 343
#     4  11  22  36  61  83 113 153 197 239 287 349
#     4  11  21  36  56  89 110 152 196 238 287 338
#     4  12  18  36  61  86 112 150 193 242 280 340
#     4  11  21  36  58  85 115 149 190 235 286 342
#     4  11  19  36  60  86 113 148 193 244 278 341
#
# _framework density 17.616727999999998
#
# number of rings (size 3 to 8) (size 9 to 14) (size 15 to 20)
#    0.000    1.000    8.333    1.000    0.000    1.333 
#    0.000    0.000    0.000    4.000    0.000    0.000 
#    0.000    0.000    0.000    0.000    0.000    0.000 
#
# Total GULP energy -133653.245861 kJ/mol
# GULP energy per Si atom -5568.885244 kJ/mol
# Density = 1.757663 g / cm^3
# Si number density = 17.616728 Si / 1000 Ang^3
#
#
#
# Elastic Constant Matrix: (Units=GPa)
#
#
# Indices 1 2 3 4 5 6 
#
# 1 38.1584 4.7071 -65.2980 0.0000 0.0000 0.0000
# 2 4.7071 97.2198 -52.3971 0.0000 0.0000 0.0000
# 3 -65.2980 -52.3971 -123.9002 0.0000 0.0000 0.0000
# 4 0.0000 0.0000 0.0000 39.0117 0.0000 0.0000
# 5 0.0000 0.0000 0.0000 0.0000 19.5332 0.0000
# 6 0.0000 0.0000 0.0000 0.0000 0.0000 23.4363
#
#
#
# Elastic Compliance Matrix: (Units=1/GPa)
#
#
# Indices 1 2 3 4 5 6 
#
# 1 0.015669 -0.004242 -0.006464 0.000000 0.000000 0.000000
# 2 -0.004242 0.009525 -0.001792 0.000000 0.000000 0.000000
# 3 -0.006464 -0.001792 -0.003906 0.000000 0.000000 0.000000
# 4 0.000000 0.000000 0.000000 0.025633 0.000000 0.000000
# 5 0.000000 0.000000 0.000000 0.000000 0.051195 0.000000
# 6 0.000000 0.000000 0.000000 0.000000 0.000000 0.042669
#
#
# Mechanical properties :
#
#
# Convention : Reuss Voigt Hill
#
# Bulk Modulus (GPa) = -269.59261 -23.83311 -146.71286
# Shear Modulus (GPa) = 30.38675 24.69397 27.54036
#
# Velocity S-wave (km/s) = 4.15767 3.74804 3.95816
# Velocity P-wave (km/s) = 11.41561 2.27427 7.91024
#
# Compressibility (1/GPa) = -0.00370930
#
# Stress axis : x y z
#
# Youngs Moduli (GPa) = 63.82090 104.98334 -255.98649
#
# Poissons Ratio (x) = 0.44537 -1.65463
# Poissons Ratio (y) = 0.27075 -0.45884
# Poissons Ratio (z) = 0.41252 0.18818
#
# Static dielectric constant tensor:
#      x y z
#    x 1.594080 0.000000 0.000000 
#    y 0.000000 1.623570 0.000000 
#    z 0.000000 0.000000 1.578510 
# 
# From -- ./inp_files/21256.got.cif
#   From: 2010.05.17/outbox.cif.g08.bks.cpg/sg20_11_cif.got.tgz:21256.got - 2010.06.03 22:52:26.
