data_PCOD9318274
_publ_section_title
;
Structure prediction by ZEFSAII (Michael W. Deem and Ramdas Pophale) SiO2 
 PCOD9318274
Probable space group: C 2 2 21
;
_chemical_formula_sum "Si O2"
_cell_formula_units_Z 56
_cell_length_a 12.869802
_cell_length_b 21.520825
_cell_length_c 10.122312
_cell_angle_alpha 90.000000
_cell_angle_beta 90.000000
_cell_angle_gamma 90.000000
_cell_volume 2803.564169
_symmetry_space_group_name_H-M "C 2 2 21"
_symmetry_group_IT_number 20
_symmetry_cell_setting 'orthorhombic'
loop_
_space_group_symop_operation_xyz
x,y,z
-x,-y,1/2+z
x,-y,-z
-x,y,1/2-z
1/2+x,1/2+y,z
1/2-x,1/2-y,1/2+z
1/2+x,1/2-y,-z
1/2-x,1/2+y,1/2-z
loop_
_atom_site_type_symbol
_atom_site_label
_atom_site_fract_x
_atom_site_fract_y
_atom_site_fract_z
Si Si1 0.285714 0.072914 0.520042
Si Si2 0.784876 0.856119 0.277306
Si Si3 0.007080 0.385920 0.402942
Si Si4 0.102956 0.264462 0.377358
Si Si5 0.791208 0.850244 0.775678
Si Si6 0.732698 0.073586 0.481535
Si Si7 0.891949 0.259435 0.809096
O O1 0.245971 0.098268 0.660017
O O2 0.408423 0.088846 0.518992
O O3 0.227275 0.111141 0.407692
O O4 0.271061 0.000000 0.500000
O O5 0.687673 0.810345 0.310449
O O6 0.803561 0.895442 0.406920
O O7 0.876309 0.810114 0.242216
O O8 0.003404 0.310417 0.388970
O O9 0.113456 0.405004 0.479879
O O10 0.000000 0.409845 0.250000
O O11 0.113892 0.198601 0.302238
O O12 0.125572 0.255544 0.533294
O O13 0.777589 0.898680 0.654656
O O14 0.695504 0.803755 0.750290
O O15 0.734441 0.000000 0.500000
O O16 0.000000 0.283158 0.750000
#
# Coordination Sequence:
#
# PCOD9318274 Si02
#       7
#     8   8   8   8   8   8   8
#     4  12  23  38  61  89 126 171 203 246 308 387
#     4  10  21  40  59  85 123 163 205 255 320 365
#     4  11  21  38  57  88 125 163 200 252 310 364
#     4  10  20  39  59  86 126 157 206 262 312 365
#     4  11  23  36  60  89 121 161 212 252 309 380
#     4  11  22  40  58  86 126 167 205 247 308 388
#     4  11  21  39  62  89 119 157 213 270 315 374
#
# _framework density 19.974574
#
# number of rings (size 3 to 8) (size 9 to 14) (size 15 to 20)
#    0.000    1.143    7.143    2.143    0.000    0.000 
#    2.571    0.000    0.000    0.857    0.000    0.000 
#    0.000    0.000    0.000    0.000    0.000    0.000 
#
# Total GULP energy -156055.339449 kJ/mol
# GULP energy per Si atom -5573.404980 kJ/mol
# Density = 1.992911 g / cm^3
# Si number density = 19.974574 Si / 1000 Ang^3
#
#
#
# Elastic Constant Matrix: (Units=GPa)
#
#
# Indices 1 2 3 4 5 6 
#
# 1 34.7734 20.5277 11.4998 0.0000 0.0000 0.0000
# 2 20.5277 134.5391 26.8763 0.0000 0.0000 0.0000
# 3 11.4998 26.8763 89.0353 0.0000 0.0000 0.0000
# 4 0.0000 0.0000 0.0000 264.5734 0.0000 0.0000
# 5 0.0000 0.0000 0.0000 0.0000 14.8703 0.0000
# 6 0.0000 0.0000 0.0000 0.0000 0.0000 17.7885
#
#
#
# Elastic Compliance Matrix: (Units=1/GPa)
#
#
# Indices 1 2 3 4 5 6 
#
# 1 0.032272 -0.004354 -0.002854 0.000000 0.000000 0.000000
# 2 -0.004354 0.008497 -0.002003 0.000000 0.000000 0.000000
# 3 -0.002854 -0.002003 0.012205 0.000000 0.000000 0.000000
# 4 0.000000 0.000000 0.000000 0.003780 0.000000 0.000000
# 5 0.000000 0.000000 0.000000 0.000000 0.067248 0.000000
# 6 0.000000 0.000000 0.000000 0.000000 0.000000 0.056216
#
#
# Mechanical properties :
#
#
# Convention : Reuss Voigt Hill
#
# Bulk Modulus (GPa) = 28.94137 41.79505 35.36821
# Shear Modulus (GPa) = 23.79189 72.74271 48.26730
#
# Velocity S-wave (km/s) = 3.45499 6.04125 4.92106
# Velocity P-wave (km/s) = 5.51693 8.34457 7.07348
#
# Compressibility (1/GPa) = 0.03455261
#
# Stress axis : x y z
#
# Youngs Moduli (GPa) = 30.98697 117.68674 81.93609
#
# Poissons Ratio (x) = 0.51239 0.23384
# Poissons Ratio (y) = 0.13491 0.16409
# Poissons Ratio (z) = 0.08844 0.23568
#
# Static dielectric constant tensor:
#      x y z
#    x 1.725790 0.000000 0.000000 
#    y 0.000000 1.725960 0.000000 
#    z 0.000000 0.000000 1.757440 
# 
# From -- ./inp_files/8704.got.cif
#   From: 2010.05.17/outbox.cif.g08.bks.cpg/sg20_5_cif.got.tgz:8704.got - 2010.06.03 22:52:26.
