data_PCOD9318148
_publ_section_title
;
Structure prediction by ZEFSAII (Michael W. Deem and Ramdas Pophale) SiO2 
 PCOD9318148
Probable space group: C 2 2 21
;
_chemical_formula_sum "Si O2"
_cell_formula_units_Z 44
_cell_length_a 15.776410
_cell_length_b 17.906046
_cell_length_c 7.989386
_cell_angle_alpha 90.000000
_cell_angle_beta 90.000000
_cell_angle_gamma 90.000000
_cell_volume 2256.946603
_symmetry_space_group_name_H-M "C 2 2 21"
_symmetry_group_IT_number 20
_symmetry_cell_setting 'orthorhombic'
loop_
_space_group_symop_operation_xyz
x,y,z
-x,-y,1/2+z
x,-y,-z
-x,y,1/2-z
1/2+x,1/2+y,z
1/2-x,1/2-y,1/2+z
1/2+x,1/2-y,-z
1/2-x,1/2+y,1/2-z
loop_
_atom_site_type_symbol
_atom_site_label
_atom_site_fract_x
_atom_site_fract_y
_atom_site_fract_z
Si Si1 0.623299 0.083032 0.916080
Si Si2 0.542853 0.584108 0.432765
Si Si3 0.066764 0.413170 0.463003
Si Si4 0.500000 0.310805 0.250000
Si Si5 0.717061 0.337053 0.578763
Si Si6 0.653968 0.211901 0.338738
O O1 0.530586 0.114644 0.965571
O O2 0.614055 0.087499 0.715507
O O3 0.704132 0.129194 0.975382
O O4 0.630170 0.000000 0.000000
O O5 0.531042 0.500000 0.500000
O O6 0.500000 0.405567 0.750000
O O7 0.509491 0.638629 0.582147
O O8 0.642347 0.602777 0.407658
O O9 0.060941 0.500000 0.500000
O O10 0.115228 0.365378 0.598716
O O11 0.583373 0.258574 0.236655
O O12 0.675828 0.265589 0.491762
O O13 0.759771 0.308074 0.746628
#
# Coordination Sequence:
#
# PCOD9318148 Si02
#       6
#     8   8   8   4   8   8
#     4  10  20  38  61  91 127 161 209 261 313 396
#     4  11  24  46  71  96 129 180 234 283 338 400
#     4  10  21  38  64  92 125 172 208 252 328 395
#     4  10  24  44  70  96 136 178 220 276 342 404
#     4  11  24  39  63  92 131 162 217 270 335 388
#     4  11  23  41  61  96 127 168 208 271 329 405
#
# _framework density 19.495366000000001
#
# number of rings (size 3 to 8) (size 9 to 14) (size 15 to 20)
#    0.000    1.455    0.909    3.818    2.545    2.909 
#   13.091    0.909    0.000    0.000    0.000    0.000 
#    0.000    0.000    0.000    0.000    0.000    0.000 
#
# Total GULP energy -122759.068863 kJ/mol
# GULP energy per Si atom -5579.957676 kJ/mol
# Density = 1.945099 g / cm^3
# Si number density = 19.495366 Si / 1000 Ang^3
#
#
#
# Elastic Constant Matrix: (Units=GPa)
#
#
# Indices 1 2 3 4 5 6 
#
# 1 72.3917 27.9211 30.8661 0.0000 0.0000 0.0000
# 2 27.9211 78.5187 29.7146 0.0000 0.0000 0.0000
# 3 30.8661 29.7146 84.8968 0.0000 0.0000 0.0000
# 4 0.0000 0.0000 0.0000 26.5856 0.0000 0.0000
# 5 0.0000 0.0000 0.0000 0.0000 33.0015 0.0000
# 6 0.0000 0.0000 0.0000 0.0000 0.0000 -167.3086
#
#
#
# Elastic Compliance Matrix: (Units=1/GPa)
#
#
# Indices 1 2 3 4 5 6 
#
# 1 0.017585 -0.004419 -0.004847 0.000000 0.000000 0.000000
# 2 -0.004419 0.015791 -0.003920 0.000000 0.000000 0.000000
# 3 -0.004847 -0.003920 0.014913 0.000000 0.000000 0.000000
# 4 0.000000 0.000000 0.000000 0.037614 0.000000 0.000000
# 5 0.000000 0.000000 0.000000 0.000000 0.030302 0.000000
# 6 0.000000 0.000000 0.000000 0.000000 0.000000 -0.005977
#
#
# Mechanical properties :
#
#
# Convention : Reuss Voigt Hill
#
# Bulk Modulus (GPa) = 45.62682 45.86789 45.74735
# Shear Modulus (GPa) = 34.74518 -11.72394 11.51062
#
# Velocity S-wave (km/s) = 4.22622 -2.45495 2.43251
# Velocity P-wave (km/s) = 6.87527 3.94246 5.60412
#
# Compressibility (1/GPa) = 0.02191694
#
# Stress axis : x y z
#
# Youngs Moduli (GPa) = 56.86813 63.32814 67.05450
#
# Poissons Ratio (x) = 0.27984 0.32499
# Poissons Ratio (y) = 0.25129 0.26288
# Poissons Ratio (z) = 0.27562 0.24827
#
# Static dielectric constant tensor:
#      x y z
#    x 1.657310 0.000000 0.000000 
#    y 0.000000 1.753410 0.000000 
#    z 0.000000 0.000000 1.771770 
# 
# From -- ./inp_files/8338.got.cif
#   From: 2010.05.17/outbox.cif.g08.bks.cpg/sg20_5_cif.got.tgz:8338.got - 2010.06.03 22:52:26.
