data_PCOD9318038
_publ_section_title
;
Structure prediction by ZEFSAII (Michael W. Deem and Ramdas Pophale) SiO2 
 PCOD9318038
Probable space group: C 2 2 21
;
_chemical_formula_sum "Si O2"
_cell_formula_units_Z 36
_cell_length_a 7.734645
_cell_length_b 22.829264
_cell_length_c 9.228385
_cell_angle_alpha 90.000000
_cell_angle_beta 90.000000
_cell_angle_gamma 90.000000
_cell_volume 1629.513641
_symmetry_space_group_name_H-M "C 2 2 21"
_symmetry_group_IT_number 20
_symmetry_cell_setting 'orthorhombic'
loop_
_space_group_symop_operation_xyz
x,y,z
-x,-y,1/2+z
x,-y,-z
-x,y,1/2-z
1/2+x,1/2+y,z
1/2-x,1/2-y,1/2+z
1/2+x,1/2-y,-z
1/2-x,1/2+y,1/2-z
loop_
_atom_site_type_symbol
_atom_site_label
_atom_site_fract_x
_atom_site_fract_y
_atom_site_fract_z
Si Si1 0.183315 0.429500 0.215154
Si Si2 0.127135 0.888145 0.995355
Si Si3 0.292209 0.704471 0.272476
Si Si4 0.074625 0.000000 0.500000
Si Si5 0.226799 0.819826 0.449679
O O1 0.270513 0.407237 0.362490
O O2 0.307898 0.471560 0.124534
O O3 0.157385 0.371041 0.118605
O O4 0.000000 0.457829 0.250000
O O5 0.966019 0.847019 0.042418
O O6 0.230953 0.851758 0.875868
O O7 0.042402 0.947859 0.936965
O O8 0.500000 0.710632 0.250000
O O9 0.228659 0.762413 0.351905
O O10 0.217006 0.695729 0.112654
#
# Coordination Sequence:
#
# PCOD9318038 Si02
#       5
#     8   8   8   4   8
#     4  11  24  43  65  96 133 169 216 274 326 383
#     4  10  23  43  68  94 127 173 218 266 327 395
#     4  10  21  37  62  95 129 168 218 269 320 385
#     4  10  22  42  70  96 124 172 222 266 328 390
#     4  10  20  37  62  92 130 171 215 262 324 391
#
# _framework density 22.092479999999998
#
# number of rings (size 3 to 8) (size 9 to 14) (size 15 to 20)
#    0.000    1.778    0.000    4.667    0.000   13.333 
#    0.000    5.556    0.000    0.000    0.000    0.000 
#    0.000    0.000    0.000    0.000    0.000    0.000 
#
# Total GULP energy -100743.882565 kJ/mol
# GULP energy per Si atom -5596.882365 kJ/mol
# Density = 2.204220 g / cm^3
# Si number density = 22.092480 Si / 1000 Ang^3
#
#
#
# Elastic Constant Matrix: (Units=GPa)
#
#
# Indices 1 2 3 4 5 6 
#
# 1 18.8195 23.7986 20.8456 0.0000 0.0000 0.0000
# 2 23.7986 151.8460 69.5407 0.0000 0.0000 0.0000
# 3 20.8456 69.5407 150.3629 0.0000 0.0000 0.0000
# 4 0.0000 0.0000 0.0000 38.7877 0.0000 0.0000
# 5 0.0000 0.0000 0.0000 0.0000 20.6268 0.0000
# 6 0.0000 0.0000 0.0000 0.0000 0.0000 -17.2383
#
#
#
# Elastic Compliance Matrix: (Units=1/GPa)
#
#
# Indices 1 2 3 4 5 6 
#
# 1 0.070152 -0.008298 -0.005888 0.000000 0.000000 0.000000
# 2 -0.008298 0.009337 -0.003168 0.000000 0.000000 0.000000
# 3 -0.005888 -0.003168 0.008932 0.000000 0.000000 0.000000
# 4 0.000000 0.000000 0.000000 0.025781 0.000000 0.000000
# 5 0.000000 0.000000 0.000000 0.000000 0.048481 0.000000
# 6 0.000000 0.000000 0.000000 0.000000 0.000000 -0.058010
#
#
# Mechanical properties :
#
#
# Convention : Reuss Voigt Hill
#
# Bulk Modulus (GPa) = 18.61749 61.04426 39.83087
# Shear Modulus (GPa) = 31.78964 22.22481 27.00723
#
# Velocity S-wave (km/s) = 3.79744 3.17518 3.50017
# Velocity P-wave (km/s) = 5.26050 6.41354 5.86542
#
# Compressibility (1/GPa) = 0.05371295
#
# Stress axis : x y z
#
# Youngs Moduli (GPa) = 14.25482 107.10131 111.95895
#
# Poissons Ratio (x) = 0.88877 0.65917
# Poissons Ratio (y) = 0.11829 0.35466
# Poissons Ratio (z) = 0.08393 0.33927
#
# Static dielectric constant tensor:
#      x y z
#    x 1.844290 0.000000 0.000000 
#    y 0.000000 1.786500 0.000000 
#    z 0.000000 0.000000 1.810180 
# 
# From -- ./inp_files/5913.got.cif
#   From: 2010.05.17/outbox.cif.g08.bks.cpg/sg20_3_cif.got.tgz:5913.got - 2010.06.03 22:52:26.
