data_PCOD9318350
_publ_section_title
;
Structure prediction by ZEFSAII (Michael W. Deem and Ramdas Pophale) SiO2 
 PCOD9318350
Probable space group: C 2 2 21
;
_chemical_formula_sum "Si O2"
_cell_formula_units_Z 56
_cell_length_a 9.500644
_cell_length_b 15.364880
_cell_length_c 19.375514
_cell_angle_alpha 90.000000
_cell_angle_beta 90.000000
_cell_angle_gamma 90.000000
_cell_volume 2828.364972
_symmetry_space_group_name_H-M "C 2 2 21"
_symmetry_group_IT_number 20
_symmetry_cell_setting 'orthorhombic'
loop_
_space_group_symop_operation_xyz
x,y,z
-x,-y,1/2+z
x,-y,-z
-x,y,1/2-z
1/2+x,1/2+y,z
1/2-x,1/2-y,1/2+z
1/2+x,1/2-y,-z
1/2-x,1/2+y,1/2-z
loop_
_atom_site_type_symbol
_atom_site_label
_atom_site_fract_x
_atom_site_fract_y
_atom_site_fract_z
Si Si1 0.064737 0.600967 0.485168
Si Si2 0.960924 0.003873 0.325588
Si Si3 0.312606 0.355965 0.152274
Si Si4 0.870403 0.853586 0.568841
Si Si5 0.956365 0.764370 0.426379
Si Si6 0.485852 0.176663 0.627750
Si Si7 0.770478 0.841182 0.305943
O O1 0.034328 0.500000 0.500000
O O2 0.211313 0.614075 0.445069
O O3 0.952912 0.662548 0.445796
O O4 0.069939 0.647563 0.559583
O O5 0.941032 0.068793 0.388541
O O6 0.000000 0.042502 0.250000
O O7 0.824529 0.940692 0.316398
O O8 0.086808 0.938808 0.344442
O O9 0.387037 0.291663 0.098268
O O10 0.152431 0.381942 0.137220
O O11 0.315328 0.315471 0.228936
O O12 0.922815 0.823716 0.492993
O O13 0.911903 0.769713 0.615213
O O14 0.852175 0.786686 0.364036
O O15 0.604326 0.171310 0.685558
#
# Coordination Sequence:
#
# PCOD9318350 Si02
#       7
#     8   8   8   8   8   8   8
#     4  11  23  40  62  90 125 167 206 267 319 373
#     4   9  21  40  64  92 124 168 214 260 315 384
#     4  10  21  39  62  96 125 162 209 263 312 373
#     4  11  22  38  66  89 124 163 216 258 306 387
#     4  10  21  40  62  91 121 167 214 252 314 378
#     4  11  22  40  62  92 125 163 207 257 325 376
#     4  10  20  39  67  87 131 165 203 256 323 377
#
# _framework density 19.799424999999999
#
# number of rings (size 3 to 8) (size 9 to 14) (size 15 to 20)
#    0.000    1.714    2.857    2.571    2.000    1.143 
#    5.143    0.000    0.000    1.714    0.000    0.000 
#    0.000    0.000    0.000    0.000    0.000    0.000 
#
# Total GULP energy -156053.926928 kJ/mol
# GULP energy per Si atom -5573.354533 kJ/mol
# Density = 1.975436 g / cm^3
# Si number density = 19.799425 Si / 1000 Ang^3
#
#
#
# Elastic Constant Matrix: (Units=GPa)
#
#
# Indices 1 2 3 4 5 6 
#
# 1 93.6216 10.8404 17.4059 0.0000 0.0000 0.0000
# 2 10.8404 73.7399 34.5008 0.0000 0.0000 0.0000
# 3 17.4059 34.5008 72.1384 0.0000 0.0000 0.0000
# 4 0.0000 0.0000 0.0000 16.0286 0.0000 0.0000
# 5 0.0000 0.0000 0.0000 0.0000 32.2884 0.0000
# 6 0.0000 0.0000 0.0000 0.0000 0.0000 10.3333
#
#
#
# Elastic Compliance Matrix: (Units=1/GPa)
#
#
# Indices 1 2 3 4 5 6 
#
# 1 0.011197 -0.000492 -0.002466 0.000000 0.000000 0.000000
# 2 -0.000492 0.017492 -0.008247 0.000000 0.000000 0.000000
# 3 -0.002466 -0.008247 0.018402 0.000000 0.000000 0.000000
# 4 0.000000 0.000000 0.000000 0.062388 0.000000 0.000000
# 5 0.000000 0.000000 0.000000 0.000000 0.030971 0.000000
# 6 0.000000 0.000000 0.000000 0.000000 0.000000 0.096775
#
#
# Mechanical properties :
#
#
# Convention : Reuss Voigt Hill
#
# Bulk Modulus (GPa) = 40.51927 40.55491 40.53709
# Shear Modulus (GPa) = 18.66634 23.51358 21.08996
#
# Velocity S-wave (km/s) = 3.07379 3.44988 3.26725
# Velocity P-wave (km/s) = 5.75386 6.03293 5.89505
#
# Compressibility (1/GPa) = 0.02467962
#
# Stress axis : x y z
#
# Youngs Moduli (GPa) = 89.31127 57.16885 54.34339
#
# Poissons Ratio (x) = 0.02813 0.13402
# Poissons Ratio (y) = 0.04395 0.44817
# Poissons Ratio (z) = 0.22026 0.47147
#
# Static dielectric constant tensor:
#      x y z
#    x 1.729750 0.000000 0.000000 
#    y 0.000000 1.709950 0.000000 
#    z 0.000000 0.000000 1.719630 
# 
# From -- ./inp_files/26739.got.cif
#   From: 2010.05.17/outbox.cif.g08.bks.cpg/sg20_14_cif.got.tgz:26739.got - 2010.06.03 22:52:26.
