data_PCOD9318552
_publ_section_title
;
Structure prediction by ZEFSAII (Michael W. Deem and Ramdas Pophale) SiO2 
 PCOD9318552
Probable space group: C 2 2 21
;
_chemical_formula_sum "Si O2"
_cell_formula_units_Z 60
_cell_length_a 20.782630
_cell_length_b 12.193673
_cell_length_c 11.600099
_cell_angle_alpha 90.000000
_cell_angle_beta 90.000000
_cell_angle_gamma 90.000000
_cell_volume 2939.657582
_symmetry_space_group_name_H-M "C 2 2 21"
_symmetry_group_IT_number 20
_symmetry_cell_setting 'orthorhombic'
loop_
_space_group_symop_operation_xyz
x,y,z
-x,-y,1/2+z
x,-y,-z
-x,y,1/2-z
1/2+x,1/2+y,z
1/2-x,1/2-y,1/2+z
1/2+x,1/2-y,-z
1/2-x,1/2+y,1/2-z
loop_
_atom_site_type_symbol
_atom_site_label
_atom_site_fract_x
_atom_site_fract_y
_atom_site_fract_z
Si Si1 0.397430 0.127537 0.025404
Si Si2 0.190252 0.216846 0.370786
Si Si3 0.954186 0.630384 0.506452
Si Si4 0.200747 0.874574 0.210652
Si Si5 0.234872 0.602711 0.946977
Si Si6 0.841036 0.000000 0.500000
Si Si7 0.923866 0.261605 0.734379
Si Si8 0.134943 0.216177 0.124196
O O1 0.399079 0.160869 0.160846
O O2 0.348160 0.196392 0.948951
O O3 0.470201 0.154845 0.988149
O O4 0.385913 0.000000 0.000000
O O5 0.256760 0.269813 0.325297
O O6 0.209690 0.123287 0.459723
O O7 0.150713 0.187500 0.256120
O O8 0.948590 0.500000 0.500000
O O9 0.923510 0.678532 0.389008
O O10 0.920628 0.693666 0.611044
O O11 0.234948 0.921252 0.323152
O O12 0.127165 0.837580 0.231897
O O13 0.201375 0.958955 0.106148
O O14 0.195085 0.715092 0.929134
O O15 0.196260 0.500000 0.000000
O O16 0.877749 0.893084 0.549322
O O17 0.000000 0.232636 0.750000
#
# Coordination Sequence:
#
# PCOD9318552 Si02
#       8
#     8   8   8   8   8   4   8   8
#     4  10  23  39  66  97 129 168 209 264 320 381
#     4  11  23  40  61  96 129 162 209 258 325 378
#     4  10  21  40  64  95 129 164 209 263 321 380
#     4  11  23  40  66  90 128 166 208 269 310 379
#     4  11  22  42  62  91 125 164 210 262 326 382
#     4  12  22  42  62  92 122 166 220 260 318 376
#     4  10  20  41  69  90 124 171 215 257 319 384
#     4  11  24  38  65  92 126 169 209 265 315 382
#
# _framework density 20.410540999999998
#
# number of rings (size 3 to 8) (size 9 to 14) (size 15 to 20)
#    0.000    1.333    4.000    1.200    2.800    0.533 
#    2.400    0.000    8.800    0.000    0.000    0.000 
#    0.000    0.000    0.000    0.000    0.000    0.000 
#
# Total GULP energy -167421.937442 kJ/mol
# GULP energy per Si atom -5580.731248 kJ/mol
# Density = 2.036409 g / cm^3
# Si number density = 20.410541 Si / 1000 Ang^3
#
#
#
# Elastic Constant Matrix: (Units=GPa)
#
#
# Indices 1 2 3 4 5 6 
#
# 1 58.6403 7.2305 17.1660 0.0000 0.0000 0.0000
# 2 7.2305 56.0672 12.7879 0.0000 0.0000 0.0000
# 3 17.1660 12.7879 93.7537 0.0000 0.0000 0.0000
# 4 0.0000 0.0000 0.0000 39.7769 0.0000 0.0000
# 5 0.0000 0.0000 0.0000 0.0000 12.4799 0.0000
# 6 0.0000 0.0000 0.0000 0.0000 0.0000 17.9164
#
#
#
# Elastic Compliance Matrix: (Units=1/GPa)
#
#
# Indices 1 2 3 4 5 6 
#
# 1 0.018163 -0.001635 -0.003103 0.000000 0.000000 0.000000
# 2 -0.001635 0.018556 -0.002232 0.000000 0.000000 0.000000
# 3 -0.003103 -0.002232 0.011539 0.000000 0.000000 0.000000
# 4 0.000000 0.000000 0.000000 0.025140 0.000000 0.000000
# 5 0.000000 0.000000 0.000000 0.000000 0.080129 0.000000
# 6 0.000000 0.000000 0.000000 0.000000 0.000000 0.055815
#
#
# Mechanical properties :
#
#
# Convention : Reuss Voigt Hill
#
# Bulk Modulus (GPa) = 29.13811 31.42557 30.28184
# Shear Modulus (GPa) = 21.30212 25.45311 23.37761
#
# Velocity S-wave (km/s) = 3.23411 3.53520 3.38800
# Velocity P-wave (km/s) = 5.31535 5.66513 5.49303
#
# Compressibility (1/GPa) = 0.03431931
#
# Stress axis : x y z
#
# Youngs Moduli (GPa) = 55.05719 53.89226 86.66473
#
# Poissons Ratio (x) = 0.08810 0.26889
# Poissons Ratio (y) = 0.09000 0.19340
# Poissons Ratio (z) = 0.17082 0.12027
#
# Static dielectric constant tensor:
#      x y z
#    x 1.726450 0.000000 0.000000 
#    y 0.000000 1.761820 0.000000 
#    z 0.000000 0.000000 1.731330 
# 
# From -- ./inp_files/14371.got.cif
#   From: 2010.05.17/outbox.cif.g08.bks.cpg/sg20_8_cif.got.tgz:14371.got - 2010.06.03 22:52:26.
