data_PCOD9318325
_publ_section_title
;
Structure prediction by ZEFSAII (Michael W. Deem and Ramdas Pophale) SiO2 
 PCOD9318325
Probable space group: C 2 2 21
;
_chemical_formula_sum "Si O2"
_cell_formula_units_Z 40
_cell_length_a 27.972744
_cell_length_b 13.875993
_cell_length_c 5.127120
_cell_angle_alpha 90.000000
_cell_angle_beta 90.000000
_cell_angle_gamma 90.000000
_cell_volume 1990.089577
_symmetry_space_group_name_H-M "C 2 2 21"
_symmetry_group_IT_number 20
_symmetry_cell_setting 'orthorhombic'
loop_
_space_group_symop_operation_xyz
x,y,z
-x,-y,1/2+z
x,-y,-z
-x,y,1/2-z
1/2+x,1/2+y,z
1/2-x,1/2-y,1/2+z
1/2+x,1/2-y,-z
1/2-x,1/2+y,1/2-z
loop_
_atom_site_type_symbol
_atom_site_label
_atom_site_fract_x
_atom_site_fract_y
_atom_site_fract_z
Si Si1 0.635343 0.207830 0.477902
Si Si2 0.305692 0.733432 0.486302
Si Si3 0.466016 0.500000 0.000000
Si Si4 0.324305 0.000000 0.000000
Si Si5 0.755907 0.085419 0.841090
Si Si6 0.965739 0.209839 0.000579
O O1 0.654423 0.249019 0.206082
O O2 0.645646 0.094998 0.461191
O O3 0.579296 0.221541 0.515647
O O4 0.667240 0.256081 0.709465
O O5 0.265738 0.820138 0.491751
O O6 0.281493 0.634385 0.588569
O O7 0.500000 0.501863 0.250000
O O8 0.441330 0.397021 0.007732
O O9 0.289323 0.026769 0.765494
O O10 0.783147 0.000000 0.000000
O O11 0.000000 0.221447 0.750000
O O12 0.000000 0.216608 0.250000
#
# Coordination Sequence:
#
# PCOD9318325 Si02
#       6
#     8   8   4   4   8   8
#     4  11  23  41  60  94 126 163 217 269 317 378
#     4  11  24  39  62  91 126 165 217 273 304 390
#     4   8  16  32  58  81 104 146 194 235 308 382
#     4  10  22  38  62  87 128 180 208 255 316 398
#     4  11  22  41  64  89 125 179 224 255 332 387
#     4  10  20  39  65  88 118 161 203 261 324 386
#
# _framework density 20.099596999999999
#
# number of rings (size 3 to 8) (size 9 to 14) (size 15 to 20)
#    0.000    1.600    2.000    3.600    2.800    0.000 
#    1.800    1.000    0.000    0.000    0.000    0.000 
#    0.000    0.000    0.000    0.000    0.000    0.000 
#
# Total GULP energy -111526.246419 kJ/mol
# GULP energy per Si atom -5576.312321 kJ/mol
# Density = 2.005385 g / cm^3
# Si number density = 20.099597 Si / 1000 Ang^3
#
#
#
# Elastic Constant Matrix: (Units=GPa)
#
#
# Indices 1 2 3 4 5 6 
#
# 1 98.5966 49.5811 32.3940 0.0000 0.0000 0.0000
# 2 49.5811 119.1721 29.9736 0.0000 0.0000 0.0000
# 3 32.3940 29.9736 110.8163 0.0000 0.0000 0.0000
# 4 0.0000 0.0000 0.0000 34.1292 0.0000 0.0000
# 5 0.0000 0.0000 0.0000 0.0000 17.5532 0.0000
# 6 0.0000 0.0000 0.0000 0.0000 0.0000 35.6868
#
#
#
# Elastic Compliance Matrix: (Units=1/GPa)
#
#
# Indices 1 2 3 4 5 6 
#
# 1 0.013491 -0.004958 -0.002603 0.000000 0.000000 0.000000
# 2 -0.004958 0.010826 -0.001479 0.000000 0.000000 0.000000
# 3 -0.002603 -0.001479 0.010185 0.000000 0.000000 0.000000
# 4 0.000000 0.000000 0.000000 0.029300 0.000000 0.000000
# 5 0.000000 0.000000 0.000000 0.000000 0.056970 0.000000
# 6 0.000000 0.000000 0.000000 0.000000 0.000000 0.028022
#
#
# Mechanical properties :
#
#
# Convention : Reuss Voigt Hill
#
# Bulk Modulus (GPa) = 60.89272 61.38695 61.13983
# Shear Modulus (GPa) = 29.01135 31.91626 30.46380
#
# Velocity S-wave (km/s) = 3.80331 3.98918 3.89735
# Velocity P-wave (km/s) = 7.04614 7.19901 7.12298
#
# Compressibility (1/GPa) = 0.01642232
#
# Stress axis : x y z
#
# Youngs Moduli (GPa) = 74.12505 92.37016 98.18638
#
# Poissons Ratio (x) = 0.45799 0.25553
# Poissons Ratio (y) = 0.36753 0.14520
# Poissons Ratio (z) = 0.19291 0.13660
#
# Static dielectric constant tensor:
#      x y z
#    x 1.669390 0.000000 0.000000 
#    y 0.000000 1.799730 0.000000 
#    z 0.000000 0.000000 1.773960 
# 
# From -- ./inp_files/4071.got.cif
#   From: 2010.05.17/outbox.cif.g08.bks.cpg/sg20_3_cif.got.tgz:4071.got - 2010.06.03 22:52:26.
