data_PCOD9318449
_publ_section_title
;
Structure prediction by ZEFSAII (Michael W. Deem and Ramdas Pophale) SiO2 
 PCOD9318449
Probable space group: C 2 2 21
;
_chemical_formula_sum "Si O2"
_cell_formula_units_Z 56
_cell_length_a 11.491939
_cell_length_b 14.451728
_cell_length_c 13.724407
_cell_angle_alpha 90.000000
_cell_angle_beta 90.000000
_cell_angle_gamma 90.000000
_cell_volume 2279.327235
_symmetry_space_group_name_H-M "C 2 2 21"
_symmetry_group_IT_number 20
_symmetry_cell_setting 'orthorhombic'
loop_
_space_group_symop_operation_xyz
x,y,z
-x,-y,1/2+z
x,-y,-z
-x,y,1/2-z
1/2+x,1/2+y,z
1/2-x,1/2-y,1/2+z
1/2+x,1/2-y,-z
1/2-x,1/2+y,1/2-z
loop_
_atom_site_type_symbol
_atom_site_label
_atom_site_fract_x
_atom_site_fract_y
_atom_site_fract_z
Si Si1 0.561133 0.898526 0.466937
Si Si2 0.926969 0.147629 0.335866
Si Si3 0.240030 0.339194 0.821724
Si Si4 0.742180 0.366696 0.183326
Si Si5 0.985418 0.060400 0.638442
Si Si6 0.073646 0.796402 0.506806
Si Si7 0.109479 0.476081 0.174606
O O1 0.639752 0.864423 0.377453
O O2 0.576882 0.808461 0.535208
O O3 0.603747 0.000000 0.500000
O O4 0.436335 0.922069 0.419900
O O5 0.807319 0.131675 0.279043
O O6 0.000000 0.197327 0.250000
O O7 0.949844 0.203790 0.433196
O O8 0.990530 0.050220 0.360484
O O9 0.196147 0.236166 0.799178
O O10 0.326080 0.323413 0.914839
O O11 0.149392 0.419311 0.845320
O O12 0.648691 0.418103 0.116798
O O13 0.780700 0.423076 0.278393
O O14 0.000000 0.089488 0.750000
O O15 0.065237 0.121611 0.570613
O O16 0.000000 0.480255 0.250000
#
# Coordination Sequence:
#
# PCOD9318449 Si02
#       7
#     8   8   8   8   8   8   8
#     4  10  23  43  64  92 131 174 223 267 331 401
#     4   9  18  37  65  92 126 166 211 268 336 394
#     4  10  20  40  68 100 129 174 221 268 335 405
#     4  10  22  42  65  92 132 173 220 268 335 402
#     4  11  23  41  63  97 134 169 221 285 336 381
#     4  10  22  41  66  95 131 176 220 274 328 402
#     4  10  21  42  68  95 132 177 215 275 332 399
#
# _framework density 24.568652
#
# number of rings (size 3 to 8) (size 9 to 14) (size 15 to 20)
#    0.000    2.000    1.429    1.286    2.000    5.143 
#    5.143    1.429    0.000    0.000    0.000    0.000 
#    0.000    0.000    0.000    0.000    0.000    0.000 
#
# Total GULP energy -156195.788234 kJ/mol
# GULP energy per Si atom -5578.421008 kJ/mol
# Density = 2.451273 g / cm^3
# Si number density = 24.568652 Si / 1000 Ang^3
#
#
#
# Elastic Constant Matrix: (Units=GPa)
#
#
# Indices 1 2 3 4 5 6 
#
# 1 47.4383 19.5297 0.1144 0.0000 0.0000 0.0000
# 2 19.5297 159.2931 35.6104 0.0000 0.0000 0.0000
# 3 0.1144 35.6104 52.9407 0.0000 0.0000 0.0000
# 4 0.0000 0.0000 0.0000 29.9419 0.0000 0.0000
# 5 0.0000 0.0000 0.0000 0.0000 15.6003 0.0000
# 6 0.0000 0.0000 0.0000 0.0000 0.0000 27.0203
#
#
#
# Elastic Compliance Matrix: (Units=1/GPa)
#
#
# Indices 1 2 3 4 5 6 
#
# 1 0.022400 -0.003220 0.002117 0.000000 0.000000 0.000000
# 2 -0.003220 0.007852 -0.005274 0.000000 0.000000 0.000000
# 3 0.002117 -0.005274 0.022432 0.000000 0.000000 0.000000
# 4 0.000000 0.000000 0.000000 0.033398 0.000000 0.000000
# 5 0.000000 0.000000 0.000000 0.000000 0.064101 0.000000
# 6 0.000000 0.000000 0.000000 0.000000 0.000000 0.037009
#
#
# Mechanical properties :
#
#
# Convention : Reuss Voigt Hill
#
# Bulk Modulus (GPa) = 25.04335 41.13123 33.08729
# Shear Modulus (GPa) = 23.44594 28.14034 25.79314
#
# Velocity S-wave (km/s) = 3.09253 3.38801 3.24364
# Velocity P-wave (km/s) = 4.79239 5.66414 5.24640
#
# Compressibility (1/GPa) = 0.03993077
#
# Stress axis : x y z
#
# Youngs Moduli (GPa) = 44.64203 127.36298 44.57861
#
# Poissons Ratio (x) = 0.41007 -0.09439
# Poissons Ratio (y) = 0.14373 0.23512
# Poissons Ratio (z) = -0.09452 0.67176
#
# Static dielectric constant tensor:
#      x y z
#    x 2.038120 0.000000 0.000000 
#    y 0.000000 1.987650 0.000000 
#    z 0.000000 0.000000 2.004400 
# 
# From -- ./inp_files/20040.got.cif
#   From: 2010.05.17/outbox.cif.g08.bks.cpg/sg20_11_cif.got.tgz:20040.got - 2010.06.03 22:52:26.
