data_PCOD9318186
_publ_section_title
;
Structure prediction by ZEFSAII (Michael W. Deem and Ramdas Pophale) SiO2 
 PCOD9318186
Probable space group: C 2 2 21
;
_chemical_formula_sum "Si O2"
_cell_formula_units_Z 56
_cell_length_a 12.658614
_cell_length_b 9.986838
_cell_length_c 21.017623
_cell_angle_alpha 90.000000
_cell_angle_beta 90.000000
_cell_angle_gamma 90.000000
_cell_volume 2657.037965
_symmetry_space_group_name_H-M "C 2 2 21"
_symmetry_group_IT_number 20
_symmetry_cell_setting 'orthorhombic'
loop_
_space_group_symop_operation_xyz
x,y,z
-x,-y,1/2+z
x,-y,-z
-x,y,1/2-z
1/2+x,1/2+y,z
1/2-x,1/2-y,1/2+z
1/2+x,1/2-y,-z
1/2-x,1/2+y,1/2-z
loop_
_atom_site_type_symbol
_atom_site_label
_atom_site_fract_x
_atom_site_fract_y
_atom_site_fract_z
Si Si1 0.900895 0.688423 0.394226
Si Si2 0.709641 0.072056 0.847135
Si Si3 0.105976 0.317916 0.273215
Si Si4 0.392796 0.486054 0.771339
Si Si5 0.273523 0.548518 0.644186
Si Si6 0.245546 0.354360 0.014386
Si Si7 0.124382 0.610319 0.448006
O O1 0.849020 0.572771 0.349038
O O2 0.859234 0.836785 0.374636
O O3 0.844268 0.667321 0.462288
O O4 0.025250 0.656984 0.404286
O O5 0.674533 0.167290 0.790216
O O6 0.831960 0.048409 0.830368
O O7 0.696028 0.136771 0.915479
O O8 0.167453 0.378725 0.331638
O O9 0.000000 0.389350 0.250000
O O10 0.082237 0.165633 0.290413
O O11 0.500000 0.556893 0.750000
O O12 0.319505 0.481897 0.708464
O O13 0.225895 0.449952 0.590819
O O14 0.331239 0.238291 0.014354
O O15 0.294129 0.500000 0.000000
O O16 0.089751 0.500000 0.500000
#
# Coordination Sequence:
#
# PCOD9318186 Si02
#       7
#     8   8   8   8   8   8   8
#     4  11  23  43  65  96 134 175 224 283 338 400
#     4  10  20  39  61  88 126 168 216 271 334 405
#     4  10  20  38  63  91 124 171 219 271 335 393
#     4  10  22  38  61  90 127 171 216 282 340 399
#     4  11  23  42  64  99 137 172 231 285 327 418
#     4  10  23  44  65  94 132 173 225 278 339 409
#     4  12  24  43  70  99 135 181 230 282 344 405
#
# _framework density 21.0761
#
# number of rings (size 3 to 8) (size 9 to 14) (size 15 to 20)
#    0.000    1.429    2.857    3.000    2.000    0.000 
#    2.571    0.714    0.000    0.000    0.000    0.000 
#    0.000    0.000    0.000    0.000    0.000    0.000 
#
# Total GULP energy -156099.347725 kJ/mol
# GULP energy per Si atom -5574.976704 kJ/mol
# Density = 2.102813 g / cm^3
# Si number density = 21.076100 Si / 1000 Ang^3
#
#
#
# Elastic Constant Matrix: (Units=GPa)
#
#
# Indices 1 2 3 4 5 6 
#
# 1 65.1988 9.5231 -16.5124 0.0000 0.0000 0.0000
# 2 9.5231 77.9873 3.8495 0.0000 0.0000 0.0000
# 3 -16.5124 3.8495 54.0696 0.0000 0.0000 0.0000
# 4 0.0000 0.0000 0.0000 4.1861 0.0000 0.0000
# 5 0.0000 0.0000 0.0000 0.0000 35.9307 0.0000
# 6 0.0000 0.0000 0.0000 0.0000 0.0000 4.8543
#
#
#
# Elastic Compliance Matrix: (Units=1/GPa)
#
#
# Indices 1 2 3 4 5 6 
#
# 1 0.017041 -0.002346 0.005371 0.000000 0.000000 0.000000
# 2 -0.002346 0.013191 -0.001656 0.000000 0.000000 0.000000
# 3 0.005371 -0.001656 0.020253 0.000000 0.000000 0.000000
# 4 0.000000 0.000000 0.000000 0.238885 0.000000 0.000000
# 5 0.000000 0.000000 0.000000 0.000000 0.027831 0.000000
# 6 0.000000 0.000000 0.000000 0.000000 0.000000 0.206002
#
#
# Mechanical properties :
#
#
# Convention : Reuss Voigt Hill
#
# Bulk Modulus (GPa) = 18.78872 21.21956 20.00414
# Shear Modulus (GPa) = 9.29014 22.35392 15.82203
#
# Velocity S-wave (km/s) = 2.10178 3.26026 2.74288
# Velocity P-wave (km/s) = 3.85020 4.92568 4.42077
#
# Compressibility (1/GPa) = 0.05322342
#
# Stress axis : x y z
#
# Youngs Moduli (GPa) = 58.68322 75.81046 49.37577
#
# Poissons Ratio (x) = 0.17785 -0.26520
# Poissons Ratio (y) = 0.13767 0.08174
# Poissons Ratio (z) = -0.31519 0.12551
#
# Static dielectric constant tensor:
#      x y z
#    x 1.850310 0.000000 0.000000 
#    y 0.000000 1.788680 0.000000 
#    z 0.000000 0.000000 1.757750 
# 
# From -- ./inp_files/27590.got.cif
#   From: 2010.05.17/outbox.cif.g08.bks.cpg/sg20_14_cif.got.tgz:27590.got - 2010.06.03 22:52:26.
