data_PCOD9318162
_publ_section_title
;
Structure prediction by ZEFSAII (Michael W. Deem and Ramdas Pophale) SiO2 
 PCOD9318162
Probable space group: C 2 2 21
;
_chemical_formula_sum "Si O2"
_cell_formula_units_Z 48
_cell_length_a 19.312328
_cell_length_b 10.820253
_cell_length_c 11.598932
_cell_angle_alpha 90.000000
_cell_angle_beta 90.000000
_cell_angle_gamma 90.000000
_cell_volume 2423.762416
_symmetry_space_group_name_H-M "C 2 2 21"
_symmetry_group_IT_number 20
_symmetry_cell_setting 'orthorhombic'
loop_
_space_group_symop_operation_xyz
x,y,z
-x,-y,1/2+z
x,-y,-z
-x,y,1/2-z
1/2+x,1/2+y,z
1/2-x,1/2-y,1/2+z
1/2+x,1/2-y,-z
1/2-x,1/2+y,1/2-z
loop_
_atom_site_type_symbol
_atom_site_label
_atom_site_fract_x
_atom_site_fract_y
_atom_site_fract_z
Si Si1 0.452738 0.119529 0.082797
Si Si2 0.997341 0.075526 0.121177
Si Si3 0.585839 0.790567 0.033261
Si Si4 0.134224 0.250549 0.406770
Si Si5 0.279747 0.882560 0.582580
Si Si6 0.619702 0.023469 0.767542
O O1 0.432296 0.069334 0.206139
O O2 0.524685 0.188811 0.059330
O O3 0.389809 0.201711 0.032379
O O4 0.455368 0.000000 0.000000
O O5 0.928434 0.159725 0.127082
O O6 0.000000 0.014119 0.250000
O O7 0.062533 0.168802 0.102446
O O8 0.993710 0.000000 0.000000
O O9 0.587840 0.906838 0.121530
O O10 0.660670 0.795446 0.973501
O O11 0.207934 0.185907 0.402551
O O12 0.135894 0.367369 0.321561
O O13 0.268379 0.000000 0.500000
O O14 0.314010 0.944575 0.694678
#
# Coordination Sequence:
#
# PCOD9318162 Si02
#       6
#     8   8   8   8   8   8
#     4   9  19  33  59  89 114 157 202 254 313 377
#     4  11  23  45  68  94 129 176 221 266 329 391
#     4  10  21  39  62  88 125 156 206 270 317 378
#     4  10  21  40  62  85 130 165 208 267 319 388
#     4  10  22  38  59  91 122 163 211 261 323 385
#     4  10  20  38  62  89 120 163 207 256 327 379
#
# _framework density 19.803920999999999
#
# number of rings (size 3 to 8) (size 9 to 14) (size 15 to 20)
#    0.000    2.000    1.667    2.000    0.000    7.333 
#    9.000    0.833    0.000    0.000    0.000    0.000 
#    0.000    0.000    0.000    0.000    0.000    0.000 
#
# Total GULP energy -133850.905532 kJ/mol
# GULP energy per Si atom -5577.121064 kJ/mol
# Density = 1.975885 g / cm^3
# Si number density = 19.803921 Si / 1000 Ang^3
#
#
#
# Elastic Constant Matrix: (Units=GPa)
#
#
# Indices 1 2 3 4 5 6 
#
# 1 133.0813 46.0099 32.5859 0.0000 0.0000 0.0000
# 2 46.0099 51.8037 33.2993 0.0000 0.0000 0.0000
# 3 32.5859 33.2993 87.4932 0.0000 0.0000 0.0000
# 4 0.0000 0.0000 0.0000 34.7357 0.0000 0.0000
# 5 0.0000 0.0000 0.0000 0.0000 8.3825 0.0000
# 6 0.0000 0.0000 0.0000 0.0000 0.0000 25.1243
#
#
#
# Elastic Compliance Matrix: (Units=1/GPa)
#
#
# Indices 1 2 3 4 5 6 
#
# 1 0.010860 -0.009327 -0.000495 0.000000 0.000000 0.000000
# 2 -0.009327 0.033567 -0.009301 0.000000 0.000000 0.000000
# 3 -0.000495 -0.009301 0.015154 0.000000 0.000000 0.000000
# 4 0.000000 0.000000 0.000000 0.028789 0.000000 0.000000
# 5 0.000000 0.000000 0.000000 0.000000 0.119297 0.000000
# 6 0.000000 0.000000 0.000000 0.000000 0.000000 0.039802
#
#
# Mechanical properties :
#
#
# Convention : Reuss Voigt Hill
#
# Bulk Modulus (GPa) = 46.87466 55.12980 51.00223
# Shear Modulus (GPa) = 17.07495 24.34736 20.71115
#
# Velocity S-wave (km/s) = 2.93951 3.51011 3.23741
# Velocity P-wave (km/s) = 5.93647 6.65779 6.30745
#
# Compressibility (1/GPa) = 0.02133349
#
# Stress axis : x y z
#
# Youngs Moduli (GPa) = 92.08005 29.79129 65.99014
#
# Poissons Ratio (x) = 0.27788 0.03265
# Poissons Ratio (y) = 0.85887 0.61380
# Poissons Ratio (z) = 0.04556 0.27710
#
# Static dielectric constant tensor:
#      x y z
#    x 1.668660 0.000000 0.000000 
#    y 0.000000 1.711620 0.000000 
#    z 0.000000 0.000000 1.756840 
# 
# From -- ./inp_files/15707.got.cif
#   From: 2010.05.17/outbox.cif.g08.bks.cpg/sg20_8_cif.got.tgz:15707.got - 2010.06.03 22:52:26.
