data_PCOD9318920
_publ_section_title
;
Structure prediction by ZEFSAII (Michael W. Deem and Ramdas Pophale) SiO2 
 PCOD9318920
Probable space group: C 2 2 21
;
_chemical_formula_sum "Si O2"
_cell_formula_units_Z 56
_cell_length_a 8.879447
_cell_length_b 14.722669
_cell_length_c 17.612630
_cell_angle_alpha 90.000000
_cell_angle_beta 90.000000
_cell_angle_gamma 90.000000
_cell_volume 2302.484309
_symmetry_space_group_name_H-M "C 2 2 21"
_symmetry_group_IT_number 20
_symmetry_cell_setting 'orthorhombic'
loop_
_space_group_symop_operation_xyz
x,y,z
-x,-y,1/2+z
x,-y,-z
-x,y,1/2-z
1/2+x,1/2+y,z
1/2-x,1/2-y,1/2+z
1/2+x,1/2-y,-z
1/2-x,1/2+y,1/2-z
loop_
_atom_site_type_symbol
_atom_site_label
_atom_site_fract_x
_atom_site_fract_y
_atom_site_fract_z
Si Si1 0.328122 0.687583 0.514853
Si Si2 0.647490 0.622956 0.339550
Si Si3 0.782759 0.562360 0.655724
Si Si4 0.692398 0.405753 0.862971
Si Si5 0.893714 0.555822 0.919508
Si Si6 0.652744 0.350891 0.479647
Si Si7 0.323093 0.252421 0.232408
O O1 0.341614 0.610215 0.451675
O O2 0.187260 0.651490 0.562773
O O3 0.494789 0.692756 0.547559
O O4 0.287464 0.779056 0.471612
O O5 0.739486 0.535093 0.310321
O O6 0.470413 0.606705 0.325955
O O7 0.661117 0.630954 0.430789
O O8 0.724182 0.710617 0.301338
O O9 0.683652 0.569143 0.578360
O O10 0.739683 0.650251 0.705086
O O11 0.953225 0.564645 0.626880
O O12 0.778057 0.500352 0.866362
O O13 0.797765 0.325749 0.831249
O O14 0.921620 0.500000 0.000000
O O15 0.500000 0.260055 0.250000
#
# Coordination Sequence:
#
# PCOD9318920 Si02
#       7
#     8   8   8   8   8   8   8
#     4  10  21  37  70 113 142 183 236 301 369 425
#     4  11  26  47  73 104 145 192 239 305 364 434
#     4  12  25  46  75 109 144 188 244 295 367 435
#     4  10  22  48  69 101 148 187 245 298 361 434
#     4  10  21  40  75 109 146 182 236 305 365 429
#     4  11  22  40  73 107 144 184 242 302 363 431
#     4  12  28  48  70 102 147 197 244 295 361 437
#
# _framework density 24.321556999999999
#
# number of rings (size 3 to 8) (size 9 to 14) (size 15 to 20)
#    0.000    1.143    1.429    4.286    4.000    5.714 
#    2.571    1.429    0.000    0.000    0.000    0.000 
#    0.000    0.000    0.000    0.000    0.000    0.000 
#
# Total GULP energy -156563.457115 kJ/mol
# GULP energy per Si atom -5591.552040 kJ/mol
# Density = 2.426620 g / cm^3
# Si number density = 24.321557 Si / 1000 Ang^3
#
#
#
# Elastic Constant Matrix: (Units=GPa)
#
#
# Indices 1 2 3 4 5 6 
#
# 1 166.6786 32.4096 35.5778 0.0000 0.0000 0.0000
# 2 32.4096 109.9593 39.7153 0.0000 0.0000 0.0000
# 3 35.5778 39.7153 92.0816 0.0000 0.0000 0.0000
# 4 0.0000 0.0000 0.0000 35.8871 0.0000 0.0000
# 5 0.0000 0.0000 0.0000 0.0000 32.7470 0.0000
# 6 0.0000 0.0000 0.0000 0.0000 0.0000 33.5135
#
#
#
# Elastic Compliance Matrix: (Units=1/GPa)
#
#
# Indices 1 2 3 4 5 6 
#
# 1 0.006676 -0.001227 -0.002050 0.000000 0.000000 0.000000
# 2 -0.001227 0.010998 -0.004269 0.000000 0.000000 0.000000
# 3 -0.002050 -0.004269 0.013493 0.000000 0.000000 0.000000
# 4 0.000000 0.000000 0.000000 0.027865 0.000000 0.000000
# 5 0.000000 0.000000 0.000000 0.000000 0.030537 0.000000
# 6 0.000000 0.000000 0.000000 0.000000 0.000000 0.029839
#
#
# Mechanical properties :
#
#
# Convention : Reuss Voigt Hill
#
# Bulk Modulus (GPa) = 62.21218 64.90276 63.55747
# Shear Modulus (GPa) = 35.75021 37.83065 36.79043
#
# Velocity S-wave (km/s) = 3.83808 3.94818 3.89352
# Velocity P-wave (km/s) = 6.72873 6.89401 6.81187
#
# Compressibility (1/GPa) = 0.01607402
#
# Stress axis : x y z
#
# Youngs Moduli (GPa) = 149.79540 90.92577 74.11034
#
# Poissons Ratio (x) = 0.11158 0.15193
# Poissons Ratio (y) = 0.18383 0.31640
# Poissons Ratio (z) = 0.30709 0.38819
#
# Static dielectric constant tensor:
#      x y z
#    x 1.913100 0.000000 0.000000 
#    y 0.000000 1.862820 0.000000 
#    z 0.000000 0.000000 2.030550 
# 
# From -- ./inp_files/26753.got.cif
#   From: 2010.05.17/outbox.cif.g08.bks.cpg/sg20_14_cif.got.tgz:26753.got - 2010.06.03 22:52:26.
