data_PCOD9318438
_publ_section_title
;
Structure prediction by ZEFSAII (Michael W. Deem and Ramdas Pophale) SiO2 
 PCOD9318438
Probable space group: C 2 2 21
;
_chemical_formula_sum "Si O2"
_cell_formula_units_Z 56
_cell_length_a 9.634160
_cell_length_b 19.408884
_cell_length_c 14.365625
_cell_angle_alpha 90.000000
_cell_angle_beta 90.000000
_cell_angle_gamma 90.000000
_cell_volume 2686.203709
_symmetry_space_group_name_H-M "C 2 2 21"
_symmetry_group_IT_number 20
_symmetry_cell_setting 'orthorhombic'
loop_
_space_group_symop_operation_xyz
x,y,z
-x,-y,1/2+z
x,-y,-z
-x,y,1/2-z
1/2+x,1/2+y,z
1/2-x,1/2-y,1/2+z
1/2+x,1/2-y,-z
1/2-x,1/2+y,1/2-z
loop_
_atom_site_type_symbol
_atom_site_label
_atom_site_fract_x
_atom_site_fract_y
_atom_site_fract_z
Si Si1 0.906414 0.373124 0.660442
Si Si2 0.310064 0.840450 0.328908
Si Si3 0.244797 0.741510 0.657714
Si Si4 0.031139 0.692386 0.519114
Si Si5 0.271269 0.503500 0.788558
Si Si6 0.505413 0.319665 0.401444
Si Si7 0.057506 0.980122 0.105621
O O1 0.771632 0.322762 0.650588
O O2 0.003736 0.355215 0.571318
O O3 0.843570 0.449058 0.677445
O O4 0.000000 0.357142 0.750000
O O5 0.336618 0.786793 0.246033
O O6 0.431525 0.837674 0.402806
O O7 0.166817 0.817864 0.377775
O O8 0.285679 0.918412 0.294527
O O9 0.400568 0.714129 0.671222
O O10 0.179632 0.705049 0.566952
O O11 0.986175 0.770032 0.490172
O O12 0.330453 0.496062 0.682984
O O13 0.406385 0.496298 0.855700
O O14 0.457579 0.397873 0.400575
O O15 0.087908 0.000000 0.000000
#
# Coordination Sequence:
#
# PCOD9318438 Si02
#       7
#     8   8   8   8   8   8   8
#     4  11  26  45  67  97 144 186 229 297 362 417
#     4  11  22  43  69  96 138 183 224 293 351 420
#     4  11  22  41  68  96 131 180 236 282 341 414
#     4  11  25  39  65 103 131 178 231 283 351 417
#     4  10  24  44  65 103 138 184 239 279 367 427
#     4  10  20  40  66  92 133 172 233 279 342 410
#     4  10  22  39  71 100 132 184 234 290 343 415
#
# _framework density 20.847265
#
# number of rings (size 3 to 8) (size 9 to 14) (size 15 to 20)
#    0.000    1.429    1.429    4.286    6.000    3.429 
#    2.571    0.000    0.000    0.000    0.000    0.000 
#    0.000    0.000    0.000    0.000    0.000    0.000 
#
# Total GULP energy -156140.960700 kJ/mol
# GULP energy per Si atom -5576.462882 kJ/mol
# Density = 2.079982 g / cm^3
# Si number density = 20.847265 Si / 1000 Ang^3
#
#
#
# Elastic Constant Matrix: (Units=GPa)
#
#
# Indices 1 2 3 4 5 6 
#
# 1 73.2623 20.9851 27.7914 0.0000 0.0000 0.0000
# 2 20.9851 62.1221 17.4467 0.0000 0.0000 0.0000
# 3 27.7914 17.4467 118.5399 0.0000 0.0000 0.0000
# 4 0.0000 0.0000 0.0000 -0.0691 0.0000 0.0000
# 5 0.0000 0.0000 0.0000 0.0000 32.6862 0.0000
# 6 0.0000 0.0000 0.0000 0.0000 0.0000 40.9233
#
#
#
# Elastic Compliance Matrix: (Units=1/GPa)
#
#
# Indices 1 2 3 4 5 6 
#
# 1 0.016141 -0.004579 -0.003110 0.000000 0.000000 0.000000
# 2 -0.004579 0.018090 -0.001589 0.000000 0.000000 0.000000
# 3 -0.003110 -0.001589 0.009399 0.000000 0.000000 0.000000
# 4 0.000000 0.000000 0.000000-14.474275 0.000000 0.000000
# 5 0.000000 0.000000 0.000000 0.000000 0.030594 0.000000
# 6 0.000000 0.000000 0.000000 0.000000 0.000000 0.024436
#
#
# Mechanical properties :
#
#
# Convention : Reuss Voigt Hill
#
# Bulk Modulus (GPa) = 39.88212 42.93007 41.40609
# Shear Modulus (GPa) = -0.34846 27.22148 13.43651
#
# Velocity S-wave (km/s) = -0.40928 3.61745 2.54150
# Velocity P-wave (km/s) = 4.35302 6.17133 5.34013
#
# Compressibility (1/GPa) = 0.02507389
#
# Stress axis : x y z
#
# Youngs Moduli (GPa) = 61.95391 55.27797 106.39375
#
# Poissons Ratio (x) = 0.25312 0.33092
# Poissons Ratio (y) = 0.28369 0.16906
# Poissons Ratio (z) = 0.19269 0.08784
#
# Static dielectric constant tensor:
#      x y z
#    x 1.777750 0.000000 0.000000 
#    y 0.000000 1.880540 0.000000 
#    z 0.000000 0.000000 1.778530 
# 
# From -- ./inp_files/19178.got.cif
#   From: 2010.05.17/outbox.cif.g08.bks.cpg/sg20_10_cif.got.tgz:19178.got - 2010.06.03 22:52:26.
