data_PCOD9318399
_publ_section_title
;
Structure prediction by ZEFSAII (Michael W. Deem and Ramdas Pophale) SiO2 
 PCOD9318399
Probable space group: C 2 2 21
;
_chemical_formula_sum "Si O2"
_cell_formula_units_Z 64
_cell_length_a 21.491956
_cell_length_b 18.519191
_cell_length_c 8.061366
_cell_angle_alpha 90.000000
_cell_angle_beta 90.000000
_cell_angle_gamma 90.000000
_cell_volume 3208.533610
_symmetry_space_group_name_H-M "C 2 2 21"
_symmetry_group_IT_number 20
_symmetry_cell_setting 'orthorhombic'
loop_
_space_group_symop_operation_xyz
x,y,z
-x,-y,1/2+z
x,-y,-z
-x,y,1/2-z
1/2+x,1/2+y,z
1/2-x,1/2-y,1/2+z
1/2+x,1/2-y,-z
1/2-x,1/2+y,1/2-z
loop_
_atom_site_type_symbol
_atom_site_label
_atom_site_fract_x
_atom_site_fract_y
_atom_site_fract_z
Si Si1 0.719105 0.979482 0.308070
Si Si2 0.935180 0.234447 0.303483
Si Si3 0.221749 0.360117 0.775759
Si Si4 0.634282 0.478393 0.193301
Si Si5 0.814691 0.333023 0.345135
Si Si6 0.184334 0.778981 0.327881
Si Si7 0.856402 0.125906 0.134018
Si Si8 0.564508 0.331763 0.160853
O O1 0.681968 0.913210 0.230344
O O2 0.708883 0.000000 0.500000
O O3 0.705569 0.055573 0.220872
O O4 0.792444 0.959470 0.287025
O O5 0.877838 0.289345 0.318128
O O6 0.914488 0.176252 0.167782
O O7 0.942656 0.186506 0.468299
O O8 0.000000 0.269268 0.250000
O O9 0.191304 0.307150 0.639419
O O10 0.296594 0.360766 0.746342
O O11 0.201754 0.332642 0.958291
O O12 0.625208 0.543838 0.324086
O O13 0.586466 0.412605 0.209436
O O14 0.627996 0.500000 0.000000
O O15 0.753398 0.296982 0.260423
O O16 0.170547 0.840740 0.464662
O O17 0.124246 0.785245 0.213904
O O18 0.500000 0.314229 0.250000
#
# Coordination Sequence:
#
# PCOD9318399 Si02
#       8
#     8   8   8   8   8   8   8   8
#     4  10  22  36  65 101 131 160 215 281 336 402
#     4  12  25  42  64  92 129 175 228 277 335 396
#     4  10  21  37  64  97 132 170 212 272 339 404
#     4  10  20  40  63  91 137 178 217 265 328 400
#     4  11  22  40  66  93 134 171 215 279 346 398
#     4  11  22  39  66 101 127 171 226 273 334 400
#     4  10  22  37  63  98 131 171 221 272 323 395
#     4  12  25  44  63  92 136 182 225 274 325 397
#
# _framework density 19.946805999999999
#
# number of rings (size 3 to 8) (size 9 to 14) (size 15 to 20)
#    0.000    1.250    5.000    1.125    1.750    1.000 
#    2.250    0.000    0.000    2.250    0.000    0.000 
#    0.000    0.000    0.000    0.000    0.000    0.000 
#
# Total GULP energy -178337.673080 kJ/mol
# GULP energy per Si atom -5573.052284 kJ/mol
# Density = 1.990141 g / cm^3
# Si number density = 19.946806 Si / 1000 Ang^3
#
#
#
# Elastic Constant Matrix: (Units=GPa)
#
#
# Indices 1 2 3 4 5 6 
#
# 1 129.7617 50.0198 33.6788 0.0000 0.0000 0.0000
# 2 50.0198 114.1969 22.0358 0.0000 0.0000 0.0000
# 3 33.6788 22.0358 46.9408 0.0000 0.0000 0.0000
# 4 0.0000 0.0000 0.0000 27.0282 0.0000 0.0000
# 5 0.0000 0.0000 0.0000 0.0000 21.9337 0.0000
# 6 0.0000 0.0000 0.0000 0.0000 0.0000 22.4880
#
#
#
# Elastic Compliance Matrix: (Units=1/GPa)
#
#
# Indices 1 2 3 4 5 6 
#
# 1 0.010601 -0.003492 -0.005967 0.000000 0.000000 0.000000
# 2 -0.003492 0.010779 -0.002555 0.000000 0.000000 0.000000
# 3 -0.005967 -0.002555 0.026784 0.000000 0.000000 0.000000
# 4 0.000000 0.000000 0.000000 0.036998 0.000000 0.000000
# 5 0.000000 0.000000 0.000000 0.000000 0.045592 0.000000
# 6 0.000000 0.000000 0.000000 0.000000 0.000000 0.044468
#
#
# Mechanical properties :
#
#
# Convention : Reuss Voigt Hill
#
# Bulk Modulus (GPa) = 41.43006 55.81871 48.62438
# Shear Modulus (GPa) = 24.12011 26.63430 25.37721
#
# Velocity S-wave (km/s) = 3.48116 3.65809 3.57072
# Velocity P-wave (km/s) = 6.08057 6.77397 6.43662
#
# Compressibility (1/GPa) = 0.02413707
#
# Stress axis : x y z
#
# Youngs Moduli (GPa) = 94.32911 92.76984 37.33607
#
# Poissons Ratio (x) = 0.32396 0.22278
# Poissons Ratio (y) = 0.32941 0.09538
# Poissons Ratio (z) = 0.56284 0.23700
#
# Static dielectric constant tensor:
#      x y z
#    x 1.688010 0.000000 0.000000 
#    y 0.000000 1.767350 0.000000 
#    z 0.000000 0.000000 1.800590 
# 
# From -- ./inp_files/10334.got.cif
#   From: 2010.05.17/outbox.cif.g08.bks.cpg/sg20_6_cif.got.tgz:10334.got - 2010.06.03 22:52:26.
