data_PCOD9318528
_publ_section_title
;
Structure prediction by ZEFSAII (Michael W. Deem and Ramdas Pophale) SiO2 
 PCOD9318528
Probable space group: C 2 2 21
;
_chemical_formula_sum "Si O2"
_cell_formula_units_Z 48
_cell_length_a 10.472693
_cell_length_b 16.423066
_cell_length_c 12.313023
_cell_angle_alpha 90.000000
_cell_angle_beta 90.000000
_cell_angle_gamma 90.000000
_cell_volume 2117.762733
_symmetry_space_group_name_H-M "C 2 2 21"
_symmetry_group_IT_number 20
_symmetry_cell_setting 'orthorhombic'
loop_
_space_group_symop_operation_xyz
x,y,z
-x,-y,1/2+z
x,-y,-z
-x,y,1/2-z
1/2+x,1/2+y,z
1/2-x,1/2-y,1/2+z
1/2+x,1/2-y,-z
1/2-x,1/2+y,1/2-z
loop_
_atom_site_type_symbol
_atom_site_label
_atom_site_fract_x
_atom_site_fract_y
_atom_site_fract_z
Si Si1 0.500000 0.456874 0.250000
Si Si2 0.158525 0.098839 0.144967
Si Si3 0.546343 0.230137 0.870379
Si Si4 0.022206 0.500000 0.000000
Si Si5 0.365435 0.058616 0.307714
Si Si6 0.244826 0.121243 0.701646
Si Si7 0.833905 0.373284 0.063182
O O1 0.581314 0.516309 0.170554
O O2 0.401491 0.402201 0.182168
O O3 0.063773 0.173954 0.132241
O O4 0.254093 0.107856 0.248186
O O5 0.246965 0.103242 0.038512
O O6 0.500000 0.203105 0.750000
O O7 0.684878 0.186794 0.873838
O O8 0.436596 0.199163 0.950728
O O9 0.105577 0.565313 0.064797
O O10 0.927433 0.451102 0.079273
O O11 0.500000 0.075196 0.250000
O O12 0.321565 0.964020 0.304162
O O13 0.253530 0.145441 0.829220
#
# Coordination Sequence:
#
# PCOD9318528 Si02
#       7
#     4   8   8   4   8   8   8
#     4  10  22  40  64  96 130 174 212 272 350 398
#     4  11  23  42  64  94 141 179 219 283 355 402
#     4  10  21  44  65  91 133 181 223 279 337 408
#     4  12  18  36  62 102 116 158 236 282 320 406
#     4  11  19  35  63  93 128 167 224 283 332 394
#     4  10  20  41  65  91 126 171 216 274 339 407
#     4  11  21  38  71  92 125 175 234 275 335 410
#
# _framework density 22.665427999999999
#
# number of rings (size 3 to 8) (size 9 to 14) (size 15 to 20)
#    0.000    1.333    5.833    1.500    0.000    0.000 
#   10.500    6.667    0.000    0.000    0.000    0.000 
#    0.000    0.000    0.000    0.000    0.000    0.000 
#
# Total GULP energy -133893.455536 kJ/mol
# GULP energy per Si atom -5578.893981 kJ/mol
# Density = 2.261384 g / cm^3
# Si number density = 22.665428 Si / 1000 Ang^3
#
#
#
# Elastic Constant Matrix: (Units=GPa)
#
#
# Indices 1 2 3 4 5 6 
#
# 1 111.1908 8.1111 18.5069 0.0000 0.0000 0.0000
# 2 8.1111 40.8123 -15.3894 0.0000 0.0000 0.0000
# 3 18.5069 -15.3894 79.7235 0.0000 0.0000 0.0000
# 4 0.0000 0.0000 0.0000 13.5233 0.0000 0.0000
# 5 0.0000 0.0000 0.0000 0.0000 37.3902 0.0000
# 6 0.0000 0.0000 0.0000 0.0000 0.0000 36.6726
#
#
#
# Elastic Compliance Matrix: (Units=1/GPa)
#
#
# Indices 1 2 3 4 5 6 
#
# 1 0.009682 -0.002989 -0.002825 0.000000 0.000000 0.000000
# 2 -0.002989 0.027349 0.005973 0.000000 0.000000 0.000000
# 3 -0.002825 0.005973 0.014352 0.000000 0.000000 0.000000
# 4 0.000000 0.000000 0.000000 0.073946 0.000000 0.000000
# 5 0.000000 0.000000 0.000000 0.000000 0.026745 0.000000
# 6 0.000000 0.000000 0.000000 0.000000 0.000000 0.027268
#
#
# Mechanical properties :
#
#
# Convention : Reuss Voigt Hill
#
# Bulk Modulus (GPa) = 19.34181 28.24266 23.79223
# Shear Modulus (GPa) = 25.47675 32.21710 28.84693
#
# Velocity S-wave (km/s) = 3.35630 3.77426 3.57140
# Velocity P-wave (km/s) = 4.85508 5.61081 5.24657
#
# Compressibility (1/GPa) = 0.05170148
#
# Stress axis : x y z
#
# Youngs Moduli (GPa) = 103.28734 36.56461 69.67645
#
# Poissons Ratio (x) = 0.10930 0.19680
# Poissons Ratio (y) = 0.30875 -0.41619
# Poissons Ratio (z) = 0.29174 -0.21841
#
# Static dielectric constant tensor:
#      x y z
#    x 1.901660 0.000000 0.000000 
#    y 0.000000 1.838680 0.000000 
#    z 0.000000 0.000000 1.942790 
# 
# From -- ./inp_files/14190.got.cif
#   From: 2010.05.17/outbox.cif.g08.bks.cpg/sg20_8_cif.got.tgz:14190.got - 2010.06.03 22:52:26.
