data_PCOD9318573
_publ_section_title
;
Structure prediction by ZEFSAII (Michael W. Deem and Ramdas Pophale) SiO2 
 PCOD9318573
Probable space group: C 2 2 21
;
_chemical_formula_sum "Si O2"
_cell_formula_units_Z 52
_cell_length_a 29.709930
_cell_length_b 5.081886
_cell_length_c 15.890763
_cell_angle_alpha 90.000000
_cell_angle_beta 90.000000
_cell_angle_gamma 90.000000
_cell_volume 2399.226764
_symmetry_space_group_name_H-M "C 2 2 21"
_symmetry_group_IT_number 20
_symmetry_cell_setting 'orthorhombic'
loop_
_space_group_symop_operation_xyz
x,y,z
-x,-y,1/2+z
x,-y,-z
-x,y,1/2-z
1/2+x,1/2+y,z
1/2-x,1/2-y,1/2+z
1/2+x,1/2-y,-z
1/2-x,1/2+y,1/2-z
loop_
_atom_site_type_symbol
_atom_site_label
_atom_site_fract_x
_atom_site_fract_y
_atom_site_fract_z
Si Si1 0.398268 0.703783 0.765140
Si Si2 0.885649 0.066628 0.404212
Si Si3 0.956185 0.706166 0.803767
Si Si4 0.300036 0.159257 0.187546
Si Si5 0.801954 0.000000 0.500000
Si Si6 0.749780 0.838153 0.866490
Si Si7 0.975277 0.256067 0.443315
O O1 0.385382 0.653971 0.667006
O O2 0.419159 0.433555 0.799239
O O3 0.352466 0.777552 0.812067
O O4 0.434697 0.931850 0.775534
O O5 0.834072 0.141505 0.427713
O O6 0.930914 0.227560 0.382972
O O7 0.898469 0.000000 0.500000
O O8 0.979251 0.678013 0.894363
O O9 0.000000 0.786998 0.750000
O O10 0.282615 0.175721 0.284351
O O11 0.271177 0.371700 0.134320
O O12 0.289301 0.869477 0.154544
O O13 0.774922 0.219246 0.551901
O O14 0.962593 0.500000 0.500000
O O15 0.984802 0.000000 0.500000
#
# Coordination Sequence:
#
# PCOD9318573 Si02
#       7
#     8   8   8   8   4   8   8
#     4  12  23  43  65  97 130 177 220 273 321 398
#     4   9  21  38  63 100 134 162 205 263 338 402
#     4  12  26  39  69  99 134 169 228 271 328 385
#     4  10  21  41  63  90 121 172 207 259 310 391
#     4  10  20  42  64 106 124 168 200 280 334 406
#     4  10  21  39  64  92 126 157 211 256 327 384
#     4  11  24  45  65  93 133 178 217 272 339 393
#
# _framework density 21.673649000000001
#
# number of rings (size 3 to 8) (size 9 to 14) (size 15 to 20)
#    0.462    0.923    3.077    2.308    4.308    0.615 
#    2.769    0.000   16.923    0.000    0.000    0.000 
#    0.000    0.000    0.000    0.000    0.000    0.000 
#
# Total GULP energy -144946.678986 kJ/mol
# GULP energy per Si atom -5574.872269 kJ/mol
# Density = 2.162432 g / cm^3
# Si number density = 21.673649 Si / 1000 Ang^3
#
#
#
# Elastic Constant Matrix: (Units=GPa)
#
#
# Indices 1 2 3 4 5 6 
#
# 1 82.3750 -10.2941 19.8528 0.0000 0.0000 0.0000
# 2 -10.2941 61.6415 4.5853 0.0000 0.0000 0.0000
# 3 19.8528 4.5853 50.2115 0.0000 0.0000 0.0000
# 4 0.0000 0.0000 0.0000 21.0134 0.0000 0.0000
# 5 0.0000 0.0000 0.0000 0.0000 33.1649 0.0000
# 6 0.0000 0.0000 0.0000 0.0000 0.0000 10.3626
#
#
#
# Elastic Compliance Matrix: (Units=1/GPa)
#
#
# Indices 1 2 3 4 5 6 
#
# 1 0.013864 0.002742 -0.005732 0.000000 0.000000 0.000000
# 2 0.002742 0.016876 -0.002625 0.000000 0.000000 0.000000
# 3 -0.005732 -0.002625 0.022422 0.000000 0.000000 0.000000
# 4 0.000000 0.000000 0.000000 0.047589 0.000000 0.000000
# 5 0.000000 0.000000 0.000000 0.000000 0.030152 0.000000
# 6 0.000000 0.000000 0.000000 0.000000 0.000000 0.096501
#
#
# Mechanical properties :
#
#
# Convention : Reuss Voigt Hill
#
# Bulk Modulus (GPa) = 23.84888 24.72400 24.28644
# Shear Modulus (GPa) = 19.79328 24.91378 22.35353
#
# Velocity S-wave (km/s) = 3.02527 3.39410 3.21498
# Velocity P-wave (km/s) = 4.81980 5.17610 5.00113
#
# Compressibility (1/GPa) = 0.04193070
#
# Stress axis : x y z
#
# Youngs Moduli (GPa) = 72.13123 59.25586 44.59957
#
# Poissons Ratio (x) = -0.16246 0.25564
# Poissons Ratio (y) = -0.19775 0.11708
# Poissons Ratio (z) = 0.41344 0.15555
#
# Static dielectric constant tensor:
#      x y z
#    x 1.864870 0.000000 0.000000 
#    y 0.000000 1.807720 0.000000 
#    z 0.000000 0.000000 1.911230 
# 
# From -- ./inp_files/25670.got.cif
#   From: 2010.05.17/outbox.cif.g08.bks.cpg/sg20_13_cif.got.tgz:25670.got - 2010.06.03 22:52:26.
