data_PCOD9318100
_publ_section_title
;
Structure prediction by ZEFSAII (Michael W. Deem and Ramdas Pophale) SiO2 
 PCOD9318100
Probable space group: C 2 2 21
;
_chemical_formula_sum "Si O2"
_cell_formula_units_Z 56
_cell_length_a 14.692158
_cell_length_b 19.534727
_cell_length_c 9.813487
_cell_angle_alpha 90.000000
_cell_angle_beta 90.000000
_cell_angle_gamma 90.000000
_cell_volume 2816.542364
_symmetry_space_group_name_H-M "C 2 2 21"
_symmetry_group_IT_number 20
_symmetry_cell_setting 'orthorhombic'
loop_
_space_group_symop_operation_xyz
x,y,z
-x,-y,1/2+z
x,-y,-z
-x,y,1/2-z
1/2+x,1/2+y,z
1/2-x,1/2-y,1/2+z
1/2+x,1/2-y,-z
1/2-x,1/2+y,1/2-z
loop_
_atom_site_type_symbol
_atom_site_label
_atom_site_fract_x
_atom_site_fract_y
_atom_site_fract_z
Si Si1 0.631408 0.092371 0.853553
Si Si2 0.746430 0.345517 0.133186
Si Si3 0.000000 0.712411 0.750000
Si Si4 0.667612 0.065351 0.403098
Si Si5 0.391713 0.253296 0.252475
Si Si6 0.634948 0.280984 0.564505
Si Si7 0.500000 0.973478 0.750000
Si Si8 0.282179 0.119941 0.361216
O O1 0.715281 0.104282 0.749509
O O2 0.568586 0.159295 0.824480
O O3 0.570710 0.026204 0.819796
O O4 0.668659 0.092588 0.005105
O O5 0.644824 0.317947 0.157939
O O6 0.801833 0.274873 0.139385
O O7 0.782173 0.377099 0.992086
O O8 0.960204 0.761687 0.867045
O O9 0.560761 0.070055 0.356880
O O10 0.719798 0.065762 0.260325
O O11 0.671181 0.000000 0.500000
O O12 0.500000 0.246730 0.250000
O O13 0.344481 0.183417 0.305609
O O14 0.362548 0.268556 0.096630
O O15 0.682956 0.351981 0.600423
#
# Coordination Sequence:
#
# PCOD9318100 Si02
#       8
#     8   8   4   8   8   8   4   8
#     4  10  20  38  58  88 126 175 204 253 304 376
#     4  10  21  41  57  86 134 165 209 261 323 371
#     4   9  20  32  64  88 132 156 207 264 316 362
#     4  12  26  40  59  92 126 172 209 253 314 379
#     4  11  22  36  65  95 125 165 221 268 321 380
#     4  10  20  38  57  92 122 173 205 255 320 381
#     4  11  26  38  64  90 128 172 217 244 300 398
#     4  11  24  36  62  87 134 167 208 257 314 384
#
# _framework density 19.882535000000001
#
# number of rings (size 3 to 8) (size 9 to 14) (size 15 to 20)
#    0.000    1.429    4.286    0.857    3.000    1.143 
#    0.000    0.000    0.000    0.000    5.571    0.000 
#    0.000    0.000    0.000    0.000    0.000    0.000 
#
# Total GULP energy -156128.064876 kJ/mol
# GULP energy per Si atom -5576.002317 kJ/mol
# Density = 1.983728 g / cm^3
# Si number density = 19.882535 Si / 1000 Ang^3
#
#
#
# Elastic Constant Matrix: (Units=GPa)
#
#
# Indices 1 2 3 4 5 6 
#
# 1 54.3968 26.1191 11.4888 0.0000 0.0000 0.0000
# 2 26.1191 52.6377 28.4390 0.0000 0.0000 0.0000
# 3 11.4888 28.4390 122.5292 0.0000 0.0000 0.0000
# 4 0.0000 0.0000 0.0000 31.1660 0.0000 0.0000
# 5 0.0000 0.0000 0.0000 0.0000 34.9740 0.0000
# 6 0.0000 0.0000 0.0000 0.0000 0.0000 37.7793
#
#
#
# Elastic Compliance Matrix: (Units=1/GPa)
#
#
# Indices 1 2 3 4 5 6 
#
# 1 0.024171 -0.012313 0.000592 0.000000 0.000000 0.000000
# 2 -0.012313 0.027994 -0.005343 0.000000 0.000000 0.000000
# 3 0.000592 -0.005343 0.009346 0.000000 0.000000 0.000000
# 4 0.000000 0.000000 0.000000 0.032086 0.000000 0.000000
# 5 0.000000 0.000000 0.000000 0.000000 0.028593 0.000000
# 6 0.000000 0.000000 0.000000 0.000000 0.000000 0.026469
#
#
# Mechanical properties :
#
#
# Convention : Reuss Voigt Hill
#
# Bulk Modulus (GPa) = 36.52059 40.18415 38.35237
# Shear Modulus (GPa) = 26.05303 31.68498 28.86901
#
# Velocity S-wave (km/s) = 3.62380 3.99633 3.81462
# Velocity P-wave (km/s) = 5.99310 6.44584 6.22359
#
# Compressibility (1/GPa) = 0.02738181
#
# Stress axis : x y z
#
# Youngs Moduli (GPa) = 41.37216 35.72145 106.99820
#
# Poissons Ratio (x) = 0.43985 -0.06330
# Poissons Ratio (y) = 0.50943 0.57169
# Poissons Ratio (z) = -0.02447 0.19086
#
# Static dielectric constant tensor:
#      x y z
#    x 1.757940 0.000000 0.000000 
#    y 0.000000 1.753350 0.000000 
#    z 0.000000 0.000000 1.731630 
# 
# From -- ./inp_files/8777.got.cif
#   From: 2010.05.17/outbox.cif.g08.bks.cpg/sg20_5_cif.got.tgz:8777.got - 2010.06.03 22:52:26.
