data_PCOD9318271
_publ_section_title
;
Structure prediction by ZEFSAII (Michael W. Deem and Ramdas Pophale) SiO2 
 PCOD9318271
Probable space group: C 2 2 21
;
_chemical_formula_sum "Si O2"
_cell_formula_units_Z 32
_cell_length_a 17.443291
_cell_length_b 7.277446
_cell_length_c 9.943337
_cell_angle_alpha 90.000000
_cell_angle_beta 90.000000
_cell_angle_gamma 90.000000
_cell_volume 1262.233134
_symmetry_space_group_name_H-M "C 2 2 21"
_symmetry_group_IT_number 20
_symmetry_cell_setting 'orthorhombic'
loop_
_space_group_symop_operation_xyz
x,y,z
-x,-y,1/2+z
x,-y,-z
-x,y,1/2-z
1/2+x,1/2+y,z
1/2-x,1/2-y,1/2+z
1/2+x,1/2-y,-z
1/2-x,1/2+y,1/2-z
loop_
_atom_site_type_symbol
_atom_site_label
_atom_site_fract_x
_atom_site_fract_y
_atom_site_fract_z
Si Si1 0.875025 0.256966 0.812835
Si Si2 0.261106 0.587172 0.183985
Si Si3 0.519273 0.292826 0.049461
Si Si4 0.830280 0.211560 0.446852
O O1 0.818505 0.420538 0.771209
O O2 0.929694 0.206817 0.686265
O O3 0.936540 0.294541 0.928487
O O4 0.820214 0.080232 0.838087
O O5 0.307392 0.707167 0.292459
O O6 0.227146 0.684958 0.050122
O O7 0.503731 0.500000 0.000000
O O8 0.583425 0.210244 0.951756
O O9 0.830313 0.000000 0.500000
#
# Coordination Sequence:
#
# PCOD9318271 Si02
#       4
#     8   8   8   8
#     4  10  21  33  61  89 114 162 202 249 313 366
#     4  11  20  37  58  94 121 160 202 262 311 360
#     4   9  17  36  54  82 120 156 200 252 293 362
#     4  10  20  39  57  88 130 155 205 266 303 363
#
# _framework density 25.351893
#
# number of rings (size 3 to 8) (size 9 to 14) (size 15 to 20)
#    0.000    2.000    7.500    0.000    3.500    0.000 
#    0.000    0.000    0.000   12.000   26.000    0.000 
#    0.000    0.000    0.000    0.000    0.000    0.000 
#
# Total GULP energy -89112.093498 kJ/mol
# GULP energy per Si atom -5569.505844 kJ/mol
# Density = 2.529419 g / cm^3
# Si number density = 25.351893 Si / 1000 Ang^3
#
#
#
# Elastic Constant Matrix: (Units=GPa)
#
#
# Indices 1 2 3 4 5 6 
#
# 1 219.6963 63.4692 59.6453 0.0000 0.0000 0.0000
# 2 63.4692 121.0514 23.5337 0.0000 0.0000 0.0000
# 3 59.6453 23.5337 63.3441 0.0000 0.0000 0.0000
# 4 0.0000 0.0000 0.0000 20.1003 0.0000 0.0000
# 5 0.0000 0.0000 0.0000 0.0000 16.7151 0.0000
# 6 0.0000 0.0000 0.0000 0.0000 0.0000 13.5330
#
#
#
# Elastic Compliance Matrix: (Units=1/GPa)
#
#
# Indices 1 2 3 4 5 6 
#
# 1 0.006741 -0.002480 -0.005426 0.000000 0.000000 0.000000
# 2 -0.002480 0.009816 -0.001312 0.000000 0.000000 0.000000
# 3 -0.005426 -0.001312 0.021384 0.000000 0.000000 0.000000
# 4 0.000000 0.000000 0.000000 0.049751 0.000000 0.000000
# 5 0.000000 0.000000 0.000000 0.000000 0.059826 0.000000
# 6 0.000000 0.000000 0.000000 0.000000 0.000000 0.073894
#
#
# Mechanical properties :
#
#
# Convention : Reuss Voigt Hill
#
# Bulk Modulus (GPa) = 51.26886 77.48756 64.37821
# Shear Modulus (GPa) = 20.29637 27.23258 23.76448
#
# Velocity S-wave (km/s) = 2.83253 3.28103 3.06500
# Velocity P-wave (km/s) = 5.56457 6.70706 6.16235
#
# Compressibility (1/GPa) = 0.01950502
#
# Stress axis : x y z
#
# Youngs Moduli (GPa) = 148.33904 101.87305 46.76430
#
# Poissons Ratio (x) = 0.25261 0.25376
# Poissons Ratio (y) = 0.36782 0.06136
# Poissons Ratio (z) = 0.80495 0.13366
#
# Static dielectric constant tensor:
#      x y z
#    x 2.123980 0.000000 0.000000 
#    y 0.000000 2.051570 0.000000 
#    z 0.000000 0.000000 2.111190 
# 
# From -- ./inp_files/14651.got.cif
#   From: 2010.05.17/outbox.cif.g08.bks.cpg/sg20_8_cif.got.tgz:14651.got - 2010.06.03 22:52:26.
