data_PCOD9318343
_publ_section_title
;
Structure prediction by ZEFSAII (Michael W. Deem and Ramdas Pophale) SiO2 
 PCOD9318343
Probable space group: C 2 2 21
;
_chemical_formula_sum "Si O2"
_cell_formula_units_Z 48
_cell_length_a 8.730711
_cell_length_b 28.613364
_cell_length_c 8.600293
_cell_angle_alpha 90.000000
_cell_angle_beta 90.000000
_cell_angle_gamma 90.000000
_cell_volume 2148.482297
_symmetry_space_group_name_H-M "C 2 2 21"
_symmetry_group_IT_number 20
_symmetry_cell_setting 'orthorhombic'
loop_
_space_group_symop_operation_xyz
x,y,z
-x,-y,1/2+z
x,-y,-z
-x,y,1/2-z
1/2+x,1/2+y,z
1/2-x,1/2-y,1/2+z
1/2+x,1/2-y,-z
1/2-x,1/2+y,1/2-z
loop_
_atom_site_type_symbol
_atom_site_label
_atom_site_fract_x
_atom_site_fract_y
_atom_site_fract_z
Si Si1 0.623807 0.280241 0.380702
Si Si2 0.837014 0.886199 0.466588
Si Si3 0.192519 0.882950 0.398362
Si Si4 0.656885 0.528376 0.159273
Si Si5 0.879434 0.534306 0.625620
Si Si6 0.886565 0.790144 0.620522
O O1 0.500000 0.294324 0.250000
O O2 0.707590 0.327991 0.433124
O O3 0.749575 0.243298 0.327809
O O4 0.509832 0.262210 0.514637
O O5 0.785145 0.889114 0.288000
O O6 0.773858 0.923432 0.590144
O O7 0.817508 0.833605 0.527202
O O8 0.020121 0.894753 0.449950
O O9 0.303461 0.922243 0.463689
O O10 0.500000 0.538305 0.250000
O O11 0.757610 0.496702 0.275888
O O12 0.624873 0.500000 0.000000
O O13 0.954035 0.500000 0.500000
O O14 0.000000 0.551693 0.750000
O O15 0.000000 0.810374 0.750000
#
# Coordination Sequence:
#
# PCOD9318343 Si02
#       6
#     8   8   8   8   8   8
#     4  11  22  44  66  94 132 173 219 272 335 399
#     4  10  20  39  66  95 124 166 216 269 314 384
#     4  10  20  42  67  89 127 171 217 260 319 391
#     4  12  22  37  66  96 127 167 219 267 319 384
#     4  12  27  45  64  95 134 172 213 271 337 394
#     4  11  23  38  65  97 132 167 219 280 328 387
#
# _framework density 22.341351
#
# number of rings (size 3 to 8) (size 9 to 14) (size 15 to 20)
#    0.000    1.000    5.000    4.500    0.000    2.000 
#    0.000    0.833    0.000    0.000    0.000    0.000 
#    0.000    0.000    0.000    0.000    0.000    0.000 
#
# Total GULP energy -134001.816710 kJ/mol
# GULP energy per Si atom -5583.409030 kJ/mol
# Density = 2.229050 g / cm^3
# Si number density = 22.341351 Si / 1000 Ang^3
#
#
#
# Elastic Constant Matrix: (Units=GPa)
#
#
# Indices 1 2 3 4 5 6 
#
# 1 42.9994 35.4509 -6.3332 0.0000 0.0000 0.0000
# 2 35.4509 111.5149 -1.6356 0.0000 0.0000 0.0000
# 3 -6.3332 -1.6356 40.8383 0.0000 0.0000 0.0000
# 4 0.0000 0.0000 0.0000 29.3219 0.0000 0.0000
# 5 0.0000 0.0000 0.0000 0.0000 25.4458 0.0000
# 6 0.0000 0.0000 0.0000 0.0000 0.0000 28.7582
#
#
#
# Elastic Compliance Matrix: (Units=1/GPa)
#
#
# Indices 1 2 3 4 5 6 
#
# 1 0.032361 -0.010220 0.004609 0.000000 0.000000 0.000000
# 2 -0.010220 0.012200 -0.001096 0.000000 0.000000 0.000000
# 3 0.004609 -0.001096 0.025158 0.000000 0.000000 0.000000
# 4 0.000000 0.000000 0.000000 0.034104 0.000000 0.000000
# 5 0.000000 0.000000 0.000000 0.000000 0.039299 0.000000
# 6 0.000000 0.000000 0.000000 0.000000 0.000000 0.034773
#
#
# Mechanical properties :
#
#
# Convention : Reuss Voigt Hill
#
# Bulk Modulus (GPa) = 17.76048 27.81296 22.78672
# Shear Modulus (GPa) = 23.80073 27.89653 25.84863
#
# Velocity S-wave (km/s) = 3.26747 3.53746 3.40514
# Velocity P-wave (km/s) = 4.71190 5.40009 5.06769
#
# Compressibility (1/GPa) = 0.05630479
#
# Stress axis : x y z
#
# Youngs Moduli (GPa) = 30.90148 81.96516 39.74921
#
# Poissons Ratio (x) = 0.83769 -0.18321
# Poissons Ratio (y) = 0.31581 0.04358
# Poissons Ratio (z) = -0.14243 0.08986
#
# Static dielectric constant tensor:
#      x y z
#    x 1.802370 0.000000 0.000000 
#    y 0.000000 1.825810 0.000000 
#    z 0.000000 0.000000 1.935490 
# 
# From -- ./inp_files/6483.got.cif
#   From: 2010.05.17/outbox.cif.g08.bks.cpg/sg20_4_cif.got.tgz:6483.got - 2010.06.03 22:52:26.
