data_PCOD9318292
_publ_section_title
;
Structure prediction by ZEFSAII (Michael W. Deem and Ramdas Pophale) SiO2 
 PCOD9318292
Probable space group: C 2 2 21
;
_chemical_formula_sum "Si O2"
_cell_formula_units_Z 60
_cell_length_a 16.128131
_cell_length_b 12.069927
_cell_length_c 14.964454
_cell_angle_alpha 90.000000
_cell_angle_beta 90.000000
_cell_angle_gamma 90.000000
_cell_volume 2913.060882
_symmetry_space_group_name_H-M "C 2 2 21"
_symmetry_group_IT_number 20
_symmetry_cell_setting 'orthorhombic'
loop_
_space_group_symop_operation_xyz
x,y,z
-x,-y,1/2+z
x,-y,-z
-x,y,1/2-z
1/2+x,1/2+y,z
1/2-x,1/2-y,1/2+z
1/2+x,1/2-y,-z
1/2-x,1/2+y,1/2-z
loop_
_atom_site_type_symbol
_atom_site_label
_atom_site_fract_x
_atom_site_fract_y
_atom_site_fract_z
Si Si1 0.840103 0.815990 0.239844
Si Si2 0.443227 0.789083 0.025718
Si Si3 0.425602 0.535244 0.633419
Si Si4 0.431733 0.285628 0.671200
Si Si5 0.852153 0.405650 0.877308
Si Si6 0.608790 0.430385 0.423158
Si Si7 0.164118 0.645848 0.693798
Si Si8 0.207472 0.000000 0.000000
O O1 0.916934 0.866060 0.295523
O O2 0.847613 0.697929 0.190924
O O3 0.833360 0.904530 0.159376
O O4 0.760860 0.828678 0.302137
O O5 0.527738 0.763963 0.080512
O O6 0.377210 0.801493 0.105902
O O7 0.425177 0.884044 0.950991
O O8 0.421197 0.682000 0.968576
O O9 0.398013 0.410954 0.661804
O O10 0.521179 0.516393 0.606703
O O11 0.360006 0.568192 0.557139
O O12 0.500000 0.294378 0.750000
O O13 0.368642 0.199487 0.714861
O O14 0.858762 0.517180 0.819239
O O15 0.769505 0.427604 0.937986
O O16 0.650969 0.500000 0.500000
#
# Coordination Sequence:
#
# PCOD9318292 Si02
#       8
#     8   8   8   8   8   8   8   4
#     4  11  25  37  62  94 132 168 208 272 321 385
#     4  10  20  39  62  89 123 163 215 262 317 387
#     4  12  21  40  64 101 129 161 216 273 327 383
#     4  10  21  36  65  94 121 165 216 267 321 392
#     4  11  22  41  60  92 129 172 215 262 325 386
#     4  11  22  37  61  94 130 160 203 270 332 365
#     4  11  22  40  63  90 123 172 219 256 323 394
#     4  12  20  38  70  88 128 172 216 262 312 402
#
# _framework density 20.596892
#
# number of rings (size 3 to 8) (size 9 to 14) (size 15 to 20)
#    0.000    1.067    4.667    2.000    1.867    0.000 
#    0.000    9.333    0.000    4.800    0.000    0.000 
#    0.000    0.000    0.000    0.000    0.000    0.000 
#
# Total GULP energy -167105.749044 kJ/mol
# GULP energy per Si atom -5570.191635 kJ/mol
# Density = 2.055001 g / cm^3
# Si number density = 20.596892 Si / 1000 Ang^3
#
#
#
# Elastic Constant Matrix: (Units=GPa)
#
#
# Indices 1 2 3 4 5 6 
#
# 1 45.0575 21.6201 13.6693 0.0000 0.0000 0.0000
# 2 21.6201 63.7227 29.8280 0.0000 0.0000 0.0000
# 3 13.6693 29.8280 64.6606 0.0000 0.0000 0.0000
# 4 0.0000 0.0000 0.0000 50.1583 0.0000 0.0000
# 5 0.0000 0.0000 0.0000 0.0000 -28.7648 0.0000
# 6 0.0000 0.0000 0.0000 0.0000 0.0000 8.3898
#
#
#
# Elastic Compliance Matrix: (Units=1/GPa)
#
#
# Indices 1 2 3 4 5 6 
#
# 1 0.026685 -0.008179 -0.001868 0.000000 0.000000 0.000000
# 2 -0.008179 0.022522 -0.008660 0.000000 0.000000 0.000000
# 3 -0.001868 -0.008660 0.019855 0.000000 0.000000 0.000000
# 4 0.000000 0.000000 0.000000 0.019937 0.000000 0.000000
# 5 0.000000 0.000000 0.000000 0.000000 -0.034765 0.000000
# 6 0.000000 0.000000 0.000000 0.000000 0.000000 0.119193
#
#
# Mechanical properties :
#
#
# Convention : Reuss Voigt Hill
#
# Bulk Modulus (GPa) = 31.59864 33.74173 32.67018
# Shear Modulus (GPa) = 22.58437 13.17822 17.88129
#
# Velocity S-wave (km/s) = 3.31493 2.53220 2.94964
# Velocity P-wave (km/s) = 5.47964 4.99669 5.24373
#
# Compressibility (1/GPa) = 0.03164693
#
# Stress axis : x y z
#
# Youngs Moduli (GPa) = 37.47372 44.40121 50.36446
#
# Poissons Ratio (x) = 0.36318 0.09409
# Poissons Ratio (y) = 0.30651 0.43617
# Poissons Ratio (z) = 0.07001 0.38452
#
# Static dielectric constant tensor:
#      x y z
#    x 1.781930 0.000000 0.000000 
#    y 0.000000 1.806260 0.000000 
#    z 0.000000 0.000000 1.841620 
# 
# From -- ./inp_files/21463.got.cif
#   From: 2010.05.17/outbox.cif.g08.bks.cpg/sg20_11_cif.got.tgz:21463.got - 2010.06.03 22:52:26.
