data_PCOD9318888
_publ_section_title
;
Structure prediction by ZEFSAII (Michael W. Deem and Ramdas Pophale) SiO2 
 PCOD9318888
Probable space group: C 2 2 21
;
_chemical_formula_sum "Si O2"
_cell_formula_units_Z 56
_cell_length_a 5.581404
_cell_length_b 14.091487
_cell_length_c 27.796865
_cell_angle_alpha 90.000000
_cell_angle_beta 90.000000
_cell_angle_gamma 90.000000
_cell_volume 2186.231268
_symmetry_space_group_name_H-M "C 2 2 21"
_symmetry_group_IT_number 20
_symmetry_cell_setting 'orthorhombic'
loop_
_space_group_symop_operation_xyz
x,y,z
-x,-y,1/2+z
x,-y,-z
-x,y,1/2-z
1/2+x,1/2+y,z
1/2-x,1/2-y,1/2+z
1/2+x,1/2-y,-z
1/2-x,1/2+y,1/2-z
loop_
_atom_site_type_symbol
_atom_site_label
_atom_site_fract_x
_atom_site_fract_y
_atom_site_fract_z
Si Si1 0.787017 0.216923 0.105394
Si Si2 0.038881 0.103373 0.696844
Si Si3 0.763765 0.125932 0.482009
Si Si4 0.387243 0.098617 0.122078
Si Si5 0.985417 0.884350 0.697542
Si Si6 0.520321 0.106890 0.642174
Si Si7 0.752051 0.150386 0.997849
O O1 0.507989 0.201652 0.116283
O O2 0.893501 0.169508 0.153311
O O3 0.916981 0.316518 0.101520
O O4 0.795096 0.162419 0.055286
O O5 0.283357 0.138304 0.671426
O O6 0.000000 0.144982 0.750000
O O7 0.779439 0.109664 0.670225
O O8 0.090241 0.990218 0.702421
O O9 0.764880 0.088867 0.427018
O O10 0.505472 0.102083 0.505121
O O11 0.757123 0.241581 0.479391
O O12 0.993975 0.103217 0.515563
O O13 0.276316 0.101286 0.175261
O O14 0.529561 0.998986 0.122982
O O15 0.000000 0.838607 0.750000
#
# Coordination Sequence:
#
# PCOD9318888 Si02
#       7
#     8   8   8   8   8   8   8
#     4  11  22  38  60  88 123 156 204 259 299 373
#     4  10  22  42  60  83 117 159 203 257 300 367
#     4   9  17  32  59  83 114 156 197 242 303 367
#     4  10  21  40  59  89 124 163 204 258 310 375
#     4  10  21  37  62  86 120 161 208 249 313 364
#     4  11  24  37  62  88 119 160 202 250 320 358
#     4   9  18  32  56  88 112 152 201 243 299 366
#
# _framework density 25.614854000000001
#
# number of rings (size 3 to 8) (size 9 to 14) (size 15 to 20)
#    0.000    2.000    2.857    0.429    2.000    1.714 
#    0.000    0.714    0.000    0.000    0.000    8.000 
#    0.000    0.000    0.000    0.000    0.000    0.000 
#
# Total GULP energy -156025.771071 kJ/mol
# GULP energy per Si atom -5572.348967 kJ/mol
# Density = 2.555655 g / cm^3
# Si number density = 25.614854 Si / 1000 Ang^3
#
#
#
# Elastic Constant Matrix: (Units=GPa)
#
#
# Indices 1 2 3 4 5 6 
#
# 1 144.6729 18.5709 29.2295 0.0000 0.0000 0.0000
# 2 18.5709 71.2508 17.8494 0.0000 0.0000 0.0000
# 3 29.2295 17.8494 102.9220 0.0000 0.0000 0.0000
# 4 0.0000 0.0000 0.0000 21.7220 0.0000 0.0000
# 5 0.0000 0.0000 0.0000 0.0000 28.5900 0.0000
# 6 0.0000 0.0000 0.0000 0.0000 0.0000 16.8644
#
#
#
# Elastic Compliance Matrix: (Units=1/GPa)
#
#
# Indices 1 2 3 4 5 6 
#
# 1 0.007480 -0.001482 -0.001867 0.000000 0.000000 0.000000
# 2 -0.001482 0.014966 -0.002175 0.000000 0.000000 0.000000
# 3 -0.001867 -0.002175 0.010624 0.000000 0.000000 0.000000
# 4 0.000000 0.000000 0.000000 0.046036 0.000000 0.000000
# 5 0.000000 0.000000 0.000000 0.000000 0.034977 0.000000
# 6 0.000000 0.000000 0.000000 0.000000 0.000000 0.059297
#
#
# Mechanical properties :
#
#
# Convention : Reuss Voigt Hill
#
# Bulk Modulus (GPa) = 45.40956 50.01617 47.71286
# Shear Modulus (GPa) = 26.07330 30.31500 28.19415
#
# Velocity S-wave (km/s) = 3.19391 3.44393 3.32127
# Velocity P-wave (km/s) = 5.60069 5.94834 5.77713
#
# Compressibility (1/GPa) = 0.02202180
#
# Stress axis : x y z
#
# Youngs Moduli (GPa) = 133.69707 66.81843 94.13072
#
# Poissons Ratio (x) = 0.09901 0.17576
# Poissons Ratio (y) = 0.19810 0.20471
# Poissons Ratio (z) = 0.24964 0.14531
#
# Static dielectric constant tensor:
#      x y z
#    x 2.333540 0.000000 0.000000 
#    y 0.000000 2.059880 0.000000 
#    z 0.000000 0.000000 2.002950 
# 
# From -- ./inp_files/30734.got.cif
#   From: 2010.05.17/outbox.cif.g08.bks.cpg/sg20_16_cif.got.tgz:30734.got - 2010.06.03 22:52:26.
