data_PCOD9318738
_publ_section_title
;
Structure prediction by ZEFSAII (Michael W. Deem and Ramdas Pophale) SiO2 
 PCOD9318738
Probable space group: C 2 2 21
;
_chemical_formula_sum "Si O2"
_cell_formula_units_Z 48
_cell_length_a 23.583282
_cell_length_b 7.080249
_cell_length_c 10.180328
_cell_angle_alpha 90.000000
_cell_angle_beta 90.000000
_cell_angle_gamma 90.000000
_cell_volume 1699.865448
_symmetry_space_group_name_H-M "C 2 2 21"
_symmetry_group_IT_number 20
_symmetry_cell_setting 'orthorhombic'
loop_
_space_group_symop_operation_xyz
x,y,z
-x,-y,1/2+z
x,-y,-z
-x,y,1/2-z
1/2+x,1/2+y,z
1/2-x,1/2-y,1/2+z
1/2+x,1/2-y,-z
1/2-x,1/2+y,1/2-z
loop_
_atom_site_type_symbol
_atom_site_label
_atom_site_fract_x
_atom_site_fract_y
_atom_site_fract_z
Si Si1 0.271883 0.858196 0.747659
Si Si2 0.605547 0.840323 0.775693
Si Si3 0.423413 0.731044 0.010303
Si Si4 0.798228 0.778955 0.964436
Si Si5 0.546706 0.272243 0.966380
Si Si6 0.647899 0.563259 0.150213
O O1 0.332647 0.939820 0.699370
O O2 0.253625 0.719415 0.628115
O O3 0.289608 0.809119 0.893369
O O4 0.204915 0.900163 0.770547
O O5 0.578438 0.843140 0.630203
O O6 0.622354 0.617635 0.778145
O O7 0.564553 0.844354 0.902512
O O8 0.362326 0.770678 0.074532
O O9 0.422429 0.500000 0.000000
O O10 0.483356 0.776855 0.076986
O O11 0.790401 0.000000 0.000000
O O12 0.598893 0.277043 0.864440
O O13 0.542882 0.500000 0.000000
O O14 0.658642 0.500000 0.000000
#
# Coordination Sequence:
#
# PCOD9318738 Si02
#       6
#     8   8   8   8   8   8
#     4  11  19  32  49  67 102 135 162 202 245 284
#     4   9  17  27  42  65  93 125 158 193 232 287
#     4   9  15  25  41  63  93 125 153 186 233 291
#     4  10  21  33  49  75 103 132 167 204 242 294
#     4   8  15  26  41  62  91 125 152 182 235 296
#     4   9  17  29  44  66  95 126 160 197 240 290
#
# _framework density 28.23753
#
# number of rings (size 3 to 8) (size 9 to 14) (size 15 to 20)
#    0.000    3.000    0.000    5.500    0.000    0.000 
#    0.000    2.500    0.000    0.000    0.000    0.000 
#    0.000  181.333    0.000    0.000    0.000    0.000 
#
# Total GULP energy -133803.152306 kJ/mol
# GULP energy per Si atom -5575.131346 kJ/mol
# Density = 2.817326 g / cm^3
# Si number density = 28.237530 Si / 1000 Ang^3
#
#
#
# Elastic Constant Matrix: (Units=GPa)
#
#
# Indices 1 2 3 4 5 6 
#
# 1 248.2635 52.1273 64.0270 0.0000 0.0000 0.0000
# 2 52.1273 69.6619 3.7949 0.0000 0.0000 0.0000
# 3 64.0270 3.7949 97.0313 0.0000 0.0000 0.0000
# 4 0.0000 0.0000 0.0000 13.0719 0.0000 0.0000
# 5 0.0000 0.0000 0.0000 0.0000 38.1234 0.0000
# 6 0.0000 0.0000 0.0000 0.0000 0.0000 45.7099
#
#
#
# Elastic Compliance Matrix: (Units=1/GPa)
#
#
# Indices 1 2 3 4 5 6 
#
# 1 0.005862 -0.004185 -0.003704 0.000000 0.000000 0.000000
# 2 -0.004185 0.017373 0.002082 0.000000 0.000000 0.000000
# 3 -0.003704 0.002082 0.012669 0.000000 0.000000 0.000000
# 4 0.000000 0.000000 0.000000 0.076500 0.000000 0.000000
# 5 0.000000 0.000000 0.000000 0.000000 0.026231 0.000000
# 6 0.000000 0.000000 0.000000 0.000000 0.000000 0.021877
#
#
# Mechanical properties :
#
#
# Convention : Reuss Voigt Hill
#
# Bulk Modulus (GPa) = 41.17026 72.76167 56.96597
# Shear Modulus (GPa) = 27.74350 39.04821 33.39585
#
# Velocity S-wave (km/s) = 3.13789 3.72270 3.44274
# Velocity P-wave (km/s) = 5.26689 6.65595 6.00174
#
# Compressibility (1/GPa) = 0.02428938
#
# Stress axis : x y z
#
# Youngs Moduli (GPa) = 170.59046 57.56062 78.93328
#
# Poissons Ratio (x) = 0.24087 0.29240
# Poissons Ratio (y) = 0.71386 -0.16433
# Poissons Ratio (z) = 0.63194 -0.11983
#
# Static dielectric constant tensor:
#      x y z
#    x 2.184150 0.000000 0.000000 
#    y 0.000000 2.621320 0.000000 
#    z 0.000000 0.000000 1.824330 
# 
# From -- ./inp_files/16253.got.cif
#   From: 2010.05.17/outbox.cif.g08.bks.cpg/sg20_9_cif.got.tgz:16253.got - 2010.06.03 22:52:26.
