data_PCOD9318180
_publ_section_title
;
Structure prediction by ZEFSAII (Michael W. Deem and Ramdas Pophale) SiO2 
 PCOD9318180
Probable space group: C 2 2 21
;
_chemical_formula_sum "Si O2"
_cell_formula_units_Z 44
_cell_length_a 7.043945
_cell_length_b 16.655666
_cell_length_c 17.286749
_cell_angle_alpha 90.000000
_cell_angle_beta 90.000000
_cell_angle_gamma 90.000000
_cell_volume 2028.108969
_symmetry_space_group_name_H-M "C 2 2 21"
_symmetry_group_IT_number 20
_symmetry_cell_setting 'orthorhombic'
loop_
_space_group_symop_operation_xyz
x,y,z
-x,-y,1/2+z
x,-y,-z
-x,y,1/2-z
1/2+x,1/2+y,z
1/2-x,1/2-y,1/2+z
1/2+x,1/2-y,-z
1/2-x,1/2+y,1/2-z
loop_
_atom_site_type_symbol
_atom_site_label
_atom_site_fract_x
_atom_site_fract_y
_atom_site_fract_z
Si Si1 0.156848 0.539534 0.580702
Si Si2 0.500000 0.293756 0.750000
Si Si3 0.481011 0.211102 0.915162
Si Si4 0.290970 0.500023 0.107406
Si Si5 0.723220 0.938881 0.730178
Si Si6 0.641043 0.360696 0.486963
O O1 0.213407 0.500000 0.500000
O O2 0.164928 0.636303 0.576750
O O3 0.242389 0.490126 0.652281
O O4 0.928753 0.523085 0.591202
O O5 0.466399 0.241642 0.826988
O O6 0.325980 0.353164 0.728988
O O7 0.456306 0.284202 0.974945
O O8 0.685187 0.177071 0.939098
O O9 0.311558 0.513558 0.197654
O O10 0.313879 0.583223 0.061344
O O11 0.425043 0.430313 0.072704
O O12 0.500000 0.928639 0.750000
#
# Coordination Sequence:
#
# PCOD9318180 Si02
#       6
#     8   4   8   8   8   8
#     4  10  20  39  65  88 122 174 219 249 323 400
#     4  12  26  42  64 102 132 162 222 282 326 380
#     4  11  24  39  63  97 129 165 221 278 324 377
#     4   9  17  40  64  85 119 175 208 247 331 397
#     4  10  23  42  70  89 129 177 215 262 333 397
#     4  10  20  38  63  88 125 165 210 264 322 380
#
# _framework density 21.695087000000001
#
# number of rings (size 3 to 8) (size 9 to 14) (size 15 to 20)
#    0.000    1.818    5.455    0.000    8.909    0.000 
#    3.273    0.000    2.000    0.000    0.000    0.000 
#    0.000    0.000    0.000    0.000    0.000    0.000 
#
# Total GULP energy -122784.925204 kJ/mol
# GULP energy per Si atom -5581.132964 kJ/mol
# Density = 2.164571 g / cm^3
# Si number density = 21.695087 Si / 1000 Ang^3
#
#
#
# Elastic Constant Matrix: (Units=GPa)
#
#
# Indices 1 2 3 4 5 6 
#
# 1 53.5793 36.1999 24.7442 0.0000 0.0000 0.0000
# 2 36.1999 172.1274 83.9413 0.0000 0.0000 0.0000
# 3 24.7442 83.9413 189.5626 0.0000 0.0000 0.0000
# 4 0.0000 0.0000 0.0000 42.4476 0.0000 0.0000
# 5 0.0000 0.0000 0.0000 0.0000 26.7962 0.0000
# 6 0.0000 0.0000 0.0000 0.0000 0.0000 32.6685
#
#
#
# Elastic Compliance Matrix: (Units=1/GPa)
#
#
# Indices 1 2 3 4 5 6 
#
# 1 0.021916 -0.004099 -0.001046 0.000000 0.000000 0.000000
# 2 -0.004099 0.008177 -0.003086 0.000000 0.000000 0.000000
# 3 -0.001046 -0.003086 0.006778 0.000000 0.000000 0.000000
# 4 0.000000 0.000000 0.000000 0.023558 0.000000 0.000000
# 5 0.000000 0.000000 0.000000 0.000000 0.037319 0.000000
# 6 0.000000 0.000000 0.000000 0.000000 0.000000 0.030610
#
#
# Mechanical properties :
#
#
# Convention : Reuss Voigt Hill
#
# Bulk Modulus (GPa) = 48.99532 78.33778 63.66655
# Shear Modulus (GPa) = 32.97648 38.40804 35.69226
#
# Velocity S-wave (km/s) = 3.90294 4.21213 4.06048
# Velocity P-wave (km/s) = 6.55311 7.73582 7.16890
#
# Compressibility (1/GPa) = 0.02041011
#
# Stress axis : x y z
#
# Youngs Moduli (GPa) = 45.62782 122.30131 147.53320
#
# Poissons Ratio (x) = 0.50135 0.15426
# Poissons Ratio (y) = 0.18704 0.45523
# Poissons Ratio (z) = 0.04771 0.37737
#
# Static dielectric constant tensor:
#      x y z
#    x 1.891180 0.000000 0.000000 
#    y 0.000000 1.825830 0.000000 
#    z 0.000000 0.000000 1.765060 
# 
# From -- ./inp_files/23353.got.cif
#   From: 2010.05.17/outbox.cif.g08.bks.cpg/sg20_12_cif.got.tgz:23353.got - 2010.06.03 22:52:26.
