data_PCOD9318742
_publ_section_title
;
Structure prediction by ZEFSAII (Michael W. Deem and Ramdas Pophale) SiO2 
 PCOD9318742
Probable space group: C 2 2 21
;
_chemical_formula_sum "Si O2"
_cell_formula_units_Z 32
_cell_length_a 8.907945
_cell_length_b 14.299073
_cell_length_c 9.407137
_cell_angle_alpha 90.000000
_cell_angle_beta 90.000000
_cell_angle_gamma 90.000000
_cell_volume 1198.237423
_symmetry_space_group_name_H-M "C 2 2 21"
_symmetry_group_IT_number 20
_symmetry_cell_setting 'orthorhombic'
loop_
_space_group_symop_operation_xyz
x,y,z
-x,-y,1/2+z
x,-y,-z
-x,y,1/2-z
1/2+x,1/2+y,z
1/2-x,1/2-y,1/2+z
1/2+x,1/2-y,-z
1/2-x,1/2+y,1/2-z
loop_
_atom_site_type_symbol
_atom_site_label
_atom_site_fract_x
_atom_site_fract_y
_atom_site_fract_z
Si Si1 0.824607 0.100637 0.225448
Si Si2 0.432667 0.898338 0.975587
Si Si3 0.422228 0.307985 0.042604
Si Si4 0.684893 0.393369 0.199931
O O1 0.688447 0.105134 0.342194
O O2 0.000000 0.131189 0.250000
O O3 0.834972 0.988620 0.213389
O O4 0.809576 0.155474 0.077861
O O5 0.495364 0.793604 0.975364
O O6 0.337766 0.896324 0.119359
O O7 0.513150 0.000000 0.000000
O O8 0.559043 0.378781 0.077955
O O9 0.330792 0.309855 0.190108
#
# Coordination Sequence:
#
# PCOD9318742 Si02
#       4
#     8   8   8   8
#     4  11  19  34  58  86 111 141 185 239 278 320
#     4  10  22  37  55  83 115 149 188 228 280 337
#     4  11  20  34  58  84 115 146 183 236 282 331
#     4  10  21  33  59  87 109 143 187 235 285 323
#
# _framework density 26.705895000000002
#
# number of rings (size 3 to 8) (size 9 to 14) (size 15 to 20)
#    0.000    1.500    5.000    2.250    0.000    0.000 
#    0.000    0.000    5.500    3.000    0.000    0.000 
#    0.000    0.000    0.000    0.000    0.000    0.000 
#
# Total GULP energy -89140.487704 kJ/mol
# GULP energy per Si atom -5571.280481 kJ/mol
# Density = 2.664511 g / cm^3
# Si number density = 26.705895 Si / 1000 Ang^3
#
#
#
# Elastic Constant Matrix: (Units=GPa)
#
#
# Indices 1 2 3 4 5 6 
#
# 1 50.1110 22.6026 18.8234 0.0000 0.0000 0.0000
# 2 22.6026 174.8250 20.1280 0.0000 0.0000 0.0000
# 3 18.8234 20.1280 81.8600 0.0000 0.0000 0.0000
# 4 0.0000 0.0000 0.0000 45.4654 0.0000 0.0000
# 5 0.0000 0.0000 0.0000 0.0000 11.9842 0.0000
# 6 0.0000 0.0000 0.0000 0.0000 0.0000 6.7817
#
#
#
# Elastic Compliance Matrix: (Units=1/GPa)
#
#
# Indices 1 2 3 4 5 6 
#
# 1 0.022789 -0.002411 -0.004647 0.000000 0.000000 0.000000
# 2 -0.002411 0.006142 -0.000956 0.000000 0.000000 0.000000
# 3 -0.004647 -0.000956 0.013520 0.000000 0.000000 0.000000
# 4 0.000000 0.000000 0.000000 0.021995 0.000000 0.000000
# 5 0.000000 0.000000 0.000000 0.000000 0.083443 0.000000
# 6 0.000000 0.000000 0.000000 0.000000 0.000000 0.147456
#
#
# Mechanical properties :
#
#
# Convention : Reuss Voigt Hill
#
# Bulk Modulus (GPa) = 37.84758 47.76710 42.80734
# Shear Modulus (GPa) = 15.61622 29.19572 22.40597
#
# Velocity S-wave (km/s) = 2.42078 3.30999 2.89967
# Velocity P-wave (km/s) = 4.69216 5.70379 5.22253
#
# Compressibility (1/GPa) = 0.02642177
#
# Stress axis : x y z
#
# Youngs Moduli (GPa) = 43.88078 162.81917 73.96658
#
# Poissons Ratio (x) = 0.39260 0.34375
# Poissons Ratio (y) = 0.10581 0.07069
# Poissons Ratio (z) = 0.20393 0.15561
#
# Static dielectric constant tensor:
#      x y z
#    x 2.670440 0.000000 0.000000 
#    y 0.000000 2.125880 0.000000 
#    z 0.000000 0.000000 2.171470 
# 
# From -- ./inp_files/6872.got.cif
#   From: 2010.05.17/outbox.cif.g08.bks.cpg/sg20_4_cif.got.tgz:6872.got - 2010.06.03 22:52:26.
