data_PCOD9318204
_publ_section_title
;
Structure prediction by ZEFSAII (Michael W. Deem and Ramdas Pophale) SiO2 
 PCOD9318204
Probable space group: C 2 2 21
;
_chemical_formula_sum "Si O2"
_cell_formula_units_Z 48
_cell_length_a 9.772561
_cell_length_b 26.323224
_cell_length_c 9.190726
_cell_angle_alpha 90.000000
_cell_angle_beta 90.000000
_cell_angle_gamma 90.000000
_cell_volume 2364.271180
_symmetry_space_group_name_H-M "C 2 2 21"
_symmetry_group_IT_number 20
_symmetry_cell_setting 'orthorhombic'
loop_
_space_group_symop_operation_xyz
x,y,z
-x,-y,1/2+z
x,-y,-z
-x,y,1/2-z
1/2+x,1/2+y,z
1/2-x,1/2-y,1/2+z
1/2+x,1/2-y,-z
1/2-x,1/2+y,1/2-z
loop_
_atom_site_type_symbol
_atom_site_label
_atom_site_fract_x
_atom_site_fract_y
_atom_site_fract_z
Si Si1 0.097566 0.698261 0.962382
Si Si2 0.500000 0.051871 0.250000
Si Si3 0.500000 0.418718 0.250000
Si Si4 0.892664 0.166278 0.960927
Si Si5 0.994584 0.598151 0.949046
Si Si6 0.000000 0.252159 0.750000
Si Si7 0.699765 0.959485 0.269676
Si Si8 0.500000 0.716664 0.250000
O O1 0.230059 0.662793 0.952493
O O2 0.978954 0.658092 0.922940
O O3 0.092603 0.745046 0.849445
O O4 0.083721 0.716302 0.129653
O O5 0.473989 0.087038 0.386013
O O6 0.631791 0.015041 0.269822
O O7 0.527019 0.380692 0.387774
O O8 0.361609 0.452023 0.258388
O O9 0.918016 0.214799 0.856529
O O10 0.932614 0.181770 0.125039
O O11 0.111651 0.569873 0.854768
O O12 0.853782 0.569813 0.911554
#
# Coordination Sequence:
#
# PCOD9318204 Si02
#       8
#     8   4   4   8   8   4   8   4
#     4  11  19  36  59  89 115 158 208 246 296 350
#     4  10  21  41  65  94 118 152 193 266 298 356
#     4  11  22  40  61  87 120 174 190 252 294 373
#     4  10  21  38  56  83 127 159 205 242 302 342
#     4  10  20  38  64  90 116 153 199 250 297 363
#     4   9  21  34  52  86 117 163 200 250 293 351
#     4  10  20  39  62  86 118 157 201 235 313 358
#     4  10  22  37  58  89 119 165 197 254 287 352
#
# _framework density 20.302239
#
# number of rings (size 3 to 8) (size 9 to 14) (size 15 to 20)
#    0.000    2.000    1.667    4.500    0.000    0.000 
#   12.000    3.333    0.000    0.000    0.000    0.000 
#    0.000    0.000    0.000    0.000    0.000    0.000 
#
# Total GULP energy -133655.681520 kJ/mol
# GULP energy per Si atom -5568.986730 kJ/mol
# Density = 2.025603 g / cm^3
# Si number density = 20.302239 Si / 1000 Ang^3
#
#
#
# Elastic Constant Matrix: (Units=GPa)
#
#
# Indices 1 2 3 4 5 6 
#
# 1 101.8426 9.9210 10.2644 0.0000 0.0000 0.0000
# 2 9.9210 50.2835 13.9408 0.0000 0.0000 0.0000
# 3 10.2644 13.9408 127.1825 0.0000 0.0000 0.0000
# 4 0.0000 0.0000 0.0000 30.3369 0.0000 0.0000
# 5 0.0000 0.0000 0.0000 0.0000 11.1804 0.0000
# 6 0.0000 0.0000 0.0000 0.0000 0.0000 17.9747
#
#
#
# Elastic Compliance Matrix: (Units=1/GPa)
#
#
# Indices 1 2 3 4 5 6 
#
# 1 0.010058 -0.001814 -0.000613 0.000000 0.000000 0.000000
# 2 -0.001814 0.020838 -0.002138 0.000000 0.000000 0.000000
# 3 -0.000613 -0.002138 0.008146 0.000000 0.000000 0.000000
# 4 0.000000 0.000000 0.000000 0.032963 0.000000 0.000000
# 5 0.000000 0.000000 0.000000 0.000000 0.089442 0.000000
# 6 0.000000 0.000000 0.000000 0.000000 0.000000 0.055634
#
#
# Mechanical properties :
#
#
# Convention : Reuss Voigt Hill
#
# Bulk Modulus (GPa) = 33.43133 38.61791 36.02462
# Shear Modulus (GPa) = 21.17011 28.24387 24.70699
#
# Velocity S-wave (km/s) = 3.23266 3.73389 3.49228
# Velocity P-wave (km/s) = 5.51689 6.13612 5.83473
#
# Compressibility (1/GPa) = 0.02991206
#
# Stress axis : x y z
#
# Youngs Moduli (GPa) = 99.42732 47.98945 122.75227
#
# Poissons Ratio (x) = 0.08708 0.07522
# Poissons Ratio (y) = 0.18041 0.26240
# Poissons Ratio (z) = 0.06093 0.10259
#
# Static dielectric constant tensor:
#      x y z
#    x 1.770560 0.000000 0.000000 
#    y 0.000000 1.719350 0.000000 
#    z 0.000000 0.000000 1.699070 
# 
# From -- ./inp_files/6610.got.cif
#   From: 2010.05.17/outbox.cif.g08.bks.cpg/sg20_4_cif.got.tgz:6610.got - 2010.06.03 22:52:26.
