data_PCOD9318689
_publ_section_title
;
Structure prediction by ZEFSAII (Michael W. Deem and Ramdas Pophale) SiO2 
 PCOD9318689
Probable space group: C 2 2 21
;
_chemical_formula_sum "Si O2"
_cell_formula_units_Z 44
_cell_length_a 14.840202
_cell_length_b 16.206883
_cell_length_c 9.251442
_cell_angle_alpha 90.000000
_cell_angle_beta 90.000000
_cell_angle_gamma 90.000000
_cell_volume 2225.095932
_symmetry_space_group_name_H-M "C 2 2 21"
_symmetry_group_IT_number 20
_symmetry_cell_setting 'orthorhombic'
loop_
_space_group_symop_operation_xyz
x,y,z
-x,-y,1/2+z
x,-y,-z
-x,y,1/2-z
1/2+x,1/2+y,z
1/2-x,1/2-y,1/2+z
1/2+x,1/2-y,-z
1/2-x,1/2+y,1/2-z
loop_
_atom_site_type_symbol
_atom_site_label
_atom_site_fract_x
_atom_site_fract_y
_atom_site_fract_z
Si Si1 0.725631 0.770345 0.426245
Si Si2 0.725632 0.857680 0.147696
Si Si3 0.595149 0.008185 0.826463
Si Si4 0.899152 0.866425 0.786868
Si Si5 0.270585 0.076764 0.111049
Si Si6 0.345798 0.500000 0.000000
O O1 0.769488 0.813654 0.286475
O O2 0.786643 0.709986 0.523237
O O3 0.649174 0.710140 0.365017
O O4 0.691371 0.843577 0.528562
O O5 0.633520 0.899779 0.198680
O O6 0.784346 0.933465 0.085524
O O7 0.500000 0.995467 0.750000
O O8 0.668128 0.948255 0.748509
O O9 0.589456 0.000000 0.000000
O O10 0.829102 0.896461 0.663299
O O11 0.903178 0.945086 0.892387
O O12 0.000000 0.843220 0.750000
O O13 0.268429 0.000000 0.000000
#
# Coordination Sequence:
#
# PCOD9318689 Si02
#       6
#     8   8   8   8   8   4
#     4  11  23  41  68  98 133 183 229 278 348 407
#     4  11  21  42  70  93 136 179 228 283 341 409
#     4  12  25  43  69 101 135 180 231 288 344 414
#     4  11  24  42  68 102 139 180 226 288 339 406
#     4  12  23  45  70  98 133 187 236 281 348 417
#     4  10  20  44  70  94 132 178 234 274 340 404
#
# _framework density 19.774429000000001
#
# number of rings (size 3 to 8) (size 9 to 14) (size 15 to 20)
#    0.000    0.727    6.364    1.636    1.273    0.727 
#    0.000    0.000    0.000    0.000    0.000    0.000 
#    0.000    0.000    0.000    0.000    0.000    0.000 
#
# Total GULP energy -122794.215131 kJ/mol
# GULP energy per Si atom -5581.555233 kJ/mol
# Density = 1.972942 g / cm^3
# Si number density = 19.774429 Si / 1000 Ang^3
#
#
#
# Elastic Constant Matrix: (Units=GPa)
#
#
# Indices 1 2 3 4 5 6 
#
# 1 76.8578 15.5784 25.8268 0.0000 0.0000 0.0000
# 2 15.5784 130.6728 47.0671 0.0000 0.0000 0.0000
# 3 25.8268 47.0671 119.4803 0.0000 0.0000 0.0000
# 4 0.0000 0.0000 0.0000 61.5769 0.0000 0.0000
# 5 0.0000 0.0000 0.0000 0.0000 21.7863 0.0000
# 6 0.0000 0.0000 0.0000 0.0000 0.0000 5.2871
#
#
#
# Elastic Compliance Matrix: (Units=1/GPa)
#
#
# Indices 1 2 3 4 5 6 
#
# 1 0.014082 -0.000679 -0.002777 0.000000 0.000000 0.000000
# 2 -0.000679 0.008951 -0.003379 0.000000 0.000000 0.000000
# 3 -0.002777 -0.003379 0.010301 0.000000 0.000000 0.000000
# 4 0.000000 0.000000 0.000000 0.016240 0.000000 0.000000
# 5 0.000000 0.000000 0.000000 0.000000 0.045900 0.000000
# 6 0.000000 0.000000 0.000000 0.000000 0.000000 0.189141
#
#
# Mechanical properties :
#
#
# Convention : Reuss Voigt Hill
#
# Bulk Modulus (GPa) = 50.85341 55.99504 53.42422
# Shear Modulus (GPa) = 16.40215 33.63265 25.01740
#
# Velocity S-wave (km/s) = 2.88316 4.12857 3.56074
# Velocity P-wave (km/s) = 6.07092 7.14879 6.63179
#
# Compressibility (1/GPa) = 0.01966437
#
# Stress axis : x y z
#
# Youngs Moduli (GPa) = 71.01464 111.72178 97.07830
#
# Poissons Ratio (x) = 0.07582 0.26954
# Poissons Ratio (y) = 0.04820 0.32806
# Poissons Ratio (z) = 0.19717 0.37754
#
# Static dielectric constant tensor:
#      x y z
#    x 1.680840 0.000000 0.000000 
#    y 0.000000 1.707250 0.000000 
#    z 0.000000 0.000000 1.758790 
# 
# From -- ./inp_files/8310.got.cif
#   From: 2010.05.17/outbox.cif.g08.bks.cpg/sg20_5_cif.got.tgz:8310.got - 2010.06.03 22:52:26.
