data_PCOD9318505
_publ_section_title
;
Structure prediction by ZEFSAII (Michael W. Deem and Ramdas Pophale) SiO2 
 PCOD9318505
Probable space group: C 2 2 21
;
_chemical_formula_sum "Si O2"
_cell_formula_units_Z 48
_cell_length_a 8.365183
_cell_length_b 21.735126
_cell_length_c 12.760872
_cell_angle_alpha 90.000000
_cell_angle_beta 90.000000
_cell_angle_gamma 90.000000
_cell_volume 2320.160137
_symmetry_space_group_name_H-M "C 2 2 21"
_symmetry_group_IT_number 20
_symmetry_cell_setting 'orthorhombic'
loop_
_space_group_symop_operation_xyz
x,y,z
-x,-y,1/2+z
x,-y,-z
-x,y,1/2-z
1/2+x,1/2+y,z
1/2-x,1/2-y,1/2+z
1/2+x,1/2-y,-z
1/2-x,1/2+y,1/2-z
loop_
_atom_site_type_symbol
_atom_site_label
_atom_site_fract_x
_atom_site_fract_y
_atom_site_fract_z
Si Si1 0.241493 0.515942 0.878943
Si Si2 0.941921 0.256942 0.954882
Si Si3 0.500000 0.561929 0.250000
Si Si4 0.500000 0.945540 0.750000
Si Si5 0.216485 0.248986 0.342034
Si Si6 0.237694 0.852297 0.837209
Si Si7 0.668246 0.647992 0.695122
O O1 0.372513 0.480772 0.808130
O O2 0.074896 0.487929 0.839616
O O3 0.251968 0.588037 0.853212
O O4 0.267712 0.500000 0.000000
O O5 0.822329 0.313905 0.929545
O O6 0.872696 0.197614 0.894750
O O7 0.119054 0.264691 0.907180
O O8 0.931214 0.247361 0.078653
O O9 0.420632 0.605998 0.338988
O O10 0.369380 0.900661 0.798758
O O11 0.209600 0.197255 0.254139
O O12 0.234067 0.314136 0.283061
O O13 0.500000 0.630627 0.750000
#
# Coordination Sequence:
#
# PCOD9318505 Si02
#       7
#     8   8   4   4   8   8   8
#     4  11  24  44  67  92 125 177 211 265 323 384
#     4  10  21  36  63  88 120 166 202 257 330 380
#     4  10  24  38  66  92 122 164 220 264 308 400
#     4  10  22  44  62  86 128 164 216 258 322 378
#     4  10  21  38  62  89 126 163 202 270 321 374
#     4  10  20  41  59  88 124 160 207 268 316 380
#     4   9  20  41  59  88 128 157 204 260 312 377
#
# _framework density 20.688226
#
# number of rings (size 3 to 8) (size 9 to 14) (size 15 to 20)
#    0.000    2.000    2.500    1.000    7.000    1.333 
#    6.000    1.667    0.000    0.000    0.000    0.000 
#    0.000    0.000    0.000    0.000    0.000    0.000 
#
# Total GULP energy -134051.568670 kJ/mol
# GULP energy per Si atom -5585.482028 kJ/mol
# Density = 2.064114 g / cm^3
# Si number density = 20.688226 Si / 1000 Ang^3
#
#
#
# Elastic Constant Matrix: (Units=GPa)
#
#
# Indices 1 2 3 4 5 6 
#
# 1 26.6884 9.0450 2.3744 0.0000 0.0000 0.0000
# 2 9.0450 85.1253 9.6191 0.0000 0.0000 0.0000
# 3 2.3744 9.6191 85.0543 0.0000 0.0000 0.0000
# 4 0.0000 0.0000 0.0000 14.4660 0.0000 0.0000
# 5 0.0000 0.0000 0.0000 0.0000 33.3414 0.0000
# 6 0.0000 0.0000 0.0000 0.0000 0.0000 -52.5896
#
#
#
# Elastic Compliance Matrix: (Units=1/GPa)
#
#
# Indices 1 2 3 4 5 6 
#
# 1 0.038902 -0.004063 -0.000627 0.000000 0.000000 0.000000
# 2 -0.004063 0.012324 -0.001280 0.000000 0.000000 0.000000
# 3 -0.000627 -0.001280 0.011919 0.000000 0.000000 0.000000
# 4 0.000000 0.000000 0.000000 0.069127 0.000000 0.000000
# 5 0.000000 0.000000 0.000000 0.000000 0.029993 0.000000
# 6 0.000000 0.000000 0.000000 0.000000 0.000000 -0.019015
#
#
# Mechanical properties :
#
#
# Convention : Reuss Voigt Hill
#
# Bulk Modulus (GPa) = 19.52890 26.54944 23.03917
# Shear Modulus (GPa) = 29.02617 10.76553 19.89585
#
# Velocity S-wave (km/s) = 3.74977 2.28364 3.10449
# Velocity P-wave (km/s) = 5.31110 4.45133 4.90011
#
# Compressibility (1/GPa) = 0.05120615
#
# Stress axis : x y z
#
# Youngs Moduli (GPa) = 25.70554 81.14407 83.89627
#
# Poissons Ratio (x) = 0.32967 0.05256
# Poissons Ratio (y) = 0.10444 0.10741
# Poissons Ratio (z) = 0.01610 0.10389
#
# Static dielectric constant tensor:
#      x y z
#    x 1.779440 0.000000 0.000000 
#    y 0.000000 1.713290 0.000000 
#    z 0.000000 0.000000 1.743400 
# 
# From -- ./inp_files/19075.got.cif
#   From: 2010.05.17/outbox.cif.g08.bks.cpg/sg20_10_cif.got.tgz:19075.got - 2010.06.03 22:52:26.
