data_PCOD9318424
_publ_section_title
;
Structure prediction by ZEFSAII (Michael W. Deem and Ramdas Pophale) SiO2 
 PCOD9318424
Probable space group: C 2 2 21
;
_chemical_formula_sum "Si O2"
_cell_formula_units_Z 56
_cell_length_a 14.123071
_cell_length_b 29.920781
_cell_length_c 5.535893
_cell_angle_alpha 90.000000
_cell_angle_beta 90.000000
_cell_angle_gamma 90.000000
_cell_volume 2339.320653
_symmetry_space_group_name_H-M "C 2 2 21"
_symmetry_group_IT_number 20
_symmetry_cell_setting 'orthorhombic'
loop_
_space_group_symop_operation_xyz
x,y,z
-x,-y,1/2+z
x,-y,-z
-x,y,1/2-z
1/2+x,1/2+y,z
1/2-x,1/2-y,1/2+z
1/2+x,1/2-y,-z
1/2-x,1/2+y,1/2-z
loop_
_atom_site_type_symbol
_atom_site_label
_atom_site_fract_x
_atom_site_fract_y
_atom_site_fract_z
Si Si1 0.133442 0.948525 0.507528
Si Si2 0.164450 0.279945 0.417332
Si Si3 0.366189 0.126461 0.872161
Si Si4 0.876565 0.793921 0.578283
Si Si5 0.354301 0.604853 0.501345
Si Si6 0.000000 0.265384 0.750000
Si Si7 0.000000 0.605426 0.250000
Si Si8 0.140517 0.450394 0.997494
O O1 0.115433 0.924626 0.767085
O O2 0.247418 0.952475 0.516501
O O3 0.095698 0.000000 0.500000
O O4 0.117470 0.919800 0.256984
O O5 0.145036 0.324159 0.251864
O O6 0.142173 0.229821 0.333500
O O7 0.275827 0.283492 0.455335
O O8 0.096235 0.287677 0.647281
O O9 0.260248 0.116053 0.986878
O O10 0.463201 0.131943 0.023297
O O11 0.381989 0.082308 0.716058
O O12 0.897270 0.846073 0.545966
O O13 0.958645 0.765408 0.460169
O O14 0.909072 0.574462 0.280249
O O15 0.101453 0.500000 0.000000
#
# Coordination Sequence:
#
# PCOD9318424 Si02
#       8
#     8   8   8   8   8   4   4   8
#     4  10  20  40  65  93 129 171 226 287 350 428
#     4  11  24  45  68  98 140 186 237 301 357 434
#     4  10  23  38  55  85 120 175 226 285 353 413
#     4  11  25  43  72 100 146 188 236 299 362 425
#     4  10  22  40  65  96 133 175 225 286 351 423
#     4  12  25  44  70 106 134 194 238 290 363 438
#     4  12  21  34  52  76 114 168 224 290 343 422
#     4  10  23  35  51  76 117 166 227 288 348 411
#
# _framework density 23.938573999999999
#
# number of rings (size 3 to 8) (size 9 to 14) (size 15 to 20)
#    0.000    1.429    2.857    1.714    4.000    4.571 
#    0.000    0.000    0.000    0.000    0.000    2.000 
#    0.000    0.000    0.000    0.000    0.000    0.000 
#
# Total GULP energy -155877.374218 kJ/mol
# GULP energy per Si atom -5567.049079 kJ/mol
# Density = 2.388409 g / cm^3
# Si number density = 23.938574 Si / 1000 Ang^3
#
#
#
# Elastic Constant Matrix: (Units=GPa)
#
#
# Indices 1 2 3 4 5 6 
#
# 1 75.7516 2.0283 -1.4585 0.0000 0.0000 0.0000
# 2 2.0283 133.3959 36.4018 0.0000 0.0000 0.0000
# 3 -1.4585 36.4018 81.5088 0.0000 0.0000 0.0000
# 4 0.0000 0.0000 0.0000 35.1397 0.0000 0.0000
# 5 0.0000 0.0000 0.0000 0.0000 6.0274 0.0000
# 6 0.0000 0.0000 0.0000 0.0000 0.0000 51.0080
#
#
#
# Elastic Compliance Matrix: (Units=1/GPa)
#
#
# Indices 1 2 3 4 5 6 
#
# 1 0.013216 -0.000302 0.000372 0.000000 0.000000 0.000000
# 2 -0.000302 0.008544 -0.003821 0.000000 0.000000 0.000000
# 3 0.000372 -0.003821 0.013982 0.000000 0.000000 0.000000
# 4 0.000000 0.000000 0.000000 0.028458 0.000000 0.000000
# 5 0.000000 0.000000 0.000000 0.000000 0.165908 0.000000
# 6 0.000000 0.000000 0.000000 0.000000 0.000000 0.019605
#
#
# Mechanical properties :
#
#
# Convention : Reuss Voigt Hill
#
# Bulk Modulus (GPa) = 35.41320 40.51105 37.96212
# Shear Modulus (GPa) = 18.75268 35.34735 27.05001
#
# Velocity S-wave (km/s) = 2.80191 3.84681 3.36516
# Velocity P-wave (km/s) = 5.02922 6.05724 5.56701
#
# Compressibility (1/GPa) = 0.02823806
#
# Stress axis : x y z
#
# Youngs Moduli (GPa) = 75.66417 117.04401 71.52179
#
# Poissons Ratio (x) = 0.03539 -0.02657
# Poissons Ratio (y) = 0.02288 0.27329
# Poissons Ratio (z) = -0.02811 0.44723
#
# Static dielectric constant tensor:
#      x y z
#    x 1.908690 0.000000 0.000000 
#    y 0.000000 1.978870 0.000000 
#    z 0.000000 0.000000 1.976730 
# 
# From -- ./inp_files/2263.got.cif
#   From: 2010.05.17/outbox.cif.g08.bks.cpg/sg20_2_cif.got.tgz:2263.got - 2010.06.03 22:52:26.
