data_PCOD9318564
_publ_section_title
;
Structure prediction by ZEFSAII (Michael W. Deem and Ramdas Pophale) SiO2 
 PCOD9318564
Probable space group: C 2 2 21
;
_chemical_formula_sum "Si O2"
_cell_formula_units_Z 52
_cell_length_a 9.122244
_cell_length_b 18.440394
_cell_length_c 15.860464
_cell_angle_alpha 90.000000
_cell_angle_beta 90.000000
_cell_angle_gamma 90.000000
_cell_volume 2668.011941
_symmetry_space_group_name_H-M "C 2 2 21"
_symmetry_group_IT_number 20
_symmetry_cell_setting 'orthorhombic'
loop_
_space_group_symop_operation_xyz
x,y,z
-x,-y,1/2+z
x,-y,-z
-x,y,1/2-z
1/2+x,1/2+y,z
1/2-x,1/2-y,1/2+z
1/2+x,1/2-y,-z
1/2-x,1/2+y,1/2-z
loop_
_atom_site_type_symbol
_atom_site_label
_atom_site_fract_x
_atom_site_fract_y
_atom_site_fract_z
Si Si1 0.032431 0.231492 0.990590
Si Si2 0.099605 0.193413 0.173510
Si Si3 0.334270 0.095636 0.777106
Si Si4 0.626759 0.299327 0.320631
Si Si5 0.172791 0.652272 0.535998
Si Si6 0.321366 0.500000 0.500000
Si Si7 0.881036 0.977183 0.682079
O O1 0.203171 0.213623 0.977497
O O2 0.949569 0.194069 0.912138
O O3 0.011967 0.202138 0.085728
O O4 0.974870 0.314195 0.996642
O O5 0.253915 0.234969 0.172716
O O6 0.128581 0.108833 0.186978
O O7 0.000000 0.221657 0.250000
O O8 0.500000 0.091883 0.750000
O O9 0.226156 0.133815 0.710624
O O10 0.333767 0.139680 0.864475
O O11 0.269644 0.016806 0.796705
O O12 0.500000 0.287480 0.250000
O O13 0.226353 0.574673 0.498853
O O14 0.414126 0.500019 0.585857
O O15 0.000000 0.002150 0.750000
#
# Coordination Sequence:
#
# PCOD9318564 Si02
#       7
#     8   8   8   8   8   4   8
#     4  12  22  40  64  96 126 168 214 266 316 394
#     4  11  24  42  63  94 134 171 208 273 329 382
#     4  11  24  41  63  91 126 168 216 272 322 386
#     4  12  23  37  63  96 123 164 218 262 318 385
#     4  11  23  40  68  93 129 173 214 262 330 379
#     4  10  20  42  62  90 130 172 204 266 322 386
#     4  10  22  39  65  89 122 171 215 256 329 389
#
# _framework density 19.490167
#
# number of rings (size 3 to 8) (size 9 to 14) (size 15 to 20)
#    0.000    0.923    4.615    2.769    2.154    0.615 
#    0.000    0.000    0.000    1.846    0.000    0.000 
#    0.000    0.000    0.000    0.000    0.000    0.000 
#
# Total GULP energy -145088.469056 kJ/mol
# GULP energy per Si atom -5580.325733 kJ/mol
# Density = 1.944581 g / cm^3
# Si number density = 19.490167 Si / 1000 Ang^3
#
#
#
# Elastic Constant Matrix: (Units=GPa)
#
#
# Indices 1 2 3 4 5 6 
#
# 1 105.2274 43.0248 63.4767 0.0000 0.0000 0.0000
# 2 43.0248 82.3399 27.1470 0.0000 0.0000 0.0000
# 3 63.4767 27.1470 158.7900 0.0000 0.0000 0.0000
# 4 0.0000 0.0000 0.0000 16.2806 0.0000 0.0000
# 5 0.0000 0.0000 0.0000 0.0000 36.9603 0.0000
# 6 0.0000 0.0000 0.0000 0.0000 0.0000 21.8639
#
#
#
# Elastic Compliance Matrix: (Units=1/GPa)
#
#
# Indices 1 2 3 4 5 6 
#
# 1 0.015031 -0.006224 -0.004945 0.000000 0.000000 0.000000
# 2 -0.006224 0.015447 -0.000153 0.000000 0.000000 0.000000
# 3 -0.004945 -0.000153 0.008300 0.000000 0.000000 0.000000
# 4 0.000000 0.000000 0.000000 0.061423 0.000000 0.000000
# 5 0.000000 0.000000 0.000000 0.000000 0.027056 0.000000
# 6 0.000000 0.000000 0.000000 0.000000 0.000000 0.045737
#
#
# Mechanical properties :
#
#
# Convention : Reuss Voigt Hill
#
# Bulk Modulus (GPa) = 61.97365 68.18382 65.07873
# Shear Modulus (GPa) = 24.87370 29.20155 27.03763
#
# Velocity S-wave (km/s) = 3.57630 3.87495 3.72861
# Velocity P-wave (km/s) = 6.99426 7.42159 7.21109
#
# Compressibility (1/GPa) = 0.01613589
#
# Stress axis : x y z
#
# Youngs Moduli (GPa) = 66.53063 64.73635 120.47675
#
# Poissons Ratio (x) = 0.40290 0.59570
# Poissons Ratio (y) = 0.41407 0.01842
# Poissons Ratio (z) = 0.32896 0.00990
#
# Static dielectric constant tensor:
#      x y z
#    x 1.674380 0.000000 0.000000 
#    y 0.000000 1.690000 0.000000 
#    z 0.000000 0.000000 1.733390 
# 
# From -- ./inp_files/19091.got.cif
#   From: 2010.05.17/outbox.cif.g08.bks.cpg/sg20_10_cif.got.tgz:19091.got - 2010.06.03 22:52:26.
