data_PCOD9318508
_publ_section_title
;
Structure prediction by ZEFSAII (Michael W. Deem and Ramdas Pophale) SiO2 
 PCOD9318508
Probable space group: C 2 2 21
;
_chemical_formula_sum "Si O2"
_cell_formula_units_Z 48
_cell_length_a 17.214157
_cell_length_b 16.862040
_cell_length_c 8.402570
_cell_angle_alpha 90.000000
_cell_angle_beta 90.000000
_cell_angle_gamma 90.000000
_cell_volume 2438.978736
_symmetry_space_group_name_H-M "C 2 2 21"
_symmetry_group_IT_number 20
_symmetry_cell_setting 'orthorhombic'
loop_
_space_group_symop_operation_xyz
x,y,z
-x,-y,1/2+z
x,-y,-z
-x,y,1/2-z
1/2+x,1/2+y,z
1/2-x,1/2-y,1/2+z
1/2+x,1/2-y,-z
1/2-x,1/2+y,1/2-z
loop_
_atom_site_type_symbol
_atom_site_label
_atom_site_fract_x
_atom_site_fract_y
_atom_site_fract_z
Si Si1 0.500000 0.621941 0.250000
Si Si2 0.149678 0.827522 0.927851
Si Si3 0.833241 0.086038 0.743450
Si Si4 0.225721 0.568223 0.259499
Si Si5 0.414588 0.025463 0.684453
Si Si6 0.559758 0.500000 0.500000
Si Si7 0.298255 0.152240 0.576014
O O1 0.420731 0.667448 0.299482
O O2 0.514525 0.563603 0.396894
O O3 0.229537 0.865670 0.859823
O O4 0.168467 0.737057 0.970087
O O5 0.130062 0.879475 0.083733
O O6 0.778839 0.154413 0.817387
O O7 0.777090 0.010582 0.713639
O O8 0.890993 0.051559 0.874414
O O9 0.136768 0.539651 0.281140
O O10 0.225351 0.599224 0.077097
O O11 0.500000 0.035900 0.750000
O O12 0.363425 0.105030 0.675671
O O13 0.420510 0.000000 0.500000
#
# Coordination Sequence:
#
# PCOD9318508 Si02
#       7
#     4   8   8   8   8   4   8
#     4  12  26  38  60  92 132 168 208 264 312 380
#     4  12  24  37  62  96 129 165 211 256 323 379
#     4  11  20  39  68  90 116 170 216 260 308 370
#     4  10  20  41  61  91 120 163 215 262 301 376
#     4   9  20  37  64  87 119 162 207 258 308 368
#     4  12  22  42  64  86 124 158 224 262 308 362
#     4  10  21  39  63  90 129 163 200 263 323 376
#
# _framework density 19.680368999999999
#
# number of rings (size 3 to 8) (size 9 to 14) (size 15 to 20)
#    0.000    1.333    3.333    3.500    1.167    2.667 
#    0.000    0.000   22.000    0.000    0.000    0.000 
#    0.000    0.000    0.000    0.000    0.000    0.000 
#
# Total GULP energy -133871.428597 kJ/mol
# GULP energy per Si atom -5577.976192 kJ/mol
# Density = 1.963558 g / cm^3
# Si number density = 19.680369 Si / 1000 Ang^3
#
#
#
# Elastic Constant Matrix: (Units=GPa)
#
#
# Indices 1 2 3 4 5 6 
#
# 1 84.0583 29.0361 36.6853 0.0000 0.0000 0.0000
# 2 29.0361 84.4671 19.5044 0.0000 0.0000 0.0000
# 3 36.6853 19.5044 64.3836 0.0000 0.0000 0.0000
# 4 0.0000 0.0000 0.0000 25.3945 0.0000 0.0000
# 5 0.0000 0.0000 0.0000 0.0000 32.3020 0.0000
# 6 0.0000 0.0000 0.0000 0.0000 0.0000 19.8099
#
#
#
# Elastic Compliance Matrix: (Units=1/GPa)
#
#
# Indices 1 2 3 4 5 6 
#
# 1 0.016930 -0.003862 -0.008477 0.000000 0.000000 0.000000
# 2 -0.003862 0.013611 -0.001922 0.000000 0.000000 0.000000
# 3 -0.008477 -0.001922 0.020944 0.000000 0.000000 0.000000
# 4 0.000000 0.000000 0.000000 0.039379 0.000000 0.000000
# 5 0.000000 0.000000 0.000000 0.000000 0.030958 0.000000
# 6 0.000000 0.000000 0.000000 0.000000 0.000000 0.050480
#
#
# Mechanical properties :
#
#
# Convention : Reuss Voigt Hill
#
# Bulk Modulus (GPa) = 43.55021 44.81784 44.18403
# Shear Modulus (GPa) = 23.98336 25.34683 24.66510
#
# Velocity S-wave (km/s) = 3.49470 3.59266 3.54402
# Velocity P-wave (km/s) = 6.20167 6.32708 6.26469
#
# Compressibility (1/GPa) = 0.02296200
#
# Stress axis : x y z
#
# Youngs Moduli (GPa) = 59.06637 73.47225 47.74606
#
# Poissons Ratio (x) = 0.28379 0.40472
# Poissons Ratio (y) = 0.22814 0.09179
# Poissons Ratio (z) = 0.50068 0.14124
#
# Static dielectric constant tensor:
#      x y z
#    x 1.712510 0.000000 0.000000 
#    y 0.000000 1.701730 0.000000 
#    z 0.000000 0.000000 1.689200 
# 
# From -- ./inp_files/9368.got.cif
#   From: 2010.05.17/outbox.cif.g08.bks.cpg/sg20_5_cif.got.tgz:9368.got - 2010.06.03 22:52:26.
