data_PCOD9318580
_publ_section_title
;
Structure prediction by ZEFSAII (Michael W. Deem and Ramdas Pophale) SiO2 
 PCOD9318580
Probable space group: C 2 2 21
;
_chemical_formula_sum "Si O2"
_cell_formula_units_Z 60
_cell_length_a 11.963907
_cell_length_b 11.677844
_cell_length_c 18.613834
_cell_angle_alpha 90.000000
_cell_angle_beta 90.000000
_cell_angle_gamma 90.000000
_cell_volume 2600.587881
_symmetry_space_group_name_H-M "C 2 2 21"
_symmetry_group_IT_number 20
_symmetry_cell_setting 'orthorhombic'
loop_
_space_group_symop_operation_xyz
x,y,z
-x,-y,1/2+z
x,-y,-z
-x,y,1/2-z
1/2+x,1/2+y,z
1/2-x,1/2-y,1/2+z
1/2+x,1/2-y,-z
1/2-x,1/2+y,1/2-z
loop_
_atom_site_type_symbol
_atom_site_label
_atom_site_fract_x
_atom_site_fract_y
_atom_site_fract_z
Si Si1 0.949756 0.877153 0.494915
Si Si2 0.325332 0.153494 0.542848
Si Si3 0.329998 0.324252 0.922551
Si Si4 0.604126 0.095215 0.302330
Si Si5 0.000000 0.746742 0.750000
Si Si6 0.332943 0.428902 0.770572
Si Si7 0.943249 0.602315 0.893365
Si Si8 0.392885 0.648971 0.856964
O O1 0.055605 0.880279 0.549278
O O2 0.006953 0.854507 0.416539
O O3 0.867818 0.781575 0.524745
O O4 0.894161 0.000000 0.500000
O O5 0.268344 0.120992 0.468203
O O6 0.438978 0.095342 0.566818
O O7 0.225527 0.144194 0.600317
O O8 0.307436 0.354781 0.841334
O O9 0.355500 0.188503 0.931154
O O10 0.500000 0.071864 0.250000
O O11 0.717173 0.047193 0.267538
O O12 0.606366 0.230215 0.316562
O O13 0.593485 0.024990 0.375884
O O14 0.906062 0.838615 0.724859
O O15 0.966670 0.668221 0.817201
O O16 0.392180 0.542940 0.801126
#
# Coordination Sequence:
#
# PCOD9318580 Si02
#       8
#     8   8   8   8   4   8   8   8
#     4  10  20  42  64  93 129 167 224 275 330 396
#     4  10  22  41  69  93 131 177 218 273 337 399
#     4   9  21  40  66  97 118 172 225 272 323 396
#     4  12  27  42  65 101 142 177 215 281 342 405
#     4  10  22  44  72  94 126 184 230 270 332 392
#     4  11  24  43  69  94 134 175 228 277 325 404
#     4  10  21  44  68  96 133 174 227 268 339 410
#     4  11  25  43  62 103 130 169 228 271 337 403
#
# _framework density 23.071708000000001
#
# number of rings (size 3 to 8) (size 9 to 14) (size 15 to 20)
#    0.000    1.600    2.000    1.600    6.533    1.067 
#    4.800    4.667    0.000    0.000    0.000    0.000 
#    0.000    0.000    0.000    0.000    0.000    0.000 
#
# Total GULP energy -167687.671962 kJ/mol
# GULP energy per Si atom -5589.589065 kJ/mol
# Density = 2.301920 g / cm^3
# Si number density = 23.071708 Si / 1000 Ang^3
#
#
#
# Elastic Constant Matrix: (Units=GPa)
#
#
# Indices 1 2 3 4 5 6 
#
# 1 58.4332 7.6595 12.1993 0.0000 0.0000 0.0000
# 2 7.6595 87.1158 7.7140 0.0000 0.0000 0.0000
# 3 12.1993 7.7140 38.2601 0.0000 0.0000 0.0000
# 4 0.0000 0.0000 0.0000 33.1182 0.0000 0.0000
# 5 0.0000 0.0000 0.0000 0.0000 26.0233 0.0000
# 6 0.0000 0.0000 0.0000 0.0000 0.0000 7.7046
#
#
#
# Elastic Compliance Matrix: (Units=1/GPa)
#
#
# Indices 1 2 3 4 5 6 
#
# 1 0.018441 -0.001121 -0.005654 0.000000 0.000000 0.000000
# 2 -0.001121 0.011756 -0.002013 0.000000 0.000000 0.000000
# 3 -0.005654 -0.002013 0.028345 0.000000 0.000000 0.000000
# 4 0.000000 0.000000 0.000000 0.030195 0.000000 0.000000
# 5 0.000000 0.000000 0.000000 0.000000 0.038427 0.000000
# 6 0.000000 0.000000 0.000000 0.000000 0.000000 0.129793
#
#
# Mechanical properties :
#
#
# Convention : Reuss Voigt Hill
#
# Bulk Modulus (GPa) = 24.40985 26.55052 25.48019
# Shear Modulus (GPa) = 17.34983 23.78499 20.56741
#
# Velocity S-wave (km/s) = 2.74523 3.21427 2.98896
# Velocity P-wave (km/s) = 4.54437 5.03072 4.79372
#
# Compressibility (1/GPa) = 0.04096707
#
# Stress axis : x y z
#
# Youngs Moduli (GPa) = 54.22744 85.06478 35.27900
#
# Poissons Ratio (x) = 0.09533 0.19946
# Poissons Ratio (y) = 0.06077 0.07101
# Poissons Ratio (z) = 0.30660 0.17122
#
# Static dielectric constant tensor:
#      x y z
#    x 1.895930 0.000000 0.000000 
#    y 0.000000 1.907820 0.000000 
#    z 0.000000 0.000000 1.875630 
# 
# From -- ./inp_files/27252.got.cif
#   From: 2010.05.17/outbox.cif.g08.bks.cpg/sg20_14_cif.got.tgz:27252.got - 2010.06.03 22:52:26.
