data_PCOD9318770
_publ_section_title
;
Structure prediction by ZEFSAII (Michael W. Deem and Ramdas Pophale) SiO2 
 PCOD9318770
Probable space group: C 2 2 21
;
_chemical_formula_sum "Si O2"
_cell_formula_units_Z 40
_cell_length_a 19.465220
_cell_length_b 9.340106
_cell_length_c 9.007279
_cell_angle_alpha 90.000000
_cell_angle_beta 90.000000
_cell_angle_gamma 90.000000
_cell_volume 1637.588338
_symmetry_space_group_name_H-M "C 2 2 21"
_symmetry_group_IT_number 20
_symmetry_cell_setting 'orthorhombic'
loop_
_space_group_symop_operation_xyz
x,y,z
-x,-y,1/2+z
x,-y,-z
-x,y,1/2-z
1/2+x,1/2+y,z
1/2-x,1/2-y,1/2+z
1/2+x,1/2-y,-z
1/2-x,1/2+y,1/2-z
loop_
_atom_site_type_symbol
_atom_site_label
_atom_site_fract_x
_atom_site_fract_y
_atom_site_fract_z
Si Si1 0.938929 0.929988 0.657271
Si Si2 0.086697 0.345083 0.020462
Si Si3 0.343736 0.215546 0.211545
Si Si4 0.650803 0.352203 0.561116
Si Si5 0.790874 0.394315 0.241457
O O1 0.959790 0.771236 0.601269
O O2 0.883904 0.901151 0.785548
O O3 0.000000 0.001771 0.750000
O O4 0.917766 0.000000 0.500000
O O5 0.154996 0.366210 0.123937
O O6 0.053592 0.500000 0.000000
O O7 0.112600 0.291938 0.861118
O O8 0.284076 0.334490 0.220938
O O9 0.306013 0.059664 0.199060
O O10 0.389560 0.276976 0.075531
O O11 0.681881 0.500000 0.500000
O O12 0.694491 0.214980 0.607076
#
# Coordination Sequence:
#
# PCOD9318770 Si02
#       5
#     8   8   8   8   8
#     4  11  24  44  66  90 117 151 202 263 325 384
#     4   9  21  40  59  86 125 164 204 255 307 367
#     4  11  20  36  59  90 129 168 213 254 303 363
#     4  11  22  37  59  89 123 166 210 254 309 368
#     4  10  21  35  58  91 131 173 212 254 300 362
#
# _framework density 24.426164
#
# number of rings (size 3 to 8) (size 9 to 14) (size 15 to 20)
#    0.000    1.600    0.000    4.800    0.000    3.200 
#    0.000    7.000    0.000    0.000    0.000    0.000 
#    0.000    0.000    0.000    0.000    0.000    0.000 
#
# Total GULP energy -111415.234617 kJ/mol
# GULP energy per Si atom -5570.761731 kJ/mol
# Density = 2.437057 g / cm^3
# Si number density = 24.426164 Si / 1000 Ang^3
#
#
#
# Elastic Constant Matrix: (Units=GPa)
#
#
# Indices 1 2 3 4 5 6 
#
# 1 20.6375 23.2247 22.5182 0.0000 0.0000 0.0000
# 2 23.2247 166.1302 88.0808 0.0000 0.0000 0.0000
# 3 22.5182 88.0808 181.1548 0.0000 0.0000 0.0000
# 4 0.0000 0.0000 0.0000 71.5363 0.0000 0.0000
# 5 0.0000 0.0000 0.0000 0.0000 23.4685 0.0000
# 6 0.0000 0.0000 0.0000 0.0000 0.0000 10.7166
#
#
#
# Elastic Compliance Matrix: (Units=1/GPa)
#
#
# Indices 1 2 3 4 5 6 
#
# 1 0.060182 -0.005992 -0.004568 0.000000 0.000000 0.000000
# 2 -0.005992 0.008707 -0.003489 0.000000 0.000000 0.000000
# 3 -0.004568 -0.003489 0.007784 0.000000 0.000000 0.000000
# 4 0.000000 0.000000 0.000000 0.013979 0.000000 0.000000
# 5 0.000000 0.000000 0.000000 0.000000 0.042610 0.000000
# 6 0.000000 0.000000 0.000000 0.000000 0.000000 0.093314
#
#
# Mechanical properties :
#
#
# Convention : Reuss Voigt Hill
#
# Bulk Modulus (GPa) = 20.58575 70.61886 45.60231
# Shear Modulus (GPa) = 18.45947 36.75085 27.60516
#
# Velocity S-wave (km/s) = 2.75203 3.88309 3.36541
# Velocity P-wave (km/s) = 4.30630 7.00560 5.81475
#
# Compressibility (1/GPa) = 0.04857730
#
# Stress axis : x y z
#
# Youngs Moduli (GPa) = 16.61621 114.85564 128.46717
#
# Poissons Ratio (x) = 0.68818 0.58679
# Poissons Ratio (y) = 0.09956 0.44816
# Poissons Ratio (z) = 0.07590 0.40068
#
# Static dielectric constant tensor:
#      x y z
#    x 2.006620 0.000000 0.000000 
#    y 0.000000 1.980030 0.000000 
#    z 0.000000 0.000000 2.170490 
# 
# From -- ./inp_files/6077.got.cif
#   From: 2010.05.17/outbox.cif.g08.bks.cpg/sg20_4_cif.got.tgz:6077.got - 2010.06.03 22:52:26.
