data_PCOD9318322
_publ_section_title
;
Structure prediction by ZEFSAII (Michael W. Deem and Ramdas Pophale) SiO2 
 PCOD9318322
Probable space group: C 2 2 21
;
_chemical_formula_sum "Si O2"
_cell_formula_units_Z 36
_cell_length_a 13.523543
_cell_length_b 22.663745
_cell_length_c 5.289111
_cell_angle_alpha 90.000000
_cell_angle_beta 90.000000
_cell_angle_gamma 90.000000
_cell_volume 1621.081475
_symmetry_space_group_name_H-M "C 2 2 21"
_symmetry_group_IT_number 20
_symmetry_cell_setting 'orthorhombic'
loop_
_space_group_symop_operation_xyz
x,y,z
-x,-y,1/2+z
x,-y,-z
-x,y,1/2-z
1/2+x,1/2+y,z
1/2-x,1/2-y,1/2+z
1/2+x,1/2-y,-z
1/2-x,1/2+y,1/2-z
loop_
_atom_site_type_symbol
_atom_site_label
_atom_site_fract_x
_atom_site_fract_y
_atom_site_fract_z
Si Si1 0.795517 0.275210 0.985478
Si Si2 0.757519 0.111486 0.773893
Si Si3 0.755259 0.500000 0.000000
Si Si4 0.593478 0.938872 0.878381
Si Si5 0.937981 0.820910 0.994892
O O1 0.729795 0.240606 0.196973
O O2 0.770956 0.342058 0.055111
O O3 0.902500 0.247033 0.035189
O O4 0.798405 0.049522 0.665624
O O5 0.655456 0.097493 0.918463
O O6 0.839213 0.140835 0.954580
O O7 0.825901 0.538240 0.179862
O O8 0.500000 0.907997 0.750000
O O9 0.553631 0.000000 0.000000
O O10 0.000000 0.838833 0.750000
O O11 0.000000 0.826543 0.250000
#
# Coordination Sequence:
#
# PCOD9318322 Si02
#       5
#     8   8   4   8   8
#     4  10  22  43  70  99 132 176 231 290 349 403
#     4  10  24  41  72  99 138 183 231 292 353 427
#     4  10  22  40  70  96 140 178 226 280 370 410
#     4  10  20  39  64  95 134 176 222 282 355 424
#     4  11  24  45  72 101 141 188 237 288 346 408
#
# _framework density 22.207398999999999
#
# number of rings (size 3 to 8) (size 9 to 14) (size 15 to 20)
#    0.000    1.778    1.111    2.667    9.333    0.000 
#    4.000    0.000    7.333    0.000    0.000    0.000 
#    0.000    0.000    0.000    0.000    0.000    0.000 
#
# Total GULP energy -100526.702945 kJ/mol
# GULP energy per Si atom -5584.816830 kJ/mol
# Density = 2.215685 g / cm^3
# Si number density = 22.207399 Si / 1000 Ang^3
#
#
#
# Elastic Constant Matrix: (Units=GPa)
#
#
# Indices 1 2 3 4 5 6 
#
# 1 73.6770 41.1223 23.1825 0.0000 0.0000 0.0000
# 2 41.1223 118.9367 30.6534 0.0000 0.0000 0.0000
# 3 23.1825 30.6534 71.3165 0.0000 0.0000 0.0000
# 4 0.0000 0.0000 0.0000 34.7189 0.0000 0.0000
# 5 0.0000 0.0000 0.0000 0.0000 32.3188 0.0000
# 6 0.0000 0.0000 0.0000 0.0000 0.0000 -9.2915
#
#
#
# Elastic Compliance Matrix: (Units=1/GPa)
#
#
# Indices 1 2 3 4 5 6 
#
# 1 0.017556 -0.005172 -0.003484 0.000000 0.000000 0.000000
# 2 -0.005172 0.010979 -0.003038 0.000000 0.000000 0.000000
# 3 -0.003484 -0.003038 0.016460 0.000000 0.000000 0.000000
# 4 0.000000 0.000000 0.000000 0.028803 0.000000 0.000000
# 5 0.000000 0.000000 0.000000 0.000000 0.030942 0.000000
# 6 0.000000 0.000000 0.000000 0.000000 0.000000 -0.107625
#
#
# Mechanical properties :
#
#
# Convention : Reuss Voigt Hill
#
# Bulk Modulus (GPa) = 46.27952 50.42738 48.35345
# Shear Modulus (GPa) = 180.48273 22.81403 101.64838
#
# Velocity S-wave (km/s) = 9.02485 3.20865 6.77286
# Velocity P-wave (km/s) = 11.37902 6.04020 9.10950
#
# Compressibility (1/GPa) = 0.02160783
#
# Stress axis : x y z
#
# Youngs Moduli (GPa) = 56.96186 91.08316 60.75289
#
# Poissons Ratio (x) = 0.47108 0.21164
# Poissons Ratio (y) = 0.29461 0.18455
# Poissons Ratio (z) = 0.19844 0.27669
#
# Static dielectric constant tensor:
#      x y z
#    x 1.819900 0.000000 0.000000 
#    y 0.000000 1.865090 0.000000 
#    z 0.000000 0.000000 1.894580 
# 
# From -- ./inp_files/1231.got.cif
#   From: 2010.05.17/outbox.cif.g08.bks.cpg/sg20_1_cif.got.tgz:1231.got - 2010.06.03 22:52:26.
