data_PCOD9318172
_publ_section_title
;
Structure prediction by ZEFSAII (Michael W. Deem and Ramdas Pophale) SiO2 
 PCOD9318172
Probable space group: C 2 2 21
;
_chemical_formula_sum "Si O2"
_cell_formula_units_Z 60
_cell_length_a 12.188585
_cell_length_b 7.010760
_cell_length_c 28.389288
_cell_angle_alpha 90.000000
_cell_angle_beta 90.000000
_cell_angle_gamma 90.000000
_cell_volume 2425.899981
_symmetry_space_group_name_H-M "C 2 2 21"
_symmetry_group_IT_number 20
_symmetry_cell_setting 'orthorhombic'
loop_
_space_group_symop_operation_xyz
x,y,z
-x,-y,1/2+z
x,-y,-z
-x,y,1/2-z
1/2+x,1/2+y,z
1/2-x,1/2-y,1/2+z
1/2+x,1/2-y,-z
1/2-x,1/2+y,1/2-z
loop_
_atom_site_type_symbol
_atom_site_label
_atom_site_fract_x
_atom_site_fract_y
_atom_site_fract_z
Si Si1 0.530609 0.263957 0.167146
Si Si2 0.975956 0.000000 0.000000
Si Si3 0.800911 0.237652 0.406789
Si Si4 0.537100 0.621890 0.392752
Si Si5 0.328515 0.225813 0.493033
Si Si6 0.878367 0.557919 0.733956
Si Si7 0.220191 0.362112 0.683180
Si Si8 0.762151 0.673130 0.393080
O O1 0.505112 0.478555 0.148221
O O2 0.592641 0.150249 0.210403
O O3 0.405552 0.198256 0.174358
O O4 0.617519 0.203029 0.127512
O O5 0.053245 0.819173 0.009536
O O6 0.932470 0.961534 0.945988
O O7 0.771424 0.193293 0.460372
O O8 0.763397 0.085443 0.368506
O O9 0.752130 0.441480 0.393675
O O10 0.932316 0.251849 0.403859
O O11 0.643901 0.725847 0.372247
O O12 0.267079 0.258753 0.445038
O O13 0.335601 0.000000 0.500000
O O14 0.794521 0.519389 0.776837
O O15 0.809404 0.703986 0.701154
O O16 0.000000 0.631874 0.750000
#
# Coordination Sequence:
#
# PCOD9318172 Si02
#       8
#     8   4   8   8   8   8   8   8
#     4  11  21  43  68  93 131 167 218 274 333 405
#     4  10  20  38  62  96 136 182 234 272 336 408
#     4  10  22  41  62  96 130 166 227 264 330 403
#     4  11  23  37  65  96 130 179 217 272 330 401
#     4   9  20  37  66  93 137 182 223 280 335 407
#     4  10  24  44  65  96 128 164 221 281 341 410
#     4  11  23  46  69  95 128 177 218 282 346 398
#     4  11  21  43  65  95 136 179 217 270 335 396
#
# _framework density 24.733087999999999
#
# number of rings (size 3 to 8) (size 9 to 14) (size 15 to 20)
#    0.000    1.600    4.000    0.000    4.667    0.000 
#    7.200    0.000    5.867    0.000    0.000    0.000 
#    0.000    0.000    0.000    0.000    0.000    0.000 
#
# Total GULP energy -167024.076206 kJ/mol
# GULP energy per Si atom -5567.469207 kJ/mol
# Density = 2.467679 g / cm^3
# Si number density = 24.733088 Si / 1000 Ang^3
#
#
#
# Elastic Constant Matrix: (Units=GPa)
#
#
# Indices 1 2 3 4 5 6 
#
# 1 135.3477 33.2520 39.7839 0.0000 0.0000 0.0000
# 2 33.2520 64.3924 20.1553 0.0000 0.0000 0.0000
# 3 39.7839 20.1553 122.4169 0.0000 0.0000 0.0000
# 4 0.0000 0.0000 0.0000 26.8621 0.0000 0.0000
# 5 0.0000 0.0000 0.0000 0.0000 38.3836 0.0000
# 6 0.0000 0.0000 0.0000 0.0000 0.0000 33.3556
#
#
#
# Elastic Compliance Matrix: (Units=1/GPa)
#
#
# Indices 1 2 3 4 5 6 
#
# 1 0.009030 -0.003948 -0.002285 0.000000 0.000000 0.000000
# 2 -0.003948 0.018100 -0.001697 0.000000 0.000000 0.000000
# 3 -0.002285 -0.001697 0.009191 0.000000 0.000000 0.000000
# 4 0.000000 0.000000 0.000000 0.037227 0.000000 0.000000
# 5 0.000000 0.000000 0.000000 0.000000 0.026053 0.000000
# 6 0.000000 0.000000 0.000000 0.000000 0.000000 0.029980
#
#
# Mechanical properties :
#
#
# Convention : Reuss Voigt Hill
#
# Bulk Modulus (GPa) = 48.87299 56.50437 52.68868
# Shear Modulus (GPa) = 32.83870 34.98464 33.91167
#
# Velocity S-wave (km/s) = 3.64775 3.76505 3.70686
# Velocity P-wave (km/s) = 6.12735 6.46499 6.29843
#
# Compressibility (1/GPa) = 0.02046120
#
# Stress axis : x y z
#
# Youngs Moduli (GPa) = 110.74428 55.24981 108.80608
#
# Poissons Ratio (x) = 0.21812 0.24858
# Poissons Ratio (y) = 0.43720 0.18464
# Poissons Ratio (z) = 0.25300 0.09376
#
# Static dielectric constant tensor:
#      x y z
#    x 1.902600 0.000000 0.000000 
#    y 0.000000 1.989210 0.000000 
#    z 0.000000 0.000000 2.078630 
# 
# From -- ./inp_files/31178.got.cif
#   From: 2010.05.17/outbox.cif.g08.bks.cpg/sg20_16_cif.got.tgz:31178.got - 2010.06.03 22:52:26.
