data_PCOD9318308
_publ_section_title
;
Structure prediction by ZEFSAII (Michael W. Deem and Ramdas Pophale) SiO2 
 PCOD9318308
Probable space group: C 2 2 21
;
_chemical_formula_sum "Si O2"
_cell_formula_units_Z 64
_cell_length_a 9.103032
_cell_length_b 23.278640
_cell_length_c 15.963751
_cell_angle_alpha 90.000000
_cell_angle_beta 90.000000
_cell_angle_gamma 90.000000
_cell_volume 3382.817889
_symmetry_space_group_name_H-M "C 2 2 21"
_symmetry_group_IT_number 20
_symmetry_cell_setting 'orthorhombic'
loop_
_space_group_symop_operation_xyz
x,y,z
-x,-y,1/2+z
x,-y,-z
-x,y,1/2-z
1/2+x,1/2+y,z
1/2-x,1/2-y,1/2+z
1/2+x,1/2-y,-z
1/2-x,1/2+y,1/2-z
loop_
_atom_site_type_symbol
_atom_site_label
_atom_site_fract_x
_atom_site_fract_y
_atom_site_fract_z
Si Si1 0.634842 0.568472 0.095871
Si Si2 0.556705 0.772951 0.415961
Si Si3 0.599323 0.341513 0.327292
Si Si4 0.213225 0.736119 0.416694
Si Si5 0.615869 0.563508 0.897375
Si Si6 0.090924 0.160357 0.329320
Si Si7 0.160021 0.367587 0.710406
Si Si8 0.859290 0.375397 0.209437
O O1 0.588965 0.503706 0.117913
O O2 0.515259 0.614832 0.126501
O O3 0.785166 0.584920 0.143719
O O4 0.643344 0.572383 0.995879
O O5 0.384392 0.755036 0.426152
O O6 0.640298 0.791020 0.500644
O O7 0.632204 0.713575 0.386718
O O8 0.583982 0.821502 0.345985
O O9 0.500000 0.319751 0.250000
O O10 0.621106 0.293191 0.396209
O O11 0.517550 0.396886 0.364855
O O12 0.754790 0.354830 0.284911
O O13 0.189410 0.692185 0.339645
O O14 0.758681 0.584576 0.847601
O O15 0.229403 0.129982 0.288653
O O16 0.000000 0.185143 0.250000
O O17 0.000000 0.371585 0.750000
O O18 0.000000 0.404987 0.250000
#
# Coordination Sequence:
#
# PCOD9318308 Si02
#       8
#     8   8   8   8   8   8   8   8
#     4  10  21  44  67  88 119 161 207 256 302 364
#     4  12  24  37  60  90 129 167 202 246 310 367
#     4  10  22  37  61  87 121 160 206 249 298 366
#     4  12  24  38  58  92 129 166 206 249 309 368
#     4  10  23  42  66  90 120 160 209 252 304 364
#     4  10  20  39  64  84 119 162 204 249 302 365
#     4  11  24  39  61  93 123 160 203 256 307 359
#     4  11  22  39  59  88 126 163 197 251 304 363
#
# _framework density 18.919139000000001
#
# number of rings (size 3 to 8) (size 9 to 14) (size 15 to 20)
#    0.000    1.250    3.750    3.000    5.250    5.000 
#    0.000    0.000    0.000    3.000    0.000    0.000 
#    0.000    0.000    0.000    0.000    0.000    0.000 
#
# Total GULP energy -178652.733859 kJ/mol
# GULP energy per Si atom -5582.897933 kJ/mol
# Density = 1.887608 g / cm^3
# Si number density = 18.919139 Si / 1000 Ang^3
#
#
#
# Elastic Constant Matrix: (Units=GPa)
#
#
# Indices 1 2 3 4 5 6 
#
# 1 80.3646 2.0345 26.5730 0.0000 0.0000 0.0000
# 2 2.0345 76.5994 29.2970 0.0000 0.0000 0.0000
# 3 26.5730 29.2970 71.4594 0.0000 0.0000 0.0000
# 4 0.0000 0.0000 0.0000 22.1540 0.0000 0.0000
# 5 0.0000 0.0000 0.0000 0.0000 24.4825 0.0000
# 6 0.0000 0.0000 0.0000 0.0000 0.0000 21.6127
#
#
#
# Elastic Compliance Matrix: (Units=1/GPa)
#
#
# Indices 1 2 3 4 5 6 
#
# 1 0.014437 0.001980 -0.006180 0.000000 0.000000 0.000000
# 2 0.001980 0.015754 -0.007195 0.000000 0.000000 0.000000
# 3 -0.006180 -0.007195 0.019242 0.000000 0.000000 0.000000
# 4 0.000000 0.000000 0.000000 0.045139 0.000000 0.000000
# 5 0.000000 0.000000 0.000000 0.000000 0.040845 0.000000
# 6 0.000000 0.000000 0.000000 0.000000 0.000000 0.046269
#
#
# Mechanical properties :
#
#
# Convention : Reuss Voigt Hill
#
# Bulk Modulus (GPa) = 37.53413 38.24806 37.89109
# Shear Modulus (GPa) = 23.43477 25.01776 24.22627
#
# Velocity S-wave (km/s) = 3.52331 3.64036 3.58231
# Velocity P-wave (km/s) = 6.03605 6.15874 6.09771
#
# Compressibility (1/GPa) = 0.02664242
#
# Stress axis : x y z
#
# Youngs Moduli (GPa) = 69.26780 63.47450 51.96914
#
# Poissons Ratio (x) = -0.12570 0.32119
# Poissons Ratio (y) = -0.13718 0.37394
# Poissons Ratio (z) = 0.42810 0.45673
#
# Static dielectric constant tensor:
#      x y z
#    x 1.675900 0.000000 0.000000 
#    y 0.000000 1.644790 0.000000 
#    z 0.000000 0.000000 1.668570 
# 
# From -- ./inp_files/19382.got.cif
#   From: 2010.05.17/outbox.cif.g08.bks.cpg/sg20_10_cif.got.tgz:19382.got - 2010.06.03 22:52:26.
