data_PCOD9318451
_publ_section_title
;
Structure prediction by ZEFSAII (Michael W. Deem and Ramdas Pophale) SiO2 
 PCOD9318451
Probable space group: C 2 2 21
;
_chemical_formula_sum "Si O2"
_cell_formula_units_Z 40
_cell_length_a 8.913880
_cell_length_b 19.566839
_cell_length_c 11.489573
_cell_angle_alpha 90.000000
_cell_angle_beta 90.000000
_cell_angle_gamma 90.000000
_cell_volume 2003.970590
_symmetry_space_group_name_H-M "C 2 2 21"
_symmetry_group_IT_number 20
_symmetry_cell_setting 'orthorhombic'
loop_
_space_group_symop_operation_xyz
x,y,z
-x,-y,1/2+z
x,-y,-z
-x,y,1/2-z
1/2+x,1/2+y,z
1/2-x,1/2-y,1/2+z
1/2+x,1/2-y,-z
1/2-x,1/2+y,1/2-z
loop_
_atom_site_type_symbol
_atom_site_label
_atom_site_fract_x
_atom_site_fract_y
_atom_site_fract_z
Si Si1 0.328500 0.115229 0.952209
Si Si2 0.897924 0.771910 0.536352
Si Si3 0.417624 0.612956 0.128557
Si Si4 0.000000 0.313167 0.250000
Si Si5 0.074533 0.359081 0.875438
Si Si6 0.900076 0.000000 0.500000
O O1 0.393590 0.141455 0.830936
O O2 0.242693 0.178887 0.013782
O O3 0.466242 0.098404 0.038274
O O4 0.210597 0.054359 0.939409
O O5 0.903309 0.732198 0.659507
O O6 0.909965 0.715050 0.436880
O O7 0.037864 0.824434 0.543079
O O8 0.500000 0.628407 0.250000
O O9 0.239903 0.609846 0.138031
O O10 0.494081 0.544126 0.083053
O O11 0.000000 0.353370 0.750000
#
# Coordination Sequence:
#
# PCOD9318451 Si02
#       6
#     8   8   8   4   8   4
#     4  10  23  41  66  97 131 171 213 268 319 387
#     4  10  21  39  68  97 133 166 203 266 333 391
#     4  11  23  44  64  88 131 176 207 266 328 388
#     4  10  20  40  68 100 134 158 214 272 328 380
#     4  11  22  37  67 104 125 165 215 265 329 388
#     4  10  24  48  60  88 130 174 226 254 322 394
#
# _framework density 19.960373000000001
#
# number of rings (size 3 to 8) (size 9 to 14) (size 15 to 20)
#    0.000    1.600    1.000    4.800    2.800    0.800 
#   12.600    2.000    0.000    0.000    0.000    0.000 
#    0.000    0.000    0.000    0.000    0.000    0.000 
#
# Total GULP energy -111722.003383 kJ/mol
# GULP energy per Si atom -5586.100169 kJ/mol
# Density = 1.991494 g / cm^3
# Si number density = 19.960373 Si / 1000 Ang^3
#
#
#
# Elastic Constant Matrix: (Units=GPa)
#
#
# Indices 1 2 3 4 5 6 
#
# 1 173.7518 62.3915 73.0083 0.0000 0.0000 0.0000
# 2 62.3915 110.6141 60.7191 0.0000 0.0000 0.0000
# 3 73.0083 60.7191 120.1153 0.0000 0.0000 0.0000
# 4 0.0000 0.0000 0.0000 19.7905 0.0000 0.0000
# 5 0.0000 0.0000 0.0000 0.0000 32.6204 0.0000
# 6 0.0000 0.0000 0.0000 0.0000 0.0000 17.1412
#
#
#
# Elastic Compliance Matrix: (Units=1/GPa)
#
#
# Indices 1 2 3 4 5 6 
#
# 1 0.008247 -0.002630 -0.003683 0.000000 0.000000 0.000000
# 2 -0.002630 0.013351 -0.005151 0.000000 0.000000 0.000000
# 3 -0.003683 -0.005151 0.013168 0.000000 0.000000 0.000000
# 4 0.000000 0.000000 0.000000 0.050529 0.000000 0.000000
# 5 0.000000 0.000000 0.000000 0.000000 0.030656 0.000000
# 6 0.000000 0.000000 0.000000 0.000000 0.000000 0.058339
#
#
# Mechanical properties :
#
#
# Convention : Reuss Voigt Hill
#
# Bulk Modulus (GPa) = 84.47056 88.52434 86.49745
# Shear Modulus (GPa) = 24.85526 27.80124 26.32825
#
# Velocity S-wave (km/s) = 3.53261 3.73610 3.63578
# Velocity P-wave (km/s) = 7.68441 7.94088 7.81370
#
# Compressibility (1/GPa) = 0.01183844
#
# Stress axis : x y z
#
# Youngs Moduli (GPa) = 121.24918 74.89986 75.94252
#
# Poissons Ratio (x) = 0.19699 0.27973
# Poissons Ratio (y) = 0.31889 0.39114
# Poissons Ratio (z) = 0.44662 0.38577
#
# Static dielectric constant tensor:
#      x y z
#    x 1.725400 0.000000 0.000000 
#    y 0.000000 1.720970 0.000000 
#    z 0.000000 0.000000 1.719340 
# 
# From -- ./inp_files/12949.got.cif
#   From: 2010.05.17/outbox.cif.g08.bks.cpg/sg20_7_cif.got.tgz:12949.got - 2010.06.03 22:52:26.
