data_PCOD9318487
_publ_section_title
;
Structure prediction by ZEFSAII (Michael W. Deem and Ramdas Pophale) SiO2 
 PCOD9318487
Probable space group: C 2 2 21
;
_chemical_formula_sum "Si O2"
_cell_formula_units_Z 60
_cell_length_a 5.762656
_cell_length_b 22.383878
_cell_length_c 18.208529
_cell_angle_alpha 90.000000
_cell_angle_beta 90.000000
_cell_angle_gamma 90.000000
_cell_volume 2348.728878
_symmetry_space_group_name_H-M "C 2 2 21"
_symmetry_group_IT_number 20
_symmetry_cell_setting 'orthorhombic'
loop_
_space_group_symop_operation_xyz
x,y,z
-x,-y,1/2+z
x,-y,-z
-x,y,1/2-z
1/2+x,1/2+y,z
1/2-x,1/2-y,1/2+z
1/2+x,1/2-y,-z
1/2-x,1/2+y,1/2-z
loop_
_atom_site_type_symbol
_atom_site_label
_atom_site_fract_x
_atom_site_fract_y
_atom_site_fract_z
Si Si1 0.197328 0.608050 0.376368
Si Si2 0.975154 0.386382 0.333615
Si Si3 0.500000 0.625873 0.250000
Si Si4 0.287702 0.274700 0.973384
Si Si5 0.387096 0.788698 0.681055
Si Si6 0.485413 0.383634 0.335407
Si Si7 0.898292 0.491941 0.576823
Si Si8 0.463473 0.594049 0.999625
O O1 0.395352 0.591400 0.318326
O O2 0.302629 0.609348 0.457252
O O3 0.089229 0.671754 0.356556
O O4 0.007827 0.557174 0.370835
O O5 0.734234 0.349427 0.340057
O O6 0.928929 0.444704 0.383205
O O7 0.000000 0.407966 0.250000
O O8 0.227200 0.357419 0.344374
O O9 0.294450 0.666258 0.218271
O O10 0.250929 0.263300 0.887105
O O11 0.542213 0.248565 0.993706
O O12 0.310513 0.345437 0.991965
O O13 0.500000 0.753470 0.750000
O O14 0.500000 0.408367 0.250000
O O15 0.492324 0.420022 0.413542
O O16 0.036241 0.500000 0.500000
O O17 0.671344 0.456703 0.545518
#
# Coordination Sequence:
#
# PCOD9318487 Si02
#       8
#     8   8   4   8   8   8   8   8
#     4  11  22  39  66 101 145 187 236 285 363 430
#     4  10  23  42  64  99 141 186 236 289 343 421
#     4  10  20  40  70  98 142 186 226 288 372 442
#     4  12  27  47  74 109 143 187 241 301 365 434
#     4  10  22  43  72 104 143 183 226 296 369 436
#     4  10  23  46  70  94 139 193 244 295 348 404
#     4  12  24  38  65 102 141 187 241 289 354 427
#     4  12  25  43  72  99 144 185 244 299 357 432
#
# _framework density 25.545733999999999
#
# number of rings (size 3 to 8) (size 9 to 14) (size 15 to 20)
#    0.000    1.067    4.000    1.600    3.733    3.200 
#    1.200    0.667    0.000    0.000    0.000    0.000 
#    0.000    0.000    0.000    0.000    0.000    0.000 
#
# Total GULP energy -167118.558514 kJ/mol
# GULP energy per Si atom -5570.618617 kJ/mol
# Density = 2.548759 g / cm^3
# Si number density = 25.545734 Si / 1000 Ang^3
#
#
#
# Elastic Constant Matrix: (Units=GPa)
#
#
# Indices 1 2 3 4 5 6 
#
# 1 176.4317 25.1180 22.8081 0.0000 0.0000 0.0000
# 2 25.1180 98.0544 35.2864 0.0000 0.0000 0.0000
# 3 22.8081 35.2864 157.3804 0.0000 0.0000 0.0000
# 4 0.0000 0.0000 0.0000 22.4356 0.0000 0.0000
# 5 0.0000 0.0000 0.0000 0.0000 47.9922 0.0000
# 6 0.0000 0.0000 0.0000 0.0000 0.0000 19.6011
#
#
#
# Elastic Compliance Matrix: (Units=1/GPa)
#
#
# Indices 1 2 3 4 5 6 
#
# 1 0.005928 -0.001316 -0.000564 0.000000 0.000000 0.000000
# 2 -0.001316 0.011385 -0.002362 0.000000 0.000000 0.000000
# 3 -0.000564 -0.002362 0.006965 0.000000 0.000000 0.000000
# 4 0.000000 0.000000 0.000000 0.044572 0.000000 0.000000
# 5 0.000000 0.000000 0.000000 0.000000 0.020837 0.000000
# 6 0.000000 0.000000 0.000000 0.000000 0.000000 0.051018
#
#
# Mechanical properties :
#
#
# Convention : Reuss Voigt Hill
#
# Bulk Modulus (GPa) = 63.30966 66.47683 64.89324
# Shear Modulus (GPa) = 32.37207 41.24937 36.81072
#
# Velocity S-wave (km/s) = 3.56367 4.02273 3.80013
# Velocity P-wave (km/s) = 6.46294 6.90330 6.68675
#
# Compressibility (1/GPa) = 0.01579538
#
# Stress axis : x y z
#
# Youngs Moduli (GPa) = 168.68704 87.83139 143.56681
#
# Poissons Ratio (x) = 0.11555 0.08100
# Poissons Ratio (y) = 0.22192 0.33912
# Poissons Ratio (z) = 0.09517 0.20747
#
# Static dielectric constant tensor:
#      x y z
#    x 2.109610 0.000000 0.000000 
#    y 0.000000 2.038480 0.000000 
#    z 0.000000 0.000000 2.054990 
# 
# From -- ./inp_files/22920.got.cif
#   From: 2010.05.17/outbox.cif.g08.bks.cpg/sg20_12_cif.got.tgz:22920.got - 2010.06.03 22:52:26.
