data_PCOD9318908
_publ_section_title
;
Structure prediction by ZEFSAII (Michael W. Deem and Ramdas Pophale) SiO2 
 PCOD9318908
Probable space group: C 2 2 21
;
_chemical_formula_sum "Si O2"
_cell_formula_units_Z 60
_cell_length_a 6.576690
_cell_length_b 18.886714
_cell_length_c 19.196911
_cell_angle_alpha 90.000000
_cell_angle_beta 90.000000
_cell_angle_gamma 90.000000
_cell_volume 2384.487920
_symmetry_space_group_name_H-M "C 2 2 21"
_symmetry_group_IT_number 20
_symmetry_cell_setting 'orthorhombic'
loop_
_space_group_symop_operation_xyz
x,y,z
-x,-y,1/2+z
x,-y,-z
-x,y,1/2-z
1/2+x,1/2+y,z
1/2-x,1/2-y,1/2+z
1/2+x,1/2-y,-z
1/2-x,1/2+y,1/2-z
loop_
_atom_site_type_symbol
_atom_site_label
_atom_site_fract_x
_atom_site_fract_y
_atom_site_fract_z
Si Si1 0.991977 0.820385 0.452662
Si Si2 0.181102 0.589200 0.878694
Si Si3 0.057736 0.540757 0.395355
Si Si4 0.551578 0.496552 0.822727
Si Si5 0.223912 0.365012 0.327495
Si Si6 0.795763 0.331009 0.567919
Si Si7 0.500000 0.101967 0.250000
Si Si8 0.776134 0.216272 0.224362
O O1 0.194542 0.844932 0.410632
O O2 0.081189 0.840737 0.528209
O O3 0.812492 0.856595 0.407009
O O4 0.917724 0.739309 0.455952
O O5 0.357624 0.534324 0.856327
O O6 0.028877 0.535029 0.919206
O O7 0.018096 0.626797 0.828777
O O8 0.300712 0.539144 0.380393
O O9 0.952142 0.603896 0.437064
O O10 0.973602 0.552767 0.316183
O O11 0.500000 0.456475 0.750000
O O12 0.686788 0.563251 0.797336
O O13 0.301046 0.295714 0.287866
O O14 0.742283 0.319261 0.648617
O O15 0.664862 0.160547 0.273802
O O16 0.000000 0.223208 0.250000
#
# Coordination Sequence:
#
# PCOD9318908 Si02
#       8
#     8   8   8   8   8   8   4   8
#     4  10  23  45  68  98 134 180 241 301 374 439
#     4  10  22  42  67  94 141 185 242 296 361 444
#     4  10  22  43  65  97 139 184 237 300 361 440
#     4  10  21  37  65 100 138 191 235 287 361 428
#     4   9  22  39  62 100 138 187 238 297 359 438
#     4  10  24  46  70 100 139 187 242 313 381 444
#     4  10  22  40  60  96 144 176 236 290 352 444
#     4  10  23  39  63 100 138 181 233 296 367 440
#
# _framework density 25.162634000000001
#
# number of rings (size 3 to 8) (size 9 to 14) (size 15 to 20)
#    0.000    2.133    0.000    0.800    6.533    7.467 
#    2.400    0.000    2.933    0.000    0.000    0.000 
#    0.000    0.000    0.000    0.000    0.000    0.000 
#
# Total GULP energy -167292.275935 kJ/mol
# GULP energy per Si atom -5576.409198 kJ/mol
# Density = 2.510536 g / cm^3
# Si number density = 25.162634 Si / 1000 Ang^3
#
#
#
# Elastic Constant Matrix: (Units=GPa)
#
#
# Indices 1 2 3 4 5 6 
#
# 1 127.3112 50.0034 33.9148 0.0000 0.0000 0.0000
# 2 50.0034 112.5426 27.0973 0.0000 0.0000 0.0000
# 3 33.9148 27.0973 55.0279 0.0000 0.0000 0.0000
# 4 0.0000 0.0000 0.0000 22.5653 0.0000 0.0000
# 5 0.0000 0.0000 0.0000 0.0000 44.4764 0.0000
# 6 0.0000 0.0000 0.0000 0.0000 0.0000 32.2395
#
#
#
# Elastic Compliance Matrix: (Units=1/GPa)
#
#
# Indices 1 2 3 4 5 6 
#
# 1 0.010501 -0.003525 -0.004736 0.000000 0.000000 0.000000
# 2 -0.003525 0.011264 -0.003374 0.000000 0.000000 0.000000
# 3 -0.004736 -0.003374 0.022753 0.000000 0.000000 0.000000
# 4 0.000000 0.000000 0.000000 0.044316 0.000000 0.000000
# 5 0.000000 0.000000 0.000000 0.000000 0.022484 0.000000
# 6 0.000000 0.000000 0.000000 0.000000 0.000000 0.031018
#
#
# Mechanical properties :
#
#
# Convention : Reuss Voigt Hill
#
# Bulk Modulus (GPa) = 47.06465 57.43473 52.24969
# Shear Modulus (GPa) = 28.95373 32.11398 30.53386
#
# Velocity S-wave (km/s) = 3.39582 3.57635 3.48725
# Velocity P-wave (km/s) = 5.84126 6.31891 6.08477
#
# Compressibility (1/GPa) = 0.02124737
#
# Stress axis : x y z
#
# Youngs Moduli (GPa) = 95.22849 88.77627 43.95025
#
# Poissons Ratio (x) = 0.31297 0.20815
# Poissons Ratio (y) = 0.33572 0.14829
# Poissons Ratio (z) = 0.45100 0.29954
#
# Static dielectric constant tensor:
#      x y z
#    x 2.069640 0.000000 0.000000 
#    y 0.000000 1.962870 0.000000 
#    z 0.000000 0.000000 2.111880 
# 
# From -- ./inp_files/28478.got.cif
#   From: 2010.05.17/outbox.cif.g08.bks.cpg/sg20_15_cif.got.tgz:28478.got - 2010.06.03 22:52:26.
