data_PCOD9318605
_publ_section_title
;
Structure prediction by ZEFSAII (Michael W. Deem and Ramdas Pophale) SiO2 
 PCOD9318605
Probable space group: C 2 2 21
;
_chemical_formula_sum "Si O2"
_cell_formula_units_Z 48
_cell_length_a 8.618115
_cell_length_b 17.166306
_cell_length_c 14.692429
_cell_angle_alpha 90.000000
_cell_angle_beta 90.000000
_cell_angle_gamma 90.000000
_cell_volume 2173.615566
_symmetry_space_group_name_H-M "C 2 2 21"
_symmetry_group_IT_number 20
_symmetry_cell_setting 'orthorhombic'
loop_
_space_group_symop_operation_xyz
x,y,z
-x,-y,1/2+z
x,-y,-z
-x,y,1/2-z
1/2+x,1/2+y,z
1/2-x,1/2-y,1/2+z
1/2+x,1/2-y,-z
1/2-x,1/2+y,1/2-z
loop_
_atom_site_type_symbol
_atom_site_label
_atom_site_fract_x
_atom_site_fract_y
_atom_site_fract_z
Si Si1 0.619617 0.674156 0.818972
Si Si2 0.060109 0.858203 0.496803
Si Si3 0.610033 0.812208 0.443684
Si Si4 0.863281 0.560974 0.571866
Si Si5 0.278979 0.430756 0.572743
Si Si6 0.686040 0.510274 0.744555
O O1 0.500000 0.715455 0.750000
O O2 0.520519 0.633426 0.898611
O O3 0.758942 0.714852 0.871472
O O4 0.695332 0.602229 0.766766
O O5 0.040975 0.767735 0.520419
O O6 0.231434 0.889824 0.481614
O O7 0.960333 0.906626 0.568434
O O8 0.490716 0.874495 0.400717
O O9 0.687173 0.858098 0.529021
O O10 0.932620 0.500000 0.500000
O O11 0.780193 0.509865 0.650354
O O12 0.265668 0.500000 0.500000
O O13 0.239004 0.460467 0.673269
O O14 0.500000 0.493358 0.750000
#
# Coordination Sequence:
#
# PCOD9318605 Si02
#       6
#     8   8   8   8   8   8
#     4  10  20  42  68  91 124 182 226 258 320 416
#     4  11  21  42  69  94 136 182 219 266 343 416
#     4  11  25  41  65 104 138 172 215 287 353 390
#     4  12  24  40  68 103 135 168 225 287 339 389
#     4  11  20  42  70  92 130 181 230 268 321 413
#     4  11  20  40  72  96 124 178 237 264 320 404
#
# _framework density 22.083022
#
# number of rings (size 3 to 8) (size 9 to 14) (size 15 to 20)
#    0.000    1.000    6.667    4.000    0.000    0.667 
#    0.000    5.000    3.667    0.000    0.000    0.000 
#    0.000    0.000    0.000    0.000    0.000    0.000 
#
# Total GULP energy -133913.317826 kJ/mol
# GULP energy per Si atom -5579.721576 kJ/mol
# Density = 2.203276 g / cm^3
# Si number density = 22.083022 Si / 1000 Ang^3
#
#
#
# Elastic Constant Matrix: (Units=GPa)
#
#
# Indices 1 2 3 4 5 6 
#
# 1 95.7965 24.3204 31.2394 0.0000 0.0000 0.0000
# 2 24.3204 70.7355 42.9691 0.0000 0.0000 0.0000
# 3 31.2394 42.9691 117.2838 0.0000 0.0000 0.0000
# 4 0.0000 0.0000 0.0000 9.7880 0.0000 0.0000
# 5 0.0000 0.0000 0.0000 0.0000 17.9081 0.0000
# 6 0.0000 0.0000 0.0000 0.0000 0.0000 30.0904
#
#
#
# Elastic Compliance Matrix: (Units=1/GPa)
#
#
# Indices 1 2 3 4 5 6 
#
# 1 0.011840 -0.002772 -0.002138 0.000000 0.000000 0.000000
# 2 -0.002772 0.018833 -0.006162 0.000000 0.000000 0.000000
# 3 -0.002138 -0.006162 0.011353 0.000000 0.000000 0.000000
# 4 0.000000 0.000000 0.000000 0.102166 0.000000 0.000000
# 5 0.000000 0.000000 0.000000 0.000000 0.055841 0.000000
# 6 0.000000 0.000000 0.000000 0.000000 0.000000 0.033233
#
#
# Mechanical properties :
#
#
# Convention : Reuss Voigt Hill
#
# Bulk Modulus (GPa) = 50.29430 53.43041 51.86235
# Shear Modulus (GPa) = 19.08129 23.90976 21.49552
#
# Velocity S-wave (km/s) = 2.94270 3.29404 3.12331
# Velocity P-wave (km/s) = 5.86264 6.22217 6.04508
#
# Compressibility (1/GPa) = 0.01988297
#
# Stress axis : x y z
#
# Youngs Moduli (GPa) = 84.46124 53.09793 88.08090
#
# Poissons Ratio (x) = 0.14719 0.18832
# Poissons Ratio (y) = 0.23413 0.54271
# Poissons Ratio (z) = 0.18058 0.32716
#
# Static dielectric constant tensor:
#      x y z
#    x 1.874470 0.000000 0.000000 
#    y 0.000000 1.751410 0.000000 
#    z 0.000000 0.000000 1.915460 
# 
# From -- ./inp_files/18881.got.cif
#   From: 2010.05.17/outbox.cif.g08.bks.cpg/sg20_10_cif.got.tgz:18881.got - 2010.06.03 22:52:26.
