data_PCOD9318833
_publ_section_title
;
Structure prediction by ZEFSAII (Michael W. Deem and Ramdas Pophale) SiO2 
 PCOD9318833
Probable space group: C 2 2 21
;
_chemical_formula_sum "Si O2"
_cell_formula_units_Z 56
_cell_length_a 12.875971
_cell_length_b 15.023573
_cell_length_c 12.651009
_cell_angle_alpha 90.000000
_cell_angle_beta 90.000000
_cell_angle_gamma 90.000000
_cell_volume 2447.250276
_symmetry_space_group_name_H-M "C 2 2 21"
_symmetry_group_IT_number 20
_symmetry_cell_setting 'orthorhombic'
loop_
_space_group_symop_operation_xyz
x,y,z
-x,-y,1/2+z
x,-y,-z
-x,y,1/2-z
1/2+x,1/2+y,z
1/2-x,1/2-y,1/2+z
1/2+x,1/2-y,-z
1/2-x,1/2+y,1/2-z
loop_
_atom_site_type_symbol
_atom_site_label
_atom_site_fract_x
_atom_site_fract_y
_atom_site_fract_z
Si Si1 0.292038 0.555362 0.287741
Si Si2 0.307990 0.707079 0.437751
Si Si3 0.120313 0.830624 0.459266
Si Si4 0.711175 0.029053 0.898439
Si Si5 0.399546 0.040891 0.807392
Si Si6 0.988566 0.717679 0.875231
Si Si7 0.415647 0.577817 0.588076
O O1 0.330615 0.645583 0.336488
O O2 0.257760 0.554518 0.166870
O O3 0.185615 0.527176 0.349980
O O4 0.372520 0.476167 0.312242
O O5 0.195439 0.749701 0.425631
O O6 0.401447 0.778277 0.436584
O O7 0.327726 0.642612 0.537996
O O8 0.197095 0.913267 0.446962
O O9 0.077063 0.796937 0.571783
O O10 0.017064 0.861747 0.397417
O O11 0.658977 0.078429 0.798495
O O12 0.644628 0.000000 0.000000
O O13 0.500000 0.998038 0.750000
O O14 0.433943 0.120929 0.881851
O O15 0.000000 0.730266 0.750000
O O16 0.437441 0.500000 0.500000
#
# Coordination Sequence:
#
# PCOD9318833 Si02
#       7
#     8   8   8   8   8   8   8
#     4   9  21  40  67  89 132 168 214 270 324 390
#     4  10  21  39  64 101 123 172 218 270 328 389
#     4  11  21  36  64  93 138 160 223 270 324 382
#     4  10  23  40  63  96 125 174 218 269 320 388
#     4   9  19  40  63  86 123 170 218 254 324 392
#     4  10  21  36  63  93 125 172 213 262 325 394
#     4   9  19  39  61  95 132 167 218 262 328 394
#
# _framework density 22.882823999999999
#
# number of rings (size 3 to 8) (size 9 to 14) (size 15 to 20)
#    0.857    1.429    0.000    3.000    2.000    0.571 
#    0.000    7.857    3.143    0.000    0.000    0.000 
#    0.000    0.000    0.000    0.000    0.000    0.000 
#
# Total GULP energy -155900.469896 kJ/mol
# GULP energy per Si atom -5567.873925 kJ/mol
# Density = 2.283074 g / cm^3
# Si number density = 22.882824 Si / 1000 Ang^3
#
#
#
# Elastic Constant Matrix: (Units=GPa)
#
#
# Indices 1 2 3 4 5 6 
#
# 1 107.4490 26.6912 -0.7079 0.0000 0.0000 0.0000
# 2 26.6912 61.2820 -3.8874 0.0000 0.0000 0.0000
# 3 -0.7079 -3.8874 54.6798 0.0000 0.0000 0.0000
# 4 0.0000 0.0000 0.0000 17.3069 0.0000 0.0000
# 5 0.0000 0.0000 0.0000 0.0000 25.0424 0.0000
# 6 0.0000 0.0000 0.0000 0.0000 0.0000 35.4771
#
#
#
# Elastic Compliance Matrix: (Units=1/GPa)
#
#
# Indices 1 2 3 4 5 6 
#
# 1 0.010438 -0.004558 -0.000189 0.000000 0.000000 0.000000
# 2 -0.004558 0.018382 0.001248 0.000000 0.000000 0.000000
# 3 -0.000189 0.001248 0.018375 0.000000 0.000000 0.000000
# 4 0.000000 0.000000 0.000000 0.057781 0.000000 0.000000
# 5 0.000000 0.000000 0.000000 0.000000 0.039932 0.000000
# 6 0.000000 0.000000 0.000000 0.000000 0.000000 0.028187
#
#
# Mechanical properties :
#
#
# Convention : Reuss Voigt Hill
#
# Bulk Modulus (GPa) = 24.87783 29.73361 27.30572
# Shear Modulus (GPa) = 25.84085 28.98625 27.41355
#
# Velocity S-wave (km/s) = 3.36410 3.56297 3.46496
# Velocity P-wave (km/s) = 5.09755 5.47251 5.28836
#
# Compressibility (1/GPa) = 0.04019644
#
# Stress axis : x y z
#
# Youngs Moduli (GPa) = 95.80583 54.39967 54.42304
#
# Poissons Ratio (x) = 0.24796 0.01028
# Poissons Ratio (y) = 0.43670 -0.06791
# Poissons Ratio (z) = 0.01810 -0.06788
#
# Static dielectric constant tensor:
#      x y z
#    x 1.954110 0.000000 0.000000 
#    y 0.000000 1.899010 0.000000 
#    z 0.000000 0.000000 1.844090 
# 
# From -- ./inp_files/20056.got.cif
#   From: 2010.05.17/outbox.cif.g08.bks.cpg/sg20_11_cif.got.tgz:20056.got - 2010.06.03 22:52:26.
