data_PCOD9318562
_publ_section_title
;
Structure prediction by ZEFSAII (Michael W. Deem and Ramdas Pophale) SiO2 
 PCOD9318562
Probable space group: C 2 2 21
;
_chemical_formula_sum "Si O2"
_cell_formula_units_Z 60
_cell_length_a 27.396883
_cell_length_b 15.060818
_cell_length_c 7.227874
_cell_angle_alpha 90.000000
_cell_angle_beta 90.000000
_cell_angle_gamma 90.000000
_cell_volume 2982.361529
_symmetry_space_group_name_H-M "C 2 2 21"
_symmetry_group_IT_number 20
_symmetry_cell_setting 'orthorhombic'
loop_
_space_group_symop_operation_xyz
x,y,z
-x,-y,1/2+z
x,-y,-z
-x,y,1/2-z
1/2+x,1/2+y,z
1/2-x,1/2-y,1/2+z
1/2+x,1/2-y,-z
1/2-x,1/2+y,1/2-z
loop_
_atom_site_type_symbol
_atom_site_label
_atom_site_fract_x
_atom_site_fract_y
_atom_site_fract_z
Si Si1 0.304788 0.190241 0.548024
Si Si2 0.357559 0.484611 0.783583
Si Si3 0.942585 0.000000 0.500000
Si Si4 0.444497 0.019188 0.215694
Si Si5 0.589297 0.863192 0.029380
Si Si6 0.454624 0.691711 0.628373
Si Si7 0.292478 0.676314 0.132439
Si Si8 0.153670 0.821811 0.259616
O O1 0.354365 0.138584 0.592616
O O2 0.285923 0.242977 0.726889
O O3 0.258761 0.143578 0.452370
O O4 0.324540 0.260388 0.397424
O O5 0.406506 0.473465 0.667627
O O6 0.321942 0.401782 0.767912
O O7 0.332574 0.576030 0.720957
O O8 0.368613 0.500000 0.000000
O O9 0.968144 0.906771 0.449331
O O10 0.500000 0.049087 0.250000
O O11 0.412573 0.093065 0.323440
O O12 0.438107 0.928731 0.331945
O O13 0.435013 0.000000 0.000000
O O14 0.563034 0.767192 0.016695
O O15 0.500000 0.723487 0.750000
O O16 0.405163 0.679764 0.748891
O O17 0.325853 0.704518 0.958707
#
# Coordination Sequence:
#
# PCOD9318562 Si02
#       8
#     8   8   4   8   8   8   8   8
#     4  11  22  38  61  88 126 156 207 259 318 369
#     4   9  18  34  61  81 107 158 203 239 303 370
#     4  10  20  42  62  88 132 160 202 268 308 358
#     4  11  22  44  71  95 129 169 215 270 340 394
#     4  10  23  41  65  98 128 167 217 273 316 396
#     4  10  21  40  66  94 130 167 212 263 314 382
#     4  11  20  37  60  86 119 165 202 252 318 377
#     4   9  20  39  58  85 117 156 205 258 305 370
#
# _framework density 20.118285
#
# number of rings (size 3 to 8) (size 9 to 14) (size 15 to 20)
#    0.000    1.867    2.667    2.800    0.000    2.133 
#   16.800    2.000    1.467    0.000    0.000    0.000 
#    0.000    0.000    0.000    0.000    0.000    0.000 
#
# Total GULP energy -167327.759057 kJ/mol
# GULP energy per Si atom -5577.591969 kJ/mol
# Density = 2.007249 g / cm^3
# Si number density = 20.118285 Si / 1000 Ang^3
#
#
#
# Elastic Constant Matrix: (Units=GPa)
#
#
# Indices 1 2 3 4 5 6 
#
# 1 66.4754 1.0117 4.3238 0.0000 0.0000 0.0000
# 2 1.0117 63.3091 9.1071 0.0000 0.0000 0.0000
# 3 4.3238 9.1071 52.3461 0.0000 0.0000 0.0000
# 4 0.0000 0.0000 0.0000 24.2631 0.0000 0.0000
# 5 0.0000 0.0000 0.0000 0.0000 23.8963 0.0000
# 6 0.0000 0.0000 0.0000 0.0000 0.0000 20.6007
#
#
#
# Elastic Compliance Matrix: (Units=1/GPa)
#
#
# Indices 1 2 3 4 5 6 
#
# 1 0.015125 -0.000064 -0.001238 0.000000 0.000000 0.000000
# 2 -0.000064 0.016201 -0.002813 0.000000 0.000000 0.000000
# 3 -0.001238 -0.002813 0.019695 0.000000 0.000000 0.000000
# 4 0.000000 0.000000 0.000000 0.041215 0.000000 0.000000
# 5 0.000000 0.000000 0.000000 0.000000 0.041847 0.000000
# 6 0.000000 0.000000 0.000000 0.000000 0.000000 0.048542
#
#
# Mechanical properties :
#
#
# Convention : Reuss Voigt Hill
#
# Bulk Modulus (GPa) = 23.36949 23.44619 23.40784
# Shear Modulus (GPa) = 24.37602 24.93123 24.65362
#
# Velocity S-wave (km/s) = 3.48463 3.52409 3.50442
# Velocity P-wave (km/s) = 5.27555 5.31398 5.29480
#
# Compressibility (1/GPa) = 0.04279084
#
# Stress axis : x y z
#
# Youngs Moduli (GPa) = 66.11713 61.72370 50.77339
#
# Poissons Ratio (x) = 0.00392 0.06287
# Poissons Ratio (y) = 0.00420 0.14285
# Poissons Ratio (z) = 0.08187 0.17365
#
# Static dielectric constant tensor:
#      x y z
#    x 1.745700 0.000000 0.000000 
#    y 0.000000 1.772590 0.000000 
#    z 0.000000 0.000000 1.721960 
# 
# From -- ./inp_files/11188.got.cif
#   From: 2010.05.17/outbox.cif.g08.bks.cpg/sg20_6_cif.got.tgz:11188.got - 2010.06.03 22:52:26.
