data_PCOD9318317
_publ_section_title
;
Structure prediction by ZEFSAII (Michael W. Deem and Ramdas Pophale) SiO2 
 PCOD9318317
Probable space group: C 2 2 21
;
_chemical_formula_sum "Si O2"
_cell_formula_units_Z 64
_cell_length_a 14.690269
_cell_length_b 12.095285
_cell_length_c 18.909998
_cell_angle_alpha 90.000000
_cell_angle_beta 90.000000
_cell_angle_gamma 90.000000
_cell_volume 3359.984991
_symmetry_space_group_name_H-M "C 2 2 21"
_symmetry_group_IT_number 20
_symmetry_cell_setting 'orthorhombic'
loop_
_space_group_symop_operation_xyz
x,y,z
-x,-y,1/2+z
x,-y,-z
-x,y,1/2-z
1/2+x,1/2+y,z
1/2-x,1/2-y,1/2+z
1/2+x,1/2-y,-z
1/2-x,1/2+y,1/2-z
loop_
_atom_site_type_symbol
_atom_site_label
_atom_site_fract_x
_atom_site_fract_y
_atom_site_fract_z
Si Si1 0.312826 0.181130 0.616775
Si Si2 0.514758 0.668649 0.507757
Si Si3 0.520257 0.094301 0.948258
Si Si4 0.277579 0.689622 0.032850
Si Si5 0.810917 0.439670 0.073791
Si Si6 0.698869 0.525060 0.342881
Si Si7 0.193821 0.922981 0.815650
Si Si8 0.487341 0.505671 0.380661
O O1 0.412773 0.126854 0.615028
O O2 0.289195 0.192772 0.533479
O O3 0.308212 0.298848 0.654218
O O4 0.241745 0.095956 0.650169
O O5 0.493860 0.795845 0.495293
O O6 0.623920 0.658472 0.500584
O O7 0.474927 0.597181 0.442816
O O8 0.482112 0.612161 0.579646
O O9 0.420690 0.057489 0.921388
O O10 0.557549 0.000000 0.000000
O O11 0.283885 0.811170 0.067060
O O12 0.261050 0.599546 0.093454
O O13 0.761383 0.503417 0.136672
O O14 0.785949 0.500000 0.000000
O O15 0.719621 0.574236 0.266249
O O16 0.589522 0.521206 0.352533
O O17 0.092952 0.974470 0.825897
#
# Coordination Sequence:
#
# PCOD9318317 Si02
#       8
#     8   8   8   8   8   8   8   8
#     4  12  23  43  67  97 121 167 222 265 312 385
#     4   9  18  34  62 100 119 157 206 269 309 364
#     4  10  21  37  62  96 128 159 209 266 316 372
#     4  10  20  39  67  91 125 164 211 263 315 369
#     4  10  22  40  62  97 129 165 209 263 320 378
#     4  11  25  42  63  94 131 170 207 268 327 381
#     4  12  26  40  64  95 131 169 212 262 327 389
#     4  10  20  39  64  92 128 160 212 260 317 376
#
# _framework density 19.047702999999998
#
# number of rings (size 3 to 8) (size 9 to 14) (size 15 to 20)
#    0.000    1.500    3.750    1.500    5.250    0.000 
#    0.000    0.625    0.000    0.000    0.000    0.000 
#    0.000    0.000    0.000    0.000    0.000    0.000 
#
# Total GULP energy -178770.714373 kJ/mol
# GULP energy per Si atom -5586.584824 kJ/mol
# Density = 1.900435 g / cm^3
# Si number density = 19.047703 Si / 1000 Ang^3
#
#
#
# Elastic Constant Matrix: (Units=GPa)
#
#
# Indices 1 2 3 4 5 6 
#
# 1 56.7874 30.8657 33.3167 0.0000 0.0000 0.0000
# 2 30.8657 108.0339 35.9605 0.0000 0.0000 0.0000
# 3 33.3167 35.9605 102.0063 0.0000 0.0000 0.0000
# 4 0.0000 0.0000 0.0000 14.2664 0.0000 0.0000
# 5 0.0000 0.0000 0.0000 0.0000 8.7119 0.0000
# 6 0.0000 0.0000 0.0000 0.0000 0.0000 24.8381
#
#
#
# Elastic Compliance Matrix: (Units=1/GPa)
#
#
# Indices 1 2 3 4 5 6 
#
# 1 0.023769 -0.004766 -0.006083 0.000000 0.000000 0.000000
# 2 -0.004766 0.011443 -0.002477 0.000000 0.000000 0.000000
# 3 -0.006083 -0.002477 0.012663 0.000000 0.000000 0.000000
# 4 0.000000 0.000000 0.000000 0.070095 0.000000 0.000000
# 5 0.000000 0.000000 0.000000 0.000000 0.114786 0.000000
# 6 0.000000 0.000000 0.000000 0.000000 0.000000 0.040261
#
#
# Mechanical properties :
#
#
# Convention : Reuss Voigt Hill
#
# Bulk Modulus (GPa) = 47.12032 51.90148 49.51090
# Shear Modulus (GPa) = 16.30029 20.67561 18.48795
#
# Velocity S-wave (km/s) = 2.92851 3.29821 3.11885
# Velocity P-wave (km/s) = 6.01886 6.46619 6.24653
#
# Compressibility (1/GPa) = 0.02122227
#
# Stress axis : x y z
#
# Youngs Moduli (GPa) = 42.07173 87.39270 78.96751
#
# Poissons Ratio (x) = 0.41652 0.48037
# Poissons Ratio (y) = 0.20052 0.19562
# Poissons Ratio (z) = 0.25593 0.21649
#
# Static dielectric constant tensor:
#      x y z
#    x 1.713520 0.000000 0.000000 
#    y 0.000000 1.650550 0.000000 
#    z 0.000000 0.000000 1.635070 
# 
# From -- ./inp_files/24441.got.cif
#   From: 2010.05.17/outbox.cif.g08.bks.cpg/sg20_13_cif.got.tgz:24441.got - 2010.06.03 22:52:26.
