data_PCOD9318259
_publ_section_title
;
Structure prediction by ZEFSAII (Michael W. Deem and Ramdas Pophale) SiO2 
 PCOD9318259
Probable space group: C 2 2 21
;
_chemical_formula_sum "Si O2"
_cell_formula_units_Z 52
_cell_length_a 24.730184
_cell_length_b 8.939544
_cell_length_c 11.649677
_cell_angle_alpha 90.000000
_cell_angle_beta 90.000000
_cell_angle_gamma 90.000000
_cell_volume 2575.470609
_symmetry_space_group_name_H-M "C 2 2 21"
_symmetry_group_IT_number 20
_symmetry_cell_setting 'orthorhombic'
loop_
_space_group_symop_operation_xyz
x,y,z
-x,-y,1/2+z
x,-y,-z
-x,y,1/2-z
1/2+x,1/2+y,z
1/2-x,1/2-y,1/2+z
1/2+x,1/2-y,-z
1/2-x,1/2+y,1/2-z
loop_
_atom_site_type_symbol
_atom_site_label
_atom_site_fract_x
_atom_site_fract_y
_atom_site_fract_z
Si Si1 0.778402 0.403914 0.240473
Si Si2 0.835589 0.151630 0.860186
Si Si3 0.352898 0.684453 0.121947
Si Si4 0.937023 0.324428 0.262215
Si Si5 0.124993 0.389743 0.816195
Si Si6 0.876682 0.167813 0.472149
Si Si7 0.730242 0.500000 0.000000
O O1 0.723637 0.372921 0.307462
O O2 0.807902 0.249754 0.207281
O O3 0.820240 0.508531 0.310116
O O4 0.763989 0.473224 0.115395
O O5 0.867177 0.271746 0.785758
O O6 0.863312 0.989149 0.854139
O O7 0.832597 0.197591 0.992322
O O8 0.405723 0.782381 0.145515
O O9 0.923214 0.494841 0.294239
O O10 0.906675 0.225513 0.359147
O O11 0.000000 0.296121 0.250000
O O12 0.116697 0.293670 0.930585
O O13 0.811835 0.135389 0.471965
O O14 0.898079 0.000000 0.500000
#
# Coordination Sequence:
#
# PCOD9318259 Si02
#       7
#     8   8   8   8   8   8   4
#     4  11  21  37  63 100 139 183 213 253 327 400
#     4  11  21  41  61  98 137 172 213 259 328 388
#     4  10  24  41  63  93 135 168 219 274 312 394
#     4  11  25  48  69  93 124 171 225 284 344 388
#     4  11  23  42  64  99 132 176 217 274 322 403
#     4  10  22  45  71  97 136 167 223 275 328 406
#     4  10  20  38  70  98 142 176 208 266 322 408
#
# _framework density 20.190484999999999
#
# number of rings (size 3 to 8) (size 9 to 14) (size 15 to 20)
#    0.462    0.923    1.538    4.154    0.000    5.538 
#   16.615    1.538    0.000    0.000    0.000    0.000 
#    0.000    0.000    0.000    0.000    0.000    0.000 
#
# Total GULP energy -145281.111250 kJ/mol
# GULP energy per Si atom -5587.735048 kJ/mol
# Density = 2.014453 g / cm^3
# Si number density = 20.190485 Si / 1000 Ang^3
#
#
#
# Elastic Constant Matrix: (Units=GPa)
#
#
# Indices 1 2 3 4 5 6 
#
# 1 70.0222 9.0082 37.7363 0.0000 0.0000 0.0000
# 2 9.0082 83.4130 45.7960 0.0000 0.0000 0.0000
# 3 37.7363 45.7960 108.4270 0.0000 0.0000 0.0000
# 4 0.0000 0.0000 0.0000 37.6554 0.0000 0.0000
# 5 0.0000 0.0000 0.0000 0.0000 12.3878 0.0000
# 6 0.0000 0.0000 0.0000 0.0000 0.0000 1.2522
#
#
#
# Elastic Compliance Matrix: (Units=1/GPa)
#
#
# Indices 1 2 3 4 5 6 
#
# 1 0.017813 0.001927 -0.007013 0.000000 0.000000 0.000000
# 2 0.001927 0.015816 -0.007351 0.000000 0.000000 0.000000
# 3 -0.007013 -0.007351 0.014768 0.000000 0.000000 0.000000
# 4 0.000000 0.000000 0.000000 0.026557 0.000000 0.000000
# 5 0.000000 0.000000 0.000000 0.000000 0.080725 0.000000
# 6 0.000000 0.000000 0.000000 0.000000 0.000000 0.798618
#
#
# Mechanical properties :
#
#
# Convention : Reuss Voigt Hill
#
# Bulk Modulus (GPa) = 42.51183 49.66033 46.08608
# Shear Modulus (GPa) = 5.06579 21.54717 13.30648
#
# Velocity S-wave (km/s) = 1.58570 3.27034 2.56998
# Velocity P-wave (km/s) = 4.94507 6.23774 5.62864
#
# Compressibility (1/GPa) = 0.02352286
#
# Stress axis : x y z
#
# Youngs Moduli (GPa) = 56.13900 63.22598 67.71198
#
# Poissons Ratio (x) = -0.12182 0.47489
# Poissons Ratio (y) = -0.10817 0.49774
# Poissons Ratio (z) = 0.39372 0.46477
#
# Static dielectric constant tensor:
#      x y z
#    x 1.686210 0.000000 0.000000 
#    y 0.000000 1.749290 0.000000 
#    z 0.000000 0.000000 1.738380 
# 
# From -- ./inp_files/17028.got.cif
#   From: 2010.05.17/outbox.cif.g08.bks.cpg/sg20_9_cif.got.tgz:17028.got - 2010.06.03 22:52:26.
