data_PCOD9318356
_publ_section_title
;
Structure prediction by ZEFSAII (Michael W. Deem and Ramdas Pophale) SiO2 
 PCOD9318356
Probable space group: C 2 2 21
;
_chemical_formula_sum "Si O2"
_cell_formula_units_Z 36
_cell_length_a 19.725040
_cell_length_b 5.415244
_cell_length_c 13.483257
_cell_angle_alpha 90.000000
_cell_angle_beta 90.000000
_cell_angle_gamma 90.000000
_cell_volume 1440.226292
_symmetry_space_group_name_H-M "C 2 2 21"
_symmetry_group_IT_number 20
_symmetry_cell_setting 'orthorhombic'
loop_
_space_group_symop_operation_xyz
x,y,z
-x,-y,1/2+z
x,-y,-z
-x,y,1/2-z
1/2+x,1/2+y,z
1/2-x,1/2-y,1/2+z
1/2+x,1/2-y,-z
1/2-x,1/2+y,1/2-z
loop_
_atom_site_type_symbol
_atom_site_label
_atom_site_fract_x
_atom_site_fract_y
_atom_site_fract_z
Si Si1 0.432815 0.733122 0.183589
Si Si2 0.701036 0.312729 0.140001
Si Si3 0.773471 0.806054 0.120951
Si Si4 0.918485 0.722896 0.261902
Si Si5 0.614398 0.000000 0.500000
O O1 0.500000 0.713928 0.250000
O O2 0.404427 0.460999 0.193123
O O3 0.390575 0.951247 0.235186
O O4 0.432934 0.838446 0.072980
O O5 0.719137 0.585776 0.104634
O O6 0.715693 0.303380 0.259184
O O7 0.619400 0.278385 0.135544
O O8 0.745162 0.082789 0.099191
O O9 0.836267 0.690781 0.057750
O O10 0.000000 0.696954 0.250000
#
# Coordination Sequence:
#
# PCOD9318356 Si02
#       5
#     8   8   8   8   4
#     4  10  23  39  64 103 140 184 241 305 356 422
#     4  10  20  40  57  96 133 176 224 286 354 409
#     4  10  23  34  62  95 135 174 226 296 341 427
#     4  10  20  39  67  97 130 184 232 282 364 424
#     4  12  24  42  70 108 142 188 262 288 370 450
#
# _framework density 24.99607
#
# number of rings (size 3 to 8) (size 9 to 14) (size 15 to 20)
#    0.000    1.778    2.222    1.333    6.222    3.556 
#    0.000    0.000    0.000   21.333    0.000    0.000 
#    0.000    0.000    0.000    0.000    0.000    0.000 
#
# Total GULP energy -100223.055781 kJ/mol
# GULP energy per Si atom -5567.947543 kJ/mol
# Density = 2.493918 g / cm^3
# Si number density = 24.996070 Si / 1000 Ang^3
#
#
#
# Elastic Constant Matrix: (Units=GPa)
#
#
# Indices 1 2 3 4 5 6 
#
# 1 97.9102 35.5114 30.0300 0.0000 0.0000 0.0000
# 2 35.5114 213.8849 23.4184 0.0000 0.0000 0.0000
# 3 30.0300 23.4184 71.9227 0.0000 0.0000 0.0000
# 4 0.0000 0.0000 0.0000 39.3917 0.0000 0.0000
# 5 0.0000 0.0000 0.0000 0.0000 39.5999 0.0000
# 6 0.0000 0.0000 0.0000 0.0000 0.0000 58.1221
#
#
#
# Elastic Compliance Matrix: (Units=1/GPa)
#
#
# Indices 1 2 3 4 5 6 
#
# 1 0.012171 -0.001519 -0.004587 0.000000 0.000000 0.000000
# 2 -0.001519 0.005038 -0.001006 0.000000 0.000000 0.000000
# 3 -0.004587 -0.001006 0.016147 0.000000 0.000000 0.000000
# 4 0.000000 0.000000 0.000000 0.025386 0.000000 0.000000
# 5 0.000000 0.000000 0.000000 0.000000 0.025253 0.000000
# 6 0.000000 0.000000 0.000000 0.000000 0.000000 0.017205
#
#
# Mechanical properties :
#
#
# Convention : Reuss Voigt Hill
#
# Bulk Modulus (GPa) = 52.27022 62.40414 57.33718
# Shear Modulus (GPa) = 41.05052 47.07328 44.06190
#
# Velocity S-wave (km/s) = 4.05690 4.34432 4.20307
# Velocity P-wave (km/s) = 6.54991 7.08407 6.82222
#
# Compressibility (1/GPa) = 0.01913135
#
# Stress axis : x y z
#
# Youngs Moduli (GPa) = 82.16113 198.50300 61.93150
#
# Poissons Ratio (x) = 0.30143 0.28411
# Poissons Ratio (y) = 0.12476 0.06232
# Poissons Ratio (z) = 0.37691 0.19975
#
# Static dielectric constant tensor:
#      x y z
#    x 1.118650 0.000000 0.000000 
#    y 0.000000 1.984450 0.000000 
#    z 0.000000 0.000000 2.092140 
# 
# From -- ./inp_files/21591.got.cif
#   From: 2010.05.17/outbox.cif.g08.bks.cpg/sg20_11_cif.got.tgz:21591.got - 2010.06.03 22:52:26.
