data_PCOD9318381
_publ_section_title
;
Structure prediction by ZEFSAII (Michael W. Deem and Ramdas Pophale) SiO2 
 PCOD9318381
Probable space group: C 2 2 21
;
_chemical_formula_sum "Si O2"
_cell_formula_units_Z 32
_cell_length_a 7.709011
_cell_length_b 6.973819
_cell_length_c 19.749203
_cell_angle_alpha 90.000000
_cell_angle_beta 90.000000
_cell_angle_gamma 90.000000
_cell_volume 1061.741788
_symmetry_space_group_name_H-M "C 2 2 21"
_symmetry_group_IT_number 20
_symmetry_cell_setting 'orthorhombic'
loop_
_space_group_symop_operation_xyz
x,y,z
-x,-y,1/2+z
x,-y,-z
-x,y,1/2-z
1/2+x,1/2+y,z
1/2-x,1/2-y,1/2+z
1/2+x,1/2-y,-z
1/2-x,1/2+y,1/2-z
loop_
_atom_site_type_symbol
_atom_site_label
_atom_site_fract_x
_atom_site_fract_y
_atom_site_fract_z
Si Si1 0.617107 0.784307 0.809328
Si Si2 0.593645 0.398374 0.865962
Si Si3 0.068751 0.378055 0.565475
Si Si4 0.893262 0.000000 0.000000
Si Si5 0.500000 0.825565 0.250000
O O1 0.500000 0.908942 0.750000
O O2 0.530179 0.574509 0.818325
O O3 0.599320 0.841190 0.888314
O O4 0.806390 0.762890 0.779679
O O5 0.791691 0.454732 0.881674
O O6 0.581587 0.198391 0.827888
O O7 0.502017 0.410167 0.937821
O O8 0.029347 0.500000 0.500000
O O9 0.170563 0.190590 0.536994
#
# Coordination Sequence:
#
# PCOD9318381 Si02
#       5
#     8   8   8   4   4
#     4   9  22  41  61  94 132 170 217 270 322 393
#     4  11  21  42  67  92 137 169 215 280 318 389
#     4  11  23  41  67  97 130 176 219 268 332 390
#     4  10  24  44  62  98 130 166 222 270 322 392
#     4  10  20  40  60  94 130 174 206 276 324 376
#
# _framework density 30.139153
#
# number of rings (size 3 to 8) (size 9 to 14) (size 15 to 20)
#    0.750    1.000    2.500    1.500    0.000    4.000 
#    2.250    0.000    0.000    0.000    0.000    0.000 
#    0.000    0.000    0.000    0.000    0.000    0.000 
#
# Total GULP energy -89246.993301 kJ/mol
# GULP energy per Si atom -5577.937081 kJ/mol
# Density = 3.007056 g / cm^3
# Si number density = 30.139153 Si / 1000 Ang^3
#
#
#
# Elastic Constant Matrix: (Units=GPa)
#
#
# Indices 1 2 3 4 5 6 
#
# 1 145.1637 34.3950 62.6495 0.0000 0.0000 0.0000
# 2 34.3950 185.5994 94.5447 0.0000 0.0000 0.0000
# 3 62.6495 94.5447 235.7569 0.0000 0.0000 0.0000
# 4 0.0000 0.0000 0.0000 85.1299 0.0000 0.0000
# 5 0.0000 0.0000 0.0000 0.0000 38.1746 0.0000
# 6 0.0000 0.0000 0.0000 0.0000 0.0000 28.6769
#
#
#
# Elastic Compliance Matrix: (Units=1/GPa)
#
#
# Indices 1 2 3 4 5 6 
#
# 1 0.007817 -0.000491 -0.001880 0.000000 0.000000 0.000000
# 2 -0.000491 0.006802 -0.002597 0.000000 0.000000 0.000000
# 3 -0.001880 -0.002597 0.005783 0.000000 0.000000 0.000000
# 4 0.000000 0.000000 0.000000 0.011747 0.000000 0.000000
# 5 0.000000 0.000000 0.000000 0.000000 0.026195 0.000000
# 6 0.000000 0.000000 0.000000 0.000000 0.000000 0.034871
#
#
# Mechanical properties :
#
#
# Convention : Reuss Voigt Hill
#
# Bulk Modulus (GPa) = 95.56003 105.52206 100.54104
# Shear Modulus (GPa) = 46.88670 55.39168 51.13919
#
# Velocity S-wave (km/s) = 3.94848 4.29168 4.12365
# Velocity P-wave (km/s) = 7.25000 7.72306 7.49027
#
# Compressibility (1/GPa) = 0.01046463
#
# Stress axis : x y z
#
# Youngs Moduli (GPa) = 127.93340 147.01567 172.92163
#
# Poissons Ratio (x) = 0.07214 0.32516
# Poissons Ratio (y) = 0.06278 0.44914
# Poissons Ratio (z) = 0.24056 0.38186
#
# Static dielectric constant tensor:
#      x y z
#    x 2.283740 0.000000 0.000000 
#    y 0.000000 2.566630 0.000000 
#    z 0.000000 0.000000 2.251690 
# 
# From -- ./inp_files/26371.got.cif
#   From: 2010.05.17/outbox.cif.g08.bks.cpg/sg20_14_cif.got.tgz:26371.got - 2010.06.03 22:52:26.
