data_PCOD9318522
_publ_section_title
;
Structure prediction by ZEFSAII (Michael W. Deem and Ramdas Pophale) SiO2 
 PCOD9318522
Probable space group: C 2 2 21
;
_chemical_formula_sum "Si O2"
_cell_formula_units_Z 48
_cell_length_a 10.469799
_cell_length_b 23.461511
_cell_length_c 8.012181
_cell_angle_alpha 90.000000
_cell_angle_beta 90.000000
_cell_angle_gamma 90.000000
_cell_volume 1968.090543
_symmetry_space_group_name_H-M "C 2 2 21"
_symmetry_group_IT_number 20
_symmetry_cell_setting 'orthorhombic'
loop_
_space_group_symop_operation_xyz
x,y,z
-x,-y,1/2+z
x,-y,-z
-x,y,1/2-z
1/2+x,1/2+y,z
1/2-x,1/2-y,1/2+z
1/2+x,1/2-y,-z
1/2-x,1/2+y,1/2-z
loop_
_atom_site_type_symbol
_atom_site_label
_atom_site_fract_x
_atom_site_fract_y
_atom_site_fract_z
Si Si1 0.590863 0.500000 0.500000
Si Si2 0.774226 0.635682 0.704728
Si Si3 0.308839 0.929699 0.633338
Si Si4 0.078442 0.406417 0.514810
Si Si5 0.000000 0.907774 0.250000
Si Si6 0.357754 0.264111 0.790867
Si Si7 0.106916 0.716589 0.370191
O O1 0.693162 0.474118 0.629687
O O2 0.513895 0.450190 0.408960
O O3 0.771663 0.615536 0.512854
O O4 0.628434 0.629240 0.765635
O O5 0.831724 0.698770 0.730205
O O6 0.857899 0.594871 0.831436
O O7 0.451258 0.941739 0.558081
O O8 0.329626 0.918507 0.828874
O O9 0.044989 0.339640 0.549230
O O10 0.500000 0.283511 0.750000
O O11 0.239248 0.298460 0.719229
O O12 0.355411 0.260195 0.988243
O O13 0.000000 0.740692 0.250000
#
# Coordination Sequence:
#
# PCOD9318522 Si02
#       7
#     4   8   8   8   4   8   8
#     4  10  24  42  62  94 126 162 216 266 332 390
#     4  10  22  41  64  91 127 169 210 259 318 382
#     4  10  20  41  64  92 123 160 206 270 317 387
#     4  10  21  40  68  92 124 165 211 258 325 370
#     4  10  24  44  64  92 128 170 208 266 330 386
#     4  11  24  39  64  95 130 174 218 267 319 377
#     4  11  22  40  64  94 132 167 219 264 317 382
#
# _framework density 24.389123000000001
#
# number of rings (size 3 to 8) (size 9 to 14) (size 15 to 20)
#    0.000    1.667    1.667    3.500    5.833    0.000 
#   12.000    0.000    0.000    0.000    0.000    0.000 
#    0.000    0.000    0.000    0.000    0.000    0.000 
#
# Total GULP energy -133949.951100 kJ/mol
# GULP energy per Si atom -5581.247962 kJ/mol
# Density = 2.433361 g / cm^3
# Si number density = 24.389123 Si / 1000 Ang^3
#
#
#
# Elastic Constant Matrix: (Units=GPa)
#
#
# Indices 1 2 3 4 5 6 
#
# 1 144.3194 7.5863 17.9882 0.0000 0.0000 0.0000
# 2 7.5863 46.5258 -4.1681 0.0000 0.0000 0.0000
# 3 17.9882 -4.1681 85.0512 0.0000 0.0000 0.0000
# 4 0.0000 0.0000 0.0000 23.8165 0.0000 0.0000
# 5 0.0000 0.0000 0.0000 0.0000 35.0280 0.0000
# 6 0.0000 0.0000 0.0000 0.0000 0.0000 -55.1024
#
#
#
# Elastic Compliance Matrix: (Units=1/GPa)
#
#
# Indices 1 2 3 4 5 6 
#
# 1 0.007196 -0.001315 -0.001586 0.000000 0.000000 0.000000
# 2 -0.001315 0.021829 0.001348 0.000000 0.000000 0.000000
# 3 -0.001586 0.001348 0.012159 0.000000 0.000000 0.000000
# 4 0.000000 0.000000 0.000000 0.041988 0.000000 0.000000
# 5 0.000000 0.000000 0.000000 0.000000 0.028549 0.000000
# 6 0.000000 0.000000 0.000000 0.000000 0.000000 -0.018148
#
#
# Mechanical properties :
#
#
# Convention : Reuss Voigt Hill
#
# Bulk Modulus (GPa) = 26.26320 35.41213 30.83767
# Shear Modulus (GPa) = 45.71558 17.71442 31.71500
#
# Velocity S-wave (km/s) = 4.33416 2.69796 3.60998
# Velocity P-wave (km/s) = 5.98652 4.92509 5.48155
#
# Compressibility (1/GPa) = 0.03807609
#
# Stress axis : x y z
#
# Youngs Moduli (GPa) = 138.96694 45.81121 82.24224
#
# Poissons Ratio (x) = 0.06026 0.13047
# Poissons Ratio (y) = 0.18281 -0.11086
# Poissons Ratio (z) = 0.22046 -0.06175
#
# Static dielectric constant tensor:
#      x y z
#    x 1.801640 0.000000 0.000000 
#    y 0.000000 2.104590 0.000000 
#    z 0.000000 0.000000 1.964320 
# 
# From -- ./inp_files/6563.got.cif
#   From: 2010.05.17/outbox.cif.g08.bks.cpg/sg20_4_cif.got.tgz:6563.got - 2010.06.03 22:52:26.
