data_PCOD9318217
_publ_section_title
;
Structure prediction by ZEFSAII (Michael W. Deem and Ramdas Pophale) SiO2 
 PCOD9318217
Probable space group: C 2 2 21
;
_chemical_formula_sum "Si O2"
_cell_formula_units_Z 48
_cell_length_a 16.052467
_cell_length_b 8.795725
_cell_length_c 17.268071
_cell_angle_alpha 90.000000
_cell_angle_beta 90.000000
_cell_angle_gamma 90.000000
_cell_volume 2438.132222
_symmetry_space_group_name_H-M "C 2 2 21"
_symmetry_group_IT_number 20
_symmetry_cell_setting 'orthorhombic'
loop_
_space_group_symop_operation_xyz
x,y,z
-x,-y,1/2+z
x,-y,-z
-x,y,1/2-z
1/2+x,1/2+y,z
1/2-x,1/2-y,1/2+z
1/2+x,1/2-y,-z
1/2-x,1/2+y,1/2-z
loop_
_atom_site_type_symbol
_atom_site_label
_atom_site_fract_x
_atom_site_fract_y
_atom_site_fract_z
Si Si1 0.755887 0.738515 0.697738
Si Si2 0.620532 0.888905 0.602303
Si Si3 0.827528 0.951190 0.330219
Si Si4 0.302463 0.034318 0.411351
Si Si5 0.299539 0.826920 0.062485
Si Si6 0.044088 0.296952 0.831633
O O1 0.670875 0.823692 0.674693
O O2 0.734524 0.644930 0.774279
O O3 0.776380 0.617844 0.631746
O O4 0.822555 0.874879 0.697129
O O5 0.670608 0.834832 0.526102
O O6 0.528433 0.823836 0.605797
O O7 0.628049 0.072348 0.603259
O O8 0.783954 0.922581 0.413653
O O9 0.917208 0.872334 0.327025
O O10 0.226407 0.156274 0.415247
O O11 0.377370 0.104986 0.360892
O O12 0.327159 0.000000 0.500000
O O13 0.000000 0.337719 0.750000
#
# Coordination Sequence:
#
# PCOD9318217 Si02
#       6
#     8   8   8   8   8   8
#     4  11  21  40  68  92 119 172 222 267 307 388
#     4  10  20  38  65  89 127 167 210 265 324 377
#     4  10  21  39  67  90 125 166 222 264 321 382
#     4  11  23  40  64  95 129 170 219 265 317 389
#     4   9  20  37  61  92 120 167 215 253 307 390
#     4  11  23  41  61  93 132 167 202 271 339 381
#
# _framework density 19.687201999999999
#
# number of rings (size 3 to 8) (size 9 to 14) (size 15 to 20)
#    0.000    1.667    3.333    2.000    4.667    0.000 
#    0.000    2.500    3.667    0.000    0.000    0.000 
#    0.000    0.000    0.000    0.000    0.000    0.000 
#
# Total GULP energy -133689.689762 kJ/mol
# GULP energy per Si atom -5570.403740 kJ/mol
# Density = 1.964239 g / cm^3
# Si number density = 19.687202 Si / 1000 Ang^3
#
#
#
# Elastic Constant Matrix: (Units=GPa)
#
#
# Indices 1 2 3 4 5 6 
#
# 1 93.5409 53.0472 37.6758 0.0000 0.0000 0.0000
# 2 53.0472 152.1968 45.5064 0.0000 0.0000 0.0000
# 3 37.6758 45.5064 111.7539 0.0000 0.0000 0.0000
# 4 0.0000 0.0000 0.0000 35.7210 0.0000 0.0000
# 5 0.0000 0.0000 0.0000 0.0000 27.9845 0.0000
# 6 0.0000 0.0000 0.0000 0.0000 0.0000 21.8590
#
#
#
# Elastic Compliance Matrix: (Units=1/GPa)
#
#
# Indices 1 2 3 4 5 6 
#
# 1 0.014244 -0.004018 -0.003166 0.000000 0.000000 0.000000
# 2 -0.004018 0.008615 -0.002153 0.000000 0.000000 0.000000
# 3 -0.003166 -0.002153 0.010892 0.000000 0.000000 0.000000
# 4 0.000000 0.000000 0.000000 0.027995 0.000000 0.000000
# 5 0.000000 0.000000 0.000000 0.000000 0.035734 0.000000
# 6 0.000000 0.000000 0.000000 0.000000 0.000000 0.045748
#
#
# Mechanical properties :
#
#
# Convention : Reuss Voigt Hill
#
# Bulk Modulus (GPa) = 66.32788 69.99449 68.16118
# Shear Modulus (GPa) = 29.95289 31.86371 30.90830
#
# Velocity S-wave (km/s) = 3.90480 4.02742 3.96658
# Velocity P-wave (km/s) = 7.35486 7.56686 7.46161
#
# Compressibility (1/GPa) = 0.01507662
#
# Stress axis : x y z
#
# Youngs Moduli (GPa) = 70.20296 116.07970 91.80683
#
# Poissons Ratio (x) = 0.46643 0.29066
# Poissons Ratio (y) = 0.28209 0.19769
# Poissons Ratio (z) = 0.22227 0.24996
#
# Static dielectric constant tensor:
#      x y z
#    x 1.680060 0.000000 0.000000 
#    y 0.000000 1.742090 0.000000 
#    z 0.000000 0.000000 1.791310 
# 
# From -- ./inp_files/24795.got.cif
#   From: 2010.05.17/outbox.cif.g08.bks.cpg/sg20_13_cif.got.tgz:24795.got - 2010.06.03 22:52:26.
