data_PCOD9318847
_publ_section_title
;
Structure prediction by ZEFSAII (Michael W. Deem and Ramdas Pophale) SiO2 
 PCOD9318847
Probable space group: C 2 2 21
;
_chemical_formula_sum "Si O2"
_cell_formula_units_Z 52
_cell_length_a 8.926142
_cell_length_b 23.001799
_cell_length_c 12.807094
_cell_angle_alpha 90.000000
_cell_angle_beta 90.000000
_cell_angle_gamma 90.000000
_cell_volume 2629.518270
_symmetry_space_group_name_H-M "C 2 2 21"
_symmetry_group_IT_number 20
_symmetry_cell_setting 'orthorhombic'
loop_
_space_group_symop_operation_xyz
x,y,z
-x,-y,1/2+z
x,-y,-z
-x,y,1/2-z
1/2+x,1/2+y,z
1/2-x,1/2-y,1/2+z
1/2+x,1/2-y,-z
1/2-x,1/2+y,1/2-z
loop_
_atom_site_type_symbol
_atom_site_label
_atom_site_fract_x
_atom_site_fract_y
_atom_site_fract_z
Si Si1 0.222505 0.748236 0.374405
Si Si2 0.500000 0.333038 0.250000
Si Si3 0.630120 0.500000 0.500000
Si Si4 0.000000 0.241662 0.250000
Si Si5 0.588675 0.392846 0.043931
Si Si6 0.667164 0.889612 0.628368
Si Si7 0.647265 0.315381 0.566335
Si Si8 0.821919 0.577813 0.360510
O O1 0.111296 0.790812 0.312518
O O2 0.388051 0.767697 0.335261
O O3 0.174413 0.680911 0.361708
O O4 0.207394 0.763802 0.495870
O O5 0.590098 0.371387 0.163968
O O6 0.521603 0.552073 0.535747
O O7 0.739153 0.522283 0.408262
O O8 0.115052 0.204842 0.317834
O O9 0.737440 0.404595 0.975489
O O10 0.506026 0.340822 0.980785
O O11 0.726795 0.913816 0.739650
O O12 0.500297 0.916447 0.626581
O O13 0.761180 0.368095 0.572203
#
# Coordination Sequence:
#
# PCOD9318847 Si02
#       8
#     8   4   4   4   8   8   8   8
#     4  11  24  34  61  93 133 174 206 261 314 391
#     4  10  24  42  57  96 136 167 216 258 328 384
#     4  10  24  44  64  84 122 168 210 284 322 370
#     4  12  22  36  59  90 132 179 208 252 314 378
#     4  10  22  41  63  89 122 168 218 266 317 388
#     4  11  22  37  66  98 121 164 212 267 317 401
#     4  10  21  37  55  90 128 167 214 246 313 388
#     4  10  22  40  62  92 125 159 215 271 326 374
#
# _framework density 19.775486000000001
#
# number of rings (size 3 to 8) (size 9 to 14) (size 15 to 20)
#    0.000    1.538    3.077    0.923    4.308    3.692 
#    0.000    1.538    0.000    3.692    0.000    0.000 
#    0.000    0.000    0.000    0.000    0.000    0.000 
#
# Total GULP energy -144912.529721 kJ/mol
# GULP energy per Si atom -5573.558835 kJ/mol
# Density = 1.973048 g / cm^3
# Si number density = 19.775486 Si / 1000 Ang^3
#
#
#
# Elastic Constant Matrix: (Units=GPa)
#
#
# Indices 1 2 3 4 5 6 
#
# 1 87.6946 24.6057 33.2264 0.0000 0.0000 0.0000
# 2 24.6057 68.1224 41.7182 0.0000 0.0000 0.0000
# 3 33.2264 41.7182 122.8760 0.0000 0.0000 0.0000
# 4 0.0000 0.0000 0.0000 110.4611 0.0000 0.0000
# 5 0.0000 0.0000 0.0000 0.0000 38.4716 0.0000
# 6 0.0000 0.0000 0.0000 0.0000 0.0000 17.9930
#
#
#
# Elastic Compliance Matrix: (Units=1/GPa)
#
#
# Indices 1 2 3 4 5 6 
#
# 1 0.013259 -0.003274 -0.002474 0.000000 0.000000 0.000000
# 2 -0.003274 0.019341 -0.005681 0.000000 0.000000 0.000000
# 3 -0.002474 -0.005681 0.010736 0.000000 0.000000 0.000000
# 4 0.000000 0.000000 0.000000 0.009053 0.000000 0.000000
# 5 0.000000 0.000000 0.000000 0.000000 0.025993 0.000000
# 6 0.000000 0.000000 0.000000 0.000000 0.000000 0.055577
#
#
# Mechanical properties :
#
#
# Convention : Reuss Voigt Hill
#
# Bulk Modulus (GPa) = 48.83276 53.08818 50.96047
# Shear Modulus (GPa) = 30.55404 45.32800 37.94102
#
# Velocity S-wave (km/s) = 3.93497 4.79281 4.38492
# Velocity P-wave (km/s) = 6.73740 7.58497 7.17371
#
# Compressibility (1/GPa) = 0.02047806
#
# Stress axis : x y z
#
# Youngs Moduli (GPa) = 75.41952 51.70266 93.14403
#
# Poissons Ratio (x) = 0.16929 0.23041
# Poissons Ratio (y) = 0.24695 0.52918
# Poissons Ratio (z) = 0.18656 0.29374
#
# Static dielectric constant tensor:
#      x y z
#    x 1.690110 0.000000 0.000000 
#    y 0.000000 1.686900 0.000000 
#    z 0.000000 0.000000 1.761240 
# 
# From -- ./inp_files/19308.got.cif
#   From: 2010.05.17/outbox.cif.g08.bks.cpg/sg20_10_cif.got.tgz:19308.got - 2010.06.03 22:52:26.
