data_PCOD9318384
_publ_section_title
;
Structure prediction by ZEFSAII (Michael W. Deem and Ramdas Pophale) SiO2 
 PCOD9318384
Probable space group: C 2 2 21
;
_chemical_formula_sum "Si O2"
_cell_formula_units_Z 40
_cell_length_a 22.956238
_cell_length_b 9.506477
_cell_length_c 7.993768
_cell_angle_alpha 90.000000
_cell_angle_beta 90.000000
_cell_angle_gamma 90.000000
_cell_volume 1744.503561
_symmetry_space_group_name_H-M "C 2 2 21"
_symmetry_group_IT_number 20
_symmetry_cell_setting 'orthorhombic'
loop_
_space_group_symop_operation_xyz
x,y,z
-x,-y,1/2+z
x,-y,-z
-x,y,1/2-z
1/2+x,1/2+y,z
1/2-x,1/2-y,1/2+z
1/2+x,1/2-y,-z
1/2-x,1/2+y,1/2-z
loop_
_atom_site_type_symbol
_atom_site_label
_atom_site_fract_x
_atom_site_fract_y
_atom_site_fract_z
Si Si1 0.463877 0.000000 0.000000
Si Si2 0.294252 0.842843 0.958178
Si Si3 0.000000 0.265918 0.750000
Si Si4 0.434907 0.255594 0.808024
Si Si5 0.176249 0.860338 0.766657
Si Si6 0.115870 0.148088 0.663313
O O1 0.496393 0.873581 0.905990
O O2 0.431751 0.091455 0.858608
O O3 0.228318 0.853837 0.896267
O O4 0.340624 0.780360 0.827134
O O5 0.300450 0.734519 0.112006
O O6 0.312351 0.000000 0.000000
O O7 0.057466 0.171304 0.768426
O O8 0.500000 0.289810 0.750000
O O9 0.384711 0.291689 0.676402
O O10 0.413337 0.340917 0.974828
O O11 0.156762 0.983158 0.289935
#
# Coordination Sequence:
#
# PCOD9318384 Si02
#       6
#     4   8   4   8   8   8
#     4  10  20  40  62 104 134 178 238 288 362 420
#     4  11  24  45  75  98 139 195 244 299 365 439
#     4  10  22  40  72  98 142 188 236 302 370 442
#     4  10  21  39  70  96 140 184 228 295 371 430
#     4  11  25  47  71 104 146 191 242 304 373 438
#     4  10  24  45  71 101 149 186 235 308 374 424
#
# _framework density 22.929158000000001
#
# number of rings (size 3 to 8) (size 9 to 14) (size 15 to 20)
#    0.000    1.600    1.000    3.600   14.000    0.000 
#   14.400    0.000    4.400    0.000    0.000    0.000 
#    0.000    0.000    0.000    0.000    0.000    0.000 
#
# Total GULP energy -111525.285886 kJ/mol
# GULP energy per Si atom -5576.264294 kJ/mol
# Density = 2.287697 g / cm^3
# Si number density = 22.929158 Si / 1000 Ang^3
#
#
#
# Elastic Constant Matrix: (Units=GPa)
#
#
# Indices 1 2 3 4 5 6 
#
# 1 231.4792 89.2015 45.9604 0.0000 0.0000 0.0000
# 2 89.2015 177.1527 33.2581 0.0000 0.0000 0.0000
# 3 45.9604 33.2581 35.8527 0.0000 0.0000 0.0000
# 4 0.0000 0.0000 0.0000 23.0180 0.0000 0.0000
# 5 0.0000 0.0000 0.0000 0.0000 47.5332 0.0000
# 6 0.0000 0.0000 0.0000 0.0000 0.0000 81.7899
#
#
#
# Elastic Compliance Matrix: (Units=1/GPa)
#
#
# Indices 1 2 3 4 5 6 
#
# 1 0.006340 -0.002018 -0.006255 0.000000 0.000000 0.000000
# 2 -0.002018 0.007477 -0.004350 0.000000 0.000000 0.000000
# 3 -0.006255 -0.004350 0.039945 0.000000 0.000000 0.000000
# 4 0.000000 0.000000 0.000000 0.043444 0.000000 0.000000
# 5 0.000000 0.000000 0.000000 0.000000 0.021038 0.000000
# 6 0.000000 0.000000 0.000000 0.000000 0.000000 0.012226
#
#
# Mechanical properties :
#
#
# Convention : Reuss Voigt Hill
#
# Bulk Modulus (GPa) = 35.06646 86.81384 60.94015
# Shear Modulus (GPa) = 30.26240 48.87254 39.56747
#
# Velocity S-wave (km/s) = 3.63688 4.62178 4.15859
# Velocity P-wave (km/s) = 5.74129 8.15016 7.04938
#
# Compressibility (1/GPa) = 0.02851728
#
# Stress axis : x y z
#
# Youngs Moduli (GPa) = 157.73944 133.73478 25.03431
#
# Poissons Ratio (x) = 0.26986 0.15659
# Poissons Ratio (y) = 0.31830 0.10889
# Poissons Ratio (z) = 0.98666 0.58170
#
# Static dielectric constant tensor:
#      x y z
#    x 1.908880 0.000000 0.000000 
#    y 0.000000 1.880420 0.000000 
#    z 0.000000 0.000000 2.037410 
# 
# From -- ./inp_files/10016.got.cif
#   From: 2010.05.17/outbox.cif.g08.bks.cpg/sg20_6_cif.got.tgz:10016.got - 2010.06.03 22:52:26.
