data_PCOD9318828
_publ_section_title
;
Structure prediction by ZEFSAII (Michael W. Deem and Ramdas Pophale) SiO2 
 PCOD9318828
Probable space group: C 2 2 21
;
_chemical_formula_sum "Si O2"
_cell_formula_units_Z 40
_cell_length_a 5.284924
_cell_length_b 9.605523
_cell_length_c 29.476299
_cell_angle_alpha 90.000000
_cell_angle_beta 90.000000
_cell_angle_gamma 90.000000
_cell_volume 1496.348373
_symmetry_space_group_name_H-M "C 2 2 21"
_symmetry_group_IT_number 20
_symmetry_cell_setting 'orthorhombic'
loop_
_space_group_symop_operation_xyz
x,y,z
-x,-y,1/2+z
x,-y,-z
-x,y,1/2-z
1/2+x,1/2+y,z
1/2-x,1/2-y,1/2+z
1/2+x,1/2-y,-z
1/2-x,1/2+y,1/2-z
loop_
_atom_site_type_symbol
_atom_site_label
_atom_site_fract_x
_atom_site_fract_y
_atom_site_fract_z
Si Si1 0.691455 0.877627 0.033957
Si Si2 0.319051 0.278735 0.290164
Si Si3 0.023254 0.947489 0.823279
Si Si4 0.023510 0.395160 0.868639
Si Si5 0.193398 0.789723 0.053643
O O1 0.963541 0.896608 0.056146
O O2 0.465687 0.846316 0.068307
O O3 0.730499 0.746148 0.999721
O O4 0.624663 0.000000 0.000000
O O5 0.500000 0.225213 0.250000
O O6 0.054931 0.197656 0.297992
O O7 0.334706 0.445396 0.289594
O O8 0.455457 0.243833 0.337694
O O9 0.232954 0.934803 0.862651
O O10 0.745063 0.985270 0.844061
O O11 0.112422 0.344212 0.917603
#
# Coordination Sequence:
#
# PCOD9318828 Si02
#       5
#     8   8   8   8   8
#     4  10  21  36  62  92 124 172 210 271 331 411
#     4  10  26  44  71  98 138 181 235 291 361 426
#     4  10  25  42  67  97 131 179 226 285 347 420
#     4  10  24  42  64  98 132 180 228 289 347 422
#     4  10  21  39  60  90 130 162 222 266 337 406
#
# _framework density 26.731742000000001
#
# number of rings (size 3 to 8) (size 9 to 14) (size 15 to 20)
#    1.200    0.800    0.000    1.800    5.600    3.200 
#    0.000    0.000    0.000    0.000    0.000    0.000 
#    0.000    0.000    0.000    0.000    0.000    0.000 
#
# Total GULP energy -111544.509396 kJ/mol
# GULP energy per Si atom -5577.225470 kJ/mol
# Density = 2.667090 g / cm^3
# Si number density = 26.731742 Si / 1000 Ang^3
#
#
#
# Elastic Constant Matrix: (Units=GPa)
#
#
# Indices 1 2 3 4 5 6 
#
# 1 181.2024 34.8453 14.7012 0.0000 0.0000 0.0000
# 2 34.8453 89.2102 3.7499 0.0000 0.0000 0.0000
# 3 14.7012 3.7499 72.4560 0.0000 0.0000 0.0000
# 4 0.0000 0.0000 0.0000 22.8937 0.0000 0.0000
# 5 0.0000 0.0000 0.0000 0.0000 35.5273 0.0000
# 6 0.0000 0.0000 0.0000 0.0000 0.0000 40.5981
#
#
#
# Elastic Compliance Matrix: (Units=1/GPa)
#
#
# Indices 1 2 3 4 5 6 
#
# 1 0.006054 -0.002318 -0.001108 0.000000 0.000000 0.000000
# 2 -0.002318 0.012122 -0.000157 0.000000 0.000000 0.000000
# 3 -0.001108 -0.000157 0.014035 0.000000 0.000000 0.000000
# 4 0.000000 0.000000 0.000000 0.043680 0.000000 0.000000
# 5 0.000000 0.000000 0.000000 0.000000 0.028147 0.000000
# 6 0.000000 0.000000 0.000000 0.000000 0.000000 0.024632
#
#
# Mechanical properties :
#
#
# Convention : Reuss Voigt Hill
#
# Bulk Modulus (GPa) = 39.93109 49.94016 44.93562
# Shear Modulus (GPa) = 34.67772 39.10863 36.89318
#
# Velocity S-wave (km/s) = 3.60564 3.82907 3.71904
# Velocity P-wave (km/s) = 5.68369 6.18640 5.94037
#
# Compressibility (1/GPa) = 0.02504315
#
# Stress axis : x y z
#
# Youngs Moduli (GPa) = 165.16857 82.49748 71.25296
#
# Poissons Ratio (x) = 0.19125 0.07898
# Poissons Ratio (y) = 0.38290 0.01119
# Poissons Ratio (z) = 0.18308 0.01295
#
# Static dielectric constant tensor:
#      x y z
#    x 2.160510 0.000000 0.000000 
#    y 0.000000 2.180030 0.000000 
#    z 0.000000 0.000000 2.106470 
# 
# From -- ./inp_files/30652.got.cif
#   From: 2010.05.17/outbox.cif.g08.bks.cpg/sg20_16_cif.got.tgz:30652.got - 2010.06.03 22:52:26.
