data_PCOD9318726
_publ_section_title
;
Structure prediction by ZEFSAII (Michael W. Deem and Ramdas Pophale) SiO2 
 PCOD9318726
Probable space group: C 2 2 21
;
_chemical_formula_sum "Si O2"
_cell_formula_units_Z 44
_cell_length_a 13.164136
_cell_length_b 5.552165
_cell_length_c 25.509031
_cell_angle_alpha 90.000000
_cell_angle_beta 90.000000
_cell_angle_gamma 90.000000
_cell_volume 1864.441177
_symmetry_space_group_name_H-M "C 2 2 21"
_symmetry_group_IT_number 20
_symmetry_cell_setting 'orthorhombic'
loop_
_space_group_symop_operation_xyz
x,y,z
-x,-y,1/2+z
x,-y,-z
-x,y,1/2-z
1/2+x,1/2+y,z
1/2-x,1/2-y,1/2+z
1/2+x,1/2-y,-z
1/2-x,1/2+y,1/2-z
loop_
_atom_site_type_symbol
_atom_site_label
_atom_site_fract_x
_atom_site_fract_y
_atom_site_fract_z
Si Si1 0.269462 0.294238 0.218626
Si Si2 0.013089 0.930862 0.306583
Si Si3 0.118127 0.241690 0.394563
Si Si4 0.325648 0.847180 0.648609
Si Si5 0.108148 0.000000 0.500000
Si Si6 0.034243 0.611540 0.052807
O O1 0.261832 0.548063 0.252290
O O2 0.385899 0.268620 0.200302
O O3 0.199884 0.383318 0.169696
O O4 0.042789 0.087678 0.357085
O O5 0.000000 0.061896 0.250000
O O6 0.911148 0.778968 0.315899
O O7 0.216868 0.283312 0.358445
O O8 0.159332 0.124417 0.449474
O O9 0.047849 0.453139 0.415628
O O10 0.377706 0.837106 0.592643
O O11 0.033082 0.176921 0.530208
O O12 0.078776 0.500000 0.000000
#
# Coordination Sequence:
#
# PCOD9318726 Si02
#       6
#     8   8   8   8   4   8
#     4  11  26  48  74 111 150 200 253 304 375 452
#     4  11  23  46  69 107 146 194 246 309 367 456
#     4  10  24  44  68 103 139 186 245 303 373 447
#     4  11  24  46  72 105 142 195 243 305 376 441
#     4  10  20  48  68  98 148 170 246 310 362 456
#     4  10  23  45  70 100 136 184 237 309 371 447
#
# _framework density 23.599567
#
# number of rings (size 3 to 8) (size 9 to 14) (size 15 to 20)
#    0.000    1.455    3.636    0.000    3.818    2.909 
#    8.182    0.000    0.000    0.000    0.000    0.000 
#    0.000    0.000    0.000    0.000    0.000    0.000 
#
# Total GULP energy -122755.564363 kJ/mol
# GULP energy per Si atom -5579.798380 kJ/mol
# Density = 2.354585 g / cm^3
# Si number density = 23.599567 Si / 1000 Ang^3
#
#
#
# Elastic Constant Matrix: (Units=GPa)
#
#
# Indices 1 2 3 4 5 6 
#
# 1 112.8594 21.7590 38.0400 0.0000 0.0000 0.0000
# 2 21.7590 38.6638 29.2330 0.0000 0.0000 0.0000
# 3 38.0400 29.2330 140.8059 0.0000 0.0000 0.0000
# 4 0.0000 0.0000 0.0000 48.1668 0.0000 0.0000
# 5 0.0000 0.0000 0.0000 0.0000 76.5213 0.0000
# 6 0.0000 0.0000 0.0000 0.0000 0.0000 25.8726
#
#
#
# Elastic Compliance Matrix: (Units=1/GPa)
#
#
# Indices 1 2 3 4 5 6 
#
# 1 0.010343 -0.004398 -0.001881 0.000000 0.000000 0.000000
# 2 -0.004398 0.032550 -0.005570 0.000000 0.000000 0.000000
# 3 -0.001881 -0.005570 0.008766 0.000000 0.000000 0.000000
# 4 0.000000 0.000000 0.000000 0.020761 0.000000 0.000000
# 5 0.000000 0.000000 0.000000 0.000000 0.013068 0.000000
# 6 0.000000 0.000000 0.000000 0.000000 0.000000 0.038651
#
#
# Mechanical properties :
#
#
# Convention : Reuss Voigt Hill
#
# Bulk Modulus (GPa) = 35.76348 52.26591 44.01470
# Shear Modulus (GPa) = 31.81510 43.66527 37.74018
#
# Velocity S-wave (km/s) = 3.67566 4.30613 4.00333
# Velocity P-wave (km/s) = 5.76205 6.84972 6.32929
#
# Compressibility (1/GPa) = 0.02796148
#
# Stress axis : x y z
#
# Youngs Moduli (GPa) = 96.68772 30.72170 114.07124
#
# Poissons Ratio (x) = 0.13512 0.21457
# Poissons Ratio (y) = 0.42527 0.63533
# Poissons Ratio (z) = 0.18187 0.17111
#
# Static dielectric constant tensor:
#      x y z
#    x 1.868730 0.000000 0.000000 
#    y 0.000000 1.949260 0.000000 
#    z 0.000000 0.000000 2.002580 
# 
# From -- ./inp_files/30384.got.cif
#   From: 2010.05.17/outbox.cif.g08.bks.cpg/sg20_16_cif.got.tgz:30384.got - 2010.06.03 22:52:26.
