data_PCOD9318975
_publ_section_title
;
Structure prediction by ZEFSAII (Michael W. Deem and Ramdas Pophale) SiO2 
 PCOD9318975
Probable space group: C 2 2 21
;
_chemical_formula_sum "Si O2"
_cell_formula_units_Z 24
_cell_length_a 13.437521
_cell_length_b 7.599939
_cell_length_c 10.607725
_cell_angle_alpha 90.000000
_cell_angle_beta 90.000000
_cell_angle_gamma 90.000000
_cell_volume 1083.306914
_symmetry_space_group_name_H-M "C 2 2 21"
_symmetry_group_IT_number 20
_symmetry_cell_setting 'orthorhombic'
loop_
_space_group_symop_operation_xyz
x,y,z
-x,-y,1/2+z
x,-y,-z
-x,y,1/2-z
1/2+x,1/2+y,z
1/2-x,1/2-y,1/2+z
1/2+x,1/2-y,-z
1/2-x,1/2+y,1/2-z
loop_
_atom_site_type_symbol
_atom_site_label
_atom_site_fract_x
_atom_site_fract_y
_atom_site_fract_z
Si Si1 0.807170 0.869151 0.662441
Si Si2 0.986841 0.621357 0.612848
Si Si3 0.212958 0.271311 0.425644
O O1 0.917237 0.790295 0.640347
O O2 0.778311 0.859279 0.808729
O O3 0.743481 0.742259 0.569530
O O4 0.782086 0.065023 0.618269
O O5 0.945691 0.500000 0.500000
O O6 0.000000 0.529215 0.750000
O O7 0.097303 0.675836 0.572450
#
# Coordination Sequence:
#
# PCOD9318975 Si02
#       3
#     8   8   8
#     4  10  22  38  64  89 123 160 206 249 306 360
#     4  10  21  38  63  87 121 160 203 249 305 361
#     4  10  22  42  60  93 123 160 209 251 300 372
#
# _framework density 22.154385999999999
#
# number of rings (size 3 to 8) (size 9 to 14) (size 15 to 20)
#    0.000    2.000    3.333    0.000    9.333    0.000 
#    0.000   20.000    0.000    0.000    0.000    0.000 
#    0.000    0.000    0.000    0.000    0.000    0.000 
#
# Total GULP energy -66857.885580 kJ/mol
# GULP energy per Si atom -5571.490465 kJ/mol
# Density = 2.210396 g / cm^3
# Si number density = 22.154386 Si / 1000 Ang^3
#
#
#
# Elastic Constant Matrix: (Units=GPa)
#
#
# Indices 1 2 3 4 5 6 
#
# 1 76.1465 16.5808 19.1041 0.0000 0.0000 0.0000
# 2 16.5808 74.9582 13.2799 0.0000 0.0000 0.0000
# 3 19.1041 13.2799 57.9521 0.0000 0.0000 0.0000
# 4 0.0000 0.0000 0.0000 37.1310 0.0000 0.0000
# 5 0.0000 0.0000 0.0000 0.0000 51.2047 0.0000
# 6 0.0000 0.0000 0.0000 0.0000 0.0000 10.5208
#
#
#
# Elastic Compliance Matrix: (Units=1/GPa)
#
#
# Indices 1 2 3 4 5 6 
#
# 1 0.014754 -0.002504 -0.004290 0.000000 0.000000 0.000000
# 2 -0.002504 0.014330 -0.002458 0.000000 0.000000 0.000000
# 3 -0.004290 -0.002458 0.019233 0.000000 0.000000 0.000000
# 4 0.000000 0.000000 0.000000 0.026932 0.000000 0.000000
# 5 0.000000 0.000000 0.000000 0.000000 0.019529 0.000000
# 6 0.000000 0.000000 0.000000 0.000000 0.000000 0.095050
#
#
# Mechanical properties :
#
#
# Convention : Reuss Voigt Hill
#
# Bulk Modulus (GPa) = 33.54213 34.10959 33.82586
# Shear Modulus (GPa) = 22.90740 30.44411 26.67576
#
# Velocity S-wave (km/s) = 3.21906 3.71102 3.47376
# Velocity P-wave (km/s) = 5.38419 5.81308 5.60274
#
# Compressibility (1/GPa) = 0.02981325
#
# Stress axis : x y z
#
# Youngs Moduli (GPa) = 67.77808 69.78312 51.99333
#
# Poissons Ratio (x) = 0.17471 0.22305
# Poissons Ratio (y) = 0.16969 0.12783
# Poissons Ratio (z) = 0.29077 0.17156
#
# Static dielectric constant tensor:
#      x y z
#    x 1.796600 0.000000 0.000000 
#    y 0.000000 1.849990 0.000000 
#    z 0.000000 0.000000 1.895900 
# 
# From -- ./inp_files/7727.got.cif
#   From: 2010.05.17/outbox.cif.g08.bks.cpg/sg20_4_cif.got.tgz:7727.got - 2010.06.03 22:52:26.
