data_PCOD9318651
_publ_section_title
;
Structure prediction by ZEFSAII (Michael W. Deem and Ramdas Pophale) SiO2 
 PCOD9318651
Probable space group: C 2 2 21
;
_chemical_formula_sum "Si O2"
_cell_formula_units_Z 40
_cell_length_a 14.146321
_cell_length_b 14.876362
_cell_length_c 9.665221
_cell_angle_alpha 90.000000
_cell_angle_beta 90.000000
_cell_angle_gamma 90.000000
_cell_volume 2034.005090
_symmetry_space_group_name_H-M "C 2 2 21"
_symmetry_group_IT_number 20
_symmetry_cell_setting 'orthorhombic'
loop_
_space_group_symop_operation_xyz
x,y,z
-x,-y,1/2+z
x,-y,-z
-x,y,1/2-z
1/2+x,1/2+y,z
1/2-x,1/2-y,1/2+z
1/2+x,1/2-y,-z
1/2-x,1/2+y,1/2-z
loop_
_atom_site_type_symbol
_atom_site_label
_atom_site_fract_x
_atom_site_fract_y
_atom_site_fract_z
Si Si1 0.489890 0.810605 0.542136
Si Si2 0.000000 0.782806 0.750000
Si Si3 0.162037 0.730447 0.260203
Si Si4 0.737111 0.410986 0.362298
Si Si5 0.180131 0.902000 0.682832
Si Si6 0.586812 0.000000 0.000000
O O1 0.490882 0.778700 0.385171
O O2 0.400676 0.766468 0.621197
O O3 0.585296 0.780329 0.618475
O O4 0.474543 0.917770 0.556727
O O5 0.910410 0.847546 0.770025
O O6 0.225884 0.818524 0.281669
O O7 0.229334 0.644635 0.251354
O O8 0.695906 0.394704 0.516750
O O9 0.679078 0.491461 0.290840
O O10 0.841475 0.451925 0.390664
#
# Coordination Sequence:
#
# PCOD9318651 Si02
#       6
#     8   4   8   8   8   4
#     4  11  24  40  69  98 134 173 225 274 335 388
#     4  12  24  40  66  98 132 180 222 274 324 408
#     4  11  22  43  67  97 130 174 224 276 326 397
#     4  10  20  43  67  91 132 182 206 275 334 387
#     4  10  22  41  65  92 133 176 221 268 335 394
#     4  10  20  44  64  96 136 178 212 280 334 388
#
# _framework density 19.665635999999999
#
# number of rings (size 3 to 8) (size 9 to 14) (size 15 to 20)
#    0.000    1.600    6.000    1.200    0.000    3.200 
#    3.600    0.000    0.000    0.000    0.000    0.000 
#    0.000    0.000    0.000    0.000    0.000    0.000 
#
# Total GULP energy -111669.686085 kJ/mol
# GULP energy per Si atom -5583.484304 kJ/mol
# Density = 1.962088 g / cm^3
# Si number density = 19.665636 Si / 1000 Ang^3
#
#
#
# Elastic Constant Matrix: (Units=GPa)
#
#
# Indices 1 2 3 4 5 6 
#
# 1 69.7219 17.1897 9.9409 0.0000 0.0000 0.0000
# 2 17.1897 118.6200 25.6265 0.0000 0.0000 0.0000
# 3 9.9409 25.6265 80.6007 0.0000 0.0000 0.0000
# 4 0.0000 0.0000 0.0000 35.1888 0.0000 0.0000
# 5 0.0000 0.0000 0.0000 0.0000 -5.4592 0.0000
# 6 0.0000 0.0000 0.0000 0.0000 0.0000 24.9175
#
#
#
# Elastic Compliance Matrix: (Units=1/GPa)
#
#
# Indices 1 2 3 4 5 6 
#
# 1 0.014989 -0.001904 -0.001243 0.000000 0.000000 0.000000
# 2 -0.001904 0.009294 -0.002720 0.000000 0.000000 0.000000
# 3 -0.001243 -0.002720 0.013425 0.000000 0.000000 0.000000
# 4 0.000000 0.000000 0.000000 0.028418 0.000000 0.000000
# 5 0.000000 0.000000 0.000000 0.000000 -0.183176 0.000000
# 6 0.000000 0.000000 0.000000 0.000000 0.000000 0.040132
#
#
# Mechanical properties :
#
#
# Convention : Reuss Voigt Hill
#
# Bulk Modulus (GPa) = 38.50026 41.60631 40.05328
# Shear Modulus (GPa) = -88.45546 25.34180 -31.55683
#
# Velocity S-wave (km/s) = -6.71397 3.59365 -4.01018
# Velocity P-wave (km/s) = 6.36264 6.19854 1.01522
#
# Compressibility (1/GPa) = 0.02597385
#
# Stress axis : x y z
#
# Youngs Moduli (GPa) = 66.71424 107.59880 74.48762
#
# Poissons Ratio (x) = 0.20482 0.09262
# Poissons Ratio (y) = 0.12699 0.20262
# Poissons Ratio (z) = 0.08296 0.29268
#
# Static dielectric constant tensor:
#      x y z
#    x 1.700350 0.000000 0.000000 
#    y 0.000000 1.696430 0.000000 
#    z 0.000000 0.000000 1.688930 
# 
# From -- ./inp_files/8182.got.cif
#   From: 2010.05.17/outbox.cif.g08.bks.cpg/sg20_5_cif.got.tgz:8182.got - 2010.06.03 22:52:26.
