data_PCOD9318559
_publ_section_title
;
Structure prediction by ZEFSAII (Michael W. Deem and Ramdas Pophale) SiO2 
 PCOD9318559
Probable space group: C 2 2 21
;
_chemical_formula_sum "Si O2"
_cell_formula_units_Z 60
_cell_length_a 7.676938
_cell_length_b 12.006251
_cell_length_c 32.399348
_cell_angle_alpha 90.000000
_cell_angle_beta 90.000000
_cell_angle_gamma 90.000000
_cell_volume 2986.288227
_symmetry_space_group_name_H-M "C 2 2 21"
_symmetry_group_IT_number 20
_symmetry_cell_setting 'orthorhombic'
loop_
_space_group_symop_operation_xyz
x,y,z
-x,-y,1/2+z
x,-y,-z
-x,y,1/2-z
1/2+x,1/2+y,z
1/2-x,1/2-y,1/2+z
1/2+x,1/2-y,-z
1/2-x,1/2+y,1/2-z
loop_
_atom_site_type_symbol
_atom_site_label
_atom_site_fract_x
_atom_site_fract_y
_atom_site_fract_z
Si Si1 0.592640 0.614327 0.981852
Si Si2 0.967187 0.663346 0.145335
Si Si3 0.181102 0.347965 0.008674
Si Si4 0.024897 0.099895 0.605260
Si Si5 0.000000 0.151165 0.250000
Si Si6 0.164858 0.987120 0.818866
Si Si7 0.126345 0.485123 0.927009
Si Si8 0.666584 0.721840 0.780424
O O1 0.669149 0.716636 0.006666
O O2 0.607415 0.620539 0.932662
O O3 0.661282 0.500000 0.000000
O O4 0.383525 0.620196 0.987673
O O5 0.914665 0.779092 0.122274
O O6 0.814050 0.600338 0.169466
O O7 0.030837 0.573902 0.111064
O O8 0.107646 0.705369 0.179500
O O9 0.125874 0.396581 0.964456
O O10 0.075303 0.403230 0.046681
O O11 0.185070 0.023339 0.590208
O O12 0.926626 0.033153 0.640463
O O13 0.172656 0.222524 0.257243
O O14 0.028328 0.074505 0.210312
O O15 0.223667 0.098856 0.795125
O O16 0.500000 0.713620 0.750000
#
# Coordination Sequence:
#
# PCOD9318559 Si02
#       8
#     8   8   8   8   4   8   8   8
#     4  11  21  41  63  89 126 175 221 272 325 392
#     4  11  23  42  67  95 133 170 217 274 333 400
#     4  10  21  39  62  90 127 176 217 271 336 380
#     4  10  22  40  63  91 132 169 219 272 326 393
#     4  12  24  44  72  98 132 172 216 270 348 400
#     4  11  25  42  67  99 130 173 218 273 340 398
#     4  10  20  42  61  90 134 167 216 280 327 393
#     4  11  24  45  69  99 132 170 222 276 326 413
#
# _framework density 20.091832
#
# number of rings (size 3 to 8) (size 9 to 14) (size 15 to 20)
#    0.000    1.333    6.000    0.800    0.000    5.333 
#    2.400    0.000    0.000    0.000    0.000    0.000 
#    0.000    0.000    0.000    0.000    0.000    0.000 
#
# Total GULP energy -167384.083066 kJ/mol
# GULP energy per Si atom -5579.469436 kJ/mol
# Density = 2.004610 g / cm^3
# Si number density = 20.091832 Si / 1000 Ang^3
#
#
#
# Elastic Constant Matrix: (Units=GPa)
#
#
# Indices 1 2 3 4 5 6 
#
# 1 40.4598 28.0062 14.2903 0.0000 0.0000 0.0000
# 2 28.0062 147.3532 33.3521 0.0000 0.0000 0.0000
# 3 14.2903 33.3521 86.7146 0.0000 0.0000 0.0000
# 4 0.0000 0.0000 0.0000 33.8717 0.0000 0.0000
# 5 0.0000 0.0000 0.0000 0.0000 28.4702 0.0000
# 6 0.0000 0.0000 0.0000 0.0000 0.0000 17.8316
#
#
#
# Elastic Compliance Matrix: (Units=1/GPa)
#
#
# Indices 1 2 3 4 5 6 
#
# 1 0.029122 -0.004873 -0.002925 0.000000 0.000000 0.000000
# 2 -0.004873 0.008249 -0.002370 0.000000 0.000000 0.000000
# 3 -0.002925 -0.002370 0.012926 0.000000 0.000000 0.000000
# 4 0.000000 0.000000 0.000000 0.029523 0.000000 0.000000
# 5 0.000000 0.000000 0.000000 0.000000 0.035124 0.000000
# 6 0.000000 0.000000 0.000000 0.000000 0.000000 0.056080
#
#
# Mechanical properties :
#
#
# Convention : Reuss Voigt Hill
#
# Bulk Modulus (GPa) = 33.37635 47.31386 40.34510
# Shear Modulus (GPa) = 24.83280 29.29329 27.06305
#
# Velocity S-wave (km/s) = 3.51944 3.82248 3.67409
# Velocity P-wave (km/s) = 5.75876 6.56367 6.17434
#
# Compressibility (1/GPa) = 0.02996134
#
# Stress axis : x y z
#
# Youngs Moduli (GPa) = 34.33823 121.22795 77.36630
#
# Poissons Ratio (x) = 0.59074 0.22630
# Poissons Ratio (y) = 0.16733 0.18333
# Poissons Ratio (z) = 0.10044 0.28727
#
# Static dielectric constant tensor:
#      x y z
#    x 1.703030 0.000000 0.000000 
#    y 0.000000 1.709220 0.000000 
#    z 0.000000 0.000000 1.804960 
# 
# From -- ./inp_files/31035.got.cif
#   From: 2010.05.17/outbox.cif.g08.bks.cpg/sg20_16_cif.got.tgz:31035.got - 2010.06.03 22:52:26.
