data_PCOD9318741
_publ_section_title
;
Structure prediction by ZEFSAII (Michael W. Deem and Ramdas Pophale) SiO2 
 PCOD9318741
Probable space group: C 2 2 21
;
_chemical_formula_sum "Si O2"
_cell_formula_units_Z 56
_cell_length_a 27.504792
_cell_length_b 23.009757
_cell_length_c 5.176447
_cell_angle_alpha 90.000000
_cell_angle_beta 90.000000
_cell_angle_gamma 90.000000
_cell_volume 3276.062428
_symmetry_space_group_name_H-M "C 2 2 21"
_symmetry_group_IT_number 20
_symmetry_cell_setting 'orthorhombic'
loop_
_space_group_symop_operation_xyz
x,y,z
-x,-y,1/2+z
x,-y,-z
-x,y,1/2-z
1/2+x,1/2+y,z
1/2-x,1/2-y,1/2+z
1/2+x,1/2-y,-z
1/2-x,1/2+y,1/2-z
loop_
_atom_site_type_symbol
_atom_site_label
_atom_site_fract_x
_atom_site_fract_y
_atom_site_fract_z
Si Si1 0.325686 0.900991 0.030612
Si Si2 0.891767 0.670171 0.643967
Si Si3 0.738678 0.931633 0.975829
Si Si4 0.000000 0.430690 0.750000
Si Si5 0.895641 0.451372 0.679114
Si Si6 0.715057 0.682632 0.411041
Si Si7 0.183818 0.752693 0.090325
Si Si8 0.500000 0.150744 0.750000
O O1 0.292412 0.912350 0.777902
O O2 0.370971 0.940634 0.952344
O O3 0.353999 0.842361 0.118310
O O4 0.292877 0.917242 0.271557
O O5 0.893614 0.610018 0.476935
O O6 0.865420 0.718868 0.474573
O O7 0.947589 0.682614 0.722094
O O8 0.782760 0.885892 0.965660
O O9 0.750357 0.000000 0.000000
O O10 0.951286 0.466807 0.725738
O O11 0.005373 0.389548 0.501511
O O12 0.871690 0.500000 0.500000
O O13 0.770706 0.707410 0.423497
O O14 0.694892 0.700317 0.132810
O O15 0.686524 0.716391 0.634478
#
# Coordination Sequence:
#
# PCOD9318741 Si02
#       8
#     8   8   8   4   8   8   8   4
#     4  12  22  36  52  75  98 135 175 217 267 305
#     4  11  23  37  56  75 104 138 184 226 275 313
#     4  12  25  37  56  78 109 135 175 219 271 322
#     4  10  22  39  48  66  90 132 176 233 280 316
#     4  11  24  37  52  69  96 133 181 231 277 314
#     4  10  21  36  53  79  99 134 168 218 264 314
#     4  10  21  33  56  74 104 131 174 219 260 313
#     4  10  22  39  56  72  98 136 184 227 278 320
#
# _framework density 17.093692000000001
#
# number of rings (size 3 to 8) (size 9 to 14) (size 15 to 20)
#    0.000    1.143    4.286    1.714    8.000    2.286 
#    0.000    0.000    0.000    0.000    0.000    0.000 
#    0.000    0.000    0.000    2.571    0.000    1.429 
#
# Total GULP energy -156346.335392 kJ/mol
# GULP energy per Si atom -5583.797693 kJ/mol
# Density = 1.705479 g / cm^3
# Si number density = 17.093692 Si / 1000 Ang^3
#
#
#
# Elastic Constant Matrix: (Units=GPa)
#
#
# Indices 1 2 3 4 5 6 
#
# 1 39.9883 22.6760 1.1882 0.0000 0.0000 0.0000
# 2 22.6760 72.2246 8.7591 0.0000 0.0000 0.0000
# 3 1.1882 8.7591 92.6467 0.0000 0.0000 0.0000
# 4 0.0000 0.0000 0.0000 16.6070 0.0000 0.0000
# 5 0.0000 0.0000 0.0000 0.0000 9.2077 0.0000
# 6 0.0000 0.0000 0.0000 0.0000 0.0000 8.2306
#
#
#
# Elastic Compliance Matrix: (Units=1/GPa)
#
#
# Indices 1 2 3 4 5 6 
#
# 1 0.030449 -0.009623 0.000519 0.000000 0.000000 0.000000
# 2 -0.009623 0.017047 -0.001488 0.000000 0.000000 0.000000
# 3 0.000519 -0.001488 0.010928 0.000000 0.000000 0.000000
# 4 0.000000 0.000000 0.000000 0.060216 0.000000 0.000000
# 5 0.000000 0.000000 0.000000 0.000000 0.108604 0.000000
# 6 0.000000 0.000000 0.000000 0.000000 0.000000 0.121498
#
#
# Mechanical properties :
#
#
# Convention : Reuss Voigt Hill
#
# Bulk Modulus (GPa) = 26.85271 30.01177 28.43224
# Shear Modulus (GPa) = 13.07741 18.29148 15.68444
#
# Velocity S-wave (km/s) = 2.76894 3.27474 3.03241
# Velocity P-wave (km/s) = 5.09568 5.64747 5.37866
#
# Compressibility (1/GPa) = 0.03724018
#
# Stress axis : x y z
#
# Youngs Moduli (GPa) = 32.84215 58.65990 91.51020
#
# Poissons Ratio (x) = 0.56447 -0.04752
# Poissons Ratio (y) = 0.31603 0.13619
# Poissons Ratio (z) = -0.01705 0.08730
#
# Static dielectric constant tensor:
#      x y z
#    x 1.610330 0.000000 0.000000 
#    y 0.000000 1.613790 0.000000 
#    z 0.000000 0.000000 1.648190 
# 
# From -- ./inp_files/4371.got.cif
#   From: 2010.05.17/outbox.cif.g08.bks.cpg/sg20_3_cif.got.tgz:4371.got - 2010.06.03 22:52:26.
