data_PCOD9318743
_publ_section_title
;
Structure prediction by ZEFSAII (Michael W. Deem and Ramdas Pophale) SiO2 
 PCOD9318743
Probable space group: C 2 2 21
;
_chemical_formula_sum "Si O2"
_cell_formula_units_Z 64
_cell_length_a 18.385241
_cell_length_b 20.702348
_cell_length_c 8.327813
_cell_angle_alpha 90.000000
_cell_angle_beta 90.000000
_cell_angle_gamma 90.000000
_cell_volume 3169.712674
_symmetry_space_group_name_H-M "C 2 2 21"
_symmetry_group_IT_number 20
_symmetry_cell_setting 'orthorhombic'
loop_
_space_group_symop_operation_xyz
x,y,z
-x,-y,1/2+z
x,-y,-z
-x,y,1/2-z
1/2+x,1/2+y,z
1/2-x,1/2-y,1/2+z
1/2+x,1/2-y,-z
1/2-x,1/2+y,1/2-z
loop_
_atom_site_type_symbol
_atom_site_label
_atom_site_fract_x
_atom_site_fract_y
_atom_site_fract_z
Si Si1 0.242349 0.303426 0.471585
Si Si2 0.424236 0.769760 0.703192
Si Si3 0.110684 0.239106 0.136407
Si Si4 0.710399 0.427305 0.552620
Si Si5 0.582321 0.007133 0.805132
Si Si6 0.173642 0.615043 0.276171
Si Si7 0.681465 0.126492 0.795580
Si Si8 0.124748 0.804268 0.522067
O O1 0.313110 0.293847 0.578862
O O2 0.185820 0.352872 0.552039
O O3 0.248063 0.338828 0.301677
O O4 0.201001 0.235525 0.455872
O O5 0.500000 0.803272 0.750000
O O6 0.433733 0.736129 0.529958
O O7 0.359245 0.821666 0.685736
O O8 0.406338 0.722565 0.853553
O O9 0.127527 0.314162 0.172050
O O10 0.085249 0.211230 0.307799
O O11 0.694671 0.500000 0.500000
O O12 0.748393 0.415149 0.724684
O O13 0.778052 0.403192 0.446920
O O14 0.643904 0.379434 0.522905
O O15 0.500000 0.016626 0.750000
O O16 0.615563 0.941303 0.735403
O O17 0.632311 0.066052 0.742241
O O18 0.585849 0.000000 0.000000
#
# Coordination Sequence:
#
# PCOD9318743 Si02
#       8
#     8   8   8   8   8   8   8   8
#     4  10  21  33  61  86 111 150 192 263 304 350
#     4  11  23  39  61  88 119 160 204 246 292 363
#     4  11  20  38  60  87 121 152 195 256 311 350
#     4  12  19  36  61  85 118 151 188 243 308 358
#     4  12  25  40  53  76 123 180 209 240 273 344
#     4  11  20  38  56  82 119 158 200 238 299 341
#     4  11  21  36  54  82 115 158 205 240 291 347
#     4  10  22  37  59  91 114 151 198 248 314 355
#
# _framework density 20.191103999999999
#
# number of rings (size 3 to 8) (size 9 to 14) (size 15 to 20)
#    0.000    1.000    6.250    1.125    5.250    0.500 
#    6.750    0.000    0.000    0.000    3.250    0.000 
#    0.000    0.000    0.000    0.000    0.000    0.000 
#
# Total GULP energy -178300.728591 kJ/mol
# GULP energy per Si atom -5571.897768 kJ/mol
# Density = 2.014515 g / cm^3
# Si number density = 20.191104 Si / 1000 Ang^3
#
#
#
# Elastic Constant Matrix: (Units=GPa)
#
#
# Indices 1 2 3 4 5 6 
#
# 1 34.9361 23.6739 15.5177 0.0000 0.0000 0.0000
# 2 23.6739 122.4036 41.3190 0.0000 0.0000 0.0000
# 3 15.5177 41.3190 85.4436 0.0000 0.0000 0.0000
# 4 0.0000 0.0000 0.0000 22.7330 0.0000 0.0000
# 5 0.0000 0.0000 0.0000 0.0000 24.1202 0.0000
# 6 0.0000 0.0000 0.0000 0.0000 0.0000 12.2068
#
#
#
# Elastic Compliance Matrix: (Units=1/GPa)
#
#
# Indices 1 2 3 4 5 6 
#
# 1 0.033824 -0.005340 -0.003561 0.000000 0.000000 0.000000
# 2 -0.005340 0.010607 -0.004159 0.000000 0.000000 0.000000
# 3 -0.003561 -0.004159 0.014362 0.000000 0.000000 0.000000
# 4 0.000000 0.000000 0.000000 0.043989 0.000000 0.000000
# 5 0.000000 0.000000 0.000000 0.000000 0.041459 0.000000
# 6 0.000000 0.000000 0.000000 0.000000 0.000000 0.081921
#
#
# Mechanical properties :
#
#
# Convention : Reuss Voigt Hill
#
# Bulk Modulus (GPa) = 30.60696 44.86718 37.73707
# Shear Modulus (GPa) = 18.99901 22.63017 20.81459
#
# Velocity S-wave (km/s) = 3.07083 3.35147 3.21421
# Velocity P-wave (km/s) = 5.26924 6.10294 5.70135
#
# Compressibility (1/GPa) = 0.03267230
#
# Stress axis : x y z
#
# Youngs Moduli (GPa) = 29.56509 94.28171 69.62981
#
# Poissons Ratio (x) = 0.50345 0.24792
# Poissons Ratio (y) = 0.15787 0.28961
# Poissons Ratio (z) = 0.10527 0.39215
#
# Static dielectric constant tensor:
#      x y z
#    x 1.720450 0.000000 0.000000 
#    y 0.000000 1.692430 0.000000 
#    z 0.000000 0.000000 1.858080 
# 
# From -- ./inp_files/10340.got.cif
#   From: 2010.05.17/outbox.cif.g08.bks.cpg/sg20_6_cif.got.tgz:10340.got - 2010.06.03 22:52:26.
