data_PCOD9318041
_publ_section_title
;
Structure prediction by ZEFSAII (Michael W. Deem and Ramdas Pophale) SiO2 
 PCOD9318041
Probable space group: C 2 2 21
;
_chemical_formula_sum "Si O2"
_cell_formula_units_Z 56
_cell_length_a 5.374390
_cell_length_b 34.216910
_cell_length_c 13.200331
_cell_angle_alpha 90.000000
_cell_angle_beta 90.000000
_cell_angle_gamma 90.000000
_cell_volume 2427.475119
_symmetry_space_group_name_H-M "C 2 2 21"
_symmetry_group_IT_number 20
_symmetry_cell_setting 'orthorhombic'
loop_
_space_group_symop_operation_xyz
x,y,z
-x,-y,1/2+z
x,-y,-z
-x,y,1/2-z
1/2+x,1/2+y,z
1/2-x,1/2-y,1/2+z
1/2+x,1/2-y,-z
1/2-x,1/2+y,1/2-z
loop_
_atom_site_type_symbol
_atom_site_label
_atom_site_fract_x
_atom_site_fract_y
_atom_site_fract_z
Si Si1 0.628090 0.807689 0.637800
Si Si2 0.140638 0.381508 0.906051
Si Si3 0.500000 0.809415 0.250000
Si Si4 0.413288 0.954677 0.475192
Si Si5 0.500000 0.343376 0.750000
Si Si6 0.601381 0.651527 0.604565
Si Si7 0.884101 0.768838 0.364772
Si Si8 0.911476 0.069539 0.638810
O O1 0.500000 0.808003 0.750000
O O2 0.581298 0.850481 0.594519
O O3 0.497317 0.770514 0.587736
O O4 0.914862 0.811878 0.664755
O O5 0.305283 0.371805 0.807031
O O6 0.062686 0.425754 0.927577
O O7 0.281496 0.366927 0.005535
O O8 0.698218 0.836697 0.191253
O O9 0.603230 0.779965 0.336650
O O10 0.638907 0.943312 0.398874
O O11 0.136182 0.946381 0.431851
O O12 0.437332 0.000000 0.500000
O O13 0.474447 0.692566 0.578611
O O14 0.418689 0.616891 0.638565
O O15 0.000000 0.770181 0.250000
O O16 0.000000 0.056619 0.750000
#
# Coordination Sequence:
#
# PCOD9318041 Si02
#       8
#     8   8   4   8   4   8   8   8
#     4   9  20  39  61  91 122 178 229 286 345 406
#     4  10  24  41  67  96 131 180 232 293 352 433
#     4  10  20  37  62  94 142 176 234 286 356 416
#     4  11  26  48  74 105 147 186 229 301 368 431
#     4  10  22  45  68  90 132 184 244 292 356 422
#     4  10  23  36  62 100 134 179 225 285 351 423
#     4   9  19  35  57  94 127 177 221 283 343 407
#     4  11  24  44  75 107 144 186 233 284 361 444
#
# _framework density 23.069239
#
# number of rings (size 3 to 8) (size 9 to 14) (size 15 to 20)
#    0.000    2.000    0.000    2.143   12.000    9.143 
#    6.429    2.857    0.000    0.000    0.000    0.000 
#    0.000    0.000    0.000    0.000    0.000    0.000 
#
# Total GULP energy -156031.886468 kJ/mol
# GULP energy per Si atom -5572.567374 kJ/mol
# Density = 2.301673 g / cm^3
# Si number density = 23.069239 Si / 1000 Ang^3
#
#
#
# Elastic Constant Matrix: (Units=GPa)
#
#
# Indices 1 2 3 4 5 6 
#
# 1 60.1486 36.2689 5.2394 0.0000 0.0000 0.0000
# 2 36.2689 207.1905 32.3866 0.0000 0.0000 0.0000
# 3 5.2394 32.3866 59.0092 0.0000 0.0000 0.0000
# 4 0.0000 0.0000 0.0000 21.7992 0.0000 0.0000
# 5 0.0000 0.0000 0.0000 0.0000 33.9602 0.0000
# 6 0.0000 0.0000 0.0000 0.0000 0.0000 18.7851
#
#
#
# Elastic Compliance Matrix: (Units=1/GPa)
#
#
# Indices 1 2 3 4 5 6 
#
# 1 0.018589 -0.003277 0.000148 0.000000 0.000000 0.000000
# 2 -0.003277 0.005857 -0.002924 0.000000 0.000000 0.000000
# 3 0.000148 -0.002924 0.018538 0.000000 0.000000 0.000000
# 4 0.000000 0.000000 0.000000 0.045873 0.000000 0.000000
# 5 0.000000 0.000000 0.000000 0.000000 0.029446 0.000000
# 6 0.000000 0.000000 0.000000 0.000000 0.000000 0.053234
#
#
# Mechanical properties :
#
#
# Convention : Reuss Voigt Hill
#
# Bulk Modulus (GPa) = 32.38503 52.68201 42.53352
# Shear Modulus (GPa) = 25.78182 31.73913 28.76048
#
# Velocity S-wave (km/s) = 3.34666 3.71323 3.53470
# Velocity P-wave (km/s) = 5.38536 6.42418 5.92757
#
# Compressibility (1/GPa) = 0.03087847
#
# Stress axis : x y z
#
# Youngs Moduli (GPa) = 53.79629 170.73168 53.94331
#
# Poissons Ratio (x) = 0.55951 -0.00799
# Poissons Ratio (y) = 0.17630 0.15771
# Poissons Ratio (z) = -0.00797 0.49916
#
# Static dielectric constant tensor:
#      x y z
#    x 2.130570 0.000000 0.000000 
#    y 0.000000 1.875630 0.000000 
#    z 0.000000 0.000000 2.040230 
# 
# From -- ./inp_files/18025.got.cif
#   From: 2010.05.17/outbox.cif.g08.bks.cpg/sg20_10_cif.got.tgz:18025.got - 2010.06.03 22:52:26.
