data_PCOD9318348
_publ_section_title
;
Structure prediction by ZEFSAII (Michael W. Deem and Ramdas Pophale) SiO2 
 PCOD9318348
Probable space group: C 2 2 21
;
_chemical_formula_sum "Si O2"
_cell_formula_units_Z 60
_cell_length_a 11.497270
_cell_length_b 30.177221
_cell_length_c 8.242660
_cell_angle_alpha 90.000000
_cell_angle_beta 90.000000
_cell_angle_gamma 90.000000
_cell_volume 2859.837521
_symmetry_space_group_name_H-M "C 2 2 21"
_symmetry_group_IT_number 20
_symmetry_cell_setting 'orthorhombic'
loop_
_space_group_symop_operation_xyz
x,y,z
-x,-y,1/2+z
x,-y,-z
-x,y,1/2-z
1/2+x,1/2+y,z
1/2-x,1/2-y,1/2+z
1/2+x,1/2-y,-z
1/2-x,1/2+y,1/2-z
loop_
_atom_site_type_symbol
_atom_site_label
_atom_site_fract_x
_atom_site_fract_y
_atom_site_fract_z
Si Si1 0.841329 0.608674 0.033201
Si Si2 0.421711 0.870073 0.414575
Si Si3 0.768632 0.798238 0.594710
Si Si4 0.248650 0.798905 0.532239
Si Si5 0.000000 0.095130 0.750000
Si Si6 0.747296 0.938727 0.205013
Si Si7 0.130395 0.477884 0.681868
Si Si8 0.501808 0.655240 0.435628
O O1 0.781656 0.656190 0.026159
O O2 0.817273 0.571492 0.168260
O O3 0.800336 0.583798 0.870791
O O4 0.978381 0.618677 0.042102
O O5 0.500000 0.868465 0.250000
O O6 0.350192 0.824997 0.438799
O O7 0.326876 0.909375 0.420078
O O8 0.725028 0.798409 0.778192
O O9 0.734155 0.751718 0.519748
O O10 0.907468 0.805312 0.579614
O O11 0.128004 0.825614 0.519755
O O12 0.884896 0.067933 0.797638
O O13 0.970786 0.123894 0.588043
O O14 0.707866 0.989281 0.210869
O O15 0.125281 0.500000 0.500000
O O16 0.000000 0.477526 0.750000
O O17 0.500000 0.635531 0.250000
#
# Coordination Sequence:
#
# PCOD9318348 Si02
#       8
#     8   8   8   8   4   8   8   8
#     4  10  22  40  65  93 135 170 219 279 344 397
#     4  10  22  39  67  98 135 170 224 281 336 415
#     4  11  26  42  64  99 131 181 230 283 344 408
#     4  11  26  42  66  94 139 173 231 287 342 409
#     4  12  20  40  80  90 134 184 228 270 354 406
#     4  10  20  39  67 101 123 177 223 268 337 418
#     4  10  21  40  67  96 134 170 212 278 339 410
#     4  10  24  45  64  97 137 185 229 286 339 406
#
# _framework density 20.980212000000002
#
# number of rings (size 3 to 8) (size 9 to 14) (size 15 to 20)
#    0.000    1.600    2.667    2.000    9.333    0.533 
#    0.000    0.000    4.400    7.200    0.000    0.000 
#    0.000    0.000    0.000    0.000    0.000    0.000 
#
# Total GULP energy -167355.349049 kJ/mol
# GULP energy per Si atom -5578.511635 kJ/mol
# Density = 2.093246 g / cm^3
# Si number density = 20.980212 Si / 1000 Ang^3
#
#
#
# Elastic Constant Matrix: (Units=GPa)
#
#
# Indices 1 2 3 4 5 6 
#
# 1 113.4302 37.7661 7.5277 0.0000 0.0000 0.0000
# 2 37.7661 110.5934 -2.1764 0.0000 0.0000 0.0000
# 3 7.5277 -2.1764 36.8821 0.0000 0.0000 0.0000
# 4 0.0000 0.0000 0.0000 12.3651 0.0000 0.0000
# 5 0.0000 0.0000 0.0000 0.0000 37.6927 0.0000
# 6 0.0000 0.0000 0.0000 0.0000 0.0000 19.5747
#
#
#
# Elastic Compliance Matrix: (Units=1/GPa)
#
#
# Indices 1 2 3 4 5 6 
#
# 1 0.010134 -0.003505 -0.002275 0.000000 0.000000 0.000000
# 2 -0.003505 0.010265 0.001321 0.000000 0.000000 0.000000
# 3 -0.002275 0.001321 0.027656 0.000000 0.000000 0.000000
# 4 0.000000 0.000000 0.000000 0.080873 0.000000 0.000000
# 5 0.000000 0.000000 0.000000 0.000000 0.026530 0.000000
# 6 0.000000 0.000000 0.000000 0.000000 0.000000 0.051086
#
#
# Mechanical properties :
#
#
# Convention : Reuss Voigt Hill
#
# Bulk Modulus (GPa) = 25.55184 38.57119 32.06152
# Shear Modulus (GPa) = 21.88098 28.44572 25.16335
#
# Velocity S-wave (km/s) = 3.23295 3.68616 3.46697
# Velocity P-wave (km/s) = 5.11287 6.04496 5.59835
#
# Compressibility (1/GPa) = 0.03913612
#
# Stress axis : x y z
#
# Youngs Moduli (GPa) = 98.67668 97.41661 36.15881
#
# Poissons Ratio (x) = 0.34149 0.08227
# Poissons Ratio (y) = 0.34590 -0.04777
# Poissons Ratio (z) = 0.22451 -0.12871
#
# Static dielectric constant tensor:
#      x y z
#    x 1.730240 0.000000 0.000000 
#    y 0.000000 1.498150 0.000000 
#    z 0.000000 0.000000 1.846670 
# 
# From -- ./inp_files/7634.got.cif
#   From: 2010.05.17/outbox.cif.g08.bks.cpg/sg20_4_cif.got.tgz:7634.got - 2010.06.03 22:52:26.
