data_PCOD9318985
_publ_section_title
;
Structure prediction by ZEFSAII (Michael W. Deem and Ramdas Pophale) SiO2 
 PCOD9318985
Probable space group: C 2 2 21
;
_chemical_formula_sum "Si O2"
_cell_formula_units_Z 36
_cell_length_a 10.390572
_cell_length_b 19.868502
_cell_length_c 7.499880
_cell_angle_alpha 90.000000
_cell_angle_beta 90.000000
_cell_angle_gamma 90.000000
_cell_volume 1548.313481
_symmetry_space_group_name_H-M "C 2 2 21"
_symmetry_group_IT_number 20
_symmetry_cell_setting 'orthorhombic'
loop_
_space_group_symop_operation_xyz
x,y,z
-x,-y,1/2+z
x,-y,-z
-x,y,1/2-z
1/2+x,1/2+y,z
1/2-x,1/2-y,1/2+z
1/2+x,1/2-y,-z
1/2-x,1/2+y,1/2-z
loop_
_atom_site_type_symbol
_atom_site_label
_atom_site_fract_x
_atom_site_fract_y
_atom_site_fract_z
Si Si1 0.500000 0.191903 0.250000
Si Si2 0.000000 0.596050 0.750000
Si Si3 0.270318 0.610616 0.246181
Si Si4 0.132784 0.208317 0.528247
Si Si5 0.334050 0.000000 0.500000
Si Si6 0.744906 0.662313 0.891484
O O1 0.627973 0.146754 0.237656
O O2 0.483988 0.243518 0.084350
O O3 0.926884 0.550716 0.605344
O O4 0.888371 0.639004 0.840125
O O5 0.249906 0.540536 0.145070
O O6 0.305126 0.612600 0.454617
O O7 0.367223 0.657127 0.133971
O O8 0.240605 0.263943 0.478827
O O9 0.170213 0.167814 0.706416
#
# Coordination Sequence:
#
# PCOD9318985 Si02
#       6
#     4   4   8   8   4   8
#     4  10  21  38  64  90 129 160 214 262 314 386
#     4  12  23  36  62  96 131 170 210 262 326 380
#     4  11  23  40  59  94 129 166 209 258 317 383
#     4  11  21  39  58  91 126 165 206 265 317 377
#     4  12  22  38  60  92 132 172 204 260 320 390
#     4  11  22  37  61  89 129 163 211 256 322 381
#
# _framework density 23.251104999999999
#
# number of rings (size 3 to 8) (size 9 to 14) (size 15 to 20)
#    0.000    0.889    6.667    4.667    0.000    0.000 
#    0.000    0.000    0.000    0.000    5.778    0.000 
#    0.000    0.000    0.000    0.000    0.000    0.000 
#
# Total GULP energy -100624.083810 kJ/mol
# GULP energy per Si atom -5590.226878 kJ/mol
# Density = 2.319818 g / cm^3
# Si number density = 23.251105 Si / 1000 Ang^3
#
#
#
# Elastic Constant Matrix: (Units=GPa)
#
#
# Indices 1 2 3 4 5 6 
#
# 1 49.2271 23.6670 20.2186 0.0000 0.0000 0.0000
# 2 23.6670 73.4241 42.7821 0.0000 0.0000 0.0000
# 3 20.2186 42.7821 165.1892 0.0000 0.0000 0.0000
# 4 0.0000 0.0000 0.0000 49.7558 0.0000 0.0000
# 5 0.0000 0.0000 0.0000 0.0000 31.9897 0.0000
# 6 0.0000 0.0000 0.0000 0.0000 0.0000 15.5271
#
#
#
# Elastic Compliance Matrix: (Units=1/GPa)
#
#
# Indices 1 2 3 4 5 6 
#
# 1 0.024211 -0.007157 -0.001110 0.000000 0.000000 0.000000
# 2 -0.007157 0.018156 -0.003826 0.000000 0.000000 0.000000
# 3 -0.001110 -0.003826 0.007180 0.000000 0.000000 0.000000
# 4 0.000000 0.000000 0.000000 0.020098 0.000000 0.000000
# 5 0.000000 0.000000 0.000000 0.000000 0.031260 0.000000
# 6 0.000000 0.000000 0.000000 0.000000 0.000000 0.064404
#
#
# Mechanical properties :
#
#
# Convention : Reuss Voigt Hill
#
# Bulk Modulus (GPa) = 39.43087 51.24176 45.33632
# Shear Modulus (GPa) = 25.25903 32.86604 29.06253
#
# Velocity S-wave (km/s) = 3.29957 3.76377 3.53929
# Velocity P-wave (km/s) = 5.61353 6.40111 6.02021
#
# Compressibility (1/GPa) = 0.02536084
#
# Stress axis : x y z
#
# Youngs Moduli (GPa) = 41.30386 55.07833 139.26788
#
# Poissons Ratio (x) = 0.39422 0.15454
# Poissons Ratio (y) = 0.29563 0.53286
# Poissons Ratio (z) = 0.04583 0.21074
#
# Static dielectric constant tensor:
#      x y z
#    x 1.911860 0.000000 0.000000 
#    y 0.000000 1.874440 0.000000 
#    z 0.000000 0.000000 1.950220 
# 
# From -- ./inp_files/7200.got.cif
#   From: 2010.05.17/outbox.cif.g08.bks.cpg/sg20_4_cif.got.tgz:7200.got - 2010.06.03 22:52:26.
