data_PCOD9318954
_publ_section_title
;
Structure prediction by ZEFSAII (Michael W. Deem and Ramdas Pophale) SiO2 
 PCOD9318954
Probable space group: C 2 2 21
;
_chemical_formula_sum "Si O2"
_cell_formula_units_Z 40
_cell_length_a 14.880479
_cell_length_b 13.992671
_cell_length_c 7.871882
_cell_angle_alpha 90.000000
_cell_angle_beta 90.000000
_cell_angle_gamma 90.000000
_cell_volume 1639.064747
_symmetry_space_group_name_H-M "C 2 2 21"
_symmetry_group_IT_number 20
_symmetry_cell_setting 'orthorhombic'
loop_
_space_group_symop_operation_xyz
x,y,z
-x,-y,1/2+z
x,-y,-z
-x,y,1/2-z
1/2+x,1/2+y,z
1/2-x,1/2-y,1/2+z
1/2+x,1/2-y,-z
1/2-x,1/2+y,1/2-z
loop_
_atom_site_type_symbol
_atom_site_label
_atom_site_fract_x
_atom_site_fract_y
_atom_site_fract_z
Si Si1 0.417277 0.311214 0.850097
Si Si2 0.247217 0.904347 0.291370
Si Si3 0.510114 0.813747 0.940888
Si Si4 0.309717 0.711821 0.469343
Si Si5 0.905788 0.000000 0.000000
Si Si6 0.391306 0.000000 0.500000
O O1 0.500000 0.263207 0.750000
O O2 0.336529 0.326477 0.719655
O O3 0.416921 0.235134 0.001083
O O4 0.454480 0.410721 0.919611
O O5 0.265401 0.814306 0.420003
O O6 0.322897 0.983597 0.339490
O O7 0.155703 0.952640 0.354484
O O8 0.237928 0.859610 0.102458
O O9 0.500000 0.844506 0.750000
O O10 0.593880 0.739329 0.947512
O O11 0.545065 0.909383 0.026468
#
# Coordination Sequence:
#
# PCOD9318954 Si02
#       6
#     8   8   8   8   4   4
#     4  10  23  39  60  88 123 164 211 261 321 390
#     4  10  21  38  61  89 127 166 213 264 325 401
#     4  10  21  40  64  91 125 168 213 269 328 389
#     4  10  21  40  62  87 125 172 211 264 333 397
#     4  11  22  38  58  90 124 157 208 264 316 395
#     4   9  22  40  64  98 128 165 220 272 330 403
#
# _framework density 24.404160000000001
#
# number of rings (size 3 to 8) (size 9 to 14) (size 15 to 20)
#    0.000    2.000    0.000    2.400    0.000    8.800 
#    0.000    2.000    0.000    0.000    0.000    0.000 
#    0.000    0.000    0.000    0.000    0.000    0.000 
#
# Total GULP energy -111388.277347 kJ/mol
# GULP energy per Si atom -5569.413867 kJ/mol
# Density = 2.434861 g / cm^3
# Si number density = 24.404160 Si / 1000 Ang^3
#
#
#
# Elastic Constant Matrix: (Units=GPa)
#
#
# Indices 1 2 3 4 5 6 
#
# 1 53.4221 30.9758 19.0123 0.0000 0.0000 0.0000
# 2 30.9758 122.2165 27.0242 0.0000 0.0000 0.0000
# 3 19.0123 27.0242 79.4878 0.0000 0.0000 0.0000
# 4 0.0000 0.0000 0.0000 33.7131 0.0000 0.0000
# 5 0.0000 0.0000 0.0000 0.0000 19.2376 0.0000
# 6 0.0000 0.0000 0.0000 0.0000 0.0000 49.1021
#
#
#
# Elastic Compliance Matrix: (Units=1/GPa)
#
#
# Indices 1 2 3 4 5 6 
#
# 1 0.022957 -0.004979 -0.003798 0.000000 0.000000 0.000000
# 2 -0.004979 0.009927 -0.002184 0.000000 0.000000 0.000000
# 3 -0.003798 -0.002184 0.014232 0.000000 0.000000 0.000000
# 4 0.000000 0.000000 0.000000 0.029662 0.000000 0.000000
# 5 0.000000 0.000000 0.000000 0.000000 0.051982 0.000000
# 6 0.000000 0.000000 0.000000 0.000000 0.000000 0.020366
#
#
# Mechanical properties :
#
#
# Convention : Reuss Voigt Hill
#
# Bulk Modulus (GPa) = 39.69263 45.46121 42.57692
# Shear Modulus (GPa) = 27.86356 32.28482 30.07419
#
# Velocity S-wave (km/s) = 3.38265 3.64115 3.51428
# Velocity P-wave (km/s) = 5.61751 6.02878 5.82678
#
# Compressibility (1/GPa) = 0.02519359
#
# Stress axis : x y z
#
# Youngs Moduli (GPa) = 43.55881 100.73535 70.26595
#
# Poissons Ratio (x) = 0.50153 0.26690
# Poissons Ratio (y) = 0.21687 0.15347
# Poissons Ratio (z) = 0.16546 0.22002
#
# Static dielectric constant tensor:
#      x y z
#    x 2.062640 0.000000 0.000000 
#    y 0.000000 1.907470 0.000000 
#    z 0.000000 0.000000 2.232790 
# 
# From -- ./inp_files/8177.got.cif
#   From: 2010.05.17/outbox.cif.g08.bks.cpg/sg20_5_cif.got.tgz:8177.got - 2010.06.03 22:52:26.
