data_PCOD9318072
_publ_section_title
;
Structure prediction by ZEFSAII (Michael W. Deem and Ramdas Pophale) SiO2 
 PCOD9318072
Probable space group: C 2 2 21
;
_chemical_formula_sum "Si O2"
_cell_formula_units_Z 64
_cell_length_a 15.234952
_cell_length_b 22.472709
_cell_length_c 8.956821
_cell_angle_alpha 90.000000
_cell_angle_beta 90.000000
_cell_angle_gamma 90.000000
_cell_volume 3066.552564
_symmetry_space_group_name_H-M "C 2 2 21"
_symmetry_group_IT_number 20
_symmetry_cell_setting 'orthorhombic'
loop_
_space_group_symop_operation_xyz
x,y,z
-x,-y,1/2+z
x,-y,-z
-x,y,1/2-z
1/2+x,1/2+y,z
1/2-x,1/2-y,1/2+z
1/2+x,1/2-y,-z
1/2-x,1/2+y,1/2-z
loop_
_atom_site_type_symbol
_atom_site_label
_atom_site_fract_x
_atom_site_fract_y
_atom_site_fract_z
Si Si1 0.404803 0.933884 0.455162
Si Si2 0.135042 0.723731 0.693086
Si Si3 0.457091 0.312318 0.403536
Si Si4 0.956690 0.688709 0.526068
Si Si5 0.173585 0.466994 0.351410
Si Si6 0.754046 0.582646 0.302891
Si Si7 0.083321 0.854388 0.656216
Si Si8 0.764196 0.145926 0.507629
O O1 0.467782 0.880667 0.506572
O O2 0.389290 0.939560 0.276780
O O3 0.318849 0.916930 0.554954
O O4 0.432015 0.000000 0.500000
O O5 0.124198 0.693993 0.855945
O O6 0.129215 0.794322 0.720376
O O7 0.212486 0.700105 0.588261
O O8 0.045612 0.706673 0.608973
O O9 0.500000 0.331222 0.250000
O O10 0.441676 0.240553 0.406293
O O11 0.536026 0.329446 0.512128
O O12 0.367277 0.342544 0.461348
O O13 0.135925 0.500000 0.500000
O O14 0.229459 0.518258 0.269232
O O15 0.233805 0.413192 0.405630
O O16 0.656493 0.596072 0.358998
O O17 0.764744 0.629734 0.163609
O O18 0.000000 0.875760 0.750000
#
# Coordination Sequence:
#
# PCOD9318072 Si02
#       8
#     8   8   8   8   8   8   8   8
#     4  10  21  38  63  93 126 167 217 264 319 384
#     4  10  20  37  67  87 124 168 203 251 325 387
#     4  11  25  40  63  95 132 161 217 278 323 388
#     4  10  20  41  59  90 128 163 203 265 316 383
#     4   9  20  39  62  91 128 163 214 275 304 383
#     4  10  22  38  64  90 128 167 212 262 327 381
#     4  11  20  42  60  86 127 167 203 257 321 385
#     4  11  21  40  65  93 123 170 218 258 331 391
#
# _framework density 20.870342999999998
#
# number of rings (size 3 to 8) (size 9 to 14) (size 15 to 20)
#    0.000    1.750    5.000    0.000    3.500    2.000 
#    2.250    2.500    2.750    0.000    0.000    0.000 
#    0.000    0.000    0.000    0.000    0.000    0.000 
#
# Total GULP energy -178240.380372 kJ/mol
# GULP energy per Si atom -5570.011887 kJ/mol
# Density = 2.082284 g / cm^3
# Si number density = 20.870343 Si / 1000 Ang^3
#
#
#
# Elastic Constant Matrix: (Units=GPa)
#
#
# Indices 1 2 3 4 5 6 
#
# 1 68.4476 32.4465 20.8361 0.0000 0.0000 0.0000
# 2 32.4465 54.1648 5.0632 0.0000 0.0000 0.0000
# 3 20.8361 5.0632 79.8361 0.0000 0.0000 0.0000
# 4 0.0000 0.0000 0.0000 22.6421 0.0000 0.0000
# 5 0.0000 0.0000 0.0000 0.0000 15.0457 0.0000
# 6 0.0000 0.0000 0.0000 0.0000 0.0000 21.2585
#
#
#
# Elastic Compliance Matrix: (Units=1/GPa)
#
#
# Indices 1 2 3 4 5 6 
#
# 1 0.022214 -0.012841 -0.004983 0.000000 0.000000 0.000000
# 2 -0.012841 0.025995 0.001703 0.000000 0.000000 0.000000
# 3 -0.004983 0.001703 0.013718 0.000000 0.000000 0.000000
# 4 0.000000 0.000000 0.000000 0.044165 0.000000 0.000000
# 5 0.000000 0.000000 0.000000 0.000000 0.066464 0.000000
# 6 0.000000 0.000000 0.000000 0.000000 0.000000 0.047040
#
#
# Mechanical properties :
#
#
# Convention : Reuss Voigt Hill
#
# Bulk Modulus (GPa) = 33.68775 35.46002 34.57388
# Shear Modulus (GPa) = 19.10335 21.39610 20.24973
#
# Velocity S-wave (km/s) = 3.02873 3.20534 3.11828
# Velocity P-wave (km/s) = 5.32986 5.54314 5.43755
#
# Compressibility (1/GPa) = 0.02968438
#
# Stress axis : x y z
#
# Youngs Moduli (GPa) = 45.01731 38.46867 72.89587
#
# Poissons Ratio (x) = 0.49397 0.36325
# Poissons Ratio (y) = 0.57806 -0.12412
# Poissons Ratio (z) = 0.22433 -0.06550
#
# Static dielectric constant tensor:
#      x y z
#    x 1.725040 0.000000 0.000000 
#    y 0.000000 1.787550 0.000000 
#    z 0.000000 0.000000 1.809000 
# 
# From -- ./inp_files/9647.got.cif
#   From: 2010.05.17/outbox.cif.g08.bks.cpg/sg20_5_cif.got.tgz:9647.got - 2010.06.03 22:52:26.
