data_PCOD9318358
_publ_section_title
;
Structure prediction by ZEFSAII (Michael W. Deem and Ramdas Pophale) SiO2 
 PCOD9318358
Probable space group: C 2 2 21
;
_chemical_formula_sum "Si O2"
_cell_formula_units_Z 48
_cell_length_a 9.364004
_cell_length_b 29.073978
_cell_length_c 7.994957
_cell_angle_alpha 90.000000
_cell_angle_beta 90.000000
_cell_angle_gamma 90.000000
_cell_volume 2176.617819
_symmetry_space_group_name_H-M "C 2 2 21"
_symmetry_group_IT_number 20
_symmetry_cell_setting 'orthorhombic'
loop_
_space_group_symop_operation_xyz
x,y,z
-x,-y,1/2+z
x,-y,-z
-x,y,1/2-z
1/2+x,1/2+y,z
1/2-x,1/2-y,1/2+z
1/2+x,1/2-y,-z
1/2-x,1/2+y,1/2-z
loop_
_atom_site_type_symbol
_atom_site_label
_atom_site_fract_x
_atom_site_fract_y
_atom_site_fract_z
Si Si1 0.616683 0.467149 0.372336
Si Si2 0.376306 0.218015 0.885822
Si Si3 0.802885 0.613814 0.591876
Si Si4 0.632437 0.703784 0.642842
Si Si5 0.629933 0.117581 0.515741
Si Si6 0.657370 0.971170 0.669876
O O1 0.534448 0.500000 0.500000
O O2 0.500000 0.446193 0.250000
O O3 0.703101 0.427402 0.463884
O O4 0.730221 0.500406 0.280799
O O5 0.500000 0.206664 0.750000
O O6 0.237320 0.228564 0.775229
O O7 0.344916 0.172337 0.995611
O O8 0.415711 0.260294 0.003039
O O9 0.724831 0.662222 0.567726
O O10 0.822087 0.606917 0.793173
O O11 0.958462 0.611673 0.511910
O O12 0.500000 0.685373 0.750000
O O13 0.695208 0.081200 0.386466
O O14 0.500000 0.971170 0.750000
O O15 0.644223 0.000000 0.500000
#
# Coordination Sequence:
#
# PCOD9318358 Si02
#       6
#     8   8   8   8   8   8
#     4  12  26  44  64  95 136 173 214 270 336 396
#     4  11  22  44  66  96 137 171 221 278 333 395
#     4  10  20  42  66  91 125 177 213 265 326 399
#     4  11  23  39  68  98 127 179 220 264 334 398
#     4  10  20  39  68  91 125 170 223 264 327 385
#     4  12  23  39  68  99 128 171 226 275 325 394
#
# _framework density 22.052561000000001
#
# number of rings (size 3 to 8) (size 9 to 14) (size 15 to 20)
#    0.000    1.000    5.000    4.500    0.000    0.667 
#    3.000    0.833    0.000    0.000    0.000    0.000 
#    0.000    0.000    0.000    0.000    0.000    0.000 
#
# Total GULP energy -134164.709198 kJ/mol
# GULP energy per Si atom -5590.196217 kJ/mol
# Density = 2.200237 g / cm^3
# Si number density = 22.052561 Si / 1000 Ang^3
#
#
#
# Elastic Constant Matrix: (Units=GPa)
#
#
# Indices 1 2 3 4 5 6 
#
# 1 44.4281 -2.0487 -6.9506 0.0000 0.0000 0.0000
# 2 -2.0487 122.5832 28.2558 0.0000 0.0000 0.0000
# 3 -6.9506 28.2558 25.0529 0.0000 0.0000 0.0000
# 4 0.0000 0.0000 0.0000 39.3785 0.0000 0.0000
# 5 0.0000 0.0000 0.0000 0.0000 24.7677 0.0000
# 6 0.0000 0.0000 0.0000 0.0000 0.0000 18.2945
#
#
#
# Elastic Compliance Matrix: (Units=1/GPa)
#
#
# Indices 1 2 3 4 5 6 
#
# 1 0.023736 -0.001515 0.008294 0.000000 0.000000 0.000000
# 2 -0.001515 0.011120 -0.012962 0.000000 0.000000 0.000000
# 3 0.008294 -0.012962 0.056836 0.000000 0.000000 0.000000
# 4 0.000000 0.000000 0.000000 0.025395 0.000000 0.000000
# 5 0.000000 0.000000 0.000000 0.000000 0.040375 0.000000
# 6 0.000000 0.000000 0.000000 0.000000 0.000000 0.054661
#
#
# Mechanical properties :
#
#
# Convention : Reuss Voigt Hill
#
# Bulk Modulus (GPa) = 12.60629 25.61970 19.11300
# Shear Modulus (GPa) = 19.92577 28.00868 23.96722
#
# Velocity S-wave (km/s) = 3.00919 3.56769 3.30028
# Velocity P-wave (km/s) = 4.21930 5.34921 4.81750
#
# Compressibility (1/GPa) = 0.07932545
#
# Stress axis : x y z
#
# Youngs Moduli (GPa) = 42.13014 89.92617 17.59451
#
# Poissons Ratio (x) = 0.13625 -0.14593
# Poissons Ratio (y) = 0.06383 0.22806
# Poissons Ratio (z) = -0.34943 1.16564
#
# Static dielectric constant tensor:
#      x y z
#    x 1.791630 0.000000 0.000000 
#    y 0.000000 1.804780 0.000000 
#    z 0.000000 0.000000 1.857550 
# 
# From -- ./inp_files/6439.got.cif
#   From: 2010.05.17/outbox.cif.g08.bks.cpg/sg20_4_cif.got.tgz:6439.got - 2010.06.03 22:52:26.
