data_PCOD9318044
_publ_section_title
;
Structure prediction by ZEFSAII (Michael W. Deem and Ramdas Pophale) SiO2 
 PCOD9318044
Probable space group: C 2 2 21
;
_chemical_formula_sum "Si O2"
_cell_formula_units_Z 28
_cell_length_a 13.006805
_cell_length_b 11.095050
_cell_length_c 7.294850
_cell_angle_alpha 90.000000
_cell_angle_beta 90.000000
_cell_angle_gamma 90.000000
_cell_volume 1052.728206
_symmetry_space_group_name_H-M "C 2 2 21"
_symmetry_group_IT_number 20
_symmetry_cell_setting 'orthorhombic'
loop_
_space_group_symop_operation_xyz
x,y,z
-x,-y,1/2+z
x,-y,-z
-x,y,1/2-z
1/2+x,1/2+y,z
1/2-x,1/2-y,1/2+z
1/2+x,1/2-y,-z
1/2-x,1/2+y,1/2-z
loop_
_atom_site_type_symbol
_atom_site_label
_atom_site_fract_x
_atom_site_fract_y
_atom_site_fract_z
Si Si1 0.306166 0.164745 0.055738
Si Si2 0.321362 0.887873 0.367516
Si Si3 0.917924 0.850521 0.606526
Si Si4 0.500000 0.265864 0.250000
O O1 0.272419 0.306903 0.050499
O O2 0.199920 0.113348 0.142097
O O3 0.410412 0.178231 0.169532
O O4 0.314365 0.893274 0.145821
O O5 0.415476 0.795839 0.386829
O O6 0.333329 0.000000 0.500000
O O7 0.951174 0.858646 0.397608
O O8 0.000000 0.893356 0.750000
#
# Coordination Sequence:
#
# PCOD9318044 Si02
#       4
#     8   8   8   4
#     4  10  20  38  67 107 141 189 234 283 361 428
#     4  10  21  41  63 100 145 184 235 293 353 423
#     4  10  20  37  63 103 143 182 228 289 355 424
#     4  12  18  38  68  96 146 186 222 294 348 426
#
# _framework density 26.597560999999999
#
# number of rings (size 3 to 8) (size 9 to 14) (size 15 to 20)
#    1.714    0.000    5.714    0.000    0.000    0.000 
#    2.571    5.714    0.000    3.429    0.000    0.000 
#    0.000    0.000    0.000    0.000    0.000    0.000 
#
# Total GULP energy -78090.429641 kJ/mol
# GULP energy per Si atom -5577.887831 kJ/mol
# Density = 2.653702 g / cm^3
# Si number density = 26.597561 Si / 1000 Ang^3
#
#
#
# Elastic Constant Matrix: (Units=GPa)
#
#
# Indices 1 2 3 4 5 6 
#
# 1 195.4207 53.9913 101.3820 0.0000 0.0000 0.0000
# 2 53.9913 120.9686 52.1608 0.0000 0.0000 0.0000
# 3 101.3820 52.1608 203.3018 0.0000 0.0000 0.0000
# 4 0.0000 0.0000 0.0000 3.7122 0.0000 0.0000
# 5 0.0000 0.0000 0.0000 0.0000 48.7693 0.0000
# 6 0.0000 0.0000 0.0000 0.0000 0.0000 17.9199
#
#
#
# Elastic Compliance Matrix: (Units=1/GPa)
#
#
# Indices 1 2 3 4 5 6 
#
# 1 0.007268 -0.001890 -0.003139 0.000000 0.000000 0.000000
# 2 -0.001890 0.009787 -0.001568 0.000000 0.000000 0.000000
# 3 -0.003139 -0.001568 0.006887 0.000000 0.000000 0.000000
# 4 0.000000 0.000000 0.000000 0.269382 0.000000 0.000000
# 5 0.000000 0.000000 0.000000 0.000000 0.020505 0.000000
# 6 0.000000 0.000000 0.000000 0.000000 0.000000 0.055804
#
#
# Mechanical properties :
#
#
# Convention : Reuss Voigt Hill
#
# Bulk Modulus (GPa) = 93.06319 103.86215 98.46267
# Shear Modulus (GPa) = 12.93964 34.89074 23.91519
#
# Velocity S-wave (km/s) = 2.20806 3.62581 3.00184
# Velocity P-wave (km/s) = 6.44717 7.52748 7.00817
#
# Compressibility (1/GPa) = 0.01074539
#
# Stress axis : x y z
#
# Youngs Moduli (GPa) = 137.58709 102.18157 145.20631
#
# Poissons Ratio (x) = 0.19315 0.45587
# Poissons Ratio (y) = 0.26007 0.22773
# Poissons Ratio (z) = 0.43195 0.16025
#
# Static dielectric constant tensor:
#      x y z
#    x 2.133930 0.000000 0.000000 
#    y 0.000000 2.200280 0.000000 
#    z 0.000000 0.000000 2.277660 
# 
# From -- ./inp_files/7790.got.cif
#   From: 2010.05.17/outbox.cif.g08.bks.cpg/sg20_4_cif.got.tgz:7790.got - 2010.06.03 22:52:26.
