data_PCOD9318227
_publ_section_title
;
Structure prediction by ZEFSAII (Michael W. Deem and Ramdas Pophale) SiO2 
 PCOD9318227
Probable space group: C 2 2 21
;
_chemical_formula_sum "Si O2"
_cell_formula_units_Z 48
_cell_length_a 9.428018
_cell_length_b 12.388835
_cell_length_c 16.631295
_cell_angle_alpha 90.000000
_cell_angle_beta 90.000000
_cell_angle_gamma 90.000000
_cell_volume 1942.571169
_symmetry_space_group_name_H-M "C 2 2 21"
_symmetry_group_IT_number 20
_symmetry_cell_setting 'orthorhombic'
loop_
_space_group_symop_operation_xyz
x,y,z
-x,-y,1/2+z
x,-y,-z
-x,y,1/2-z
1/2+x,1/2+y,z
1/2-x,1/2-y,1/2+z
1/2+x,1/2-y,-z
1/2-x,1/2+y,1/2-z
loop_
_atom_site_type_symbol
_atom_site_label
_atom_site_fract_x
_atom_site_fract_y
_atom_site_fract_z
Si Si1 0.207638 0.441100 0.674859
Si Si2 0.395046 0.896714 0.643923
Si Si3 0.269056 0.305396 0.139118
Si Si4 0.837319 0.154182 0.687759
Si Si5 0.979035 0.259769 0.162604
Si Si6 0.867730 0.109696 0.028263
O O1 0.170250 0.434242 0.770335
O O2 0.254056 0.321545 0.651303
O O3 0.328619 0.530477 0.658096
O O4 0.051435 0.445897 0.633455
O O5 0.407603 0.763736 0.651867
O O6 0.278409 0.917918 0.575797
O O7 0.357265 0.348525 0.215316
O O8 0.106222 0.343092 0.146559
O O9 0.331506 0.328863 0.053290
O O10 0.670519 0.181385 0.674095
O O11 0.957787 0.180936 0.088463
O O12 0.000000 0.205336 0.250000
O O13 0.939402 0.000000 0.000000
#
# Coordination Sequence:
#
# PCOD9318227 Si02
#       6
#     8   8   8   8   8   8
#     4  10  20  38  66  90 122 170 210 264 330 377
#     4   9  21  37  60  94 124 155 218 264 303 418
#     4  10  22  37  61  94 124 158 219 264 318 403
#     4   9  19  39  65  90 122 167 209 260 322 387
#     4   9  21  41  61  86 124 169 211 256 317 416
#     4  11  23  39  61  91 130 162 210 276 332 373
#
# _framework density 24.709519
#
# number of rings (size 3 to 8) (size 9 to 14) (size 15 to 20)
#    0.000    2.333    0.000    2.000   11.667    0.000 
#    3.000    3.333   14.667    0.000    0.000    0.000 
#    0.000    0.000    0.000    0.000    0.000    0.000 
#
# Total GULP energy -134096.737246 kJ/mol
# GULP energy per Si atom -5587.364052 kJ/mol
# Density = 2.465328 g / cm^3
# Si number density = 24.709519 Si / 1000 Ang^3
#
#
#
# Elastic Constant Matrix: (Units=GPa)
#
#
# Indices 1 2 3 4 5 6 
#
# 1 50.0823 -7.9791 28.4996 0.0000 0.0000 0.0000
# 2 -7.9791 115.3557 23.4799 0.0000 0.0000 0.0000
# 3 28.4996 23.4799 130.3104 0.0000 0.0000 0.0000
# 4 0.0000 0.0000 0.0000 22.9367 0.0000 0.0000
# 5 0.0000 0.0000 0.0000 0.0000 29.4263 0.0000
# 6 0.0000 0.0000 0.0000 0.0000 0.0000 26.3850
#
#
#
# Elastic Compliance Matrix: (Units=1/GPa)
#
#
# Indices 1 2 3 4 5 6 
#
# 1 0.023640 0.002790 -0.005673 0.000000 0.000000 0.000000
# 2 0.002790 0.009328 -0.002291 0.000000 0.000000 0.000000
# 3 -0.005673 -0.002291 0.009327 0.000000 0.000000 0.000000
# 4 0.000000 0.000000 0.000000 0.043598 0.000000 0.000000
# 5 0.000000 0.000000 0.000000 0.000000 0.033983 0.000000
# 6 0.000000 0.000000 0.000000 0.000000 0.000000 0.037900
#
#
# Mechanical properties :
#
#
# Convention : Reuss Voigt Hill
#
# Bulk Modulus (GPa) = 31.30138 42.63877 36.97007
# Shear Modulus (GPa) = 27.96824 32.53279 30.25052
#
# Velocity S-wave (km/s) = 3.36799 3.63245 3.50272
# Velocity P-wave (km/s) = 5.27444 5.90647 5.59938
#
# Compressibility (1/GPa) = 0.03194748
#
# Stress axis : x y z
#
# Youngs Moduli (GPa) = 42.30159 107.20284 107.21039
#
# Poissons Ratio (x) = -0.29908 0.60819
# Poissons Ratio (y) = -0.11801 0.24561
# Poissons Ratio (z) = 0.23997 0.24559
#
# Static dielectric constant tensor:
#      x y z
#    x 2.149640 0.000000 0.000000 
#    y 0.000000 2.060490 0.000000 
#    z 0.000000 0.000000 1.879170 
# 
# From -- ./inp_files/24250.got.cif
#   From: 2010.05.17/outbox.cif.g08.bks.cpg/sg20_13_cif.got.tgz:24250.got - 2010.06.03 22:52:26.
