data_PCOD9318213
_publ_section_title
;
Structure prediction by ZEFSAII (Michael W. Deem and Ramdas Pophale) SiO2 
 PCOD9318213
Probable space group: C 2 2 21
;
_chemical_formula_sum "Si O2"
_cell_formula_units_Z 60
_cell_length_a 25.401313
_cell_length_b 6.078372
_cell_length_c 19.887549
_cell_angle_alpha 90.000000
_cell_angle_beta 90.000000
_cell_angle_gamma 90.000000
_cell_volume 3070.610314
_symmetry_space_group_name_H-M "C 2 2 21"
_symmetry_group_IT_number 20
_symmetry_cell_setting 'orthorhombic'
loop_
_space_group_symop_operation_xyz
x,y,z
-x,-y,1/2+z
x,-y,-z
-x,y,1/2-z
1/2+x,1/2+y,z
1/2-x,1/2-y,1/2+z
1/2+x,1/2-y,-z
1/2-x,1/2+y,1/2-z
loop_
_atom_site_type_symbol
_atom_site_label
_atom_site_fract_x
_atom_site_fract_y
_atom_site_fract_z
Si Si1 0.231531 0.925064 0.335186
Si Si2 0.944563 0.752157 0.962776
Si Si3 0.668686 0.078696 0.247409
Si Si4 0.644185 0.680602 0.881019
Si Si5 0.156793 0.676059 0.627347
Si Si6 0.624257 0.000000 0.000000
Si Si7 0.743781 0.437824 0.924340
Si Si8 0.442676 0.359942 0.568754
O O1 0.192274 0.770366 0.293739
O O2 0.256069 0.814346 0.401927
O O3 0.280004 0.969557 0.285968
O O4 0.196572 0.127041 0.357447
O O5 0.892426 0.731264 0.918434
O O6 0.997405 0.788157 0.918120
O O7 0.949794 0.500000 0.000000
O O8 0.939569 0.000000 0.000000
O O9 0.636897 0.172063 0.184694
O O10 0.640332 0.919877 0.300068
O O11 0.700049 0.552993 0.877009
O O12 0.595271 0.512232 0.886386
O O13 0.650084 0.824950 0.949262
O O14 0.196396 0.510233 0.589472
O O15 0.589130 0.857587 0.050570
O O16 0.730618 0.500000 0.000000
O O17 0.446380 0.500000 0.500000
#
# Coordination Sequence:
#
# PCOD9318213 Si02
#       8
#     8   8   8   8   8   4   8   8
#     4  11  22  40  59  86 130 184 220 265 342 436
#     4  11  25  46  73 105 136 183 235 297 355 413
#     4  11  22  40  60  89 131 180 230 263 344 427
#     4  11  23  36  63  99 128 174 216 285 341 410
#     4  11  25  39  65  92 132 185 225 277 344 428
#     4  10  20  38  64  94 126 164 214 272 348 400
#     4  11  24  36  55  98 139 160 221 277 354 412
#     4   9  20  40  64  97 125 166 218 275 344 411
#
# _framework density 19.540089999999999
#
# number of rings (size 3 to 8) (size 9 to 14) (size 15 to 20)
#    0.000    1.333    3.333    2.400    9.333    0.000 
#    0.000    0.000    0.000    4.800    0.000    0.000 
#    0.000    0.000    0.000    0.000    0.000    0.000 
#
# Total GULP energy -167014.506513 kJ/mol
# GULP energy per Si atom -5567.150217 kJ/mol
# Density = 1.949562 g / cm^3
# Si number density = 19.540090 Si / 1000 Ang^3
#
#
#
# Elastic Constant Matrix: (Units=GPa)
#
#
# Indices 1 2 3 4 5 6 
#
# 1 110.3967 35.1017 30.3121 0.0000 0.0000 0.0000
# 2 35.1017 80.5012 37.8730 0.0000 0.0000 0.0000
# 3 30.3121 37.8730 75.4494 0.0000 0.0000 0.0000
# 4 0.0000 0.0000 0.0000 18.8951 0.0000 0.0000
# 5 0.0000 0.0000 0.0000 0.0000 11.5801 0.0000
# 6 0.0000 0.0000 0.0000 0.0000 0.0000 -13.3879
#
#
#
# Elastic Compliance Matrix: (Units=1/GPa)
#
#
# Indices 1 2 3 4 5 6 
#
# 1 0.010895 -0.003523 -0.002608 0.000000 0.000000 0.000000
# 2 -0.003523 0.017402 -0.007320 0.000000 0.000000 0.000000
# 3 -0.002608 -0.007320 0.017976 0.000000 0.000000 0.000000
# 4 0.000000 0.000000 0.000000 0.052924 0.000000 0.000000
# 5 0.000000 0.000000 0.000000 0.000000 0.086355 0.000000
# 6 0.000000 0.000000 0.000000 0.000000 0.000000 -0.074695
#
#
# Mechanical properties :
#
#
# Convention : Reuss Voigt Hill
#
# Bulk Modulus (GPa) = 51.62629 52.54676 52.08652
# Shear Modulus (GPa) = 34.66993 14.28817 24.47905
#
# Velocity S-wave (km/s) = 4.21681 2.70705 3.54328
# Velocity P-wave (km/s) = 7.08426 6.05978 6.59195
#
# Compressibility (1/GPa) = 0.01936998
#
# Stress axis : x y z
#
# Youngs Moduli (GPa) = 91.78756 57.46395 55.62936
#
# Poissons Ratio (x) = 0.20247 0.14510
# Poissons Ratio (y) = 0.32340 0.40719
# Poissons Ratio (z) = 0.23942 0.42062
#
# Static dielectric constant tensor:
#      x y z
#    x 1.663320 0.000000 0.000000 
#    y 0.000000 1.857230 0.000000 
#    z 0.000000 0.000000 1.881790 
# 
# From -- ./inp_files/28030.got.cif
#   From: 2010.05.17/outbox.cif.g08.bks.cpg/sg20_15_cif.got.tgz:28030.got - 2010.06.03 22:52:26.
