data_PCOD9318646
_publ_section_title
;
Structure prediction by ZEFSAII (Michael W. Deem and Ramdas Pophale) SiO2 
 PCOD9318646
Probable space group: C 2 2 21
;
_chemical_formula_sum "Si O2"
_cell_formula_units_Z 52
_cell_length_a 7.632733
_cell_length_b 13.439123
_cell_length_c 21.014476
_cell_angle_alpha 90.000000
_cell_angle_beta 90.000000
_cell_angle_gamma 90.000000
_cell_volume 2155.606898
_symmetry_space_group_name_H-M "C 2 2 21"
_symmetry_group_IT_number 20
_symmetry_cell_setting 'orthorhombic'
loop_
_space_group_symop_operation_xyz
x,y,z
-x,-y,1/2+z
x,-y,-z
-x,y,1/2-z
1/2+x,1/2+y,z
1/2-x,1/2-y,1/2+z
1/2+x,1/2-y,-z
1/2-x,1/2+y,1/2-z
loop_
_atom_site_type_symbol
_atom_site_label
_atom_site_fract_x
_atom_site_fract_y
_atom_site_fract_z
Si Si1 0.286554 0.981901 0.692509
Si Si2 0.305377 0.555371 0.935281
Si Si3 0.538877 0.724348 0.873601
Si Si4 0.951197 0.705577 0.501684
Si Si5 0.191704 0.902444 0.956245
Si Si6 0.500000 0.629447 0.750000
Si Si7 0.330848 0.088919 0.176557
O O1 0.498938 0.983486 0.683272
O O2 0.258745 0.906100 0.751543
O O3 0.228560 0.974958 0.619585
O O4 0.158744 0.069579 0.716790
O O5 0.447115 0.632619 0.909256
O O6 0.141169 0.625833 0.952980
O O7 0.345876 0.500000 0.000000
O O8 0.606308 0.684151 0.806726
O O9 0.402675 0.805061 0.846073
O O10 0.640378 0.774665 0.932211
O O11 0.948679 0.813159 0.535877
O O12 0.133258 0.657123 0.479150
O O13 0.208008 0.938957 0.882743
O O14 0.186957 0.000000 0.000000
#
# Coordination Sequence:
#
# PCOD9318646 Si02
#       7
#     8   8   8   8   8   4   8
#     4  10  22  38  68  90 127 177 226 283 352 423
#     4  11  21  40  64  96 131 174 229 288 352 424
#     4  10  22  40  65  92 134 177 220 291 350 427
#     4  11  21  43  63 104 136 183 236 285 364 425
#     4  11  24  41  70 103 146 187 238 297 355 432
#     4  10  22  40  60  98 128 166 240 284 350 422
#     4  10  20  43  63  92 128 183 225 278 361 417
#
# _framework density 24.123135999999999
#
# number of rings (size 3 to 8) (size 9 to 14) (size 15 to 20)
#    0.000    1.538    3.077    4.154    2.154    0.615 
#    2.769    0.000    0.000    9.231    0.000    0.000 
#    0.000    0.000    0.000    0.000    0.000    0.000 
#
# Total GULP energy -144757.773299 kJ/mol
# GULP energy per Si atom -5567.606665 kJ/mol
# Density = 2.406823 g / cm^3
# Si number density = 24.123136 Si / 1000 Ang^3
#
#
#
# Elastic Constant Matrix: (Units=GPa)
#
#
# Indices 1 2 3 4 5 6 
#
# 1 59.7207 35.7659 20.6339 0.0000 0.0000 0.0000
# 2 35.7659 98.8948 65.2566 0.0000 0.0000 0.0000
# 3 20.6339 65.2566 243.1772 0.0000 0.0000 0.0000
# 4 0.0000 0.0000 0.0000 38.7778 0.0000 0.0000
# 5 0.0000 0.0000 0.0000 0.0000 7.9440 0.0000
# 6 0.0000 0.0000 0.0000 0.0000 0.0000 30.8136
#
#
#
# Elastic Compliance Matrix: (Units=1/GPa)
#
#
# Indices 1 2 3 4 5 6 
#
# 1 0.021394 -0.007947 0.000317 0.000000 0.000000 0.000000
# 2 -0.007947 0.015239 -0.003415 0.000000 0.000000 0.000000
# 3 0.000317 -0.003415 0.005002 0.000000 0.000000 0.000000
# 4 0.000000 0.000000 0.000000 0.025788 0.000000 0.000000
# 5 0.000000 0.000000 0.000000 0.000000 0.125881 0.000000
# 6 0.000000 0.000000 0.000000 0.000000 0.000000 0.032453
#
#
# Mechanical properties :
#
#
# Convention : Reuss Voigt Hill
#
# Bulk Modulus (GPa) = 51.16159 71.67838 61.41999
# Shear Modulus (GPa) = 19.65707 34.18284 26.91996
#
# Velocity S-wave (km/s) = 2.85768 3.76841 3.34419
# Velocity P-wave (km/s) = 5.66948 6.97944 6.35829
#
# Compressibility (1/GPa) = 0.01954591
#
# Stress axis : x y z
#
# Youngs Moduli (GPa) = 46.74180 65.62017 199.92892
#
# Poissons Ratio (x) = 0.52146 -0.06341
# Poissons Ratio (y) = 0.37144 0.68279
# Poissons Ratio (z) = -0.01482 0.22410
#
# Static dielectric constant tensor:
#      x y z
#    x 2.058950 0.000000 0.000000 
#    y 0.000000 1.945710 0.000000 
#    z 0.000000 0.000000 2.025360 
# 
# From -- ./inp_files/26620.got.cif
#   From: 2010.05.17/outbox.cif.g08.bks.cpg/sg20_14_cif.got.tgz:26620.got - 2010.06.03 22:52:26.
