data_PCOD9318716
_publ_section_title
;
Structure prediction by ZEFSAII (Michael W. Deem and Ramdas Pophale) SiO2 
 PCOD9318716
Probable space group: C 2 2 21
;
_chemical_formula_sum "Si O2"
_cell_formula_units_Z 56
_cell_length_a 9.000160
_cell_length_b 14.718893
_cell_length_c 21.239533
_cell_angle_alpha 90.000000
_cell_angle_beta 90.000000
_cell_angle_gamma 90.000000
_cell_volume 2813.651742
_symmetry_space_group_name_H-M "C 2 2 21"
_symmetry_group_IT_number 20
_symmetry_cell_setting 'orthorhombic'
loop_
_space_group_symop_operation_xyz
x,y,z
-x,-y,1/2+z
x,-y,-z
-x,y,1/2-z
1/2+x,1/2+y,z
1/2-x,1/2-y,1/2+z
1/2+x,1/2-y,-z
1/2-x,1/2+y,1/2-z
loop_
_atom_site_type_symbol
_atom_site_label
_atom_site_fract_x
_atom_site_fract_y
_atom_site_fract_z
Si Si1 0.185019 0.775487 0.081985
Si Si2 0.749463 0.897737 0.837086
Si Si3 0.161739 0.779302 0.454360
Si Si4 0.000000 0.633512 0.250000
Si Si5 0.311960 0.971043 0.075949
Si Si6 0.242866 0.655386 0.345059
Si Si7 0.500000 0.368267 0.750000
Si Si8 0.347647 0.957517 0.432922
O O1 0.224989 0.706500 0.139406
O O2 0.213298 0.882599 0.090968
O O3 0.013210 0.764899 0.059681
O O4 0.294309 0.745843 0.025237
O O5 0.622673 0.921886 0.787040
O O6 0.901620 0.917268 0.801994
O O7 0.726763 0.962468 0.894502
O O8 0.251041 0.714670 0.407092
O O9 0.230664 0.876881 0.438869
O O10 0.904480 0.681382 0.195340
O O11 0.483078 0.939979 0.089040
O O12 0.274337 0.053843 0.124492
O O13 0.295548 0.000000 0.000000
O O14 0.375246 0.675409 0.295679
O O15 0.374945 0.000000 0.500000
#
# Coordination Sequence:
#
# PCOD9318716 Si02
#       8
#     8   8   8   4   8   8   4   8
#     4  12  25  41  69 103 136 172 220 282 341 398
#     4  11  23  47  68  95 138 177 228 267 335 396
#     4  12  25  41  69 103 136 172 220 282 341 398
#     4  10  20  46  70  82 128 204 212 256 322 406
#     4  11  23  41  69 102 135 173 217 274 342 400
#     4  11  23  47  68  95 138 177 228 267 335 396
#     4  10  28  42  74  94 132 188 228 276 314 398
#     4  11  23  41  69 102 135 173 217 274 342 400
#
# _framework density 19.90296
#
# number of rings (size 3 to 8) (size 9 to 14) (size 15 to 20)
#    0.000    0.857    5.714    0.857    6.000    0.571 
#    0.000    8.571    0.000    0.000    0.000    0.000 
#    0.000    0.000    0.000    0.000    0.000    0.000 
#
# Total GULP energy -155899.759613 kJ/mol
# GULP energy per Si atom -5567.848558 kJ/mol
# Density = 1.985766 g / cm^3
# Si number density = 19.902960 Si / 1000 Ang^3
#
#
#
# Elastic Constant Matrix: (Units=GPa)
#
#
# Indices 1 2 3 4 5 6 
#
# 1 96.0212 -2.8817 18.1876 0.0000 0.0000 0.0000
# 2 -2.8817 73.8203 16.1250 0.0000 0.0000 0.0000
# 3 18.1876 16.1250 83.5905 0.0000 0.0000 0.0000
# 4 0.0000 0.0000 0.0000 -26.1002 0.0000 0.0000
# 5 0.0000 0.0000 0.0000 0.0000 45.0445 0.0000
# 6 0.0000 0.0000 0.0000 0.0000 0.0000 17.8189
#
#
#
# Elastic Compliance Matrix: (Units=1/GPa)
#
#
# Indices 1 2 3 4 5 6 
#
# 1 0.010931 0.000988 -0.002569 0.000000 0.000000 0.000000
# 2 0.000988 0.014232 -0.002960 0.000000 0.000000 0.000000
# 3 -0.002569 -0.002960 0.013093 0.000000 0.000000 0.000000
# 4 0.000000 0.000000 0.000000 -0.038314 0.000000 0.000000
# 5 0.000000 0.000000 0.000000 0.000000 0.022200 0.000000
# 6 0.000000 0.000000 0.000000 0.000000 0.000000 0.056120
#
#
# Mechanical properties :
#
#
# Convention : Reuss Voigt Hill
#
# Bulk Modulus (GPa) = 34.27865 35.14376 34.71120
# Shear Modulus (GPa) = 51.50985 22.15269 36.83127
#
# Velocity S-wave (km/s) = 5.09281 3.33984 4.30646
# Velocity P-wave (km/s) = 7.20018 5.70689 6.49658
#
# Compressibility (1/GPa) = 0.02917268
#
# Stress axis : x y z
#
# Youngs Moduli (GPa) = 91.48649 70.26614 76.37636
#
# Poissons Ratio (x) = -0.06941 0.19620
# Poissons Ratio (y) = -0.09037 0.22610
# Poissons Ratio (z) = 0.23501 0.20801
#
# Static dielectric constant tensor:
#      x y z
#    x 1.790950 0.000000 0.000000 
#    y 0.000000 1.695930 0.000000 
#    z 0.000000 0.000000 1.712300 
# 
# From -- ./inp_files/26758.got.cif
#   From: 2010.05.17/outbox.cif.g08.bks.cpg/sg20_14_cif.got.tgz:26758.got - 2010.06.03 22:52:26.
