data_PCOD9318636
_publ_section_title
;
Structure prediction by ZEFSAII (Michael W. Deem and Ramdas Pophale) SiO2 
 PCOD9318636
Probable space group: C 2 2 21
;
_chemical_formula_sum "Si O2"
_cell_formula_units_Z 32
_cell_length_a 14.395051
_cell_length_b 5.136081
_cell_length_c 18.997186
_cell_angle_alpha 90.000000
_cell_angle_beta 90.000000
_cell_angle_gamma 90.000000
_cell_volume 1404.540760
_symmetry_space_group_name_H-M "C 2 2 21"
_symmetry_group_IT_number 20
_symmetry_cell_setting 'orthorhombic'
loop_
_space_group_symop_operation_xyz
x,y,z
-x,-y,1/2+z
x,-y,-z
-x,y,1/2-z
1/2+x,1/2+y,z
1/2-x,1/2-y,1/2+z
1/2+x,1/2-y,-z
1/2-x,1/2+y,1/2-z
loop_
_atom_site_type_symbol
_atom_site_label
_atom_site_fract_x
_atom_site_fract_y
_atom_site_fract_z
Si Si1 0.774147 0.498736 0.360184
Si Si2 0.075720 0.256918 0.953469
Si Si3 0.415650 0.260658 0.159872
Si Si4 0.863052 0.754385 0.762095
O O1 0.826612 0.649927 0.420688
O O2 0.682307 0.332980 0.379556
O O3 0.846149 0.315457 0.318417
O O4 0.737177 0.699843 0.300247
O O5 0.001857 0.212203 0.891487
O O6 0.040960 0.500000 0.000000
O O7 0.085484 0.000000 0.000000
O O8 0.410575 0.979874 0.195734
O O9 0.412893 0.478247 0.220346
#
# Coordination Sequence:
#
# PCOD9318636 Si02
#       4
#     8   8   8   8
#     4  10  23  44  75 102 139 178 236 293 371 405
#     4  12  29  46  65 105 145 194 248 275 336 448
#     4  10  22  44  67 102 137 180 223 303 348 417
#     4  10  20  42  73 103 137 170 234 296 379 406
#
# _framework density 22.783249000000001
#
# number of rings (size 3 to 8) (size 9 to 14) (size 15 to 20)
#    1.500    0.000    2.500    1.500    3.500    2.000 
#    0.000    5.000    0.000    0.000    0.000    0.000 
#    0.000    0.000    0.000    0.000    0.000    0.000 
#
# Total GULP energy -89453.616254 kJ/mol
# GULP energy per Si atom -5590.851016 kJ/mol
# Density = 2.273139 g / cm^3
# Si number density = 22.783249 Si / 1000 Ang^3
#
#
#
# Elastic Constant Matrix: (Units=GPa)
#
#
# Indices 1 2 3 4 5 6 
#
# 1 94.9029 -3.3264 18.0560 0.0000 0.0000 0.0000
# 2 -3.3264 101.6314 4.9761 0.0000 0.0000 0.0000
# 3 18.0560 4.9761 31.1774 0.0000 0.0000 0.0000
# 4 0.0000 0.0000 0.0000 45.5831 0.0000 0.0000
# 5 0.0000 0.0000 0.0000 0.0000 -3.1178 0.0000
# 6 0.0000 0.0000 0.0000 0.0000 0.0000 -117.1292
#
#
#
# Elastic Compliance Matrix: (Units=1/GPa)
#
#
# Indices 1 2 3 4 5 6 
#
# 1 0.011896 0.000732 -0.007006 0.000000 0.000000 0.000000
# 2 0.000732 0.009962 -0.002014 0.000000 0.000000 0.000000
# 3 -0.007006 -0.002014 0.036454 0.000000 0.000000 0.000000
# 4 0.000000 0.000000 0.000000 0.021938 0.000000 0.000000
# 5 0.000000 0.000000 0.000000 0.000000 -0.320735 0.000000
# 6 0.000000 0.000000 0.000000 0.000000 0.000000 -0.008538
#
#
# Mechanical properties :
#
#
# Convention : Reuss Voigt Hill
#
# Bulk Modulus (GPa) = 23.96042 29.68032 26.82037
# Shear Modulus (GPa) = -22.87959 -1.06571 -11.97265
#
# Velocity S-wave (km/s) = -3.17239 -0.68467 -2.29487
# Velocity P-wave (km/s) = 1.69684 3.52569 2.18532
#
# Compressibility (1/GPa) = 0.04173549
#
# Stress axis : x y z
#
# Youngs Moduli (GPa) = 84.06374 100.38075 27.43219
#
# Poissons Ratio (x) = -0.07352 0.19219
# Poissons Ratio (y) = -0.06157 0.05525
# Poissons Ratio (z) = 0.58896 0.20218
#
# Static dielectric constant tensor:
#      x y z
#    x 2.017810 0.000000 0.000000 
#    y 0.000000 1.852010 0.000000 
#    z 0.000000 0.000000 1.871390 
# 
# From -- ./inp_files/27018.got.cif
#   From: 2010.05.17/outbox.cif.g08.bks.cpg/sg20_14_cif.got.tgz:27018.got - 2010.06.03 22:52:26.
