data_PCOD9318272
_publ_section_title
;
Structure prediction by ZEFSAII (Michael W. Deem and Ramdas Pophale) SiO2 
 PCOD9318272
Probable space group: C 2 2 21
;
_chemical_formula_sum "Si O2"
_cell_formula_units_Z 44
_cell_length_a 8.731689
_cell_length_b 29.810126
_cell_length_c 8.958295
_cell_angle_alpha 90.000000
_cell_angle_beta 90.000000
_cell_angle_gamma 90.000000
_cell_volume 2331.779234
_symmetry_space_group_name_H-M "C 2 2 21"
_symmetry_group_IT_number 20
_symmetry_cell_setting 'orthorhombic'
loop_
_space_group_symop_operation_xyz
x,y,z
-x,-y,1/2+z
x,-y,-z
-x,y,1/2-z
1/2+x,1/2+y,z
1/2-x,1/2-y,1/2+z
1/2+x,1/2-y,-z
1/2-x,1/2+y,1/2-z
loop_
_atom_site_type_symbol
_atom_site_label
_atom_site_fract_x
_atom_site_fract_y
_atom_site_fract_z
Si Si1 0.500000 0.350098 0.750000
Si Si2 0.653034 0.701326 0.674496
Si Si3 0.860464 0.764338 0.850193
Si Si4 0.765459 0.103985 0.827803
Si Si5 0.080409 0.914391 0.018432
Si Si6 0.217454 0.500000 0.500000
Si Si7 0.000000 0.541926 0.750000
O O1 0.364299 0.316047 0.796740
O O2 0.441320 0.379548 0.614452
O O3 0.500000 0.682682 0.750000
O O4 0.722665 0.733702 0.799357
O O5 0.622677 0.730988 0.527134
O O6 0.748075 0.656658 0.632337
O O7 0.000000 0.744926 0.750000
O O8 0.813519 0.102966 0.653446
O O9 0.613424 0.074538 0.843180
O O10 0.908457 0.081271 0.914554
O O11 0.167421 0.958923 0.964959
O O12 0.108001 0.486667 0.361048
#
# Coordination Sequence:
#
# PCOD9318272 Si02
#       7
#     4   8   8   8   8   4   4
#     4  10  20  39  58  92 116 156 208 259 298 368
#     4  12  21  39  61  89 126 165 212 257 300 377
#     4  10  23  37  58  90 121 160 209 256 315 357
#     4  10  20  39  62  87 119 170 200 248 310 386
#     4  10  20  39  65  86 120 160 215 248 307 380
#     4  10  24  42  62  96 118 164 198 270 312 382
#     4  10  24  41  62  92 130 150 204 255 330 370
#
# _framework density 18.869712
#
# number of rings (size 3 to 8) (size 9 to 14) (size 15 to 20)
#    0.545    1.091    3.636    1.091    3.818    5.091 
#    0.000    0.000    0.000    0.000    0.000    0.000 
#    0.000    0.000    0.000    0.000    0.000    0.000 
#
# Total GULP energy -122492.836993 kJ/mol
# GULP energy per Si atom -5567.856227 kJ/mol
# Density = 1.882676 g / cm^3
# Si number density = 18.869712 Si / 1000 Ang^3
#
#
#
# Elastic Constant Matrix: (Units=GPa)
#
#
# Indices 1 2 3 4 5 6 
#
# 1 62.6261 52.1985 22.0253 0.0000 0.0000 0.0000
# 2 52.1985 107.2089 24.1599 0.0000 0.0000 0.0000
# 3 22.0253 24.1599 58.1489 0.0000 0.0000 0.0000
# 4 0.0000 0.0000 0.0000 12.9329 0.0000 0.0000
# 5 0.0000 0.0000 0.0000 0.0000 27.2844 0.0000
# 6 0.0000 0.0000 0.0000 0.0000 0.0000 38.1059
#
#
#
# Elastic Compliance Matrix: (Units=1/GPa)
#
#
# Indices 1 2 3 4 5 6 
#
# 1 0.028398 -0.012581 -0.005530 0.000000 0.000000 0.000000
# 2 -0.012581 0.015864 -0.001826 0.000000 0.000000 0.000000
# 3 -0.005530 -0.001826 0.020050 0.000000 0.000000 0.000000
# 4 0.000000 0.000000 0.000000 0.077322 0.000000 0.000000
# 5 0.000000 0.000000 0.000000 0.000000 0.036651 0.000000
# 6 0.000000 0.000000 0.000000 0.000000 0.000000 0.026243
#
#
# Mechanical properties :
#
#
# Convention : Reuss Voigt Hill
#
# Bulk Modulus (GPa) = 40.91562 47.19457 44.05510
# Shear Modulus (GPa) = 19.79814 24.30465 22.05139
#
# Velocity S-wave (km/s) = 3.24265 3.59280 3.42221
# Velocity P-wave (km/s) = 5.97913 6.50200 6.24604
#
# Compressibility (1/GPa) = 0.02444054
#
# Stress axis : x y z
#
# Youngs Moduli (GPa) = 35.21319 63.03387 49.87425
#
# Poissons Ratio (x) = 0.79301 0.27578
# Poissons Ratio (y) = 0.44301 0.09108
# Poissons Ratio (z) = 0.19471 0.11511
#
# Static dielectric constant tensor:
#      x y z
#    x 1.727690 0.000000 0.000000 
#    y 0.000000 1.646230 0.000000 
#    z 0.000000 0.000000 1.662060 
# 
# From -- ./inp_files/6417.got.cif
#   From: 2010.05.17/outbox.cif.g08.bks.cpg/sg20_4_cif.got.tgz:6417.got - 2010.06.03 22:52:26.
