data_PCOD9318291
_publ_section_title
;
Structure prediction by ZEFSAII (Michael W. Deem and Ramdas Pophale) SiO2 
 PCOD9318291
Probable space group: C 2 2 21
;
_chemical_formula_sum "Si O2"
_cell_formula_units_Z 64
_cell_length_a 12.656068
_cell_length_b 12.656065
_cell_length_c 21.201169
_cell_angle_alpha 90.000000
_cell_angle_beta 90.000000
_cell_angle_gamma 90.000000
_cell_volume 3395.918854
_symmetry_space_group_name_H-M "C 2 2 21"
_symmetry_group_IT_number 20
_symmetry_cell_setting 'orthorhombic'
loop_
_space_group_symop_operation_xyz
x,y,z
-x,-y,1/2+z
x,-y,-z
-x,y,1/2-z
1/2+x,1/2+y,z
1/2-x,1/2-y,1/2+z
1/2+x,1/2-y,-z
1/2-x,1/2+y,1/2-z
loop_
_atom_site_type_symbol
_atom_site_label
_atom_site_fract_x
_atom_site_fract_y
_atom_site_fract_z
Si Si1 0.103551 0.422461 0.293600
Si Si2 0.256248 0.644794 0.817482
Si Si3 0.144794 0.243752 0.067482
Si Si4 0.410877 0.753018 0.097270
Si Si5 0.343305 0.119223 0.025347
Si Si6 0.880777 0.343305 0.775347
Si Si7 0.577539 0.896449 0.956400
Si Si8 0.246982 0.589123 0.152730
O O1 0.192619 0.372253 0.248025
O O2 0.082916 0.349422 0.353281
O O3 0.127935 0.543977 0.311284
O O4 0.000000 0.426948 0.250000
O O5 0.181325 0.681325 0.875000
O O6 0.341731 0.737239 0.809163
O O7 0.293524 0.527190 0.834897
O O8 0.237239 0.158269 0.059163
O O9 0.027189 0.206476 0.084897
O O10 0.127747 0.307381 0.001975
O O11 0.334593 0.665407 0.125000
O O12 0.363577 0.802913 0.033841
O O13 0.456023 0.127935 0.061284
O O14 0.330893 0.000000 0.000000
O O15 0.802913 0.363577 0.716159
O O16 0.000000 0.330893 0.750000
O O17 0.650578 0.917084 0.896720
O O18 0.573052 0.000000 0.000000
#
# Coordination Sequence:
#
# PCOD9318291 Si02
#       8
#     8   8   8   8   8   8   8   8
#     4  10  20  39  62  89 118 159 207 260 303 364
#     4  11  22  38  62  91 120 160 212 248 305 373
#     4  11  22  38  62  91 120 160 212 248 305 373
#     4  11  22  41  62  89 130 165 201 255 317 375
#     4  10  24  38  61  92 125 158 211 259 308 362
#     4  10  24  38  61  92 125 158 211 259 308 362
#     4  10  20  39  62  89 118 159 207 260 303 364
#     4  11  22  41  62  89 130 165 201 255 317 375
#
# _framework density 18.846150999999999
#
# number of rings (size 3 to 8) (size 9 to 14) (size 15 to 20)
#    0.000    1.500    5.000    0.000    3.500    0.000 
#    0.000    7.500    0.000    0.000    0.000    0.000 
#    0.000    0.000    0.000    0.000    0.000    0.000 
#
# Total GULP energy -178659.177240 kJ/mol
# GULP energy per Si atom -5583.099289 kJ/mol
# Density = 1.880326 g / cm^3
# Si number density = 18.846151 Si / 1000 Ang^3
#
#
#
# Elastic Constant Matrix: (Units=GPa)
#
#
# Indices 1 2 3 4 5 6 
#
# 1 121.5104 77.8862 27.5359 0.0000 0.0000 0.0000
# 2 77.8862 121.5104 27.5359 0.0000 0.0000 0.0000
# 3 27.5359 27.5359 60.8987 0.0000 0.0000 0.0000
# 4 0.0000 0.0000 0.0000 21.9062 0.0000 0.0000
# 5 0.0000 0.0000 0.0000 0.0000 21.9062 0.0000
# 6 0.0000 0.0000 0.0000 0.0000 0.0000 24.4454
#
#
#
# Elastic Compliance Matrix: (Units=1/GPa)
#
#
# Indices 1 2 3 4 5 6 
#
# 1 0.014327 -0.008596 -0.002591 0.000000 0.000000 0.000000
# 2 -0.008596 0.014327 -0.002591 0.000000 0.000000 0.000000
# 3 -0.002591 -0.002591 0.018764 0.000000 0.000000 0.000000
# 4 0.000000 0.000000 0.000000 0.045649 0.000000 0.000000
# 5 0.000000 0.000000 0.000000 0.000000 0.045649 0.000000
# 6 0.000000 0.000000 0.000000 0.000000 0.000000 0.040908
#
#
# Mechanical properties :
#
#
# Convention : Reuss Voigt Hill
#
# Bulk Modulus (GPa) = 50.35072 63.31506 56.83289
# Shear Modulus (GPa) = 23.38621 25.04898 24.21760
#
# Velocity S-wave (km/s) = 3.52646 3.64968 3.58860
# Velocity P-wave (km/s) = 6.58453 7.17139 6.88422
#
# Compressibility (1/GPa) = 0.01986069
#
# Stress axis : x y z
#
# Youngs Moduli (GPa) = 69.79860 69.79855 53.29345
#
# Poissons Ratio (x) = 0.60000 0.13810
# Poissons Ratio (y) = 0.60000 0.13810
# Poissons Ratio (z) = 0.18086 0.18087
#
# Static dielectric constant tensor:
#      x y z
#    x 1.639400 0.000000 0.000000 
#    y 0.000000 1.639400 0.000000 
#    z 0.000000 0.000000 1.669630 
# 
# From -- ./inp_files/29163.got.cif
#   From: 2010.05.17/outbox.cif.g08.bks.cpg/sg20_15_cif.got.tgz:29163.got - 2010.06.03 22:52:26.
