data_PCOD9318831
_publ_section_title
;
Structure prediction by ZEFSAII (Michael W. Deem and Ramdas Pophale) SiO2 
 PCOD9318831
Probable space group: C 2 2 21
;
_chemical_formula_sum "Si O2"
_cell_formula_units_Z 64
_cell_length_a 19.163986
_cell_length_b 19.771367
_cell_length_c 8.050143
_cell_angle_alpha 90.000000
_cell_angle_beta 90.000000
_cell_angle_gamma 90.000000
_cell_volume 3050.184696
_symmetry_space_group_name_H-M "C 2 2 21"
_symmetry_group_IT_number 20
_symmetry_cell_setting 'orthorhombic'
loop_
_space_group_symop_operation_xyz
x,y,z
-x,-y,1/2+z
x,-y,-z
-x,y,1/2-z
1/2+x,1/2+y,z
1/2-x,1/2-y,1/2+z
1/2+x,1/2-y,-z
1/2-x,1/2+y,1/2-z
loop_
_atom_site_type_symbol
_atom_site_label
_atom_site_fract_x
_atom_site_fract_y
_atom_site_fract_z
Si Si1 0.402617 0.371665 0.802375
Si Si2 0.205532 0.654666 0.794503
Si Si3 0.426932 0.518698 0.805590
Si Si4 0.406084 0.240457 0.581395
Si Si5 0.676546 0.231223 0.264104
Si Si6 0.779692 0.964753 0.325101
Si Si7 0.538561 0.281039 0.424636
Si Si8 0.757790 0.599585 0.350930
O O1 0.423869 0.443365 0.725297
O O2 0.405271 0.312555 0.669401
O O3 0.323199 0.380031 0.858036
O O4 0.447309 0.346136 0.959730
O O5 0.128603 0.686112 0.796018
O O6 0.259415 0.717614 0.792493
O O7 0.231704 0.601063 0.659941
O O8 0.213154 0.612639 0.965780
O O9 0.500000 0.549770 0.750000
O O10 0.355152 0.554724 0.753458
O O11 0.424620 0.500000 0.000000
O O12 0.356388 0.242295 0.419462
O O13 0.485203 0.231570 0.520886
O O14 0.613590 0.248311 0.387933
O O15 0.703587 0.154293 0.265434
O O16 0.792911 0.000000 0.500000
O O17 0.743605 0.023039 0.213335
O O18 0.500000 0.295823 0.250000
#
# Coordination Sequence:
#
# PCOD9318831 Si02
#       8
#     8   8   8   8   8   8   8   8
#     4  11  20  37  58  82 120 158 204 254 302 361
#     4  11  21  39  61  89 118 165 205 256 311 371
#     4  11  24  40  55  78 117 167 211 250 303 368
#     4  10  22  36  59  92 121 152 203 253 319 363
#     4  10  21  36  63  90 121 158 203 255 307 375
#     4  11  25  39  58  85 121 162 214 261 310 371
#     4  10  21  37  55  90 124 158 194 252 310 370
#     4  10  21  38  60  87 122 161 203 260 308 365
#
# _framework density 20.982336
#
# number of rings (size 3 to 8) (size 9 to 14) (size 15 to 20)
#    0.000    1.500    2.500    3.375    3.500    1.500 
#    2.250    0.000    0.000    0.000    0.000   26.250 
#    0.000    0.000    0.000    0.000    0.000    0.000 
#
# Total GULP energy -178890.467537 kJ/mol
# GULP energy per Si atom -5590.327111 kJ/mol
# Density = 2.093458 g / cm^3
# Si number density = 20.982336 Si / 1000 Ang^3
#
#
#
# Elastic Constant Matrix: (Units=GPa)
#
#
# Indices 1 2 3 4 5 6 
#
# 1 95.3290 46.4146 15.0333 0.0000 0.0000 0.0000
# 2 46.4146 88.4611 9.7541 0.0000 0.0000 0.0000
# 3 15.0333 9.7541 49.4240 0.0000 0.0000 0.0000
# 4 0.0000 0.0000 0.0000 31.2942 0.0000 0.0000
# 5 0.0000 0.0000 0.0000 0.0000 23.2339 0.0000
# 6 0.0000 0.0000 0.0000 0.0000 0.0000 8.7238
#
#
#
# Elastic Compliance Matrix: (Units=1/GPa)
#
#
# Indices 1 2 3 4 5 6 
#
# 1 0.014505 -0.007283 -0.002975 0.000000 0.000000 0.000000
# 2 -0.007283 0.015212 -0.000787 0.000000 0.000000 0.000000
# 3 -0.002975 -0.000787 0.021293 0.000000 0.000000 0.000000
# 4 0.000000 0.000000 0.000000 0.031955 0.000000 0.000000
# 5 0.000000 0.000000 0.000000 0.000000 0.043041 0.000000
# 6 0.000000 0.000000 0.000000 0.000000 0.000000 0.114629
#
#
# Mechanical properties :
#
#
# Convention : Reuss Voigt Hill
#
# Bulk Modulus (GPa) = 34.57610 41.73533 38.15572
# Shear Modulus (GPa) = 18.35780 23.45119 20.90449
#
# Velocity S-wave (km/s) = 2.96111 3.34677 3.15983
# Velocity P-wave (km/s) = 5.31087 5.90495 5.61577
#
# Compressibility (1/GPa) = 0.02892171
#
# Stress axis : x y z
#
# Youngs Moduli (GPa) = 68.94229 65.73640 46.96328
#
# Poissons Ratio (x) = 0.47873 0.13970
# Poissons Ratio (y) = 0.50208 0.03696
# Poissons Ratio (z) = 0.20508 0.05174
#
# Static dielectric constant tensor:
#      x y z
#    x 1.762430 0.000000 0.000000 
#    y 0.000000 1.764820 0.000000 
#    z 0.000000 0.000000 1.847040 
# 
# From -- ./inp_files/10358.got.cif
#   From: 2010.05.17/outbox.cif.g08.bks.cpg/sg20_6_cif.got.tgz:10358.got - 2010.06.03 22:52:26.
