data_PCOD9318928
_publ_section_title
;
Structure prediction by ZEFSAII (Michael W. Deem and Ramdas Pophale) SiO2 
 PCOD9318928
Probable space group: C 2 2 21
;
_chemical_formula_sum "Si O2"
_cell_formula_units_Z 52
_cell_length_a 31.397233
_cell_length_b 14.089013
_cell_length_c 5.354731
_cell_angle_alpha 90.000000
_cell_angle_beta 90.000000
_cell_angle_gamma 90.000000
_cell_volume 2368.697514
_symmetry_space_group_name_H-M "C 2 2 21"
_symmetry_group_IT_number 20
_symmetry_cell_setting 'orthorhombic'
loop_
_space_group_symop_operation_xyz
x,y,z
-x,-y,1/2+z
x,-y,-z
-x,y,1/2-z
1/2+x,1/2+y,z
1/2-x,1/2-y,1/2+z
1/2+x,1/2-y,-z
1/2-x,1/2+y,1/2-z
loop_
_atom_site_type_symbol
_atom_site_label
_atom_site_fract_x
_atom_site_fract_y
_atom_site_fract_z
Si Si1 0.951134 0.689626 0.233689
Si Si2 0.882833 0.383209 0.383581
Si Si3 0.297076 0.307743 0.947456
Si Si4 0.704955 0.181439 0.054895
Si Si5 0.424711 0.000000 0.000000
Si Si6 0.046802 0.937467 0.753513
Si Si7 0.611798 0.303006 0.571226
O O1 0.925000 0.650850 0.470176
O O2 0.950820 0.595816 0.053457
O O3 0.000000 0.719066 0.250000
O O4 0.922005 0.776904 0.142280
O O5 0.837785 0.379913 0.525434
O O6 0.894732 0.477819 0.235365
O O7 0.876924 0.301036 0.174252
O O8 0.296593 0.232426 0.176200
O O9 0.252266 0.363463 0.967483
O O10 0.296395 0.258318 0.673011
O O11 0.343552 0.354023 0.982709
O O12 0.084765 0.863394 0.763626
O O13 0.000000 0.890324 0.750000
O O14 0.051358 0.000000 0.500000
O O15 0.047774 0.000000 0.000000
#
# Coordination Sequence:
#
# PCOD9318928 Si02
#       7
#     8   8   8   8   4   8   8
#     4  11  24  36  59  86 122 168 213 264 308 368
#     4  10  21  38  58  89 122 164 209 261 307 367
#     4   9  17  32  56  92 116 153 191 259 306 365
#     4   9  17  32  57  87 123 147 203 248 311 360
#     4  10  24  38  54  84 128 172 208 256 314 370
#     4  10  24  41  61  88 123 162 196 244 313 377
#     4  10  22  37  61  91 119 153 211 254 310 369
#
# _framework density 21.952995000000001
#
# number of rings (size 3 to 8) (size 9 to 14) (size 15 to 20)
#    0.000    2.154    1.538    0.462    6.462    1.846 
#    0.000    0.000    0.000    1.846    4.000    0.000 
#    0.000    0.000    0.000    0.000    0.000    0.000 
#
# Total GULP energy -144876.789356 kJ/mol
# GULP energy per Si atom -5572.184206 kJ/mol
# Density = 2.190303 g / cm^3
# Si number density = 21.952995 Si / 1000 Ang^3
#
#
#
# Elastic Constant Matrix: (Units=GPa)
#
#
# Indices 1 2 3 4 5 6 
#
# 1 220.6347 20.8294 27.0456 0.0000 0.0000 0.0000
# 2 20.8294 20.8271 0.5156 0.0000 0.0000 0.0000
# 3 27.0456 0.5156 95.1914 0.0000 0.0000 0.0000
# 4 0.0000 0.0000 0.0000 15.2295 0.0000 0.0000
# 5 0.0000 0.0000 0.0000 0.0000 25.0916 0.0000
# 6 0.0000 0.0000 0.0000 0.0000 0.0000 -10.3673
#
#
#
# Elastic Compliance Matrix: (Units=1/GPa)
#
#
# Indices 1 2 3 4 5 6 
#
# 1 0.005197 -0.005162 -0.001449 0.000000 0.000000 0.000000
# 2 -0.005162 0.053148 0.001179 0.000000 0.000000 0.000000
# 3 -0.001449 0.001179 0.010910 0.000000 0.000000 0.000000
# 4 0.000000 0.000000 0.000000 0.065662 0.000000 0.000000
# 5 0.000000 0.000000 0.000000 0.000000 0.039854 0.000000
# 6 0.000000 0.000000 0.000000 0.000000 0.000000 -0.096457
#
#
# Mechanical properties :
#
#
# Convention : Reuss Voigt Hill
#
# Bulk Modulus (GPa) = 17.12578 48.15939 32.64258
# Shear Modulus (GPa) = 46.02264 25.20827 35.61545
#
# Velocity S-wave (km/s) = 4.58363 3.39231 4.03221
# Velocity P-wave (km/s) = 5.98590 6.10973 6.04813
#
# Compressibility (1/GPa) = 0.05839150
#
# Stress axis : x y z
#
# Youngs Moduli (GPa) = 192.40813 18.81549 91.65598
#
# Poissons Ratio (x) = 0.09713 0.13278
# Poissons Ratio (y) = 0.99321 -0.10804
# Poissons Ratio (z) = 0.27874 -0.02218
#
# Static dielectric constant tensor:
#      x y z
#    x 1.878660 0.000000 0.000000 
#    y 0.000000 1.779280 0.000000 
#    z 0.000000 0.000000 1.896800 
# 
# From -- ./inp_files/4290.got.cif
#   From: 2010.05.17/outbox.cif.g08.bks.cpg/sg20_3_cif.got.tgz:4290.got - 2010.06.03 22:52:26.
