data_PCOD9318013
_publ_section_title
;
Structure prediction by ZEFSAII (Michael W. Deem and Ramdas Pophale) SiO2 
 PCOD9318013
Probable space group: C 2 2 21
;
_chemical_formula_sum "Si O2"
_cell_formula_units_Z 36
_cell_length_a 9.011959
_cell_length_b 22.377959
_cell_length_c 8.265500
_cell_angle_alpha 90.000000
_cell_angle_beta 90.000000
_cell_angle_gamma 90.000000
_cell_volume 1666.897178
_symmetry_space_group_name_H-M "C 2 2 21"
_symmetry_group_IT_number 20
_symmetry_cell_setting 'orthorhombic'
loop_
_space_group_symop_operation_xyz
x,y,z
-x,-y,1/2+z
x,-y,-z
-x,y,1/2-z
1/2+x,1/2+y,z
1/2-x,1/2-y,1/2+z
1/2+x,1/2-y,-z
1/2-x,1/2+y,1/2-z
loop_
_atom_site_type_symbol
_atom_site_label
_atom_site_fract_x
_atom_site_fract_y
_atom_site_fract_z
Si Si1 0.134836 0.000000 0.500000
Si Si2 0.853338 0.795175 0.360385
Si Si3 0.421994 0.056762 0.413903
Si Si4 0.495351 0.616639 0.060104
Si Si5 0.691846 0.175192 0.948851
O O1 0.032893 0.944021 0.459658
O O2 0.256752 0.971069 0.621810
O O3 0.864428 0.847134 0.493963
O O4 0.718287 0.805563 0.236652
O O5 0.860036 0.731922 0.449193
O O6 0.000000 0.800514 0.250000
O O7 0.500000 0.074339 0.250000
O O8 0.402055 0.114705 0.526296
O O9 0.499070 0.000000 0.500000
O O10 0.500000 0.603992 0.250000
O O11 0.351290 0.657226 0.025338
#
# Coordination Sequence:
#
# PCOD9318013 Si02
#       5
#     4   8   8   8   8
#     4   8  20  36  62  82 122 144 196 252 302 368
#     4  10  21  36  62  88 124 161 204 253 315 365
#     4   9  19  39  62  85 120 159 207 263 308 367
#     4  10  20  37  61  88 122 155 200 248 309 373
#     4  10  20  38  59  87 127 157 209 256 307 376
#
# _framework density 21.597011999999999
#
# number of rings (size 3 to 8) (size 9 to 14) (size 15 to 20)
#    0.667    1.778    0.000    2.000    0.000    4.444 
#    0.000   12.222    0.000    0.000    0.000    0.000 
#    0.000    0.000    0.000    0.000    0.000    0.000 
#
# Total GULP energy -100267.869794 kJ/mol
# GULP energy per Si atom -5570.437211 kJ/mol
# Density = 2.154786 g / cm^3
# Si number density = 21.597012 Si / 1000 Ang^3
#
#
#
# Elastic Constant Matrix: (Units=GPa)
#
#
# Indices 1 2 3 4 5 6 
#
# 1 8.7615 16.7234 15.4170 0.0000 0.0000 0.0000
# 2 16.7234 142.8474 48.9839 0.0000 0.0000 0.0000
# 3 15.4170 48.9839 91.4340 0.0000 0.0000 0.0000
# 4 0.0000 0.0000 0.0000 19.8003 0.0000 0.0000
# 5 0.0000 0.0000 0.0000 0.0000 16.5508 0.0000
# 6 0.0000 0.0000 0.0000 0.0000 0.0000 -519.0054
#
#
#
# Elastic Compliance Matrix: (Units=1/GPa)
#
#
# Indices 1 2 3 4 5 6 
#
# 1 0.180259 -0.013085 -0.023384 0.000000 0.000000 0.000000
# 2 -0.013085 0.009526 -0.002897 0.000000 0.000000 0.000000
# 3 -0.023384 -0.002897 0.016432 0.000000 0.000000 0.000000
# 4 0.000000 0.000000 0.000000 0.050504 0.000000 0.000000
# 5 0.000000 0.000000 0.000000 0.000000 0.060420 0.000000
# 6 0.000000 0.000000 0.000000 0.000000 0.000000 -0.001927
#
#
# Mechanical properties :
#
#
# Convention : Reuss Voigt Hill
#
# Bulk Modulus (GPa) = 7.84406 45.03239 26.43823
# Shear Modulus (GPa) = 11.45630 -85.73630 -37.14000
#
# Velocity S-wave (km/s) = 2.30567 -6.30749 -4.15140
# Velocity P-wave (km/s) = 3.27537 5.67004 3.27272
#
# Compressibility (1/GPa) = 0.12748500
#
# Stress axis : x y z
#
# Youngs Moduli (GPa) = 5.54756 104.97898 60.85767
#
# Poissons Ratio (x) = 1.37360 1.42312
# Poissons Ratio (y) = 0.07259 0.17630
# Poissons Ratio (z) = 0.12973 0.30412
#
# Static dielectric constant tensor:
#      x y z
#    x 1.875540 0.000000 0.000000 
#    y 0.000000 1.798800 0.000000 
#    z 0.000000 0.000000 3.915880 
# 
# From -- ./inp_files/5922.got.cif
#   From: 2010.05.17/outbox.cif.g08.bks.cpg/sg20_3_cif.got.tgz:5922.got - 2010.06.03 22:52:26.
