data_PCOD9318421
_publ_section_title
;
Structure prediction by ZEFSAII (Michael W. Deem and Ramdas Pophale) SiO2 
 PCOD9318421
Probable space group: C 2 2 21
;
_chemical_formula_sum "Si O2"
_cell_formula_units_Z 64
_cell_length_a 16.990768
_cell_length_b 10.945498
_cell_length_c 18.495541
_cell_angle_alpha 90.000000
_cell_angle_beta 90.000000
_cell_angle_gamma 90.000000
_cell_volume 3439.660466
_symmetry_space_group_name_H-M "C 2 2 21"
_symmetry_group_IT_number 20
_symmetry_cell_setting 'orthorhombic'
loop_
_space_group_symop_operation_xyz
x,y,z
-x,-y,1/2+z
x,-y,-z
-x,y,1/2-z
1/2+x,1/2+y,z
1/2-x,1/2-y,1/2+z
1/2+x,1/2-y,-z
1/2-x,1/2+y,1/2-z
loop_
_atom_site_type_symbol
_atom_site_label
_atom_site_fract_x
_atom_site_fract_y
_atom_site_fract_z
Si Si1 0.962409 0.632096 0.461547
Si Si2 0.633264 0.072110 0.424123
Si Si3 0.716115 0.521823 0.688112
Si Si4 0.296357 0.181498 0.402576
Si Si5 0.304863 0.866363 0.178097
Si Si6 0.691604 0.671460 0.541872
Si Si7 0.477860 0.626247 0.032068
Si Si8 0.072724 0.855559 0.696105
O O1 0.948148 0.500000 0.500000
O O2 0.888568 0.670131 0.413689
O O3 0.043201 0.616795 0.416930
O O4 0.976963 0.746950 0.515418
O O5 0.689255 0.187639 0.434585
O O6 0.634407 0.000000 0.500000
O O7 0.658505 0.984777 0.359750
O O8 0.769437 0.409929 0.660489
O O9 0.760519 0.599083 0.748491
O O10 0.701749 0.595841 0.614559
O O11 0.634217 0.463388 0.715574
O O12 0.258400 0.308881 0.377650
O O13 0.255664 0.148955 0.479490
O O14 0.373813 0.766681 0.190175
O O15 0.607448 0.641837 0.505859
O O16 0.461548 0.616243 0.116814
O O17 0.513046 0.500000 0.000000
O O18 0.000000 0.842789 0.750000
#
# Coordination Sequence:
#
# PCOD9318421 Si02
#       8
#     8   8   8   8   8   8   8   8
#     4  10  22  37  66  99 130 163 226 278 322 387
#     4  10  20  40  65  91 125 175 212 266 332 395
#     4  11  24  39  66  91 129 169 220 267 332 393
#     4  11  22  42  64  96 127 168 220 281 315 393
#     4  11  24  42  63  95 137 168 216 273 337 393
#     4  11  19  39  73  88 117 174 224 261 329 387
#     4  11  20  42  69  93 123 177 224 270 329 397
#     4  11  24  42  65  91 132 175 213 267 331 404
#
# _framework density 18.606487999999999
#
# number of rings (size 3 to 8) (size 9 to 14) (size 15 to 20)
#    0.000    1.250    5.000    2.625    3.500    4.000 
#    2.250    0.000    0.000    0.000    0.000    0.000 
#    0.000    0.000    0.000    0.000    0.000    0.000 
#
# Total GULP energy -178636.779937 kJ/mol
# GULP energy per Si atom -5582.399373 kJ/mol
# Density = 1.856414 g / cm^3
# Si number density = 18.606488 Si / 1000 Ang^3
#
#
#
# Elastic Constant Matrix: (Units=GPa)
#
#
# Indices 1 2 3 4 5 6 
#
# 1 53.0605 27.3392 35.9316 0.0000 0.0000 0.0000
# 2 27.3392 98.4067 29.6746 0.0000 0.0000 0.0000
# 3 35.9316 29.6746 97.0093 0.0000 0.0000 0.0000
# 4 0.0000 0.0000 0.0000 28.0625 0.0000 0.0000
# 5 0.0000 0.0000 0.0000 0.0000 22.9281 0.0000
# 6 0.0000 0.0000 0.0000 0.0000 0.0000 4.3602
#
#
#
# Elastic Compliance Matrix: (Units=1/GPa)
#
#
# Indices 1 2 3 4 5 6 
#
# 1 0.027204 -0.004978 -0.008553 0.000000 0.000000 0.000000
# 2 -0.004978 0.012106 -0.001859 0.000000 0.000000 0.000000
# 3 -0.008553 -0.001859 0.014045 0.000000 0.000000 0.000000
# 4 0.000000 0.000000 0.000000 0.035635 0.000000 0.000000
# 5 0.000000 0.000000 0.000000 0.000000 0.043615 0.000000
# 6 0.000000 0.000000 0.000000 0.000000 0.000000 0.229349
#
#
# Mechanical properties :
#
#
# Convention : Reuss Voigt Hill
#
# Bulk Modulus (GPa) = 44.30093 48.26303 46.28198
# Shear Modulus (GPa) = 12.49195 21.43890 16.96543
#
# Velocity S-wave (km/s) = 2.59390 3.39813 3.02288
# Velocity P-wave (km/s) = 5.72994 6.43362 6.09195
#
# Compressibility (1/GPa) = 0.02257289
#
# Stress axis : x y z
#
# Youngs Moduli (GPa) = 36.75993 82.60634 71.19978
#
# Poissons Ratio (x) = 0.41125 0.60898
# Poissons Ratio (y) = 0.18301 0.13237
# Poissons Ratio (z) = 0.31441 0.15357
#
# Static dielectric constant tensor:
#      x y z
#    x 1.637720 0.000000 0.000000 
#    y 0.000000 1.697260 0.000000 
#    z 0.000000 0.000000 1.607070 
# 
# From -- ./inp_files/25361.got.cif
#   From: 2010.05.17/outbox.cif.g08.bks.cpg/sg20_13_cif.got.tgz:25361.got - 2010.06.03 22:52:26.
