data_PCOD9318255
_publ_section_title
;
Structure prediction by ZEFSAII (Michael W. Deem and Ramdas Pophale) SiO2 
 PCOD9318255
Probable space group: C 2 2 21
;
_chemical_formula_sum "Si O2"
_cell_formula_units_Z 64
_cell_length_a 5.592890
_cell_length_b 30.367432
_cell_length_c 16.339535
_cell_angle_alpha 90.000000
_cell_angle_beta 90.000000
_cell_angle_gamma 90.000000
_cell_volume 2775.134512
_symmetry_space_group_name_H-M "C 2 2 21"
_symmetry_group_IT_number 20
_symmetry_cell_setting 'orthorhombic'
loop_
_space_group_symop_operation_xyz
x,y,z
-x,-y,1/2+z
x,-y,-z
-x,y,1/2-z
1/2+x,1/2+y,z
1/2-x,1/2-y,1/2+z
1/2+x,1/2-y,-z
1/2-x,1/2+y,1/2-z
loop_
_atom_site_type_symbol
_atom_site_label
_atom_site_fract_x
_atom_site_fract_y
_atom_site_fract_z
Si Si1 0.483647 0.343236 0.898136
Si Si2 0.119548 0.603327 0.021498
Si Si3 0.795557 0.339361 0.061554
Si Si4 0.239810 0.475459 0.085049
Si Si5 0.781410 0.753813 0.947304
Si Si6 0.252431 0.395860 0.286238
Si Si7 0.314679 0.092919 0.177796
Si Si8 0.739919 0.493573 0.173013
O O1 0.322045 0.386073 0.913782
O O2 0.338714 0.297402 0.893709
O O3 0.660099 0.362241 0.829839
O O4 0.622605 0.337952 0.983980
O O5 0.910557 0.586862 0.082847
O O6 0.199601 0.574140 0.945377
O O7 0.048154 0.649230 0.979574
O O8 0.784072 0.292038 0.103303
O O9 0.742458 0.380372 0.119981
O O10 0.500012 0.484945 0.121038
O O11 0.003376 0.490793 0.132744
O O12 0.231555 0.500000 0.000000
O O13 0.517354 0.753733 0.992053
O O14 0.500000 0.378421 0.250000
O O15 0.255287 0.448770 0.273109
O O16 0.000000 0.379681 0.250000
O O17 0.500000 0.101888 0.250000
O O18 0.218168 0.044141 0.200948
#
# Coordination Sequence:
#
# PCOD9318255 Si02
#       8
#     8   8   8   8   8   8   8   8
#     4  10  22  41  70 101 131 175 230 289 345 405
#     4  11  21  40  68  97 130 180 223 292 349 395
#     4  10  22  40  70 100 137 173 225 289 345 415
#     4  12  23  38  68  97 129 168 228 285 337 390
#     4  10  20  38  70 107 134 166 225 288 348 408
#     4  12  27  44  66  96 140 185 227 279 346 415
#     4  11  26  44  64  97 140 189 232 278 346 425
#     4  12  25  44  64  95 134 181 229 283 327 408
#
# _framework density 23.061944
#
# number of rings (size 3 to 8) (size 9 to 14) (size 15 to 20)
#    0.000    1.000    3.750    3.000    3.500    0.500 
#    0.000    0.000    2.750    0.000    0.000    0.000 
#    0.000    0.000    0.000    0.000    0.000    0.000 
#
# Total GULP energy -178244.489277 kJ/mol
# GULP energy per Si atom -5570.140290 kJ/mol
# Density = 2.300945 g / cm^3
# Si number density = 23.061944 Si / 1000 Ang^3
#
#
#
# Elastic Constant Matrix: (Units=GPa)
#
#
# Indices 1 2 3 4 5 6 
#
# 1 129.4984 3.3289 24.2841 0.0000 0.0000 0.0000
# 2 3.3289 91.4478 -3.0518 0.0000 0.0000 0.0000
# 3 24.2841 -3.0518 39.8338 0.0000 0.0000 0.0000
# 4 0.0000 0.0000 0.0000 14.2970 0.0000 0.0000
# 5 0.0000 0.0000 0.0000 0.0000 55.0959 0.0000
# 6 0.0000 0.0000 0.0000 0.0000 0.0000 8.6577
#
#
#
# Elastic Compliance Matrix: (Units=1/GPa)
#
#
# Indices 1 2 3 4 5 6 
#
# 1 0.008741 -0.000497 -0.005367 0.000000 0.000000 0.000000
# 2 -0.000497 0.010992 0.001145 0.000000 0.000000 0.000000
# 3 -0.005367 0.001145 0.028464 0.000000 0.000000 0.000000
# 4 0.000000 0.000000 0.000000 0.069945 0.000000 0.000000
# 5 0.000000 0.000000 0.000000 0.000000 0.018150 0.000000
# 6 0.000000 0.000000 0.000000 0.000000 0.000000 0.115504
#
#
# Mechanical properties :
#
#
# Convention : Reuss Voigt Hill
#
# Bulk Modulus (GPa) = 25.80077 34.43362 30.11719
# Shear Modulus (GPa) = 18.23795 31.35803 24.79799
#
# Velocity S-wave (km/s) = 2.81521 3.69145 3.28270
# Velocity P-wave (km/s) = 4.66681 5.75608 5.23983
#
# Compressibility (1/GPa) = 0.03875854
#
# Stress axis : x y z
#
# Youngs Moduli (GPa) = 114.39874 90.97918 35.13205
#
# Poissons Ratio (x) = 0.04525 0.18856
# Poissons Ratio (y) = 0.05689 -0.04024
# Poissons Ratio (z) = 0.61399 -0.10420
#
# Static dielectric constant tensor:
#      x y z
#    x 1.471880 0.000000 0.000000 
#    y 0.000000 0.953930 0.000000 
#    z 0.000000 0.000000 1.960270 
# 
# From -- ./inp_files/23011.got.cif
#   From: 2010.05.17/outbox.cif.g08.bks.cpg/sg20_12_cif.got.tgz:23011.got - 2010.06.03 22:52:26.
