data_PCOD9318873
_publ_section_title
;
Structure prediction by ZEFSAII (Michael W. Deem and Ramdas Pophale) SiO2 
 PCOD9318873
Probable space group: C 2 2 21
;
_chemical_formula_sum "Si O2"
_cell_formula_units_Z 48
_cell_length_a 8.277612
_cell_length_b 11.652985
_cell_length_c 22.748521
_cell_angle_alpha 90.000000
_cell_angle_beta 90.000000
_cell_angle_gamma 90.000000
_cell_volume 2194.297050
_symmetry_space_group_name_H-M "C 2 2 21"
_symmetry_group_IT_number 20
_symmetry_cell_setting 'orthorhombic'
loop_
_space_group_symop_operation_xyz
x,y,z
-x,-y,1/2+z
x,-y,-z
-x,y,1/2-z
1/2+x,1/2+y,z
1/2-x,1/2-y,1/2+z
1/2+x,1/2-y,-z
1/2-x,1/2+y,1/2-z
loop_
_atom_site_type_symbol
_atom_site_label
_atom_site_fract_x
_atom_site_fract_y
_atom_site_fract_z
Si Si1 0.011424 0.111717 0.879159
Si Si2 0.315180 0.811236 0.346733
Si Si3 0.323161 0.724830 0.725289
Si Si4 0.414306 0.104489 0.539024
Si Si5 0.247250 0.793019 0.032981
Si Si6 0.109373 0.142910 0.360773
O O1 0.136976 0.134446 0.826384
O O2 0.103413 0.132044 0.939587
O O3 0.866598 0.202950 0.871455
O O4 0.929132 0.988971 0.871849
O O5 0.280019 0.831407 0.277947
O O6 0.395701 0.905223 0.390598
O O7 0.438053 0.706000 0.350995
O O8 0.500000 0.759748 0.750000
O O9 0.222727 0.826925 0.694873
O O10 0.598302 0.129234 0.521324
O O11 0.318034 0.218602 0.520425
O O12 0.352441 0.000000 0.500000
O O13 0.304940 0.703228 0.083480
#
# Coordination Sequence:
#
# PCOD9318873 Si02
#       6
#     8   8   8   8   8   8
#     4  10  21  40  63  88 122 162 203 255 313 362
#     4  10  21  37  60  89 120 156 204 251 296 366
#     4   9  20  38  59  91 126 156 205 258 300 369
#     4  11  23  40  62  89 125 165 203 252 310 365
#     4  10  23  39  60  92 122 156 211 257 298 369
#     4  10  21  40  64  87 120 165 203 253 316 361
#
# _framework density 21.874886
#
# number of rings (size 3 to 8) (size 9 to 14) (size 15 to 20)
#    0.000    2.000    0.000    2.500    0.000    8.000 
#    0.000   14.167    0.000    0.000    0.000    0.000 
#    0.000    0.000    0.000    0.000    0.000    0.000 
#
# Total GULP energy -133945.478357 kJ/mol
# GULP energy per Si atom -5581.061598 kJ/mol
# Density = 2.182510 g / cm^3
# Si number density = 21.874886 Si / 1000 Ang^3
#
#
#
# Elastic Constant Matrix: (Units=GPa)
#
#
# Indices 1 2 3 4 5 6 
#
# 1 78.0818 32.0636 15.0506 0.0000 0.0000 0.0000
# 2 32.0636 88.6149 41.8631 0.0000 0.0000 0.0000
# 3 15.0506 41.8631 90.4127 0.0000 0.0000 0.0000
# 4 0.0000 0.0000 0.0000 17.9176 0.0000 0.0000
# 5 0.0000 0.0000 0.0000 0.0000 49.0745 0.0000
# 6 0.0000 0.0000 0.0000 0.0000 0.0000 21.4933
#
#
#
# Elastic Compliance Matrix: (Units=1/GPa)
#
#
# Indices 1 2 3 4 5 6 
#
# 1 0.015042 -0.005452 0.000021 0.000000 0.000000 0.000000
# 2 -0.005452 0.016421 -0.006695 0.000000 0.000000 0.000000
# 3 0.000021 -0.006695 0.014157 0.000000 0.000000 0.000000
# 4 0.000000 0.000000 0.000000 0.055811 0.000000 0.000000
# 5 0.000000 0.000000 0.000000 0.000000 0.020377 0.000000
# 6 0.000000 0.000000 0.000000 0.000000 0.000000 0.046526
#
#
# Mechanical properties :
#
#
# Convention : Reuss Voigt Hill
#
# Bulk Modulus (GPa) = 46.80492 48.34043 47.57267
# Shear Modulus (GPa) = 25.03622 28.90589 26.97106
#
# Velocity S-wave (km/s) = 3.38674 3.63908 3.51518
# Velocity P-wave (km/s) = 6.06106 6.30902 6.18628
#
# Compressibility (1/GPa) = 0.02136527
#
# Stress axis : x y z
#
# Youngs Moduli (GPa) = 66.48012 60.89876 70.63583
#
# Poissons Ratio (x) = 0.33205 -0.00145
# Poissons Ratio (y) = 0.36248 0.47294
# Poissons Ratio (z) = -0.00137 0.40775
#
# Static dielectric constant tensor:
#      x y z
#    x 1.810700 0.000000 0.000000 
#    y 0.000000 1.760440 0.000000 
#    z 0.000000 0.000000 1.835710 
# 
# From -- ./inp_files/28721.got.cif
#   From: 2010.05.17/outbox.cif.g08.bks.cpg/sg20_15_cif.got.tgz:28721.got - 2010.06.03 22:52:26.
