data_PCOD9318538
_publ_section_title
;
Structure prediction by ZEFSAII (Michael W. Deem and Ramdas Pophale) SiO2 
 PCOD9318538
Probable space group: C 2 2 21
;
_chemical_formula_sum "Si O2"
_cell_formula_units_Z 40
_cell_length_a 13.468460
_cell_length_b 7.493284
_cell_length_c 14.843708
_cell_angle_alpha 90.000000
_cell_angle_beta 90.000000
_cell_angle_gamma 90.000000
_cell_volume 1498.071480
_symmetry_space_group_name_H-M "C 2 2 21"
_symmetry_group_IT_number 20
_symmetry_cell_setting 'orthorhombic'
loop_
_space_group_symop_operation_xyz
x,y,z
-x,-y,1/2+z
x,-y,-z
-x,y,1/2-z
1/2+x,1/2+y,z
1/2-x,1/2-y,1/2+z
1/2+x,1/2-y,-z
1/2-x,1/2+y,1/2-z
loop_
_atom_site_type_symbol
_atom_site_label
_atom_site_fract_x
_atom_site_fract_y
_atom_site_fract_z
Si Si1 0.199632 0.229841 0.299002
Si Si2 0.703270 0.640882 0.628851
Si Si3 0.385024 0.633441 0.386205
Si Si4 0.983236 0.208380 0.644876
Si Si5 0.455771 0.073537 0.904517
O O1 0.286885 0.295123 0.234001
O O2 0.141929 0.389784 0.346405
O O3 0.124065 0.158020 0.222489
O O4 0.225948 0.069750 0.365916
O O5 0.786067 0.763242 0.580911
O O6 0.590792 0.666416 0.600393
O O7 0.403294 0.423775 0.400048
O O8 0.481145 0.746497 0.413008
O O9 0.972021 0.420925 0.635643
O O10 0.000000 0.169502 0.750000
O O11 0.425082 0.000000 0.000000
#
# Coordination Sequence:
#
# PCOD9318538 Si02
#       5
#     8   8   8   8   8
#     4  10  20  41  67 105 138 168 243 297 345 415
#     4  10  21  37  74 102 131 167 233 307 351 401
#     4  10  23  42  67 102 129 174 240 291 344 412
#     4  12  21  42  73 102 130 180 230 298 354 404
#     4  12  26  41  62  98 147 193 227 281 365 430
#
# _framework density 26.700994999999999
#
# number of rings (size 3 to 8) (size 9 to 14) (size 15 to 20)
#    1.200    0.000    4.000    3.000    2.800    0.800 
#    0.000    2.000    0.000    0.000    0.000    0.000 
#    0.000    0.000    0.000    0.000    0.000    0.000 
#
# Total GULP energy -111916.285755 kJ/mol
# GULP energy per Si atom -5595.814288 kJ/mol
# Density = 2.664022 g / cm^3
# Si number density = 26.700995 Si / 1000 Ang^3
#
#
#
# Elastic Constant Matrix: (Units=GPa)
#
#
# Indices 1 2 3 4 5 6 
#
# 1 115.9818 29.8882 22.7898 0.0000 0.0000 0.0000
# 2 29.8882 169.8525 29.0964 0.0000 0.0000 0.0000
# 3 22.7898 29.0964 50.0765 0.0000 0.0000 0.0000
# 4 0.0000 0.0000 0.0000 33.1598 0.0000 0.0000
# 5 0.0000 0.0000 0.0000 0.0000 19.1563 0.0000
# 6 0.0000 0.0000 0.0000 0.0000 0.0000 58.7897
#
#
#
# Elastic Compliance Matrix: (Units=1/GPa)
#
#
# Indices 1 2 3 4 5 6 
#
# 1 0.009634 -0.001049 -0.003775 0.000000 0.000000 0.000000
# 2 -0.001049 0.006652 -0.003388 0.000000 0.000000 0.000000
# 3 -0.003775 -0.003388 0.023656 0.000000 0.000000 0.000000
# 4 0.000000 0.000000 0.000000 0.030157 0.000000 0.000000
# 5 0.000000 0.000000 0.000000 0.000000 0.052202 0.000000
# 6 0.000000 0.000000 0.000000 0.000000 0.000000 0.017010
#
#
# Mechanical properties :
#
#
# Convention : Reuss Voigt Hill
#
# Bulk Modulus (GPa) = 42.51901 55.49551 49.00726
# Shear Modulus (GPa) = 30.56705 39.16358 34.86531
#
# Velocity S-wave (km/s) = 3.38715 3.83397 3.61746
# Velocity P-wave (km/s) = 5.59068 6.35832 5.98682
#
# Compressibility (1/GPa) = 0.02351889
#
# Stress axis : x y z
#
# Youngs Moduli (GPa) = 103.79836 150.32247 42.27226
#
# Poissons Ratio (x) = 0.15762 0.15959
# Poissons Ratio (y) = 0.10884 0.14322
# Poissons Ratio (z) = 0.39186 0.50931
#
# Static dielectric constant tensor:
#      x y z
#    x 2.049900 0.000000 0.000000 
#    y 0.000000 2.133360 0.000000 
#    z 0.000000 0.000000 2.083370 
# 
# From -- ./inp_files/27420.got.cif
#   From: 2010.05.17/outbox.cif.g08.bks.cpg/sg20_14_cif.got.tgz:27420.got - 2010.06.03 22:52:26.
