data_PCOD9318735
_publ_section_title
;
Structure prediction by ZEFSAII (Michael W. Deem and Ramdas Pophale) SiO2 
 PCOD9318735
Probable space group: C 2 2 21
;
_chemical_formula_sum "Si O2"
_cell_formula_units_Z 52
_cell_length_a 24.048393
_cell_length_b 18.926546
_cell_length_c 6.190227
_cell_angle_alpha 90.000000
_cell_angle_beta 90.000000
_cell_angle_gamma 90.000000
_cell_volume 2817.500491
_symmetry_space_group_name_H-M "C 2 2 21"
_symmetry_group_IT_number 20
_symmetry_cell_setting 'orthorhombic'
loop_
_space_group_symop_operation_xyz
x,y,z
-x,-y,1/2+z
x,-y,-z
-x,y,1/2-z
1/2+x,1/2+y,z
1/2-x,1/2-y,1/2+z
1/2+x,1/2-y,-z
1/2-x,1/2+y,1/2-z
loop_
_atom_site_type_symbol
_atom_site_label
_atom_site_fract_x
_atom_site_fract_y
_atom_site_fract_z
Si Si1 0.746850 0.173938 0.643650
Si Si2 0.173629 0.293771 0.708258
Si Si3 0.782767 0.576276 0.465151
Si Si4 0.176951 0.107833 0.218668
Si Si5 0.403757 0.678842 0.933586
Si Si6 0.000000 0.820293 0.750000
Si Si7 0.070856 0.076128 0.956179
O O1 0.772841 0.245151 0.736833
O O2 0.686656 0.184577 0.537318
O O3 0.791008 0.152514 0.461608
O O4 0.739986 0.113595 0.820175
O O5 0.178682 0.364191 0.851179
O O6 0.121342 0.241466 0.714869
O O7 0.809622 0.500000 0.500000
O O8 0.727189 0.563667 0.321835
O O9 0.145515 0.151474 0.407348
O O10 0.128784 0.069746 0.086395
O O11 0.420871 0.611538 0.781252
O O12 0.453105 0.709723 0.085127
O O13 0.964187 0.867262 0.587639
O O14 0.043182 0.000000 0.000000
#
# Coordination Sequence:
#
# PCOD9318735 Si02
#       7
#     8   8   8   8   8   4   8
#     4  11  19  36  55  84 114 157 204 234 289 348
#     4  11  20  34  61  78 111 160 202 247 291 357
#     4  11  24  34  53  84 124 158 201 248 293 352
#     4  10  21  32  55  79 110 154 204 240 282 339
#     4  11  22  41  56  83 107 154 210 254 306 352
#     4  10  26  38  58  80 110 152 200 266 310 348
#     4  11  24  37  58  77 115 157 201 245 298 347
#
# _framework density 18.456075999999999
#
# number of rings (size 3 to 8) (size 9 to 14) (size 15 to 20)
#    0.000    1.231    4.615    1.385    6.462    3.077 
#    0.000    0.000    0.000    0.000    0.000    0.000 
#    0.000    0.000   73.231    0.000    0.000    0.000 
#
# Total GULP energy -144806.259062 kJ/mol
# GULP energy per Si atom -5569.471502 kJ/mol
# Density = 1.841407 g / cm^3
# Si number density = 18.456076 Si / 1000 Ang^3
#
#
#
# Elastic Constant Matrix: (Units=GPa)
#
#
# Indices 1 2 3 4 5 6 
#
# 1 45.6165 16.8170 17.5620 0.0000 0.0000 0.0000
# 2 16.8170 111.5597 35.6590 0.0000 0.0000 0.0000
# 3 17.5620 35.6590 82.4256 0.0000 0.0000 0.0000
# 4 0.0000 0.0000 0.0000 16.8405 0.0000 0.0000
# 5 0.0000 0.0000 0.0000 0.0000 25.9706 0.0000
# 6 0.0000 0.0000 0.0000 0.0000 0.0000 -11.0794
#
#
#
# Elastic Compliance Matrix: (Units=1/GPa)
#
#
# Indices 1 2 3 4 5 6 
#
# 1 0.024396 -0.002340 -0.004186 0.000000 0.000000 0.000000
# 2 -0.002340 0.010627 -0.004099 0.000000 0.000000 0.000000
# 3 -0.004186 -0.004099 0.014797 0.000000 0.000000 0.000000
# 4 0.000000 0.000000 0.000000 0.059381 0.000000 0.000000
# 5 0.000000 0.000000 0.000000 0.000000 0.038505 0.000000
# 6 0.000000 0.000000 0.000000 0.000000 0.000000 -0.090257
#
#
# Mechanical properties :
#
#
# Convention : Reuss Voigt Hill
#
# Bulk Modulus (GPa) = 35.00000 42.18642 38.59321
# Shear Modulus (GPa) = 56.67630 17.65059 37.16345
#
# Velocity S-wave (km/s) = 5.54756 3.09586 4.49220
# Velocity P-wave (km/s) = 7.74848 5.97382 6.91829
#
# Compressibility (1/GPa) = 0.02857142
#
# Stress axis : x y z
#
# Youngs Moduli (GPa) = 40.99052 94.10313 67.58028
#
# Poissons Ratio (x) = 0.22016 0.28287
# Poissons Ratio (y) = 0.09590 0.27700
# Poissons Ratio (z) = 0.17158 0.38571
#
# Static dielectric constant tensor:
#      x y z
#    x 1.705310 0.000000 0.000000 
#    y 0.000000 1.676450 0.000000 
#    z 0.000000 0.000000 1.727000 
# 
# From -- ./inp_files/4297.got.cif
#   From: 2010.05.17/outbox.cif.g08.bks.cpg/sg20_3_cif.got.tgz:4297.got - 2010.06.03 22:52:26.
