data_PCOD9318899
_publ_section_title
;
Structure prediction by ZEFSAII (Michael W. Deem and Ramdas Pophale) SiO2 
 PCOD9318899
Probable space group: C 2 2 21
;
_chemical_formula_sum "Si O2"
_cell_formula_units_Z 48
_cell_length_a 11.110989
_cell_length_b 7.689340
_cell_length_c 21.793737
_cell_angle_alpha 90.000000
_cell_angle_beta 90.000000
_cell_angle_gamma 90.000000
_cell_volume 1861.973466
_symmetry_space_group_name_H-M "C 2 2 21"
_symmetry_group_IT_number 20
_symmetry_cell_setting 'orthorhombic'
loop_
_space_group_symop_operation_xyz
x,y,z
-x,-y,1/2+z
x,-y,-z
-x,y,1/2-z
1/2+x,1/2+y,z
1/2-x,1/2-y,1/2+z
1/2+x,1/2-y,-z
1/2-x,1/2+y,1/2-z
loop_
_atom_site_type_symbol
_atom_site_label
_atom_site_fract_x
_atom_site_fract_y
_atom_site_fract_z
Si Si1 0.052875 0.482790 0.130968
Si Si2 0.476294 0.197411 0.026728
Si Si3 0.794902 0.007580 0.344735
Si Si4 0.456944 0.341695 0.818673
Si Si5 0.213849 0.361928 0.777777
Si Si6 0.286955 0.259510 0.546737
O O1 0.953788 0.332626 0.140355
O O2 0.102252 0.533998 0.197018
O O3 0.160859 0.391938 0.091878
O O4 0.007672 0.654019 0.097110
O O5 0.344688 0.282995 0.018579
O O6 0.596701 0.281851 0.997436
O O7 0.469368 0.000000 0.000000
O O8 0.937039 0.046211 0.346047
O O9 0.731023 0.134626 0.294788
O O10 0.759421 0.068272 0.412570
O O11 0.783957 0.824130 0.310908
O O12 0.500000 0.295001 0.750000
O O13 0.334708 0.442100 0.807732
#
# Coordination Sequence:
#
# PCOD9318899 Si02
#       6
#     8   8   8   8   8   8
#     4  10  22  39  62  91 125 165 210 261 319 380
#     4  10  23  42  64  92 127 167 216 270 320 373
#     4  10  21  37  63  92 124 165 209 255 316 383
#     4   9  19  36  56  85 123 160 201 253 308 375
#     4  11  21  39  63  93 130 166 202 256 320 383
#     4  10  22  43  66  93 128 171 218 267 319 376
#
# _framework density 25.779101000000001
#
# number of rings (size 3 to 8) (size 9 to 14) (size 15 to 20)
#    0.000    2.000    0.000    4.000    0.000    6.667 
#    0.000   16.667    0.000    0.000    0.000    0.000 
#    0.000    0.000    0.000    0.000    0.000    0.000 
#
# Total GULP energy -134040.462544 kJ/mol
# GULP energy per Si atom -5585.019273 kJ/mol
# Density = 2.572043 g / cm^3
# Si number density = 25.779101 Si / 1000 Ang^3
#
#
#
# Elastic Constant Matrix: (Units=GPa)
#
#
# Indices 1 2 3 4 5 6 
#
# 1 143.7142 22.9186 49.0322 0.0000 0.0000 0.0000
# 2 22.9186 71.6792 1.1904 0.0000 0.0000 0.0000
# 3 49.0322 1.1904 47.1349 0.0000 0.0000 0.0000
# 4 0.0000 0.0000 0.0000 26.3050 0.0000 0.0000
# 5 0.0000 0.0000 0.0000 0.0000 46.2181 0.0000
# 6 0.0000 0.0000 0.0000 0.0000 0.0000 21.6178
#
#
#
# Elastic Compliance Matrix: (Units=1/GPa)
#
#
# Indices 1 2 3 4 5 6 
#
# 1 0.011608 -0.003512 -0.011986 0.000000 0.000000 0.000000
# 2 -0.003512 0.015020 0.003274 0.000000 0.000000 0.000000
# 3 -0.011986 0.003274 0.033602 0.000000 0.000000 0.000000
# 4 0.000000 0.000000 0.000000 0.038016 0.000000 0.000000
# 5 0.000000 0.000000 0.000000 0.000000 0.021637 0.000000
# 6 0.000000 0.000000 0.000000 0.000000 0.000000 0.046258
#
#
# Mechanical properties :
#
#
# Convention : Reuss Voigt Hill
#
# Bulk Modulus (GPa) = 27.94799 45.42342 36.68570
# Shear Modulus (GPa) = 24.68948 31.45401 28.07174
#
# Velocity S-wave (km/s) = 3.09808 3.49683 3.30348
# Velocity P-wave (km/s) = 4.86440 5.82772 5.36771
#
# Compressibility (1/GPa) = 0.03578074
#
# Stress axis : x y z
#
# Youngs Moduli (GPa) = 86.14817 66.57912 29.76022
#
# Poissons Ratio (x) = 0.23385 0.35672
# Poissons Ratio (y) = 0.30259 -0.09745
# Poissons Ratio (z) = 1.03261 -0.21801
#
# Static dielectric constant tensor:
#      x y z
#    x 2.077080 0.000000 0.000000 
#    y 0.000000 2.054830 0.000000 
#    z 0.000000 0.000000 2.042570 
# 
# From -- ./inp_files/29084.got.cif
#   From: 2010.05.17/outbox.cif.g08.bks.cpg/sg20_15_cif.got.tgz:29084.got - 2010.06.03 22:52:26.
