data_PCOD9318169
_publ_section_title
;
Structure prediction by ZEFSAII (Michael W. Deem and Ramdas Pophale) SiO2 
 PCOD9318169
Probable space group: C 2 2 21
;
_chemical_formula_sum "Si O2"
_cell_formula_units_Z 32
_cell_length_a 10.207657
_cell_length_b 10.060503
_cell_length_c 11.493261
_cell_angle_alpha 90.000000
_cell_angle_beta 90.000000
_cell_angle_gamma 90.000000
_cell_volume 1180.290829
_symmetry_space_group_name_H-M "C 2 2 21"
_symmetry_group_IT_number 20
_symmetry_cell_setting 'orthorhombic'
loop_
_space_group_symop_operation_xyz
x,y,z
-x,-y,1/2+z
x,-y,-z
-x,y,1/2-z
1/2+x,1/2+y,z
1/2-x,1/2-y,1/2+z
1/2+x,1/2-y,-z
1/2-x,1/2+y,1/2-z
loop_
_atom_site_type_symbol
_atom_site_label
_atom_site_fract_x
_atom_site_fract_y
_atom_site_fract_z
Si Si1 0.500000 0.053176 0.750000
Si Si2 0.208164 0.791217 0.120398
Si Si3 0.021856 0.713782 0.521225
Si Si4 0.777734 0.041158 0.240058
Si Si5 0.098317 0.000000 0.500000
O O1 0.474719 0.136845 0.633938
O O2 0.371569 0.972177 0.777861
O O3 0.320094 0.813068 0.020515
O O4 0.288475 0.700001 0.215268
O O5 0.159299 0.931128 0.173129
O O6 0.087126 0.699476 0.078790
O O7 0.015048 0.872398 0.533015
O O8 0.813825 0.979585 0.114063
#
# Coordination Sequence:
#
# PCOD9318169 Si02
#       5
#     4   8   8   8   4
#     4  10  20  38  62  94 134 174 224 286 342 404
#     4  10  23  45  71 100 136 181 230 284 344 411
#     4  10  22  40  66  98 136 178 227 282 344 409
#     4  10  22  41  67  97 135 178 228 282 343 409
#     4  10  22  40  62  94 136 180 226 282 344 414
#
# _framework density 27.11196
#
# number of rings (size 3 to 8) (size 9 to 14) (size 15 to 20)
#    0.000    2.000    0.000    3.000    0.000    9.000 
#    0.000   10.000    0.000    9.000    0.000    0.000 
#    0.000    0.000    0.000    0.000    0.000    0.000 
#
# Total GULP energy -89231.591906 kJ/mol
# GULP energy per Si atom -5576.974494 kJ/mol
# Density = 2.705025 g / cm^3
# Si number density = 27.111960 Si / 1000 Ang^3
#
#
#
# Elastic Constant Matrix: (Units=GPa)
#
#
# Indices 1 2 3 4 5 6 
#
# 1 75.1420 10.8159 41.9032 0.0000 0.0000 0.0000
# 2 10.8159 100.8503 35.1400 0.0000 0.0000 0.0000
# 3 41.9032 35.1400 93.6354 0.0000 0.0000 0.0000
# 4 0.0000 0.0000 0.0000 53.9779 0.0000 0.0000
# 5 0.0000 0.0000 0.0000 0.0000 35.1852 0.0000
# 6 0.0000 0.0000 0.0000 0.0000 0.0000 38.0634
#
#
#
# Elastic Compliance Matrix: (Units=1/GPa)
#
#
# Indices 1 2 3 4 5 6 
#
# 1 0.017821 0.000998 -0.008350 0.000000 0.000000 0.000000
# 2 0.000998 0.011463 -0.004749 0.000000 0.000000 0.000000
# 3 -0.008350 -0.004749 0.016198 0.000000 0.000000 0.000000
# 4 0.000000 0.000000 0.000000 0.018526 0.000000 0.000000
# 5 0.000000 0.000000 0.000000 0.000000 0.028421 0.000000
# 6 0.000000 0.000000 0.000000 0.000000 0.000000 0.026272
#
#
# Mechanical properties :
#
#
# Convention : Reuss Voigt Hill
#
# Bulk Modulus (GPa) = 46.98805 49.48288 48.23546
# Shear Modulus (GPa) = 33.33432 37.56321 35.44877
#
# Velocity S-wave (km/s) = 3.51024 3.72625 3.61985
# Velocity P-wave (km/s) = 5.81358 6.06664 5.94146
#
# Compressibility (1/GPa) = 0.02128201
#
# Stress axis : x y z
#
# Youngs Moduli (GPa) = 56.11477 87.23535 61.73461
#
# Poissons Ratio (x) = -0.08707 0.51546
# Poissons Ratio (y) = -0.05601 0.29316
# Poissons Ratio (z) = 0.46853 0.41425
#
# Static dielectric constant tensor:
#      x y z
#    x 2.186090 0.000000 0.000000 
#    y 0.000000 2.119210 0.000000 
#    z 0.000000 0.000000 2.274120 
# 
# From -- ./inp_files/13619.got.cif
#   From: 2010.05.17/outbox.cif.g08.bks.cpg/sg20_7_cif.got.tgz:13619.got - 2010.06.03 22:52:26.
