data_PCOD9318287
_publ_section_title
;
Structure prediction by ZEFSAII (Michael W. Deem and Ramdas Pophale) SiO2 
 PCOD9318287
Probable space group: C 2 2 21
;
_chemical_formula_sum "Si O2"
_cell_formula_units_Z 40
_cell_length_a 9.104561
_cell_length_b 8.382418
_cell_length_c 23.506474
_cell_angle_alpha 90.000000
_cell_angle_beta 90.000000
_cell_angle_gamma 90.000000
_cell_volume 1793.972630
_symmetry_space_group_name_H-M "C 2 2 21"
_symmetry_group_IT_number 20
_symmetry_cell_setting 'orthorhombic'
loop_
_space_group_symop_operation_xyz
x,y,z
-x,-y,1/2+z
x,-y,-z
-x,y,1/2-z
1/2+x,1/2+y,z
1/2-x,1/2-y,1/2+z
1/2+x,1/2-y,-z
1/2-x,1/2+y,1/2-z
loop_
_atom_site_type_symbol
_atom_site_label
_atom_site_fract_x
_atom_site_fract_y
_atom_site_fract_z
Si Si1 0.327681 0.167931 0.237429
Si Si2 0.267275 0.664808 0.533555
Si Si3 0.265165 0.034288 0.662385
Si Si4 0.607105 0.683339 0.564251
Si Si5 0.604183 0.982824 0.367908
O O1 0.500000 0.199606 0.250000
O O2 0.262055 0.315590 0.203744
O O3 0.252963 0.118136 0.296471
O O4 0.326304 0.017794 0.193701
O O5 0.238458 0.500000 0.500000
O O6 0.439373 0.672821 0.545382
O O7 0.208396 0.801149 0.491510
O O8 0.181284 0.648237 0.592878
O O9 0.157451 0.048727 0.608713
O O10 0.431392 0.045868 0.639667
O O11 0.621498 0.847999 0.599567
#
# Coordination Sequence:
#
# PCOD9318287 Si02
#       5
#     8   8   8   8   8
#     4   9  20  38  57  84 120 155 196 246 297 350
#     4  10  21  38  59  86 118 152 193 240 292 352
#     4  10  20  39  62  85 118 159 198 244 297 347
#     4  10  21  37  59  86 118 153 195 244 293 351
#     4   9  20  38  57  81 117 155 193 242 295 348
#
# _framework density 22.296883999999999
#
# number of rings (size 3 to 8) (size 9 to 14) (size 15 to 20)
#    0.000    2.400    0.000    1.200    0.000    6.400 
#    0.000   23.000    0.000    0.000    0.000    0.000 
#    0.000    0.000    0.000    0.000    0.000    0.000 
#
# Total GULP energy -111787.032884 kJ/mol
# GULP energy per Si atom -5589.351644 kJ/mol
# Density = 2.224614 g / cm^3
# Si number density = 22.296884 Si / 1000 Ang^3
#
#
#
# Elastic Constant Matrix: (Units=GPa)
#
#
# Indices 1 2 3 4 5 6 
#
# 1 47.7852 -0.1503 42.5287 0.0000 0.0000 0.0000
# 2 -0.1503 48.7886 21.1828 0.0000 0.0000 0.0000
# 3 42.5287 21.1828 119.4929 0.0000 0.0000 0.0000
# 4 0.0000 0.0000 0.0000 34.0917 0.0000 0.0000
# 5 0.0000 0.0000 0.0000 0.0000 52.1618 0.0000
# 6 0.0000 0.0000 0.0000 0.0000 0.0000 22.3196
#
#
#
# Elastic Compliance Matrix: (Units=1/GPa)
#
#
# Indices 1 2 3 4 5 6 
#
# 1 0.031912 0.005449 -0.012324 0.000000 0.000000 0.000000
# 2 0.005449 0.023136 -0.006041 0.000000 0.000000 0.000000
# 3 -0.012324 -0.006041 0.013826 0.000000 0.000000 0.000000
# 4 0.000000 0.000000 0.000000 0.029333 0.000000 0.000000
# 5 0.000000 0.000000 0.000000 0.000000 0.019171 0.000000
# 6 0.000000 0.000000 0.000000 0.000000 0.000000 0.044804
#
#
# Mechanical properties :
#
#
# Convention : Reuss Voigt Hill
#
# Bulk Modulus (GPa) = 23.23255 38.13213 30.68234
# Shear Modulus (GPa) = 24.70835 31.88166 28.29500
#
# Velocity S-wave (km/s) = 3.33250 3.78547 3.56618
# Velocity P-wave (km/s) = 5.02491 6.02042 5.54505
#
# Compressibility (1/GPa) = 0.04304306
#
# Stress axis : x y z
#
# Youngs Moduli (GPa) = 31.33576 43.22245 72.32872
#
# Poissons Ratio (x) = -0.23552 0.89137
# Poissons Ratio (y) = -0.17075 0.43692
# Poissons Ratio (z) = 0.38618 0.26110
#
# Static dielectric constant tensor:
#      x y z
#    x 1.750840 0.000000 0.000000 
#    y 0.000000 1.828500 0.000000 
#    z 0.000000 0.000000 1.850340 
# 
# From -- ./inp_files/26481.got.cif
#   From: 2010.05.17/outbox.cif.g08.bks.cpg/sg20_14_cif.got.tgz:26481.got - 2010.06.03 22:52:26.
