data_PCOD9318266
_publ_section_title
;
Structure prediction by ZEFSAII (Michael W. Deem and Ramdas Pophale) SiO2 
 PCOD9318266
Probable space group: C 2 2 21
;
_chemical_formula_sum "Si O2"
_cell_formula_units_Z 48
_cell_length_a 16.317223
_cell_length_b 5.277959
_cell_length_c 25.070051
_cell_angle_alpha 90.000000
_cell_angle_beta 90.000000
_cell_angle_gamma 90.000000
_cell_volume 2159.073756
_symmetry_space_group_name_H-M "C 2 2 21"
_symmetry_group_IT_number 20
_symmetry_cell_setting 'orthorhombic'
loop_
_space_group_symop_operation_xyz
x,y,z
-x,-y,1/2+z
x,-y,-z
-x,y,1/2-z
1/2+x,1/2+y,z
1/2-x,1/2-y,1/2+z
1/2+x,1/2-y,-z
1/2-x,1/2+y,1/2-z
loop_
_atom_site_type_symbol
_atom_site_label
_atom_site_fract_x
_atom_site_fract_y
_atom_site_fract_z
Si Si1 0.635645 0.500000 0.500000
Si Si2 0.211426 0.866062 0.846422
Si Si3 0.396569 0.863206 0.653604
Si Si4 0.858381 0.069895 0.819129
Si Si5 0.500000 0.288274 0.250000
Si Si6 0.457463 0.178581 0.083617
Si Si7 0.675741 0.810555 0.404010
O O1 0.576011 0.697604 0.529959
O O2 0.690271 0.632177 0.454319
O O3 0.154706 0.619849 0.851837
O O4 0.285036 0.768108 0.807450
O O5 0.156829 0.111990 0.834739
O O6 0.262533 0.953537 0.899178
O O7 0.461186 0.878823 0.702548
O O8 0.448229 0.820335 0.599371
O O9 0.819876 0.822327 0.846120
O O10 0.924932 0.046819 0.773152
O O11 0.911661 0.172952 0.868727
O O12 0.417385 0.902264 0.088263
#
# Coordination Sequence:
#
# PCOD9318266 Si02
#       7
#     4   8   8   8   4   8   8
#     4  10  20  38  74  98 132 176 240 278 330 432
#     4  11  23  44  69  96 137 181 217 280 352 397
#     4  11  25  43  70  96 141 180 224 290 340 406
#     4   9  20  42  67  96 134 176 221 279 335 401
#     4  10  24  44  66 106 128 184 238 278 332 422
#     4   9  21  38  68  94 132 174 228 271 339 398
#     4  10  20  42  70 101 133 186 224 281 350 411
#
# _framework density 22.231753999999999
#
# number of rings (size 3 to 8) (size 9 to 14) (size 15 to 20)
#    0.000    2.000    1.667    0.500    7.000    2.000 
#    6.000    0.000   14.667    0.000    0.000    0.000 
#    0.000    0.000    0.000    0.000    0.000    0.000 
#
# Total GULP energy -133774.855922 kJ/mol
# GULP energy per Si atom -5573.952330 kJ/mol
# Density = 2.218115 g / cm^3
# Si number density = 22.231754 Si / 1000 Ang^3
#
#
#
# Elastic Constant Matrix: (Units=GPa)
#
#
# Indices 1 2 3 4 5 6 
#
# 1 123.0589 60.9154 35.1526 0.0000 0.0000 0.0000
# 2 60.9154 128.7313 30.6999 0.0000 0.0000 0.0000
# 3 35.1526 30.6999 79.3015 0.0000 0.0000 0.0000
# 4 0.0000 0.0000 0.0000 14.2387 0.0000 0.0000
# 5 0.0000 0.0000 0.0000 0.0000 13.7132 0.0000
# 6 0.0000 0.0000 0.0000 0.0000 0.0000 28.0086
#
#
#
# Elastic Compliance Matrix: (Units=1/GPa)
#
#
# Indices 1 2 3 4 5 6 
#
# 1 0.011322 -0.004584 -0.003244 0.000000 0.000000 0.000000
# 2 -0.004584 0.010414 -0.002000 0.000000 0.000000 0.000000
# 3 -0.003244 -0.002000 0.014822 0.000000 0.000000 0.000000
# 4 0.000000 0.000000 0.000000 0.070231 0.000000 0.000000
# 5 0.000000 0.000000 0.000000 0.000000 0.072922 0.000000
# 6 0.000000 0.000000 0.000000 0.000000 0.000000 0.035703
#
#
# Mechanical properties :
#
#
# Convention : Reuss Voigt Hill
#
# Bulk Modulus (GPa) = 59.16159 64.95863 62.06011
# Shear Modulus (GPa) = 20.77231 24.81369 22.79300
#
# Velocity S-wave (km/s) = 3.06004 3.34449 3.20542
# Velocity P-wave (km/s) = 6.25733 6.64804 6.45564
#
# Compressibility (1/GPa) = 0.01690286
#
# Stress axis : x y z
#
# Youngs Moduli (GPa) = 88.32379 96.02393 67.46578
#
# Poissons Ratio (x) = 0.44016 0.21887
# Poissons Ratio (y) = 0.40486 0.13491
# Poissons Ratio (z) = 0.28654 0.19202
#
# Static dielectric constant tensor:
#      x y z
#    x 1.856630 0.000000 0.000000 
#    y 0.000000 1.920410 0.000000 
#    z 0.000000 0.000000 1.873860 
# 
# From -- ./inp_files/30421.got.cif
#   From: 2010.05.17/outbox.cif.g08.bks.cpg/sg20_16_cif.got.tgz:30421.got - 2010.06.03 22:52:26.
