data_PCOD9318685
_publ_section_title
;
Structure prediction by ZEFSAII (Michael W. Deem and Ramdas Pophale) SiO2 
 PCOD9318685
Probable space group: C 2 2 21
;
_chemical_formula_sum "Si O2"
_cell_formula_units_Z 56
_cell_length_a 15.176979
_cell_length_b 8.868059
_cell_length_c 20.558317
_cell_angle_alpha 90.000000
_cell_angle_beta 90.000000
_cell_angle_gamma 90.000000
_cell_volume 2766.950982
_symmetry_space_group_name_H-M "C 2 2 21"
_symmetry_group_IT_number 20
_symmetry_cell_setting 'orthorhombic'
loop_
_space_group_symop_operation_xyz
x,y,z
-x,-y,1/2+z
x,-y,-z
-x,y,1/2-z
1/2+x,1/2+y,z
1/2-x,1/2-y,1/2+z
1/2+x,1/2-y,-z
1/2-x,1/2+y,1/2-z
loop_
_atom_site_type_symbol
_atom_site_label
_atom_site_fract_x
_atom_site_fract_y
_atom_site_fract_z
Si Si1 0.291086 0.563300 0.188210
Si Si2 0.091266 0.669361 0.518342
Si Si3 0.557523 0.646039 0.952071
Si Si4 0.270280 0.146658 0.453720
Si Si5 0.981597 0.975928 0.177554
Si Si6 0.999370 0.667953 0.655852
Si Si7 0.353162 0.876378 0.250737
O O1 0.239953 0.603401 0.122170
O O2 0.376577 0.466619 0.166578
O O3 0.323720 0.713237 0.224942
O O4 0.231478 0.476894 0.239762
O O5 0.116296 0.500000 0.500000
O O6 0.178744 0.767182 0.530031
O O7 0.029922 0.658712 0.582426
O O8 0.027635 0.752128 0.467806
O O9 0.646043 0.742890 0.961715
O O10 0.542184 0.594202 0.877965
O O11 0.557051 0.500000 0.000000
O O12 0.279179 0.000000 0.500000
O O13 0.000000 0.918839 0.250000
O O14 0.998890 0.155588 0.174981
O O15 0.072754 0.579635 0.698039
O O16 0.903709 0.620285 0.680103
#
# Coordination Sequence:
#
# PCOD9318685 Si02
#       7
#     8   8   8   8   8   8   8
#     4  11  23  42  67  97 137 175 226 280 341 410
#     4  12  25  47  71  99 136 183 237 283 344 411
#     4  12  26  45  73 102 138 182 230 287 346 415
#     4  12  27  47  69 101 138 182 234 288 343 409
#     4  11  21  43  70  97 135 182 225 278 347 412
#     4  10  20  44  69  94 135 180 221 279 344 403
#     4  10  22  41  68  98 132 177 220 280 343 405
#
# _framework density 20.238883999999999
#
# number of rings (size 3 to 8) (size 9 to 14) (size 15 to 20)
#    0.000    0.857    7.143    2.143    6.000    0.000 
#    5.143    0.000    0.000    0.000    0.000    0.000 
#    0.000    0.000    0.000    0.000    0.000    0.000 
#
# Total GULP energy -156330.347909 kJ/mol
# GULP energy per Si atom -5583.226711 kJ/mol
# Density = 2.019282 g / cm^3
# Si number density = 20.238884 Si / 1000 Ang^3
#
#
#
# Elastic Constant Matrix: (Units=GPa)
#
#
# Indices 1 2 3 4 5 6 
#
# 1 66.5212 31.9361 20.6485 0.0000 0.0000 0.0000
# 2 31.9361 71.2943 38.6541 0.0000 0.0000 0.0000
# 3 20.6485 38.6541 101.3639 0.0000 0.0000 0.0000
# 4 0.0000 0.0000 0.0000 14.4843 0.0000 0.0000
# 5 0.0000 0.0000 0.0000 0.0000 27.3706 0.0000
# 6 0.0000 0.0000 0.0000 0.0000 0.0000 24.2040
#
#
#
# Elastic Compliance Matrix: (Units=1/GPa)
#
#
# Indices 1 2 3 4 5 6 
#
# 1 0.019202 -0.008170 -0.000796 0.000000 0.000000 0.000000
# 2 -0.008170 0.021158 -0.006404 0.000000 0.000000 0.000000
# 3 -0.000796 -0.006404 0.012470 0.000000 0.000000 0.000000
# 4 0.000000 0.000000 0.000000 0.069040 0.000000 0.000000
# 5 0.000000 0.000000 0.000000 0.000000 0.036536 0.000000
# 6 0.000000 0.000000 0.000000 0.000000 0.000000 0.041316
#
#
# Mechanical properties :
#
#
# Convention : Reuss Voigt Hill
#
# Bulk Modulus (GPa) = 45.26985 46.85077 46.06031
# Shear Modulus (GPa) = 21.02380 23.07447 22.04914
#
# Velocity S-wave (km/s) = 3.22651 3.38021 3.30425
# Velocity P-wave (km/s) = 6.02468 6.19948 6.11271
#
# Compressibility (1/GPa) = 0.02208976
#
# Stress axis : x y z
#
# Youngs Moduli (GPa) = 52.07733 47.26284 80.19382
#
# Poissons Ratio (x) = 0.38613 0.06384
# Poissons Ratio (y) = 0.42547 0.51358
# Poissons Ratio (z) = 0.04146 0.30268
#
# Static dielectric constant tensor:
#      x y z
#    x 1.711730 0.000000 0.000000 
#    y 0.000000 1.706560 0.000000 
#    z 0.000000 0.000000 1.727830 
# 
# From -- ./inp_files/27557.got.cif
#   From: 2010.05.17/outbox.cif.g08.bks.cpg/sg20_14_cif.got.tgz:27557.got - 2010.06.03 22:52:26.
