data_PCOD9318439
_publ_section_title
;
Structure prediction by ZEFSAII (Michael W. Deem and Ramdas Pophale) SiO2 
 PCOD9318439
Probable space group: C 2 2 21
;
_chemical_formula_sum "Si O2"
_cell_formula_units_Z 48
_cell_length_a 16.332305
_cell_length_b 22.971531
_cell_length_c 6.140497
_cell_angle_alpha 90.000000
_cell_angle_beta 90.000000
_cell_angle_gamma 90.000000
_cell_volume 2303.779694
_symmetry_space_group_name_H-M "C 2 2 21"
_symmetry_group_IT_number 20
_symmetry_cell_setting 'orthorhombic'
loop_
_space_group_symop_operation_xyz
x,y,z
-x,-y,1/2+z
x,-y,-z
-x,y,1/2-z
1/2+x,1/2+y,z
1/2-x,1/2-y,1/2+z
1/2+x,1/2-y,-z
1/2-x,1/2+y,1/2-z
loop_
_atom_site_type_symbol
_atom_site_label
_atom_site_fract_x
_atom_site_fract_y
_atom_site_fract_z
Si Si1 0.431577 0.818643 0.407126
Si Si2 0.300514 0.000000 0.000000
Si Si3 0.247302 0.600643 0.215123
Si Si4 0.155261 0.815743 0.426015
Si Si5 0.717287 0.808676 0.420910
Si Si6 0.000000 0.763341 0.250000
Si Si7 0.394550 0.057379 0.604372
O O1 0.500000 0.792713 0.250000
O O2 0.348150 0.819484 0.271102
O O3 0.438717 0.779670 0.619574
O O4 0.451197 0.886717 0.436059
O O5 0.243387 0.955047 0.869603
O O6 0.358979 0.037960 0.838822
O O7 0.207195 0.650369 0.369333
O O8 0.320774 0.631760 0.086366
O O9 0.184530 0.575895 0.036888
O O10 0.195534 0.823634 0.187034
O O11 0.202015 0.758012 0.514534
O O12 0.059850 0.801665 0.398886
O O13 0.433162 0.000000 0.500000
#
# Coordination Sequence:
#
# PCOD9318439 Si02
#       7
#     8   4   8   8   8   4   8
#     4  12  24  41  58  89 133 182 219 270 330 392
#     4  10  20  40  66  94 130 162 234 278 320 390
#     4  11  21  38  66  93 129 167 225 280 327 397
#     4  12  23  38  63  93 134 174 221 270 335 403
#     4  12  22  40  64  92 129 179 221 272 332 400
#     4  12  28  40  60  96 142 176 216 272 340 414
#     4  10  22  39  61  90 127 170 223 275 324 380
#
# _framework density 20.835326999999999
#
# number of rings (size 3 to 8) (size 9 to 14) (size 15 to 20)
#    0.000    0.667    6.667    2.000    0.000    0.000 
#    3.000    0.000    0.000    0.000    0.000    0.000 
#  112.500    0.000    0.000    0.000    0.000    0.000 
#
# Total GULP energy -133963.054504 kJ/mol
# GULP energy per Si atom -5581.793938 kJ/mol
# Density = 2.078790 g / cm^3
# Si number density = 20.835327 Si / 1000 Ang^3
#
#
#
# Elastic Constant Matrix: (Units=GPa)
#
#
# Indices 1 2 3 4 5 6 
#
# 1 72.0462 26.6143 24.3987 0.0000 0.0000 0.0000
# 2 26.6143 86.0410 38.1074 0.0000 0.0000 0.0000
# 3 24.3987 38.1074 85.0154 0.0000 0.0000 0.0000
# 4 0.0000 0.0000 0.0000 58.0404 0.0000 0.0000
# 5 0.0000 0.0000 0.0000 0.0000 19.8863 0.0000
# 6 0.0000 0.0000 0.0000 0.0000 0.0000 22.8158
#
#
#
# Elastic Compliance Matrix: (Units=1/GPa)
#
#
# Indices 1 2 3 4 5 6 
#
# 1 0.016266 -0.003698 -0.003010 0.000000 0.000000 0.000000
# 2 -0.003698 0.015342 -0.005816 0.000000 0.000000 0.000000
# 3 -0.003010 -0.005816 0.015233 0.000000 0.000000 0.000000
# 4 0.000000 0.000000 0.000000 0.017229 0.000000 0.000000
# 5 0.000000 0.000000 0.000000 0.000000 0.050286 0.000000
# 6 0.000000 0.000000 0.000000 0.000000 0.000000 0.043829
#
#
# Mechanical properties :
#
#
# Convention : Reuss Voigt Hill
#
# Bulk Modulus (GPa) = 45.88684 46.81594 46.35139
# Shear Modulus (GPa) = 26.24702 30.41397 28.33050
#
# Velocity S-wave (km/s) = 3.55313 3.82479 3.69146
# Velocity P-wave (km/s) = 6.23733 6.48256 6.36113
#
# Compressibility (1/GPa) = 0.02179274
#
# Stress axis : x y z
#
# Youngs Moduli (GPa) = 61.47963 65.18083 65.64544
#
# Poissons Ratio (x) = 0.24103 0.19763
# Poissons Ratio (y) = 0.22735 0.38177
# Poissons Ratio (z) = 0.18508 0.37907
#
# Static dielectric constant tensor:
#      x y z
#    x 1.774570 0.000000 0.000000 
#    y 0.000000 1.808790 0.000000 
#    z 0.000000 0.000000 1.862410 
# 
# From -- ./inp_files/2750.got.cif
#   From: 2010.05.17/outbox.cif.g08.bks.cpg/sg20_2_cif.got.tgz:2750.got - 2010.06.03 22:52:26.
