data_PCOD9318915
_publ_section_title
;
Structure prediction by ZEFSAII (Michael W. Deem and Ramdas Pophale) SiO2 
 PCOD9318915
Probable space group: C 2 2 21
;
_chemical_formula_sum "Si O2"
_cell_formula_units_Z 28
_cell_length_a 7.696396
_cell_length_b 11.653096
_cell_length_c 11.765621
_cell_angle_alpha 90.000000
_cell_angle_beta 90.000000
_cell_angle_gamma 90.000000
_cell_volume 1055.221385
_symmetry_space_group_name_H-M "C 2 2 21"
_symmetry_group_IT_number 20
_symmetry_cell_setting 'orthorhombic'
loop_
_space_group_symop_operation_xyz
x,y,z
-x,-y,1/2+z
x,-y,-z
-x,y,1/2-z
1/2+x,1/2+y,z
1/2-x,1/2-y,1/2+z
1/2+x,1/2-y,-z
1/2-x,1/2+y,1/2-z
loop_
_atom_site_type_symbol
_atom_site_label
_atom_site_fract_x
_atom_site_fract_y
_atom_site_fract_z
Si Si1 0.794340 0.957055 0.330515
Si Si2 0.500000 0.333931 0.750000
Si Si3 0.998358 0.346169 0.043521
Si Si4 0.868104 0.841599 0.099788
O O1 0.615708 0.943767 0.396668
O O2 0.802409 0.865092 0.227550
O O3 0.955766 0.915433 0.408761
O O4 0.841987 0.077515 0.273826
O O5 0.513236 0.257124 0.637413
O O6 0.199650 0.373668 0.026416
O O7 0.916814 0.287550 0.933144
#
# Coordination Sequence:
#
# PCOD9318915 Si02
#       4
#     8   4   8   8
#     4  10  23  42  60  98 128 161 226 257 308 397
#     4  10  24  40  72  88 128 176 202 270 320 374
#     4  12  20  42  68  91 131 170 209 267 325 364
#     4  10  21  37  67  91 127 171 206 269 316 378
#
# _framework density 26.534717000000001
#
# number of rings (size 3 to 8) (size 9 to 14) (size 15 to 20)
#    0.000    1.714    5.714    0.000    0.000    4.571 
#    0.000   11.429   12.571    0.000    0.000    0.000 
#    0.000    0.000    0.000    0.000    0.000    0.000 
#
# Total GULP energy -78382.202100 kJ/mol
# GULP energy per Si atom -5598.728721 kJ/mol
# Density = 2.647432 g / cm^3
# Si number density = 26.534717 Si / 1000 Ang^3
#
#
#
# Elastic Constant Matrix: (Units=GPa)
#
#
# Indices 1 2 3 4 5 6 
#
# 1 147.5083 6.6384 -13.2235 0.0000 0.0000 0.0000
# 2 6.6384 125.8467 48.1158 0.0000 0.0000 0.0000
# 3 -13.2235 48.1158 86.5959 0.0000 0.0000 0.0000
# 4 0.0000 0.0000 0.0000 74.9559 0.0000 0.0000
# 5 0.0000 0.0000 0.0000 0.0000 36.9296 0.0000
# 6 0.0000 0.0000 0.0000 0.0000 0.0000 20.8876
#
#
#
# Elastic Compliance Matrix: (Units=1/GPa)
#
#
# Indices 1 2 3 4 5 6 
#
# 1 0.006968 -0.000983 0.001610 0.000000 0.000000 0.000000
# 2 -0.000983 0.010228 -0.005833 0.000000 0.000000 0.000000
# 3 0.001610 -0.005833 0.015035 0.000000 0.000000 0.000000
# 4 0.000000 0.000000 0.000000 0.013341 0.000000 0.000000
# 5 0.000000 0.000000 0.000000 0.000000 0.027079 0.000000
# 6 0.000000 0.000000 0.000000 0.000000 0.000000 0.047875
#
#
# Mechanical properties :
#
#
# Convention : Reuss Voigt Hill
#
# Bulk Modulus (GPa) = 45.83224 49.22359 47.52792
# Shear Modulus (GPa) = 36.17640 47.78264 41.97952
#
# Velocity S-wave (km/s) = 3.69638 4.24814 3.98183
# Velocity P-wave (km/s) = 5.96051 6.53094 6.25223
#
# Compressibility (1/GPa) = 0.02181870
#
# Stress axis : x y z
#
# Youngs Moduli (GPa) = 143.51543 97.76733 66.51131
#
# Poissons Ratio (x) = 0.09613 -0.10711
# Poissons Ratio (y) = 0.14111 0.38799
# Poissons Ratio (z) = -0.23111 0.57032
#
# Static dielectric constant tensor:
#      x y z
#    x 2.067200 0.000000 0.000000 
#    y 0.000000 2.112100 0.000000 
#    z 0.000000 0.000000 2.052170 
# 
# From -- ./inp_files/18109.got.cif
#   From: 2010.05.17/outbox.cif.g08.bks.cpg/sg20_10_cif.got.tgz:18109.got - 2010.06.03 22:52:26.
