data_PCOD9318327
_publ_section_title
;
Structure prediction by ZEFSAII (Michael W. Deem and Ramdas Pophale) SiO2 
 PCOD9318327
Probable space group: C 2 2 21
;
_chemical_formula_sum "Si O2"
_cell_formula_units_Z 64
_cell_length_a 22.475486
_cell_length_b 9.307863
_cell_length_c 14.423201
_cell_angle_alpha 90.000000
_cell_angle_beta 90.000000
_cell_angle_gamma 90.000000
_cell_volume 3017.315542
_symmetry_space_group_name_H-M "C 2 2 21"
_symmetry_group_IT_number 20
_symmetry_cell_setting 'orthorhombic'
loop_
_space_group_symop_operation_xyz
x,y,z
-x,-y,1/2+z
x,-y,-z
-x,y,1/2-z
1/2+x,1/2+y,z
1/2-x,1/2-y,1/2+z
1/2+x,1/2-y,-z
1/2-x,1/2+y,1/2-z
loop_
_atom_site_type_symbol
_atom_site_label
_atom_site_fract_x
_atom_site_fract_y
_atom_site_fract_z
Si Si1 0.946336 0.240344 0.356270
Si Si2 0.229090 0.093933 0.210612
Si Si3 0.336289 0.667573 0.476839
Si Si4 0.439235 0.933151 0.096818
Si Si5 0.938706 0.298251 0.790172
Si Si6 0.528776 0.513823 0.609204
Si Si7 0.876591 0.795972 0.827087
Si Si8 0.821531 0.771921 0.313247
O O1 0.896300 0.237837 0.435641
O O2 0.912787 0.269250 0.260476
O O3 0.001326 0.346131 0.373023
O O4 0.974521 0.079758 0.349661
O O5 0.211073 0.157830 0.108854
O O6 0.186265 0.165959 0.287208
O O7 0.291772 0.145903 0.251401
O O8 0.211260 0.924921 0.208322
O O9 0.349407 0.500000 0.500000
O O10 0.318338 0.740644 0.574440
O O11 0.385824 0.817970 0.092061
O O12 0.414574 0.064473 0.156668
O O13 0.455578 0.000000 0.000000
O O14 0.963784 0.174572 0.857472
O O15 0.890706 0.231319 0.719525
O O16 0.000000 0.358396 0.750000
O O17 0.521853 0.500000 0.500000
O O18 0.589106 0.436536 0.640495
#
# Coordination Sequence:
#
# PCOD9318327 Si02
#       8
#     8   8   8   8   8   8   8   8
#     4  10  20  39  65  89 130 175 225 268 330 409
#     4  10  23  47  70  97 133 174 230 280 336 400
#     4   9  21  42  73 102 123 178 235 284 327 395
#     4  11  24  39  56  95 135 179 216 265 344 404
#     4  12  25  39  64 101 138 171 217 286 342 397
#     4  11  21  34  60  96 128 171 217 270 327 399
#     4  10  20  42  62  84 125 178 220 267 335 396
#     4  11  25  46  71 103 134 176 231 282 339 401
#
# _framework density 21.210908
#
# number of rings (size 3 to 8) (size 9 to 14) (size 15 to 20)
#    0.000    1.500    1.250    4.875    8.750    0.000 
#    4.500    0.625    0.000    0.000    0.000    0.000 
#    0.000    0.000    0.000    0.000    0.000    0.000 
#
# Total GULP energy -178508.519323 kJ/mol
# GULP energy per Si atom -5578.391229 kJ/mol
# Density = 2.116263 g / cm^3
# Si number density = 21.210908 Si / 1000 Ang^3
#
#
#
# Elastic Constant Matrix: (Units=GPa)
#
#
# Indices 1 2 3 4 5 6 
#
# 1 65.5243 12.7103 24.3514 0.0000 0.0000 0.0000
# 2 12.7103 69.7084 9.1577 0.0000 0.0000 0.0000
# 3 24.3514 9.1577 46.7815 0.0000 0.0000 0.0000
# 4 0.0000 0.0000 0.0000 34.3202 0.0000 0.0000
# 5 0.0000 0.0000 0.0000 0.0000 15.0307 0.0000
# 6 0.0000 0.0000 0.0000 0.0000 0.0000 13.2460
#
#
#
# Elastic Compliance Matrix: (Units=1/GPa)
#
#
# Indices 1 2 3 4 5 6 
#
# 1 0.019261 -0.002253 -0.009585 0.000000 0.000000 0.000000
# 2 -0.002253 0.014988 -0.001761 0.000000 0.000000 0.000000
# 3 -0.009585 -0.001761 0.026710 0.000000 0.000000 0.000000
# 4 0.000000 0.000000 0.000000 0.029137 0.000000 0.000000
# 5 0.000000 0.000000 0.000000 0.000000 0.066531 0.000000
# 6 0.000000 0.000000 0.000000 0.000000 0.000000 0.075495
#
#
# Mechanical properties :
#
#
# Convention : Reuss Voigt Hill
#
# Bulk Modulus (GPa) = 29.62041 30.49481 30.05761
# Shear Modulus (GPa) = 18.47938 21.57236 20.02587
#
# Velocity S-wave (km/s) = 2.95485 3.19257 3.07600
# Velocity P-wave (km/s) = 5.06325 5.29133 5.17854
#
# Compressibility (1/GPa) = 0.03376051
#
# Stress axis : x y z
#
# Youngs Moduli (GPa) = 51.91947 66.72180 37.43917
#
# Poissons Ratio (x) = 0.15031 0.35885
# Poissons Ratio (y) = 0.11696 0.06594
# Poissons Ratio (z) = 0.49764 0.11752
#
# Static dielectric constant tensor:
#      x y z
#    x 1.794420 0.000000 0.000000 
#    y 0.000000 1.766110 0.000000 
#    z 0.000000 0.000000 1.817810 
# 
# From -- ./inp_files/22030.got.cif
#   From: 2010.05.17/outbox.cif.g08.bks.cpg/sg20_12_cif.got.tgz:22030.got - 2010.06.03 22:52:26.
