data_PCOD9318068
_publ_section_title
;
Structure prediction by ZEFSAII (Michael W. Deem and Ramdas Pophale) SiO2 
 PCOD9318068
Probable space group: C 2 2 21
;
_chemical_formula_sum "Si O2"
_cell_formula_units_Z 60
_cell_length_a 9.814648
_cell_length_b 20.988357
_cell_length_c 15.299490
_cell_angle_alpha 90.000000
_cell_angle_beta 90.000000
_cell_angle_gamma 90.000000
_cell_volume 3151.592985
_symmetry_space_group_name_H-M "C 2 2 21"
_symmetry_group_IT_number 20
_symmetry_cell_setting 'orthorhombic'
loop_
_space_group_symop_operation_xyz
x,y,z
-x,-y,1/2+z
x,-y,-z
-x,y,1/2-z
1/2+x,1/2+y,z
1/2-x,1/2-y,1/2+z
1/2+x,1/2-y,-z
1/2-x,1/2+y,1/2-z
loop_
_atom_site_type_symbol
_atom_site_label
_atom_site_fract_x
_atom_site_fract_y
_atom_site_fract_z
Si Si1 0.158777 0.107239 0.274367
Si Si2 0.345369 0.643807 0.732850
Si Si3 0.523447 0.500000 0.000000
Si Si4 0.858519 0.751258 0.802675
Si Si5 0.673109 0.145237 0.578061
Si Si6 0.493117 0.969137 0.145353
Si Si7 0.300025 0.472256 0.133999
Si Si8 0.729529 0.928101 0.591770
O O1 0.189247 0.176378 0.313997
O O2 0.181934 0.043970 0.330239
O O3 0.244791 0.100934 0.186138
O O4 0.000000 0.106899 0.250000
O O5 0.500000 0.661305 0.750000
O O6 0.244939 0.703775 0.748663
O O7 0.313417 0.630182 0.630653
O O8 0.313646 0.580948 0.789835
O O9 0.418380 0.462228 0.062857
O O10 0.628204 0.541182 0.058468
O O11 0.866259 0.716856 0.896992
O O12 0.000000 0.751003 0.750000
O O13 0.684471 0.123564 0.479432
O O14 0.566070 0.100640 0.628309
O O15 0.500000 0.981298 0.250000
O O16 0.643285 0.970677 0.104758
O O17 0.386141 0.017965 0.102467
#
# Coordination Sequence:
#
# PCOD9318068 Si02
#       8
#     8   8   4   8   8   8   8   8
#     4  11  22  42  67  90 131 174 214 262 332 397
#     4  10  20  37  66  90 121 163 219 264 313 385
#     4  12  26  38  60  98 138 162 216 280 330 374
#     4   9  21  41  66  85 122 175 220 255 318 396
#     4  10  20  38  64  89 125 164 215 256 315 381
#     4  12  21  37  62  96 132 162 213 267 325 386
#     4  12  24  38  61  99 125 167 215 273 320 382
#     4  12  23  40  64  97 132 165 211 271 332 384
#
# _framework density 19.037990000000001
#
# number of rings (size 3 to 8) (size 9 to 14) (size 15 to 20)
#    0.800    0.267    5.333    2.400    1.867    0.000 
#    2.400    1.333    5.867    0.000    0.000    0.000 
#    0.000    0.000    0.000    0.000    0.000    0.000 
#
# Total GULP energy -167271.146645 kJ/mol
# GULP energy per Si atom -5575.704888 kJ/mol
# Density = 1.899466 g / cm^3
# Si number density = 19.037990 Si / 1000 Ang^3
#
#
#
# Elastic Constant Matrix: (Units=GPa)
#
#
# Indices 1 2 3 4 5 6 
#
# 1 112.7651 26.5598 9.6630 0.0000 0.0000 0.0000
# 2 26.5598 99.8657 -5.4513 0.0000 0.0000 0.0000
# 3 9.6630 -5.4513 33.1787 0.0000 0.0000 0.0000
# 4 0.0000 0.0000 0.0000 15.3297 0.0000 0.0000
# 5 0.0000 0.0000 0.0000 0.0000 28.1048 0.0000
# 6 0.0000 0.0000 0.0000 0.0000 0.0000 -10.0153
#
#
#
# Elastic Compliance Matrix: (Units=1/GPa)
#
#
# Indices 1 2 3 4 5 6 
#
# 1 0.009809 -0.002790 -0.003315 0.000000 0.000000 0.000000
# 2 -0.002790 0.010897 0.002603 0.000000 0.000000 0.000000
# 3 -0.003315 0.002603 0.031533 0.000000 0.000000 0.000000
# 4 0.000000 0.000000 0.000000 0.065233 0.000000 0.000000
# 5 0.000000 0.000000 0.000000 0.000000 0.035581 0.000000
# 6 0.000000 0.000000 0.000000 0.000000 0.000000 -0.099847
#
#
# Mechanical properties :
#
#
# Convention : Reuss Voigt Hill
#
# Bulk Modulus (GPa) = 22.10647 34.15027 28.12837
# Shear Modulus (GPa) = 66.41039 21.01968 43.71504
#
# Velocity S-wave (km/s) = 5.91260 3.32639 4.79707
# Velocity P-wave (km/s) = 7.63209 5.72102 6.74458
#
# Compressibility (1/GPa) = 0.04523562
#
# Stress axis : x y z
#
# Youngs Moduli (GPa) = 101.94559 91.76430 31.71284
#
# Poissons Ratio (x) = 0.25600 0.10513
# Poissons Ratio (y) = 0.28440 -0.08255
# Poissons Ratio (z) = 0.33797 -0.23886
#
# Static dielectric constant tensor:
#      x y z
#    x 1.670970 0.000000 0.000000 
#    y 0.000000 1.682910 0.000000 
#    z 0.000000 0.000000 1.699700 
# 
# From -- ./inp_files/19335.got.cif
#   From: 2010.05.17/outbox.cif.g08.bks.cpg/sg20_10_cif.got.tgz:19335.got - 2010.06.03 22:52:26.
