data_PCOD9318745
_publ_section_title
;
Structure prediction by ZEFSAII (Michael W. Deem and Ramdas Pophale) SiO2 
 PCOD9318745
Probable space group: C 2 2 21
;
_chemical_formula_sum "Si O2"
_cell_formula_units_Z 48
_cell_length_a 25.672346
_cell_length_b 11.069551
_cell_length_c 9.302984
_cell_angle_alpha 90.000000
_cell_angle_beta 90.000000
_cell_angle_gamma 90.000000
_cell_volume 2643.734490
_symmetry_space_group_name_H-M "C 2 2 21"
_symmetry_group_IT_number 20
_symmetry_cell_setting 'orthorhombic'
loop_
_space_group_symop_operation_xyz
x,y,z
-x,-y,1/2+z
x,-y,-z
-x,y,1/2-z
1/2+x,1/2+y,z
1/2-x,1/2-y,1/2+z
1/2+x,1/2-y,-z
1/2-x,1/2+y,1/2-z
loop_
_atom_site_type_symbol
_atom_site_label
_atom_site_fract_x
_atom_site_fract_y
_atom_site_fract_z
Si Si1 0.356604 0.237221 0.965770
Si Si2 0.762466 0.194220 0.493189
Si Si3 0.078403 0.500000 0.500000
Si Si4 0.156615 0.000000 0.500000
Si Si5 0.000000 0.523708 0.250000
Si Si6 0.661992 0.869573 0.156233
Si Si7 0.570942 0.000000 0.000000
Si Si8 0.738040 0.485111 0.241021
O O1 0.351938 0.208740 0.796217
O O2 0.387275 0.120649 0.028709
O O3 0.296810 0.237572 0.017715
O O4 0.375326 0.373773 0.996497
O O5 0.803768 0.295281 0.456466
O O6 0.770111 0.137917 0.650560
O O7 0.767853 0.090987 0.373693
O O8 0.043082 0.532167 0.639813
O O9 0.195549 0.999018 0.636331
O O10 0.963083 0.572188 0.379925
O O11 0.702217 0.975162 0.204870
O O12 0.609212 0.913548 0.086316
#
# Coordination Sequence:
#
# PCOD9318745 Si02
#       8
#     8   8   4   4   4   8   4   8
#     4  11  22  37  59  90 130 166 202 255 308 374
#     4  10  21  34  53  80 129 173 205 242 286 367
#     4  11  22  46  67  94 124 153 212 273 324 354
#     4  12  21  34  57  86 126 167 200 231 302 384
#     4  10  24  42  66  92 112 150 216 282 322 352
#     4  11  20  34  58  86 122 169 208 246 305 369
#     4  11  23  38  62  88 116 154 208 272 322 362
#     4  10  21  34  48  81 126 170 206 238 281 357
#
# _framework density 18.156134000000002
#
# number of rings (size 3 to 8) (size 9 to 14) (size 15 to 20)
#    0.000    1.333    5.000    2.500    0.000    1.333 
#    0.000    0.000    0.000    1.000    0.000    0.000 
#    0.000    0.000    0.000    0.000    0.000    0.000 
#
# Total GULP energy -133648.505420 kJ/mol
# GULP energy per Si atom -5568.687726 kJ/mol
# Density = 1.811481 g / cm^3
# Si number density = 18.156134 Si / 1000 Ang^3
#
#
#
# Elastic Constant Matrix: (Units=GPa)
#
#
# Indices 1 2 3 4 5 6 
#
# 1 74.1331 28.0259 29.0615 0.0000 0.0000 0.0000
# 2 28.0259 89.8010 19.1859 0.0000 0.0000 0.0000
# 3 29.0615 19.1859 93.3817 0.0000 0.0000 0.0000
# 4 0.0000 0.0000 0.0000 24.3782 0.0000 0.0000
# 5 0.0000 0.0000 0.0000 0.0000 38.0559 0.0000
# 6 0.0000 0.0000 0.0000 0.0000 0.0000 -1.1562
#
#
#
# Elastic Compliance Matrix: (Units=1/GPa)
#
#
# Indices 1 2 3 4 5 6 
#
# 1 0.016828 -0.004323 -0.004349 0.000000 0.000000 0.000000
# 2 -0.004323 0.012757 -0.001276 0.000000 0.000000 0.000000
# 3 -0.004349 -0.001276 0.012324 0.000000 0.000000 0.000000
# 4 0.000000 0.000000 0.000000 0.041020 0.000000 0.000000
# 5 0.000000 0.000000 0.000000 0.000000 0.026277 0.000000
# 6 0.000000 0.000000 0.000000 0.000000 0.000000 -0.864916
#
#
# Mechanical properties :
#
#
# Convention : Reuss Voigt Hill
#
# Bulk Modulus (GPa) = 45.42385 45.54026 45.48206
# Shear Modulus (GPa) = -6.86366 24.32510 8.73072
#
# Velocity S-wave (km/s) = -1.94642 3.66426 2.19525
# Velocity P-wave (km/s) = 4.47452 6.56045 5.61519
#
# Compressibility (1/GPa) = 0.02201487
#
# Stress axis : x y z
#
# Youngs Moduli (GPa) = 59.42341 78.38586 81.14031
#
# Poissons Ratio (x) = 0.33885 0.35288
# Poissons Ratio (y) = 0.25687 0.10352
# Poissons Ratio (z) = 0.25844 0.10000
#
# Static dielectric constant tensor:
#      x y z
#    x 1.624600 0.000000 0.000000 
#    y 0.000000 1.680550 0.000000 
#    z 0.000000 0.000000 1.660150 
# 
# From -- ./inp_files/7459.got.cif
#   From: 2010.05.17/outbox.cif.g08.bks.cpg/sg20_4_cif.got.tgz:7459.got - 2010.06.03 22:52:26.
