data_PCOD9318729
_publ_section_title
;
Structure prediction by ZEFSAII (Michael W. Deem and Ramdas Pophale) SiO2 
 PCOD9318729
Probable space group: C 2 2 21
;
_chemical_formula_sum "Si O2"
_cell_formula_units_Z 40
_cell_length_a 14.797297
_cell_length_b 12.802617
_cell_length_c 8.353377
_cell_angle_alpha 90.000000
_cell_angle_beta 90.000000
_cell_angle_gamma 90.000000
_cell_volume 1582.498206
_symmetry_space_group_name_H-M "C 2 2 21"
_symmetry_group_IT_number 20
_symmetry_cell_setting 'orthorhombic'
loop_
_space_group_symop_operation_xyz
x,y,z
-x,-y,1/2+z
x,-y,-z
-x,y,1/2-z
1/2+x,1/2+y,z
1/2-x,1/2-y,1/2+z
1/2+x,1/2-y,-z
1/2-x,1/2+y,1/2-z
loop_
_atom_site_type_symbol
_atom_site_label
_atom_site_fract_x
_atom_site_fract_y
_atom_site_fract_z
Si Si1 0.236024 0.244842 0.963691
Si Si2 0.500000 0.166997 0.750000
Si Si3 0.663131 0.058554 0.850387
Si Si4 0.310655 0.601823 0.267508
Si Si5 0.964916 0.222675 0.591147
Si Si6 0.000000 0.982729 0.250000
O O1 0.238881 0.142363 0.071624
O O2 0.310396 0.297620 0.851355
O O3 0.142064 0.222524 0.873229
O O4 0.211712 0.338979 0.082948
O O5 0.587482 0.094063 0.727959
O O6 0.482230 0.230666 0.584617
O O7 0.742245 0.983616 0.796737
O O8 0.409957 0.551381 0.274731
O O9 0.116210 0.500000 0.000000
O O10 0.004349 0.104567 0.606517
O O11 0.000000 0.281625 0.750000
#
# Coordination Sequence:
#
# PCOD9318729 Si02
#       6
#     8   4   8   8   8   4
#     4  10  24  51  73 110 162 202 271 326 410 494
#     4  10  20  51  85 120 162 218 271 332 405 512
#     4   9  22  49  76 112 159 210 272 331 406 491
#     4  11  25  53  77 115 164 213 270 345 409 488
#     4   9  23  51  81 121 159 209 265 338 408 479
#     4  10  26  53  81 118 164 210 279 348 403 490
#
# _framework density 25.276489000000002
#
# number of rings (size 3 to 8) (size 9 to 14) (size 15 to 20)
#    0.600    1.600    0.000    0.000    2.800    4.000 
#   59.400    0.000    4.400    0.000    0.000    0.000 
#    0.000    0.000    0.000    0.000    0.000    0.000 
#
# Total GULP energy -111697.065520 kJ/mol
# GULP energy per Si atom -5584.853276 kJ/mol
# Density = 2.521896 g / cm^3
# Si number density = 25.276489 Si / 1000 Ang^3
#
#
#
# Elastic Constant Matrix: (Units=GPa)
#
#
# Indices 1 2 3 4 5 6 
#
# 1 81.9453 47.6745 55.0645 0.0000 0.0000 0.0000
# 2 47.6745 113.1755 51.4035 0.0000 0.0000 0.0000
# 3 55.0645 51.4035 114.7698 0.0000 0.0000 0.0000
# 4 0.0000 0.0000 0.0000 45.4230 0.0000 0.0000
# 5 0.0000 0.0000 0.0000 0.0000 43.5898 0.0000
# 6 0.0000 0.0000 0.0000 0.0000 0.0000 37.7589
#
#
#
# Elastic Compliance Matrix: (Units=1/GPa)
#
#
# Indices 1 2 3 4 5 6 
#
# 1 0.020140 -0.005141 -0.007360 0.000000 0.000000 0.000000
# 2 -0.005141 0.012405 -0.003089 0.000000 0.000000 0.000000
# 3 -0.007360 -0.003089 0.013628 0.000000 0.000000 0.000000
# 4 0.000000 0.000000 0.000000 0.022015 0.000000 0.000000
# 5 0.000000 0.000000 0.000000 0.000000 0.022941 0.000000
# 6 0.000000 0.000000 0.000000 0.000000 0.000000 0.026484
#
#
# Mechanical properties :
#
#
# Convention : Reuss Voigt Hill
#
# Bulk Modulus (GPa) = 66.70357 68.68617 67.69487
# Shear Modulus (GPa) = 32.51165 35.73755 34.12460
#
# Velocity S-wave (km/s) = 3.59031 3.76422 3.67829
# Velocity P-wave (km/s) = 6.60560 6.79157 6.69923
#
# Compressibility (1/GPa) = 0.01499170
#
# Stress axis : x y z
#
# Youngs Moduli (GPa) = 49.65238 80.61571 73.37794
#
# Poissons Ratio (x) = 0.41443 0.54008
# Poissons Ratio (y) = 0.25526 0.22669
# Poissons Ratio (z) = 0.36546 0.24905
#
# Static dielectric constant tensor:
#      x y z
#    x 1.964580 0.000000 0.000000 
#    y 0.000000 2.018300 0.000000 
#    z 0.000000 0.000000 2.458690 
# 
# From -- ./inp_files/8138.got.cif
#   From: 2010.05.17/outbox.cif.g08.bks.cpg/sg20_5_cif.got.tgz:8138.got - 2010.06.03 22:52:26.
