data_PCOD9318228
_publ_section_title
;
Structure prediction by ZEFSAII (Michael W. Deem and Ramdas Pophale) SiO2 
 PCOD9318228
Probable space group: C 2 2 21
;
_chemical_formula_sum "Si O2"
_cell_formula_units_Z 48
_cell_length_a 11.852275
_cell_length_b 9.411497
_cell_length_c 16.699513
_cell_angle_alpha 90.000000
_cell_angle_beta 90.000000
_cell_angle_gamma 90.000000
_cell_volume 1862.791441
_symmetry_space_group_name_H-M "C 2 2 21"
_symmetry_group_IT_number 20
_symmetry_cell_setting 'orthorhombic'
loop_
_space_group_symop_operation_xyz
x,y,z
-x,-y,1/2+z
x,-y,-z
-x,y,1/2-z
1/2+x,1/2+y,z
1/2-x,1/2-y,1/2+z
1/2+x,1/2-y,-z
1/2-x,1/2+y,1/2-z
loop_
_atom_site_type_symbol
_atom_site_label
_atom_site_fract_x
_atom_site_fract_y
_atom_site_fract_z
Si Si1 0.001565 0.839564 0.995742
Si Si2 0.888308 0.625200 0.872245
Si Si3 0.306468 0.707821 0.285734
Si Si4 0.066852 0.580766 0.084593
Si Si5 0.771570 0.989854 0.171190
Si Si6 0.500000 0.457510 0.750000
Si Si7 0.220430 0.000000 0.000000
O O1 0.932847 0.747728 0.932493
O O2 0.013255 0.736435 0.073451
O O3 0.952142 0.000000 0.000000
O O4 0.134088 0.872719 0.980000
O O5 0.838318 0.703874 0.795274
O O6 0.993221 0.518655 0.856501
O O7 0.796316 0.539212 0.924238
O O8 0.232693 0.577777 0.252081
O O9 0.423501 0.636211 0.308817
O O10 0.261323 0.827247 0.342398
O O11 0.198730 0.576512 0.106874
O O12 0.054662 0.500000 0.000000
O O13 0.904353 0.977258 0.193314
#
# Coordination Sequence:
#
# PCOD9318228 Si02
#       7
#     8   8   8   8   8   4   4
#     4   9  21  38  64 100 137 174 222 277 339 403
#     4  11  20  41  69  97 142 181 227 276 352 395
#     4  10  22  42  70  95 133 181 225 280 330 404
#     4  10  20  41  71  98 137 176 224 276 343 413
#     4  10  22  45  68  98 134 177 227 278 337 401
#     4   8  22  40  68  90 132 166 224 272 338 372
#     4  10  20  38  66  90 142 180 212 286 338 392
#
# _framework density 25.767779999999998
#
# number of rings (size 3 to 8) (size 9 to 14) (size 15 to 20)
#    1.500    0.667    2.500    2.000    0.000    1.333 
#    3.000   10.833    0.000    0.000    0.000    0.000 
#    0.000    0.000    0.000    0.000    0.000    0.000 
#
# Total GULP energy -133788.387520 kJ/mol
# GULP energy per Si atom -5574.516147 kJ/mol
# Density = 2.570913 g / cm^3
# Si number density = 25.767780 Si / 1000 Ang^3
#
#
#
# Elastic Constant Matrix: (Units=GPa)
#
#
# Indices 1 2 3 4 5 6 
#
# 1 81.4077 26.8126 7.0054 0.0000 0.0000 0.0000
# 2 26.8126 136.0579 -0.5334 0.0000 0.0000 0.0000
# 3 7.0054 -0.5334 50.9016 0.0000 0.0000 0.0000
# 4 0.0000 0.0000 0.0000 25.1172 0.0000 0.0000
# 5 0.0000 0.0000 0.0000 0.0000 33.6233 0.0000
# 6 0.0000 0.0000 0.0000 0.0000 0.0000 40.8667
#
#
#
# Elastic Compliance Matrix: (Units=1/GPa)
#
#
# Indices 1 2 3 4 5 6 
#
# 1 0.013310 -0.002630 -0.001859 0.000000 0.000000 0.000000
# 2 -0.002630 0.007870 0.000444 0.000000 0.000000 0.000000
# 3 -0.001859 0.000444 0.019906 0.000000 0.000000 0.000000
# 4 0.000000 0.000000 0.000000 0.039813 0.000000 0.000000
# 5 0.000000 0.000000 0.000000 0.000000 0.029741 0.000000
# 6 0.000000 0.000000 0.000000 0.000000 0.000000 0.024470
#
#
# Mechanical properties :
#
#
# Convention : Reuss Voigt Hill
#
# Bulk Modulus (GPa) = 30.30676 37.21516 33.76096
# Shear Modulus (GPa) = 32.42545 35.59362 34.00953
#
# Velocity S-wave (km/s) = 3.55120 3.72065 3.63691
# Velocity P-wave (km/s) = 5.34806 5.73860 5.54677
#
# Compressibility (1/GPa) = 0.03299593
#
# Stress axis : x y z
#
# Youngs Moduli (GPa) = 75.13052 127.06638 50.23530
#
# Poissons Ratio (x) = 0.33422 0.09341
# Poissons Ratio (y) = 0.19762 -0.02233
# Poissons Ratio (z) = 0.13970 -0.05648
#
# Static dielectric constant tensor:
#      x y z
#    x 2.069960 0.000000 0.000000 
#    y 0.000000 2.102300 0.000000 
#    z 0.000000 0.000000 2.111220 
# 
# From -- ./inp_files/29256.got.cif
#   From: 2010.05.17/outbox.cif.g08.bks.cpg/sg20_15_cif.got.tgz:29256.got - 2010.06.03 22:52:26.
