data_PCOD9318427
_publ_section_title
;
Structure prediction by ZEFSAII (Michael W. Deem and Ramdas Pophale) SiO2 
 PCOD9318427
Probable space group: C 2 2 21
;
_chemical_formula_sum "Si O2"
_cell_formula_units_Z 56
_cell_length_a 30.986912
_cell_length_b 5.490293
_cell_length_c 12.859891
_cell_angle_alpha 90.000000
_cell_angle_beta 90.000000
_cell_angle_gamma 90.000000
_cell_volume 2187.817583
_symmetry_space_group_name_H-M "C 2 2 21"
_symmetry_group_IT_number 20
_symmetry_cell_setting 'orthorhombic'
loop_
_space_group_symop_operation_xyz
x,y,z
-x,-y,1/2+z
x,-y,-z
-x,y,1/2-z
1/2+x,1/2+y,z
1/2-x,1/2-y,1/2+z
1/2+x,1/2-y,-z
1/2-x,1/2+y,1/2-z
loop_
_atom_site_type_symbol
_atom_site_label
_atom_site_fract_x
_atom_site_fract_y
_atom_site_fract_z
Si Si1 0.459274 0.500000 0.500000
Si Si2 0.108673 0.073380 0.368294
Si Si3 0.226895 0.464150 0.317209
Si Si4 0.797518 0.053087 0.846915
Si Si5 0.975611 0.742739 0.141000
Si Si6 0.879216 0.102662 0.363327
Si Si7 0.172132 0.574763 0.104161
Si Si8 0.584460 0.000000 0.500000
O O1 0.490187 0.698969 0.551143
O O2 0.426771 0.570426 0.408767
O O3 0.151864 0.908715 0.362746
O O4 0.115968 0.186141 0.255280
O O5 0.109881 0.260755 0.464118
O O6 0.061789 0.948941 0.360394
O O7 0.213273 0.222100 0.376462
O O8 0.274886 0.457409 0.268868
O O9 0.196652 0.506074 0.213513
O O10 0.223561 0.701527 0.387023
O O11 0.000000 0.717688 0.250000
O O12 0.946501 0.523413 0.100253
O O13 0.860110 0.346198 0.412405
O O14 0.852306 0.843850 0.382444
O O15 0.200460 0.500000 0.000000
#
# Coordination Sequence:
#
# PCOD9318427 Si02
#       8
#     4   8   8   8   8   8   8   4
#     4  12  24  50  66 113 144 188 251 318 368 462
#     4  12  25  48  73 104 145 203 248 316 379 457
#     4  10  20  40  66 109 138 194 240 309 359 462
#     4  10  22  39  73  98 145 187 252 296 380 440
#     4  12  28  49  75 104 150 196 256 311 395 451
#     4  12  26  41  76 107 147 191 237 308 383 446
#     4  12  22  41  66 109 147 184 238 301 374 447
#     4  12  30  48  74 107 146 202 261 328 366 474
#
# _framework density 25.596281999999999
#
# number of rings (size 3 to 8) (size 9 to 14) (size 15 to 20)
#    0.000    0.571    7.143    0.000    4.000    2.857 
#    0.000    1.429    3.143    0.000    0.000    0.000 
#    0.000    0.000    0.000    0.000    0.000    0.000 
#
# Total GULP energy -155906.159346 kJ/mol
# GULP energy per Si atom -5568.077120 kJ/mol
# Density = 2.553802 g / cm^3
# Si number density = 25.596282 Si / 1000 Ang^3
#
#
#
# Elastic Constant Matrix: (Units=GPa)
#
#
# Indices 1 2 3 4 5 6 
#
# 1 122.6738 38.5471 31.3295 0.0000 0.0000 0.0000
# 2 38.5471 159.2767 14.0060 0.0000 0.0000 0.0000
# 3 31.3295 14.0060 126.2827 0.0000 0.0000 0.0000
# 4 0.0000 0.0000 0.0000 17.7049 0.0000 0.0000
# 5 0.0000 0.0000 0.0000 0.0000 12.7633 0.0000
# 6 0.0000 0.0000 0.0000 0.0000 0.0000 22.0548
#
#
#
# Elastic Compliance Matrix: (Units=1/GPa)
#
#
# Indices 1 2 3 4 5 6 
#
# 1 0.009337 -0.002076 -0.002086 0.000000 0.000000 0.000000
# 2 -0.002076 0.006802 -0.000239 0.000000 0.000000 0.000000
# 3 -0.002086 -0.000239 0.008463 0.000000 0.000000 0.000000
# 4 0.000000 0.000000 0.000000 0.056482 0.000000 0.000000
# 5 0.000000 0.000000 0.000000 0.000000 0.078350 0.000000
# 6 0.000000 0.000000 0.000000 0.000000 0.000000 0.045342
#
#
# Mechanical properties :
#
#
# Convention : Reuss Voigt Hill
#
# Bulk Modulus (GPa) = 63.29783 63.99982 63.64883
# Shear Modulus (GPa) = 22.84733 32.12795 27.48764
#
# Velocity S-wave (km/s) = 2.99089 3.54670 3.28058
# Velocity P-wave (km/s) = 6.05889 6.46760 6.26658
#
# Compressibility (1/GPa) = 0.01579833
#
# Stress axis : x y z
#
# Youngs Moduli (GPa) = 107.10231 147.01781 118.16380
#
# Poissons Ratio (x) = 0.30524 0.24650
# Poissons Ratio (y) = 0.22237 0.02828
# Poissons Ratio (z) = 0.22343 0.03518
#
# Static dielectric constant tensor:
#      x y z
#    x 2.008900 0.000000 0.000000 
#    y 0.000000 2.132480 0.000000 
#    z 0.000000 0.000000 2.503390 
# 
# From -- ./inp_files/22335.got.cif
#   From: 2010.05.17/outbox.cif.g08.bks.cpg/sg20_12_cif.got.tgz:22335.got - 2010.06.03 22:52:26.
