data_PCOD9318060
_publ_section_title
;
Structure prediction by ZEFSAII (Michael W. Deem and Ramdas Pophale) SiO2 
 PCOD9318060
Probable space group: C 2 2 21
;
_chemical_formula_sum "Si O2"
_cell_formula_units_Z 36
_cell_length_a 13.691178
_cell_length_b 15.083073
_cell_length_c 7.064538
_cell_angle_alpha 90.000000
_cell_angle_beta 90.000000
_cell_angle_gamma 90.000000
_cell_volume 1458.862683
_symmetry_space_group_name_H-M "C 2 2 21"
_symmetry_group_IT_number 20
_symmetry_cell_setting 'orthorhombic'
loop_
_space_group_symop_operation_xyz
x,y,z
-x,-y,1/2+z
x,-y,-z
-x,y,1/2-z
1/2+x,1/2+y,z
1/2-x,1/2-y,1/2+z
1/2+x,1/2-y,-z
1/2-x,1/2+y,1/2-z
loop_
_atom_site_type_symbol
_atom_site_label
_atom_site_fract_x
_atom_site_fract_y
_atom_site_fract_z
Si Si1 0.175988 0.326261 0.426645
Si Si2 0.874423 0.913561 0.369657
Si Si3 0.359396 0.500000 0.000000
Si Si4 0.284920 0.856982 0.641279
Si Si5 0.967667 0.273002 0.529087
O O1 0.258756 0.389246 0.332143
O O2 0.224103 0.231148 0.396464
O O3 0.181741 0.357879 0.643110
O O4 0.061163 0.302457 0.407078
O O5 0.920526 0.826791 0.476440
O O6 0.882996 0.000000 0.500000
O O7 0.912046 0.939516 0.157762
O O8 0.288359 0.435733 0.887730
O O9 0.380160 0.844348 0.510190
O O10 0.000000 0.275463 0.750000
#
# Coordination Sequence:
#
# PCOD9318060 Si02
#       5
#     8   8   4   8   8
#     4  10  20  43  66  93 136 185 227 282 343 426
#     4  11  23  44  70 101 135 180 227 286 351 403
#     4  12  22  40  68 100 138 178 224 290 342 410
#     4  10  20  37  65  92 133 179 224 281 346 405
#     4   9  20  41  66  96 133 178 230 275 337 423
#
# _framework density 24.676755
#
# number of rings (size 3 to 8) (size 9 to 14) (size 15 to 20)
#    0.000    1.778    2.222    4.000    0.000    0.000 
#   10.000   10.000    9.778    0.000    0.000    0.000 
#    0.000    0.000    0.000    0.000    0.000    0.000 
#
# Total GULP energy -100475.378215 kJ/mol
# GULP energy per Si atom -5581.965456 kJ/mol
# Density = 2.462059 g / cm^3
# Si number density = 24.676755 Si / 1000 Ang^3
#
#
#
# Elastic Constant Matrix: (Units=GPa)
#
#
# Indices 1 2 3 4 5 6 
#
# 1 145.6966 10.2660 37.9553 0.0000 0.0000 0.0000
# 2 10.2660 72.9899 19.4865 0.0000 0.0000 0.0000
# 3 37.9553 19.4865 60.2094 0.0000 0.0000 0.0000
# 4 0.0000 0.0000 0.0000 41.2673 0.0000 0.0000
# 5 0.0000 0.0000 0.0000 0.0000 42.6297 0.0000
# 6 0.0000 0.0000 0.0000 0.0000 0.0000 29.3026
#
#
#
# Elastic Compliance Matrix: (Units=1/GPa)
#
#
# Indices 1 2 3 4 5 6 
#
# 1 0.008216 0.000249 -0.005260 0.000000 0.000000 0.000000
# 2 0.000249 0.015004 -0.005013 0.000000 0.000000 0.000000
# 3 -0.005260 -0.005013 0.021547 0.000000 0.000000 0.000000
# 4 0.000000 0.000000 0.000000 0.024232 0.000000 0.000000
# 5 0.000000 0.000000 0.000000 0.000000 0.023458 0.000000
# 6 0.000000 0.000000 0.000000 0.000000 0.000000 0.034127
#
#
# Mechanical properties :
#
#
# Convention : Reuss Voigt Hill
#
# Bulk Modulus (GPa) = 40.45463 46.03462 43.24463
# Shear Modulus (GPa) = 32.28484 36.71911 34.50197
#
# Velocity S-wave (km/s) = 3.62098 3.86165 3.74325
# Velocity P-wave (km/s) = 5.82335 6.21117 6.02039
#
# Compressibility (1/GPa) = 0.02471905
#
# Stress axis : x y z
#
# Youngs Moduli (GPa) = 121.70887 66.64968 46.41046
#
# Poissons Ratio (x) = -0.01657 0.24412
# Poissons Ratio (y) = -0.03026 0.23264
# Poissons Ratio (z) = 0.64018 0.33409
#
# Static dielectric constant tensor:
#      x y z
#    x 2.085340 0.000000 0.000000 
#    y 0.000000 1.935580 0.000000 
#    z 0.000000 0.000000 2.089320 
# 
# From -- ./inp_files/8035.got.cif
#   From: 2010.05.17/outbox.cif.g08.bks.cpg/sg20_5_cif.got.tgz:8035.got - 2010.06.03 22:52:26.
