data_PCOD9318043
_publ_section_title
;
Structure prediction by ZEFSAII (Michael W. Deem and Ramdas Pophale) SiO2 
 PCOD9318043
Probable space group: C 2 2 21
;
_chemical_formula_sum "Si O2"
_cell_formula_units_Z 44
_cell_length_a 13.995697
_cell_length_b 24.274061
_cell_length_c 5.562305
_cell_angle_alpha 90.000000
_cell_angle_beta 90.000000
_cell_angle_gamma 90.000000
_cell_volume 1889.695242
_symmetry_space_group_name_H-M "C 2 2 21"
_symmetry_group_IT_number 20
_symmetry_cell_setting 'orthorhombic'
loop_
_space_group_symop_operation_xyz
x,y,z
-x,-y,1/2+z
x,-y,-z
-x,y,1/2-z
1/2+x,1/2+y,z
1/2-x,1/2-y,1/2+z
1/2+x,1/2-y,-z
1/2-x,1/2+y,1/2-z
loop_
_atom_site_type_symbol
_atom_site_label
_atom_site_fract_x
_atom_site_fract_y
_atom_site_fract_z
Si Si1 0.000000 0.465140 0.750000
Si Si2 0.500000 0.224181 0.250000
Si Si3 0.000000 0.937967 0.250000
Si Si4 0.806914 0.247037 0.751324
Si Si5 0.500000 0.290132 0.750000
Si Si6 0.134738 0.858952 0.495690
Si Si7 0.708578 0.058451 0.146527
Si Si8 0.335506 0.500000 0.500000
O O1 0.902603 0.432029 0.700793
O O2 0.015667 0.500000 0.500000
O O3 0.610801 0.205584 0.258953
O O4 0.495558 0.254743 0.508757
O O5 0.955564 0.898501 0.050508
O O6 0.909410 0.974811 0.312393
O O7 0.752977 0.249154 0.498762
O O8 0.853370 0.186103 0.786252
O O9 0.597390 0.325011 0.724147
O O10 0.231065 0.893819 0.520210
O O11 0.767854 0.045920 0.387936
O O12 0.712222 0.000000 0.000000
#
# Coordination Sequence:
#
# PCOD9318043 Si02
#       8
#     4   4   4   8   4   8   8   4
#     4  10  22  42  65  87 119 176 230 264 311 376
#     4  10  21  42  69  95 130 168 214 273 341 403
#     4  12  23  37  64 101 142 178 217 260 343 419
#     4  11  24  43  68  98 129 172 229 280 333 403
#     4  10  20  37  62  99 131 176 213 253 333 424
#     4  11  22  39  64  95 136 177 217 274 339 404
#     4  11  22  41  61  94 129 177 222 271 324 385
#     4  12  22  38  60 100 142 178 216 276 314 410
#
# _framework density 23.284179000000002
#
# number of rings (size 3 to 8) (size 9 to 14) (size 15 to 20)
#    0.000    1.091    2.727    6.545    0.000    1.455 
#    0.000    0.909    0.000    8.727    0.000    0.000 
#    0.000    0.000    0.000    0.000    0.000    0.000 
#
# Total GULP energy -122649.588104 kJ/mol
# GULP energy per Si atom -5574.981277 kJ/mol
# Density = 2.323118 g / cm^3
# Si number density = 23.284179 Si / 1000 Ang^3
#
#
#
# Elastic Constant Matrix: (Units=GPa)
#
#
# Indices 1 2 3 4 5 6 
#
# 1 155.0683 -5.8607 25.7482 0.0000 0.0000 0.0000
# 2 -5.8607 29.5573 7.9185 0.0000 0.0000 0.0000
# 3 25.7482 7.9185 119.7883 0.0000 0.0000 0.0000
# 4 0.0000 0.0000 0.0000 25.7477 0.0000 0.0000
# 5 0.0000 0.0000 0.0000 0.0000 53.4912 0.0000
# 6 0.0000 0.0000 0.0000 0.0000 0.0000 -47.9119
#
#
#
# Elastic Compliance Matrix: (Units=1/GPa)
#
#
# Indices 1 2 3 4 5 6 
#
# 1 0.006777 0.001765 -0.001573 0.000000 0.000000 0.000000
# 2 0.001765 0.034902 -0.002687 0.000000 0.000000 0.000000
# 3 -0.001573 -0.002687 0.008864 0.000000 0.000000 0.000000
# 4 0.000000 0.000000 0.000000 0.038838 0.000000 0.000000
# 5 0.000000 0.000000 0.000000 0.000000 0.018695 0.000000
# 6 0.000000 0.000000 0.000000 0.000000 0.000000 -0.020872
#
#
# Mechanical properties :
#
#
# Convention : Reuss Voigt Hill
#
# Bulk Modulus (GPa) = 21.95222 40.00289 30.97755
# Shear Modulus (GPa) = 46.56428 24.70591 35.63509
#
# Velocity S-wave (km/s) = 4.47679 3.26093 3.91633
# Velocity P-wave (km/s) = 6.01420 5.60319 5.81233
#
# Compressibility (1/GPa) = 0.04555347
#
# Stress axis : x y z
#
# Youngs Moduli (GPa) = 147.56377 28.65133 112.81788
#
# Poissons Ratio (x) = -0.05058 0.17750
# Poissons Ratio (y) = -0.26048 0.30310
# Poissons Ratio (z) = 0.23217 0.07698
#
# Static dielectric constant tensor:
#      x y z
#    x 1.837200 0.000000 0.000000 
#    y 0.000000 2.001470 0.000000 
#    z 0.000000 0.000000 1.965820 
# 
# From -- ./inp_files/2005.got.cif
#   From: 2010.05.17/outbox.cif.g08.bks.cpg/sg20_2_cif.got.tgz:2005.got - 2010.06.03 22:52:26.
