data_PCOD9318181
_publ_section_title
;
Structure prediction by ZEFSAII (Michael W. Deem and Ramdas Pophale) SiO2 
 PCOD9318181
Probable space group: C 2 2 21
;
_chemical_formula_sum "Si O2"
_cell_formula_units_Z 40
_cell_length_a 31.406400
_cell_length_b 7.623296
_cell_length_c 7.893810
_cell_angle_alpha 90.000000
_cell_angle_beta 90.000000
_cell_angle_gamma 90.000000
_cell_volume 1889.938228
_symmetry_space_group_name_H-M "C 2 2 21"
_symmetry_group_IT_number 20
_symmetry_cell_setting 'orthorhombic'
loop_
_space_group_symop_operation_xyz
x,y,z
-x,-y,1/2+z
x,-y,-z
-x,y,1/2-z
1/2+x,1/2+y,z
1/2-x,1/2-y,1/2+z
1/2+x,1/2-y,-z
1/2-x,1/2+y,1/2-z
loop_
_atom_site_type_symbol
_atom_site_label
_atom_site_fract_x
_atom_site_fract_y
_atom_site_fract_z
Si Si1 0.391016 0.222751 0.893809
Si Si2 0.406351 0.607664 0.748838
Si Si3 0.749722 0.500000 0.500000
Si Si4 0.300869 0.237450 0.761482
Si Si5 0.658028 0.500000 0.000000
Si Si6 0.000000 0.232379 0.750000
Si Si7 0.962227 0.500000 0.000000
O O1 0.399462 0.406666 0.802696
O O2 0.344917 0.160178 0.835940
O O3 0.430110 0.091481 0.866614
O O4 0.392994 0.272045 0.092849
O O5 0.373833 0.633938 0.595685
O O6 0.456322 0.630441 0.715402
O O7 0.723103 0.658814 0.412788
O O8 0.776016 0.591521 0.653007
O O9 0.313652 0.392285 0.630638
O O10 0.010015 0.354123 0.589745
#
# Coordination Sequence:
#
# PCOD9318181 Si02
#       7
#     8   8   4   8   4   4   4
#     4   9  20  39  59  79 115 162 198 238 301 367
#     4   9  19  36  59  84 114 160 202 241 297 358
#     4  12  26  42  67  97 124 160 200 261 319 358
#     4  11  24  42  64  92 125 158 203 253 306 375
#     4  10  20  38  63  89 120 162 206 243 295 374
#     4  10  22  36  54  84 120 150 200 252 290 346
#     4  10  22  36  56  84 116 152 192 250 300 334
#
# _framework density 21.164715000000001
#
# number of rings (size 3 to 8) (size 9 to 14) (size 15 to 20)
#    0.000    2.000    0.000    3.600    0.000   12.000 
#    0.000    0.000    0.000    0.000    0.000    0.000 
#    0.000    0.000    0.000    0.000    0.000    0.000 
#
# Total GULP energy -111648.800628 kJ/mol
# GULP energy per Si atom -5582.440031 kJ/mol
# Density = 2.111654 g / cm^3
# Si number density = 21.164715 Si / 1000 Ang^3
#
#
#
# Elastic Constant Matrix: (Units=GPa)
#
#
# Indices 1 2 3 4 5 6 
#
# 1 108.8676 16.6420 43.7144 0.0000 0.0000 0.0000
# 2 16.6420 42.9827 8.5979 0.0000 0.0000 0.0000
# 3 43.7144 8.5979 68.4538 0.0000 0.0000 0.0000
# 4 0.0000 0.0000 0.0000 22.9796 0.0000 0.0000
# 5 0.0000 0.0000 0.0000 0.0000 44.5505 0.0000
# 6 0.0000 0.0000 0.0000 0.0000 0.0000 -29.3789
#
#
#
# Elastic Compliance Matrix: (Units=1/GPa)
#
#
# Indices 1 2 3 4 5 6 
#
# 1 0.012823 -0.003413 -0.007760 0.000000 0.000000 0.000000
# 2 -0.003413 0.024773 -0.000932 0.000000 0.000000 0.000000
# 3 -0.007760 -0.000932 0.019681 0.000000 0.000000 0.000000
# 4 0.000000 0.000000 0.000000 0.043517 0.000000 0.000000
# 5 0.000000 0.000000 0.000000 0.000000 0.022446 0.000000
# 6 0.000000 0.000000 0.000000 0.000000 0.000000 -0.034038
#
#
# Mechanical properties :
#
#
# Convention : Reuss Voigt Hill
#
# Bulk Modulus (GPa) = 30.24150 39.80142 35.02146
# Shear Modulus (GPa) = 40.18163 17.72022 28.95093
#
# Velocity S-wave (km/s) = 4.36193 2.89667 3.70251
# Velocity P-wave (km/s) = 6.29986 5.48033 5.90433
#
# Compressibility (1/GPa) = 0.03306714
#
# Stress axis : x y z
#
# Youngs Moduli (GPa) = 77.98406 40.36660 50.81007
#
# Poissons Ratio (x) = 0.13775 0.39430
# Poissons Ratio (y) = 0.26613 0.04737
# Poissons Ratio (z) = 0.60517 0.03763
#
# Static dielectric constant tensor:
#      x y z
#    x 1.771460 0.000000 0.000000 
#    y 0.000000 1.781110 0.000000 
#    z 0.000000 0.000000 1.955390 
# 
# From -- ./inp_files/6196.got.cif
#   From: 2010.05.17/outbox.cif.g08.bks.cpg/sg20_4_cif.got.tgz:6196.got - 2010.06.03 22:52:26.
