data_PCOD9318813
_publ_section_title
;
Structure prediction by ZEFSAII (Michael W. Deem and Ramdas Pophale) SiO2 
 PCOD9318813
Probable space group: C 2 2 21
;
_chemical_formula_sum "Si O2"
_cell_formula_units_Z 48
_cell_length_a 16.100893
_cell_length_b 25.633584
_cell_length_c 5.319580
_cell_angle_alpha 90.000000
_cell_angle_beta 90.000000
_cell_angle_gamma 90.000000
_cell_volume 2195.516172
_symmetry_space_group_name_H-M "C 2 2 21"
_symmetry_group_IT_number 20
_symmetry_cell_setting 'orthorhombic'
loop_
_space_group_symop_operation_xyz
x,y,z
-x,-y,1/2+z
x,-y,-z
-x,y,1/2-z
1/2+x,1/2+y,z
1/2-x,1/2-y,1/2+z
1/2+x,1/2-y,-z
1/2-x,1/2+y,1/2-z
loop_
_atom_site_type_symbol
_atom_site_label
_atom_site_fract_x
_atom_site_fract_y
_atom_site_fract_z
Si Si1 0.419871 0.842968 0.426194
Si Si2 0.739026 0.598359 0.072760
Si Si3 0.949171 0.130425 0.510444
Si Si4 0.703645 0.207415 0.559129
Si Si5 0.613546 0.258897 0.191465
Si Si6 0.678460 0.058844 0.947834
O O1 0.500000 0.844765 0.250000
O O2 0.427910 0.795000 0.614251
O O3 0.396537 0.900970 0.509050
O O4 0.336742 0.823941 0.285074
O O5 0.775108 0.657404 0.115707
O O6 0.753078 0.569890 0.336597
O O7 0.641776 0.604911 0.012226
O O8 0.785654 0.570681 0.834238
O O9 0.931663 0.191064 0.584352
O O10 0.000000 0.108769 0.750000
O O11 0.000000 0.126909 0.250000
O O12 0.633911 0.250062 0.485133
O O13 0.790602 0.235206 0.603177
O O14 0.651294 0.000000 0.000000
#
# Coordination Sequence:
#
# PCOD9318813 Si02
#       6
#     8   8   8   8   8   8
#     4  11  24  39  59  92 131 168 211 273 330 374
#     4  10  22  43  70  92 127 172 218 270 325 391
#     4  11  25  39  62 100 140 173 208 262 331 397
#     4  10  21  36  60  86 124 179 219 255 301 384
#     4  11  21  35  60  86 134 178 221 247 307 388
#     4  11  23  45  71  95 119 167 228 275 328 397
#
# _framework density 21.862741
#
# number of rings (size 3 to 8) (size 9 to 14) (size 15 to 20)
#    0.000    1.333    3.333    2.000    4.667    0.000 
#    0.000    3.333    0.000   10.000    0.000    0.000 
#    0.000    0.000    0.000    0.000    0.000    0.000 
#
# Total GULP energy -133784.823766 kJ/mol
# GULP energy per Si atom -5574.367657 kJ/mol
# Density = 2.181298 g / cm^3
# Si number density = 21.862741 Si / 1000 Ang^3
#
#
#
# Elastic Constant Matrix: (Units=GPa)
#
#
# Indices 1 2 3 4 5 6 
#
# 1 87.9253 25.7994 15.3713 0.0000 0.0000 0.0000
# 2 25.7994 103.9089 10.4823 0.0000 0.0000 0.0000
# 3 15.3713 10.4823 76.4808 0.0000 0.0000 0.0000
# 4 0.0000 0.0000 0.0000 26.1183 0.0000 0.0000
# 5 0.0000 0.0000 0.0000 0.0000 44.7233 0.0000
# 6 0.0000 0.0000 0.0000 0.0000 0.0000 7.8520
#
#
#
# Elastic Compliance Matrix: (Units=1/GPa)
#
#
# Indices 1 2 3 4 5 6 
#
# 1 0.012601 -0.002914 -0.002133 0.000000 0.000000 0.000000
# 2 -0.002914 0.010432 -0.000844 0.000000 0.000000 0.000000
# 3 -0.002133 -0.000844 0.013620 0.000000 0.000000 0.000000
# 4 0.000000 0.000000 0.000000 0.038287 0.000000 0.000000
# 5 0.000000 0.000000 0.000000 0.000000 0.022360 0.000000
# 6 0.000000 0.000000 0.000000 0.000000 0.000000 0.127356
#
#
# Mechanical properties :
#
#
# Convention : Reuss Voigt Hill
#
# Bulk Modulus (GPa) = 40.20747 41.29122 40.74935
# Shear Modulus (GPa) = 20.43076 30.18284 25.30680
#
# Velocity S-wave (km/s) = 3.06028 3.71962 3.40594
# Velocity P-wave (km/s) = 5.56038 6.11351 5.84349
#
# Compressibility (1/GPa) = 0.02487100
#
# Stress axis : x y z
#
# Youngs Moduli (GPa) = 79.35795 95.85543 73.42334
#
# Poissons Ratio (x) = 0.27928 0.15663
# Poissons Ratio (y) = 0.23121 0.06199
# Poissons Ratio (z) = 0.16929 0.08093
#
# Static dielectric constant tensor:
#      x y z
#    x 1.724450 0.000000 0.000000 
#    y 0.000000 1.837240 0.000000 
#    z 0.000000 0.000000 2.048510 
# 
# From -- ./inp_files/2039.got.cif
#   From: 2010.05.17/outbox.cif.g08.bks.cpg/sg20_2_cif.got.tgz:2039.got - 2010.06.03 22:52:26.
