data_PCOD9318297
_publ_section_title
;
Structure prediction by ZEFSAII (Michael W. Deem and Ramdas Pophale) SiO2 
 PCOD9318297
Probable space group: C 2 2 21
;
_chemical_formula_sum "Si O2"
_cell_formula_units_Z 64
_cell_length_a 8.204084
_cell_length_b 18.715344
_cell_length_c 18.180543
_cell_angle_alpha 90.000000
_cell_angle_beta 90.000000
_cell_angle_gamma 90.000000
_cell_volume 2791.481556
_symmetry_space_group_name_H-M "C 2 2 21"
_symmetry_group_IT_number 20
_symmetry_cell_setting 'orthorhombic'
loop_
_space_group_symop_operation_xyz
x,y,z
-x,-y,1/2+z
x,-y,-z
-x,y,1/2-z
1/2+x,1/2+y,z
1/2-x,1/2-y,1/2+z
1/2+x,1/2-y,-z
1/2-x,1/2+y,1/2-z
loop_
_atom_site_type_symbol
_atom_site_label
_atom_site_fract_x
_atom_site_fract_y
_atom_site_fract_z
Si Si1 0.320190 0.627910 0.884024
Si Si2 0.241915 0.481713 0.413407
Si Si3 0.598361 0.321641 0.657408
Si Si4 0.569010 0.511869 0.327851
Si Si5 0.661371 0.347942 0.032008
Si Si6 0.191065 0.319571 0.972527
Si Si7 0.111945 0.380692 0.608605
Si Si8 0.246211 0.264775 0.709228
O O1 0.302659 0.547279 0.854910
O O2 0.486887 0.629966 0.932722
O O3 0.313249 0.688089 0.820244
O O4 0.192326 0.653287 0.944746
O O5 0.228934 0.500000 0.500000
O O6 0.418451 0.506495 0.384316
O O7 0.224734 0.396220 0.413197
O O8 0.123554 0.535876 0.371917
O O9 0.612534 0.404906 0.681147
O O10 0.639162 0.324769 0.571709
O O11 0.425035 0.286691 0.676622
O O12 0.729384 0.275534 0.703786
O O13 0.500000 0.485857 0.250000
O O14 0.654974 0.263508 0.033326
O O15 0.742713 0.363813 0.951377
O O16 0.057287 0.364278 0.929710
O O17 0.134235 0.326610 0.675364
#
# Coordination Sequence:
#
# PCOD9318297 Si02
#       8
#     8   8   8   8   8   8   8   8
#     4  11  25  40  71 102 133 171 238 296 334 415
#     4   9  20  36  66  93 124 175 223 268 328 407
#     4  11  25  41  69  94 140 182 232 279 357 421
#     4  11  22  44  69  98 128 180 232 287 336 423
#     4  10  20  39  62  96 127 177 218 278 339 400
#     4  12  24  38  64 106 138 175 223 295 342 408
#     4  11  20  39  63  93 145 174 227 275 348 415
#     4  11  21  43  66  96 129 183 228 284 342 417
#
# _framework density 22.926894999999998
#
# number of rings (size 3 to 8) (size 9 to 14) (size 15 to 20)
#    0.000    1.250    5.000    0.750    5.250    2.500 
#    6.750    0.000    0.000    1.500    0.000    0.000 
#    0.000    0.000    0.000    0.000    0.000    0.000 
#
# Total GULP energy -178403.204437 kJ/mol
# GULP energy per Si atom -5575.100139 kJ/mol
# Density = 2.287471 g / cm^3
# Si number density = 22.926895 Si / 1000 Ang^3
#
#
#
# Elastic Constant Matrix: (Units=GPa)
#
#
# Indices 1 2 3 4 5 6 
#
# 1 40.4191 13.4594 -4.6578 0.0000 0.0000 0.0000
# 2 13.4594 21.7764 1.3676 0.0000 0.0000 0.0000
# 3 -4.6578 1.3676 44.1468 0.0000 0.0000 0.0000
# 4 0.0000 0.0000 0.0000 19.9353 0.0000 0.0000
# 5 0.0000 0.0000 0.0000 0.0000 20.6534 0.0000
# 6 0.0000 0.0000 0.0000 0.0000 0.0000 25.4678
#
#
#
# Elastic Compliance Matrix: (Units=1/GPa)
#
#
# Indices 1 2 3 4 5 6 
#
# 1 0.031834 -0.019925 0.003976 0.000000 0.000000 0.000000
# 2 -0.019925 0.058483 -0.003914 0.000000 0.000000 0.000000
# 3 0.003976 -0.003914 0.023192 0.000000 0.000000 0.000000
# 4 0.000000 0.000000 0.000000 0.050162 0.000000 0.000000
# 5 0.000000 0.000000 0.000000 0.000000 0.048418 0.000000
# 6 0.000000 0.000000 0.000000 0.000000 0.000000 0.039265
#
#
# Mechanical properties :
#
#
# Convention : Reuss Voigt Hill
#
# Bulk Modulus (GPa) = 13.55343 14.07563 13.81453
# Shear Modulus (GPa) = 15.83904 19.62285 17.73095
#
# Velocity S-wave (km/s) = 2.63125 2.92873 2.78397
# Velocity P-wave (km/s) = 3.89304 4.19396 4.04630
#
# Compressibility (1/GPa) = 0.07378206
#
# Stress axis : x y z
#
# Youngs Moduli (GPa) = 31.41287 17.09913 43.11749
#
# Poissons Ratio (x) = 0.34071 -0.17144
# Poissons Ratio (y) = 0.62592 0.16876
# Poissons Ratio (z) = -0.12490 0.06693
#
# Static dielectric constant tensor:
#      x y z
#    x 1.931080 0.000000 0.000000 
#    y 0.000000 1.882470 0.000000 
#    z 0.000000 0.000000 1.903870 
# 
# From -- ./inp_files/26906.got.cif
#   From: 2010.05.17/outbox.cif.g08.bks.cpg/sg20_14_cif.got.tgz:26906.got - 2010.06.03 22:52:26.
