data_PCOD9318582
_publ_section_title
;
Structure prediction by ZEFSAII (Michael W. Deem and Ramdas Pophale) SiO2 
 PCOD9318582
Probable space group: C 2 2 21
;
_chemical_formula_sum "Si O2"
_cell_formula_units_Z 44
_cell_length_a 18.999496
_cell_length_b 8.180120
_cell_length_c 11.949487
_cell_angle_alpha 90.000000
_cell_angle_beta 90.000000
_cell_angle_gamma 90.000000
_cell_volume 1857.167249
_symmetry_space_group_name_H-M "C 2 2 21"
_symmetry_group_IT_number 20
_symmetry_cell_setting 'orthorhombic'
loop_
_space_group_symop_operation_xyz
x,y,z
-x,-y,1/2+z
x,-y,-z
-x,y,1/2-z
1/2+x,1/2+y,z
1/2-x,1/2-y,1/2+z
1/2+x,1/2-y,-z
1/2-x,1/2+y,1/2-z
loop_
_atom_site_type_symbol
_atom_site_label
_atom_site_fract_x
_atom_site_fract_y
_atom_site_fract_z
Si Si1 0.816672 0.892485 0.128905
Si Si2 0.163073 0.676601 0.940818
Si Si3 0.500000 0.552381 0.250000
Si Si4 0.583815 0.041128 0.742432
Si Si5 0.389708 0.712422 0.076658
Si Si6 0.118835 0.816127 0.160610
O O1 0.744759 0.813831 0.088084
O O2 0.818099 0.875914 0.261618
O O3 0.826634 0.086784 0.108800
O O4 0.882360 0.811601 0.058030
O O5 0.116656 0.671008 0.829885
O O6 0.153709 0.500000 0.000000
O O7 0.136728 0.803412 0.031623
O O8 0.456710 0.644167 0.149153
O O9 0.555314 0.435759 0.187821
O O10 0.500000 0.045201 0.750000
O O11 0.612794 0.103703 0.623042
O O12 0.604715 0.863521 0.786987
#
# Coordination Sequence:
#
# PCOD9318582 Si02
#       6
#     8   8   4   8   8   8
#     4  10  22  41  67  91 127 172 214 263 316 384
#     4  10  22  41  65  90 132 166 206 266 322 377
#     4  10  20  42  64  94 124 168 216 270 316 386
#     4  11  23  40  64  97 126 167 214 263 318 383
#     4  10  21  40  65  93 126 169 216 261 317 384
#     4  10  23  42  65  94 130 167 211 270 323 379
#
# _framework density 23.691994999999999
#
# number of rings (size 3 to 8) (size 9 to 14) (size 15 to 20)
#    0.000    1.818    3.636    0.000    2.545    5.091 
#    3.273    2.727    8.000    0.000    0.000    0.000 
#    0.000    0.000    0.000    0.000    0.000    0.000 
#
# Total GULP energy -122754.852590 kJ/mol
# GULP energy per Si atom -5579.766027 kJ/mol
# Density = 2.363807 g / cm^3
# Si number density = 23.691995 Si / 1000 Ang^3
#
#
#
# Elastic Constant Matrix: (Units=GPa)
#
#
# Indices 1 2 3 4 5 6 
#
# 1 61.5858 0.0969 11.8873 0.0000 0.0000 0.0000
# 2 0.0969 56.8458 -5.9237 0.0000 0.0000 0.0000
# 3 11.8873 -5.9237 76.8863 0.0000 0.0000 0.0000
# 4 0.0000 0.0000 0.0000 31.5997 0.0000 0.0000
# 5 0.0000 0.0000 0.0000 0.0000 34.5076 0.0000
# 6 0.0000 0.0000 0.0000 0.0000 0.0000 1.6369
#
#
#
# Elastic Compliance Matrix: (Units=1/GPa)
#
#
# Indices 1 2 3 4 5 6 
#
# 1 0.016742 -0.000301 -0.002612 0.000000 0.000000 0.000000
# 2 -0.000301 0.017739 0.001413 0.000000 0.000000 0.000000
# 3 -0.002612 0.001413 0.013519 0.000000 0.000000 0.000000
# 4 0.000000 0.000000 0.000000 0.031646 0.000000 0.000000
# 5 0.000000 0.000000 0.000000 0.000000 0.028979 0.000000
# 6 0.000000 0.000000 0.000000 0.000000 0.000000 0.610918
#
#
# Mechanical properties :
#
#
# Convention : Reuss Voigt Hill
#
# Bulk Modulus (GPa) = 22.22128 23.04878 22.63503
# Shear Modulus (GPa) = 6.77927 26.16601 16.47264
#
# Velocity S-wave (km/s) = 1.69341 3.32689 2.63968
# Velocity P-wave (km/s) = 3.63636 4.95048 4.34341
#
# Compressibility (1/GPa) = 0.04500191
#
# Stress axis : x y z
#
# Youngs Moduli (GPa) = 59.72974 56.37230 73.97062
#
# Poissons Ratio (x) = 0.01695 0.19319
# Poissons Ratio (y) = 0.01796 -0.10453
# Poissons Ratio (z) = 0.15599 -0.07967
#
# Static dielectric constant tensor:
#      x y z
#    x 1.868780 0.000000 0.000000 
#    y 0.000000 1.998640 0.000000 
#    z 0.000000 0.000000 1.972960 
# 
# From -- ./inp_files/21220.got.cif
#   From: 2010.05.17/outbox.cif.g08.bks.cpg/sg20_11_cif.got.tgz:21220.got - 2010.06.03 22:52:26.
