data_PCOD9318202
_publ_section_title
;
Structure prediction by ZEFSAII (Michael W. Deem and Ramdas Pophale) SiO2 
 PCOD9318202
Probable space group: C 2 2 21
;
_chemical_formula_sum "Si O2"
_cell_formula_units_Z 56
_cell_length_a 14.904520
_cell_length_b 17.108951
_cell_length_c 10.626279
_cell_angle_alpha 90.000000
_cell_angle_beta 90.000000
_cell_angle_gamma 90.000000
_cell_volume 2709.708608
_symmetry_space_group_name_H-M "C 2 2 21"
_symmetry_group_IT_number 20
_symmetry_cell_setting 'orthorhombic'
loop_
_space_group_symop_operation_xyz
x,y,z
-x,-y,1/2+z
x,-y,-z
-x,y,1/2-z
1/2+x,1/2+y,z
1/2-x,1/2-y,1/2+z
1/2+x,1/2-y,-z
1/2-x,1/2+y,1/2-z
loop_
_atom_site_type_symbol
_atom_site_label
_atom_site_fract_x
_atom_site_fract_y
_atom_site_fract_z
Si Si1 0.339014 0.339949 0.546862
Si Si2 0.829417 0.304639 0.592770
Si Si3 0.979177 0.090856 0.978200
Si Si4 0.903392 0.208057 0.803363
Si Si5 0.635977 0.831956 0.481652
Si Si6 0.020091 0.564505 0.102700
Si Si7 0.864841 0.186349 0.165763
O O1 0.351846 0.246610 0.527882
O O2 0.416084 0.385347 0.470246
O O3 0.238375 0.360005 0.500964
O O4 0.351519 0.347800 0.695461
O O5 0.834052 0.236036 0.698995
O O6 0.728565 0.333962 0.594906
O O7 0.901709 0.370883 0.615577
O O8 0.943916 0.140791 0.096448
O O9 0.922344 0.122503 0.858743
O O10 0.968643 0.000000 0.000000
O O11 0.879139 0.262257 0.919363
O O12 0.000000 0.233309 0.750000
O O13 0.565479 0.896253 0.530356
O O14 0.622472 0.780908 0.353346
O O15 0.000000 0.540279 0.250000
O O16 0.050270 0.500000 0.000000
#
# Coordination Sequence:
#
# PCOD9318202 Si02
#       7
#     8   8   8   8   8   8   8
#     4  11  21  37  63  91 119 164 208 256 304 361
#     4  11  20  40  69  90 112 163 220 249 308 389
#     4  11  25  38  56  92 130 163 201 251 317 373
#     4  11  17  38  69  83 109 167 213 247 294 375
#     4  10  20  38  64  89 119 160 213 257 302 375
#     4  12  24  40  63  91 129 165 203 265 329 378
#     4  10  22  38  64  92 120 155 207 274 300 349
#
# _framework density 20.666428
#
# number of rings (size 3 to 8) (size 9 to 14) (size 15 to 20)
#    0.000    1.143    5.714    1.286    0.000    3.429 
#    0.000    0.000    3.143    0.000    0.000    0.000 
#    0.000    0.000    0.000    0.000    0.000    0.000 
#
# Total GULP energy -155972.410575 kJ/mol
# GULP energy per Si atom -5570.443235 kJ/mol
# Density = 2.061939 g / cm^3
# Si number density = 20.666428 Si / 1000 Ang^3
#
#
#
# Elastic Constant Matrix: (Units=GPa)
#
#
# Indices 1 2 3 4 5 6 
#
# 1 73.4993 31.4632 4.1121 0.0000 0.0000 0.0000
# 2 31.4632 79.6530 22.6452 0.0000 0.0000 0.0000
# 3 4.1121 22.6452 49.1414 0.0000 0.0000 0.0000
# 4 0.0000 0.0000 0.0000 17.1859 0.0000 0.0000
# 5 0.0000 0.0000 0.0000 0.0000 18.5737 0.0000
# 6 0.0000 0.0000 0.0000 0.0000 0.0000 -22.5595
#
#
#
# Elastic Compliance Matrix: (Units=1/GPa)
#
#
# Indices 1 2 3 4 5 6 
#
# 1 0.016522 -0.007058 0.001870 0.000000 0.000000 0.000000
# 2 -0.007058 0.017462 -0.007456 0.000000 0.000000 0.000000
# 3 0.001870 -0.007456 0.023629 0.000000 0.000000 0.000000
# 4 0.000000 0.000000 0.000000 0.058187 0.000000 0.000000
# 5 0.000000 0.000000 0.000000 0.000000 0.053839 0.000000
# 6 0.000000 0.000000 0.000000 0.000000 0.000000 -0.044327
#
#
# Mechanical properties :
#
#
# Convention : Reuss Voigt Hill
#
# Bulk Modulus (GPa) = 30.93610 35.41497 33.17553
# Shear Modulus (GPa) = 30.98341 12.24490 21.61415
#
# Velocity S-wave (km/s) = 3.87617 2.43678 3.23748
# Velocity P-wave (km/s) = 5.91901 5.00908 5.48295
#
# Compressibility (1/GPa) = 0.03232470
#
# Stress axis : x y z
#
# Youngs Moduli (GPa) = 60.52429 57.26661 42.32095
#
# Poissons Ratio (x) = 0.40419 -0.07913
# Poissons Ratio (y) = 0.42718 0.31556
# Poissons Ratio (z) = -0.11317 0.42700
#
# Static dielectric constant tensor:
#      x y z
#    x 1.741900 0.000000 0.000000 
#    y 0.000000 1.737640 0.000000 
#    z 0.000000 0.000000 1.874360 
# 
# From -- ./inp_files/15132.got.cif
#   From: 2010.05.17/outbox.cif.g08.bks.cpg/sg20_8_cif.got.tgz:15132.got - 2010.06.03 22:52:26.
