data_PCOD9318759
_publ_section_title
;
Structure prediction by ZEFSAII (Michael W. Deem and Ramdas Pophale) SiO2 
 PCOD9318759
Probable space group: C 2 2 21
;
_chemical_formula_sum "Si O2"
_cell_formula_units_Z 64
_cell_length_a 20.394355
_cell_length_b 9.133042
_cell_length_c 20.175828
_cell_angle_alpha 90.000000
_cell_angle_beta 90.000000
_cell_angle_gamma 90.000000
_cell_volume 3758.000179
_symmetry_space_group_name_H-M "C 2 2 21"
_symmetry_group_IT_number 20
_symmetry_cell_setting 'orthorhombic'
loop_
_space_group_symop_operation_xyz
x,y,z
-x,-y,1/2+z
x,-y,-z
-x,y,1/2-z
1/2+x,1/2+y,z
1/2-x,1/2-y,1/2+z
1/2+x,1/2-y,-z
1/2-x,1/2+y,1/2-z
loop_
_atom_site_type_symbol
_atom_site_label
_atom_site_fract_x
_atom_site_fract_y
_atom_site_fract_z
Si Si1 0.425673 0.872702 0.054238
Si Si2 0.261214 0.285842 0.825471
Si Si3 0.843654 0.497484 0.175172
Si Si4 0.309882 0.342215 0.533020
Si Si5 0.425673 0.872702 0.445762
Si Si6 0.656346 0.002516 0.824828
Si Si7 0.238786 0.785841 0.825471
Si Si8 0.809882 0.157785 0.033020
O O1 0.393949 0.942611 0.120419
O O2 0.500000 0.821779 0.065961
O O3 0.377008 0.747996 0.027603
O O4 0.426637 0.000000 0.000000
O O5 0.281596 0.115396 0.829228
O O6 0.186561 0.340800 0.834520
O O7 0.279290 0.331918 0.750000
O O8 0.297660 0.355039 0.888160
O O9 0.869755 0.485994 0.250000
O O10 0.813439 0.659200 0.165480
O O11 0.311779 0.500000 0.500000
O O12 0.377008 0.252004 0.527602
O O13 0.297660 0.355039 0.611840
O O14 0.250000 0.250000 0.500000
O O15 0.393949 0.942611 0.379581
O O16 0.426637 0.000000 0.500000
O O17 0.718404 0.115396 0.829228
O O18 0.811779 0.000000 0.000000
#
# Coordination Sequence:
#
# PCOD9318759 Si02
#       8
#     8   8   8   8   8   8   8   8
#     4  10  21  35  49  69 100 134 168 208 251 296
#     4   9  17  29  46  71  99 123 153 198 247 290
#     4   9  17  30  49  72  97 126 161 202 248 296
#     4  11  20  32  53  77 100 128 166 208 252 301
#     4  10  21  35  49  69 100 134 168 208 251 296
#     4   9  17  30  49  72  97 126 161 202 248 296
#     4   9  17  29  46  71  99 123 153 198 247 290
#     4  11  20  32  53  77 100 128 166 208 252 301
#
# _framework density 17.030335000000001
#
# number of rings (size 3 to 8) (size 9 to 14) (size 15 to 20)
#    0.000    2.250    0.000    5.250    0.000    1.000 
#    0.000    0.000    0.000    0.000    0.000    0.000 
#    0.000   10.000    0.000    0.000    0.000    0.000 
#
# Total GULP energy -178144.799294 kJ/mol
# GULP energy per Si atom -5567.024978 kJ/mol
# Density = 1.699157 g / cm^3
# Si number density = 17.030335 Si / 1000 Ang^3
#
#
#
# Elastic Constant Matrix: (Units=GPa)
#
#
# Indices 1 2 3 4 5 6 
#
# 1 127.2639 54.9167 41.0256 0.0000 0.0000 0.0000
# 2 54.9167 59.4226 38.6327 0.0000 0.0000 0.0000
# 3 41.0256 38.6327 83.5425 0.0000 0.0000 0.0000
# 4 0.0000 0.0000 0.0000 25.5513 0.0000 0.0000
# 5 0.0000 0.0000 0.0000 0.0000 16.1376 0.0000
# 6 0.0000 0.0000 0.0000 0.0000 0.0000 23.4676
#
#
#
# Elastic Compliance Matrix: (Units=1/GPa)
#
#
# Indices 1 2 3 4 5 6 
#
# 1 0.013153 -0.011377 -0.001198 0.000000 0.000000 0.000000
# 2 -0.011377 0.033903 -0.010091 0.000000 0.000000 0.000000
# 3 -0.001198 -0.010091 0.017225 0.000000 0.000000 0.000000
# 4 0.000000 0.000000 0.000000 0.039137 0.000000 0.000000
# 5 0.000000 0.000000 0.000000 0.000000 0.061967 0.000000
# 6 0.000000 0.000000 0.000000 0.000000 0.000000 0.042612
#
#
# Mechanical properties :
#
#
# Convention : Reuss Voigt Hill
#
# Bulk Modulus (GPa) = 52.77301 59.93099 56.35200
# Shear Modulus (GPa) = 19.25695 22.07489 20.66592
#
# Velocity S-wave (km/s) = 3.36630 3.60420 3.48728
# Velocity P-wave (km/s) = 6.79443 7.25172 7.02679
#
# Compressibility (1/GPa) = 0.01894908
#
# Stress axis : x y z
#
# Youngs Moduli (GPa) = 76.02662 29.49553 58.05577
#
# Poissons Ratio (x) = 0.33557 0.06956
# Poissons Ratio (y) = 0.86495 0.58585
# Poissons Ratio (z) = 0.09109 0.29764
#
# Static dielectric constant tensor:
#      x y z
#    x 1.574110 0.000000 0.000000 
#    y 0.000000 1.604800 0.000000 
#    z 0.000000 0.000000 1.604090 
# 
# From -- ./inp_files/27759.got.cif
#   From: 2010.05.17/outbox.cif.g08.bks.cpg/sg20_14_cif.got.tgz:27759.got - 2010.06.03 22:52:26.
