data_PCOD9318750
_publ_section_title
;
Structure prediction by ZEFSAII (Michael W. Deem and Ramdas Pophale) SiO2 
 PCOD9318750
Probable space group: C 2 2 21
;
_chemical_formula_sum "Si O2"
_cell_formula_units_Z 48
_cell_length_a 27.969041
_cell_length_b 5.207524
_cell_length_c 14.910627
_cell_angle_alpha 90.000000
_cell_angle_beta 90.000000
_cell_angle_gamma 90.000000
_cell_volume 2171.724655
_symmetry_space_group_name_H-M "C 2 2 21"
_symmetry_group_IT_number 20
_symmetry_cell_setting 'orthorhombic'
loop_
_space_group_symop_operation_xyz
x,y,z
-x,-y,1/2+z
x,-y,-z
-x,y,1/2-z
1/2+x,1/2+y,z
1/2-x,1/2-y,1/2+z
1/2+x,1/2-y,-z
1/2-x,1/2+y,1/2-z
loop_
_atom_site_type_symbol
_atom_site_label
_atom_site_fract_x
_atom_site_fract_y
_atom_site_fract_z
Si Si1 0.612988 0.549393 0.092844
Si Si2 0.837007 0.554364 0.359448
Si Si3 0.106823 0.480743 0.671454
Si Si4 0.944747 0.988660 0.774777
Si Si5 0.302760 0.807158 0.095392
Si Si6 0.766012 0.191180 0.892527
O O1 0.655741 0.339095 0.100931
O O2 0.581835 0.498061 0.179385
O O3 0.630724 0.839744 0.092610
O O4 0.586640 0.500000 0.000000
O O5 0.858230 0.544760 0.258788
O O6 0.784123 0.443939 0.374238
O O7 0.069444 0.711596 0.686120
O O8 0.144658 0.571094 0.596764
O O9 0.077711 0.216372 0.664957
O O10 0.000000 0.018644 0.750000
O O11 0.303323 0.525938 0.140771
O O12 0.270373 0.021335 0.145050
O O13 0.280232 0.748733 0.997097
#
# Coordination Sequence:
#
# PCOD9318750 Si02
#       6
#     8   8   8   8   8   8
#     4  10  21  34  58  84 118 142 184 243 298 340
#     4  10  21  34  54  86 114 155 192 237 281 328
#     4  10  21  38  58  86 114 151 189 242 295 343
#     4  10  21  40  64  86 111 144 190 243 300 361
#     4  10  21  34  53  78 116 153 196 231 279 330
#     4  10  21  34  52  79 116 158 202 226 264 334
#
# _framework density 22.102250000000002
#
# number of rings (size 3 to 8) (size 9 to 14) (size 15 to 20)
#    0.000    2.000    0.000    3.000    7.000    1.333 
#    0.000    0.000   11.000    0.000    0.000    0.000 
#    0.000    0.000    0.000    0.000    0.000    0.000 
#
# Total GULP energy -133849.973074 kJ/mol
# GULP energy per Si atom -5577.082211 kJ/mol
# Density = 2.205194 g / cm^3
# Si number density = 22.102250 Si / 1000 Ang^3
#
#
#
# Elastic Constant Matrix: (Units=GPa)
#
#
# Indices 1 2 3 4 5 6 
#
# 1 98.7419 20.1831 -2.3684 0.0000 0.0000 0.0000
# 2 20.1831 154.8908 8.2760 0.0000 0.0000 0.0000
# 3 -2.3684 8.2760 33.9070 0.0000 0.0000 0.0000
# 4 0.0000 0.0000 0.0000 16.8024 0.0000 0.0000
# 5 0.0000 0.0000 0.0000 0.0000 1.1045 0.0000
# 6 0.0000 0.0000 0.0000 0.0000 0.0000 25.1606
#
#
#
# Elastic Compliance Matrix: (Units=1/GPa)
#
#
# Indices 1 2 3 4 5 6 
#
# 1 0.010443 -0.001418 0.001076 0.000000 0.000000 0.000000
# 2 -0.001418 0.006734 -0.001743 0.000000 0.000000 0.000000
# 3 0.001076 -0.001743 0.029993 0.000000 0.000000 0.000000
# 4 0.000000 0.000000 0.000000 0.059515 0.000000 0.000000
# 5 0.000000 0.000000 0.000000 0.000000 0.905372 0.000000
# 6 0.000000 0.000000 0.000000 0.000000 0.000000 0.039745
#
#
# Mechanical properties :
#
#
# Convention : Reuss Voigt Hill
#
# Bulk Modulus (GPa) = 23.25615 37.74680 30.50147
# Shear Modulus (GPa) = 4.67156 26.04342 15.35749
#
# Velocity S-wave (km/s) = 1.45540 3.43638 2.63884
# Velocity P-wave (km/s) = 3.65639 5.73239 4.80778
#
# Compressibility (1/GPa) = 0.04299939
#
# Stress axis : x y z
#
# Youngs Moduli (GPa) = 95.75687 148.49832 33.34121
#
# Poissons Ratio (x) = 0.21061 -0.03586
# Poissons Ratio (y) = 0.13581 0.05810
# Poissons Ratio (z) = -0.10300 0.25879
#
# Static dielectric constant tensor:
#      x y z
#    x 1.804460 0.000000 0.000000 
#    y 0.000000 1.939450 0.000000 
#    z 0.000000 0.000000 1.988910 
# 
# From -- ./inp_files/25585.got.cif
#   From: 2010.05.17/outbox.cif.g08.bks.cpg/sg20_13_cif.got.tgz:25585.got - 2010.06.03 22:52:26.
