data_PCOD9318481
_publ_section_title
;
Structure prediction by ZEFSAII (Michael W. Deem and Ramdas Pophale) SiO2 
 PCOD9318481
Probable space group: C 2 2 21
;
_chemical_formula_sum "Si O2"
_cell_formula_units_Z 44
_cell_length_a 8.668556
_cell_length_b 13.197013
_cell_length_c 14.896661
_cell_angle_alpha 90.000000
_cell_angle_beta 90.000000
_cell_angle_gamma 90.000000
_cell_volume 1704.163810
_symmetry_space_group_name_H-M "C 2 2 21"
_symmetry_group_IT_number 20
_symmetry_cell_setting 'orthorhombic'
loop_
_space_group_symop_operation_xyz
x,y,z
-x,-y,1/2+z
x,-y,-z
-x,y,1/2-z
1/2+x,1/2+y,z
1/2-x,1/2-y,1/2+z
1/2+x,1/2-y,-z
1/2-x,1/2+y,1/2-z
loop_
_atom_site_type_symbol
_atom_site_label
_atom_site_fract_x
_atom_site_fract_y
_atom_site_fract_z
Si Si1 0.711868 0.427962 0.106361
Si Si2 0.640076 0.133456 0.438185
Si Si3 0.072371 0.000000 0.500000
Si Si4 0.289673 0.134081 0.406702
Si Si5 0.845502 0.560216 0.707950
Si Si6 0.662694 0.717043 0.225572
O O1 0.838196 0.514734 0.084822
O O2 0.547166 0.472646 0.079696
O O3 0.724716 0.417197 0.212433
O O4 0.765538 0.346283 0.030838
O O5 0.460041 0.158298 0.442612
O O6 0.725394 0.178496 0.351693
O O7 0.162216 0.894100 0.519172
O O8 0.248683 0.204189 0.321408
O O9 0.293164 0.018882 0.364658
O O10 0.888598 0.674644 0.683128
O O11 0.000000 0.513628 0.750000
O O12 0.500000 0.663238 0.250000
#
# Coordination Sequence:
#
# PCOD9318481 Si02
#       6
#     8   8   4   8   8   8
#     4  10  20  42  66  97 126 171 218 271 332 372
#     4  10  20  40  70  88 130 170 217 265 323 387
#     4  10  24  38  68  98 126 176 214 280 324 386
#     4  12  22  43  65  95 128 175 222 263 330 391
#     4  11  23  41  70  97 129 174 219 269 329 397
#     4  11  23  41  64  98 130 171 218 271 327 386
#
# _framework density 25.819112000000001
#
# number of rings (size 3 to 8) (size 9 to 14) (size 15 to 20)
#    0.000    1.455    3.636    3.818    0.000    0.000 
#    9.818    0.000    0.000    0.000    0.000    0.000 
#    0.000    0.000    0.000    0.000    0.000    0.000 
#
# Total GULP energy -122752.102487 kJ/mol
# GULP energy per Si atom -5579.641022 kJ/mol
# Density = 2.576035 g / cm^3
# Si number density = 25.819112 Si / 1000 Ang^3
#
#
#
# Elastic Constant Matrix: (Units=GPa)
#
#
# Indices 1 2 3 4 5 6 
#
# 1 135.6228 -12.6790 14.6688 0.0000 0.0000 0.0000
# 2 -12.6790 26.6180 -7.2692 0.0000 0.0000 0.0000
# 3 14.6688 -7.2692 78.4435 0.0000 0.0000 0.0000
# 4 0.0000 0.0000 0.0000 37.3910 0.0000 0.0000
# 5 0.0000 0.0000 0.0000 0.0000 43.2330 0.0000
# 6 0.0000 0.0000 0.0000 0.0000 0.0000 9.8606
#
#
#
# Elastic Compliance Matrix: (Units=1/GPa)
#
#
# Indices 1 2 3 4 5 6 
#
# 1 0.007816 0.003410 -0.001146 0.000000 0.000000 0.000000
# 2 0.003410 0.040032 0.003072 0.000000 0.000000 0.000000
# 3 -0.001146 0.003072 0.013247 0.000000 0.000000 0.000000
# 4 0.000000 0.000000 0.000000 0.026744 0.000000 0.000000
# 5 0.000000 0.000000 0.000000 0.000000 0.023131 0.000000
# 6 0.000000 0.000000 0.000000 0.000000 0.000000 0.101413
#
#
# Mechanical properties :
#
#
# Convention : Reuss Voigt Hill
#
# Bulk Modulus (GPa) = 13.93376 25.56950 19.75163
# Shear Modulus (GPa) = 22.15992 34.49450 28.32721
#
# Velocity S-wave (km/s) = 2.93281 3.65911 3.31591
# Velocity P-wave (km/s) = 4.10815 5.27038 4.72514
#
# Compressibility (1/GPa) = 0.07176815
#
# Stress axis : x y z
#
# Youngs Moduli (GPa) = 127.94095 24.98007 75.48922
#
# Poissons Ratio (x) = -0.08519 0.08648
# Poissons Ratio (y) = -0.43630 -0.23190
# Poissons Ratio (z) = 0.14657 -0.07674
#
# Static dielectric constant tensor:
#      x y z
#    x 2.070550 0.000000 0.000000 
#    y 0.000000 2.227950 0.000000 
#    z 0.000000 0.000000 2.286450 
# 
# From -- ./inp_files/23343.got.cif
#   From: 2010.05.17/outbox.cif.g08.bks.cpg/sg20_12_cif.got.tgz:23343.got - 2010.06.03 22:52:26.
