data_PCOD9318391
_publ_section_title
;
Structure prediction by ZEFSAII (Michael W. Deem and Ramdas Pophale) SiO2 
 PCOD9318391
Probable space group: C 2 2 21
;
_chemical_formula_sum "Si O2"
_cell_formula_units_Z 64
_cell_length_a 14.586384
_cell_length_b 9.618333
_cell_length_c 22.723711
_cell_angle_alpha 90.000000
_cell_angle_beta 90.000000
_cell_angle_gamma 90.000000
_cell_volume 3188.061633
_symmetry_space_group_name_H-M "C 2 2 21"
_symmetry_group_IT_number 20
_symmetry_cell_setting 'orthorhombic'
loop_
_space_group_symop_operation_xyz
x,y,z
-x,-y,1/2+z
x,-y,-z
-x,y,1/2-z
1/2+x,1/2+y,z
1/2-x,1/2-y,1/2+z
1/2+x,1/2-y,-z
1/2-x,1/2+y,1/2-z
loop_
_atom_site_type_symbol
_atom_site_label
_atom_site_fract_x
_atom_site_fract_y
_atom_site_fract_z
Si Si1 0.368595 0.687036 0.610730
Si Si2 0.796308 0.020557 0.848525
Si Si3 0.540502 0.143683 0.524437
Si Si4 0.939641 0.510781 0.197390
Si Si5 0.049123 0.901730 0.443277
Si Si6 0.099046 0.498135 0.898860
Si Si7 0.104056 0.187483 0.749932
Si Si8 0.325853 0.801015 0.128383
O O1 0.451569 0.590064 0.590213
O O2 0.371775 0.703449 0.681676
O O3 0.265916 0.638833 0.598723
O O4 0.376509 0.840864 0.582293
O O5 0.867441 0.073016 0.898687
O O6 0.691142 0.051579 0.866886
O O7 0.828206 0.092628 0.788123
O O8 0.807265 0.853191 0.846982
O O9 0.547703 0.249033 0.471025
O O10 0.441219 0.100022 0.551351
O O11 0.596869 0.206804 0.578518
O O12 0.580595 0.000000 0.500000
O O13 0.903536 0.660574 0.219098
O O14 0.860997 0.407401 0.177296
O O15 0.000000 0.449392 0.250000
O O16 0.012593 0.525228 0.144615
O O17 0.054286 0.000000 0.500000
O O18 0.000000 0.129284 0.750000
#
# Coordination Sequence:
#
# PCOD9318391 Si02
#       8
#     8   8   8   8   8   8   8   8
#     4  11  22  42  66  91 129 167 212 259 316 389
#     4  11  24  41  64  95 131 164 209 259 324 386
#     4  11  23  42  69  89 122 168 216 258 316 372
#     4  10  20  40  62  90 126 164 212 258 295 372
#     4  12  24  43  64  92 128 163 209 272 315 375
#     4  10  21  40  65  93 120 165 214 251 313 376
#     4  11  21  39  69  90 123 175 211 250 320 380
#     4  10  25  40  59  96 129 159 209 262 316 367
#
# _framework density 20.074894
#
# number of rings (size 3 to 8) (size 9 to 14) (size 15 to 20)
#    0.000    1.250    6.250    0.000    3.500    2.500 
#    2.250    0.000    0.000    0.000    0.000    0.000 
#    0.000    0.000    0.000    0.000    0.000    0.000 
#
# Total GULP energy -178565.789110 kJ/mol
# GULP energy per Si atom -5580.180910 kJ/mol
# Density = 2.002920 g / cm^3
# Si number density = 20.074894 Si / 1000 Ang^3
#
#
#
# Elastic Constant Matrix: (Units=GPa)
#
#
# Indices 1 2 3 4 5 6 
#
# 1 84.5579 14.2141 11.4159 0.0000 0.0000 0.0000
# 2 14.2141 53.1015 18.5177 0.0000 0.0000 0.0000
# 3 11.4159 18.5177 67.8126 0.0000 0.0000 0.0000
# 4 0.0000 0.0000 0.0000 36.6654 0.0000 0.0000
# 5 0.0000 0.0000 0.0000 0.0000 11.8125 0.0000
# 6 0.0000 0.0000 0.0000 0.0000 0.0000 26.6338
#
#
#
# Elastic Compliance Matrix: (Units=1/GPa)
#
#
# Indices 1 2 3 4 5 6 
#
# 1 0.012489 -0.002884 -0.001315 0.000000 0.000000 0.000000
# 2 -0.002884 0.021480 -0.005380 0.000000 0.000000 0.000000
# 3 -0.001315 -0.005380 0.016437 0.000000 0.000000 0.000000
# 4 0.000000 0.000000 0.000000 0.027274 0.000000 0.000000
# 5 0.000000 0.000000 0.000000 0.000000 0.084656 0.000000
# 6 0.000000 0.000000 0.000000 0.000000 0.000000 0.037546
#
#
# Mechanical properties :
#
#
# Convention : Reuss Voigt Hill
#
# Bulk Modulus (GPa) = 32.00277 32.64080 32.32178
# Shear Modulus (GPa) = 21.79065 25.77728 23.78397
#
# Velocity S-wave (km/s) = 3.29822 3.58726 3.44577
# Velocity P-wave (km/s) = 5.52093 5.78383 5.65391
#
# Compressibility (1/GPa) = 0.03124730
#
# Stress axis : x y z
#
# Youngs Moduli (GPa) = 80.07314 46.55471 60.83847
#
# Poissons Ratio (x) = 0.13428 0.07999
# Poissons Ratio (y) = 0.23097 0.32731
# Poissons Ratio (z) = 0.10527 0.25046
#
# Static dielectric constant tensor:
#      x y z
#    x 1.746880 0.000000 0.000000 
#    y 0.000000 1.716880 0.000000 
#    z 0.000000 0.000000 1.753430 
# 
# From -- ./inp_files/29341.got.cif
#   From: 2010.05.17/outbox.cif.g08.bks.cpg/sg20_15_cif.got.tgz:29341.got - 2010.06.03 22:52:26.
