data_PCOD9318657
_publ_section_title
;
Structure prediction by ZEFSAII (Michael W. Deem and Ramdas Pophale) SiO2 
 PCOD9318657
Probable space group: C 2 2 21
;
_chemical_formula_sum "Si O2"
_cell_formula_units_Z 56
_cell_length_a 18.147915
_cell_length_b 13.666859
_cell_length_c 11.301151
_cell_angle_alpha 90.000000
_cell_angle_beta 90.000000
_cell_angle_gamma 90.000000
_cell_volume 2802.967925
_symmetry_space_group_name_H-M "C 2 2 21"
_symmetry_group_IT_number 20
_symmetry_cell_setting 'orthorhombic'
loop_
_space_group_symop_operation_xyz
x,y,z
-x,-y,1/2+z
x,-y,-z
-x,y,1/2-z
1/2+x,1/2+y,z
1/2-x,1/2-y,1/2+z
1/2+x,1/2-y,-z
1/2-x,1/2+y,1/2-z
loop_
_atom_site_type_symbol
_atom_site_label
_atom_site_fract_x
_atom_site_fract_y
_atom_site_fract_z
Si Si1 0.148031 0.331429 0.200371
Si Si2 0.679419 0.662552 0.652416
Si Si3 0.448202 0.016847 0.366814
Si Si4 0.415052 0.489054 0.733662
Si Si5 0.068759 0.167885 0.044348
Si Si6 0.420363 0.232221 0.311225
Si Si7 0.397068 0.304521 0.906149
O O1 0.234660 0.338917 0.178499
O O2 0.110505 0.432876 0.162933
O O3 0.114199 0.248068 0.116636
O O4 0.127045 0.291680 0.332175
O O5 0.639547 0.570690 0.715722
O O6 0.642300 0.756371 0.714125
O O7 0.655791 0.670503 0.515660
O O8 0.500000 0.014994 0.250000
O O9 0.416041 0.126252 0.370425
O O10 0.480295 0.000000 0.500000
O O11 0.500000 0.521920 0.750000
O O12 0.414925 0.436313 0.605160
O O13 0.399015 0.396102 0.817838
O O14 0.982522 0.198684 0.053234
O O15 0.088468 0.182823 0.908335
O O16 0.500000 0.241145 0.250000
#
# Coordination Sequence:
#
# PCOD9318657 Si02
#       7
#     8   8   8   8   8   8   8
#     4  11  25  40  67  95 135 176 217 274 343 397
#     4  12  25  40  63 100 139 172 210 276 336 406
#     4  11  24  42  70  98 128 175 232 283 327 397
#     4   9  21  40  67  96 121 167 217 267 319 393
#     4  10  20  43  70  91 124 172 225 275 317 391
#     4  11  23  40  67  98 127 171 225 278 325 385
#     4  10  22  43  69  94 128 174 229 270 323 393
#
# _framework density 19.978822000000001
#
# number of rings (size 3 to 8) (size 9 to 14) (size 15 to 20)
#    0.000    1.429    2.857    3.000    2.000    4.000 
#    0.000    0.000    6.286    0.000    0.000    0.000 
#    0.000    0.000    0.000    0.000    0.000    0.000 
#
# Total GULP energy -156246.439100 kJ/mol
# GULP energy per Si atom -5580.229968 kJ/mol
# Density = 1.993335 g / cm^3
# Si number density = 19.978822 Si / 1000 Ang^3
#
#
#
# Elastic Constant Matrix: (Units=GPa)
#
#
# Indices 1 2 3 4 5 6 
#
# 1 83.2481 14.4367 33.4712 0.0000 0.0000 0.0000
# 2 14.4367 71.3206 29.5427 0.0000 0.0000 0.0000
# 3 33.4712 29.5427 117.1066 0.0000 0.0000 0.0000
# 4 0.0000 0.0000 0.0000 43.5728 0.0000 0.0000
# 5 0.0000 0.0000 0.0000 0.0000 18.5788 0.0000
# 6 0.0000 0.0000 0.0000 0.0000 0.0000 351.4655
#
#
#
# Elastic Compliance Matrix: (Units=1/GPa)
#
#
# Indices 1 2 3 4 5 6 
#
# 1 0.013676 -0.001283 -0.003585 0.000000 0.000000 0.000000
# 2 -0.001283 0.015778 -0.003614 0.000000 0.000000 0.000000
# 3 -0.003585 -0.003614 0.010476 0.000000 0.000000 0.000000
# 4 0.000000 0.000000 0.000000 0.022950 0.000000 0.000000
# 5 0.000000 0.000000 0.000000 0.000000 0.053825 0.000000
# 6 0.000000 0.000000 0.000000 0.000000 0.000000 0.002845
#
#
# Mechanical properties :
#
#
# Convention : Reuss Voigt Hill
#
# Bulk Modulus (GPa) = 43.54334 47.39740 45.47037
# Shear Modulus (GPa) = 34.68157 95.67175 65.17666
#
# Velocity S-wave (km/s) = 4.17095 6.92752 5.71784
# Velocity P-wave (km/s) = 6.71103 9.36818 8.14864
#
# Compressibility (1/GPa) = 0.02296563
#
# Stress axis : x y z
#
# Youngs Moduli (GPa) = 73.11913 63.38038 95.46058
#
# Poissons Ratio (x) = 0.08133 0.34225
# Poissons Ratio (y) = 0.09383 0.34495
# Poissons Ratio (z) = 0.26215 0.22903
#
# Static dielectric constant tensor:
#      x y z
#    x 1.653050 0.000000 0.000000 
#    y 0.000000 1.720960 0.000000 
#    z 0.000000 0.000000 1.565370 
# 
# From -- ./inp_files/15127.got.cif
#   From: 2010.05.17/outbox.cif.g08.bks.cpg/sg20_8_cif.got.tgz:15127.got - 2010.06.03 22:52:26.
