data_PCOD9318165
_publ_section_title
;
Structure prediction by ZEFSAII (Michael W. Deem and Ramdas Pophale) SiO2 
 PCOD9318165
Probable space group: C 2 2 21
;
_chemical_formula_sum "Si O2"
_cell_formula_units_Z 48
_cell_length_a 14.900049
_cell_length_b 9.262533
_cell_length_c 14.286126
_cell_angle_alpha 90.000000
_cell_angle_beta 90.000000
_cell_angle_gamma 90.000000
_cell_volume 1971.659615
_symmetry_space_group_name_H-M "C 2 2 21"
_symmetry_group_IT_number 20
_symmetry_cell_setting 'orthorhombic'
loop_
_space_group_symop_operation_xyz
x,y,z
-x,-y,1/2+z
x,-y,-z
-x,y,1/2-z
1/2+x,1/2+y,z
1/2-x,1/2-y,1/2+z
1/2+x,1/2-y,-z
1/2-x,1/2+y,1/2-z
loop_
_atom_site_type_symbol
_atom_site_label
_atom_site_fract_x
_atom_site_fract_y
_atom_site_fract_z
Si Si1 0.000000 0.239654 0.750000
Si Si2 0.587394 0.521196 0.142437
Si Si3 0.856356 0.545547 0.290374
Si Si4 0.446502 0.500000 0.000000
Si Si5 0.304000 0.735025 0.247351
Si Si6 0.858053 0.500000 0.500000
Si Si7 0.794729 0.208796 0.940328
Si Si8 0.750608 0.000000 0.500000
O O1 0.079819 0.351206 0.730372
O O2 0.045993 0.128742 0.822392
O O3 0.513693 0.581518 0.070335
O O4 0.613093 0.632785 0.223379
O O5 0.680177 0.493496 0.087290
O O6 0.762580 0.631445 0.311002
O O7 0.838102 0.398268 0.232185
O O8 0.899019 0.515312 0.394611
O O9 0.380095 0.392671 0.053206
O O10 0.241042 0.765696 0.337015
O O11 0.792076 0.364173 0.487486
O O12 0.808737 0.359092 0.991340
#
# Coordination Sequence:
#
# PCOD9318165 Si02
#       8
#     4   8   8   4   8   4   8   4
#     4  12  24  40  64 100 134 172 224 280 334 390
#     4  10  22  39  61  89 131 172 210 263 333 396
#     4  11  23  42  69  97 129 170 224 276 332 400
#     4  10  20  38  62  92 130 168 206 266 328 384
#     4  10  22  42  65  91 124 172 220 265 324 400
#     4   9  20  39  64  90 124 170 212 261 322 392
#     4   9  18  35  61  92 120 159 215 260 314 384
#     4   9  18  37  62  90 124 170 216 267 326 392
#
# _framework density 24.344974000000001
#
# number of rings (size 3 to 8) (size 9 to 14) (size 15 to 20)
#    0.000    2.000    0.000    3.000    0.000    6.000 
#    0.000    5.000    0.000   10.000    0.000    0.000 
#    0.000    0.000    0.000    0.000    0.000    0.000 
#
# Total GULP energy -133954.503279 kJ/mol
# GULP energy per Si atom -5581.437637 kJ/mol
# Density = 2.428956 g / cm^3
# Si number density = 24.344974 Si / 1000 Ang^3
#
#
#
# Elastic Constant Matrix: (Units=GPa)
#
#
# Indices 1 2 3 4 5 6 
#
# 1 94.9534 33.6628 8.8149 0.0000 0.0000 0.0000
# 2 33.6628 138.1799 9.0086 0.0000 0.0000 0.0000
# 3 8.8149 9.0086 59.1368 0.0000 0.0000 0.0000
# 4 0.0000 0.0000 0.0000 28.5134 0.0000 0.0000
# 5 0.0000 0.0000 0.0000 0.0000 21.4933 0.0000
# 6 0.0000 0.0000 0.0000 0.0000 0.0000 16.4384
#
#
#
# Elastic Compliance Matrix: (Units=1/GPa)
#
#
# Indices 1 2 3 4 5 6 
#
# 1 0.011627 -0.002747 -0.001315 0.000000 0.000000 0.000000
# 2 -0.002747 0.007958 -0.000803 0.000000 0.000000 0.000000
# 3 -0.001315 -0.000803 0.017228 0.000000 0.000000 0.000000
# 4 0.000000 0.000000 0.000000 0.035071 0.000000 0.000000
# 5 0.000000 0.000000 0.000000 0.000000 0.046526 0.000000
# 6 0.000000 0.000000 0.000000 0.000000 0.000000 0.060833
#
#
# Mechanical properties :
#
#
# Convention : Reuss Voigt Hill
#
# Bulk Modulus (GPa) = 36.92076 43.91585 40.41831
# Shear Modulus (GPa) = 25.25228 29.34127 27.29678
#
# Velocity S-wave (km/s) = 3.22416 3.47541 3.35214
# Velocity P-wave (km/s) = 5.39063 5.84660 5.62324
#
# Compressibility (1/GPa) = 0.02708503
#
# Stress axis : x y z
#
# Youngs Moduli (GPa) = 86.00398 125.65214 58.04427
#
# Poissons Ratio (x) = 0.34515 0.07631
# Poissons Ratio (y) = 0.23624 0.04660
# Poissons Ratio (z) = 0.11307 0.10089
#
# Static dielectric constant tensor:
#      x y z
#    x 1.913520 0.000000 0.000000 
#    y 0.000000 1.983520 0.000000 
#    z 0.000000 0.000000 2.109040 
# 
# From -- ./inp_files/24875.got.cif
#   From: 2010.05.17/outbox.cif.g08.bks.cpg/sg20_13_cif.got.tgz:24875.got - 2010.06.03 22:52:26.
