data_PCOD9318304
_publ_section_title
;
Structure prediction by ZEFSAII (Michael W. Deem and Ramdas Pophale) SiO2 
 PCOD9318304
Probable space group: C 2 2 21
;
_chemical_formula_sum "Si O2"
_cell_formula_units_Z 56
_cell_length_a 31.562255
_cell_length_b 14.819682
_cell_length_c 5.268056
_cell_angle_alpha 90.000000
_cell_angle_beta 90.000000
_cell_angle_gamma 90.000000
_cell_volume 2464.094117
_symmetry_space_group_name_H-M "C 2 2 21"
_symmetry_group_IT_number 20
_symmetry_cell_setting 'orthorhombic'
loop_
_space_group_symop_operation_xyz
x,y,z
-x,-y,1/2+z
x,-y,-z
-x,y,1/2-z
1/2+x,1/2+y,z
1/2-x,1/2-y,1/2+z
1/2+x,1/2-y,-z
1/2-x,1/2+y,1/2-z
loop_
_atom_site_type_symbol
_atom_site_label
_atom_site_fract_x
_atom_site_fract_y
_atom_site_fract_z
Si Si1 0.759935 0.807576 0.674335
Si Si2 0.393965 0.829400 0.222406
Si Si3 0.592363 0.437964 0.252430
Si Si4 0.026861 0.391988 0.502012
Si Si5 0.150419 0.799090 0.036294
Si Si6 0.175022 0.620932 0.351162
Si Si7 0.378381 0.000000 0.500000
Si Si8 0.500000 0.562720 0.750000
O O1 0.744825 0.737219 0.452645
O O2 0.808214 0.832822 0.612973
O O3 0.725397 0.886819 0.645806
O O4 0.429320 0.837312 0.009066
O O5 0.387723 0.733995 0.354034
O O6 0.404768 0.913633 0.407779
O O7 0.347648 0.853576 0.112651
O O8 0.595591 0.500000 0.500000
O O9 0.630821 0.368776 0.231604
O O10 0.545874 0.390403 0.254985
O O11 0.594405 0.500000 0.000000
O O12 0.036007 0.500000 0.500000
O O13 0.000000 0.370409 0.250000
O O14 0.000000 0.371654 0.750000
O O15 0.164921 0.707869 0.176379
O O16 0.151152 0.538094 0.222834
O O17 0.499610 0.500000 0.500000
#
# Coordination Sequence:
#
# PCOD9318304 Si02
#       8
#     8   8   8   8   8   8   4   4
#     4  10  20  39  63  91 126 176 218 266 333 401
#     4  11  22  40  65  91 131 175 228 280 332 404
#     4  10  22  40  68  95 130 166 214 268 329 407
#     4  10  23  38  60  88 128 176 223 275 334 392
#     4  10  23  39  67  96 127 176 222 273 345 397
#     4  10  21  38  65  91 133 172 220 274 330 405
#     4  10  22  36  64 100 124 176 228 280 330 394
#     4   8  16  36  62  92 118 160 200 250 326 392
#
# _framework density 22.726402
#
# number of rings (size 3 to 8) (size 9 to 14) (size 15 to 20)
#    0.000    2.000    1.429    1.286    9.000    0.000 
#    0.000    2.857    4.714    0.000    0.000    0.000 
#    0.000    0.000    0.000    0.000    0.000    0.000 
#
# Total GULP energy -156447.440567 kJ/mol
# GULP energy per Si atom -5587.408592 kJ/mol
# Density = 2.267468 g / cm^3
# Si number density = 22.726402 Si / 1000 Ang^3
#
#
#
# Elastic Constant Matrix: (Units=GPa)
#
#
# Indices 1 2 3 4 5 6 
#
# 1 119.7396 33.2195 16.8465 0.0000 0.0000 0.0000
# 2 33.2195 34.6180 15.3798 0.0000 0.0000 0.0000
# 3 16.8465 15.3798 113.4201 0.0000 0.0000 0.0000
# 4 0.0000 0.0000 0.0000 22.0983 0.0000 0.0000
# 5 0.0000 0.0000 0.0000 0.0000 32.5560 0.0000
# 6 0.0000 0.0000 0.0000 0.0000 0.0000 12.0307
#
#
#
# Elastic Compliance Matrix: (Units=1/GPa)
#
#
# Indices 1 2 3 4 5 6 
#
# 1 0.011387 -0.010828 -0.000223 0.000000 0.000000 0.000000
# 2 -0.010828 0.041035 -0.003956 0.000000 0.000000 0.000000
# 3 -0.000223 -0.003956 0.009386 0.000000 0.000000 0.000000
# 4 0.000000 0.000000 0.000000 0.045252 0.000000 0.000000
# 5 0.000000 0.000000 0.000000 0.000000 0.030716 0.000000
# 6 0.000000 0.000000 0.000000 0.000000 0.000000 0.083121
#
#
# Mechanical properties :
#
#
# Convention : Reuss Voigt Hill
#
# Bulk Modulus (GPa) = 31.45238 44.29660 37.87449
# Shear Modulus (GPa) = 19.11980 26.82578 22.97279
#
# Velocity S-wave (km/s) = 2.90367 3.43939 3.18282
# Velocity P-wave (km/s) = 5.01112 5.94190 5.49625
#
# Compressibility (1/GPa) = 0.03179410
#
# Stress axis : x y z
#
# Youngs Moduli (GPa) = 87.82120 24.36970 106.53762
#
# Poissons Ratio (x) = 0.26387 0.02376
# Poissons Ratio (y) = 0.95090 0.42147
# Poissons Ratio (z) = 0.01959 0.09641
#
# Static dielectric constant tensor:
#      x y z
#    x 1.890250 0.000000 0.000000 
#    y 0.000000 1.862750 0.000000 
#    z 0.000000 0.000000 1.920010 
# 
# From -- ./inp_files/4731.got.cif
#   From: 2010.05.17/outbox.cif.g08.bks.cpg/sg20_3_cif.got.tgz:4731.got - 2010.06.03 22:52:26.
