data_PCOD9318426
_publ_section_title
;
Structure prediction by ZEFSAII (Michael W. Deem and Ramdas Pophale) SiO2 
 PCOD9318426
Probable space group: C 2 2 21
;
_chemical_formula_sum "Si O2"
_cell_formula_units_Z 48
_cell_length_a 10.034557
_cell_length_b 25.511694
_cell_length_c 8.872792
_cell_angle_alpha 90.000000
_cell_angle_beta 90.000000
_cell_angle_gamma 90.000000
_cell_volume 2271.421865
_symmetry_space_group_name_H-M "C 2 2 21"
_symmetry_group_IT_number 20
_symmetry_cell_setting 'orthorhombic'
loop_
_space_group_symop_operation_xyz
x,y,z
-x,-y,1/2+z
x,-y,-z
-x,y,1/2-z
1/2+x,1/2+y,z
1/2-x,1/2-y,1/2+z
1/2+x,1/2-y,-z
1/2-x,1/2+y,1/2-z
loop_
_atom_site_type_symbol
_atom_site_label
_atom_site_fract_x
_atom_site_fract_y
_atom_site_fract_z
Si Si1 0.458783 0.135845 0.909049
Si Si2 0.694874 0.694667 0.810589
Si Si3 0.286194 0.802419 0.526300
Si Si4 0.791706 0.552948 0.077311
Si Si5 0.644073 0.394653 0.668043
Si Si6 0.034506 0.909542 0.096257
O O1 0.500000 0.109063 0.750000
O O2 0.342086 0.175786 0.860937
O O3 0.584485 0.165112 0.977177
O O4 0.396266 0.096994 0.029549
O O5 0.701154 0.703374 0.629493
O O6 0.595952 0.647876 0.862354
O O7 0.670036 0.747855 0.900664
O O8 0.208767 0.837294 0.650480
O O9 0.742980 0.565011 0.248012
O O10 0.843304 0.500000 0.000000
O O11 0.653532 0.562851 0.989052
O O12 0.500000 0.391107 0.750000
O O13 0.599833 0.409035 0.499765
O O14 0.000000 0.938050 0.250000
#
# Coordination Sequence:
#
# PCOD9318426 Si02
#       6
#     8   8   8   8   8   8
#     4   9  22  44  63  90 132 169 223 276 325 404
#     4  10  23  37  62  97 131 183 214 269 323 400
#     4  11  23  39  65  95 135 179 226 263 333 392
#     4  10  23  45  67  92 128 169 221 287 348 402
#     4  10  23  40  65  94 131 166 222 283 328 403
#     4  10  20  40  65  94 135 170 220 275 336 401
#
# _framework density 21.132138999999999
#
# number of rings (size 3 to 8) (size 9 to 14) (size 15 to 20)
#    0.000    2.000    1.667    0.000    9.333    3.333 
#    3.000    0.000    0.000    0.000    0.000    0.000 
#    0.000    0.000    0.000    0.000    0.000    0.000 
#
# Total GULP energy -133865.241435 kJ/mol
# GULP energy per Si atom -5577.718393 kJ/mol
# Density = 2.108404 g / cm^3
# Si number density = 21.132139 Si / 1000 Ang^3
#
#
#
# Elastic Constant Matrix: (Units=GPa)
#
#
# Indices 1 2 3 4 5 6 
#
# 1 60.1299 3.3481 19.4167 0.0000 0.0000 0.0000
# 2 3.3481 52.5589 22.7484 0.0000 0.0000 0.0000
# 3 19.4167 22.7484 93.5031 0.0000 0.0000 0.0000
# 4 0.0000 0.0000 0.0000 20.6394 0.0000 0.0000
# 5 0.0000 0.0000 0.0000 0.0000 28.8674 0.0000
# 6 0.0000 0.0000 0.0000 0.0000 0.0000 -17.0734
#
#
#
# Elastic Compliance Matrix: (Units=1/GPa)
#
#
# Indices 1 2 3 4 5 6 
#
# 1 0.017839 0.000522 -0.003831 0.000000 0.000000 0.000000
# 2 0.000522 0.021281 -0.005286 0.000000 0.000000 0.000000
# 3 -0.003831 -0.005286 0.012776 0.000000 0.000000 0.000000
# 4 0.000000 0.000000 0.000000 0.048451 0.000000 0.000000
# 5 0.000000 0.000000 0.000000 0.000000 0.034641 0.000000
# 6 0.000000 0.000000 0.000000 0.000000 0.000000 -0.058571
#
#
# Mechanical properties :
#
#
# Convention : Reuss Voigt Hill
#
# Bulk Modulus (GPa) = 28.81385 33.02426 30.91905
# Shear Modulus (GPa) = 47.53916 17.19860 32.36888
#
# Velocity S-wave (km/s) = 4.74816 2.85592 3.91799
# Velocity P-wave (km/s) = 6.61246 5.15135 5.92710
#
# Compressibility (1/GPa) = 0.03470554
#
# Stress axis : x y z
#
# Youngs Moduli (GPa) = 56.05759 46.99074 78.26913
#
# Poissons Ratio (x) = -0.02452 0.29988
# Poissons Ratio (y) = -0.02926 0.41371
# Poissons Ratio (z) = 0.21478 0.24838
#
# Static dielectric constant tensor:
#      x y z
#    x 1.761130 0.000000 0.000000 
#    y 0.000000 1.770440 0.000000 
#    z 0.000000 0.000000 1.909820 
# 
# From -- ./inp_files/7384.got.cif
#   From: 2010.05.17/outbox.cif.g08.bks.cpg/sg20_4_cif.got.tgz:7384.got - 2010.06.03 22:52:26.
