data_PCOD9318295
_publ_section_title
;
Structure prediction by ZEFSAII (Michael W. Deem and Ramdas Pophale) SiO2 
 PCOD9318295
Probable space group: C 2 2 21
;
_chemical_formula_sum "Si O2"
_cell_formula_units_Z 60
_cell_length_a 12.447807
_cell_length_b 11.825956
_cell_length_c 20.273704
_cell_angle_alpha 90.000000
_cell_angle_beta 90.000000
_cell_angle_gamma 90.000000
_cell_volume 2984.435562
_symmetry_space_group_name_H-M "C 2 2 21"
_symmetry_group_IT_number 20
_symmetry_cell_setting 'orthorhombic'
loop_
_space_group_symop_operation_xyz
x,y,z
-x,-y,1/2+z
x,-y,-z
-x,y,1/2-z
1/2+x,1/2+y,z
1/2-x,1/2-y,1/2+z
1/2+x,1/2-y,-z
1/2-x,1/2+y,1/2-z
loop_
_atom_site_type_symbol
_atom_site_label
_atom_site_fract_x
_atom_site_fract_y
_atom_site_fract_z
Si Si1 0.284664 0.772829 0.050540
Si Si2 0.545956 0.753763 0.915141
Si Si3 0.677092 0.587319 0.346800
Si Si4 0.000000 0.133313 0.250000
Si Si5 0.593206 0.078067 0.199840
Si Si6 0.319321 0.651968 0.908857
Si Si7 0.882462 0.674642 0.669174
Si Si8 0.011451 0.611835 0.538396
O O1 0.165230 0.796672 0.077541
O O2 0.340207 0.693330 0.105472
O O3 0.360028 0.882201 0.045936
O O4 0.286447 0.703504 0.980653
O O5 0.554221 0.866096 0.869519
O O6 0.443587 0.680170 0.893827
O O7 0.516532 0.787918 0.988989
O O8 0.577617 0.565353 0.298749
O O9 0.781695 0.614594 0.301962
O O10 0.698368 0.481883 0.396075
O O11 0.929701 0.218737 0.293966
O O12 0.500000 0.115256 0.250000
O O13 0.608216 0.942808 0.209171
O O14 0.237316 0.702292 0.855303
O O15 0.950272 0.637546 0.605049
O O16 0.976783 0.500000 0.500000
#
# Coordination Sequence:
#
# PCOD9318295 Si02
#       8
#     8   8   8   4   8   8   8   8
#     4  10  20  39  62  91 121 157 198 258 316 376
#     4  10  21  37  61  88 125 155 200 255 310 371
#     4  10  23  40  61  85 123 169 204 251 311 376
#     4  12  24  42  60  90 128 172 214 254 314 380
#     4  10  21  38  59  88 116 161 207 251 303 363
#     4  10  22  39  62  93 118 162 206 253 315 372
#     4  11  21  38  63  88 125 159 209 260 306 370
#     4  11  20  36  61  91 119 153 201 257 311 360
#
# _framework density 20.104303999999999
#
# number of rings (size 3 to 8) (size 9 to 14) (size 15 to 20)
#    0.000    1.600    4.667    0.400    1.867    0.000 
#    1.200    8.000    0.000    0.000    0.000    0.000 
#    0.000    0.000    0.000    0.000    0.000    0.000 
#
# Total GULP energy -167028.518119 kJ/mol
# GULP energy per Si atom -5567.617271 kJ/mol
# Density = 2.005855 g / cm^3
# Si number density = 20.104304 Si / 1000 Ang^3
#
#
#
# Elastic Constant Matrix: (Units=GPa)
#
#
# Indices 1 2 3 4 5 6 
#
# 1 107.0869 -2.0182 18.5779 0.0000 0.0000 0.0000
# 2 -2.0182 19.0091 -3.4067 0.0000 0.0000 0.0000
# 3 18.5779 -3.4067 48.1481 0.0000 0.0000 0.0000
# 4 0.0000 0.0000 0.0000 23.5891 0.0000 0.0000
# 5 0.0000 0.0000 0.0000 0.0000 39.1957 0.0000
# 6 0.0000 0.0000 0.0000 0.0000 0.0000 21.4114
#
#
#
# Elastic Compliance Matrix: (Units=1/GPa)
#
#
# Indices 1 2 3 4 5 6 
#
# 1 0.010011 0.000375 -0.003836 0.000000 0.000000 0.000000
# 2 0.000375 0.053296 0.003626 0.000000 0.000000 0.000000
# 3 -0.003836 0.003626 0.022506 0.000000 0.000000 0.000000
# 4 0.000000 0.000000 0.000000 0.042392 0.000000 0.000000
# 5 0.000000 0.000000 0.000000 0.000000 0.025513 0.000000
# 6 0.000000 0.000000 0.000000 0.000000 0.000000 0.046704
#
#
# Mechanical properties :
#
#
# Convention : Reuss Voigt Hill
#
# Bulk Modulus (GPa) = 11.60851 22.28335 16.94593
# Shear Modulus (GPa) = 21.85257 27.57867 24.71562
#
# Velocity S-wave (km/s) = 3.30048 3.70777 3.51004
# Velocity P-wave (km/s) = 4.50677 5.42568 4.98743
#
# Compressibility (1/GPa) = 0.08614368
#
# Stress axis : x y z
#
# Youngs Moduli (GPa) = 99.89229 18.76310 44.43266
#
# Poissons Ratio (x) = -0.00704 0.17045
# Poissons Ratio (y) = -0.03749 -0.16112
# Poissons Ratio (z) = 0.38320 -0.06804
#
# Static dielectric constant tensor:
#      x y z
#    x 1.787770 0.000000 0.000000 
#    y 0.000000 1.706960 0.000000 
#    z 0.000000 0.000000 1.707410 
# 
# From -- ./inp_files/27257.got.cif
#   From: 2010.05.17/outbox.cif.g08.bks.cpg/sg20_14_cif.got.tgz:27257.got - 2010.06.03 22:52:26.
