data_PCOD9318594
_publ_section_title
;
Structure prediction by ZEFSAII (Michael W. Deem and Ramdas Pophale) SiO2 
 PCOD9318594
Probable space group: C 2 2 21
;
_chemical_formula_sum "Si O2"
_cell_formula_units_Z 48
_cell_length_a 9.255291
_cell_length_b 22.490340
_cell_length_c 11.278706
_cell_angle_alpha 90.000000
_cell_angle_beta 90.000000
_cell_angle_gamma 90.000000
_cell_volume 2347.715003
_symmetry_space_group_name_H-M "C 2 2 21"
_symmetry_group_IT_number 20
_symmetry_cell_setting 'orthorhombic'
loop_
_space_group_symop_operation_xyz
x,y,z
-x,-y,1/2+z
x,-y,-z
-x,y,1/2-z
1/2+x,1/2+y,z
1/2-x,1/2-y,1/2+z
1/2+x,1/2-y,-z
1/2-x,1/2+y,1/2-z
loop_
_atom_site_type_symbol
_atom_site_label
_atom_site_fract_x
_atom_site_fract_y
_atom_site_fract_z
Si Si1 0.000000 0.313724 0.750000
Si Si2 0.227736 0.697047 0.073327
Si Si3 0.716408 0.438396 0.648077
Si Si4 0.992597 0.727474 0.888416
Si Si5 0.051565 0.500000 0.000000
Si Si6 0.115105 0.944372 0.918411
Si Si7 0.630743 0.879593 0.518875
O O1 0.871265 0.278945 0.682935
O O2 0.926298 0.352313 0.855727
O O3 0.231096 0.626578 0.103439
O O4 0.389772 0.720203 0.065178
O O5 0.142673 0.717849 0.956528
O O6 0.835888 0.485859 0.606586
O O7 0.686650 0.445925 0.787735
O O8 0.556673 0.443617 0.592696
O O9 0.000000 0.737234 0.750000
O O10 0.908967 0.666922 0.918563
O O11 0.951724 0.558447 0.993558
O O12 0.197791 0.888776 0.974992
O O13 0.152297 0.000000 0.000000
#
# Coordination Sequence:
#
# PCOD9318594 Si02
#       7
#     4   8   8   8   4   8   8
#     4  10  20  42  66  96 120 180 240 262 352 412
#     4  11  25  45  72  95 140 187 240 285 357 424
#     4  11  24  41  68  96 140 185 221 286 354 430
#     4  11  28  44  66 106 135 181 238 299 350 415
#     4  12  20  42  68  96 138 172 224 278 348 418
#     4  11  23  40  65 103 131 176 232 280 349 424
#     4  11  22  41  65  97 129 175 226 281 342 417
#
# _framework density 20.445412999999999
#
# number of rings (size 3 to 8) (size 9 to 14) (size 15 to 20)
#    0.000    1.000    6.667    0.000    9.333    1.333 
#    1.500    0.000    0.000    0.000    0.000    0.000 
#    0.000    0.000    0.000    0.000    0.000    0.000 
#
# Total GULP energy -133844.858293 kJ/mol
# GULP energy per Si atom -5576.869096 kJ/mol
# Density = 2.039888 g / cm^3
# Si number density = 20.445413 Si / 1000 Ang^3
#
#
#
# Elastic Constant Matrix: (Units=GPa)
#
#
# Indices 1 2 3 4 5 6 
#
# 1 80.5458 8.8715 52.4673 0.0000 0.0000 0.0000
# 2 8.8715 41.6557 22.0403 0.0000 0.0000 0.0000
# 3 52.4673 22.0403 76.2664 0.0000 0.0000 0.0000
# 4 0.0000 0.0000 0.0000 13.1622 0.0000 0.0000
# 5 0.0000 0.0000 0.0000 0.0000 29.7003 0.0000
# 6 0.0000 0.0000 0.0000 0.0000 0.0000 31.7386
#
#
#
# Elastic Compliance Matrix: (Units=1/GPa)
#
#
# Indices 1 2 3 4 5 6 
#
# 1 0.023079 0.004115 -0.017066 0.000000 0.000000 0.000000
# 2 0.004115 0.029073 -0.011233 0.000000 0.000000 0.000000
# 3 -0.017066 -0.011233 0.028099 0.000000 0.000000 0.000000
# 4 0.000000 0.000000 0.000000 0.075975 0.000000 0.000000
# 5 0.000000 0.000000 0.000000 0.000000 0.033670 0.000000
# 6 0.000000 0.000000 0.000000 0.000000 0.000000 0.031507
#
#
# Mechanical properties :
#
#
# Convention : Reuss Voigt Hill
#
# Bulk Modulus (GPa) = 31.36499 40.58067 35.97283
# Shear Modulus (GPa) = 17.83172 22.59280 20.21226
#
# Velocity S-wave (km/s) = 2.95644 3.32781 3.14761
# Velocity P-wave (km/s) = 5.19887 5.88703 5.55362
#
# Compressibility (1/GPa) = 0.03188268
#
# Stress axis : x y z
#
# Youngs Moduli (GPa) = 43.32948 34.39586 35.58882
#
# Poissons Ratio (x) = -0.14153 0.60737
# Poissons Ratio (y) = -0.17829 0.39975
# Poissons Ratio (z) = 0.73947 0.38635
#
# Static dielectric constant tensor:
#      x y z
#    x 1.781810 0.000000 0.000000 
#    y 0.000000 1.747160 0.000000 
#    z 0.000000 0.000000 1.796310 
# 
# From -- ./inp_files/13157.got.cif
#   From: 2010.05.17/outbox.cif.g08.bks.cpg/sg20_7_cif.got.tgz:13157.got - 2010.06.03 22:52:26.
