data_PCOD9318206
_publ_section_title
;
Structure prediction by ZEFSAII (Michael W. Deem and Ramdas Pophale) SiO2 
 PCOD9318206
Probable space group: C 2 2 21
;
_chemical_formula_sum "Si O2"
_cell_formula_units_Z 44
_cell_length_a 11.479640
_cell_length_b 15.456061
_cell_length_c 12.708223
_cell_angle_alpha 90.000000
_cell_angle_beta 90.000000
_cell_angle_gamma 90.000000
_cell_volume 2254.820211
_symmetry_space_group_name_H-M "C 2 2 21"
_symmetry_group_IT_number 20
_symmetry_cell_setting 'orthorhombic'
loop_
_space_group_symop_operation_xyz
x,y,z
-x,-y,1/2+z
x,-y,-z
-x,y,1/2-z
1/2+x,1/2+y,z
1/2-x,1/2-y,1/2+z
1/2+x,1/2-y,-z
1/2-x,1/2+y,1/2-z
loop_
_atom_site_type_symbol
_atom_site_label
_atom_site_fract_x
_atom_site_fract_y
_atom_site_fract_z
Si Si1 0.737748 0.328611 0.223805
Si Si2 0.758220 0.899487 0.505730
Si Si3 0.637155 0.650801 0.230965
Si Si4 0.681629 0.012699 0.202328
Si Si5 0.475763 0.912099 0.893263
Si Si6 0.500000 0.246113 0.250000
O O1 0.820806 0.245590 0.233023
O O2 0.786427 0.413390 0.281567
O O3 0.613962 0.300929 0.270569
O O4 0.713647 0.352694 0.102566
O O5 0.819533 0.859953 0.609278
O O6 0.616134 0.898822 0.514153
O O7 0.793557 0.000000 0.500000
O O8 0.500000 0.640921 0.250000
O O9 0.707500 0.576238 0.294536
O O10 0.608159 0.043207 0.305491
O O11 0.592899 0.032306 0.107764
O O12 0.515080 0.819242 0.847993
#
# Coordination Sequence:
#
# PCOD9318206 Si02
#       6
#     8   8   8   8   8   4
#     4  12  22  38  72  96 128 181 218 277 336 396
#     4  11  22  41  68  97 127 178 230 260 334 407
#     4  11  24  42  61  99 138 167 221 279 325 390
#     4   9  19  37  64  89 123 169 215 256 335 381
#     4   9  17  41  62  83 130 167 215 275 310 398
#     4  10  20  38  64  90 136 170 212 270 340 382
#
# _framework density 19.513750000000002
#
# number of rings (size 3 to 8) (size 9 to 14) (size 15 to 20)
#    0.000    1.818    9.091    0.000    3.818    1.455 
#    0.000    0.000    0.000    0.000    0.000    0.000 
#    0.000    0.000    0.000    0.000    0.000    0.000 
#
# Total GULP energy -122664.618875 kJ/mol
# GULP energy per Si atom -5575.664494 kJ/mol
# Density = 1.946934 g / cm^3
# Si number density = 19.513750 Si / 1000 Ang^3
#
#
#
# Elastic Constant Matrix: (Units=GPa)
#
#
# Indices 1 2 3 4 5 6 
#
# 1 147.0755 53.7278 15.3185 0.0000 0.0000 0.0000
# 2 53.7278 138.4638 31.1389 0.0000 0.0000 0.0000
# 3 15.3185 31.1389 67.2301 0.0000 0.0000 0.0000
# 4 0.0000 0.0000 0.0000 -1.8254 0.0000 0.0000
# 5 0.0000 0.0000 0.0000 0.0000 3.5908 0.0000
# 6 0.0000 0.0000 0.0000 0.0000 0.0000 198.2681
#
#
#
# Elastic Compliance Matrix: (Units=1/GPa)
#
#
# Indices 1 2 3 4 5 6 
#
# 1 0.007933 -0.002982 -0.000426 0.000000 0.000000 0.000000
# 2 -0.002982 0.009183 -0.003574 0.000000 0.000000 0.000000
# 3 -0.000426 -0.003574 0.016627 0.000000 0.000000 0.000000
# 4 0.000000 0.000000 0.000000 -0.547815 0.000000 0.000000
# 5 0.000000 0.000000 0.000000 0.000000 0.278488 0.000000
# 6 0.000000 0.000000 0.000000 0.000000 0.000000 0.005044
#
#
# Mechanical properties :
#
#
# Convention : Reuss Voigt Hill
#
# Bulk Modulus (GPa) = 50.56108 61.46000 56.01054
# Shear Modulus (GPa) = -23.81146 56.84564 16.51709
#
# Velocity S-wave (km/s) = -3.49698 5.40318 2.91251
# Velocity P-wave (km/s) = 3.10830 8.39582 6.33054
#
# Compressibility (1/GPa) = 0.01977806
#
# Stress axis : x y z
#
# Youngs Moduli (GPa) = 126.05376 108.89610 60.14436
#
# Poissons Ratio (x) = 0.32477 0.02563
# Poissons Ratio (y) = 0.37595 0.21494
# Poissons Ratio (z) = 0.05372 0.38917
#
# Static dielectric constant tensor:
#      x y z
#    x 1.707590 0.000000 0.000000 
#    y 0.000000 1.682310 0.000000 
#    z 0.000000 0.000000 -25.289710 
# 
# From -- ./inp_files/19874.got.cif
#   From: 2010.05.17/outbox.cif.g08.bks.cpg/sg20_10_cif.got.tgz:19874.got - 2010.06.03 22:52:26.
