data_PCOD9318990
_publ_section_title
;
Structure prediction by ZEFSAII (Michael W. Deem and Ramdas Pophale) SiO2 
 PCOD9318990
Probable space group: C 2 2 21
;
_chemical_formula_sum "Si O2"
_cell_formula_units_Z 56
_cell_length_a 12.920760
_cell_length_b 9.709362
_cell_length_c 18.660907
_cell_angle_alpha 90.000000
_cell_angle_beta 90.000000
_cell_angle_gamma 90.000000
_cell_volume 2341.054378
_symmetry_space_group_name_H-M "C 2 2 21"
_symmetry_group_IT_number 20
_symmetry_cell_setting 'orthorhombic'
loop_
_space_group_symop_operation_xyz
x,y,z
-x,-y,1/2+z
x,-y,-z
-x,y,1/2-z
1/2+x,1/2+y,z
1/2-x,1/2-y,1/2+z
1/2+x,1/2-y,-z
1/2-x,1/2+y,1/2-z
loop_
_atom_site_type_symbol
_atom_site_label
_atom_site_fract_x
_atom_site_fract_y
_atom_site_fract_z
Si Si1 0.465773 0.826821 0.667268
Si Si2 0.283785 0.793999 0.415437
Si Si3 0.766630 0.932598 0.832608
Si Si4 0.791979 0.361718 0.041106
Si Si5 0.011053 0.017841 0.664089
Si Si6 0.277158 0.527415 0.336154
Si Si7 0.982932 0.578266 0.566270
O O1 0.500000 0.839891 0.750000
O O2 0.511906 0.680161 0.639896
O O3 0.339049 0.840644 0.661148
O O4 0.505565 0.960230 0.624280
O O5 0.249111 0.938660 0.384775
O O6 0.257887 0.762369 0.498048
O O7 0.236280 0.671610 0.367628
O O8 0.406653 0.807113 0.405543
O O9 0.891281 0.914586 0.848054
O O10 0.764703 0.977048 0.748826
O O11 0.772562 0.397742 0.123574
O O12 0.914479 0.356894 0.033814
O O13 0.754431 0.500000 0.000000
O O14 0.000000 0.027718 0.750000
O O15 0.897283 0.972600 0.640925
O O16 0.929038 0.500000 0.500000
#
# Coordination Sequence:
#
# PCOD9318990 Si02
#       7
#     8   8   8   8   8   8   8
#     4  10  21  38  65  91 122 162 214 262 317 386
#     4  10  23  40  59  91 126 155 206 270 305 377
#     4  10  22  38  62  92 122 164 210 265 316 379
#     4   9  20  37  62  86 117 167 203 247 318 384
#     4   9  21  37  59  91 121 165 202 260 325 377
#     4  10  21  39  60  87 121 164 210 251 324 385
#     4  10  22  39  60  93 119 159 211 258 314 387
#
# _framework density 23.920846999999998
#
# number of rings (size 3 to 8) (size 9 to 14) (size 15 to 20)
#    0.000    2.286    0.000    0.857   14.000    0.000 
#    2.571   10.000    0.000    0.857    0.000    0.000 
#    0.000    0.000    0.000    0.000    0.000    0.000 
#
# Total GULP energy -156077.215373 kJ/mol
# GULP energy per Si atom -5574.186263 kJ/mol
# Density = 2.386640 g / cm^3
# Si number density = 23.920847 Si / 1000 Ang^3
#
#
#
# Elastic Constant Matrix: (Units=GPa)
#
#
# Indices 1 2 3 4 5 6 
#
# 1 118.2140 20.3450 -16.0755 0.0000 0.0000 0.0000
# 2 20.3450 71.5848 15.3296 0.0000 0.0000 0.0000
# 3 -16.0755 15.3296 46.4784 0.0000 0.0000 0.0000
# 4 0.0000 0.0000 0.0000 51.7276 0.0000 0.0000
# 5 0.0000 0.0000 0.0000 0.0000 28.2171 0.0000
# 6 0.0000 0.0000 0.0000 0.0000 0.0000 17.0325
#
#
#
# Elastic Compliance Matrix: (Units=1/GPa)
#
#
# Indices 1 2 3 4 5 6 
#
# 1 0.009731 -0.003751 0.004603 0.000000 0.000000 0.000000
# 2 -0.003751 0.016477 -0.006732 0.000000 0.000000 0.000000
# 3 0.004603 -0.006732 0.025328 0.000000 0.000000 0.000000
# 4 0.000000 0.000000 0.000000 0.019332 0.000000 0.000000
# 5 0.000000 0.000000 0.000000 0.000000 0.035440 0.000000
# 6 0.000000 0.000000 0.000000 0.000000 0.000000 0.058711
#
#
# Mechanical properties :
#
#
# Convention : Reuss Voigt Hill
#
# Bulk Modulus (GPa) = 25.14151 30.60836 27.87493
# Shear Modulus (GPa) = 26.31057 33.84063 30.07560
#
# Velocity S-wave (km/s) = 3.32007 3.76532 3.54968
# Velocity P-wave (km/s) = 5.02298 5.63267 5.33654
#
# Compressibility (1/GPa) = 0.03977486
#
# Stress axis : x y z
#
# Youngs Moduli (GPa) = 102.76688 60.68985 39.48246
#
# Poissons Ratio (x) = 0.22766 -0.18173
# Poissons Ratio (y) = 0.38550 0.26580
# Poissons Ratio (z) = -0.47302 0.40856
#
# Static dielectric constant tensor:
#      x y z
#    x 1.719870 0.000000 0.000000 
#    y 0.000000 1.936340 0.000000 
#    z 0.000000 0.000000 1.953960 
# 
# From -- ./inp_files/27188.got.cif
#   From: 2010.05.17/outbox.cif.g08.bks.cpg/sg20_14_cif.got.tgz:27188.got - 2010.06.03 22:52:26.
