data_PCOD9318560
_publ_section_title
;
Structure prediction by ZEFSAII (Michael W. Deem and Ramdas Pophale) SiO2 
 PCOD9318560
Probable space group: C 2 2 21
;
_chemical_formula_sum "Si O2"
_cell_formula_units_Z 52
_cell_length_a 10.817692
_cell_length_b 8.170472
_cell_length_c 27.530347
_cell_angle_alpha 90.000000
_cell_angle_beta 90.000000
_cell_angle_gamma 90.000000
_cell_volume 2433.287603
_symmetry_space_group_name_H-M "C 2 2 21"
_symmetry_group_IT_number 20
_symmetry_cell_setting 'orthorhombic'
loop_
_space_group_symop_operation_xyz
x,y,z
-x,-y,1/2+z
x,-y,-z
-x,y,1/2-z
1/2+x,1/2+y,z
1/2-x,1/2-y,1/2+z
1/2+x,1/2-y,-z
1/2-x,1/2+y,1/2-z
loop_
_atom_site_type_symbol
_atom_site_label
_atom_site_fract_x
_atom_site_fract_y
_atom_site_fract_z
Si Si1 0.994319 0.013559 0.377233
Si Si2 0.714062 0.484719 0.696960
Si Si3 0.091457 0.647005 0.592938
Si Si4 0.139162 0.841245 0.205797
Si Si5 0.961048 0.500000 0.500000
Si Si6 0.540033 0.046924 0.164044
Si Si7 0.866693 0.258129 0.571237
O O1 0.122947 0.988260 0.348153
O O2 0.888459 0.968910 0.337616
O O3 0.965807 0.886492 0.420367
O O4 0.004526 0.196051 0.397212
O O5 0.747593 0.290049 0.701570
O O6 0.654648 0.557793 0.745295
O O7 0.851963 0.559464 0.688851
O O8 0.042686 0.553739 0.545628
O O9 0.229798 0.696548 0.580932
O O10 0.077906 0.541752 0.642587
O O11 0.027543 0.707006 0.197618
O O12 0.880891 0.350020 0.520517
O O13 0.604543 0.116570 0.115156
#
# Coordination Sequence:
#
# PCOD9318560 Si02
#       7
#     8   8   8   8   4   8   8
#     4  11  21  40  65  93 126 172 213 256 322 378
#     4  10  20  42  61  94 133 169 219 267 305 369
#     4  11  22  43  67  91 128 163 209 265 321 395
#     4   9  21  37  61  94 127 168 219 258 311 362
#     4  10  26  44  66  98 128 156 208 272 326 388
#     4   8  20  41  60  91 127 167 208 260 312 363
#     4  10  22  46  65  97 127 163 210 259 330 388
#
# _framework density 21.370265
#
# number of rings (size 3 to 8) (size 9 to 14) (size 15 to 20)
#    0.923    1.231    1.538    0.462    2.154    3.077 
#    8.308    9.231    0.000    0.000    0.000    0.000 
#    0.000    0.000    0.000    0.000    0.000    0.000 
#
# Total GULP energy -144747.233735 kJ/mol
# GULP energy per Si atom -5567.201297 kJ/mol
# Density = 2.132163 g / cm^3
# Si number density = 21.370265 Si / 1000 Ang^3
#
#
#
# Elastic Constant Matrix: (Units=GPa)
#
#
# Indices 1 2 3 4 5 6 
#
# 1 81.9264 38.0482 19.2129 0.0000 0.0000 0.0000
# 2 38.0482 80.6041 29.9277 0.0000 0.0000 0.0000
# 3 19.2129 29.9277 69.6865 0.0000 0.0000 0.0000
# 4 0.0000 0.0000 0.0000 43.1241 0.0000 0.0000
# 5 0.0000 0.0000 0.0000 0.0000 17.1467 0.0000
# 6 0.0000 0.0000 0.0000 0.0000 0.0000 34.7288
#
#
#
# Elastic Compliance Matrix: (Units=1/GPa)
#
#
# Indices 1 2 3 4 5 6 
#
# 1 0.015742 -0.006923 -0.001367 0.000000 0.000000 0.000000
# 2 -0.006923 0.017805 -0.005738 0.000000 0.000000 0.000000
# 3 -0.001367 -0.005738 0.017191 0.000000 0.000000 0.000000
# 4 0.000000 0.000000 0.000000 0.023189 0.000000 0.000000
# 5 0.000000 0.000000 0.000000 0.000000 0.058320 0.000000
# 6 0.000000 0.000000 0.000000 0.000000 0.000000 0.028795
#
#
# Mechanical properties :
#
#
# Convention : Reuss Voigt Hill
#
# Bulk Modulus (GPa) = 44.08783 45.17718 44.63251
# Shear Modulus (GPa) = 25.42491 28.66847 27.04669
#
# Velocity S-wave (km/s) = 3.45299 3.66664 3.56142
# Velocity P-wave (km/s) = 6.04754 6.25394 6.15161
#
# Compressibility (1/GPa) = 0.02268200
#
# Stress axis : x y z
#
# Youngs Moduli (GPa) = 63.52466 56.16496 58.17023
#
# Poissons Ratio (x) = 0.38885 0.07951
# Poissons Ratio (y) = 0.43980 0.33376
# Poissons Ratio (z) = 0.08683 0.32225
#
# Static dielectric constant tensor:
#      x y z
#    x 1.820780 0.000000 0.000000 
#    y 0.000000 1.834630 0.000000 
#    z 0.000000 0.000000 1.795650 
# 
# From -- ./inp_files/31147.got.cif
#   From: 2010.05.17/outbox.cif.g08.bks.cpg/sg20_16_cif.got.tgz:31147.got - 2010.06.03 22:52:26.
