data_PCOD9318919
_publ_section_title
;
Structure prediction by ZEFSAII (Michael W. Deem and Ramdas Pophale) SiO2 
 PCOD9318919
Probable space group: C 2 2 21
;
_chemical_formula_sum "Si O2"
_cell_formula_units_Z 44
_cell_length_a 17.133973
_cell_length_b 12.449314
_cell_length_c 10.497173
_cell_angle_alpha 90.000000
_cell_angle_beta 90.000000
_cell_angle_gamma 90.000000
_cell_volume 2239.112188
_symmetry_space_group_name_H-M "C 2 2 21"
_symmetry_group_IT_number 20
_symmetry_cell_setting 'orthorhombic'
loop_
_space_group_symop_operation_xyz
x,y,z
-x,-y,1/2+z
x,-y,-z
-x,y,1/2-z
1/2+x,1/2+y,z
1/2-x,1/2-y,1/2+z
1/2+x,1/2-y,-z
1/2-x,1/2+y,1/2-z
loop_
_atom_site_type_symbol
_atom_site_label
_atom_site_fract_x
_atom_site_fract_y
_atom_site_fract_z
Si Si1 0.091133 0.712418 0.291279
Si Si2 0.000000 0.336716 0.250000
Si Si3 0.902797 0.000000 0.500000
Si Si4 0.471081 0.323800 0.966401
Si Si5 0.808848 0.082019 0.728760
Si Si6 0.359584 0.980614 0.151037
Si Si7 0.649130 0.500000 0.500000
O O1 0.077104 0.752393 0.434812
O O2 0.142890 0.805806 0.226023
O O3 0.134943 0.599149 0.286583
O O4 0.000000 0.702330 0.250000
O O5 0.990424 0.255534 0.366742
O O6 0.071982 0.411208 0.286915
O O7 0.852510 0.000929 0.629943
O O8 0.959104 0.102245 0.516902
O O9 0.407003 0.413141 0.929454
O O10 0.720998 0.080757 0.677541
O O11 0.806858 0.049547 0.878630
O O12 0.370530 0.000000 0.000000
#
# Coordination Sequence:
#
# PCOD9318919 Si02
#       7
#     8   4   4   8   8   8   4
#     4  11  22  44  69  96 138 180 225 278 348 413
#     4  12  24  42  68  96 134 186 234 290 348 428
#     4  11  20  38  72 103 138 176 234 289 354 410
#     4  10  21  37  69 101 131 176 233 276 345 414
#     4  11  24  43  67 100 137 181 226 292 351 407
#     4  12  26  47  68  98 137 185 236 292 350 432
#     4   9  22  42  64 101 142 172 224 295 334 418
#
# _framework density 19.650645999999998
#
# number of rings (size 3 to 8) (size 9 to 14) (size 15 to 20)
#    0.000    1.091    5.455    1.091    0.000    2.909 
#    4.909    0.000    0.000    0.000    0.000    0.000 
#    0.000    0.000    0.000    0.000    0.000    0.000 
#
# Total GULP energy -122523.506280 kJ/mol
# GULP energy per Si atom -5569.250285 kJ/mol
# Density = 1.960592 g / cm^3
# Si number density = 19.650646 Si / 1000 Ang^3
#
#
#
# Elastic Constant Matrix: (Units=GPa)
#
#
# Indices 1 2 3 4 5 6 
#
# 1 100.9134 33.2174 22.4111 0.0000 0.0000 0.0000
# 2 33.2174 95.3822 32.8662 0.0000 0.0000 0.0000
# 3 22.4111 32.8662 66.7186 0.0000 0.0000 0.0000
# 4 0.0000 0.0000 0.0000 29.0788 0.0000 0.0000
# 5 0.0000 0.0000 0.0000 0.0000 23.4235 0.0000
# 6 0.0000 0.0000 0.0000 0.0000 0.0000 31.6286
#
#
#
# Elastic Compliance Matrix: (Units=1/GPa)
#
#
# Indices 1 2 3 4 5 6 
#
# 1 0.011471 -0.003212 -0.002271 0.000000 0.000000 0.000000
# 2 -0.003212 0.013527 -0.005585 0.000000 0.000000 0.000000
# 3 -0.002271 -0.005585 0.018502 0.000000 0.000000 0.000000
# 4 0.000000 0.000000 0.000000 0.034389 0.000000 0.000000
# 5 0.000000 0.000000 0.000000 0.000000 0.042692 0.000000
# 6 0.000000 0.000000 0.000000 0.000000 0.000000 0.031617
#
#
# Mechanical properties :
#
#
# Convention : Reuss Voigt Hill
#
# Bulk Modulus (GPa) = 46.80559 48.88929 47.84744
# Shear Modulus (GPa) = 27.55488 28.46081 28.00784
#
# Velocity S-wave (km/s) = 3.74871 3.80983 3.77940
# Velocity P-wave (km/s) = 6.52745 6.65480 6.59143
#
# Compressibility (1/GPa) = 0.02136497
#
# Stress axis : x y z
#
# Youngs Moduli (GPa) = 87.17466 73.92526 54.04806
#
# Poissons Ratio (x) = 0.23748 0.12273
# Poissons Ratio (y) = 0.28005 0.30183
# Poissons Ratio (z) = 0.19795 0.41284
#
# Static dielectric constant tensor:
#      x y z
#    x 1.699480 0.000000 0.000000 
#    y 0.000000 1.705370 0.000000 
#    z 0.000000 0.000000 1.641780 
# 
# From -- ./inp_files/15690.got.cif
#   From: 2010.05.17/outbox.cif.g08.bks.cpg/sg20_8_cif.got.tgz:15690.got - 2010.06.03 22:52:26.
