data_PCOD9318223
_publ_section_title
;
Structure prediction by ZEFSAII (Michael W. Deem and Ramdas Pophale) SiO2 
 PCOD9318223
Probable space group: C 2 2 21
;
_chemical_formula_sum "Si O2"
_cell_formula_units_Z 60
_cell_length_a 7.913859
_cell_length_b 27.696025
_cell_length_c 12.330625
_cell_angle_alpha 90.000000
_cell_angle_beta 90.000000
_cell_angle_gamma 90.000000
_cell_volume 2702.656434
_symmetry_space_group_name_H-M "C 2 2 21"
_symmetry_group_IT_number 20
_symmetry_cell_setting 'orthorhombic'
loop_
_space_group_symop_operation_xyz
x,y,z
-x,-y,1/2+z
x,-y,-z
-x,y,1/2-z
1/2+x,1/2+y,z
1/2-x,1/2-y,1/2+z
1/2+x,1/2-y,-z
1/2-x,1/2+y,1/2-z
loop_
_atom_site_type_symbol
_atom_site_label
_atom_site_fract_x
_atom_site_fract_y
_atom_site_fract_z
Si Si1 0.466680 0.594199 0.072328
Si Si2 0.973818 0.724489 0.120706
Si Si3 0.185836 0.372054 0.300103
Si Si4 0.591213 0.121471 0.134560
Si Si5 0.566818 0.051192 0.538733
Si Si6 0.500000 0.474530 0.750000
Si Si7 0.698556 0.556270 0.637364
Si Si8 0.657854 0.311415 0.009921
O O1 0.285036 0.605150 0.128328
O O2 0.564892 0.559995 0.154634
O O3 0.421160 0.564605 0.964767
O O4 0.561323 0.643037 0.041457
O O5 0.000000 0.733570 0.250000
O O6 0.083360 0.676701 0.094100
O O7 0.033729 0.769808 0.051116
O O8 0.787490 0.709426 0.079655
O O9 0.297382 0.392409 0.201082
O O10 0.248158 0.330347 0.380221
O O11 0.000000 0.361730 0.250000
O O12 0.177185 0.419263 0.376796
O O13 0.500000 0.120998 0.250000
O O14 0.480481 0.087215 0.058098
O O15 0.386749 0.044186 0.598153
O O16 0.633231 0.000000 0.500000
O O17 0.639273 0.510715 0.704793
#
# Coordination Sequence:
#
# PCOD9318223 Si02
#       8
#     8   8   8   8   8   4   8   8
#     4  11  26  41  72  99 145 192 238 302 367 434
#     4  11  27  47  76 103 141 184 243 309 380 444
#     4  10  23  40  68 103 141 185 245 301 360 434
#     4  10  22  45  68 100 143 184 232 298 361 442
#     4  10  20  38  65  99 140 189 232 286 351 427
#     4  12  24  40  64 100 144 196 238 300 350 442
#     4  10  22  42  62 100 142 190 245 282 361 433
#     4  12  26  49  71 108 138 190 245 308 377 454
#
# _framework density 22.200381
#
# number of rings (size 3 to 8) (size 9 to 14) (size 15 to 20)
#    0.000    1.333    1.333    3.600    5.600    4.800 
#    0.000    0.000    0.000    0.000    0.000    0.000 
#    0.000    0.000    0.000    0.000    0.000    0.000 
#
# Total GULP energy -167863.465402 kJ/mol
# GULP energy per Si atom -5595.448847 kJ/mol
# Density = 2.214985 g / cm^3
# Si number density = 22.200381 Si / 1000 Ang^3
#
#
#
# Elastic Constant Matrix: (Units=GPa)
#
#
# Indices 1 2 3 4 5 6 
#
# 1 62.4549 36.0604 42.5181 0.0000 0.0000 0.0000
# 2 36.0604 114.1279 45.4152 0.0000 0.0000 0.0000
# 3 42.5181 45.4152 98.3961 0.0000 0.0000 0.0000
# 4 0.0000 0.0000 0.0000 -112.6905 0.0000 0.0000
# 5 0.0000 0.0000 0.0000 0.0000 26.3978 0.0000
# 6 0.0000 0.0000 0.0000 0.0000 0.0000 15.9309
#
#
#
# Elastic Compliance Matrix: (Units=1/GPa)
#
#
# Indices 1 2 3 4 5 6 
#
# 1 0.024282 -0.004284 -0.008515 0.000000 0.000000 0.000000
# 2 -0.004284 0.011489 -0.003452 0.000000 0.000000 0.000000
# 3 -0.008515 -0.003452 0.015436 0.000000 0.000000 0.000000
# 4 0.000000 0.000000 0.000000 -0.008874 0.000000 0.000000
# 5 0.000000 0.000000 0.000000 0.000000 0.037882 0.000000
# 6 0.000000 0.000000 0.000000 0.000000 0.000000 0.062771
#
#
# Mechanical properties :
#
#
# Convention : Reuss Voigt Hill
#
# Bulk Modulus (GPa) = 53.46123 58.10738 55.78431
# Shear Modulus (GPa) = 27.51438 -4.00667 11.75385
#
# Velocity S-wave (km/s) = 3.52428 -1.34488 2.30346
# Velocity P-wave (km/s) = 6.37920 4.88050 5.67950
#
# Compressibility (1/GPa) = 0.01870514
#
# Stress axis : x y z
#
# Youngs Moduli (GPa) = 41.18271 87.03818 64.78434
#
# Poissons Ratio (x) = 0.37285 0.55166
# Poissons Ratio (y) = 0.17642 0.22363
# Poissons Ratio (z) = 0.35069 0.30044
#
# Static dielectric constant tensor:
#      x y z
#    x 1.908730 0.000000 0.000000 
#    y 0.000000 1.782670 0.000000 
#    z 0.000000 0.000000 1.860630 
# 
# From -- ./inp_files/13280.got.cif
#   From: 2010.05.17/outbox.cif.g08.bks.cpg/sg20_7_cif.got.tgz:13280.got - 2010.06.03 22:52:26.
