data_PCOD9318661
_publ_section_title
;
Structure prediction by ZEFSAII (Michael W. Deem and Ramdas Pophale) SiO2 
 PCOD9318661
Probable space group: C 2 2 21
;
_chemical_formula_sum "Si O2"
_cell_formula_units_Z 48
_cell_length_a 31.560868
_cell_length_b 7.700658
_cell_length_c 9.026282
_cell_angle_alpha 90.000000
_cell_angle_beta 90.000000
_cell_angle_gamma 90.000000
_cell_volume 2193.742619
_symmetry_space_group_name_H-M "C 2 2 21"
_symmetry_group_IT_number 20
_symmetry_cell_setting 'orthorhombic'
loop_
_space_group_symop_operation_xyz
x,y,z
-x,-y,1/2+z
x,-y,-z
-x,y,1/2-z
1/2+x,1/2+y,z
1/2-x,1/2-y,1/2+z
1/2+x,1/2-y,-z
1/2-x,1/2+y,1/2-z
loop_
_atom_site_type_symbol
_atom_site_label
_atom_site_fract_x
_atom_site_fract_y
_atom_site_fract_z
Si Si1 0.715713 0.518332 0.325576
Si Si2 0.926026 0.800393 0.361258
Si Si3 0.603305 0.016067 0.676468
Si Si4 0.173014 0.826310 0.084012
Si Si5 0.953517 0.810776 0.687441
Si Si6 0.807309 0.388384 0.307804
O O1 0.712703 0.500000 0.500000
O O2 0.690348 0.361987 0.246847
O O3 0.764576 0.494267 0.278742
O O4 0.697585 0.705019 0.278953
O O5 0.923782 0.643210 0.245525
O O6 0.877486 0.823508 0.413212
O O7 0.951218 0.763111 0.512815
O O8 0.941902 0.984958 0.299961
O O9 0.606783 0.000000 0.500000
O O10 0.580188 0.192884 0.726115
O O11 0.649799 0.020429 0.752488
O O12 0.189038 0.673562 0.979141
O O13 0.187785 0.000000 0.000000
O O14 0.000000 0.780317 0.750000
#
# Coordination Sequence:
#
# PCOD9318661 Si02
#       6
#     8   8   8   8   8   8
#     4  11  25  39  67 103 141 193 259 318 365 432
#     4  11  24  49  80 104 152 201 241 308 387 459
#     4  12  29  45  73 113 154 201 255 312 377 459
#     4  10  20  43  70  96 144 193 247 297 382 443
#     4  11  25  49  81 116 143 189 252 308 391 470
#     4  11  25  44  64 103 147 202 253 312 376 437
#
# _framework density 21.880414999999999
#
# number of rings (size 3 to 8) (size 9 to 14) (size 15 to 20)
#    0.000    1.000    3.333    2.500    7.000    7.333 
#    0.000    0.000    0.000    0.000    0.000    0.000 
#    0.000    0.000    0.000    0.000    0.000    0.000 
#
# Total GULP energy -134311.393319 kJ/mol
# GULP energy per Si atom -5596.308055 kJ/mol
# Density = 2.183061 g / cm^3
# Si number density = 21.880415 Si / 1000 Ang^3
#
#
#
# Elastic Constant Matrix: (Units=GPa)
#
#
# Indices 1 2 3 4 5 6 
#
# 1 101.3434 16.2974 36.7125 0.0000 0.0000 0.0000
# 2 16.2974 107.7475 56.3199 0.0000 0.0000 0.0000
# 3 36.7125 56.3199 137.7340 0.0000 0.0000 0.0000
# 4 0.0000 0.0000 0.0000 24.0694 0.0000 0.0000
# 5 0.0000 0.0000 0.0000 0.0000 39.0640 0.0000
# 6 0.0000 0.0000 0.0000 0.0000 0.0000 20.7605
#
#
#
# Elastic Compliance Matrix: (Units=1/GPa)
#
#
# Indices 1 2 3 4 5 6 
#
# 1 0.010924 -0.000166 -0.002844 0.000000 0.000000 0.000000
# 2 -0.000166 0.011806 -0.004783 0.000000 0.000000 0.000000
# 3 -0.002844 -0.004783 0.009974 0.000000 0.000000 0.000000
# 4 0.000000 0.000000 0.000000 0.041547 0.000000 0.000000
# 5 0.000000 0.000000 0.000000 0.000000 0.025599 0.000000
# 6 0.000000 0.000000 0.000000 0.000000 0.000000 0.048168
#
#
# Mechanical properties :
#
#
# Convention : Reuss Voigt Hill
#
# Bulk Modulus (GPa) = 58.41619 62.83163 60.62391
# Shear Modulus (GPa) = 29.53127 32.61178 31.07152
#
# Velocity S-wave (km/s) = 3.67777 3.86483 3.77246
# Velocity P-wave (km/s) = 6.69257 6.97812 6.83684
#
# Compressibility (1/GPa) = 0.01711854
#
# Stress axis : x y z
#
# Youngs Moduli (GPa) = 91.53828 84.70002 100.25636
#
# Poissons Ratio (x) = 0.01404 0.28514
# Poissons Ratio (y) = 0.01517 0.47957
# Poissons Ratio (z) = 0.26034 0.40516
#
# Static dielectric constant tensor:
#      x y z
#    x 1.753910 0.000000 0.000000 
#    y 0.000000 1.875240 0.000000 
#    z 0.000000 0.000000 1.795100 
# 
# From -- ./inp_files/11447.got.cif
#   From: 2010.05.17/outbox.cif.g08.bks.cpg/sg20_6_cif.got.tgz:11447.got - 2010.06.03 22:52:26.
