data_PCOD9318736
_publ_section_title
;
Structure prediction by ZEFSAII (Michael W. Deem and Ramdas Pophale) SiO2 
 PCOD9318736
Probable space group: C 2 2 21
;
_chemical_formula_sum "Si O2"
_cell_formula_units_Z 48
_cell_length_a 17.085465
_cell_length_b 6.338723
_cell_length_c 22.809139
_cell_angle_alpha 90.000000
_cell_angle_beta 90.000000
_cell_angle_gamma 90.000000
_cell_volume 2470.230437
_symmetry_space_group_name_H-M "C 2 2 21"
_symmetry_group_IT_number 20
_symmetry_cell_setting 'orthorhombic'
loop_
_space_group_symop_operation_xyz
x,y,z
-x,-y,1/2+z
x,-y,-z
-x,y,1/2-z
1/2+x,1/2+y,z
1/2-x,1/2-y,1/2+z
1/2+x,1/2-y,-z
1/2-x,1/2+y,1/2-z
loop_
_atom_site_type_symbol
_atom_site_label
_atom_site_fract_x
_atom_site_fract_y
_atom_site_fract_z
Si Si1 0.023356 0.955599 0.683309
Si Si2 0.765641 0.489149 0.372241
Si Si3 0.859511 0.634424 0.854868
Si Si4 0.831064 0.756584 0.217382
Si Si5 0.637280 0.654702 0.851855
Si Si6 0.255727 0.093559 0.064039
O O1 0.093759 0.124079 0.689825
O O2 0.000000 0.897749 0.750000
O O3 0.949598 0.064766 0.652864
O O4 0.058117 0.750487 0.651352
O O5 0.703079 0.677626 0.364514
O O6 0.745622 0.339719 0.316703
O O7 0.848667 0.605777 0.373806
O O8 0.750977 0.343909 0.428357
O O9 0.843236 0.489405 0.797739
O O10 0.838849 0.478994 0.908307
O O11 0.831270 0.823841 0.284874
O O12 0.688714 0.504863 0.893586
O O13 0.246731 0.000000 0.000000
#
# Coordination Sequence:
#
# PCOD9318736 Si02
#       6
#     8   8   8   8   8   8
#     4   9  19  35  53  86 122 156 191 233 309 374
#     4   9  20  33  56  87 113 145 193 242 292 352
#     4   9  19  36  57  83 115 155 194 246 292 361
#     4   9  19  33  54  83 121 149 185 234 304 370
#     4  10  21  32  57  87 117 156 191 248 304 357
#     4  10  22  40  60  85 116 162 212 253 294 345
#
# _framework density 19.431384999999999
#
# number of rings (size 3 to 8) (size 9 to 14) (size 15 to 20)
#    0.000    2.667    0.000    0.000    7.000    8.667 
#    0.000    0.000   11.000    0.000    0.000    0.000 
#    0.000    0.000    0.000    0.000    0.000    0.000 
#
# Total GULP energy -133686.268786 kJ/mol
# GULP energy per Si atom -5570.261199 kJ/mol
# Density = 1.938716 g / cm^3
# Si number density = 19.431385 Si / 1000 Ang^3
#
#
#
# Elastic Constant Matrix: (Units=GPa)
#
#
# Indices 1 2 3 4 5 6 
#
# 1 92.5710 38.1611 26.6168 0.0000 0.0000 0.0000
# 2 38.1611 88.5901 12.9787 0.0000 0.0000 0.0000
# 3 26.6168 12.9787 60.0117 0.0000 0.0000 0.0000
# 4 0.0000 0.0000 0.0000 21.7339 0.0000 0.0000
# 5 0.0000 0.0000 0.0000 0.0000 13.8034 0.0000
# 6 0.0000 0.0000 0.0000 0.0000 0.0000 36.5519
#
#
#
# Elastic Compliance Matrix: (Units=1/GPa)
#
#
# Indices 1 2 3 4 5 6 
#
# 1 0.014593 -0.005513 -0.005280 0.000000 0.000000 0.000000
# 2 -0.005513 0.013740 -0.000526 0.000000 0.000000 0.000000
# 3 -0.005280 -0.000526 0.019119 0.000000 0.000000 0.000000
# 4 0.000000 0.000000 0.000000 0.046011 0.000000 0.000000
# 5 0.000000 0.000000 0.000000 0.000000 0.072446 0.000000
# 6 0.000000 0.000000 0.000000 0.000000 0.000000 0.027358
#
#
# Mechanical properties :
#
#
# Convention : Reuss Voigt Hill
#
# Bulk Modulus (GPa) = 40.30083 44.07624 42.18854
# Shear Modulus (GPa) = 22.30373 25.31224 23.80799
#
# Velocity S-wave (km/s) = 3.39162 3.61314 3.50413
# Velocity P-wave (km/s) = 6.01021 6.33550 6.17500
#
# Compressibility (1/GPa) = 0.02481338
#
# Stress axis : x y z
#
# Youngs Moduli (GPa) = 68.52487 72.78190 52.30335
#
# Poissons Ratio (x) = 0.40122 0.27618
# Poissons Ratio (y) = 0.37775 0.02754
# Poissons Ratio (z) = 0.36183 0.03832
#
# Static dielectric constant tensor:
#      x y z
#    x 1.710420 0.000000 0.000000 
#    y 0.000000 1.768150 0.000000 
#    z 0.000000 0.000000 1.691040 
# 
# From -- ./inp_files/27847.got.cif
#   From: 2010.05.17/outbox.cif.g08.bks.cpg/sg20_14_cif.got.tgz:27847.got - 2010.06.03 22:52:26.
