data_PCOD9318203
_publ_section_title
;
Structure prediction by ZEFSAII (Michael W. Deem and Ramdas Pophale) SiO2 
 PCOD9318203
Probable space group: C 2 2 21
;
_chemical_formula_sum "Si O2"
_cell_formula_units_Z 40
_cell_length_a 23.699137
_cell_length_b 7.610236
_cell_length_c 9.650112
_cell_angle_alpha 90.000000
_cell_angle_beta 90.000000
_cell_angle_gamma 90.000000
_cell_volume 1740.455847
_symmetry_space_group_name_H-M "C 2 2 21"
_symmetry_group_IT_number 20
_symmetry_cell_setting 'orthorhombic'
loop_
_space_group_symop_operation_xyz
x,y,z
-x,-y,1/2+z
x,-y,-z
-x,y,1/2-z
1/2+x,1/2+y,z
1/2-x,1/2-y,1/2+z
1/2+x,1/2-y,-z
1/2-x,1/2+y,1/2-z
loop_
_atom_site_type_symbol
_atom_site_label
_atom_site_fract_x
_atom_site_fract_y
_atom_site_fract_z
Si Si1 0.443389 0.942559 0.838259
Si Si2 0.171892 0.888753 0.640629
Si Si3 0.241080 0.171483 0.777284
Si Si4 0.661700 0.001768 0.155339
Si Si5 0.947734 0.022676 0.842625
O O1 0.500000 0.983619 0.750000
O O2 0.434704 0.730393 0.826480
O O3 0.389021 0.023970 0.762182
O O4 0.447345 0.000000 0.000000
O O5 0.205405 0.994545 0.760700
O O6 0.106802 0.901706 0.680995
O O7 0.174042 0.000000 0.500000
O O8 0.209838 0.716544 0.610675
O O9 0.287442 0.141241 0.654184
O O10 0.194278 0.321233 0.796701
O O11 0.638507 0.000000 0.000000
O O12 0.000000 0.972242 0.750000
O O13 0.965541 0.000000 0.000000
#
# Coordination Sequence:
#
# PCOD9318203 Si02
#       5
#     8   8   8   8   8
#     4  11  25  45  70  97 130 173 220 274 334 394
#     4  10  21  40  61  91 128 168 210 269 311 386
#     4  10  20  38  64  89 131 172 210 255 323 374
#     4  11  24  42  65 100 135 173 220 276 321 396
#     4  10  23  45  67  93 128 166 216 266 322 388
#
# _framework density 22.982483999999999
#
# number of rings (size 3 to 8) (size 9 to 14) (size 15 to 20)
#    0.000    1.600    2.000    3.000    5.600    2.400 
#    7.200   12.000    0.000    0.000    0.000    0.000 
#    0.000    0.000    0.000    0.000    0.000    0.000 
#
# Total GULP energy -111349.985676 kJ/mol
# GULP energy per Si atom -5567.499284 kJ/mol
# Density = 2.293017 g / cm^3
# Si number density = 22.982484 Si / 1000 Ang^3
#
#
#
# Elastic Constant Matrix: (Units=GPa)
#
#
# Indices 1 2 3 4 5 6 
#
# 1 172.1573 28.2052 98.0286 0.0000 0.0000 0.0000
# 2 28.2052 92.2717 31.9791 0.0000 0.0000 0.0000
# 3 98.0286 31.9791 107.7815 0.0000 0.0000 0.0000
# 4 0.0000 0.0000 0.0000 9.0221 0.0000 0.0000
# 5 0.0000 0.0000 0.0000 0.0000 34.7335 0.0000
# 6 0.0000 0.0000 0.0000 0.0000 0.0000 21.1230
#
#
#
# Elastic Compliance Matrix: (Units=1/GPa)
#
#
# Indices 1 2 3 4 5 6 
#
# 1 0.012050 0.000128 -0.010997 0.000000 0.000000 0.000000
# 2 0.000128 0.012081 -0.003701 0.000000 0.000000 0.000000
# 3 -0.010997 -0.003701 0.020378 0.000000 0.000000 0.000000
# 4 0.000000 0.000000 0.000000 0.110839 0.000000 0.000000
# 5 0.000000 0.000000 0.000000 0.000000 0.028791 0.000000
# 6 0.000000 0.000000 0.000000 0.000000 0.000000 0.047342
#
#
# Mechanical properties :
#
#
# Convention : Reuss Voigt Hill
#
# Bulk Modulus (GPa) = 65.06766 76.51515 70.79141
# Shear Modulus (GPa) = 18.81509 27.24221 23.02865
#
# Velocity S-wave (km/s) = 2.86435 3.44662 3.16889
# Velocity P-wave (km/s) = 6.26998 7.01456 6.65269
#
# Compressibility (1/GPa) = 0.01536862
#
# Stress axis : x y z
#
# Youngs Moduli (GPa) = 82.98977 82.77405 49.07172
#
# Poissons Ratio (x) = -0.01060 0.53966
# Poissons Ratio (y) = -0.01063 0.18162
# Poissons Ratio (z) = 0.91267 0.30635
#
# Static dielectric constant tensor:
#      x y z
#    x 1.853080 0.000000 0.000000 
#    y 0.000000 2.105100 0.000000 
#    z 0.000000 0.000000 1.873420 
# 
# From -- ./inp_files/10487.got.cif
#   From: 2010.05.17/outbox.cif.g08.bks.cpg/sg20_6_cif.got.tgz:10487.got - 2010.06.03 22:52:26.
