data_PCOD9318184
_publ_section_title
;
Structure prediction by ZEFSAII (Michael W. Deem and Ramdas Pophale) SiO2 
 PCOD9318184
Probable space group: C 2 2 21
;
_chemical_formula_sum "Si O2"
_cell_formula_units_Z 64
_cell_length_a 11.840722
_cell_length_b 19.134916
_cell_length_c 14.424994
_cell_angle_alpha 90.000000
_cell_angle_beta 90.000000
_cell_angle_gamma 90.000000
_cell_volume 3268.288501
_symmetry_space_group_name_H-M "C 2 2 21"
_symmetry_group_IT_number 20
_symmetry_cell_setting 'orthorhombic'
loop_
_space_group_symop_operation_xyz
x,y,z
-x,-y,1/2+z
x,-y,-z
-x,y,1/2-z
1/2+x,1/2+y,z
1/2-x,1/2-y,1/2+z
1/2+x,1/2-y,-z
1/2-x,1/2+y,1/2-z
loop_
_atom_site_type_symbol
_atom_site_label
_atom_site_fract_x
_atom_site_fract_y
_atom_site_fract_z
Si Si1 0.038435 0.506580 0.855110
Si Si2 0.501790 0.682307 0.646352
Si Si3 0.536200 0.885738 0.510419
Si Si4 0.798882 0.280224 0.913678
Si Si5 0.392300 0.356092 0.690660
Si Si6 0.520380 0.423830 0.520703
Si Si7 0.233424 0.072334 0.349275
Si Si8 0.339063 0.790828 0.569462
O O1 0.172741 0.488479 0.855041
O O2 0.000000 0.514264 0.750000
O O3 0.993841 0.570174 0.918658
O O4 0.984798 0.438562 0.904244
O O5 0.500000 0.653840 0.750000
O O6 0.599215 0.741235 0.637986
O O7 0.525097 0.623154 0.570647
O O8 0.386172 0.723230 0.622196
O O9 0.654557 0.848761 0.532188
O O10 0.445005 0.823921 0.515324
O O11 0.701569 0.300958 0.841457
O O12 0.752693 0.230276 0.994040
O O13 0.500000 0.328783 0.750000
O O14 0.444087 0.385517 0.596350
O O15 0.333257 0.416505 0.752947
O O16 0.472642 0.500000 0.500000
O O17 0.641998 0.434620 0.569293
O O18 0.294198 0.147233 0.365628
#
# Coordination Sequence:
#
# PCOD9318184 Si02
#       8
#     8   8   8   8   8   8   8   8
#     4  10  20  40  62  93 125 161 217 266 304 374
#     4  11  23  40  65  95 124 160 214 262 314 383
#     4   9  22  36  62  93 126 161 210 259 317 374
#     4  11  20  40  66  90 130 166 199 263 328 363
#     4  10  22  40  62  94 124 169 213 257 310 382
#     4  11  24  41  60  89 128 164 213 260 304 379
#     4  10  21  38  67  87 118 171 213 253 320 372
#     4  10  20  38  63  90 123 162 203 257 316 386
#
# _framework density 19.582114000000001
#
# number of rings (size 3 to 8) (size 9 to 14) (size 15 to 20)
#    0.000    1.750    2.500    1.500    3.500    5.000 
#    4.500    4.375    0.000    0.000    0.000    0.000 
#    0.000    0.000    0.000    0.000    0.000    0.000 
#
# Total GULP energy -178560.141707 kJ/mol
# GULP energy per Si atom -5580.004428 kJ/mol
# Density = 1.953754 g / cm^3
# Si number density = 19.582114 Si / 1000 Ang^3
#
#
#
# Elastic Constant Matrix: (Units=GPa)
#
#
# Indices 1 2 3 4 5 6 
#
# 1 71.8359 9.0367 32.5287 0.0000 0.0000 0.0000
# 2 9.0367 49.4572 39.0114 0.0000 0.0000 0.0000
# 3 32.5287 39.0114 145.9192 0.0000 0.0000 0.0000
# 4 0.0000 0.0000 0.0000 -2.3456 0.0000 0.0000
# 5 0.0000 0.0000 0.0000 0.0000 12.7943 0.0000
# 6 0.0000 0.0000 0.0000 0.0000 0.0000 18.2288
#
#
#
# Elastic Compliance Matrix: (Units=1/GPa)
#
#
# Indices 1 2 3 4 5 6 
#
# 1 0.015484 -0.000135 -0.003416 0.000000 0.000000 0.000000
# 2 -0.000135 0.025624 -0.006821 0.000000 0.000000 0.000000
# 3 -0.003416 -0.006821 0.009438 0.000000 0.000000 0.000000
# 4 0.000000 0.000000 0.000000 -0.426334 0.000000 0.000000
# 5 0.000000 0.000000 0.000000 0.000000 0.078160 0.000000
# 6 0.000000 0.000000 0.000000 0.000000 0.000000 0.054858
#
#
# Mechanical properties :
#
#
# Convention : Reuss Voigt Hill
#
# Bulk Modulus (GPa) = 33.55248 47.59622 40.57435
# Shear Modulus (GPa) = -23.57466 18.17788 -2.69839
#
# Velocity S-wave (km/s) = -3.47347 3.05009 -1.17515
# Velocity P-wave (km/s) = 1.04152 6.06323 4.35015
#
# Compressibility (1/GPa) = 0.02980405
#
# Stress axis : x y z
#
# Youngs Moduli (GPa) = 64.58155 39.02574 105.95457
#
# Poissons Ratio (x) = 0.00527 0.36191
# Poissons Ratio (y) = 0.00872 0.72266
# Poissons Ratio (z) = 0.22059 0.26618
#
# Static dielectric constant tensor:
#      x y z
#    x 1.717550 0.000000 0.000000 
#    y 0.000000 1.676210 0.000000 
#    z 0.000000 0.000000 1.671580 
# 
# From -- ./inp_files/20272.got.cif
#   From: 2010.05.17/outbox.cif.g08.bks.cpg/sg20_11_cif.got.tgz:20272.got - 2010.06.03 22:52:26.
