data_PCOD9318091
_publ_section_title
;
Structure prediction by ZEFSAII (Michael W. Deem and Ramdas Pophale) SiO2 
 PCOD9318091
Probable space group: C 2 2 21
;
_chemical_formula_sum "Si O2"
_cell_formula_units_Z 60
_cell_length_a 29.689917
_cell_length_b 5.139657
_cell_length_c 19.501751
_cell_angle_alpha 90.000000
_cell_angle_beta 90.000000
_cell_angle_gamma 90.000000
_cell_volume 2975.888995
_symmetry_space_group_name_H-M "C 2 2 21"
_symmetry_group_IT_number 20
_symmetry_cell_setting 'orthorhombic'
loop_
_space_group_symop_operation_xyz
x,y,z
-x,-y,1/2+z
x,-y,-z
-x,y,1/2-z
1/2+x,1/2+y,z
1/2-x,1/2-y,1/2+z
1/2+x,1/2-y,-z
1/2-x,1/2+y,1/2-z
loop_
_atom_site_type_symbol
_atom_site_label
_atom_site_fract_x
_atom_site_fract_y
_atom_site_fract_z
Si Si1 0.014222 0.000000 0.500000
Si Si2 0.475617 0.111412 0.577638
Si Si3 0.947318 0.004750 0.768999
Si Si4 0.809536 0.417432 0.266128
Si Si5 0.159629 0.743312 0.454765
Si Si6 0.712047 0.584483 0.676911
Si Si7 0.935842 0.675812 0.097395
Si Si8 0.409320 0.991690 0.301884
O O1 0.047421 0.222081 0.523718
O O2 0.983154 0.083966 0.437210
O O3 0.435147 0.049613 0.627046
O O4 0.468902 0.000000 0.500000
O O5 0.522631 0.018191 0.612430
O O6 0.938444 0.096687 0.846399
O O7 0.920044 0.218747 0.724483
O O8 0.000000 0.024775 0.750000
O O9 0.930491 0.716817 0.751352
O O10 0.766137 0.405368 0.315482
O O11 0.806129 0.685090 0.224730
O O12 0.856889 0.423673 0.304530
O O13 0.805213 0.183625 0.210948
O O14 0.177015 0.500000 0.500000
O O15 0.194094 0.854905 0.398541
O O16 0.116410 0.619666 0.414307
O O17 0.146983 0.000000 0.500000
#
# Coordination Sequence:
#
# PCOD9318091 Si02
#       8
#     4   8   8   8   8   8   8   8
#     4  10  20  38  56  74 116 170 200 246 274 384
#     4  10  23  39  58  81 120 169 211 248 300 366
#     4  12  25  39  61  93 131 165 205 270 311 352
#     4  10  21  42  70  92 120 163 208 265 324 379
#     4  12  24  38  60  93 129 165 207 258 316 386
#     4  10  22  43  66  94 124 160 208 262 326 385
#     4  11  22  38  57  85 123 170 210 243 312 374
#     4  12  24  41  62  95 123 162 212 264 311 372
#
# _framework density 20.162042
#
# number of rings (size 3 to 8) (size 9 to 14) (size 15 to 20)
#    0.000    1.067    2.000    5.600    3.733    0.000 
#    0.000    0.667    1.467    0.000    0.000    0.000 
#    0.000    0.000    0.000    0.000    0.000    0.000 
#
# Total GULP energy -167483.576518 kJ/mol
# GULP energy per Si atom -5582.785884 kJ/mol
# Density = 2.011615 g / cm^3
# Si number density = 20.162042 Si / 1000 Ang^3
#
#
#
# Elastic Constant Matrix: (Units=GPa)
#
#
# Indices 1 2 3 4 5 6 
#
# 1 126.7885 6.5642 42.8131 0.0000 0.0000 0.0000
# 2 6.5642 43.5303 -17.3172 0.0000 0.0000 0.0000
# 3 42.8131 -17.3172 63.6837 0.0000 0.0000 0.0000
# 4 0.0000 0.0000 0.0000 28.2166 0.0000 0.0000
# 5 0.0000 0.0000 0.0000 0.0000 22.7983 0.0000
# 6 0.0000 0.0000 0.0000 0.0000 0.0000 -0.1399
#
#
#
# Elastic Compliance Matrix: (Units=1/GPa)
#
#
# Indices 1 2 3 4 5 6 
#
# 1 0.011177 -0.005242 -0.008940 0.000000 0.000000 0.000000
# 2 -0.005242 0.028217 0.011197 0.000000 0.000000 0.000000
# 3 -0.008940 0.011197 0.024757 0.000000 0.000000 0.000000
# 4 0.000000 0.000000 0.000000 0.035440 0.000000 0.000000
# 5 0.000000 0.000000 0.000000 0.000000 0.043863 0.000000
# 6 0.000000 0.000000 0.000000 0.000000 0.000000 -7.146965
#
#
# Mechanical properties :
#
#
# Convention : Reuss Voigt Hill
#
# Bulk Modulus (GPa) = 17.18721 33.12476 25.15598
# Shear Modulus (GPa) = -0.71652 23.63781 11.46064
#
# Velocity S-wave (km/s) = -0.59679 3.42774 2.38676
# Velocity P-wave (km/s) = 2.84045 5.66840 4.48324
#
# Compressibility (1/GPa) = 0.05818280
#
# Stress axis : x y z
#
# Youngs Moduli (GPa) = 89.46809 35.43927 40.39237
#
# Poissons Ratio (x) = 0.18577 0.36109
# Poissons Ratio (y) = 0.46897 -0.45227
# Poissons Ratio (z) = 0.79980 -0.39681
#
# Static dielectric constant tensor:
#      x y z
#    x 1.719700 0.000000 0.000000 
#    y 0.000000 1.814450 0.000000 
#    z 0.000000 0.000000 1.749920 
# 
# From -- ./inp_files/22926.got.cif
#   From: 2010.05.17/outbox.cif.g08.bks.cpg/sg20_12_cif.got.tgz:22926.got - 2010.06.03 22:52:26.
