data_PCOD9318483
_publ_section_title
;
Structure prediction by ZEFSAII (Michael W. Deem and Ramdas Pophale) SiO2 
 PCOD9318483
Probable space group: C 2 2 21
;
_chemical_formula_sum "Si O2"
_cell_formula_units_Z 32
_cell_length_a 7.432331
_cell_length_b 22.613684
_cell_length_c 7.950872
_cell_angle_alpha 90.000000
_cell_angle_beta 90.000000
_cell_angle_gamma 90.000000
_cell_volume 1336.322017
_symmetry_space_group_name_H-M "C 2 2 21"
_symmetry_group_IT_number 20
_symmetry_cell_setting 'orthorhombic'
loop_
_space_group_symop_operation_xyz
x,y,z
-x,-y,1/2+z
x,-y,-z
-x,y,1/2-z
1/2+x,1/2+y,z
1/2-x,1/2-y,1/2+z
1/2+x,1/2-y,-z
1/2-x,1/2+y,1/2-z
loop_
_atom_site_type_symbol
_atom_site_label
_atom_site_fract_x
_atom_site_fract_y
_atom_site_fract_z
Si Si1 0.598805 0.875488 0.078420
Si Si2 0.469971 0.567209 0.950095
Si Si3 0.744764 0.843705 0.596435
Si Si4 0.215503 0.767898 0.232461
O O1 0.500000 0.898079 0.250000
O O2 0.683419 0.812534 0.139293
O O3 0.763525 0.915657 0.021490
O O4 0.449864 0.872053 0.933866
O O5 0.500000 0.576744 0.750000
O O6 0.505831 0.500000 0.000000
O O7 0.601477 0.609769 0.054494
O O8 0.741388 0.795246 0.446817
O O9 0.771835 0.800493 0.752968
O O10 0.000000 0.770661 0.250000
#
# Coordination Sequence:
#
# PCOD9318483 Si02
#       4
#     8   8   8   8
#     4  10  20  40  70  93 132 184 214 279 354 398
#     4  12  25  50  69  95 138 188 236 287 336 413
#     4  11  23  43  70 103 139 181 226 289 354 410
#     4  11  20  41  70 101 144 172 219 285 355 415
#
# _framework density 23.946324000000001
#
# number of rings (size 3 to 8) (size 9 to 14) (size 15 to 20)
#    0.000    1.000    7.500    1.500    0.000    1.000 
#   13.500    0.000    0.000    0.000    0.000    0.000 
#    0.000    0.000    0.000    0.000    0.000    0.000 
#
# Total GULP energy -89646.614200 kJ/mol
# GULP energy per Si atom -5602.913388 kJ/mol
# Density = 2.389182 g / cm^3
# Si number density = 23.946324 Si / 1000 Ang^3
#
#
#
# Elastic Constant Matrix: (Units=GPa)
#
#
# Indices 1 2 3 4 5 6 
#
# 1 174.3812 58.2078 22.4665 0.0000 0.0000 0.0000
# 2 58.2078 137.1906 33.1035 0.0000 0.0000 0.0000
# 3 22.4665 33.1035 70.0894 0.0000 0.0000 0.0000
# 4 0.0000 0.0000 0.0000 32.3687 0.0000 0.0000
# 5 0.0000 0.0000 0.0000 0.0000 10.7736 0.0000
# 6 0.0000 0.0000 0.0000 0.0000 0.0000 -241.0938
#
#
#
# Elastic Compliance Matrix: (Units=1/GPa)
#
#
# Indices 1 2 3 4 5 6 
#
# 1 0.006732 -0.002636 -0.000913 0.000000 0.000000 0.000000
# 2 -0.002636 0.009259 -0.003528 0.000000 0.000000 0.000000
# 3 -0.000913 -0.003528 0.016226 0.000000 0.000000 0.000000
# 4 0.000000 0.000000 0.000000 0.030894 0.000000 0.000000
# 5 0.000000 0.000000 0.000000 0.000000 0.092819 0.000000
# 6 0.000000 0.000000 0.000000 0.000000 0.000000 -0.004148
#
#
# Mechanical properties :
#
#
# Convention : Reuss Voigt Hill
#
# Bulk Modulus (GPa) = 55.36049 67.69075 61.52562
# Shear Modulus (GPa) = 29.07689 -21.73142 3.67274
#
# Velocity S-wave (km/s) = 3.48839 -3.01575 1.23978
# Velocity P-wave (km/s) = 6.27646 4.02526 5.27241
#
# Compressibility (1/GPa) = 0.01806342
#
# Stress axis : x y z
#
# Youngs Moduli (GPa) = 148.54257 108.00459 61.62785
#
# Poissons Ratio (x) = 0.28470 0.05626
# Poissons Ratio (y) = 0.39156 0.21743
# Poissons Ratio (z) = 0.13560 0.38105
#
# Static dielectric constant tensor:
#      x y z
#    x 1.917670 0.000000 0.000000 
#    y 0.000000 1.883880 0.000000 
#    z 0.000000 0.000000 2.196400 
# 
# From -- ./inp_files/5994.got.cif
#   From: 2010.05.17/outbox.cif.g08.bks.cpg/sg20_3_cif.got.tgz:5994.got - 2010.06.03 22:52:26.
