data_PCOD9318387
_publ_section_title
;
Structure prediction by ZEFSAII (Michael W. Deem and Ramdas Pophale) SiO2 
 PCOD9318387
Probable space group: C 2 2 21
;
_chemical_formula_sum "Si O2"
_cell_formula_units_Z 44
_cell_length_a 14.739715
_cell_length_b 28.190553
_cell_length_c 4.953055
_cell_angle_alpha 90.000000
_cell_angle_beta 90.000000
_cell_angle_gamma 90.000000
_cell_volume 2058.096965
_symmetry_space_group_name_H-M "C 2 2 21"
_symmetry_group_IT_number 20
_symmetry_cell_setting 'orthorhombic'
loop_
_space_group_symop_operation_xyz
x,y,z
-x,-y,1/2+z
x,-y,-z
-x,y,1/2-z
1/2+x,1/2+y,z
1/2-x,1/2-y,1/2+z
1/2+x,1/2-y,-z
1/2-x,1/2+y,1/2-z
loop_
_atom_site_type_symbol
_atom_site_label
_atom_site_fract_x
_atom_site_fract_y
_atom_site_fract_z
Si Si1 0.054467 0.785456 0.998698
Si Si2 0.099293 0.464622 0.752238
Si Si3 0.202661 0.921239 0.740093
Si Si4 0.796348 0.272489 0.211856
Si Si5 0.934619 0.000000 0.000000
Si Si6 0.692255 0.360952 0.239989
O O1 0.112505 0.745433 0.847486
O O2 0.000000 0.807843 0.750000
O O3 0.113964 0.826498 0.134750
O O4 0.000000 0.764547 0.250000
O O5 0.110049 0.500000 0.500000
O O6 0.191605 0.435281 0.785920
O O7 0.000000 0.439380 0.750000
O O8 0.093580 0.500000 0.000000
O O9 0.186036 0.875713 0.549613
O O10 0.132532 0.960680 0.631884
O O11 0.189748 0.907074 0.051385
O O12 0.721443 0.251538 0.422991
O O13 0.781436 0.328574 0.194939
O O14 0.000000 0.016161 0.750000
#
# Coordination Sequence:
#
# PCOD9318387 Si02
#       6
#     8   8   8   8   4   8
#     4  11  22  38  63  92 124 168 219 263 311 384
#     4  10  21  40  68  93 116 157 214 272 331 399
#     4  12  24  42  66  93 132 173 217 278 330 386
#     4  10  20  40  62  87 121 163 207 257 321 383
#     4  12  28  44  64  92 136 186 228 266 324 390
#     4  11  24  39  64  92 127 168 213 265 323 387
#
# _framework density 21.378972000000001
#
# number of rings (size 3 to 8) (size 9 to 14) (size 15 to 20)
#    0.000    1.091    0.909    7.636    1.273    4.364 
#    0.000    2.727    0.000    0.000    0.000    0.000 
#    0.000    0.000    0.000    0.000    0.000    0.000 
#
# Total GULP energy -122835.094905 kJ/mol
# GULP energy per Si atom -5583.413405 kJ/mol
# Density = 2.133031 g / cm^3
# Si number density = 21.378972 Si / 1000 Ang^3
#
#
#
# Elastic Constant Matrix: (Units=GPa)
#
#
# Indices 1 2 3 4 5 6 
#
# 1 117.2293 23.2478 20.8443 0.0000 0.0000 0.0000
# 2 23.2478 47.6759 -2.0328 0.0000 0.0000 0.0000
# 3 20.8443 -2.0328 106.7560 0.0000 0.0000 0.0000
# 4 0.0000 0.0000 0.0000 36.1832 0.0000 0.0000
# 5 0.0000 0.0000 0.0000 0.0000 43.2033 0.0000
# 6 0.0000 0.0000 0.0000 0.0000 0.0000 13.8569
#
#
#
# Elastic Compliance Matrix: (Units=1/GPa)
#
#
# Indices 1 2 3 4 5 6 
#
# 1 0.009860 -0.004894 -0.002018 0.000000 0.000000 0.000000
# 2 -0.004894 0.023421 0.001401 0.000000 0.000000 0.000000
# 3 -0.002018 0.001401 0.009788 0.000000 0.000000 0.000000
# 4 0.000000 0.000000 0.000000 0.027637 0.000000 0.000000
# 5 0.000000 0.000000 0.000000 0.000000 0.023146 0.000000
# 6 0.000000 0.000000 0.000000 0.000000 0.000000 0.072166
#
#
# Mechanical properties :
#
#
# Convention : Reuss Voigt Hill
#
# Bulk Modulus (GPa) = 31.20385 39.53111 35.36748
# Shear Modulus (GPa) = 26.63515 33.95549 30.29532
#
# Velocity S-wave (km/s) = 3.53350 3.98963 3.76847
# Velocity P-wave (km/s) = 5.59238 6.30505 5.95938
#
# Compressibility (1/GPa) = 0.03204732
#
# Stress axis : x y z
#
# Youngs Moduli (GPa) = 101.42333 42.69666 102.16678
#
# Poissons Ratio (x) = 0.20895 0.20620
# Poissons Ratio (y) = 0.49635 -0.14319
# Poissons Ratio (z) = 0.20470 -0.05984
#
# Static dielectric constant tensor:
#      x y z
#    x 1.914770 0.000000 0.000000 
#    y 0.000000 1.748890 0.000000 
#    z 0.000000 0.000000 1.732460 
# 
# From -- ./inp_files/1946.got.cif
#   From: 2010.05.17/outbox.cif.g08.bks.cpg/sg20_1_cif.got.tgz:1946.got - 2010.06.03 22:52:26.
