data_PCOD9318338
_publ_section_title
;
Structure prediction by ZEFSAII (Michael W. Deem and Ramdas Pophale) SiO2 
 PCOD9318338
Probable space group: C 2 2 21
;
_chemical_formula_sum "Si O2"
_cell_formula_units_Z 60
_cell_length_a 5.801553
_cell_length_b 27.504703
_cell_length_c 17.844447
_cell_angle_alpha 90.000000
_cell_angle_beta 90.000000
_cell_angle_gamma 90.000000
_cell_volume 2847.438269
_symmetry_space_group_name_H-M "C 2 2 21"
_symmetry_group_IT_number 20
_symmetry_cell_setting 'orthorhombic'
loop_
_space_group_symop_operation_xyz
x,y,z
-x,-y,1/2+z
x,-y,-z
-x,y,1/2-z
1/2+x,1/2+y,z
1/2-x,1/2-y,1/2+z
1/2+x,1/2-y,-z
1/2-x,1/2+y,1/2-z
loop_
_atom_site_type_symbol
_atom_site_label
_atom_site_fract_x
_atom_site_fract_y
_atom_site_fract_z
Si Si1 0.448499 0.084807 0.455100
Si Si2 0.239356 0.048297 0.769095
Si Si3 0.060139 0.143213 0.522229
Si Si4 0.797317 0.551851 0.310468
Si Si5 0.987843 0.754549 0.042935
Si Si6 0.500000 0.636218 0.250000
Si Si7 0.271858 0.165304 0.116509
Si Si8 0.678965 0.458334 0.056784
O O1 0.311329 0.127770 0.495502
O O2 0.325858 0.048015 0.399498
O O3 0.605687 0.113512 0.395027
O O4 0.583288 0.056294 0.517422
O O5 0.500000 0.068151 0.750000
O O6 0.226958 0.031341 0.856140
O O7 0.000000 0.076917 0.750000
O O8 0.218566 0.000645 0.717253
O O9 0.034610 0.190373 0.574105
O O10 0.922865 0.161257 0.448119
O O11 0.961464 0.092321 0.552089
O O12 0.633352 0.598380 0.302897
O O13 0.000000 0.561671 0.250000
O O14 0.937406 0.710347 0.099093
O O15 0.750832 0.751654 0.989958
O O16 0.663878 0.667624 0.198026
O O17 0.584803 0.500000 0.000000
#
# Coordination Sequence:
#
# PCOD9318338 Si02
#       8
#     8   8   8   8   8   4   8   8
#     4  11  21  38  61  95 130 174 224 290 342 405
#     4  11  26  44  64  90 129 185 228 274 343 409
#     4  10  22  38  65  92 133 171 222 284 333 399
#     4  11  21  35  60  85 133 176 214 265 351 412
#     4  10  20  39  65  97 130 170 210 269 337 410
#     4  12  20  32  56  96 136 172 206 276 340 422
#     4  10  21  35  59  99 132 168 220 268 351 414
#     4  11  26  41  64  99 133 177 240 293 336 399
#
# _framework density 21.071573000000001
#
# number of rings (size 3 to 8) (size 9 to 14) (size 15 to 20)
#    0.000    1.333    4.667    1.600    5.600    0.533 
#    0.000    0.000    0.000    1.600    0.000    0.000 
#    0.000    0.000    0.000    0.000    0.000    0.000 
#
# Total GULP energy -167016.981929 kJ/mol
# GULP energy per Si atom -5567.232731 kJ/mol
# Density = 2.102361 g / cm^3
# Si number density = 21.071573 Si / 1000 Ang^3
#
#
#
# Elastic Constant Matrix: (Units=GPa)
#
#
# Indices 1 2 3 4 5 6 
#
# 1 79.3110 4.0438 12.7891 0.0000 0.0000 0.0000
# 2 4.0438 87.1032 8.1545 0.0000 0.0000 0.0000
# 3 12.7891 8.1545 82.1784 0.0000 0.0000 0.0000
# 4 0.0000 0.0000 0.0000 -26.4230 0.0000 0.0000
# 5 0.0000 0.0000 0.0000 0.0000 14.6377 0.0000
# 6 0.0000 0.0000 0.0000 0.0000 0.0000 45.8903
#
#
#
# Elastic Compliance Matrix: (Units=1/GPa)
#
#
# Indices 1 2 3 4 5 6 
#
# 1 0.012948 -0.000416 -0.001974 0.000000 0.000000 0.000000
# 2 -0.000416 0.011602 -0.001086 0.000000 0.000000 0.000000
# 3 -0.001974 -0.001086 0.012584 0.000000 0.000000 0.000000
# 4 0.000000 0.000000 0.000000 -0.037846 0.000000 0.000000
# 5 0.000000 0.000000 0.000000 0.000000 0.068317 0.000000
# 6 0.000000 0.000000 0.000000 0.000000 0.000000 0.021791
#
#
# Mechanical properties :
#
#
# Convention : Reuss Voigt Hill
#
# Bulk Modulus (GPa) = 33.13417 33.17418 33.15417
# Shear Modulus (GPa) = 46.98865 21.72802 34.35834
#
# Velocity S-wave (km/s) = 4.72736 3.21464 4.04239
# Velocity P-wave (km/s) = 6.74952 5.43657 6.12831
#
# Compressibility (1/GPa) = 0.03018032
#
# Stress axis : x y z
#
# Youngs Moduli (GPa) = 77.23151 86.19450 79.46842
#
# Poissons Ratio (x) = 0.03589 0.15685
# Poissons Ratio (y) = 0.03215 0.08634
# Poissons Ratio (z) = 0.15244 0.09364
#
# Static dielectric constant tensor:
#      x y z
#    x 2.073400 0.000000 0.000000 
#    y 0.000000 1.799530 0.000000 
#    z 0.000000 0.000000 1.070270 
# 
# From -- ./inp_files/22934.got.cif
#   From: 2010.05.17/outbox.cif.g08.bks.cpg/sg20_12_cif.got.tgz:22934.got - 2010.06.03 22:52:26.
