data_PCOD9318124
_publ_section_title
;
Structure prediction by ZEFSAII (Michael W. Deem and Ramdas Pophale) SiO2 
 PCOD9318124
Probable space group: C 2 2 21
;
_chemical_formula_sum "Si O2"
_cell_formula_units_Z 36
_cell_length_a 8.881073
_cell_length_b 18.514604
_cell_length_c 12.106793
_cell_angle_alpha 90.000000
_cell_angle_beta 90.000000
_cell_angle_gamma 90.000000
_cell_volume 1990.714521
_symmetry_space_group_name_H-M "C 2 2 21"
_symmetry_group_IT_number 20
_symmetry_cell_setting 'orthorhombic'
loop_
_space_group_symop_operation_xyz
x,y,z
-x,-y,1/2+z
x,-y,-z
-x,y,1/2-z
1/2+x,1/2+y,z
1/2-x,1/2-y,1/2+z
1/2+x,1/2-y,-z
1/2-x,1/2+y,1/2-z
loop_
_atom_site_type_symbol
_atom_site_label
_atom_site_fract_x
_atom_site_fract_y
_atom_site_fract_z
Si Si1 0.562996 0.143186 0.406286
Si Si2 0.637931 0.855377 0.335228
Si Si3 0.245823 0.989756 0.871968
Si Si4 0.267772 0.796888 0.706682
Si Si5 0.500000 0.606524 0.250000
O O1 0.583478 0.148573 0.537241
O O2 0.606134 0.061424 0.371285
O O3 0.681411 0.190387 0.334136
O O4 0.399946 0.168150 0.366092
O O5 0.500000 0.850004 0.250000
O O6 0.745199 0.787074 0.315803
O O7 0.719230 0.932528 0.320886
O O8 0.111589 0.945216 0.817033
O O9 0.206996 0.000000 0.000000
O O10 0.112714 0.839826 0.685255
#
# Coordination Sequence:
#
# PCOD9318124 Si02
#       5
#     8   8   8   8   4
#     4   9  22  41  63  81 123 164 194 240 314 357
#     4  11  23  36  61  92 118 150 206 251 291 353
#     4   9  21  41  58  84 120 155 193 249 298 354
#     4  10  21  39  62  85 115 161 197 243 298 361
#     4  10  20  38  60  84 116 154 198 236 300 350
#
# _framework density 18.083960000000001
#
# number of rings (size 3 to 8) (size 9 to 14) (size 15 to 20)
#    0.000    2.222    1.111    0.000    9.333    3.556 
#    4.000    0.000    0.000    0.000    0.000    0.000 
#    0.000    0.000    0.000    0.000    0.000    0.000 
#
# Total GULP energy -100359.537743 kJ/mol
# GULP energy per Si atom -5575.529875 kJ/mol
# Density = 1.804280 g / cm^3
# Si number density = 18.083960 Si / 1000 Ang^3
#
#
#
# Elastic Constant Matrix: (Units=GPa)
#
#
# Indices 1 2 3 4 5 6 
#
# 1 104.6370 70.0008 26.8532 0.0000 0.0000 0.0000
# 2 70.0008 174.9652 40.1901 0.0000 0.0000 0.0000
# 3 26.8532 40.1901 77.7909 0.0000 0.0000 0.0000
# 4 0.0000 0.0000 0.0000 23.0206 0.0000 0.0000
# 5 0.0000 0.0000 0.0000 0.0000 15.3037 0.0000
# 6 0.0000 0.0000 0.0000 0.0000 0.0000 26.1771
#
#
#
# Elastic Compliance Matrix: (Units=1/GPa)
#
#
# Indices 1 2 3 4 5 6 
#
# 1 0.013344 -0.004857 -0.002097 0.000000 0.000000 0.000000
# 2 -0.004857 0.008253 -0.002587 0.000000 0.000000 0.000000
# 3 -0.002097 -0.002587 0.014916 0.000000 0.000000 0.000000
# 4 0.000000 0.000000 0.000000 0.043439 0.000000 0.000000
# 5 0.000000 0.000000 0.000000 0.000000 0.065344 0.000000
# 6 0.000000 0.000000 0.000000 0.000000 0.000000 0.038201
#
#
# Mechanical properties :
#
#
# Convention : Reuss Voigt Hill
#
# Bulk Modulus (GPa) = 57.37182 70.16459 63.76820
# Shear Modulus (GPa) = 23.99347 27.59021 25.79184
#
# Velocity S-wave (km/s) = 3.64645 3.91022 3.78064
# Velocity P-wave (km/s) = 7.03725 7.69870 7.37540
#
# Compressibility (1/GPa) = 0.01743016
#
# Stress axis : x y z
#
# Youngs Moduli (GPa) = 74.93775 121.16822 67.04433
#
# Poissons Ratio (x) = 0.58854 0.14059
# Poissons Ratio (y) = 0.36399 0.17345
# Poissons Ratio (z) = 0.15715 0.31348
#
# Static dielectric constant tensor:
#      x y z
#    x 1.614180 0.000000 0.000000 
#    y 0.000000 1.634880 0.000000 
#    z 0.000000 0.000000 1.619790 
# 
# From -- ./inp_files/12847.got.cif
#   From: 2010.05.17/outbox.cif.g08.bks.cpg/sg20_7_cif.got.tgz:12847.got - 2010.06.03 22:52:26.
