data_PCOD9318386
_publ_section_title
;
Structure prediction by ZEFSAII (Michael W. Deem and Ramdas Pophale) SiO2 
 PCOD9318386
Probable space group: C 2 2 21
;
_chemical_formula_sum "Si O2"
_cell_formula_units_Z 40
_cell_length_a 15.316722
_cell_length_b 13.919193
_cell_length_c 8.496278
_cell_angle_alpha 90.000000
_cell_angle_beta 90.000000
_cell_angle_gamma 90.000000
_cell_volume 1811.375965
_symmetry_space_group_name_H-M "C 2 2 21"
_symmetry_group_IT_number 20
_symmetry_cell_setting 'orthorhombic'
loop_
_space_group_symop_operation_xyz
x,y,z
-x,-y,1/2+z
x,-y,-z
-x,y,1/2-z
1/2+x,1/2+y,z
1/2-x,1/2-y,1/2+z
1/2+x,1/2-y,-z
1/2-x,1/2+y,1/2-z
loop_
_atom_site_type_symbol
_atom_site_label
_atom_site_fract_x
_atom_site_fract_y
_atom_site_fract_z
Si Si1 0.711921 0.294161 0.580041
Si Si2 0.000000 0.822742 0.250000
Si Si3 0.567185 0.170172 0.501906
Si Si4 0.563052 0.000000 0.000000
Si Si5 0.188967 0.868881 0.222307
Si Si6 0.196611 0.447438 0.723270
O O1 0.624528 0.233914 0.620542
O O2 0.790326 0.219740 0.607689
O O3 0.708871 0.333891 0.401914
O O4 0.730976 0.380104 0.697391
O O5 0.021353 0.749143 0.391500
O O6 0.085663 0.885526 0.218051
O O7 0.641057 0.111715 0.403554
O O8 0.498011 0.089602 0.548684
O O9 0.624861 0.972429 0.855753
O O10 0.251379 0.956732 0.178842
#
# Coordination Sequence:
#
# PCOD9318386 Si02
#       6
#     8   4   8   4   8   8
#     4  11  21  41  64  93 128 168 213 257 326 381
#     4  10  20  40  62  84 126 168 206 252 324 370
#     4  11  22  38  65  94 128 167 212 263 322 378
#     4  12  20  36  64 100 128 158 212 272 318 388
#     4  11  23  39  69  90 128 169 213 262 324 388
#     4  12  22  40  67  94 127 168 215 263 321 383
#
# _framework density 22.082660000000001
#
# number of rings (size 3 to 8) (size 9 to 14) (size 15 to 20)
#    0.000    0.800    8.000    1.200    0.000    0.000 
#    0.000    0.000   26.400    0.000    0.000    0.000 
#    0.000    0.000    0.000    0.000    0.000    0.000 
#
# Total GULP energy -111850.677662 kJ/mol
# GULP energy per Si atom -5592.533883 kJ/mol
# Density = 2.203240 g / cm^3
# Si number density = 22.082660 Si / 1000 Ang^3
#
#
#
# Elastic Constant Matrix: (Units=GPa)
#
#
# Indices 1 2 3 4 5 6 
#
# 1 94.7183 37.4533 17.6542 0.0000 0.0000 0.0000
# 2 37.4533 94.6714 28.6523 0.0000 0.0000 0.0000
# 3 17.6542 28.6523 30.1022 0.0000 0.0000 0.0000
# 4 0.0000 0.0000 0.0000 21.7155 0.0000 0.0000
# 5 0.0000 0.0000 0.0000 0.0000 18.9608 0.0000
# 6 0.0000 0.0000 0.0000 0.0000 0.0000 46.9019
#
#
#
# Elastic Compliance Matrix: (Units=1/GPa)
#
#
# Indices 1 2 3 4 5 6 
#
# 1 0.012814 -0.003926 -0.003778 0.000000 0.000000 0.000000
# 2 -0.003926 0.016040 -0.012965 0.000000 0.000000 0.000000
# 3 -0.003778 -0.012965 0.047776 0.000000 0.000000 0.000000
# 4 0.000000 0.000000 0.000000 0.046050 0.000000 0.000000
# 5 0.000000 0.000000 0.000000 0.000000 0.052740 0.000000
# 6 0.000000 0.000000 0.000000 0.000000 0.000000 0.021321
#
#
# Mechanical properties :
#
#
# Convention : Reuss Voigt Hill
#
# Bulk Modulus (GPa) = 28.33479 43.00128 35.66804
# Shear Modulus (GPa) = 20.01243 26.56442 23.28843
#
# Velocity S-wave (km/s) = 3.01367 3.47213 3.25099
# Velocity P-wave (km/s) = 4.99687 5.96568 5.50264
#
# Compressibility (1/GPa) = 0.03529230
#
# Stress axis : x y z
#
# Youngs Moduli (GPa) = 78.03806 62.34480 20.93079
#
# Poissons Ratio (x) = 0.24476 0.07908
# Poissons Ratio (y) = 0.30638 0.27136
# Poissons Ratio (z) = 0.29486 0.80829
#
# Static dielectric constant tensor:
#      x y z
#    x 1.825910 0.000000 0.000000 
#    y 0.000000 1.812260 0.000000 
#    z 0.000000 0.000000 1.825880 
# 
# From -- ./inp_files/8141.got.cif
#   From: 2010.05.17/outbox.cif.g08.bks.cpg/sg20_5_cif.got.tgz:8141.got - 2010.06.03 22:52:26.
