data_PCOD9318113
_publ_section_title
;
Structure prediction by ZEFSAII (Michael W. Deem and Ramdas Pophale) SiO2 
 PCOD9318113
Probable space group: C 2 2 21
;
_chemical_formula_sum "Si O2"
_cell_formula_units_Z 48
_cell_length_a 7.849866
_cell_length_b 10.834529
_cell_length_c 23.950363
_cell_angle_alpha 90.000000
_cell_angle_beta 90.000000
_cell_angle_gamma 90.000000
_cell_volume 2036.968813
_symmetry_space_group_name_H-M "C 2 2 21"
_symmetry_group_IT_number 20
_symmetry_cell_setting 'orthorhombic'
loop_
_space_group_symop_operation_xyz
x,y,z
-x,-y,1/2+z
x,-y,-z
-x,y,1/2-z
1/2+x,1/2+y,z
1/2-x,1/2-y,1/2+z
1/2+x,1/2-y,-z
1/2-x,1/2+y,1/2-z
loop_
_atom_site_type_symbol
_atom_site_label
_atom_site_fract_x
_atom_site_fract_y
_atom_site_fract_z
Si Si1 0.286946 0.200609 0.061716
Si Si2 0.997921 0.377713 0.668917
Si Si3 0.641574 0.607310 0.203966
Si Si4 0.073506 0.640980 0.860304
Si Si5 0.495486 0.624367 0.989410
Si Si6 0.829236 0.134164 0.631181
O O1 0.399756 0.135568 0.108849
O O2 0.389037 0.250655 0.008527
O O3 0.199364 0.321194 0.089757
O O4 0.136881 0.119103 0.037300
O O5 0.152897 0.388889 0.713483
O O6 0.894035 0.505162 0.664709
O O7 0.891209 0.251636 0.668094
O O8 0.500000 0.583849 0.250000
O O9 0.602802 0.744071 0.180981
O O10 0.622543 0.493188 0.161412
O O11 0.873961 0.642432 0.875008
O O12 0.578994 0.636699 0.928460
O O13 0.390688 0.500000 0.000000
#
# Coordination Sequence:
#
# PCOD9318113 Si02
#       6
#     8   8   8   8   8   8
#     4  10  22  35  54  84 116 150 192 232 273 329
#     4   9  21  39  58  85 114 147 190 235 283 338
#     4  10  22  40  60  84 114 146 186 238 293 347
#     4  10  20  38  59  81 113 150 188 236 284 331
#     4  11  21  35  56  83 115 153 190 226 274 332
#     4  10  22  39  60  85 117 152 190 235 284 337
#
# _framework density 23.564425
#
# number of rings (size 3 to 8) (size 9 to 14) (size 15 to 20)
#    0.000    2.000    0.000    4.000    0.000   10.667 
#    0.000    1.667    0.000    0.000    0.000    0.000 
#    0.000    0.000    0.000    0.000    0.000    0.000 
#
# Total GULP energy -134014.212496 kJ/mol
# GULP energy per Si atom -5583.925521 kJ/mol
# Density = 2.351079 g / cm^3
# Si number density = 23.564425 Si / 1000 Ang^3
#
#
#
# Elastic Constant Matrix: (Units=GPa)
#
#
# Indices 1 2 3 4 5 6 
#
# 1 53.5413 20.8865 8.9387 0.0000 0.0000 0.0000
# 2 20.8865 166.9084 17.6629 0.0000 0.0000 0.0000
# 3 8.9387 17.6629 32.2717 0.0000 0.0000 0.0000
# 4 0.0000 0.0000 0.0000 34.9183 0.0000 0.0000
# 5 0.0000 0.0000 0.0000 0.0000 22.3984 0.0000
# 6 0.0000 0.0000 0.0000 0.0000 0.0000 40.4778
#
#
#
# Elastic Compliance Matrix: (Units=1/GPa)
#
#
# Indices 1 2 3 4 5 6 
#
# 1 0.020227 -0.002057 -0.004476 0.000000 0.000000 0.000000
# 2 -0.002057 0.006569 -0.003025 0.000000 0.000000 0.000000
# 3 -0.004476 -0.003025 0.033883 0.000000 0.000000 0.000000
# 4 0.000000 0.000000 0.000000 0.028638 0.000000 0.000000
# 5 0.000000 0.000000 0.000000 0.000000 0.044646 0.000000
# 6 0.000000 0.000000 0.000000 0.000000 0.000000 0.024705
#
#
# Mechanical properties :
#
#
# Convention : Reuss Voigt Hill
#
# Bulk Modulus (GPa) = 24.06156 38.63307 31.34732
# Shear Modulus (GPa) = 26.09060 33.24112 29.66586
#
# Velocity S-wave (km/s) = 3.33108 3.75993 3.55198
# Velocity P-wave (km/s) = 5.00279 5.93967 5.49125
#
# Compressibility (1/GPa) = 0.04156006
#
# Stress axis : x y z
#
# Youngs Moduli (GPa) = 49.43856 152.23157 29.51362
#
# Poissons Ratio (x) = 0.31321 0.13212
# Poissons Ratio (y) = 0.10172 0.08929
# Poissons Ratio (z) = 0.22131 0.46057
#
# Static dielectric constant tensor:
#      x y z
#    x 1.959910 0.000000 0.000000 
#    y 0.000000 1.891850 0.000000 
#    z 0.000000 0.000000 1.937340 
# 
# From -- ./inp_files/30087.got.cif
#   From: 2010.05.17/outbox.cif.g08.bks.cpg/sg20_16_cif.got.tgz:30087.got - 2010.06.03 22:52:26.
