data_PCOD9318052
_publ_section_title
;
Structure prediction by ZEFSAII (Michael W. Deem and Ramdas Pophale) SiO2 
 PCOD9318052
Probable space group: C 2 2 21
;
_chemical_formula_sum "Si O2"
_cell_formula_units_Z 40
_cell_length_a 9.567347
_cell_length_b 21.793952
_cell_length_c 8.324767
_cell_angle_alpha 90.000000
_cell_angle_beta 90.000000
_cell_angle_gamma 90.000000
_cell_volume 1735.799675
_symmetry_space_group_name_H-M "C 2 2 21"
_symmetry_group_IT_number 20
_symmetry_cell_setting 'orthorhombic'
loop_
_space_group_symop_operation_xyz
x,y,z
-x,-y,1/2+z
x,-y,-z
-x,y,1/2-z
1/2+x,1/2+y,z
1/2-x,1/2-y,1/2+z
1/2+x,1/2-y,-z
1/2-x,1/2+y,1/2-z
loop_
_atom_site_type_symbol
_atom_site_label
_atom_site_fract_x
_atom_site_fract_y
_atom_site_fract_z
Si Si1 0.500000 0.901846 0.750000
Si Si2 0.500000 0.663965 0.750000
Si Si3 0.063160 0.930312 0.507822
Si Si4 0.771985 0.222260 0.515393
Si Si5 0.974958 0.678572 0.575046
Si Si6 0.709313 0.596394 0.169479
O O1 0.470619 0.862481 0.586825
O O2 0.642419 0.935556 0.701154
O O3 0.583076 0.615910 0.637293
O O4 0.387413 0.703783 0.650704
O O5 0.132862 0.900986 0.661986
O O6 0.896942 0.933269 0.543817
O O7 0.114945 0.000000 0.500000
O O8 0.834316 0.282002 0.432757
O O9 0.610041 0.224387 0.566449
O O10 0.769403 0.165153 0.392852
O O11 0.000000 0.647102 0.750000
#
# Coordination Sequence:
#
# PCOD9318052 Si02
#       6
#     4   4   8   8   8   8
#     4  10  23  44  58  90 126 168 198 252 309 352
#     4  10  21  34  60  84 118 146 210 244 305 368
#     4  10  20  37  64  91 112 151 197 254 310 372
#     4  10  24  38  55  89 117 169 200 255 295 352
#     4  11  26  38  62  85 128 166 216 249 294 363
#     4   9  21  39  61  82 124 156 193 253 305 362
#
# _framework density 23.044135000000001
#
# number of rings (size 3 to 8) (size 9 to 14) (size 15 to 20)
#    0.000    2.000    0.000    1.800   16.800    0.000 
#    0.000    1.000    0.000    0.000    0.000    0.000 
#    0.000    0.000    0.000    0.000    0.000    0.000 
#
# Total GULP energy -111618.678150 kJ/mol
# GULP energy per Si atom -5580.933908 kJ/mol
# Density = 2.299169 g / cm^3
# Si number density = 23.044135 Si / 1000 Ang^3
#
#
#
# Elastic Constant Matrix: (Units=GPa)
#
#
# Indices 1 2 3 4 5 6 
#
# 1 103.3717 1.1069 0.4733 0.0000 0.0000 0.0000
# 2 1.1069 21.9782 14.9527 0.0000 0.0000 0.0000
# 3 0.4733 14.9527 107.3521 0.0000 0.0000 0.0000
# 4 0.0000 0.0000 0.0000 -41.8176 0.0000 0.0000
# 5 0.0000 0.0000 0.0000 0.0000 27.6357 0.0000
# 6 0.0000 0.0000 0.0000 0.0000 0.0000 8.5649
#
#
#
# Elastic Compliance Matrix: (Units=1/GPa)
#
#
# Indices 1 2 3 4 5 6 
#
# 1 0.009679 -0.000506 0.000028 0.000000 0.000000 0.000000
# 2 -0.000506 0.050289 -0.007002 0.000000 0.000000 0.000000
# 3 0.000028 -0.007002 0.010290 0.000000 0.000000 0.000000
# 4 0.000000 0.000000 0.000000 -0.023913 0.000000 0.000000
# 5 0.000000 0.000000 0.000000 0.000000 0.036185 0.000000
# 6 0.000000 0.000000 0.000000 0.000000 0.000000 0.116756
#
#
# Mechanical properties :
#
#
# Convention : Reuss Voigt Hill
#
# Bulk Modulus (GPa) = 18.08423 29.52975 23.80699
# Shear Modulus (GPa) = 21.48868 13.28786 17.38827
#
# Velocity S-wave (km/s) = 3.05700 2.40391 2.74991
# Velocity P-wave (km/s) = 4.50833 4.53291 4.52064
#
# Compressibility (1/GPa) = 0.05529681
#
# Stress axis : x y z
#
# Youngs Moduli (GPa) = 103.31516 19.88497 97.17836
#
# Poissons Ratio (x) = 0.01007 -0.00271
# Poissons Ratio (y) = 0.05232 0.68048
# Poissons Ratio (z) = -0.00288 0.13924
#
# Static dielectric constant tensor:
#      x y z
#    x 1.948270 0.000000 0.000000 
#    y 0.000000 1.812260 0.000000 
#    z 0.000000 0.000000 1.887050 
# 
# From -- ./inp_files/6134.got.cif
#   From: 2010.05.17/outbox.cif.g08.bks.cpg/sg20_4_cif.got.tgz:6134.got - 2010.06.03 22:52:26.
