data_PCOD9318252
_publ_section_title
;
Structure prediction by ZEFSAII (Michael W. Deem and Ramdas Pophale) SiO2 
 PCOD9318252
Probable space group: C 2 2 21
;
_chemical_formula_sum "Si O2"
_cell_formula_units_Z 60
_cell_length_a 5.657759
_cell_length_b 30.228121
_cell_length_c 16.482230
_cell_angle_alpha 90.000000
_cell_angle_beta 90.000000
_cell_angle_gamma 90.000000
_cell_volume 2818.847404
_symmetry_space_group_name_H-M "C 2 2 21"
_symmetry_group_IT_number 20
_symmetry_cell_setting 'orthorhombic'
loop_
_space_group_symop_operation_xyz
x,y,z
-x,-y,1/2+z
x,-y,-z
-x,y,1/2-z
1/2+x,1/2+y,z
1/2-x,1/2-y,1/2+z
1/2+x,1/2-y,-z
1/2-x,1/2+y,1/2-z
loop_
_atom_site_type_symbol
_atom_site_label
_atom_site_fract_x
_atom_site_fract_y
_atom_site_fract_z
Si Si1 0.388032 0.337286 0.582895
Si Si2 0.882918 0.902820 0.335799
Si Si3 0.194396 0.096859 0.504589
Si Si4 0.927439 0.346657 0.070382
Si Si5 0.366534 0.245386 0.547539
Si Si6 0.195299 0.500000 0.000000
Si Si7 0.750709 0.590790 0.202178
Si Si8 0.124076 0.504776 0.660941
O O1 0.612134 0.368412 0.563600
O O2 0.268926 0.332204 0.494592
O O3 0.409322 0.286421 0.609145
O O4 0.239344 0.367255 0.643123
O O5 0.679218 0.866608 0.348584
O O6 0.791951 0.952959 0.342119
O O7 0.000000 0.896762 0.250000
O O8 0.056692 0.896080 0.411416
O O9 0.457980 0.110914 0.526139
O O10 0.167728 0.045623 0.483483
O O11 0.096133 0.304524 0.079868
O O12 0.096388 0.247718 0.512939
O O13 0.046406 0.492596 0.082740
O O14 0.500000 0.593987 0.250000
O O15 0.750416 0.542969 0.158496
O O16 0.000000 0.590951 0.250000
O O17 0.000000 0.507331 0.750000
#
# Coordination Sequence:
#
# PCOD9318252 Si02
#       8
#     8   8   8   8   8   4   8   8
#     4  10  23  40  69  96 131 172 229 287 342 412
#     4  11  24  40  63  92 133 179 223 278 345 416
#     4  11  23  38  66  97 126 174 224 285 341 407
#     4  10  21  41  63 100 128 167 228 282 345 408
#     4  10  20  38  69 101 131 170 225 288 348 403
#     4  12  24  38  68  96 138 176 230 284 348 416
#     4  11  27  44  68  95 139 184 228 280 347 414
#     4  11  25  43  63  97 135 185 230 281 343 419
#
# _framework density 21.285297
#
# number of rings (size 3 to 8) (size 9 to 14) (size 15 to 20)
#    0.000    1.333    2.667    2.000    9.333    0.000 
#    0.000    0.000    2.933    0.000    0.000    0.000 
#    0.000    0.000    0.000    0.000    0.000    0.000 
#
# Total GULP energy -167244.346953 kJ/mol
# GULP energy per Si atom -5574.811565 kJ/mol
# Density = 2.123685 g / cm^3
# Si number density = 21.285297 Si / 1000 Ang^3
#
#
#
# Elastic Constant Matrix: (Units=GPa)
#
#
# Indices 1 2 3 4 5 6 
#
# 1 69.7711 12.9135 24.0540 0.0000 0.0000 0.0000
# 2 12.9135 139.4895 13.7435 0.0000 0.0000 0.0000
# 3 24.0540 13.7435 64.8162 0.0000 0.0000 0.0000
# 4 0.0000 0.0000 0.0000 45.0973 0.0000 0.0000
# 5 0.0000 0.0000 0.0000 0.0000 32.5956 0.0000
# 6 0.0000 0.0000 0.0000 0.0000 0.0000 40.6487
#
#
#
# Elastic Compliance Matrix: (Units=1/GPa)
#
#
# Indices 1 2 3 4 5 6 
#
# 1 0.016557 -0.000947 -0.005944 0.000000 0.000000 0.000000
# 2 -0.000947 0.007376 -0.001213 0.000000 0.000000 0.000000
# 3 -0.005944 -0.001213 0.017891 0.000000 0.000000 0.000000
# 4 0.000000 0.000000 0.000000 0.022174 0.000000 0.000000
# 5 0.000000 0.000000 0.000000 0.000000 0.030679 0.000000
# 6 0.000000 0.000000 0.000000 0.000000 0.000000 0.024601
#
#
# Mechanical properties :
#
#
# Convention : Reuss Voigt Hill
#
# Bulk Modulus (GPa) = 39.03572 41.72208 40.37890
# Shear Modulus (GPa) = 34.71633 38.55937 36.63785
#
# Velocity S-wave (km/s) = 4.04295 4.26085 4.15333
# Velocity P-wave (km/s) = 6.33822 6.62196 6.48164
#
# Compressibility (1/GPa) = 0.02561756
#
# Stress axis : x y z
#
# Youngs Moduli (GPa) = 60.39745 135.57208 55.89373
#
# Poissons Ratio (x) = 0.12841 0.33221
# Poissons Ratio (y) = 0.05721 0.06777
# Poissons Ratio (z) = 0.35898 0.16438
#
# Static dielectric constant tensor:
#      x y z
#    x 1.867000 0.000000 0.000000 
#    y 0.000000 1.814990 0.000000 
#    z 0.000000 0.000000 1.863100 
# 
# From -- ./inp_files/22911.got.cif
#   From: 2010.05.17/outbox.cif.g08.bks.cpg/sg20_12_cif.got.tgz:22911.got - 2010.06.03 22:52:26.
