data_PCOD9318849
_publ_section_title
;
Structure prediction by ZEFSAII (Michael W. Deem and Ramdas Pophale) SiO2 
 PCOD9318849
Probable space group: C 2 2 21
;
_chemical_formula_sum "Si O2"
_cell_formula_units_Z 52
_cell_length_a 26.998924
_cell_length_b 19.353253
_cell_length_c 5.066711
_cell_angle_alpha 90.000000
_cell_angle_beta 90.000000
_cell_angle_gamma 90.000000
_cell_volume 2647.442667
_symmetry_space_group_name_H-M "C 2 2 21"
_symmetry_group_IT_number 20
_symmetry_cell_setting 'orthorhombic'
loop_
_space_group_symop_operation_xyz
x,y,z
-x,-y,1/2+z
x,-y,-z
-x,y,1/2-z
1/2+x,1/2+y,z
1/2-x,1/2-y,1/2+z
1/2+x,1/2-y,-z
1/2-x,1/2+y,1/2-z
loop_
_atom_site_type_symbol
_atom_site_label
_atom_site_fract_x
_atom_site_fract_y
_atom_site_fract_z
Si Si1 0.255573 0.366809 0.778333
Si Si2 0.147355 0.315588 0.699251
Si Si3 0.605864 0.450759 0.251625
Si Si4 0.966157 0.500000 0.500000
Si Si5 0.816546 0.833612 0.266878
Si Si6 0.620841 0.098198 0.797925
Si Si7 0.793299 0.500000 0.500000
Si Si8 0.500000 0.550663 0.750000
O O1 0.204986 0.334985 0.672792
O O2 0.296452 0.346145 0.562499
O O3 0.271512 0.334487 0.058501
O O4 0.241344 0.447063 0.836465
O O5 0.149474 0.233176 0.715679
O O6 0.119927 0.359417 0.473339
O O7 0.129568 0.346026 0.974991
O O8 0.603255 0.500000 0.500000
O O9 0.650502 0.399776 0.291865
O O10 0.552672 0.411791 0.235625
O O11 0.612423 0.500000 0.000000
O O12 0.928634 0.443896 0.370860
O O13 0.000000 0.476279 0.750000
O O14 0.668417 0.045745 0.821254
O O15 0.499817 0.500000 0.500000
#
# Coordination Sequence:
#
# PCOD9318849 Si02
#       8
#     8   8   8   4   8   8   4   4
#     4  11  23  36  57  82 124 159 208 250 308 355
#     4  11  22  41  57  82 121 175 210 236 293 387
#     4  10  21  37  56  84 109 144 189 250 309 357
#     4  11  22  40  70 106 128 150 202 270 333 366
#     4  12  24  36  57  84 122 159 204 256 306 361
#     4  10  22  40  65  87 122 165 207 247 306 379
#     4   9  22  38  58  90 118 162 204 260 303 362
#     4   8  16  34  58  74 100 134 176 224 290 360
#
# _framework density 19.641597000000001
#
# number of rings (size 3 to 8) (size 9 to 14) (size 15 to 20)
#    0.000    1.538    0.000    5.538    3.231    7.385 
#    0.000    0.000    5.077    0.000    0.000    0.000 
#    0.000    0.000    0.000    0.000    0.000    0.000 
#
# Total GULP energy -145051.635323 kJ/mol
# GULP energy per Si atom -5578.909051 kJ/mol
# Density = 1.959689 g / cm^3
# Si number density = 19.641597 Si / 1000 Ang^3
#
#
#
# Elastic Constant Matrix: (Units=GPa)
#
#
# Indices 1 2 3 4 5 6 
#
# 1 45.1729 14.4085 -11.4174 0.0000 0.0000 0.0000
# 2 14.4085 82.9386 14.5142 0.0000 0.0000 0.0000
# 3 -11.4174 14.5142 79.3387 0.0000 0.0000 0.0000
# 4 0.0000 0.0000 0.0000 17.8874 0.0000 0.0000
# 5 0.0000 0.0000 0.0000 0.0000 27.0105 0.0000
# 6 0.0000 0.0000 0.0000 0.0000 0.0000 1.1509
#
#
#
# Elastic Compliance Matrix: (Units=1/GPa)
#
#
# Indices 1 2 3 4 5 6 
#
# 1 0.024913 -0.005119 0.004522 0.000000 0.000000 0.000000
# 2 -0.005119 0.013508 -0.003208 0.000000 0.000000 0.000000
# 3 0.004522 -0.003208 0.013842 0.000000 0.000000 0.000000
# 4 0.000000 0.000000 0.000000 0.055905 0.000000 0.000000
# 5 0.000000 0.000000 0.000000 0.000000 0.037023 0.000000
# 6 0.000000 0.000000 0.000000 0.000000 0.000000 0.868866
#
#
# Mechanical properties :
#
#
# Convention : Reuss Voigt Hill
#
# Bulk Modulus (GPa) = 22.39562 26.94009 24.66786
# Shear Modulus (GPa) = 4.82369 21.87275 13.34822
#
# Velocity S-wave (km/s) = 1.56882 3.34068 2.60972
# Velocity P-wave (km/s) = 3.83516 5.35030 4.65479
#
# Compressibility (1/GPa) = 0.04465158
#
# Stress axis : x y z
#
# Youngs Moduli (GPa) = 40.13984 74.03115 72.24533
#
# Poissons Ratio (x) = 0.37899 -0.32667
# Poissons Ratio (y) = 0.20549 0.23175
# Poissons Ratio (z) = -0.18150 0.23748
#
# Static dielectric constant tensor:
#      x y z
#    x 1.733510 0.000000 0.000000 
#    y 0.000000 1.709970 0.000000 
#    z 0.000000 0.000000 1.832190 
# 
# From -- ./inp_files/4314.got.cif
#   From: 2010.05.17/outbox.cif.g08.bks.cpg/sg20_3_cif.got.tgz:4314.got - 2010.06.03 22:52:26.
