data_PCOD9318576
_publ_section_title
;
Structure prediction by ZEFSAII (Michael W. Deem and Ramdas Pophale) SiO2 
 PCOD9318576
Probable space group: C 2 2 21
;
_chemical_formula_sum "Si O2"
_cell_formula_units_Z 64
_cell_length_a 21.527934
_cell_length_b 9.397863
_cell_length_c 14.637070
_cell_angle_alpha 90.000000
_cell_angle_beta 90.000000
_cell_angle_gamma 90.000000
_cell_volume 2961.321862
_symmetry_space_group_name_H-M "C 2 2 21"
_symmetry_group_IT_number 20
_symmetry_cell_setting 'orthorhombic'
loop_
_space_group_symop_operation_xyz
x,y,z
-x,-y,1/2+z
x,-y,-z
-x,y,1/2-z
1/2+x,1/2+y,z
1/2-x,1/2-y,1/2+z
1/2+x,1/2-y,-z
1/2-x,1/2+y,1/2-z
loop_
_atom_site_type_symbol
_atom_site_label
_atom_site_fract_x
_atom_site_fract_y
_atom_site_fract_z
Si Si1 0.427766 0.905991 0.271894
Si Si2 0.773185 0.254410 0.860068
Si Si3 0.698990 0.472631 0.217730
Si Si4 0.971285 0.661966 0.390184
Si Si5 0.552714 0.521171 0.821424
Si Si6 0.888930 0.551304 0.103735
Si Si7 0.785067 0.842761 0.469159
Si Si8 0.585307 0.277529 0.939708
O O1 0.500000 0.866784 0.250000
O O2 0.398861 0.798818 0.344578
O O3 0.432506 0.054869 0.326915
O O4 0.389649 0.924982 0.178840
O O5 0.729750 0.375976 0.810876
O O6 0.777054 0.104458 0.808615
O O7 0.839864 0.330866 0.865713
O O8 0.751866 0.236993 0.965625
O O9 0.623917 0.486364 0.214643
O O10 0.716343 0.355791 0.138895
O O11 0.961597 0.818869 0.351272
O O12 0.951863 0.670206 0.496019
O O13 0.042235 0.614650 0.387020
O O14 0.500000 0.477949 0.750000
O O15 0.548833 0.416136 0.907595
O O16 0.878902 0.500000 0.000000
O O17 0.855535 0.823854 0.502210
O O18 0.763949 0.000000 0.500000
#
# Coordination Sequence:
#
# PCOD9318576 Si02
#       8
#     8   8   8   8   8   8   8   8
#     4  10  22  38  58  94 130 165 213 269 324 396
#     4  11  24  42  68  95 127 177 222 272 328 397
#     4  11  23  45  67  96 131 175 226 275 331 402
#     4  11  21  40  63  94 130 172 215 267 333 401
#     4  12  23  39  64  97 134 175 220 277 339 400
#     4  11  23  40  64  93 133 174 214 266 343 401
#     4  10  20  42  64  91 126 169 220 261 322 402
#     4  12  21  38  65  96 127 170 220 273 330 398
#
# _framework density 21.611969999999999
#
# number of rings (size 3 to 8) (size 9 to 14) (size 15 to 20)
#    0.000    1.000    3.750    6.375    1.750    0.000 
#    0.000    1.875    0.000    0.000    0.000    0.000 
#    0.000    0.000    0.000    0.000    0.000    0.000 
#
# Total GULP energy -178807.677616 kJ/mol
# GULP energy per Si atom -5587.739926 kJ/mol
# Density = 2.156278 g / cm^3
# Si number density = 21.611970 Si / 1000 Ang^3
#
#
#
# Elastic Constant Matrix: (Units=GPa)
#
#
# Indices 1 2 3 4 5 6 
#
# 1 64.5258 7.1449 19.8713 0.0000 0.0000 0.0000
# 2 7.1449 80.1781 19.7962 0.0000 0.0000 0.0000
# 3 19.8713 19.7962 97.9740 0.0000 0.0000 0.0000
# 4 0.0000 0.0000 0.0000 36.3710 0.0000 0.0000
# 5 0.0000 0.0000 0.0000 0.0000 28.4307 0.0000
# 6 0.0000 0.0000 0.0000 0.0000 0.0000 4.8836
#
#
#
# Elastic Compliance Matrix: (Units=1/GPa)
#
#
# Indices 1 2 3 4 5 6 
#
# 1 0.016565 -0.000681 -0.003222 0.000000 0.000000 0.000000
# 2 -0.000681 0.013155 -0.002520 0.000000 0.000000 0.000000
# 3 -0.003222 -0.002520 0.011370 0.000000 0.000000 0.000000
# 4 0.000000 0.000000 0.000000 0.027494 0.000000 0.000000
# 5 0.000000 0.000000 0.000000 0.000000 0.035173 0.000000
# 6 0.000000 0.000000 0.000000 0.000000 0.000000 0.204766
#
#
# Mechanical properties :
#
#
# Convention : Reuss Voigt Hill
#
# Bulk Modulus (GPa) = 35.40557 37.36698 36.38627
# Shear Modulus (GPa) = 15.11562 26.99478 21.05520
#
# Velocity S-wave (km/s) = 2.64750 3.53805 3.12466
# Velocity P-wave (km/s) = 5.07579 5.83248 5.46724
#
# Compressibility (1/GPa) = 0.02824415
#
# Stress axis : x y z
#
# Youngs Moduli (GPa) = 60.36682 76.01620 87.95434
#
# Poissons Ratio (x) = 0.05174 0.28342
# Poissons Ratio (y) = 0.04109 0.22165
# Poissons Ratio (z) = 0.19452 0.19156
#
# Static dielectric constant tensor:
#      x y z
#    x 1.804630 0.000000 0.000000 
#    y 0.000000 1.785920 0.000000 
#    z 0.000000 0.000000 1.906570 
# 
# From -- ./inp_files/22052.got.cif
#   From: 2010.05.17/outbox.cif.g08.bks.cpg/sg20_12_cif.got.tgz:22052.got - 2010.06.03 22:52:26.
