data_PCOD9318183
_publ_section_title
;
Structure prediction by ZEFSAII (Michael W. Deem and Ramdas Pophale) SiO2 
 PCOD9318183
Probable space group: C 2 2 21
;
_chemical_formula_sum "Si O2"
_cell_formula_units_Z 64
_cell_length_a 22.873594
_cell_length_b 15.588591
_cell_length_c 9.555746
_cell_angle_alpha 90.000000
_cell_angle_beta 90.000000
_cell_angle_gamma 90.000000
_cell_volume 3407.264655
_symmetry_space_group_name_H-M "C 2 2 21"
_symmetry_group_IT_number 20
_symmetry_cell_setting 'orthorhombic'
loop_
_space_group_symop_operation_xyz
x,y,z
-x,-y,1/2+z
x,-y,-z
-x,y,1/2-z
1/2+x,1/2+y,z
1/2-x,1/2-y,1/2+z
1/2+x,1/2-y,-z
1/2-x,1/2+y,1/2-z
loop_
_atom_site_type_symbol
_atom_site_label
_atom_site_fract_x
_atom_site_fract_y
_atom_site_fract_z
Si Si1 0.660069 0.101291 0.970699
Si Si2 0.432300 0.843546 0.241218
Si Si3 0.241862 0.126035 0.751014
Si Si4 0.352541 0.502248 0.836194
Si Si5 0.058826 0.147271 0.321781
Si Si6 0.159610 0.601175 0.520693
Si Si7 0.846210 0.286154 0.749342
Si Si8 0.942898 0.842580 0.156190
O O1 0.605984 0.118734 0.866826
O O2 0.719160 0.127636 0.889280
O O3 0.652510 0.158539 0.108526
O O4 0.663091 0.000000 0.000000
O O5 0.500000 0.869582 0.250000
O O6 0.430312 0.740145 0.245026
O O7 0.400025 0.871363 0.098902
O O8 0.202340 0.039604 0.748180
O O9 0.287318 0.124890 0.877038
O O10 0.200588 0.208954 0.758787
O O11 0.384610 0.413145 0.801648
O O12 0.402545 0.574157 0.821875
O O13 0.335398 0.500000 0.000000
O O14 0.047566 0.160199 0.488236
O O15 0.000000 0.110586 0.250000
O O16 0.158754 0.500000 0.500000
O O17 0.167628 0.650435 0.376376
O O18 0.906760 0.239286 0.789458
O O19 0.000000 0.850578 0.250000
#
# Coordination Sequence:
#
# PCOD9318183 Si02
#       8
#     8   8   8   8   8   8   8   8
#     4  11  24  43  64  89 121 161 207 256 301 365
#     4  10  23  42  63  91 121 157 209 249 308 367
#     4  10  22  42  62  91 122 159 208 247 301 369
#     4   9  19  37  61  91 127 165 204 243 307 367
#     4  10  20  38  63  89 128 167 198 250 303 367
#     4  11  23  43  61  88 125 155 200 262 303 347
#     4  11  22  39  65  89 121 164 201 250 308 356
#     4  10  21  36  60  93 125 162 206 251 302 368
#
# _framework density 18.783396
#
# number of rings (size 3 to 8) (size 9 to 14) (size 15 to 20)
#    0.000    1.750    1.250    3.000    3.500    0.500 
#   11.250    1.250    0.000    0.000    0.000    0.000 
#    0.000    0.000    0.000    0.000    0.000    0.000 
#
# Total GULP energy -178705.186935 kJ/mol
# GULP energy per Si atom -5584.537092 kJ/mol
# Density = 1.874064 g / cm^3
# Si number density = 18.783396 Si / 1000 Ang^3
#
#
#
# Elastic Constant Matrix: (Units=GPa)
#
#
# Indices 1 2 3 4 5 6 
#
# 1 84.6868 10.8469 28.5645 0.0000 0.0000 0.0000
# 2 10.8469 69.7323 21.4058 0.0000 0.0000 0.0000
# 3 28.5645 21.4058 83.5567 0.0000 0.0000 0.0000
# 4 0.0000 0.0000 0.0000 27.7609 0.0000 0.0000
# 5 0.0000 0.0000 0.0000 0.0000 18.3863 0.0000
# 6 0.0000 0.0000 0.0000 0.0000 0.0000 -1.3920
#
#
#
# Elastic Compliance Matrix: (Units=1/GPa)
#
#
# Indices 1 2 3 4 5 6 
#
# 1 0.013382 -0.000735 -0.004386 0.000000 0.000000 0.000000
# 2 -0.000735 0.015605 -0.003746 0.000000 0.000000 0.000000
# 3 -0.004386 -0.003746 0.014427 0.000000 0.000000 0.000000
# 4 0.000000 0.000000 0.000000 0.036022 0.000000 0.000000
# 5 0.000000 0.000000 0.000000 0.000000 0.054388 0.000000
# 6 0.000000 0.000000 0.000000 0.000000 0.000000 -0.718372
#
#
# Mechanical properties :
#
#
# Convention : Reuss Voigt Hill
#
# Bulk Modulus (GPa) = 38.94343 39.95668 39.45006
# Shear Modulus (GPa) = -8.95651 20.76161 5.90255
#
# Velocity S-wave (km/s) = -2.18602 3.32824 1.77461
# Velocity P-wave (km/s) = 3.79557 6.00734 5.02466
#
# Compressibility (1/GPa) = 0.02567827
#
# Stress axis : x y z
#
# Youngs Moduli (GPa) = 74.72788 64.08224 69.31344
#
# Poissons Ratio (x) = 0.04710 0.30404
# Poissons Ratio (y) = 0.05493 0.25968
# Poissons Ratio (z) = 0.32779 0.24008
#
# Static dielectric constant tensor:
#      x y z
#    x 1.692750 0.000000 0.000000 
#    y 0.000000 1.642610 0.000000 
#    z 0.000000 0.000000 1.639630 
# 
# From -- ./inp_files/10817.got.cif
#   From: 2010.05.17/outbox.cif.g08.bks.cpg/sg20_6_cif.got.tgz:10817.got - 2010.06.03 22:52:26.
