data_PCOD9318003
_publ_section_title
;
Structure prediction by ZEFSAII (Michael W. Deem and Ramdas Pophale) SiO2 
 PCOD9318003
Probable space group: C 2 2 21
;
_chemical_formula_sum "Si O2"
_cell_formula_units_Z 48
_cell_length_a 16.589904
_cell_length_b 10.057523
_cell_length_c 16.109590
_cell_angle_alpha 90.000000
_cell_angle_beta 90.000000
_cell_angle_gamma 90.000000
_cell_volume 2687.938914
_symmetry_space_group_name_H-M "C 2 2 21"
_symmetry_group_IT_number 20
_symmetry_cell_setting 'orthorhombic'
loop_
_space_group_symop_operation_xyz
x,y,z
-x,-y,1/2+z
x,-y,-z
-x,y,1/2-z
1/2+x,1/2+y,z
1/2-x,1/2-y,1/2+z
1/2+x,1/2-y,-z
1/2-x,1/2+y,1/2-z
loop_
_atom_site_type_symbol
_atom_site_label
_atom_site_fract_x
_atom_site_fract_y
_atom_site_fract_z
Si Si1 0.651616 0.308867 0.145718
Si Si2 0.038092 0.613127 0.558524
Si Si3 0.423741 0.023944 0.311572
Si Si4 0.086523 0.081828 0.206494
Si Si5 0.164403 0.688525 0.699618
Si Si6 0.559318 0.645562 0.017504
O O1 0.617503 0.164192 0.168982
O O2 0.607389 0.427205 0.195986
O O3 0.745334 0.321499 0.166899
O O4 0.630563 0.334709 0.048844
O O5 0.074296 0.500000 0.500000
O O6 0.101657 0.666444 0.624793
O O7 0.963309 0.545333 0.607734
O O8 0.003689 0.736089 0.506521
O O9 0.500000 0.043660 0.250000
O O10 0.361730 0.923020 0.266980
O O11 0.148901 0.167672 0.259724
O O12 0.084524 0.142322 0.113642
O O13 0.000000 0.099710 0.250000
O O14 0.523008 0.500000 0.000000
#
# Coordination Sequence:
#
# PCOD9318003 Si02
#       6
#     8   8   8   8   8   8
#     4  11  23  36  59  89 127 148 196 252 305 337
#     4  11  20  38  65  84 115 159 206 243 289 360
#     4  10  20  37  60  87 114 157 203 238 290 361
#     4  11  20  39  65  82 116 162 202 236 293 365
#     4  11  22  38  60  90 119 155 197 251 301 350
#     4  10  21  37  61  85 116 161 198 237 296 359
#
# _framework density 17.857548999999999
#
# number of rings (size 3 to 8) (size 9 to 14) (size 15 to 20)
#    0.000    1.333    5.000    2.000    0.000    2.000 
#    0.000    0.000    3.667    0.000    0.000    0.000 
#    0.000    0.000    0.000    0.000    0.000    0.000 
#
# Total GULP energy -133940.978412 kJ/mol
# GULP energy per Si atom -5580.874100 kJ/mol
# Density = 1.781690 g / cm^3
# Si number density = 17.857549 Si / 1000 Ang^3
#
#
#
# Elastic Constant Matrix: (Units=GPa)
#
#
# Indices 1 2 3 4 5 6 
#
# 1 75.9117 31.9373 28.7493 0.0000 0.0000 0.0000
# 2 31.9373 110.8138 31.0440 0.0000 0.0000 0.0000
# 3 28.7493 31.0440 87.8151 0.0000 0.0000 0.0000
# 4 0.0000 0.0000 0.0000 27.2532 0.0000 0.0000
# 5 0.0000 0.0000 0.0000 0.0000 25.1520 0.0000
# 6 0.0000 0.0000 0.0000 0.0000 0.0000 20.9871
#
#
#
# Elastic Compliance Matrix: (Units=1/GPa)
#
#
# Indices 1 2 3 4 5 6 
#
# 1 0.016194 -0.003532 -0.004053 0.000000 0.000000 0.000000
# 2 -0.003532 0.010786 -0.002657 0.000000 0.000000 0.000000
# 3 -0.004053 -0.002657 0.013654 0.000000 0.000000 0.000000
# 4 0.000000 0.000000 0.000000 0.036693 0.000000 0.000000
# 5 0.000000 0.000000 0.000000 0.000000 0.039758 0.000000
# 6 0.000000 0.000000 0.000000 0.000000 0.000000 0.047648
#
#
# Mechanical properties :
#
#
# Convention : Reuss Voigt Hill
#
# Bulk Modulus (GPa) = 49.62645 50.88908 50.25777
# Shear Modulus (GPa) = 26.05061 26.86580 26.45821
#
# Velocity S-wave (km/s) = 3.82357 3.88293 3.85337
# Velocity P-wave (km/s) = 6.88065 6.97581 6.92840
#
# Compressibility (1/GPa) = 0.02015054
#
# Stress axis : x y z
#
# Youngs Moduli (GPa) = 61.75097 92.70982 73.23990
#
# Poissons Ratio (x) = 0.32743 0.29685
# Poissons Ratio (y) = 0.21809 0.19459
# Poissons Ratio (z) = 0.25029 0.24632
#
# Static dielectric constant tensor:
#      x y z
#    x 1.563210 0.000000 0.000000 
#    y 0.000000 1.623200 0.000000 
#    z 0.000000 0.000000 1.623810 
# 
# From -- ./inp_files/21292.got.cif
#   From: 2010.05.17/outbox.cif.g08.bks.cpg/sg20_11_cif.got.tgz:21292.got - 2010.06.03 22:52:26.
