data_PCOD9318761
_publ_section_title
;
Structure prediction by ZEFSAII (Michael W. Deem and Ramdas Pophale) SiO2 
 PCOD9318761
Probable space group: C 2 2 21
;
_chemical_formula_sum "Si O2"
_cell_formula_units_Z 52
_cell_length_a 26.245847
_cell_length_b 14.289019
_cell_length_c 7.563582
_cell_angle_alpha 90.000000
_cell_angle_beta 90.000000
_cell_angle_gamma 90.000000
_cell_volume 2836.550541
_symmetry_space_group_name_H-M "C 2 2 21"
_symmetry_group_IT_number 20
_symmetry_cell_setting 'orthorhombic'
loop_
_space_group_symop_operation_xyz
x,y,z
-x,-y,1/2+z
x,-y,-z
-x,y,1/2-z
1/2+x,1/2+y,z
1/2-x,1/2-y,1/2+z
1/2+x,1/2-y,-z
1/2-x,1/2+y,1/2-z
loop_
_atom_site_type_symbol
_atom_site_label
_atom_site_fract_x
_atom_site_fract_y
_atom_site_fract_z
Si Si1 0.345688 0.198280 0.775035
Si Si2 0.308550 0.320953 0.264283
Si Si3 0.403935 0.100892 0.077497
Si Si4 0.233442 0.534912 0.812896
Si Si5 0.897217 0.284113 0.606022
Si Si6 0.000000 0.669523 0.250000
Si Si7 0.265526 0.339683 0.659585
O O1 0.306459 0.110621 0.761574
O O2 0.378020 0.203526 0.592823
O O3 0.310580 0.291764 0.776941
O O4 0.382064 0.176924 0.940012
O O5 0.286320 0.408187 0.158678
O O6 0.367353 0.300595 0.299158
O O7 0.285865 0.333744 0.461270
O O8 0.282151 0.229049 0.184576
O O9 0.382951 0.124830 0.273327
O O10 0.464526 0.111491 0.114348
O O11 0.391642 0.000000 0.000000
O O12 0.247547 0.443715 0.701659
O O13 0.213492 0.500000 0.000000
O O14 0.957551 0.275350 0.637281
#
# Coordination Sequence:
#
# PCOD9318761 Si02
#       7
#     8   8   8   8   8   4   8
#     4  10  23  37  58  81 116 154 184 235 277 337
#     4  10  21  35  55  76 114 147 182 240 272 340
#     4  10  23  36  58  80 110 154 183 235 280 334
#     4  11  23  33  54  85 114 152 190 230 273 341
#     4   9  21  41  54  82 110 142 193 230 283 333
#     4   8  22  38  54  82 106 140 192 232 280 334
#     4  10  21  37  51  82 113 145 190 225 281 334
#
# _framework density 18.332125999999999
#
# number of rings (size 3 to 8) (size 9 to 14) (size 15 to 20)
#    0.923    1.231    0.000    3.231   10.769    1.846 
#    0.000    0.000    0.000    0.000    0.000   12.923 
#    0.000    0.000    0.000    0.000    0.000    0.000 
#
# Total GULP energy -144817.151371 kJ/mol
# GULP energy per Si atom -5569.890437 kJ/mol
# Density = 1.829040 g / cm^3
# Si number density = 18.332126 Si / 1000 Ang^3
#
#
#
# Elastic Constant Matrix: (Units=GPa)
#
#
# Indices 1 2 3 4 5 6 
#
# 1 73.3090 19.9769 28.8608 0.0000 0.0000 0.0000
# 2 19.9769 72.9777 7.7041 0.0000 0.0000 0.0000
# 3 28.8608 7.7041 68.3296 0.0000 0.0000 0.0000
# 4 0.0000 0.0000 0.0000 5.4225 0.0000 0.0000
# 5 0.0000 0.0000 0.0000 0.0000 35.6425 0.0000
# 6 0.0000 0.0000 0.0000 0.0000 0.0000 18.6095
#
#
#
# Elastic Compliance Matrix: (Units=1/GPa)
#
#
# Indices 1 2 3 4 5 6 
#
# 1 0.017470 -0.004051 -0.006922 0.000000 0.000000 0.000000
# 2 -0.004051 0.014807 0.000042 0.000000 0.000000 0.000000
# 3 -0.006922 0.000042 0.017554 0.000000 0.000000 0.000000
# 4 0.000000 0.000000 0.000000 0.184418 0.000000 0.000000
# 5 0.000000 0.000000 0.000000 0.000000 0.028056 0.000000
# 6 0.000000 0.000000 0.000000 0.000000 0.000000 0.053736
#
#
# Mechanical properties :
#
#
# Convention : Reuss Voigt Hill
#
# Bulk Modulus (GPa) = 35.75552 36.41110 36.08331
# Shear Modulus (GPa) = 14.39977 22.47319 18.43648
#
# Velocity S-wave (km/s) = 2.80571 3.50507 3.17471
# Velocity P-wave (km/s) = 5.48112 6.02376 5.75883
#
# Compressibility (1/GPa) = 0.02796771
#
# Stress axis : x y z
#
# Youngs Moduli (GPa) = 57.24073 67.53350 56.96713
#
# Poissons Ratio (x) = 0.27361 0.39433
# Poissons Ratio (y) = 0.23191 -0.00238
# Poissons Ratio (z) = 0.39623 -0.00282
#
# Static dielectric constant tensor:
#      x y z
#    x 1.657610 0.000000 0.000000 
#    y 0.000000 1.673650 0.000000 
#    z 0.000000 0.000000 1.686410 
# 
# From -- ./inp_files/10733.got.cif
#   From: 2010.05.17/outbox.cif.g08.bks.cpg/sg20_6_cif.got.tgz:10733.got - 2010.06.03 22:52:26.
