data_PCOD9318805
_publ_section_title
;
Structure prediction by ZEFSAII (Michael W. Deem and Ramdas Pophale) SiO2 
 PCOD9318805
Probable space group: C 2 2 21
;
_chemical_formula_sum "Si O2"
_cell_formula_units_Z 64
_cell_length_a 22.403716
_cell_length_b 10.223898
_cell_length_c 15.345386
_cell_angle_alpha 90.000000
_cell_angle_beta 90.000000
_cell_angle_gamma 90.000000
_cell_volume 3514.911414
_symmetry_space_group_name_H-M "C 2 2 21"
_symmetry_group_IT_number 20
_symmetry_cell_setting 'orthorhombic'
loop_
_space_group_symop_operation_xyz
x,y,z
-x,-y,1/2+z
x,-y,-z
-x,y,1/2-z
1/2+x,1/2+y,z
1/2-x,1/2-y,1/2+z
1/2+x,1/2-y,-z
1/2-x,1/2+y,1/2-z
loop_
_atom_site_type_symbol
_atom_site_label
_atom_site_fract_x
_atom_site_fract_y
_atom_site_fract_z
Si Si1 0.650179 0.022780 0.102797
Si Si2 0.936228 0.532580 0.764367
Si Si3 0.174899 0.210380 0.809707
Si Si4 0.277252 0.519344 0.404972
Si Si5 0.943634 0.763089 0.195826
Si Si6 0.644233 0.101182 0.575772
Si Si7 0.870546 0.143272 0.960844
Si Si8 0.250185 0.310086 0.146875
O O1 0.596751 0.994111 0.171974
O O2 0.702298 0.923304 0.132499
O O3 0.672052 0.172193 0.120321
O O4 0.636940 0.000000 0.000000
O O5 0.951517 0.393239 0.809943
O O6 0.892335 0.597680 0.834451
O O7 0.000000 0.600898 0.750000
O O8 0.181275 0.063686 0.842858
O O9 0.115000 0.221865 0.754524
O O10 0.231086 0.224364 0.745381
O O11 0.302673 0.500000 0.500000
O O12 0.211342 0.451335 0.404315
O O13 0.271461 0.671857 0.389458
O O14 0.926116 0.820939 0.102270
O O15 0.000000 0.816356 0.250000
O O16 0.639979 0.243853 0.532729
O O17 0.622158 0.000000 0.500000
O O18 0.810566 0.148142 0.902510
O O19 0.877744 0.000000 0.000000
#
# Coordination Sequence:
#
# PCOD9318805 Si02
#       8
#     8   8   8   8   8   8   8   8
#     4  11  23  38  57  89 127 155 196 256 304 364
#     4  10  21  40  63  88 115 158 208 256 302 354
#     4  10  21  36  58  83 115 156 196 238 296 356
#     4  11  20  34  56  83 115 152 185 232 291 360
#     4   9  19  40  62  83 115 157 206 242 294 362
#     4  11  19  37  62  87 118 149 202 249 294 366
#     4  11  22  36  60  93 116 154 197 249 304 357
#     4  11  20  36  57  88 121 150 194 238 303 362
#
# _framework density 18.208138999999999
#
# number of rings (size 3 to 8) (size 9 to 14) (size 15 to 20)
#    0.000    1.500    3.750    4.125    1.750    0.500 
#    6.750    1.250    0.000    0.000    0.000    0.000 
#    0.000    0.000    0.000    0.000    0.000    0.000 
#
# Total GULP energy -178378.664285 kJ/mol
# GULP energy per Si atom -5574.333259 kJ/mol
# Density = 1.816670 g / cm^3
# Si number density = 18.208139 Si / 1000 Ang^3
#
#
#
# Elastic Constant Matrix: (Units=GPa)
#
#
# Indices 1 2 3 4 5 6 
#
# 1 40.2356 12.0841 4.2031 0.0000 0.0000 0.0000
# 2 12.0841 85.2439 12.0102 0.0000 0.0000 0.0000
# 3 4.2031 12.0102 68.6892 0.0000 0.0000 0.0000
# 4 0.0000 0.0000 0.0000 25.4964 0.0000 0.0000
# 5 0.0000 0.0000 0.0000 0.0000 17.3403 0.0000
# 6 0.0000 0.0000 0.0000 0.0000 0.0000 -48.2964
#
#
#
# Elastic Compliance Matrix: (Units=1/GPa)
#
#
# Indices 1 2 3 4 5 6 
#
# 1 0.026022 -0.003552 -0.000971 0.000000 0.000000 0.000000
# 2 -0.003552 0.012512 -0.001970 0.000000 0.000000 0.000000
# 3 -0.000971 -0.001970 0.014962 0.000000 0.000000 0.000000
# 4 0.000000 0.000000 0.000000 0.039221 0.000000 0.000000
# 5 0.000000 0.000000 0.000000 0.000000 0.057669 0.000000
# 6 0.000000 0.000000 0.000000 0.000000 0.000000 -0.020705
#
#
# Mechanical properties :
#
#
# Convention : Reuss Voigt Hill
#
# Bulk Modulus (GPa) = 24.68582 27.86262 26.27422
# Shear Modulus (GPa) = 32.01608 9.96614 20.99111
#
# Velocity S-wave (km/s) = 4.19780 2.34208 3.39904
# Velocity P-wave (km/s) = 6.08953 4.75913 5.46497
#
# Compressibility (1/GPa) = 0.04050909
#
# Stress axis : x y z
#
# Youngs Moduli (GPa) = 38.42923 79.92212 66.83478
#
# Poissons Ratio (x) = 0.28388 0.06491
# Poissons Ratio (y) = 0.13650 0.13169
# Poissons Ratio (z) = 0.03732 0.15748
#
# Static dielectric constant tensor:
#      x y z
#    x 1.654350 0.000000 0.000000 
#    y 0.000000 1.500340 0.000000 
#    z 0.000000 0.000000 1.771220 
# 
# From -- ./inp_files/22034.got.cif
#   From: 2010.05.17/outbox.cif.g08.bks.cpg/sg20_12_cif.got.tgz:22034.got - 2010.06.03 22:52:26.
