data_PCOD9318568
_publ_section_title
;
Structure prediction by ZEFSAII (Michael W. Deem and Ramdas Pophale) SiO2 
 PCOD9318568
Probable space group: C 2 2 21
;
_chemical_formula_sum "Si O2"
_cell_formula_units_Z 40
_cell_length_a 22.492987
_cell_length_b 8.774182
_cell_length_c 9.930817
_cell_angle_alpha 90.000000
_cell_angle_beta 90.000000
_cell_angle_gamma 90.000000
_cell_volume 1959.921828
_symmetry_space_group_name_H-M "C 2 2 21"
_symmetry_group_IT_number 20
_symmetry_cell_setting 'orthorhombic'
loop_
_space_group_symop_operation_xyz
x,y,z
-x,-y,1/2+z
x,-y,-z
-x,y,1/2-z
1/2+x,1/2+y,z
1/2-x,1/2-y,1/2+z
1/2+x,1/2-y,-z
1/2-x,1/2+y,1/2-z
loop_
_atom_site_type_symbol
_atom_site_label
_atom_site_fract_x
_atom_site_fract_y
_atom_site_fract_z
Si Si1 0.580191 0.522477 0.641775
Si Si2 0.814772 0.071200 0.650499
Si Si3 0.090768 0.484842 0.155754
Si Si4 0.717018 0.933184 0.848558
Si Si5 0.000000 0.736130 0.250000
Si Si6 0.500000 0.264140 0.750000
O O1 0.613170 0.500000 0.500000
O O2 0.623112 0.553533 0.768079
O O3 0.531424 0.656843 0.640920
O O4 0.540797 0.372960 0.661637
O O5 0.795814 0.250530 0.643361
O O6 0.818153 0.000000 0.500000
O O7 0.768814 0.977778 0.744837
O O8 0.156998 0.489184 0.213953
O O9 0.048349 0.342145 0.178689
O O10 0.052188 0.628530 0.199360
O O11 0.102661 0.500000 0.000000
O O12 0.728747 0.000000 0.000000
#
# Coordination Sequence:
#
# PCOD9318568 Si02
#       6
#     8   8   8   8   4   4
#     4  11  24  41  67 100 140 177 226 272 336 401
#     4  12  27  46  73 100 136 180 230 286 346 408
#     4  10  21  40  67  95 134 173 222 272 341 399
#     4  11  25  47  73 100 136 176 230 285 345 408
#     4  10  20  42  62  98 134 176 222 270 334 398
#     4  10  24  38  66 100 134 184 218 278 322 414
#
# _framework density 20.408978000000001
#
# number of rings (size 3 to 8) (size 9 to 14) (size 15 to 20)
#    0.000    1.200    2.000    3.000    8.400    3.200 
#    0.000    1.000    0.000    0.000    0.000    0.000 
#    0.000    0.000    0.000    0.000    0.000    0.000 
#
# Total GULP energy -111555.824082 kJ/mol
# GULP energy per Si atom -5577.791204 kJ/mol
# Density = 2.036253 g / cm^3
# Si number density = 20.408978 Si / 1000 Ang^3
#
#
#
# Elastic Constant Matrix: (Units=GPa)
#
#
# Indices 1 2 3 4 5 6 
#
# 1 101.9745 25.3464 41.8669 0.0000 0.0000 0.0000
# 2 25.3464 125.8851 46.0163 0.0000 0.0000 0.0000
# 3 41.8669 46.0163 129.8889 0.0000 0.0000 0.0000
# 4 0.0000 0.0000 0.0000 112.0519 0.0000 0.0000
# 5 0.0000 0.0000 0.0000 0.0000 27.2155 0.0000
# 6 0.0000 0.0000 0.0000 0.0000 0.0000 24.4604
#
#
#
# Elastic Compliance Matrix: (Units=1/GPa)
#
#
# Indices 1 2 3 4 5 6 
#
# 1 0.011432 -0.001097 -0.003296 0.000000 0.000000 0.000000
# 2 -0.001097 0.009231 -0.002917 0.000000 0.000000 0.000000
# 3 -0.003296 -0.002917 0.009795 0.000000 0.000000 0.000000
# 4 0.000000 0.000000 0.000000 0.008924 0.000000 0.000000
# 5 0.000000 0.000000 0.000000 0.000000 0.036744 0.000000
# 6 0.000000 0.000000 0.000000 0.000000 0.000000 0.040882
#
#
# Mechanical properties :
#
#
# Convention : Reuss Voigt Hill
#
# Bulk Modulus (GPa) = 63.13939 64.91198 64.02568
# Shear Modulus (GPa) = 36.52093 49.04680 42.78387
#
# Velocity S-wave (km/s) = 4.23478 4.90756 4.58353
# Velocity P-wave (km/s) = 7.41049 7.99918 7.71046
#
# Compressibility (1/GPa) = 0.01583797
#
# Stress axis : x y z
#
# Youngs Moduli (GPa) = 87.47081 108.33331 102.09592
#
# Poissons Ratio (x) = 0.11883 0.33655
# Poissons Ratio (y) = 0.09595 0.29778
# Poissons Ratio (z) = 0.28834 0.31597
#
# Static dielectric constant tensor:
#      x y z
#    x 1.712880 0.000000 0.000000 
#    y 0.000000 1.667000 0.000000 
#    z 0.000000 0.000000 1.728380 
# 
# From -- ./inp_files/6310.got.cif
#   From: 2010.05.17/outbox.cif.g08.bks.cpg/sg20_4_cif.got.tgz:6310.got - 2010.06.03 22:52:26.
