data_PCOD9318102
_publ_section_title
;
Structure prediction by ZEFSAII (Michael W. Deem and Ramdas Pophale) SiO2 
 PCOD9318102
Probable space group: C 2 2 21
;
_chemical_formula_sum "Si O2"
_cell_formula_units_Z 52
_cell_length_a 11.114622
_cell_length_b 8.147186
_cell_length_c 26.608136
_cell_angle_alpha 90.000000
_cell_angle_beta 90.000000
_cell_angle_gamma 90.000000
_cell_volume 2409.443686
_symmetry_space_group_name_H-M "C 2 2 21"
_symmetry_group_IT_number 20
_symmetry_cell_setting 'orthorhombic'
loop_
_space_group_symop_operation_xyz
x,y,z
-x,-y,1/2+z
x,-y,-z
-x,y,1/2-z
1/2+x,1/2+y,z
1/2-x,1/2-y,1/2+z
1/2+x,1/2-y,-z
1/2-x,1/2+y,1/2-z
loop_
_atom_site_type_symbol
_atom_site_label
_atom_site_fract_x
_atom_site_fract_y
_atom_site_fract_z
Si Si1 0.702061 0.245545 0.531883
Si Si2 0.538818 0.748159 0.802610
Si Si3 0.730730 0.618562 0.681201
Si Si4 0.861034 0.914851 0.736498
Si Si5 0.681563 0.608868 0.570004
Si Si6 0.999853 0.500000 0.500000
Si Si7 0.576531 0.777900 0.913236
O O1 0.664174 0.421484 0.553603
O O2 0.741333 0.283923 0.474344
O O3 0.588425 0.129084 0.526566
O O4 0.806060 0.178032 0.568489
O O5 0.500000 0.837082 0.750000
O O6 0.409744 0.668249 0.815622
O O7 0.626269 0.592644 0.791173
O O8 0.578716 0.829385 0.854814
O O9 0.807637 0.764966 0.705266
O O10 0.726884 0.455154 0.716076
O O11 0.752762 0.608515 0.622127
O O12 0.000000 0.874896 0.750000
O O13 0.548298 0.683861 0.577538
O O14 0.925177 0.578941 0.454860
#
# Coordination Sequence:
#
# PCOD9318102 Si02
#       7
#     8   8   8   8   8   4   8
#     4  10  21  37  56  80 109 144 185 230 277 334
#     4   8  18  35  57  80 108 147 187 226 277 335
#     4   9  18  37  59  80 115 148 181 235 276 327
#     4   9  19  37  57  83 113 146 188 227 277 334
#     4   9  20  38  57  79 111 148 184 225 284 335
#     4  10  22  36  56  88 114 144 194 232 278 342
#     4  10  20  38  58  81 114 149 185 236 285 333
#
# _framework density 21.581744
#
# number of rings (size 3 to 8) (size 9 to 14) (size 15 to 20)
#    0.000    3.077    0.000    0.923    0.000    8.615 
#    0.000   20.000    0.000    0.000    0.000    0.000 
#    0.000    0.000    0.000    0.000    0.000    0.000 
#
# Total GULP energy -144852.215479 kJ/mol
# GULP energy per Si atom -5571.239057 kJ/mol
# Density = 2.153262 g / cm^3
# Si number density = 21.581744 Si / 1000 Ang^3
#
#
#
# Elastic Constant Matrix: (Units=GPa)
#
#
# Indices 1 2 3 4 5 6 
#
# 1 56.5379 20.1276 41.8901 0.0000 0.0000 0.0000
# 2 20.1276 47.5710 27.1325 0.0000 0.0000 0.0000
# 3 41.8901 27.1325 176.2255 0.0000 0.0000 0.0000
# 4 0.0000 0.0000 0.0000 25.8458 0.0000 0.0000
# 5 0.0000 0.0000 0.0000 0.0000 37.7107 0.0000
# 6 0.0000 0.0000 0.0000 0.0000 0.0000 30.8610
#
#
#
# Elastic Compliance Matrix: (Units=1/GPa)
#
#
# Indices 1 2 3 4 5 6 
#
# 1 0.023658 -0.007457 -0.004476 0.000000 0.000000 0.000000
# 2 -0.007457 0.025395 -0.002137 0.000000 0.000000 0.000000
# 3 -0.004476 -0.002137 0.007067 0.000000 0.000000 0.000000
# 4 0.000000 0.000000 0.000000 0.038691 0.000000 0.000000
# 5 0.000000 0.000000 0.000000 0.000000 0.026518 0.000000
# 6 0.000000 0.000000 0.000000 0.000000 0.000000 0.032403
#
#
# Mechanical properties :
#
#
# Convention : Reuss Voigt Hill
#
# Bulk Modulus (GPa) = 35.73886 50.95944 43.34915
# Shear Modulus (GPa) = 26.15060 31.62912 28.88986
#
# Velocity S-wave (km/s) = 3.48472 3.83240 3.66269
# Velocity P-wave (km/s) = 5.72597 6.57622 6.16577
#
# Compressibility (1/GPa) = 0.02798075
#
# Stress axis : x y z
#
# Youngs Moduli (GPa) = 42.26892 39.37710 141.49285
#
# Poissons Ratio (x) = 0.29364 0.63326
# Poissons Ratio (y) = 0.31521 0.30242
# Poissons Ratio (z) = 0.18918 0.08416
#
# Static dielectric constant tensor:
#      x y z
#    x 1.793010 0.000000 0.000000 
#    y 0.000000 1.795800 0.000000 
#    z 0.000000 0.000000 1.867660 
# 
# From -- ./inp_files/30282.got.cif
#   From: 2010.05.17/outbox.cif.g08.bks.cpg/sg20_16_cif.got.tgz:30282.got - 2010.06.03 22:52:26.
