data_PCOD9318333
_publ_section_title
;
Structure prediction by ZEFSAII (Michael W. Deem and Ramdas Pophale) SiO2 
 PCOD9318333
Probable space group: C 2 2 21
;
_chemical_formula_sum "Si O2"
_cell_formula_units_Z 56
_cell_length_a 12.614147
_cell_length_b 15.548344
_cell_length_c 14.203450
_cell_angle_alpha 90.000000
_cell_angle_beta 90.000000
_cell_angle_gamma 90.000000
_cell_volume 2785.709820
_symmetry_space_group_name_H-M "C 2 2 21"
_symmetry_group_IT_number 20
_symmetry_cell_setting 'orthorhombic'
loop_
_space_group_symop_operation_xyz
x,y,z
-x,-y,1/2+z
x,-y,-z
-x,y,1/2-z
1/2+x,1/2+y,z
1/2-x,1/2-y,1/2+z
1/2+x,1/2-y,-z
1/2-x,1/2+y,1/2-z
loop_
_atom_site_type_symbol
_atom_site_label
_atom_site_fract_x
_atom_site_fract_y
_atom_site_fract_z
Si Si1 0.856551 0.435765 0.105486
Si Si2 0.025903 0.605869 0.355563
Si Si3 0.500000 0.710833 0.250000
Si Si4 0.064141 0.652874 0.972558
Si Si5 0.983713 0.846179 0.542778
Si Si6 0.422038 0.305621 0.160215
Si Si7 0.818615 0.650734 0.702484
Si Si8 0.838158 0.000000 0.500000
O O1 0.901679 0.532134 0.101013
O O2 0.840918 0.413261 0.213532
O O3 0.740957 0.440363 0.060438
O O4 0.944087 0.370248 0.062887
O O5 0.072563 0.702208 0.355339
O O6 0.000000 0.581974 0.250000
O O7 0.925513 0.614563 0.424169
O O8 0.471374 0.664607 0.150100
O O9 0.602456 0.769477 0.225352
O O10 0.078016 0.755563 0.973813
O O11 0.141102 0.613860 0.896214
O O12 0.049350 0.848318 0.442445
O O13 0.912487 0.930883 0.550173
O O14 0.500000 0.325379 0.250000
O O15 0.303617 0.326767 0.192431
#
# Coordination Sequence:
#
# PCOD9318333 Si02
#       8
#     8   8   4   8   8   8   8   4
#     4  12  21  38  66 102 131 173 236 286 338 407
#     4  10  21  37  60  97 137 170 225 290 340 402
#     4  10  22  44  72 100 130 180 242 276 348 416
#     4  10  20  39  65  94 137 168 227 282 342 409
#     4  10  23  45  65  96 135 179 234 283 335 423
#     4  10  23  44  64  97 141 188 229 275 349 429
#     4  11  21  40  70  98 131 185 228 283 347 412
#     4  12  26  40  70  98 136 188 234 286 348 408
#
# _framework density 20.102596999999999
#
# number of rings (size 3 to 8) (size 9 to 14) (size 15 to 20)
#    0.000    1.429    4.286    1.714    4.000    0.000 
#   14.143    0.000    3.143    0.000    0.000    0.000 
#    0.000    0.000    0.000    0.000    0.000    0.000 
#
# Total GULP energy -155908.576158 kJ/mol
# GULP energy per Si atom -5568.163434 kJ/mol
# Density = 2.005684 g / cm^3
# Si number density = 20.102597 Si / 1000 Ang^3
#
#
#
# Elastic Constant Matrix: (Units=GPa)
#
#
# Indices 1 2 3 4 5 6 
#
# 1 91.9548 26.6376 37.7792 0.0000 0.0000 0.0000
# 2 26.6376 51.4756 20.0334 0.0000 0.0000 0.0000
# 3 37.7792 20.0334 140.5626 0.0000 0.0000 0.0000
# 4 0.0000 0.0000 0.0000 13.9864 0.0000 0.0000
# 5 0.0000 0.0000 0.0000 0.0000 14.6487 0.0000
# 6 0.0000 0.0000 0.0000 0.0000 0.0000 -0.5345
#
#
#
# Elastic Compliance Matrix: (Units=1/GPa)
#
#
# Indices 1 2 3 4 5 6 
#
# 1 0.013791 -0.006028 -0.002847 0.000000 0.000000 0.000000
# 2 -0.006028 0.023203 -0.001687 0.000000 0.000000 0.000000
# 3 -0.002847 -0.001687 0.008120 0.000000 0.000000 0.000000
# 4 0.000000 0.000000 0.000000 0.071498 0.000000 0.000000
# 5 0.000000 0.000000 0.000000 0.000000 0.068265 0.000000
# 6 0.000000 0.000000 0.000000 0.000000 0.000000 -1.870899
#
#
# Mechanical properties :
#
#
# Convention : Reuss Voigt Hill
#
# Bulk Modulus (GPa) = 41.68633 50.32147 46.00390
# Shear Modulus (GPa) = -3.01768 18.92298 7.95265
#
# Velocity S-wave (km/s) = -1.22654 3.07142 1.99113
# Velocity P-wave (km/s) = 4.33312 6.13717 5.31229
#
# Compressibility (1/GPa) = 0.02398868
#
# Stress axis : x y z
#
# Youngs Moduli (GPa) = 72.51048 43.09844 123.15316
#
# Poissons Ratio (x) = 0.25982 0.35067
# Poissons Ratio (y) = 0.43713 0.20771
# Poissons Ratio (z) = 0.20647 0.07269
#
# Static dielectric constant tensor:
#      x y z
#    x 1.725490 0.000000 0.000000 
#    y 0.000000 1.702040 0.000000 
#    z 0.000000 0.000000 1.816050 
# 
# From -- ./inp_files/20100.got.cif
#   From: 2010.05.17/outbox.cif.g08.bks.cpg/sg20_11_cif.got.tgz:20100.got - 2010.06.03 22:52:26.
