data_PCOD9318300
_publ_section_title
;
Structure prediction by ZEFSAII (Michael W. Deem and Ramdas Pophale) SiO2 
 PCOD9318300
Probable space group: C 2 2 21
;
_chemical_formula_sum "Si O2"
_cell_formula_units_Z 48
_cell_length_a 14.578530
_cell_length_b 12.078654
_cell_length_c 13.780234
_cell_angle_alpha 90.000000
_cell_angle_beta 90.000000
_cell_angle_gamma 90.000000
_cell_volume 2426.547896
_symmetry_space_group_name_H-M "C 2 2 21"
_symmetry_group_IT_number 20
_symmetry_cell_setting 'orthorhombic'
loop_
_space_group_symop_operation_xyz
x,y,z
-x,-y,1/2+z
x,-y,-z
-x,y,1/2-z
1/2+x,1/2+y,z
1/2-x,1/2-y,1/2+z
1/2+x,1/2-y,-z
1/2-x,1/2+y,1/2-z
loop_
_atom_site_type_symbol
_atom_site_label
_atom_site_fract_x
_atom_site_fract_y
_atom_site_fract_z
Si Si1 0.903177 0.613408 0.776528
Si Si2 0.696866 0.379866 0.461605
Si Si3 0.259703 0.509384 0.382950
Si Si4 0.957960 0.162626 0.112157
Si Si5 0.597621 0.439233 0.270337
Si Si6 0.837529 0.764724 0.606179
O O1 0.832515 0.541263 0.837841
O O2 0.930227 0.724204 0.835253
O O3 0.858743 0.664447 0.679504
O O4 0.000000 0.556454 0.750000
O O5 0.726591 0.500000 0.500000
O O6 0.605266 0.349957 0.519276
O O7 0.663608 0.385402 0.350361
O O8 0.778226 0.292585 0.477858
O O9 0.262449 0.500000 0.500000
O O10 0.345231 0.451826 0.328405
O O11 0.272441 0.638091 0.354607
O O12 0.931223 0.058200 0.180374
O O13 0.065290 0.175296 0.086667
O O14 0.500000 0.382444 0.250000
#
# Coordination Sequence:
#
# PCOD9318300 Si02
#       6
#     8   8   8   8   8   8
#     4  10  21  42  64  83 123 174 208 251 318 389
#     4  10  23  39  63  92 124 158 211 261 309 379
#     4  12  24  37  66  98 125 162 217 272 315 379
#     4  10  20  39  63  87 120 168 210 243 312 394
#     4  11  20  37  61  94 122 160 204 260 320 373
#     4  11  21  40  65  90 122 167 208 254 319 378
#
# _framework density 19.781186999999999
#
# number of rings (size 3 to 8) (size 9 to 14) (size 15 to 20)
#    0.000    1.333    5.000    1.500    2.333    0.000 
#    0.000    7.500    0.000    0.000    0.000    0.000 
#    0.000    0.000    0.000    0.000    0.000    0.000 
#
# Total GULP energy -133842.925500 kJ/mol
# GULP energy per Si atom -5576.788562 kJ/mol
# Density = 1.973616 g / cm^3
# Si number density = 19.781187 Si / 1000 Ang^3
#
#
#
# Elastic Constant Matrix: (Units=GPa)
#
#
# Indices 1 2 3 4 5 6 
#
# 1 146.3850 41.6751 41.9274 0.0000 0.0000 0.0000
# 2 41.6751 25.6218 -9.7628 0.0000 0.0000 0.0000
# 3 41.9274 -9.7628 85.8291 0.0000 0.0000 0.0000
# 4 0.0000 0.0000 0.0000 8.2922 0.0000 0.0000
# 5 0.0000 0.0000 0.0000 0.0000 36.8770 0.0000
# 6 0.0000 0.0000 0.0000 0.0000 0.0000 50.0942
#
#
#
# Elastic Compliance Matrix: (Units=1/GPa)
#
#
# Indices 1 2 3 4 5 6 
#
# 1 0.026385 -0.049994 -0.018576 0.000000 0.000000 0.000000
# 2 -0.049994 0.135527 0.039838 0.000000 0.000000 0.000000
# 3 -0.018576 0.039838 0.025257 0.000000 0.000000 0.000000
# 4 0.000000 0.000000 0.000000 0.120595 0.000000 0.000000
# 5 0.000000 0.000000 0.000000 0.000000 0.027117 0.000000
# 6 0.000000 0.000000 0.000000 0.000000 0.000000 0.019962
#
#
# Mechanical properties :
#
#
# Convention : Reuss Voigt Hill
#
# Bulk Modulus (GPa) = 7.70980 45.05724 26.38352
# Shear Modulus (GPa) = 10.97592 31.31908 21.14750
#
# Velocity S-wave (km/s) = 2.35812 3.98336 3.27321
# Velocity P-wave (km/s) = 3.36456 6.63200 5.25850
#
# Compressibility (1/GPa) = 0.12970499
#
# Stress axis : x y z
#
# Youngs Moduli (GPa) = 37.90052 7.37859 39.59340
#
# Poissons Ratio (x) = 0.36889 0.73547
# Poissons Ratio (y) = 1.89481 -1.57732
# Poissons Ratio (z) = 0.70403 -0.29395
#
# Static dielectric constant tensor:
#      x y z
#    x 1.739050 0.000000 0.000000 
#    y 0.000000 1.698060 0.000000 
#    z 0.000000 0.000000 1.728470 
# 
# From -- ./inp_files/20653.got.cif
#   From: 2010.05.17/outbox.cif.g08.bks.cpg/sg20_11_cif.got.tgz:20653.got - 2010.06.03 22:52:26.
