data_PCOD9318147
_publ_section_title
;
Structure prediction by ZEFSAII (Michael W. Deem and Ramdas Pophale) SiO2 
 PCOD9318147
Probable space group: C 2 2 21
;
_chemical_formula_sum "Si O2"
_cell_formula_units_Z 56
_cell_length_a 15.338985
_cell_length_b 12.793889
_cell_length_c 12.382824
_cell_angle_alpha 90.000000
_cell_angle_beta 90.000000
_cell_angle_gamma 90.000000
_cell_volume 2430.070657
_symmetry_space_group_name_H-M "C 2 2 21"
_symmetry_group_IT_number 20
_symmetry_cell_setting 'orthorhombic'
loop_
_space_group_symop_operation_xyz
x,y,z
-x,-y,1/2+z
x,-y,-z
-x,y,1/2-z
1/2+x,1/2+y,z
1/2-x,1/2-y,1/2+z
1/2+x,1/2-y,-z
1/2-x,1/2+y,1/2-z
loop_
_atom_site_type_symbol
_atom_site_label
_atom_site_fract_x
_atom_site_fract_y
_atom_site_fract_z
Si Si1 0.874920 0.091686 0.914705
Si Si2 0.329899 0.274491 0.902253
Si Si3 0.563129 0.555982 0.885227
Si Si4 0.588349 0.057352 0.192306
Si Si5 0.134757 0.733270 0.028741
Si Si6 0.588551 0.816325 0.207335
Si Si7 0.217591 0.973745 0.742577
O O1 0.961428 0.063586 0.847630
O O2 0.792689 0.077775 0.834532
O O3 0.885430 0.192854 0.991484
O O4 0.858737 0.000000 0.000000
O O5 0.236522 0.252760 0.951476
O O6 0.356660 0.185611 0.818144
O O7 0.320546 0.375114 0.823839
O O8 0.588629 0.675351 0.905667
O O9 0.647257 0.498509 0.834429
O O10 0.550893 0.500000 0.000000
O O11 0.500000 0.097568 0.250000
O O12 0.607272 0.124470 0.085321
O O13 0.680751 0.055480 0.258941
O O14 0.571629 0.935153 0.171338
O O15 0.118707 0.739114 0.901224
O O16 0.500000 0.763597 0.250000
#
# Coordination Sequence:
#
# PCOD9318147 Si02
#       7
#     8   8   8   8   8   8   8
#     4   9  19  35  60  91 123 161 211 266 327 397
#     4  10  21  38  63  92 123 169 218 263 326 400
#     4  11  22  37  59  94 131 165 208 272 339 393
#     4  10  23  42  63  88 121 167 223 272 320 384
#     4  11  23  40  63  90 127 172 219 270 326 396
#     4  11  22  40  63  88 122 167 216 268 324 389
#     4  10  20  38  61  89 125 165 208 267 331 393
#
# _framework density 23.044595999999999
#
# number of rings (size 3 to 8) (size 9 to 14) (size 15 to 20)
#    0.000    1.714    0.000    4.286    0.000    5.714 
#    0.000   10.000    0.000    0.000    0.000    0.000 
#    0.000    0.000    0.000    0.000    0.000    0.000 
#
# Total GULP energy -156058.241611 kJ/mol
# GULP energy per Si atom -5573.508629 kJ/mol
# Density = 2.299215 g / cm^3
# Si number density = 23.044596 Si / 1000 Ang^3
#
#
#
# Elastic Constant Matrix: (Units=GPa)
#
#
# Indices 1 2 3 4 5 6 
#
# 1 148.0688 -1.3515 63.3297 0.0000 0.0000 0.0000
# 2 -1.3515 49.8412 -4.6807 0.0000 0.0000 0.0000
# 3 63.3297 -4.6807 58.5741 0.0000 0.0000 0.0000
# 4 0.0000 0.0000 0.0000 18.4697 0.0000 0.0000
# 5 0.0000 0.0000 0.0000 0.0000 39.9817 0.0000
# 6 0.0000 0.0000 0.0000 0.0000 0.0000 13.7858
#
#
#
# Elastic Compliance Matrix: (Units=1/GPa)
#
#
# Indices 1 2 3 4 5 6 
#
# 1 0.012607 -0.000945 -0.013706 0.000000 0.000000 0.000000
# 2 -0.000945 0.020286 0.002643 0.000000 0.000000 0.000000
# 3 -0.013706 0.002643 0.032103 0.000000 0.000000 0.000000
# 4 0.000000 0.000000 0.000000 0.054143 0.000000 0.000000
# 5 0.000000 0.000000 0.000000 0.000000 0.025011 0.000000
# 6 0.000000 0.000000 0.000000 0.000000 0.000000 0.072539
#
#
# Mechanical properties :
#
#
# Convention : Reuss Voigt Hill
#
# Bulk Modulus (GPa) = 24.40255 41.23103 32.81679
# Shear Modulus (GPa) = 19.65670 27.72653 23.69162
#
# Velocity S-wave (km/s) = 2.92376 3.47243 3.20984
# Velocity P-wave (km/s) = 4.69149 5.83162 5.29235
#
# Compressibility (1/GPa) = 0.04097933
#
# Stress axis : x y z
#
# Youngs Moduli (GPa) = 79.31927 49.29427 31.14992
#
# Poissons Ratio (x) = 0.04660 0.42695
# Poissons Ratio (y) = 0.07498 -0.08234
# Poissons Ratio (z) = 1.08718 -0.13029
#
# Static dielectric constant tensor:
#      x y z
#    x 1.979180 0.000000 0.000000 
#    y 0.000000 1.895630 0.000000 
#    z 0.000000 0.000000 1.984810 
# 
# From -- ./inp_files/15128.got.cif
#   From: 2010.05.17/outbox.cif.g08.bks.cpg/sg20_8_cif.got.tgz:15128.got - 2010.06.03 22:52:26.
