data_PCOD9318817
_publ_section_title
;
Structure prediction by ZEFSAII (Michael W. Deem and Ramdas Pophale) SiO2 
 PCOD9318817
Probable space group: C 2 2 21
;
_chemical_formula_sum "Si O2"
_cell_formula_units_Z 48
_cell_length_a 22.334147
_cell_length_b 11.472872
_cell_length_c 9.783179
_cell_angle_alpha 90.000000
_cell_angle_beta 90.000000
_cell_angle_gamma 90.000000
_cell_volume 2506.810576
_symmetry_space_group_name_H-M "C 2 2 21"
_symmetry_group_IT_number 20
_symmetry_cell_setting 'orthorhombic'
loop_
_space_group_symop_operation_xyz
x,y,z
-x,-y,1/2+z
x,-y,-z
-x,y,1/2-z
1/2+x,1/2+y,z
1/2-x,1/2-y,1/2+z
1/2+x,1/2-y,-z
1/2-x,1/2+y,1/2-z
loop_
_atom_site_type_symbol
_atom_site_label
_atom_site_fract_x
_atom_site_fract_y
_atom_site_fract_z
Si Si1 0.628422 0.292606 0.713159
Si Si2 0.156361 0.942374 0.197841
Si Si3 0.782338 0.466087 0.864577
Si Si4 0.439745 0.500000 0.500000
Si Si5 0.000000 0.137804 0.250000
Si Si6 0.172446 0.588206 0.898330
Si Si7 0.204495 0.208049 0.561165
O O1 0.642377 0.426960 0.750695
O O2 0.556898 0.289748 0.697470
O O3 0.643756 0.203784 0.834949
O O4 0.667933 0.269417 0.577878
O O5 0.163128 0.857857 0.327160
O O6 0.222123 0.955277 0.133020
O O7 0.106096 0.915699 0.084463
O O8 0.814249 0.506203 0.729950
O O9 0.773320 0.328376 0.871160
O O10 0.818117 0.500000 0.000000
O O11 0.478313 0.561481 0.381320
O O12 0.236232 0.629984 0.962537
O O13 0.139418 0.500000 0.000000
#
# Coordination Sequence:
#
# PCOD9318817 Si02
#       7
#     8   8   8   4   4   8   8
#     4  11  22  42  61  90 130 163 217 269 317 395
#     4  10  21  36  60  93 128 164 211 260 325 384
#     4  11  20  35  57  96 130 163 205 255 325 388
#     4  10  22  40  62  90 126 164 216 268 322 394
#     4  10  26  40  64  90 126 172 216 272 332 370
#     4  11  24  37  64  95 129 169 209 258 329 394
#     4  11  22  37  65  95 133 168 208 265 332 392
#
# _framework density 19.147836999999999
#
# number of rings (size 3 to 8) (size 9 to 14) (size 15 to 20)
#    0.000    1.333    4.167    2.500    4.667    2.667 
#    0.000    0.000    3.667    0.000    0.000    0.000 
#    0.000    0.000    0.000    0.000    0.000    0.000 
#
# Total GULP energy -133822.159060 kJ/mol
# GULP energy per Si atom -5575.923294 kJ/mol
# Density = 1.910426 g / cm^3
# Si number density = 19.147837 Si / 1000 Ang^3
#
#
#
# Elastic Constant Matrix: (Units=GPa)
#
#
# Indices 1 2 3 4 5 6 
#
# 1 84.5838 16.8024 42.7166 0.0000 0.0000 0.0000
# 2 16.8024 95.9655 27.2862 0.0000 0.0000 0.0000
# 3 42.7166 27.2862 97.4769 0.0000 0.0000 0.0000
# 4 0.0000 0.0000 0.0000 42.4867 0.0000 0.0000
# 5 0.0000 0.0000 0.0000 0.0000 25.3428 0.0000
# 6 0.0000 0.0000 0.0000 0.0000 0.0000 13.0530
#
#
#
# Elastic Compliance Matrix: (Units=1/GPa)
#
#
# Indices 1 2 3 4 5 6 
#
# 1 0.015244 -0.000836 -0.006446 0.000000 0.000000 0.000000
# 2 -0.000836 0.011367 -0.002816 0.000000 0.000000 0.000000
# 3 -0.006446 -0.002816 0.013872 0.000000 0.000000 0.000000
# 4 0.000000 0.000000 0.000000 0.023537 0.000000 0.000000
# 5 0.000000 0.000000 0.000000 0.000000 0.039459 0.000000
# 6 0.000000 0.000000 0.000000 0.000000 0.000000 0.076611
#
#
# Mechanical properties :
#
#
# Convention : Reuss Voigt Hill
#
# Bulk Modulus (GPa) = 49.29170 50.18184 49.73677
# Shear Modulus (GPa) = 24.14890 28.92456 26.53673
#
# Velocity S-wave (km/s) = 3.55516 3.89085 3.72679
# Velocity P-wave (km/s) = 6.53076 6.81538 6.67459
#
# Compressibility (1/GPa) = 0.02028739
#
# Stress axis : x y z
#
# Youngs Moduli (GPa) = 65.59864 87.97102 72.08812
#
# Poissons Ratio (x) = 0.07356 0.46470
# Poissons Ratio (y) = 0.05485 0.20297
# Poissons Ratio (z) = 0.42287 0.24769
#
# Static dielectric constant tensor:
#      x y z
#    x 1.698500 0.000000 0.000000 
#    y 0.000000 1.713760 0.000000 
#    z 0.000000 0.000000 1.733920 
# 
# From -- ./inp_files/7424.got.cif
#   From: 2010.05.17/outbox.cif.g08.bks.cpg/sg20_4_cif.got.tgz:7424.got - 2010.06.03 22:52:26.
