data_PCOD9318077
_publ_section_title
;
Structure prediction by ZEFSAII (Michael W. Deem and Ramdas Pophale) SiO2 
 PCOD9318077
Probable space group: C 2 2 21
;
_chemical_formula_sum "Si O2"
_cell_formula_units_Z 48
_cell_length_a 14.948332
_cell_length_b 12.974446
_cell_length_c 10.649829
_cell_angle_alpha 90.000000
_cell_angle_beta 90.000000
_cell_angle_gamma 90.000000
_cell_volume 2065.495211
_symmetry_space_group_name_H-M "C 2 2 21"
_symmetry_group_IT_number 20
_symmetry_cell_setting 'orthorhombic'
loop_
_space_group_symop_operation_xyz
x,y,z
-x,-y,1/2+z
x,-y,-z
-x,y,1/2-z
1/2+x,1/2+y,z
1/2-x,1/2-y,1/2+z
1/2+x,1/2-y,-z
1/2-x,1/2+y,1/2-z
loop_
_atom_site_type_symbol
_atom_site_label
_atom_site_fract_x
_atom_site_fract_y
_atom_site_fract_z
Si Si1 0.105902 0.167922 0.722492
Si Si2 0.339927 0.139864 0.382856
Si Si3 0.009698 0.500000 0.000000
Si Si4 0.000000 0.621158 0.750000
Si Si5 0.178866 0.047466 0.254915
Si Si6 0.957861 0.113014 0.034862
Si Si7 0.369824 0.265193 0.606623
O O1 0.141349 0.274604 0.776901
O O2 0.108793 0.151650 0.572970
O O3 0.000000 0.160058 0.750000
O O4 0.156235 0.069018 0.780720
O O5 0.267922 0.057722 0.337004
O O6 0.312632 0.201604 0.507442
O O7 0.429046 0.083261 0.428145
O O8 0.970371 0.441641 0.123448
O O9 0.086619 0.689753 0.789036
O O10 0.096128 0.091085 0.338319
O O11 0.183256 0.134174 0.149314
O O12 0.039418 0.190576 0.044193
O O13 0.993897 0.000000 0.000000
#
# Coordination Sequence:
#
# PCOD9318077 Si02
#       7
#     8   8   4   4   8   8   8
#     4  11  23  42  72 104 132 184 239 287 345 424
#     4  11  27  41  67  98 146 180 225 289 363 418
#     4  10  26  46  66  98 136 184 234 288 348 424
#     4  10  22  42  70  94 130 180 234 290 336 416
#     4  11  24  40  66  98 141 177 226 296 351 411
#     4  10  20  37  69  99 133 173 233 290 339 406
#     4  11  21  42  67 100 132 177 235 283 349 418
#
# _framework density 23.238977999999999
#
# number of rings (size 3 to 8) (size 9 to 14) (size 15 to 20)
#    0.000    1.333    3.333    2.000    7.000    1.333 
#    0.000    0.000    0.000    0.000    0.000    0.000 
#    0.000    0.000    0.000    0.000    0.000    0.000 
#
# Total GULP energy -134098.480337 kJ/mol
# GULP energy per Si atom -5587.436681 kJ/mol
# Density = 2.318608 g / cm^3
# Si number density = 23.238978 Si / 1000 Ang^3
#
#
#
# Elastic Constant Matrix: (Units=GPa)
#
#
# Indices 1 2 3 4 5 6 
#
# 1 58.1246 31.9444 11.5316 0.0000 0.0000 0.0000
# 2 31.9444 123.8683 36.5305 0.0000 0.0000 0.0000
# 3 11.5316 36.5305 58.0837 0.0000 0.0000 0.0000
# 4 0.0000 0.0000 0.0000 54.4323 0.0000 0.0000
# 5 0.0000 0.0000 0.0000 0.0000 -3.1854 0.0000
# 6 0.0000 0.0000 0.0000 0.0000 0.0000 11.9495
#
#
#
# Elastic Compliance Matrix: (Units=1/GPa)
#
#
# Indices 1 2 3 4 5 6 
#
# 1 0.020083 -0.004915 -0.000896 0.000000 0.000000 0.000000
# 2 -0.004915 0.011114 -0.006014 0.000000 0.000000 0.000000
# 3 -0.000896 -0.006014 0.021177 0.000000 0.000000 0.000000
# 4 0.000000 0.000000 0.000000 0.018371 0.000000 0.000000
# 5 0.000000 0.000000 0.000000 0.000000 -0.313931 0.000000
# 6 0.000000 0.000000 0.000000 0.000000 0.000000 0.083686
#
#
# Mechanical properties :
#
#
# Convention : Reuss Voigt Hill
#
# Bulk Modulus (GPa) = 34.81413 44.45438 39.63426
# Shear Modulus (GPa) = -39.59661 23.31062 -8.14299
#
# Velocity S-wave (km/s) = -4.13230 3.17058 -1.87393
# Velocity P-wave (km/s) = 2.78467 5.70738 3.52277
#
# Compressibility (1/GPa) = 0.02872397
#
# Stress axis : x y z
#
# Youngs Moduli (GPa) = 49.79233 89.97383 47.22107
#
# Poissons Ratio (x) = 0.44223 0.04231
# Poissons Ratio (y) = 0.24473 0.28400
# Poissons Ratio (z) = 0.04461 0.54113
#
# Static dielectric constant tensor:
#      x y z
#    x 1.849630 0.000000 0.000000 
#    y 0.000000 1.901060 0.000000 
#    z 0.000000 0.000000 1.994330 
# 
# From -- ./inp_files/15760.got.cif
#   From: 2010.05.17/outbox.cif.g08.bks.cpg/sg20_8_cif.got.tgz:15760.got - 2010.06.03 22:52:26.
