data_PCOD9318787
_publ_section_title
;
Structure prediction by ZEFSAII (Michael W. Deem and Ramdas Pophale) SiO2 
 PCOD9318787
Probable space group: C 2 2 21
;
_chemical_formula_sum "Si O2"
_cell_formula_units_Z 48
_cell_length_a 5.107561
_cell_length_b 21.158665
_cell_length_c 17.391541
_cell_angle_alpha 90.000000
_cell_angle_beta 90.000000
_cell_angle_gamma 90.000000
_cell_volume 1879.489439
_symmetry_space_group_name_H-M "C 2 2 21"
_symmetry_group_IT_number 20
_symmetry_cell_setting 'orthorhombic'
loop_
_space_group_symop_operation_xyz
x,y,z
-x,-y,1/2+z
x,-y,-z
-x,y,1/2-z
1/2+x,1/2+y,z
1/2-x,1/2-y,1/2+z
1/2+x,1/2-y,-z
1/2-x,1/2+y,1/2-z
loop_
_atom_site_type_symbol
_atom_site_label
_atom_site_fract_x
_atom_site_fract_y
_atom_site_fract_z
Si Si1 0.985470 0.692140 0.419485
Si Si2 0.379719 0.990369 0.588460
Si Si3 0.000000 0.287335 0.750000
Si Si4 0.686041 0.902350 0.359273
Si Si5 0.500000 0.205797 0.750000
Si Si6 0.984318 0.833530 0.488209
Si Si7 0.878624 0.967318 0.672372
O O1 0.920025 0.680804 0.330294
O O2 0.968787 0.767112 0.440993
O O3 0.773588 0.660180 0.476656
O O4 0.277978 0.672819 0.442335
O O5 0.418000 0.061537 0.620167
O O6 0.598901 0.950546 0.635302
O O7 0.096696 0.964242 0.606870
O O8 0.441428 0.000000 0.500000
O O9 0.253841 0.247140 0.724764
O O10 0.613401 0.839419 0.315556
O O11 0.866175 0.886217 0.432045
O O12 0.825090 0.957966 0.311785
O O13 0.000000 0.938494 0.750000
#
# Coordination Sequence:
#
# PCOD9318787 Si02
#       7
#     8   8   4   8   4   8   8
#     4  10  22  36  53  77 116 154 199 229 288 339
#     4  10  22  37  58  88 121 155 191 228 291 362
#     4  12  24  38  56  86 119 160 193 250 292 356
#     4  10  24  34  61  87 125 148 196 234 304 343
#     4  12  24  32  60  92 123 146 185 238 310 362
#     4  10  21  36  53  82 113 154 193 238 278 350
#     4  10  21  36  58  89 121 149 183 235 297 354
#
# _framework density 25.538851000000001
#
# number of rings (size 3 to 8) (size 9 to 14) (size 15 to 20)
#    1.000    0.667    1.667    3.000   10.500    0.000 
#    0.000    0.000    0.000    0.000    8.667    0.000 
#    0.000    0.000    0.000    0.000    0.000    0.000 
#
# Total GULP energy -134226.079274 kJ/mol
# GULP energy per Si atom -5592.753303 kJ/mol
# Density = 2.548072 g / cm^3
# Si number density = 25.538851 Si / 1000 Ang^3
#
#
#
# Elastic Constant Matrix: (Units=GPa)
#
#
# Indices 1 2 3 4 5 6 
#
# 1 138.2246 13.0731 13.5453 0.0000 0.0000 0.0000
# 2 13.0731 67.0926 5.6964 0.0000 0.0000 0.0000
# 3 13.5453 5.6964 123.8124 0.0000 0.0000 0.0000
# 4 0.0000 0.0000 0.0000 12.1694 0.0000 0.0000
# 5 0.0000 0.0000 0.0000 0.0000 42.0131 0.0000
# 6 0.0000 0.0000 0.0000 0.0000 0.0000 22.1978
#
#
#
# Elastic Compliance Matrix: (Units=1/GPa)
#
#
# Indices 1 2 3 4 5 6 
#
# 1 0.007439 -0.001386 -0.000750 0.000000 0.000000 0.000000
# 2 -0.001386 0.015221 -0.000549 0.000000 0.000000 0.000000
# 3 -0.000750 -0.000549 0.008184 0.000000 0.000000 0.000000
# 4 0.000000 0.000000 0.000000 0.082174 0.000000 0.000000
# 5 0.000000 0.000000 0.000000 0.000000 0.023802 0.000000
# 6 0.000000 0.000000 0.000000 0.000000 0.000000 0.045050
#
#
# Mechanical properties :
#
#
# Convention : Reuss Voigt Hill
#
# Bulk Modulus (GPa) = 39.25368 43.75103 41.50235
# Shear Modulus (GPa) = 25.54527 35.06370 30.30449
#
# Velocity S-wave (km/s) = 3.16611 3.70936 3.44845
# Velocity P-wave (km/s) = 5.36369 5.95938 5.66936
#
# Compressibility (1/GPa) = 0.02547532
#
# Stress axis : x y z
#
# Youngs Moduli (GPa) = 134.42344 65.69705 122.18904
#
# Poissons Ratio (x) = 0.09105 0.09165
# Poissons Ratio (y) = 0.18629 0.06704
# Poissons Ratio (z) = 0.10083 0.03605
#
# Static dielectric constant tensor:
#      x y z
#    x 1.946770 0.000000 0.000000 
#    y 0.000000 2.074690 0.000000 
#    z 0.000000 0.000000 2.014800 
# 
# From -- ./inp_files/22947.got.cif
#   From: 2010.05.17/outbox.cif.g08.bks.cpg/sg20_12_cif.got.tgz:22947.got - 2010.06.03 22:52:26.
