data_PCOD9318984
_publ_section_title
;
Structure prediction by ZEFSAII (Michael W. Deem and Ramdas Pophale) SiO2 
 PCOD9318984
Probable space group: C 2 2 21
;
_chemical_formula_sum "Si O2"
_cell_formula_units_Z 48
_cell_length_a 7.687169
_cell_length_b 22.248238
_cell_length_c 12.799871
_cell_angle_alpha 90.000000
_cell_angle_beta 90.000000
_cell_angle_gamma 90.000000
_cell_volume 2189.110296
_symmetry_space_group_name_H-M "C 2 2 21"
_symmetry_group_IT_number 20
_symmetry_cell_setting 'orthorhombic'
loop_
_space_group_symop_operation_xyz
x,y,z
-x,-y,1/2+z
x,-y,-z
-x,y,1/2-z
1/2+x,1/2+y,z
1/2-x,1/2-y,1/2+z
1/2+x,1/2-y,-z
1/2-x,1/2+y,1/2-z
loop_
_atom_site_type_symbol
_atom_site_label
_atom_site_fract_x
_atom_site_fract_y
_atom_site_fract_z
Si Si1 0.167541 0.430396 0.522731
Si Si2 0.460508 0.633367 0.365947
Si Si3 0.332093 0.338565 0.175318
Si Si4 0.539056 0.258058 0.024766
Si Si5 0.257393 0.070252 0.491740
Si Si6 0.654562 0.180117 0.620358
O O1 0.208337 0.500000 0.500000
O O2 0.287739 0.406416 0.616424
O O3 0.210141 0.385168 0.425940
O O4 0.960390 0.425815 0.539122
O O5 0.500000 0.652439 0.250000
O O6 0.439330 0.690555 0.438960
O O7 0.627431 0.597885 0.407838
O O8 0.500000 0.351621 0.250000
O O9 0.389757 0.281465 0.104457
O O10 0.176646 0.325166 0.255658
O O11 0.284212 0.393598 0.099113
O O12 0.713273 0.264667 0.092554
O O13 0.501559 0.198858 0.958008
O O14 0.216920 0.000000 0.500000
#
# Coordination Sequence:
#
# PCOD9318984 Si02
#       6
#     8   8   8   8   8   8
#     4  10  23  42  61  91 128 163 212 265 318 385
#     4  10  22  40  61  89 124 166 206 259 324 379
#     4   9  20  40  62  93 129 167 216 261 330 392
#     4   9  21  38  59  90 126 157 207 265 312 378
#     4  10  22  40  64  91 126 168 213 269 318 382
#     4  10  21  38  64  89 123 166 205 264 316 384
#
# _framework density 21.926715000000002
#
# number of rings (size 3 to 8) (size 9 to 14) (size 15 to 20)
#    0.000    2.333    0.000    1.500    4.667    6.000 
#    0.000    3.333    0.000    0.000    0.000    0.000 
#    0.000    0.000    0.000    0.000    0.000    0.000 
#
# Total GULP energy -133947.147402 kJ/mol
# GULP energy per Si atom -5581.131142 kJ/mol
# Density = 2.187681 g / cm^3
# Si number density = 21.926715 Si / 1000 Ang^3
#
#
#
# Elastic Constant Matrix: (Units=GPa)
#
#
# Indices 1 2 3 4 5 6 
#
# 1 86.6994 4.5378 21.1175 0.0000 0.0000 0.0000
# 2 4.5378 94.9056 7.0880 0.0000 0.0000 0.0000
# 3 21.1175 7.0880 90.2535 0.0000 0.0000 0.0000
# 4 0.0000 0.0000 0.0000 6.7790 0.0000 0.0000
# 5 0.0000 0.0000 0.0000 0.0000 -7.9430 0.0000
# 6 0.0000 0.0000 0.0000 0.0000 0.0000 32.5469
#
#
#
# Elastic Compliance Matrix: (Units=1/GPa)
#
#
# Indices 1 2 3 4 5 6 
#
# 1 0.012244 -0.000374 -0.002836 0.000000 0.000000 0.000000
# 2 -0.000374 0.010610 -0.000746 0.000000 0.000000 0.000000
# 3 -0.002836 -0.000746 0.011802 0.000000 0.000000 0.000000
# 4 0.000000 0.000000 0.000000 0.147514 0.000000 0.000000
# 5 0.000000 0.000000 0.000000 0.000000 -0.125896 0.000000
# 6 0.000000 0.000000 0.000000 0.000000 0.000000 0.030725
#
#
# Mechanical properties :
#
#
# Convention : Reuss Voigt Hill
#
# Bulk Modulus (GPa) = 37.38816 37.48278 37.43547
# Shear Modulus (GPa) = 48.15826 22.21760 35.18793
#
# Velocity S-wave (km/s) = 4.69158 3.18664 4.01034
# Velocity P-wave (km/s) = 6.81442 5.53816 6.20917
#
# Compressibility (1/GPa) = 0.02674644
#
# Stress axis : x y z
#
# Youngs Moduli (GPa) = 81.67049 94.24751 84.73175
#
# Poissons Ratio (x) = 0.03522 0.24026
# Poissons Ratio (y) = 0.03052 0.06320
# Poissons Ratio (z) = 0.23158 0.07029
#
# Static dielectric constant tensor:
#      x y z
#    x 1.973080 0.000000 0.000000 
#    y 0.000000 1.799370 0.000000 
#    z 0.000000 0.000000 1.784100 
# 
# From -- ./inp_files/13069.got.cif
#   From: 2010.05.17/outbox.cif.g08.bks.cpg/sg20_7_cif.got.tgz:13069.got - 2010.06.03 22:52:26.
