data_PCOD9318422
_publ_section_title
;
Structure prediction by ZEFSAII (Michael W. Deem and Ramdas Pophale) SiO2 
 PCOD9318422
Probable space group: C 2 2 21
;
_chemical_formula_sum "Si O2"
_cell_formula_units_Z 64
_cell_length_a 20.007402
_cell_length_b 9.379314
_cell_length_c 14.854788
_cell_angle_alpha 90.000000
_cell_angle_beta 90.000000
_cell_angle_gamma 90.000000
_cell_volume 2787.585725
_symmetry_space_group_name_H-M "C 2 2 21"
_symmetry_group_IT_number 20
_symmetry_cell_setting 'orthorhombic'
loop_
_space_group_symop_operation_xyz
x,y,z
-x,-y,1/2+z
x,-y,-z
-x,y,1/2-z
1/2+x,1/2+y,z
1/2-x,1/2-y,1/2+z
1/2+x,1/2-y,-z
1/2-x,1/2+y,1/2-z
loop_
_atom_site_type_symbol
_atom_site_label
_atom_site_fract_x
_atom_site_fract_y
_atom_site_fract_z
Si Si1 0.353826 0.388739 0.618787
Si Si2 0.879546 0.202361 0.575035
Si Si3 0.079832 0.670855 0.762079
Si Si4 0.540888 0.054401 0.097953
Si Si5 0.897513 0.424303 0.080422
Si Si6 0.230902 0.791278 0.334503
Si Si7 0.240194 0.626394 0.142416
Si Si8 0.862609 0.159324 0.998504
O O1 0.354796 0.558454 0.622466
O O2 0.390803 0.340065 0.528116
O O3 0.389360 0.316186 0.702688
O O4 0.281904 0.314309 0.613951
O O5 0.944434 0.280450 0.613174
O O6 0.823603 0.324063 0.584863
O O7 0.080155 0.543238 0.832601
O O8 0.124901 0.616532 0.679134
O O9 0.000000 0.694326 0.750000
O O10 0.462737 0.016976 0.101397
O O11 0.561934 0.000000 0.000000
O O12 0.915132 0.272987 0.035626
O O13 0.856780 0.500000 0.000000
O O14 0.231250 0.719001 0.234968
O O15 0.165654 0.798405 0.399717
O O16 0.254617 0.957511 0.334065
O O17 0.302135 0.658827 0.073460
O O18 0.889367 0.000000 0.000000
#
# Coordination Sequence:
#
# PCOD9318422 Si02
#       8
#     8   8   8   8   8   8   8   8
#     4  11  22  39  63 100 133 174 226 285 343 406
#     4  11  23  37  65  98 132 172 228 284 339 406
#     4  10  21  40  66  93 126 174 225 277 340 401
#     4  10  20  40  65  92 126 167 224 278 335 394
#     4  10  23  41  64  93 126 176 224 275 329 401
#     4  11  23  40  65  96 139 180 220 271 348 408
#     4  11  23  40  64  99 135 179 222 275 335 413
#     4  10  23  42  62  92 136 179 219 271 341 409
#
# _framework density 22.958933999999999
#
# number of rings (size 3 to 8) (size 9 to 14) (size 15 to 20)
#    0.000    1.500    2.500    2.250    0.000    5.000 
#    0.000    6.875    0.000    0.000    0.000    0.000 
#    0.000    0.000    0.000    0.000    0.000    0.000 
#
# Total GULP energy -178486.064274 kJ/mol
# GULP energy per Si atom -5577.689509 kJ/mol
# Density = 2.290668 g / cm^3
# Si number density = 22.958934 Si / 1000 Ang^3
#
#
#
# Elastic Constant Matrix: (Units=GPa)
#
#
# Indices 1 2 3 4 5 6 
#
# 1 25.2312 12.9156 -18.8009 0.0000 0.0000 0.0000
# 2 12.9156 127.6334 17.5258 0.0000 0.0000 0.0000
# 3 -18.8009 17.5258 99.5478 0.0000 0.0000 0.0000
# 4 0.0000 0.0000 0.0000 36.7906 0.0000 0.0000
# 5 0.0000 0.0000 0.0000 0.0000 24.8541 0.0000
# 6 0.0000 0.0000 0.0000 0.0000 0.0000 25.4683
#
#
#
# Elastic Compliance Matrix: (Units=1/GPa)
#
#
# Indices 1 2 3 4 5 6 
#
# 1 0.051107 -0.006658 0.010825 0.000000 0.000000 0.000000
# 2 -0.006658 0.008896 -0.002824 0.000000 0.000000 0.000000
# 3 0.010825 -0.002824 0.012587 0.000000 0.000000 0.000000
# 4 0.000000 0.000000 0.000000 0.027181 0.000000 0.000000
# 5 0.000000 0.000000 0.000000 0.000000 0.040235 0.000000
# 6 0.000000 0.000000 0.000000 0.000000 0.000000 0.039265
#
#
# Mechanical properties :
#
#
# Convention : Reuss Voigt Hill
#
# Bulk Modulus (GPa) = 13.28440 30.63259 21.95850
# Shear Modulus (GPa) = 24.79204 33.47407 29.13305
#
# Velocity S-wave (km/s) = 3.28966 3.82252 3.56606
# Velocity P-wave (km/s) = 4.49754 5.73180 5.15176
#
# Compressibility (1/GPa) = 0.07527625
#
# Stress axis : x y z
#
# Youngs Moduli (GPa) = 19.56661 112.40476 79.44768
#
# Poissons Ratio (x) = 0.74840 -0.85998
# Poissons Ratio (y) = 0.13028 0.22434
# Poissons Ratio (z) = -0.21180 0.31740
#
# Static dielectric constant tensor:
#      x y z
#    x 1.925520 0.000000 0.000000 
#    y 0.000000 1.871920 0.000000 
#    z 0.000000 0.000000 1.954050 
# 
# From -- ./inp_files/22065.got.cif
#   From: 2010.05.17/outbox.cif.g08.bks.cpg/sg20_12_cif.got.tgz:22065.got - 2010.06.03 22:52:26.
