data_PCOD9318299
_publ_section_title
;
Structure prediction by ZEFSAII (Michael W. Deem and Ramdas Pophale) SiO2 
 PCOD9318299
Probable space group: C 2 2 21
;
_chemical_formula_sum "Si O2"
_cell_formula_units_Z 64
_cell_length_a 20.494489
_cell_length_b 8.675179
_cell_length_c 17.247277
_cell_angle_alpha 90.000000
_cell_angle_beta 90.000000
_cell_angle_gamma 90.000000
_cell_volume 3066.451339
_symmetry_space_group_name_H-M "C 2 2 21"
_symmetry_group_IT_number 20
_symmetry_cell_setting 'orthorhombic'
loop_
_space_group_symop_operation_xyz
x,y,z
-x,-y,1/2+z
x,-y,-z
-x,y,1/2-z
1/2+x,1/2+y,z
1/2-x,1/2-y,1/2+z
1/2+x,1/2-y,-z
1/2-x,1/2+y,1/2-z
loop_
_atom_site_type_symbol
_atom_site_label
_atom_site_fract_x
_atom_site_fract_y
_atom_site_fract_z
Si Si1 0.119367 0.767875 0.309255
Si Si2 0.835876 0.426538 0.670954
Si Si3 0.222722 0.914027 0.417725
Si Si4 0.542172 0.845087 0.178962
Si Si5 0.958773 0.454858 0.923103
Si Si6 0.317723 0.374066 0.564388
Si Si7 0.078918 0.763783 0.051144
Si Si8 0.912873 0.001512 0.324398
O O1 0.164652 0.666008 0.251502
O O2 0.157760 0.867081 0.372676
O O3 0.076710 0.644697 0.357150
O O4 0.085085 0.886898 0.249030
O O5 0.767172 0.483922 0.639748
O O6 0.888765 0.565508 0.676095
O O7 0.866424 0.316150 0.605225
O O8 0.264453 0.757632 0.429456
O O9 0.213883 0.000000 0.500000
O O10 0.500000 0.908064 0.250000
O O11 0.554040 0.664804 0.189427
O O12 0.493990 0.893985 0.110374
O O13 0.018476 0.348411 0.951235
O O14 0.918352 0.500000 0.000000
O O15 0.298482 0.500000 0.500000
O O16 0.384554 0.300203 0.528629
O O17 0.339535 0.455188 0.644514
O O18 0.058225 0.912890 0.100778
#
# Coordination Sequence:
#
# PCOD9318299 Si02
#       8
#     8   8   8   8   8   8   8   8
#     4  11  27  46  60  99 141 184 221 273 356 413
#     4  10  21  41  68  94 132 173 230 280 333 397
#     4  12  25  44  69  93 132 185 232 284 328 410
#     4  11  21  38  70 104 127 169 222 276 340 411
#     4  11  24  43  67  95 135 184 220 276 345 415
#     4  10  20  39  63 102 125 162 226 288 336 371
#     4   9  20  37  69  99 137 160 217 283 345 387
#     4  10  22  38  65 101 135 166 211 285 339 408
#
# _framework density 20.871030000000001
#
# number of rings (size 3 to 8) (size 9 to 14) (size 15 to 20)
#    0.000    1.500    3.750    0.750    5.250    0.500 
#    2.250    4.375    0.000    0.000    0.000    0.000 
#    0.000    0.000    0.000    0.000    0.000    0.000 
#
# Total GULP energy -178603.198979 kJ/mol
# GULP energy per Si atom -5581.349968 kJ/mol
# Density = 2.082353 g / cm^3
# Si number density = 20.871030 Si / 1000 Ang^3
#
#
#
# Elastic Constant Matrix: (Units=GPa)
#
#
# Indices 1 2 3 4 5 6 
#
# 1 34.0757 12.6190 24.2663 0.0000 0.0000 0.0000
# 2 12.6190 97.8751 31.6675 0.0000 0.0000 0.0000
# 3 24.2663 31.6675 106.1697 0.0000 0.0000 0.0000
# 4 0.0000 0.0000 0.0000 37.2536 0.0000 0.0000
# 5 0.0000 0.0000 0.0000 0.0000 22.8571 0.0000
# 6 0.0000 0.0000 0.0000 0.0000 0.0000 16.7260
#
#
#
# Elastic Compliance Matrix: (Units=1/GPa)
#
#
# Indices 1 2 3 4 5 6 
#
# 1 0.035459 -0.002158 -0.007461 0.000000 0.000000 0.000000
# 2 -0.002158 0.011440 -0.002919 0.000000 0.000000 0.000000
# 3 -0.007461 -0.002919 0.011995 0.000000 0.000000 0.000000
# 4 0.000000 0.000000 0.000000 0.026843 0.000000 0.000000
# 5 0.000000 0.000000 0.000000 0.000000 0.043750 0.000000
# 6 0.000000 0.000000 0.000000 0.000000 0.000000 0.059787
#
#
# Mechanical properties :
#
#
# Convention : Reuss Voigt Hill
#
# Bulk Modulus (GPa) = 29.57007 41.69180 35.63093
# Shear Modulus (GPa) = 22.16104 26.67186 24.41645
#
# Velocity S-wave (km/s) = 3.26208 3.57870 3.42405
# Velocity P-wave (km/s) = 5.32794 6.09060 5.72199
#
# Compressibility (1/GPa) = 0.03381798
#
# Stress axis : x y z
#
# Youngs Moduli (GPa) = 28.20195 87.41466 83.36944
#
# Poissons Ratio (x) = 0.18861 0.62201
# Poissons Ratio (y) = 0.06085 0.24336
# Poissons Ratio (z) = 0.21041 0.25516
#
# Static dielectric constant tensor:
#      x y z
#    x 1.737460 0.000000 0.000000 
#    y 0.000000 1.787800 0.000000 
#    z 0.000000 0.000000 1.823360 
# 
# From -- ./inp_files/25516.got.cif
#   From: 2010.05.17/outbox.cif.g08.bks.cpg/sg20_13_cif.got.tgz:25516.got - 2010.06.03 22:52:26.
