data_PCOD9318473
_publ_section_title
;
Structure prediction by ZEFSAII (Michael W. Deem and Ramdas Pophale) SiO2 
 PCOD9318473
Probable space group: C 2 2 21
;
_chemical_formula_sum "Si O2"
_cell_formula_units_Z 64
_cell_length_a 8.473853
_cell_length_b 21.058028
_cell_length_c 17.839905
_cell_angle_alpha 90.000000
_cell_angle_beta 90.000000
_cell_angle_gamma 90.000000
_cell_volume 3183.399634
_symmetry_space_group_name_H-M "C 2 2 21"
_symmetry_group_IT_number 20
_symmetry_cell_setting 'orthorhombic'
loop_
_space_group_symop_operation_xyz
x,y,z
-x,-y,1/2+z
x,-y,-z
-x,y,1/2-z
1/2+x,1/2+y,z
1/2-x,1/2-y,1/2+z
1/2+x,1/2-y,-z
1/2-x,1/2+y,1/2-z
loop_
_atom_site_type_symbol
_atom_site_label
_atom_site_fract_x
_atom_site_fract_y
_atom_site_fract_z
Si Si1 0.749770 0.253945 0.415371
Si Si2 0.180184 0.056012 0.225233
Si Si3 0.519198 0.177461 0.022575
Si Si4 0.209766 0.567785 0.535024
Si Si5 0.754437 0.346368 0.654643
Si Si6 0.691294 0.219062 0.745555
Si Si7 0.826722 0.423625 0.212039
Si Si8 0.423598 0.619266 0.422294
O O1 0.585847 0.239127 0.456816
O O2 0.737099 0.268451 0.327605
O O3 0.848469 0.188846 0.419761
O O4 0.850699 0.305541 0.460482
O O5 0.274797 0.106818 0.274907
O O6 0.172961 0.076578 0.138346
O O7 0.000000 0.063340 0.250000
O O8 0.234687 0.984911 0.242477
O O9 0.601217 0.154921 0.098369
O O10 0.405386 0.122835 0.993732
O O11 0.170153 0.500000 0.500000
O O12 0.182997 0.566017 0.623230
O O13 0.383038 0.588139 0.502770
O O14 0.731874 0.275309 0.687682
O O15 0.601694 0.371036 0.607288
O O16 0.500000 0.220894 0.750000
O O17 0.737976 0.147533 0.724016
O O18 0.000000 0.424814 0.250000
#
# Coordination Sequence:
#
# PCOD9318473 Si02
#       8
#     8   8   8   8   8   8   8   8
#     4  11  22  42  62  95 131 170 221 277 337 397
#     4  10  21  42  64  94 128 174 223 273 331 402
#     4  11  26  40  67  97 134 173 222 278 343 402
#     4  11  24  44  65  96 136 176 227 271 335 407
#     4  11  22  41  70  98 126 172 229 285 335 407
#     4  11  21  41  68  96 131 172 225 277 343 392
#     4  11  25  41  68  92 134 181 218 272 338 396
#     4  10  20  40  69  92 124 172 218 279 331 404
#
# _framework density 20.104293999999999
#
# number of rings (size 3 to 8) (size 9 to 14) (size 15 to 20)
#    0.000    1.250    3.750    2.625    5.250    0.500 
#    2.250    1.875    0.000    0.000    0.000    0.000 
#    0.000    0.000    0.000    0.000    0.000    0.000 
#
# Total GULP energy -178648.172446 kJ/mol
# GULP energy per Si atom -5582.755389 kJ/mol
# Density = 2.005854 g / cm^3
# Si number density = 20.104294 Si / 1000 Ang^3
#
#
#
# Elastic Constant Matrix: (Units=GPa)
#
#
# Indices 1 2 3 4 5 6 
#
# 1 31.1498 1.7016 13.0233 0.0000 0.0000 0.0000
# 2 1.7016 94.0380 7.9123 0.0000 0.0000 0.0000
# 3 13.0233 7.9123 79.1042 0.0000 0.0000 0.0000
# 4 0.0000 0.0000 0.0000 24.0372 0.0000 0.0000
# 5 0.0000 0.0000 0.0000 0.0000 18.7397 0.0000
# 6 0.0000 0.0000 0.0000 0.0000 0.0000 21.3371
#
#
#
# Elastic Compliance Matrix: (Units=1/GPa)
#
#
# Indices 1 2 3 4 5 6 
#
# 1 0.034478 -0.000148 -0.005661 0.000000 0.000000 0.000000
# 2 -0.000148 0.010725 -0.001048 0.000000 0.000000 0.000000
# 3 -0.005661 -0.001048 0.013679 0.000000 0.000000 0.000000
# 4 0.000000 0.000000 0.000000 0.041602 0.000000 0.000000
# 5 0.000000 0.000000 0.000000 0.000000 0.053363 0.000000
# 6 0.000000 0.000000 0.000000 0.000000 0.000000 0.046867
#
#
# Mechanical properties :
#
#
# Convention : Reuss Voigt Hill
#
# Bulk Modulus (GPa) = 22.14036 27.72960 24.93498
# Shear Modulus (GPa) = 21.78808 24.93312 23.36060
#
# Velocity S-wave (km/s) = 3.29561 3.52545 3.41247
# Velocity P-wave (km/s) = 5.05154 5.51313 5.28737
#
# Compressibility (1/GPa) = 0.04516639
#
# Stress axis : x y z
#
# Youngs Moduli (GPa) = 29.00403 93.24104 73.10740
#
# Poissons Ratio (x) = 0.01376 0.41390
# Poissons Ratio (y) = 0.00428 0.07665
# Poissons Ratio (z) = 0.16421 0.09776
#
# Static dielectric constant tensor:
#      x y z
#    x 1.720170 0.000000 0.000000 
#    y 0.000000 1.708240 0.000000 
#    z 0.000000 0.000000 1.758690 
# 
# From -- ./inp_files/23929.got.cif
#   From: 2010.05.17/outbox.cif.g08.bks.cpg/sg20_12_cif.got.tgz:23929.got - 2010.06.03 22:52:26.
