data_PCOD9318268
_publ_section_title
;
Structure prediction by ZEFSAII (Michael W. Deem and Ramdas Pophale) SiO2 
 PCOD9318268
Probable space group: C 2 2 21
;
_chemical_formula_sum "Si O2"
_cell_formula_units_Z 20
_cell_length_a 9.871081
_cell_length_b 10.057443
_cell_length_c 11.236257
_cell_angle_alpha 90.000000
_cell_angle_beta 90.000000
_cell_angle_gamma 90.000000
_cell_volume 1115.511263
_symmetry_space_group_name_H-M "C 2 2 21"
_symmetry_group_IT_number 20
_symmetry_cell_setting 'orthorhombic'
loop_
_space_group_symop_operation_xyz
x,y,z
-x,-y,1/2+z
x,-y,-z
-x,y,1/2-z
1/2+x,1/2+y,z
1/2-x,1/2-y,1/2+z
1/2+x,1/2-y,-z
1/2-x,1/2+y,1/2-z
loop_
_atom_site_type_symbol
_atom_site_label
_atom_site_fract_x
_atom_site_fract_y
_atom_site_fract_z
Si Si1 0.050744 0.500000 0.000000
Si Si2 0.214562 0.540161 0.371343
Si Si3 0.350194 0.186899 0.694738
O O1 0.945352 0.440211 0.903029
O O2 0.133755 0.612329 0.931961
O O3 0.275513 0.500000 0.500000
O O4 0.277291 0.673321 0.320253
O O5 0.223680 0.416535 0.282271
O O6 0.500000 0.207807 0.750000
#
# Coordination Sequence:
#
# PCOD9318268 Si02
#       3
#     4   8   8
#     4   8  20  36  60  76 114 144 182 226 282 318
#     4   9  21  38  56  84 111 142 189 222 274 332
#     4  10  20  39  56  82 114 145 182 231 273 326
#
# _framework density 17.928999000000001
#
# number of rings (size 3 to 8) (size 9 to 14) (size 15 to 20)
#    1.200    1.600    0.000    0.000    5.600    0.000 
#    7.200    0.000    0.000    0.000    0.000    0.000 
#    0.000    0.000    0.000    0.000    0.000    0.000 
#
# Total GULP energy -55670.358897 kJ/mol
# GULP energy per Si atom -5567.035890 kJ/mol
# Density = 1.788819 g / cm^3
# Si number density = 17.928999 Si / 1000 Ang^3
#
#
#
# Elastic Constant Matrix: (Units=GPa)
#
#
# Indices 1 2 3 4 5 6 
#
# 1 32.7478 62.7921 20.7331 0.0000 0.0000 0.0000
# 2 62.7921 203.2914 89.4171 0.0000 0.0000 0.0000
# 3 20.7331 89.4171 95.1099 0.0000 0.0000 0.0000
# 4 0.0000 0.0000 0.0000 31.8119 0.0000 0.0000
# 5 0.0000 0.0000 0.0000 0.0000 1.4159 0.0000
# 6 0.0000 0.0000 0.0000 0.0000 0.0000 22.3665
#
#
#
# Elastic Compliance Matrix: (Units=1/GPa)
#
#
# Indices 1 2 3 4 5 6 
#
# 1 0.079982 -0.029047 0.009873 0.000000 0.000000 0.000000
# 2 -0.029047 0.018937 -0.011471 0.000000 0.000000 0.000000
# 3 0.009873 -0.011471 0.019146 0.000000 0.000000 0.000000
# 4 0.000000 0.000000 0.000000 0.031435 0.000000 0.000000
# 5 0.000000 0.000000 0.000000 0.000000 0.706254 0.000000
# 6 0.000000 0.000000 0.000000 0.000000 0.000000 0.044710
#
#
# Mechanical properties :
#
#
# Convention : Reuss Voigt Hill
#
# Bulk Modulus (GPa) = 17.61341 75.22595 46.41968
# Shear Modulus (GPa) = 5.09851 21.66599 13.38225
#
# Velocity S-wave (km/s) = 1.68816 3.48002 2.73500
# Velocity P-wave (km/s) = 3.69394 7.62864 5.99339
#
# Compressibility (1/GPa) = 0.05677491
#
# Stress axis : x y z
#
# Youngs Moduli (GPa) = 12.50278 52.80751 52.22922
#
# Poissons Ratio (x) = 1.53393 -0.51568
# Poissons Ratio (y) = 0.36317 0.59913
# Poissons Ratio (z) = -0.12345 0.60576
#
# Static dielectric constant tensor:
#      x y z
#    x 1.618570 0.000000 0.000000 
#    y 0.000000 1.559130 0.000000 
#    z 0.000000 0.000000 1.655040 
# 
# From -- ./inp_files/17325.got.cif
#   From: 2010.05.17/outbox.cif.g08.bks.cpg/sg20_9_cif.got.tgz:17325.got - 2010.06.03 22:52:26.
