data_PCOD9318641
_publ_section_title
;
Structure prediction by ZEFSAII (Michael W. Deem and Ramdas Pophale) SiO2 
 PCOD9318641
Probable space group: C 2 2 21
;
_chemical_formula_sum "Si O2"
_cell_formula_units_Z 40
_cell_length_a 11.157892
_cell_length_b 9.160485
_cell_length_c 14.266613
_cell_angle_alpha 90.000000
_cell_angle_beta 90.000000
_cell_angle_gamma 90.000000
_cell_volume 1458.214801
_symmetry_space_group_name_H-M "C 2 2 21"
_symmetry_group_IT_number 20
_symmetry_cell_setting 'orthorhombic'
loop_
_space_group_symop_operation_xyz
x,y,z
-x,-y,1/2+z
x,-y,-z
-x,y,1/2-z
1/2+x,1/2+y,z
1/2-x,1/2-y,1/2+z
1/2+x,1/2-y,-z
1/2-x,1/2+y,1/2-z
loop_
_atom_site_type_symbol
_atom_site_label
_atom_site_fract_x
_atom_site_fract_y
_atom_site_fract_z
Si Si1 0.690852 0.321556 0.474456
Si Si2 0.375708 0.870763 0.633437
Si Si3 0.978672 0.052594 0.602721
Si Si4 0.072018 0.595065 0.593668
Si Si5 0.733438 0.587254 0.181688
O O1 0.804886 0.361328 0.536118
O O2 0.621186 0.441812 0.412742
O O3 0.592387 0.253645 0.548248
O O4 0.735249 0.205018 0.397941
O O5 0.452751 0.721463 0.631387
O O6 0.285859 0.864686 0.720001
O O7 0.456259 0.018858 0.640975
O O8 0.928834 0.000000 0.500000
O O9 0.905361 0.953895 0.674706
O O10 0.079127 0.500000 0.500000
O O11 0.189211 0.555988 0.653360
#
# Coordination Sequence:
#
# PCOD9318641 Si02
#       5
#     8   8   8   8   8
#     4  11  25  50  77 104 158 209 248 323 390 457
#     4  12  24  46  78 114 151 208 258 317 389 465
#     4  12  24  49  74 107 155 202 260 320 387 460
#     4  10  20  42  77 106 140 203 256 300 390 459
#     4  11  23  46  75 112 155 199 258 322 380 461
#
# _framework density 27.430802
#
# number of rings (size 3 to 8) (size 9 to 14) (size 15 to 20)
#    0.000    0.800    8.000    1.200    0.000    0.800 
#   14.400    2.000    0.000    0.000    0.000    0.000 
#    0.000    0.000    0.000    0.000    0.000    0.000 
#
# Total GULP energy -111958.839538 kJ/mol
# GULP energy per Si atom -5597.941977 kJ/mol
# Density = 2.736837 g / cm^3
# Si number density = 27.430802 Si / 1000 Ang^3
#
#
#
# Elastic Constant Matrix: (Units=GPa)
#
#
# Indices 1 2 3 4 5 6 
#
# 1 136.1254 44.0045 43.8743 0.0000 0.0000 0.0000
# 2 44.0045 135.4747 32.3919 0.0000 0.0000 0.0000
# 3 43.8743 32.3919 125.8478 0.0000 0.0000 0.0000
# 4 0.0000 0.0000 0.0000 24.1378 0.0000 0.0000
# 5 0.0000 0.0000 0.0000 0.0000 57.7874 0.0000
# 6 0.0000 0.0000 0.0000 0.0000 0.0000 41.8888
#
#
#
# Elastic Compliance Matrix: (Units=1/GPa)
#
#
# Indices 1 2 3 4 5 6 
#
# 1 0.008896 -0.002289 -0.002512 0.000000 0.000000 0.000000
# 2 -0.002289 0.008454 -0.001378 0.000000 0.000000 0.000000
# 3 -0.002512 -0.001378 0.009177 0.000000 0.000000 0.000000
# 4 0.000000 0.000000 0.000000 0.041429 0.000000 0.000000
# 5 0.000000 0.000000 0.000000 0.000000 0.017305 0.000000
# 6 0.000000 0.000000 0.000000 0.000000 0.000000 0.023873
#
#
# Mechanical properties :
#
#
# Convention : Reuss Voigt Hill
#
# Bulk Modulus (GPa) = 70.57906 70.88770 70.73338
# Shear Modulus (GPa) = 39.61513 43.24127 41.42820
#
# Velocity S-wave (km/s) = 3.80437 3.97467 3.89045
# Velocity P-wave (km/s) = 6.71441 6.85292 6.78402
#
# Compressibility (1/GPa) = 0.01416851
#
# Stress axis : x y z
#
# Youngs Moduli (GPa) = 112.41294 118.28138 108.97224
#
# Poissons Ratio (x) = 0.27073 0.27376
# Poissons Ratio (y) = 0.25729 0.15018
# Poissons Ratio (z) = 0.28240 0.16301
#
# Static dielectric constant tensor:
#      x y z
#    x 2.141080 0.000000 0.000000 
#    y 0.000000 2.304100 0.000000 
#    z 0.000000 0.000000 2.097650 
# 
# From -- ./inp_files/19680.got.cif
#   From: 2010.05.17/outbox.cif.g08.bks.cpg/sg20_10_cif.got.tgz:19680.got - 2010.06.03 22:52:26.
