data_PCOD9318617
_publ_section_title
;
Structure prediction by ZEFSAII (Michael W. Deem and Ramdas Pophale) SiO2 
 PCOD9318617
Probable space group: C 2 2 21
;
_chemical_formula_sum "Si O2"
_cell_formula_units_Z 52
_cell_length_a 21.312619
_cell_length_b 13.820868
_cell_length_c 8.029943
_cell_angle_alpha 90.000000
_cell_angle_beta 90.000000
_cell_angle_gamma 90.000000
_cell_volume 2365.291128
_symmetry_space_group_name_H-M "C 2 2 21"
_symmetry_group_IT_number 20
_symmetry_cell_setting 'orthorhombic'
loop_
_space_group_symop_operation_xyz
x,y,z
-x,-y,1/2+z
x,-y,-z
-x,y,1/2-z
1/2+x,1/2+y,z
1/2-x,1/2-y,1/2+z
1/2+x,1/2-y,-z
1/2-x,1/2+y,1/2-z
loop_
_atom_site_type_symbol
_atom_site_label
_atom_site_fract_x
_atom_site_fract_y
_atom_site_fract_z
Si Si1 0.175165 0.735839 0.554280
Si Si2 0.558567 0.500000 0.500000
Si Si3 0.587342 0.210841 0.043054
Si Si4 0.158776 0.531408 0.683683
Si Si5 0.784112 0.347674 0.708138
Si Si6 0.070003 0.500000 0.000000
Si Si7 0.500000 0.653152 0.750000
Si Si8 0.573891 0.332873 0.716023
O O1 0.182630 0.639093 0.662380
O O2 0.198921 0.713729 0.371308
O O3 0.218933 0.817562 0.630933
O O4 0.102510 0.764716 0.571859
O O5 0.519613 0.581936 0.598632
O O6 0.591965 0.439657 0.648502
O O7 0.656512 0.172383 0.089309
O O8 0.555146 0.277820 0.182018
O O9 0.545250 0.111772 0.020820
O O10 0.597062 0.280448 0.883600
O O11 0.134596 0.500000 0.500000
O O12 0.213659 0.458463 0.734943
O O13 0.107610 0.517673 0.826977
O O14 0.500000 0.334576 0.750000
#
# Coordination Sequence:
#
# PCOD9318617 Si02
#       8
#     8   4   8   8   8   4   4   8
#     4  11  22  44  68 100 137 178 235 287 360 421
#     4  12  24  44  67  98 134 189 232 304 354 402
#     4  11  23  43  69  99 138 182 229 288 357 419
#     4   9  20  39  66  94 136 177 223 284 346 407
#     4  10  23  41  69 101 136 182 227 294 349 425
#     4  10  20  42  69  98 136 187 220 284 350 408
#     4  12  22  44  66  98 138 178 236 290 350 424
#     4  12  24  44  70  99 135 185 233 294 351 421
#
# _framework density 21.984607
#
# number of rings (size 3 to 8) (size 9 to 14) (size 15 to 20)
#    0.000    1.231    3.846    1.846    2.154    0.000 
#    6.923    0.000    3.385    0.000    0.000    0.000 
#    0.000    0.000    0.000    0.000    0.000    0.000 
#
# Total GULP energy -144882.377781 kJ/mol
# GULP energy per Si atom -5572.399145 kJ/mol
# Density = 2.193457 g / cm^3
# Si number density = 21.984607 Si / 1000 Ang^3
#
#
#
# Elastic Constant Matrix: (Units=GPa)
#
#
# Indices 1 2 3 4 5 6 
#
# 1 38.5067 31.6725 13.3650 0.0000 0.0000 0.0000
# 2 31.6725 137.5471 41.3885 0.0000 0.0000 0.0000
# 3 13.3650 41.3885 86.3147 0.0000 0.0000 0.0000
# 4 0.0000 0.0000 0.0000 46.0249 0.0000 0.0000
# 5 0.0000 0.0000 0.0000 0.0000 20.7559 0.0000
# 6 0.0000 0.0000 0.0000 0.0000 0.0000 23.0174
#
#
#
# Elastic Compliance Matrix: (Units=1/GPa)
#
#
# Indices 1 2 3 4 5 6 
#
# 1 0.032243 -0.006921 -0.001674 0.000000 0.000000 0.000000
# 2 -0.006921 0.009982 -0.003715 0.000000 0.000000 0.000000
# 3 -0.001674 -0.003715 0.013626 0.000000 0.000000 0.000000
# 4 0.000000 0.000000 0.000000 0.021727 0.000000 0.000000
# 5 0.000000 0.000000 0.000000 0.000000 0.048179 0.000000
# 6 0.000000 0.000000 0.000000 0.000000 0.000000 0.043445
#
#
# Mechanical properties :
#
#
# Convention : Reuss Voigt Hill
#
# Bulk Modulus (GPa) = 32.01871 48.35783 40.18827
# Shear Modulus (GPa) = 24.48202 29.68916 27.08559
#
# Velocity S-wave (km/s) = 3.34068 3.67884 3.51383
# Velocity P-wave (km/s) = 5.42918 6.33159 5.89767
#
# Compressibility (1/GPa) = 0.03123174
#
# Stress axis : x y z
#
# Youngs Moduli (GPa) = 31.01454 100.18435 73.38968
#
# Poissons Ratio (x) = 0.69335 0.12285
# Poissons Ratio (y) = 0.21464 0.27262
# Poissons Ratio (z) = 0.05192 0.37215
#
# Static dielectric constant tensor:
#      x y z
#    x 1.810060 0.000000 0.000000 
#    y 0.000000 1.842660 0.000000 
#    z 0.000000 0.000000 1.855990 
# 
# From -- ./inp_files/10158.got.cif
#   From: 2010.05.17/outbox.cif.g08.bks.cpg/sg20_6_cif.got.tgz:10158.got - 2010.06.03 22:52:26.
