data_PCOD9318173
_publ_section_title
;
Structure prediction by ZEFSAII (Michael W. Deem and Ramdas Pophale) SiO2 
 PCOD9318173
Probable space group: C 2 2 21
;
_chemical_formula_sum "Si O2"
_cell_formula_units_Z 32
_cell_length_a 5.549481
_cell_length_b 29.951584
_cell_length_c 8.219812
_cell_angle_alpha 90.000000
_cell_angle_beta 90.000000
_cell_angle_gamma 90.000000
_cell_volume 1366.262186
_symmetry_space_group_name_H-M "C 2 2 21"
_symmetry_group_IT_number 20
_symmetry_cell_setting 'orthorhombic'
loop_
_space_group_symop_operation_xyz
x,y,z
-x,-y,1/2+z
x,-y,-z
-x,y,1/2-z
1/2+x,1/2+y,z
1/2-x,1/2-y,1/2+z
1/2+x,1/2-y,-z
1/2-x,1/2+y,1/2-z
loop_
_atom_site_type_symbol
_atom_site_label
_atom_site_fract_x
_atom_site_fract_y
_atom_site_fract_z
Si Si1 0.248764 0.276961 0.847019
Si Si2 0.237900 0.586905 0.564699
Si Si3 0.084452 0.180991 0.931965
Si Si4 0.759243 0.051375 0.946170
O O1 0.500000 0.270442 0.750000
O O2 0.204928 0.229782 0.936361
O O3 0.000000 0.285875 0.750000
O O4 0.338591 0.316206 0.964614
O O5 0.238314 0.640163 0.541514
O O6 0.248457 0.567102 0.752706
O O7 0.493290 0.572515 0.490989
O O8 0.996377 0.567990 0.487998
O O9 0.000000 0.174204 0.750000
O O10 0.774288 0.000000 0.000000
#
# Coordination Sequence:
#
# PCOD9318173 Si02
#       4
#     8   8   8   8
#     4  11  26  42  66 105 152 197 236 317 364 418
#     4  10  22  37  67  99 124 178 233 287 339 452
#     4  11  22  43  72 104 138 194 256 286 358 437
#     4  10  20  38  62  98 131 160 221 301 359 408
#
# _framework density 23.421567
#
# number of rings (size 3 to 8) (size 9 to 14) (size 15 to 20)
#    0.000    1.500    2.500    3.750    3.500    4.000 
#    0.000    0.000   22.000    0.000    0.000    0.000 
#    0.000    0.000    0.000    0.000    0.000    0.000 
#
# Total GULP energy -89167.340687 kJ/mol
# GULP energy per Si atom -5572.958793 kJ/mol
# Density = 2.336826 g / cm^3
# Si number density = 23.421567 Si / 1000 Ang^3
#
#
#
# Elastic Constant Matrix: (Units=GPa)
#
#
# Indices 1 2 3 4 5 6 
#
# 1 203.7530 26.2582 45.0322 0.0000 0.0000 0.0000
# 2 26.2582 93.9472 29.4530 0.0000 0.0000 0.0000
# 3 45.0322 29.4530 49.6980 0.0000 0.0000 0.0000
# 4 0.0000 0.0000 0.0000 4.4221 0.0000 0.0000
# 5 0.0000 0.0000 0.0000 0.0000 -4.1336 0.0000
# 6 0.0000 0.0000 0.0000 0.0000 0.0000 50.1325
#
#
#
# Elastic Compliance Matrix: (Units=1/GPa)
#
#
# Indices 1 2 3 4 5 6 
#
# 1 0.006137 0.000034 -0.005581 0.000000 0.000000 0.000000
# 2 0.000034 0.013073 -0.007779 0.000000 0.000000 0.000000
# 3 -0.005581 -0.007779 0.029789 0.000000 0.000000 0.000000
# 4 0.000000 0.000000 0.000000 0.226134 0.000000 0.000000
# 5 0.000000 0.000000 0.000000 0.000000 -0.241923 0.000000
# 6 0.000000 0.000000 0.000000 0.000000 0.000000 0.019947
#
#
# Mechanical properties :
#
#
# Convention : Reuss Voigt Hill
#
# Bulk Modulus (GPa) = 44.74732 60.98721 52.86727
# Shear Modulus (GPa) = 57.30052 26.52787 41.91420
#
# Velocity S-wave (km/s) = 4.95156 3.36910 4.23490
# Velocity P-wave (km/s) = 7.19981 6.42105 6.82155
#
# Compressibility (1/GPa) = 0.02234771
#
# Stress axis : x y z
#
# Youngs Moduli (GPa) = 162.94603 76.49106 33.56943
#
# Poissons Ratio (x) = -0.00264 0.18736
# Poissons Ratio (y) = -0.00562 0.26114
# Poissons Ratio (z) = 0.90945 0.59503
#
# Static dielectric constant tensor:
#      x y z
#    x 1.891420 0.000000 0.000000 
#    y 0.000000 1.920710 0.000000 
#    z 0.000000 0.000000 2.026590 
# 
# From -- ./inp_files/5241.got.cif
#   From: 2010.05.17/outbox.cif.g08.bks.cpg/sg20_3_cif.got.tgz:5241.got - 2010.06.03 22:52:26.
