data_PCOD9318714
_publ_section_title
;
Structure prediction by ZEFSAII (Michael W. Deem and Ramdas Pophale) SiO2 
 PCOD9318714
Probable space group: C 2 2 21
;
_chemical_formula_sum "Si O2"
_cell_formula_units_Z 52
_cell_length_a 25.920331
_cell_length_b 10.379948
_cell_length_c 8.642945
_cell_angle_alpha 90.000000
_cell_angle_beta 90.000000
_cell_angle_gamma 90.000000
_cell_volume 2325.398941
_symmetry_space_group_name_H-M "C 2 2 21"
_symmetry_group_IT_number 20
_symmetry_cell_setting 'orthorhombic'
loop_
_space_group_symop_operation_xyz
x,y,z
-x,-y,1/2+z
x,-y,-z
-x,y,1/2-z
1/2+x,1/2+y,z
1/2-x,1/2-y,1/2+z
1/2+x,1/2-y,-z
1/2-x,1/2+y,1/2-z
loop_
_atom_site_type_symbol
_atom_site_label
_atom_site_fract_x
_atom_site_fract_y
_atom_site_fract_z
Si Si1 0.744133 0.866607 0.046731
Si Si2 0.000000 0.822368 0.250000
Si Si3 0.358940 0.363992 0.917459
Si Si4 0.361214 0.882382 0.889445
Si Si5 0.094563 0.017783 0.824491
Si Si6 0.045775 0.428225 0.844221
Si Si7 0.304926 0.698312 0.674317
O O1 0.796823 0.857968 0.942376
O O2 0.711217 0.745198 0.993614
O O3 0.760869 0.870552 0.224928
O O4 0.717868 0.000000 0.000000
O O5 0.048642 0.915532 0.271941
O O6 0.021887 0.715872 0.127404
O O7 0.383558 0.386716 0.750625
O O8 0.371891 0.500000 0.000000
O O9 0.378620 0.236841 0.001909
O O10 0.406799 0.917250 0.772426
O O11 0.316739 0.822932 0.781565
O O12 0.346596 0.000000 0.000000
O O13 0.144051 0.112616 0.827307
O O14 0.076307 0.000000 0.000000
O O15 0.000000 0.497919 0.750000
O O16 0.059086 0.500000 0.000000
#
# Coordination Sequence:
#
# PCOD9318714 Si02
#       7
#     8   4   8   8   8   8   8
#     4  10  22  39  67  95 137 194 222 290 372 432
#     4  10  24  46  66 102 138 180 246 300 362 418
#     4  10  20  46  68  93 142 191 226 297 370 417
#     4  11  23  42  67  98 138 184 234 291 358 433
#     4  12  25  45  74 103 140 189 251 314 357 435
#     4  10  21  40  68  94 141 182 223 288 363 431
#     4  11  23  44  63 105 141 180 240 301 353 443
#
# _framework density 22.361756
#
# number of rings (size 3 to 8) (size 9 to 14) (size 15 to 20)
#    0.462    0.923    6.154    0.462    2.154    6.154 
#    0.000    0.000    1.692    0.000    0.000    0.000 
#    0.000    0.000    0.000    0.000    0.000    0.000 
#
# Total GULP energy -145026.499824 kJ/mol
# GULP energy per Si atom -5577.942301 kJ/mol
# Density = 2.231086 g / cm^3
# Si number density = 22.361756 Si / 1000 Ang^3
#
#
#
# Elastic Constant Matrix: (Units=GPa)
#
#
# Indices 1 2 3 4 5 6 
#
# 1 36.3358 12.4948 10.9095 0.0000 0.0000 0.0000
# 2 12.4948 73.5159 22.4723 0.0000 0.0000 0.0000
# 3 10.9095 22.4723 42.5929 0.0000 0.0000 0.0000
# 4 0.0000 0.0000 0.0000 34.2836 0.0000 0.0000
# 5 0.0000 0.0000 0.0000 0.0000 21.7895 0.0000
# 6 0.0000 0.0000 0.0000 0.0000 0.0000 13.0911
#
#
#
# Elastic Compliance Matrix: (Units=1/GPa)
#
#
# Indices 1 2 3 4 5 6 
#
# 1 0.030483 -0.003332 -0.006050 0.000000 0.000000 0.000000
# 2 -0.003332 0.016582 -0.007896 0.000000 0.000000 0.000000
# 3 -0.006050 -0.007896 0.029193 0.000000 0.000000 0.000000
# 4 0.000000 0.000000 0.000000 0.029168 0.000000 0.000000
# 5 0.000000 0.000000 0.000000 0.000000 0.045894 0.000000
# 6 0.000000 0.000000 0.000000 0.000000 0.000000 0.076388
#
#
# Mechanical properties :
#
#
# Convention : Reuss Voigt Hill
#
# Bulk Modulus (GPa) = 23.97822 27.13309 25.55565
# Shear Modulus (GPa) = 18.10513 20.93737 19.52125
#
# Velocity S-wave (km/s) = 2.84852 3.06323 2.95782
# Velocity P-wave (km/s) = 4.64380 4.96701 4.80812
#
# Compressibility (1/GPa) = 0.04170452
#
# Stress axis : x y z
#
# Youngs Moduli (GPa) = 32.80505 60.30545 34.25429
#
# Poissons Ratio (x) = 0.20091 0.20724
# Poissons Ratio (y) = 0.10929 0.27046
# Poissons Ratio (z) = 0.19847 0.47615
#
# Static dielectric constant tensor:
#      x y z
#    x 1.832180 0.000000 0.000000 
#    y 0.000000 1.858340 0.000000 
#    z 0.000000 0.000000 1.917800 
# 
# From -- ./inp_files/11073.got.cif
#   From: 2010.05.17/outbox.cif.g08.bks.cpg/sg20_6_cif.got.tgz:11073.got - 2010.06.03 22:52:26.
