data_PCOD9318141
_publ_section_title
;
Structure prediction by ZEFSAII (Michael W. Deem and Ramdas Pophale) SiO2 
 PCOD9318141
Probable space group: C 2 2 21
;
_chemical_formula_sum "Si O2"
_cell_formula_units_Z 60
_cell_length_a 15.404229
_cell_length_b 7.918052
_cell_length_c 24.849418
_cell_angle_alpha 90.000000
_cell_angle_beta 90.000000
_cell_angle_gamma 90.000000
_cell_volume 3030.920446
_symmetry_space_group_name_H-M "C 2 2 21"
_symmetry_group_IT_number 20
_symmetry_cell_setting 'orthorhombic'
loop_
_space_group_symop_operation_xyz
x,y,z
-x,-y,1/2+z
x,-y,-z
-x,y,1/2-z
1/2+x,1/2+y,z
1/2-x,1/2-y,1/2+z
1/2+x,1/2-y,-z
1/2-x,1/2+y,1/2-z
loop_
_atom_site_type_symbol
_atom_site_label
_atom_site_fract_x
_atom_site_fract_y
_atom_site_fract_z
Si Si1 0.937224 0.576962 0.825162
Si Si2 0.337653 0.580636 0.702568
Si Si3 0.858842 0.846747 0.536064
Si Si4 0.775011 0.388195 0.543731
Si Si5 0.327540 0.029735 0.270344
Si Si6 0.270959 0.948551 0.098705
Si Si7 0.385138 0.893845 0.373731
Si Si8 0.000000 0.881230 0.750000
O O1 0.904481 0.477672 0.772996
O O2 0.858902 0.549182 0.867165
O O3 0.024032 0.524046 0.856163
O O4 0.958325 0.760206 0.797045
O O5 0.332258 0.783450 0.706111
O O6 0.262551 0.505466 0.740854
O O7 0.307298 0.545542 0.641948
O O8 0.426990 0.497386 0.721942
O O9 0.848790 0.695999 0.493643
O O10 0.903747 0.768600 0.588917
O O11 0.895656 0.000000 0.500000
O O12 0.762904 0.909576 0.556807
O O13 0.723662 0.500000 0.500000
O O14 0.726547 0.230505 0.568903
O O15 0.819504 0.495467 0.590615
O O16 0.339695 0.883483 0.315343
#
# Coordination Sequence:
#
# PCOD9318141 Si02
#       8
#     8   8   8   8   8   8   8   4
#     4  11  24  38  59  93 131 165 197 258 309 378
#     4  11  24  37  60  89 122 168 207 246 306 376
#     4   9  20  38  62  88 112 157 212 260 307 368
#     4   9  19  37  61  84 110 152 210 261 302 364
#     4  11  23  39  60  90 130 169 209 245 307 387
#     4  10  20  38  61  84 120 160 207 245 320 371
#     4  11  20  38  64  86 125 162 202 256 316 362
#     4  12  24  38  56  90 138 156 208 260 294 364
#
# _framework density 19.795966
#
# number of rings (size 3 to 8) (size 9 to 14) (size 15 to 20)
#    0.000    1.600    2.667    2.400    5.600    0.000 
#    0.000    6.667    0.000    0.000    0.000    0.000 
#    0.000    0.000    0.000    0.000    0.000    0.000 
#
# Total GULP energy -167008.286659 kJ/mol
# GULP energy per Si atom -5566.942889 kJ/mol
# Density = 1.975091 g / cm^3
# Si number density = 19.795966 Si / 1000 Ang^3
#
#
#
# Elastic Constant Matrix: (Units=GPa)
#
#
# Indices 1 2 3 4 5 6 
#
# 1 59.5530 6.5292 20.6307 0.0000 0.0000 0.0000
# 2 6.5292 35.7724 8.7608 0.0000 0.0000 0.0000
# 3 20.6307 8.7608 94.9273 0.0000 0.0000 0.0000
# 4 0.0000 0.0000 0.0000 44.1206 0.0000 0.0000
# 5 0.0000 0.0000 0.0000 0.0000 11.2058 0.0000
# 6 0.0000 0.0000 0.0000 0.0000 0.0000 20.4807
#
#
#
# Elastic Compliance Matrix: (Units=1/GPa)
#
#
# Indices 1 2 3 4 5 6 
#
# 1 0.018363 -0.002429 -0.003767 0.000000 0.000000 0.000000
# 2 -0.002429 0.028922 -0.002141 0.000000 0.000000 0.000000
# 3 -0.003767 -0.002141 0.011551 0.000000 0.000000 0.000000
# 4 0.000000 0.000000 0.000000 0.022665 0.000000 0.000000
# 5 0.000000 0.000000 0.000000 0.000000 0.089239 0.000000
# 6 0.000000 0.000000 0.000000 0.000000 0.000000 0.048826
#
#
# Mechanical properties :
#
#
# Convention : Reuss Voigt Hill
#
# Bulk Modulus (GPa) = 23.71826 29.12158 26.41992
# Shear Modulus (GPa) = 19.97644 25.45022 22.71333
#
# Velocity S-wave (km/s) = 3.18011 3.58945 3.39096
# Velocity P-wave (km/s) = 5.04891 5.64993 5.35785
#
# Compressibility (1/GPa) = 0.04216160
#
# Stress axis : x y z
#
# Youngs Moduli (GPa) = 54.45745 34.57545 86.57545
#
# Poissons Ratio (x) = 0.08399 0.32610
# Poissons Ratio (y) = 0.13229 0.18538
# Poissons Ratio (z) = 0.20512 0.07404
#
# Static dielectric constant tensor:
#      x y z
#    x 1.676650 0.000000 0.000000 
#    y 0.000000 1.770790 0.000000 
#    z 0.000000 0.000000 1.747230 
# 
# From -- ./inp_files/29301.got.cif
#   From: 2010.05.17/outbox.cif.g08.bks.cpg/sg20_15_cif.got.tgz:29301.got - 2010.06.03 22:52:26.
