data_PCOD9318053
_publ_section_title
;
Structure prediction by ZEFSAII (Michael W. Deem and Ramdas Pophale) SiO2 
 PCOD9318053
Probable space group: C 2 2 21
;
_chemical_formula_sum "Si O2"
_cell_formula_units_Z 48
_cell_length_a 18.170257
_cell_length_b 9.938172
_cell_length_c 13.768279
_cell_angle_alpha 90.000000
_cell_angle_beta 90.000000
_cell_angle_gamma 90.000000
_cell_volume 2486.263972
_symmetry_space_group_name_H-M "C 2 2 21"
_symmetry_group_IT_number 20
_symmetry_cell_setting 'orthorhombic'
loop_
_space_group_symop_operation_xyz
x,y,z
-x,-y,1/2+z
x,-y,-z
-x,y,1/2-z
1/2+x,1/2+y,z
1/2-x,1/2-y,1/2+z
1/2+x,1/2-y,-z
1/2-x,1/2+y,1/2-z
loop_
_atom_site_type_symbol
_atom_site_label
_atom_site_fract_x
_atom_site_fract_y
_atom_site_fract_z
Si Si1 0.078469 0.504270 0.215521
Si Si2 0.857649 0.500000 0.500000
Si Si3 0.939982 0.065163 0.404072
Si Si4 0.789497 0.338118 0.811971
Si Si5 0.294371 0.294067 0.504017
Si Si6 0.500000 0.252167 0.750000
Si Si7 0.817250 0.069877 0.699272
O O1 0.141011 0.579966 0.273856
O O2 0.000000 0.563335 0.250000
O O3 0.069641 0.348182 0.246557
O O4 0.094882 0.505683 0.100057
O O5 0.808954 0.635219 0.496945
O O6 0.869320 0.147259 0.446436
O O7 0.994636 0.158374 0.345164
O O8 0.973882 0.000000 0.500000
O O9 0.902120 0.961047 0.328319
O O10 0.772853 0.327995 0.925790
O O11 0.799079 0.186674 0.774429
O O12 0.721328 0.429288 0.773212
O O13 0.286246 0.368890 0.401955
#
# Coordination Sequence:
#
# PCOD9318053 Si02
#       7
#     8   4   8   8   8   4   8
#     4  10  23  39  65  92 126 176 211 273 316 400
#     4  12  18  40  68  98 124 170 236 258 338 400
#     4   9  19  38  62  89 119 166 214 255 324 388
#     4  11  21  39  61  97 124 159 216 267 323 385
#     4  10  20  37  64  91 121 167 207 272 320 385
#     4  10  20  40  64  90 124 172 218 262 324 382
#     4  10  22  36  64  90 121 160 207 270 325 378
#
# _framework density 19.306076000000001
#
# number of rings (size 3 to 8) (size 9 to 14) (size 15 to 20)
#    0.500    1.333    3.333    2.500    2.333    0.000 
#    4.500    0.000    7.333    0.000    0.000    0.000 
#    0.000    0.000    0.000    0.000    0.000    0.000 
#
# Total GULP energy -133688.110985 kJ/mol
# GULP energy per Si atom -5570.337958 kJ/mol
# Density = 1.926213 g / cm^3
# Si number density = 19.306076 Si / 1000 Ang^3
#
#
#
# Elastic Constant Matrix: (Units=GPa)
#
#
# Indices 1 2 3 4 5 6 
#
# 1 35.9210 -1.9078 29.1152 0.0000 0.0000 0.0000
# 2 -1.9078 84.5391 -0.1461 0.0000 0.0000 0.0000
# 3 29.1152 -0.1461 59.4339 0.0000 0.0000 0.0000
# 4 0.0000 0.0000 0.0000 38.0035 0.0000 0.0000
# 5 0.0000 0.0000 0.0000 0.0000 23.1510 0.0000
# 6 0.0000 0.0000 0.0000 0.0000 0.0000 -23.2273
#
#
#
# Elastic Compliance Matrix: (Units=1/GPa)
#
#
# Indices 1 2 3 4 5 6 
#
# 1 0.046257 0.001005 -0.022658 0.000000 0.000000 0.000000
# 2 0.001005 0.011851 -0.000463 0.000000 0.000000 0.000000
# 3 -0.022658 -0.000463 0.027924 0.000000 0.000000 0.000000
# 4 0.000000 0.000000 0.000000 0.026313 0.000000 0.000000
# 5 0.000000 0.000000 0.000000 0.000000 0.043195 0.000000
# 6 0.000000 0.000000 0.000000 0.000000 0.000000 -0.043053
#
#
# Mechanical properties :
#
#
# Convention : Reuss Voigt Hill
#
# Bulk Modulus (GPa) = 23.92377 26.00183 24.96280
# Shear Modulus (GPa) = 29.29942 17.77428 23.53685
#
# Velocity S-wave (km/s) = 3.89990 3.03752 3.49541
# Velocity P-wave (km/s) = 5.71819 5.07932 5.40820
#
# Compressibility (1/GPa) = 0.04179943
#
# Stress axis : x y z
#
# Youngs Moduli (GPa) = 21.61837 84.38307 35.81189
#
# Poissons Ratio (x) = -0.08478 0.81141
# Poissons Ratio (y) = -0.02172 0.01658
# Poissons Ratio (z) = 0.48982 0.03907
#
# Static dielectric constant tensor:
#      x y z
#    x 1.675320 0.000000 0.000000 
#    y 0.000000 1.731350 0.000000 
#    z 0.000000 0.000000 1.686350 
# 
# From -- ./inp_files/21666.got.cif
#   From: 2010.05.17/outbox.cif.g08.bks.cpg/sg20_11_cif.got.tgz:21666.got - 2010.06.03 22:52:26.
