data_PCOD9318294
_publ_section_title
;
Structure prediction by ZEFSAII (Michael W. Deem and Ramdas Pophale) SiO2 
 PCOD9318294
Probable space group: C 2 2 21
;
_chemical_formula_sum "Si O2"
_cell_formula_units_Z 52
_cell_length_a 21.351133
_cell_length_b 5.326778
_cell_length_c 19.842005
_cell_angle_alpha 90.000000
_cell_angle_beta 90.000000
_cell_angle_gamma 90.000000
_cell_volume 2256.685706
_symmetry_space_group_name_H-M "C 2 2 21"
_symmetry_group_IT_number 20
_symmetry_cell_setting 'orthorhombic'
loop_
_space_group_symop_operation_xyz
x,y,z
-x,-y,1/2+z
x,-y,-z
-x,y,1/2-z
1/2+x,1/2+y,z
1/2-x,1/2-y,1/2+z
1/2+x,1/2-y,-z
1/2-x,1/2+y,1/2-z
loop_
_atom_site_type_symbol
_atom_site_label
_atom_site_fract_x
_atom_site_fract_y
_atom_site_fract_z
Si Si1 0.798686 0.252035 0.544911
Si Si2 0.238812 0.176594 0.215298
Si Si3 0.000000 0.698493 0.750000
Si Si4 0.880720 0.960839 0.765836
Si Si5 0.677053 0.091494 0.620845
Si Si6 0.438515 0.748373 0.545693
Si Si7 0.556174 0.857449 0.634714
O O1 0.796897 0.500000 0.500000
O O2 0.731787 0.238730 0.582799
O O3 0.868499 0.262475 0.578659
O O4 0.799150 0.000000 0.500000
O O5 0.268204 0.972405 0.269111
O O6 0.282994 0.139618 0.151669
O O7 0.173081 0.031108 0.209831
O O8 0.941442 0.862146 0.728981
O O9 0.977892 0.547965 0.814784
O O10 0.849203 0.765681 0.818604
O O11 0.906100 0.181060 0.812861
O O12 0.611915 0.986105 0.590753
O O13 0.439143 0.500000 0.500000
O O14 0.499910 0.736784 0.592936
O O15 0.444888 0.000000 0.500000
#
# Coordination Sequence:
#
# PCOD9318294 Si02
#       7
#     8   8   4   8   8   8   8
#     4  10  24  46  67  96 131 170 229 281 341 406
#     4  10  20  39  62  90 133 170 209 263 330 401
#     4  10  24  40  64 100 140 174 226 278 344 416
#     4  10  22  41  62  97 138 174 222 272 340 418
#     4  10  23  40  65  99 132 176 218 284 339 408
#     4  10  25  49  72  98 136 186 236 289 347 417
#     4  11  23  44  67 103 137 180 233 286 345 420
#
# _framework density 23.042642000000001
#
# number of rings (size 3 to 8) (size 9 to 14) (size 15 to 20)
#    0.000    1.846    1.538    0.462    6.462    3.077 
#   11.077    0.000    0.000    0.000    0.000    0.000 
#    0.000    0.000    0.000    0.000    0.000    0.000 
#
# Total GULP energy -144765.209530 kJ/mol
# GULP energy per Si atom -5567.892674 kJ/mol
# Density = 2.299020 g / cm^3
# Si number density = 23.042642 Si / 1000 Ang^3
#
#
#
# Elastic Constant Matrix: (Units=GPa)
#
#
# Indices 1 2 3 4 5 6 
#
# 1 253.7407 37.4966 54.8344 0.0000 0.0000 0.0000
# 2 37.4966 94.6141 10.7473 0.0000 0.0000 0.0000
# 3 54.8344 10.7473 25.2872 0.0000 0.0000 0.0000
# 4 0.0000 0.0000 0.0000 5.5310 0.0000 0.0000
# 5 0.0000 0.0000 0.0000 0.0000 32.7924 0.0000
# 6 0.0000 0.0000 0.0000 0.0000 0.0000 -120.2898
#
#
#
# Elastic Compliance Matrix: (Units=1/GPa)
#
#
# Indices 1 2 3 4 5 6 
#
# 1 0.007542 -0.001189 -0.015849 0.000000 0.000000 0.000000
# 2 -0.001189 0.011293 -0.002222 0.000000 0.000000 0.000000
# 3 -0.015849 -0.002222 0.074857 0.000000 0.000000 0.000000
# 4 0.000000 0.000000 0.000000 0.180798 0.000000 0.000000
# 5 0.000000 0.000000 0.000000 0.000000 0.030495 0.000000
# 6 0.000000 0.000000 0.000000 0.000000 0.000000 -0.008313
#
#
# Mechanical properties :
#
#
# Convention : Reuss Voigt Hill
#
# Bulk Modulus (GPa) = 18.12482 64.42203 41.27343
# Shear Modulus (GPa) = 14.14105 1.64429 7.89267
#
# Velocity S-wave (km/s) = 2.47997 0.84566 1.85275
# Velocity P-wave (km/s) = 4.01038 5.38256 4.74632
#
# Compressibility (1/GPa) = 0.05517295
#
# Stress axis : x y z
#
# Youngs Moduli (GPa) = 132.59773 88.55271 13.35878
#
# Poissons Ratio (x) = 0.10525 0.21172
# Poissons Ratio (y) = 0.15760 0.02968
# Poissons Ratio (z) = 2.10148 0.19677
#
# Static dielectric constant tensor:
#      x y z
#    x 2.070410 0.000000 0.000000 
#    y 0.000000 1.902550 0.000000 
#    z 0.000000 0.000000 2.260150 
# 
# From -- ./inp_files/27885.got.cif
#   From: 2010.05.17/outbox.cif.g08.bks.cpg/sg20_14_cif.got.tgz:27885.got - 2010.06.03 22:52:26.
