data_PCOD9318365
_publ_section_title
;
Structure prediction by ZEFSAII (Michael W. Deem and Ramdas Pophale) SiO2 
 PCOD9318365
Probable space group: C 2 2 21
;
_chemical_formula_sum "Si O2"
_cell_formula_units_Z 48
_cell_length_a 9.532966
_cell_length_b 24.637903
_cell_length_c 9.327660
_cell_angle_alpha 90.000000
_cell_angle_beta 90.000000
_cell_angle_gamma 90.000000
_cell_volume 2190.808880
_symmetry_space_group_name_H-M "C 2 2 21"
_symmetry_group_IT_number 20
_symmetry_cell_setting 'orthorhombic'
loop_
_space_group_symop_operation_xyz
x,y,z
-x,-y,1/2+z
x,-y,-z
-x,y,1/2-z
1/2+x,1/2+y,z
1/2-x,1/2-y,1/2+z
1/2+x,1/2-y,-z
1/2-x,1/2+y,1/2-z
loop_
_atom_site_type_symbol
_atom_site_label
_atom_site_fract_x
_atom_site_fract_y
_atom_site_fract_z
Si Si1 0.858605 0.498067 0.328205
Si Si2 0.013886 0.130922 0.973980
Si Si3 0.928343 0.252177 0.593602
Si Si4 0.888067 0.967405 0.647614
Si Si5 0.616304 0.224202 0.645109
Si Si6 0.737064 0.381253 0.275143
O O1 0.860567 0.500000 0.500000
O O2 0.743829 0.535496 0.251232
O O3 0.823767 0.435953 0.286890
O O4 0.000000 0.513540 0.250000
O O5 0.048537 0.194289 0.984999
O O6 0.121801 0.112975 0.849448
O O7 0.854885 0.126391 0.918378
O O8 0.048516 0.090245 0.101124
O O9 0.759388 0.257780 0.608812
O O10 0.000000 0.248073 0.750000
O O11 0.026808 0.290874 0.497325
O O12 0.000000 0.997302 0.750000
O O13 0.861785 0.000000 0.500000
O O14 0.500000 0.249825 0.750000
O O15 0.673690 0.171246 0.729665
#
# Coordination Sequence:
#
# PCOD9318365 Si02
#       6
#     8   8   8   8   8   8
#     4  12  26  44  68 103 145 195 244 306 372 452
#     4  10  20  39  69 101 138 184 239 299 356 448
#     4  11  22  42  69 103 140 184 246 301 376 448
#     4  12  23  39  69 101 141 187 241 298 364 440
#     4  11  23  41  71 100 138 191 237 306 378 449
#     4  10  20  42  69  99 134 190 240 294 378 437
#
# _framework density 21.909714000000001
#
# number of rings (size 3 to 8) (size 9 to 14) (size 15 to 20)
#    0.000    1.000    5.000    4.500    0.000    0.667 
#    0.000    0.000   14.667    0.000    0.000    0.000 
#    0.000    0.000    0.000    0.000    0.000    0.000 
#
# Total GULP energy -133963.536774 kJ/mol
# GULP energy per Si atom -5581.814032 kJ/mol
# Density = 2.185985 g / cm^3
# Si number density = 21.909714 Si / 1000 Ang^3
#
#
#
# Elastic Constant Matrix: (Units=GPa)
#
#
# Indices 1 2 3 4 5 6 
#
# 1 172.3827 21.3188 67.4357 0.0000 0.0000 0.0000
# 2 21.3188 42.7233 37.4119 0.0000 0.0000 0.0000
# 3 67.4357 37.4119 166.9573 0.0000 0.0000 0.0000
# 4 0.0000 0.0000 0.0000 31.5837 0.0000 0.0000
# 5 0.0000 0.0000 0.0000 0.0000 43.8911 0.0000
# 6 0.0000 0.0000 0.0000 0.0000 0.0000 15.2647
#
#
#
# Elastic Compliance Matrix: (Units=1/GPa)
#
#
# Indices 1 2 3 4 5 6 
#
# 1 0.006943 -0.001255 -0.002523 0.000000 0.000000 0.000000
# 2 -0.001255 0.029347 -0.006069 0.000000 0.000000 0.000000
# 3 -0.002523 -0.006069 0.008369 0.000000 0.000000 0.000000
# 4 0.000000 0.000000 0.000000 0.031662 0.000000 0.000000
# 5 0.000000 0.000000 0.000000 0.000000 0.022784 0.000000
# 6 0.000000 0.000000 0.000000 0.000000 0.000000 0.065511
#
#
# Mechanical properties :
#
#
# Convention : Reuss Voigt Hill
#
# Bulk Modulus (GPa) = 40.05729 70.48846 55.27288
# Shear Modulus (GPa) = 25.95617 35.20770 30.58193
#
# Velocity S-wave (km/s) = 3.44566 4.01302 3.74012
# Velocity P-wave (km/s) = 5.84403 7.32902 6.62824
#
# Compressibility (1/GPa) = 0.02496424
#
# Stress axis : x y z
#
# Youngs Moduli (GPa) = 144.02254 34.07456 119.49279
#
# Poissons Ratio (x) = 0.04277 0.30151
# Poissons Ratio (y) = 0.18077 0.72523
# Poissons Ratio (z) = 0.36340 0.20681
#
# Static dielectric constant tensor:
#      x y z
#    x 1.697680 0.000000 0.000000 
#    y 0.000000 1.854270 0.000000 
#    z 0.000000 0.000000 1.812310 
# 
# From -- ./inp_files/6503.got.cif
#   From: 2010.05.17/outbox.cif.g08.bks.cpg/sg20_4_cif.got.tgz:6503.got - 2010.06.03 22:52:26.
