data_PCOD9318649
_publ_section_title
;
Structure prediction by ZEFSAII (Michael W. Deem and Ramdas Pophale) SiO2 
 PCOD9318649
Probable space group: C 2 2 21
;
_chemical_formula_sum "Si O2"
_cell_formula_units_Z 40
_cell_length_a 9.164390
_cell_length_b 18.014660
_cell_length_c 11.624583
_cell_angle_alpha 90.000000
_cell_angle_beta 90.000000
_cell_angle_gamma 90.000000
_cell_volume 1919.141582
_symmetry_space_group_name_H-M "C 2 2 21"
_symmetry_group_IT_number 20
_symmetry_cell_setting 'orthorhombic'
loop_
_space_group_symop_operation_xyz
x,y,z
-x,-y,1/2+z
x,-y,-z
-x,y,1/2-z
1/2+x,1/2+y,z
1/2-x,1/2-y,1/2+z
1/2+x,1/2-y,-z
1/2-x,1/2+y,1/2-z
loop_
_atom_site_type_symbol
_atom_site_label
_atom_site_fract_x
_atom_site_fract_y
_atom_site_fract_z
Si Si1 0.849015 0.633164 0.299558
Si Si2 0.923658 0.791008 0.401035
Si Si3 0.114608 0.011374 0.363454
Si Si4 0.223185 0.853580 0.299824
Si Si5 0.380387 0.714152 0.343161
O O1 0.889283 0.704549 0.378135
O O2 0.731346 0.578585 0.357220
O O3 0.764506 0.671247 0.193301
O O4 0.000000 0.599730 0.250000
O O5 0.800177 0.838671 0.335650
O O6 0.927826 0.809787 0.532961
O O7 0.079186 0.814210 0.351756
O O8 0.000000 0.016601 0.250000
O O9 0.061491 0.000000 0.500000
O O10 0.208679 0.937839 0.334569
O O11 0.354399 0.802659 0.341164
O O12 0.500000 0.695556 0.250000
#
# Coordination Sequence:
#
# PCOD9318649 Si02
#       5
#     8   8   8   8   8
#     4  11  24  44  66  99 140 184 225 282 349 407
#     4  10  20  43  65  92 135 173 219 283 332 394
#     4  12  27  45  70 101 143 185 235 287 352 415
#     4  10  22  42  65  94 133 179 212 285 338 390
#     4  11  24  37  71 104 125 179 239 271 332 414
#
# _framework density 20.842652000000001
#
# number of rings (size 3 to 8) (size 9 to 14) (size 15 to 20)
#    0.000    1.200    6.000    1.800   11.200    0.800 
#    0.000    3.000    0.000    0.000    0.000    0.000 
#    0.000    0.000    0.000    0.000    0.000    0.000 
#
# Total GULP energy -111468.294831 kJ/mol
# GULP energy per Si atom -5573.414742 kJ/mol
# Density = 2.079521 g / cm^3
# Si number density = 20.842652 Si / 1000 Ang^3
#
#
#
# Elastic Constant Matrix: (Units=GPa)
#
#
# Indices 1 2 3 4 5 6 
#
# 1 59.3077 12.4345 17.1252 0.0000 0.0000 0.0000
# 2 12.4345 107.9585 3.2072 0.0000 0.0000 0.0000
# 3 17.1252 3.2072 149.2066 0.0000 0.0000 0.0000
# 4 0.0000 0.0000 0.0000 -9.8618 0.0000 0.0000
# 5 0.0000 0.0000 0.0000 0.0000 14.6201 0.0000
# 6 0.0000 0.0000 0.0000 0.0000 0.0000 47.0844
#
#
#
# Elastic Compliance Matrix: (Units=1/GPa)
#
#
# Indices 1 2 3 4 5 6 
#
# 1 0.017859 -0.001997 -0.002007 0.000000 0.000000 0.000000
# 2 -0.001997 0.009492 0.000025 0.000000 0.000000 0.000000
# 3 -0.002007 0.000025 0.006932 0.000000 0.000000 0.000000
# 4 0.000000 0.000000 0.000000 -0.101401 0.000000 0.000000
# 5 0.000000 0.000000 0.000000 0.000000 0.068399 0.000000
# 6 0.000000 0.000000 0.000000 0.000000 0.000000 0.021238
#
#
# Mechanical properties :
#
#
# Convention : Reuss Voigt Hill
#
# Bulk Modulus (GPa) = 37.98619 42.44520 40.21570
# Shear Modulus (GPa) = 127.37980 29.28228 78.33104
#
# Velocity S-wave (km/s) = 7.82609 3.75229 6.13707
# Velocity P-wave (km/s) = 9.99641 6.25953 8.33997
#
# Compressibility (1/GPa) = 0.02632535
#
# Stress axis : x y z
#
# Youngs Moduli (GPa) = 55.99266 105.35047 144.26027
#
# Poissons Ratio (x) = 0.21043 0.28951
# Poissons Ratio (y) = 0.11184 -0.00364
# Poissons Ratio (z) = 0.11237 -0.00266
#
# Static dielectric constant tensor:
#      x y z
#    x 1.765080 0.000000 0.000000 
#    y 0.000000 1.779140 0.000000 
#    z 0.000000 0.000000 1.525110 
# 
# From -- ./inp_files/12687.got.cif
#   From: 2010.05.17/outbox.cif.g08.bks.cpg/sg20_7_cif.got.tgz:12687.got - 2010.06.03 22:52:26.
