data_PCOD9318730
_publ_section_title
;
Structure prediction by ZEFSAII (Michael W. Deem and Ramdas Pophale) SiO2 
 PCOD9318730
Probable space group: C 2 2 21
;
_chemical_formula_sum "Si O2"
_cell_formula_units_Z 40
_cell_length_a 16.524737
_cell_length_b 30.950614
_cell_length_c 5.154097
_cell_angle_alpha 90.000000
_cell_angle_beta 90.000000
_cell_angle_gamma 90.000000
_cell_volume 2636.066809
_symmetry_space_group_name_H-M "C 2 2 21"
_symmetry_group_IT_number 20
_symmetry_cell_setting 'orthorhombic'
loop_
_space_group_symop_operation_xyz
x,y,z
-x,-y,1/2+z
x,-y,-z
-x,y,1/2-z
1/2+x,1/2+y,z
1/2-x,1/2-y,1/2+z
1/2+x,1/2-y,-z
1/2-x,1/2+y,1/2-z
loop_
_atom_site_type_symbol
_atom_site_label
_atom_site_fract_x
_atom_site_fract_y
_atom_site_fract_z
Si Si1 0.914409 0.858638 0.909802
Si Si2 0.674977 0.207402 0.826252
Si Si3 0.942162 0.046679 0.999550
Si Si4 0.269465 0.307637 0.670253
Si Si5 0.500000 0.766937 0.250000
Si Si6 0.000000 0.205086 0.750000
O O1 0.896229 0.907921 0.986856
O O2 0.842613 0.838821 0.742930
O O3 0.000000 0.857867 0.750000
O O4 0.929087 0.827370 0.157590
O O5 0.696028 0.258666 0.820235
O O6 0.730631 0.185513 0.609305
O O7 0.581463 0.205222 0.747176
O O8 0.700348 0.190739 0.108350
O O9 0.000000 0.045573 0.250000
O O10 0.000000 0.049221 0.750000
O O11 0.898305 0.000000 0.000000
O O12 0.490225 0.736163 0.502299
#
# Coordination Sequence:
#
# PCOD9318730 Si02
#       6
#     8   8   8   8   4   4
#     4  11  21  31  49  67  91 123 158 191 223 267
#     4  10  21  33  44  62  87 113 147 196 228 264
#     4   9  18  30  44  64  89 118 154 190 223 262
#     4  10  21  31  44  64  89 111 149 194 226 253
#     4  12  22  34  50  63  86 122 158 193 236 274
#     4  12  20  28  48  67  82 118 162 191 216 262
#
# _framework density 15.174124000000001
#
# number of rings (size 3 to 8) (size 9 to 14) (size 15 to 20)
#    0.000    1.600    4.000    1.200    8.400    0.000 
#    0.000    0.000    0.000    0.000    0.000    0.000 
#    0.000    0.000    0.000    3.600    0.000    3.000 
#
# Total GULP energy -111538.167051 kJ/mol
# GULP energy per Si atom -5576.908353 kJ/mol
# Density = 1.513959 g / cm^3
# Si number density = 15.174124 Si / 1000 Ang^3
#
#
#
# Elastic Constant Matrix: (Units=GPa)
#
#
# Indices 1 2 3 4 5 6 
#
# 1 54.2491 8.0589 -3.1094 0.0000 0.0000 0.0000
# 2 8.0589 64.9659 3.6804 0.0000 0.0000 0.0000
# 3 -3.1094 3.6804 74.2692 0.0000 0.0000 0.0000
# 4 0.0000 0.0000 0.0000 3.9737 0.0000 0.0000
# 5 0.0000 0.0000 0.0000 0.0000 16.5741 0.0000
# 6 0.0000 0.0000 0.0000 0.0000 0.0000 5.9746
#
#
#
# Elastic Compliance Matrix: (Units=1/GPa)
#
#
# Indices 1 2 3 4 5 6 
#
# 1 0.018840 -0.002388 0.000907 0.000000 0.000000 0.000000
# 2 -0.002388 0.015739 -0.000880 0.000000 0.000000 0.000000
# 3 0.000907 -0.000880 0.013546 0.000000 0.000000 0.000000
# 4 0.000000 0.000000 0.000000 0.251652 0.000000 0.000000
# 5 0.000000 0.000000 0.000000 0.000000 0.060335 0.000000
# 6 0.000000 0.000000 0.000000 0.000000 0.000000 0.167375
#
#
# Mechanical properties :
#
#
# Convention : Reuss Voigt Hill
#
# Bulk Modulus (GPa) = 23.04005 23.41599 23.22802
# Shear Modulus (GPa) = 9.14617 17.62813 13.38715
#
# Velocity S-wave (km/s) = 2.45776 3.41210 2.97347
# Velocity P-wave (km/s) = 4.82398 5.56671 5.20860
#
# Compressibility (1/GPa) = 0.04340268
#
# Stress axis : x y z
#
# Youngs Moduli (GPa) = 53.07777 63.53715 73.82194
#
# Poissons Ratio (x) = 0.15176 -0.06697
# Poissons Ratio (y) = 0.12678 0.06496
# Poissons Ratio (z) = -0.04815 0.05591
#
# Static dielectric constant tensor:
#      x y z
#    x 1.513050 0.000000 0.000000 
#    y 0.000000 1.512290 0.000000 
#    z 0.000000 0.000000 1.552240 
# 
# From -- ./inp_files/2796.got.cif
#   From: 2010.05.17/outbox.cif.g08.bks.cpg/sg20_2_cif.got.tgz:2796.got - 2010.06.03 22:52:26.
