data_PCOD9318276
_publ_section_title
;
Structure prediction by ZEFSAII (Michael W. Deem and Ramdas Pophale) SiO2 
 PCOD9318276
Probable space group: C 2 2 21
;
_chemical_formula_sum "Si O2"
_cell_formula_units_Z 60
_cell_length_a 26.999855
_cell_length_b 12.751918
_cell_length_c 7.324638
_cell_angle_alpha 90.000000
_cell_angle_beta 90.000000
_cell_angle_gamma 90.000000
_cell_volume 2521.872402
_symmetry_space_group_name_H-M "C 2 2 21"
_symmetry_group_IT_number 20
_symmetry_cell_setting 'orthorhombic'
loop_
_space_group_symop_operation_xyz
x,y,z
-x,-y,1/2+z
x,-y,-z
-x,y,1/2-z
1/2+x,1/2+y,z
1/2-x,1/2-y,1/2+z
1/2+x,1/2-y,-z
1/2-x,1/2+y,1/2-z
loop_
_atom_site_type_symbol
_atom_site_label
_atom_site_fract_x
_atom_site_fract_y
_atom_site_fract_z
Si Si1 0.191626 0.198676 0.259977
Si Si2 0.413559 0.231851 0.180515
Si Si3 0.912139 0.279766 0.266168
Si Si4 0.799966 0.752821 0.149743
Si Si5 0.934095 0.040840 0.706220
Si Si6 0.557209 0.002423 0.284223
Si Si7 0.000000 0.138173 0.250000
Si Si8 0.182867 0.024934 0.788063
O O1 0.139038 0.225350 0.165783
O O2 0.190554 0.268683 0.438073
O O3 0.245449 0.206559 0.174482
O O4 0.191578 0.079276 0.325217
O O5 0.354482 0.227780 0.231217
O O6 0.442162 0.336833 0.247024
O O7 0.434344 0.123897 0.263665
O O8 0.416917 0.233451 0.956857
O O9 0.913123 0.404567 0.301884
O O10 0.960624 0.219070 0.341322
O O11 0.791870 0.871538 0.217422
O O12 0.875640 0.037217 0.726881
O O13 0.944965 0.000000 0.500000
O O14 0.960666 0.949624 0.823559
O O15 0.500000 0.976921 0.250000
O O16 0.568122 0.000000 0.500000
O O17 0.194954 0.000000 0.000000
#
# Coordination Sequence:
#
# PCOD9318276 Si02
#       8
#     8   8   8   8   8   8   4   8
#     4  11  21  40  61  89 122 163 205 260 309 380
#     4   9  22  41  61  88 123 165 211 254 314 384
#     4  10  22  39  62  89 126 163 211 252 316 380
#     4  10  22  38  62  89 120 162 206 257 315 370
#     4  10  23  36  57  90 124 160 207 255 314 373
#     4  10  21  40  62  87 121 165 210 258 306 371
#     4  12  22  36  56  92 124 166 200 262 310 384
#     4  10  20  39  59  88 122 159 198 260 315 374
#
# _framework density 23.791847000000001
#
# number of rings (size 3 to 8) (size 9 to 14) (size 15 to 20)
#    0.000    1.867    2.000    1.200    2.800    2.133 
#    0.000    2.667    0.000    0.000    0.000    0.000 
#    0.000    0.000    0.000    0.000    0.000    0.000 
#
# Total GULP energy -167070.220815 kJ/mol
# GULP energy per Si atom -5569.007360 kJ/mol
# Density = 2.373770 g / cm^3
# Si number density = 23.791847 Si / 1000 Ang^3
#
#
#
# Elastic Constant Matrix: (Units=GPa)
#
#
# Indices 1 2 3 4 5 6 
#
# 1 91.2429 28.7259 11.6204 0.0000 0.0000 0.0000
# 2 28.7259 161.9960 -3.4387 0.0000 0.0000 0.0000
# 3 11.6204 -3.4387 50.4573 0.0000 0.0000 0.0000
# 4 0.0000 0.0000 0.0000 25.4787 0.0000 0.0000
# 5 0.0000 0.0000 0.0000 0.0000 18.1259 0.0000
# 6 0.0000 0.0000 0.0000 0.0000 0.0000 23.0898
#
#
#
# Elastic Compliance Matrix: (Units=1/GPa)
#
#
# Indices 1 2 3 4 5 6 
#
# 1 0.012022 -0.002194 -0.002918 0.000000 0.000000 0.000000
# 2 -0.002194 0.006582 0.000954 0.000000 0.000000 0.000000
# 3 -0.002918 0.000954 0.020556 0.000000 0.000000 0.000000
# 4 0.000000 0.000000 0.000000 0.039248 0.000000 0.000000
# 5 0.000000 0.000000 0.000000 0.000000 0.055170 0.000000
# 6 0.000000 0.000000 0.000000 0.000000 0.000000 0.043309
#
#
# Mechanical properties :
#
#
# Convention : Reuss Voigt Hill
#
# Bulk Modulus (GPa) = 32.42141 41.94572 37.18357
# Shear Modulus (GPa) = 25.57741 31.12479 28.35110
#
# Velocity S-wave (km/s) = 3.28235 3.62085 3.45575
# Velocity P-wave (km/s) = 5.29356 5.92868 5.62010
#
# Compressibility (1/GPa) = 0.03084381
#
# Stress axis : x y z
#
# Youngs Moduli (GPa) = 83.18036 151.92388 48.64800
#
# Poissons Ratio (x) = 0.33328 0.14197
# Poissons Ratio (y) = 0.18248 -0.04640
# Poissons Ratio (z) = 0.24274 -0.14491
#
# Static dielectric constant tensor:
#      x y z
#    x 1.940480 0.000000 0.000000 
#    y 0.000000 1.925660 0.000000 
#    z 0.000000 0.000000 2.162720 
# 
# From -- ./inp_files/11151.got.cif
#   From: 2010.05.17/outbox.cif.g08.bks.cpg/sg20_6_cif.got.tgz:11151.got - 2010.06.03 22:52:26.
