data_PCOD9318911
_publ_section_title
;
Structure prediction by ZEFSAII (Michael W. Deem and Ramdas Pophale) SiO2 
 PCOD9318911
Probable space group: C 2 2 21
;
_chemical_formula_sum "Si O2"
_cell_formula_units_Z 64
_cell_length_a 5.375490
_cell_length_b 19.280428
_cell_length_c 32.369104
_cell_angle_alpha 90.000000
_cell_angle_beta 90.000000
_cell_angle_gamma 90.000000
_cell_volume 3354.790517
_symmetry_space_group_name_H-M "C 2 2 21"
_symmetry_group_IT_number 20
_symmetry_cell_setting 'orthorhombic'
loop_
_space_group_symop_operation_xyz
x,y,z
-x,-y,1/2+z
x,-y,-z
-x,y,1/2-z
1/2+x,1/2+y,z
1/2-x,1/2-y,1/2+z
1/2+x,1/2-y,-z
1/2-x,1/2+y,1/2-z
loop_
_atom_site_type_symbol
_atom_site_label
_atom_site_fract_x
_atom_site_fract_y
_atom_site_fract_z
Si Si1 0.510795 0.246294 0.837040
Si Si2 0.257747 0.970301 0.954497
Si Si3 0.359773 0.678428 0.476467
Si Si4 0.954983 0.795105 0.062933
Si Si5 0.759895 0.481295 0.595573
Si Si6 0.223093 0.882595 0.362919
Si Si7 0.775024 0.174395 0.093743
Si Si8 0.995398 0.789037 0.298248
O O1 0.541230 0.167358 0.854216
O O2 0.488647 0.298074 0.875459
O O3 0.259819 0.247895 0.810822
O O4 0.761926 0.255996 0.810922
O O5 0.294453 0.887239 0.960236
O O6 0.509340 0.999822 0.934480
O O7 0.010273 0.982505 0.926978
O O8 0.213658 0.000000 0.000000
O O9 0.374839 0.677786 0.525693
O O10 0.621522 0.668493 0.452986
O O11 0.256305 0.751790 0.461024
O O12 0.081199 0.737250 0.092100
O O13 0.870556 0.856281 0.092409
O O14 0.762876 0.536344 0.632569
O O15 0.804602 0.401326 0.608140
O O16 0.036713 0.857175 0.326955
O O17 0.000000 0.805154 0.250000
#
# Coordination Sequence:
#
# PCOD9318911 Si02
#       8
#     8   8   8   8   8   8   8   8
#     4  10  21  37  66  89 123 151 197 243 302 360
#     4  11  24  40  54  79 120 167 208 258 303 352
#     4  11  22  33  55  82 114 170 210 260 297 344
#     4  12  20  36  56  84 118 159 218 258 295 353
#     4  11  25  38  61  84 122 158 207 244 313 350
#     4  10  24  37  63  94 116 161 202 256 298 367
#     4  11  21  39  56  86 124 162 205 253 302 360
#     4  10  21  39  66  96 123 149 194 246 308 373
#
# _framework density 19.077195
#
# number of rings (size 3 to 8) (size 9 to 14) (size 15 to 20)
#    0.750    0.500    5.000    1.500    1.750    3.000 
#    0.000    0.000    0.000    1.500    0.000    0.000 
#    0.000    0.000    0.000    0.000    0.000    0.000 
#
# Total GULP energy -178407.796608 kJ/mol
# GULP energy per Si atom -5575.243644 kJ/mol
# Density = 1.903377 g / cm^3
# Si number density = 19.077195 Si / 1000 Ang^3
#
#
#
# Elastic Constant Matrix: (Units=GPa)
#
#
# Indices 1 2 3 4 5 6 
#
# 1 84.7995 4.4495 22.3735 0.0000 0.0000 0.0000
# 2 4.4495 62.8225 7.7011 0.0000 0.0000 0.0000
# 3 22.3735 7.7011 86.6552 0.0000 0.0000 0.0000
# 4 0.0000 0.0000 0.0000 15.0348 0.0000 0.0000
# 5 0.0000 0.0000 0.0000 0.0000 21.8441 0.0000
# 6 0.0000 0.0000 0.0000 0.0000 0.0000 15.5338
#
#
#
# Elastic Compliance Matrix: (Units=1/GPa)
#
#
# Indices 1 2 3 4 5 6 
#
# 1 0.012670 -0.000502 -0.003227 0.000000 0.000000 0.000000
# 2 -0.000502 0.016113 -0.001302 0.000000 0.000000 0.000000
# 3 -0.003227 -0.001302 0.012489 0.000000 0.000000 0.000000
# 4 0.000000 0.000000 0.000000 0.066512 0.000000 0.000000
# 5 0.000000 0.000000 0.000000 0.000000 0.045779 0.000000
# 6 0.000000 0.000000 0.000000 0.000000 0.000000 0.064376
#
#
# Mechanical properties :
#
#
# Convention : Reuss Voigt Hill
#
# Bulk Modulus (GPa) = 32.04086 33.70284 32.87185
# Shear Modulus (GPa) = 20.97279 23.79943 22.38611
#
# Velocity S-wave (km/s) = 3.31926 3.53588 3.42928
# Velocity P-wave (km/s) = 5.61443 5.86300 5.74006
#
# Compressibility (1/GPa) = 0.03121015
#
# Stress axis : x y z
#
# Youngs Moduli (GPa) = 78.92543 62.06146 80.07144
#
# Poissons Ratio (x) = 0.03114 0.25837
# Poissons Ratio (y) = 0.03961 0.10429
# Poissons Ratio (z) = 0.25467 0.08083
#
# Static dielectric constant tensor:
#      x y z
#    x 1.741270 0.000000 0.000000 
#    y 0.000000 1.683140 0.000000 
#    z 0.000000 0.000000 1.648380 
# 
# From -- ./inp_files/30845.got.cif
#   From: 2010.05.17/outbox.cif.g08.bks.cpg/sg20_16_cif.got.tgz:30845.got - 2010.06.03 22:52:26.
