data_PCOD9318334
_publ_section_title
;
Structure prediction by ZEFSAII (Michael W. Deem and Ramdas Pophale) SiO2 
 PCOD9318334
Probable space group: C 2 2 21
;
_chemical_formula_sum "Si O2"
_cell_formula_units_Z 52
_cell_length_a 4.935420
_cell_length_b 18.862832
_cell_length_c 26.698437
_cell_angle_alpha 90.000000
_cell_angle_beta 90.000000
_cell_angle_gamma 90.000000
_cell_volume 2485.517646
_symmetry_space_group_name_H-M "C 2 2 21"
_symmetry_group_IT_number 20
_symmetry_cell_setting 'orthorhombic'
loop_
_space_group_symop_operation_xyz
x,y,z
-x,-y,1/2+z
x,-y,-z
-x,y,1/2-z
1/2+x,1/2+y,z
1/2-x,1/2-y,1/2+z
1/2+x,1/2-y,-z
1/2-x,1/2+y,1/2-z
loop_
_atom_site_type_symbol
_atom_site_label
_atom_site_fract_x
_atom_site_fract_y
_atom_site_fract_z
Si Si1 0.701289 0.344453 0.554706
Si Si2 0.946955 0.310353 0.695330
Si Si3 0.076879 0.018794 0.405328
Si Si4 0.196528 0.736622 0.406368
Si Si5 0.306728 0.883831 0.449410
Si Si6 0.939400 0.090002 0.304629
Si Si7 0.694264 0.000000 0.500000
O O1 0.788275 0.418446 0.580865
O O2 0.437423 0.319239 0.584765
O O3 0.630062 0.358491 0.497024
O O4 0.946761 0.288693 0.558346
O O5 0.055877 0.265695 0.648266
O O6 0.138423 0.379513 0.694854
O O7 0.000000 0.276576 0.750000
O O8 0.644464 0.341920 0.691028
O O9 0.185059 0.939839 0.410724
O O10 0.871656 0.023121 0.452253
O O11 0.974696 0.037322 0.350642
O O12 0.340111 0.810656 0.420103
O O13 0.527763 0.932719 0.478133
O O14 0.000000 0.058387 0.250000
#
# Coordination Sequence:
#
# PCOD9318334 Si02
#       7
#     8   8   8   8   8   8   4
#     4  12  23  43  63  92 131 171 219 268 316 395
#     4  10  20  39  65  96 127 161 215 276 330 380
#     4  12  23  40  68  94 133 179 217 271 331 401
#     4  12  25  41  66  96 129 169 224 271 327 389
#     4  12  27  40  61  97 136 178 213 271 332 400
#     4  10  22  40  67  98 124 166 225 276 322 388
#     4  12  24  42  64  92 146 178 220 254 346 408
#
# _framework density 20.921192999999999
#
# number of rings (size 3 to 8) (size 9 to 14) (size 15 to 20)
#    0.000    0.615    6.154    1.846    4.308    0.000 
#    0.000    0.769    0.000    0.000    4.000    0.000 
#    0.000    0.000    0.000    0.000    0.000    0.000 
#
# Total GULP energy -145037.330740 kJ/mol
# GULP energy per Si atom -5578.358875 kJ/mol
# Density = 2.087358 g / cm^3
# Si number density = 20.921193 Si / 1000 Ang^3
#
#
#
# Elastic Constant Matrix: (Units=GPa)
#
#
# Indices 1 2 3 4 5 6 
#
# 1 62.0922 9.8838 -9.3266 0.0000 0.0000 0.0000
# 2 9.8838 100.3589 34.7302 0.0000 0.0000 0.0000
# 3 -9.3266 34.7302 127.2931 0.0000 0.0000 0.0000
# 4 0.0000 0.0000 0.0000 22.4077 0.0000 0.0000
# 5 0.0000 0.0000 0.0000 0.0000 13.1460 0.0000
# 6 0.0000 0.0000 0.0000 0.0000 0.0000 13.5843
#
#
#
# Elastic Compliance Matrix: (Units=1/GPa)
#
#
# Indices 1 2 3 4 5 6 
#
# 1 0.016748 -0.002290 0.001852 0.000000 0.000000 0.000000
# 2 -0.002290 0.011316 -0.003255 0.000000 0.000000 0.000000
# 3 0.001852 -0.003255 0.008880 0.000000 0.000000 0.000000
# 4 0.000000 0.000000 0.000000 0.044627 0.000000 0.000000
# 5 0.000000 0.000000 0.000000 0.000000 0.076069 0.000000
# 6 0.000000 0.000000 0.000000 0.000000 0.000000 0.073614
#
#
# Mechanical properties :
#
#
# Convention : Reuss Voigt Hill
#
# Bulk Modulus (GPa) = 33.83336 40.03544 36.93440
# Shear Modulus (GPa) = 20.12119 26.79138 23.45628
#
# Velocity S-wave (km/s) = 3.10459 3.58241 3.35203
# Velocity P-wave (km/s) = 5.39057 6.02407 5.71610
#
# Compressibility (1/GPa) = 0.02955663
#
# Stress axis : x y z
#
# Youngs Moduli (GPa) = 59.70923 88.36783 112.61585
#
# Poissons Ratio (x) = 0.20239 -0.20856
# Poissons Ratio (y) = 0.13675 0.36660
# Poissons Ratio (z) = -0.11058 0.28767
#
# Static dielectric constant tensor:
#      x y z
#    x 1.818970 0.000000 0.000000 
#    y 0.000000 1.776050 0.000000 
#    z 0.000000 0.000000 1.811730 
# 
# From -- ./inp_files/29892.got.cif
#   From: 2010.05.17/outbox.cif.g08.bks.cpg/sg20_15_cif.got.tgz:29892.got - 2010.06.03 22:52:26.
