data_PCOD9318603
_publ_section_title
;
Structure prediction by ZEFSAII (Michael W. Deem and Ramdas Pophale) SiO2 
 PCOD9318603
Probable space group: C 2 2 21
;
_chemical_formula_sum "Si O2"
_cell_formula_units_Z 48
_cell_length_a 23.299148
_cell_length_b 19.199203
_cell_length_c 5.084640
_cell_angle_alpha 90.000000
_cell_angle_beta 90.000000
_cell_angle_gamma 90.000000
_cell_volume 2274.486955
_symmetry_space_group_name_H-M "C 2 2 21"
_symmetry_group_IT_number 20
_symmetry_cell_setting 'orthorhombic'
loop_
_space_group_symop_operation_xyz
x,y,z
-x,-y,1/2+z
x,-y,-z
-x,y,1/2-z
1/2+x,1/2+y,z
1/2-x,1/2-y,1/2+z
1/2+x,1/2-y,-z
1/2-x,1/2+y,1/2-z
loop_
_atom_site_type_symbol
_atom_site_label
_atom_site_fract_x
_atom_site_fract_y
_atom_site_fract_z
Si Si1 0.209775 0.643662 0.991545
Si Si2 0.500000 0.545675 0.750000
Si Si3 0.383794 0.581995 0.501874
Si Si4 0.343414 0.659380 0.999523
Si Si5 0.357047 0.185412 0.026830
Si Si6 0.942227 0.428983 0.129375
Si Si7 0.346285 0.000000 0.500000
O O1 0.171011 0.688174 0.187361
O O2 0.275181 0.662820 0.044276
O O3 0.188238 0.658105 0.694258
O O4 0.195129 0.563838 0.077747
O O5 0.522563 0.500000 0.500000
O O6 0.448485 0.586783 0.614196
O O7 0.369306 0.500000 0.500000
O O8 0.348405 0.626726 0.710295
O O9 0.373148 0.609966 0.212112
O O10 0.371403 0.735113 0.035559
O O11 0.409563 0.130669 0.032903
O O12 0.890855 0.461444 0.305628
O O13 0.000000 0.396968 0.250000
O O14 0.964945 0.500000 0.000000
#
# Coordination Sequence:
#
# PCOD9318603 Si02
#       7
#     8   4   8   8   8   8   4
#     4  11  23  40  65  93 133 179 217 268 325 404
#     4  10  20  42  68  88 122 170 208 266 332 394
#     4  11  24  42  67  98 128 167 224 271 331 396
#     4  12  24  42  66  99 138 173 215 277 332 397
#     4  11  24  43  64  94 135 177 224 258 340 405
#     4  11  21  40  65  93 124 175 222 280 327 387
#     4  10  22  36  62  94 128 166 228 272 326 384
#
# _framework density 21.103657999999999
#
# number of rings (size 3 to 8) (size 9 to 14) (size 15 to 20)
#    0.000    1.000    2.500    5.500    2.333    0.000 
#    3.000    0.000    0.000    0.000    0.000    0.000 
#    0.000    0.000    0.000    0.000    0.000    0.000 
#
# Total GULP energy -133900.592485 kJ/mol
# GULP energy per Si atom -5579.191354 kJ/mol
# Density = 2.105562 g / cm^3
# Si number density = 21.103658 Si / 1000 Ang^3
#
#
#
# Elastic Constant Matrix: (Units=GPa)
#
#
# Indices 1 2 3 4 5 6 
#
# 1 57.6875 5.7111 1.6896 0.0000 0.0000 0.0000
# 2 5.7111 103.7290 -8.5220 0.0000 0.0000 0.0000
# 3 1.6896 -8.5220 49.7722 0.0000 0.0000 0.0000
# 4 0.0000 0.0000 0.0000 -8.1742 0.0000 0.0000
# 5 0.0000 0.0000 0.0000 0.0000 28.0293 0.0000
# 6 0.0000 0.0000 0.0000 0.0000 0.0000 4.3342
#
#
#
# Elastic Compliance Matrix: (Units=1/GPa)
#
#
# Indices 1 2 3 4 5 6 
#
# 1 0.017459 -0.001024 -0.000768 0.000000 0.000000 0.000000
# 2 -0.001024 0.009838 0.001719 0.000000 0.000000 0.000000
# 3 -0.000768 0.001719 0.020412 0.000000 0.000000 0.000000
# 4 0.000000 0.000000 0.000000 -0.122336 0.000000 0.000000
# 5 0.000000 0.000000 0.000000 0.000000 0.035677 0.000000
# 6 0.000000 0.000000 0.000000 0.000000 0.000000 0.230725
#
#
# Mechanical properties :
#
#
# Convention : Reuss Voigt Hill
#
# Bulk Modulus (GPa) = 21.02492 23.21621 22.12056
# Shear Modulus (GPa) = 24.06454 18.99185 21.52820
#
# Velocity S-wave (km/s) = 3.38050 3.00314 3.19739
# Velocity P-wave (km/s) = 5.02209 4.80105 4.91281
#
# Compressibility (1/GPa) = 0.04756262
#
# Stress axis : x y z
#
# Youngs Moduli (GPa) = 57.27806 101.64505 48.99084
#
# Poissons Ratio (x) = 0.10412 0.03763
# Poissons Ratio (y) = 0.05867 -0.08423
# Poissons Ratio (z) = 0.04399 -0.17476
#
# Static dielectric constant tensor:
#      x y z
#    x 1.789290 0.000000 0.000000 
#    y 0.000000 1.799890 0.000000 
#    z 0.000000 0.000000 1.835560 
# 
# From -- ./inp_files/3771.got.cif
#   From: 2010.05.17/outbox.cif.g08.bks.cpg/sg20_2_cif.got.tgz:3771.got - 2010.06.03 22:52:26.
