data_PCOD9318583
_publ_section_title
;
Structure prediction by ZEFSAII (Michael W. Deem and Ramdas Pophale) SiO2 
 PCOD9318583
Probable space group: C 2 2 21
;
_chemical_formula_sum "Si O2"
_cell_formula_units_Z 48
_cell_length_a 9.310504
_cell_length_b 15.660340
_cell_length_c 14.137072
_cell_angle_alpha 90.000000
_cell_angle_beta 90.000000
_cell_angle_gamma 90.000000
_cell_volume 2061.265088
_symmetry_space_group_name_H-M "C 2 2 21"
_symmetry_group_IT_number 20
_symmetry_cell_setting 'orthorhombic'
loop_
_space_group_symop_operation_xyz
x,y,z
-x,-y,1/2+z
x,-y,-z
-x,y,1/2-z
1/2+x,1/2+y,z
1/2-x,1/2-y,1/2+z
1/2+x,1/2-y,-z
1/2-x,1/2+y,1/2-z
loop_
_atom_site_type_symbol
_atom_site_label
_atom_site_fract_x
_atom_site_fract_y
_atom_site_fract_z
Si Si1 0.181854 0.290936 0.128590
Si Si2 0.149012 0.429198 0.576782
Si Si3 0.474504 0.252538 0.024081
Si Si4 0.650663 0.679941 0.805497
Si Si5 0.129492 0.512983 0.887776
Si Si6 0.835916 0.981463 0.726141
O O1 0.327582 0.297484 0.061851
O O2 0.237653 0.272953 0.235354
O O3 0.125607 0.387461 0.133202
O O4 0.053490 0.239481 0.077111
O O5 0.188589 0.500000 0.500000
O O6 0.279248 0.416783 0.647381
O O7 0.080280 0.344935 0.533418
O O8 0.021399 0.470856 0.636821
O O9 0.604707 0.276651 0.096360
O O10 0.500000 0.680859 0.750000
O O11 0.689049 0.579195 0.812833
O O12 0.250788 0.472536 0.823488
O O13 0.151860 0.500000 0.000000
O O14 0.000000 0.972002 0.750000
#
# Coordination Sequence:
#
# PCOD9318583 Si02
#       6
#     8   8   8   8   8   8
#     4  10  21  40  62  93 129 168 218 263 337 389
#     4  11  23  41  67 100 126 175 227 270 330 396
#     4  11  22  41  67  93 132 170 221 278 324 397
#     4   8  19  38  63  88 124 176 210 259 335 392
#     4  10  20  42  65  88 127 177 216 263 331 397
#     4  10  22  40  64  96 131 170 215 275 334 390
#
# _framework density 23.286670000000001
#
# number of rings (size 3 to 8) (size 9 to 14) (size 15 to 20)
#    0.000    2.000    3.333    1.500    2.333    4.667 
#    3.000    0.833    0.000    8.000    0.000    0.000 
#    0.000    0.000    0.000    0.000    0.000    0.000 
#
# Total GULP energy -133942.573298 kJ/mol
# GULP energy per Si atom -5580.940554 kJ/mol
# Density = 2.323367 g / cm^3
# Si number density = 23.286670 Si / 1000 Ang^3
#
#
#
# Elastic Constant Matrix: (Units=GPa)
#
#
# Indices 1 2 3 4 5 6 
#
# 1 101.6492 18.2761 33.7865 0.0000 0.0000 0.0000
# 2 18.2761 54.2781 9.1111 0.0000 0.0000 0.0000
# 3 33.7865 9.1111 67.6484 0.0000 0.0000 0.0000
# 4 0.0000 0.0000 0.0000 10.0815 0.0000 0.0000
# 5 0.0000 0.0000 0.0000 0.0000 27.6947 0.0000
# 6 0.0000 0.0000 0.0000 0.0000 0.0000 11.6950
#
#
#
# Elastic Compliance Matrix: (Units=1/GPa)
#
#
# Indices 1 2 3 4 5 6 
#
# 1 0.012312 -0.003185 -0.005720 0.000000 0.000000 0.000000
# 2 -0.003185 0.019674 -0.001059 0.000000 0.000000 0.000000
# 3 -0.005720 -0.001059 0.017782 0.000000 0.000000 0.000000
# 4 0.000000 0.000000 0.000000 0.099191 0.000000 0.000000
# 5 0.000000 0.000000 0.000000 0.000000 0.036108 0.000000
# 6 0.000000 0.000000 0.000000 0.000000 0.000000 0.085507
#
#
# Mechanical properties :
#
#
# Convention : Reuss Voigt Hill
#
# Bulk Modulus (GPa) = 33.51320 38.43590 35.97455
# Shear Modulus (GPa) = 16.64181 20.72104 18.68143
#
# Velocity S-wave (km/s) = 2.67619 2.98623 2.83545
# Velocity P-wave (km/s) = 4.89614 5.33211 5.11877
#
# Compressibility (1/GPa) = 0.02983899
#
# Stress axis : x y z
#
# Youngs Moduli (GPa) = 81.22369 50.82870 56.23758
#
# Poissons Ratio (x) = 0.16191 0.32168
# Poissons Ratio (y) = 0.25872 0.05955
# Poissons Ratio (z) = 0.46460 0.05382
#
# Static dielectric constant tensor:
#      x y z
#    x 1.873970 0.000000 0.000000 
#    y 0.000000 1.905400 0.000000 
#    z 0.000000 0.000000 1.913740 
# 
# From -- ./inp_files/18887.got.cif
#   From: 2010.05.17/outbox.cif.g08.bks.cpg/sg20_10_cif.got.tgz:18887.got - 2010.06.03 22:52:26.
