data_PCOD9318009
_publ_section_title
;
Structure prediction by ZEFSAII (Michael W. Deem and Ramdas Pophale) SiO2 
 PCOD9318009
Probable space group: C 2 2 21
;
_chemical_formula_sum "Si O2"
_cell_formula_units_Z 40
_cell_length_a 24.623714
_cell_length_b 5.295887
_cell_length_c 12.700266
_cell_angle_alpha 90.000000
_cell_angle_beta 90.000000
_cell_angle_gamma 90.000000
_cell_volume 1656.170655
_symmetry_space_group_name_H-M "C 2 2 21"
_symmetry_group_IT_number 20
_symmetry_cell_setting 'orthorhombic'
loop_
_space_group_symop_operation_xyz
x,y,z
-x,-y,1/2+z
x,-y,-z
-x,y,1/2-z
1/2+x,1/2+y,z
1/2-x,1/2-y,1/2+z
1/2+x,1/2-y,-z
1/2-x,1/2+y,1/2-z
loop_
_atom_site_type_symbol
_atom_site_label
_atom_site_fract_x
_atom_site_fract_y
_atom_site_fract_z
Si Si1 0.855876 0.071257 0.616231
Si Si2 0.422494 0.940175 0.844652
Si Si3 0.742976 0.147631 0.183464
Si Si4 0.545947 0.874655 0.891350
Si Si5 0.143487 0.077194 0.346787
O O1 0.817559 0.314543 0.639385
O O2 0.920496 0.116391 0.612224
O O3 0.849018 0.899851 0.719239
O O4 0.837721 0.000000 0.500000
O O5 0.394214 0.194754 0.885714
O O6 0.481102 0.868708 0.891498
O O7 0.435798 0.990077 0.720647
O O8 0.383909 0.696967 0.858562
O O9 0.756944 0.420938 0.233227
O O10 0.795148 0.090496 0.111323
O O11 0.564613 0.000000 0.000000
#
# Coordination Sequence:
#
# PCOD9318009 Si02
#       5
#     8   8   8   8   8
#     4  10  21  36  61  93 120 151 197 252 302 348
#     4  10  22  38  62  87 115 159 200 240 298 356
#     4  10  20  37  61  87 118 155 192 237 295 355
#     4  10  21  37  59  88 121 153 197 250 298 351
#     4  10  20  39  60  84 118 156 197 239 291 356
#
# _framework density 24.152099
#
# number of rings (size 3 to 8) (size 9 to 14) (size 15 to 20)
#    0.000    2.000    0.000    4.800    0.000    9.600 
#    0.000    1.000    0.000    9.600    0.000    0.000 
#    0.000    0.000    0.000    0.000    0.000    0.000 
#
# Total GULP energy -111548.900615 kJ/mol
# GULP energy per Si atom -5577.445031 kJ/mol
# Density = 2.409713 g / cm^3
# Si number density = 24.152099 Si / 1000 Ang^3
#
#
#
# Elastic Constant Matrix: (Units=GPa)
#
#
# Indices 1 2 3 4 5 6 
#
# 1 171.1323 49.2637 16.0775 0.0000 0.0000 0.0000
# 2 49.2637 97.8113 29.6356 0.0000 0.0000 0.0000
# 3 16.0775 29.6356 80.4713 0.0000 0.0000 0.0000
# 4 0.0000 0.0000 0.0000 12.2340 0.0000 0.0000
# 5 0.0000 0.0000 0.0000 0.0000 -3.2727 0.0000
# 6 0.0000 0.0000 0.0000 0.0000 0.0000 24.8148
#
#
#
# Elastic Compliance Matrix: (Units=1/GPa)
#
#
# Indices 1 2 3 4 5 6 
#
# 1 0.006835 -0.003409 -0.000110 0.000000 0.000000 0.000000
# 2 -0.003409 0.013208 -0.004183 0.000000 0.000000 0.000000
# 3 -0.000110 -0.004183 0.013989 0.000000 0.000000 0.000000
# 4 0.000000 0.000000 0.000000 0.081739 0.000000 0.000000
# 5 0.000000 0.000000 0.000000 0.000000 -0.305562 0.000000
# 6 0.000000 0.000000 0.000000 0.000000 0.000000 0.040298
#
#
# Mechanical properties :
#
#
# Convention : Reuss Voigt Hill
#
# Bulk Modulus (GPa) = 53.68300 59.92983 56.80642
# Shear Modulus (GPa) = -39.10003 23.71779 -7.69112
#
# Velocity S-wave (km/s) = -4.02793 3.13712 -1.78644
# Velocity P-wave (km/s) = 0.80187 6.16355 4.39502
#
# Compressibility (1/GPa) = 0.01862787
#
# Stress axis : x y z
#
# Youngs Moduli (GPa) = 146.30158 75.70982 71.48301
#
# Poissons Ratio (x) = 0.25812 0.00787
# Poissons Ratio (y) = 0.49878 0.29903
# Poissons Ratio (z) = 0.01610 0.31671
#
# Static dielectric constant tensor:
#      x y z
#    x 1.943390 0.000000 0.000000 
#    y 0.000000 1.930890 0.000000 
#    z 0.000000 0.000000 2.121000 
# 
# From -- ./inp_files/21916.got.cif
#   From: 2010.05.17/outbox.cif.g08.bks.cpg/sg20_11_cif.got.tgz:21916.got - 2010.06.03 22:52:26.
