data_PCOD9318626
_publ_section_title
;
Structure prediction by ZEFSAII (Michael W. Deem and Ramdas Pophale) SiO2 
 PCOD9318626
Probable space group: C 2 2 21
;
_chemical_formula_sum "Si O2"
_cell_formula_units_Z 48
_cell_length_a 14.776471
_cell_length_b 24.414495
_cell_length_c 6.838991
_cell_angle_alpha 90.000000
_cell_angle_beta 90.000000
_cell_angle_gamma 90.000000
_cell_volume 2467.234922
_symmetry_space_group_name_H-M "C 2 2 21"
_symmetry_group_IT_number 20
_symmetry_cell_setting 'orthorhombic'
loop_
_space_group_symop_operation_xyz
x,y,z
-x,-y,1/2+z
x,-y,-z
-x,y,1/2-z
1/2+x,1/2+y,z
1/2-x,1/2-y,1/2+z
1/2+x,1/2-y,-z
1/2-x,1/2+y,1/2-z
loop_
_atom_site_type_symbol
_atom_site_label
_atom_site_fract_x
_atom_site_fract_y
_atom_site_fract_z
Si Si1 0.394538 0.645296 0.773986
Si Si2 0.155788 0.406270 0.700706
Si Si3 0.000000 0.678530 0.250000
Si Si4 0.802674 0.178609 0.155038
Si Si5 0.178278 0.500000 0.000000
Si Si6 0.227753 0.951454 0.126663
Si Si7 0.865059 0.249720 0.513968
O O1 0.500000 0.635564 0.750000
O O2 0.337470 0.598698 0.667418
O O3 0.367150 0.702101 0.673826
O O4 0.369919 0.652381 0.999818
O O5 0.078162 0.361543 0.672943
O O6 0.245981 0.371494 0.752571
O O7 0.132115 0.450551 0.872485
O O8 0.183786 0.435578 0.500478
O O9 0.953004 0.714213 0.423310
O O10 0.854148 0.218330 0.307747
O O11 0.724477 0.213778 0.045927
O O12 0.239372 0.528005 0.835858
O O13 0.183378 0.000000 0.000000
#
# Coordination Sequence:
#
# PCOD9318626 Si02
#       7
#     8   8   4   8   4   8   8
#     4  12  24  42  62  98 133 165 223 271 321 400
#     4  10  21  42  68  93 131 173 227 268 334 391
#     4  10  24  44  62 106 138 168 224 282 320 406
#     4  11  22  40  68  89 130 186 208 265 333 395
#     4  10  20  42  70  94 126 178 222 272 330 408
#     4  10  22  43  68  93 126 176 220 268 336 396
#     4  11  22  41  65  96 135 173 222 258 328 407
#
# _framework density 19.454978000000001
#
# number of rings (size 3 to 8) (size 9 to 14) (size 15 to 20)
#    0.000    1.333    5.833    0.000    0.000    0.667 
#    6.000    1.667    0.000    0.000    0.000    0.000 
#    0.000    0.000    0.000    0.000    0.000    0.000 
#
# Total GULP energy -133849.216835 kJ/mol
# GULP energy per Si atom -5577.050701 kJ/mol
# Density = 1.941070 g / cm^3
# Si number density = 19.454978 Si / 1000 Ang^3
#
#
#
# Elastic Constant Matrix: (Units=GPa)
#
#
# Indices 1 2 3 4 5 6 
#
# 1 87.7004 33.6378 51.9051 0.0000 0.0000 0.0000
# 2 33.6378 101.4530 37.4177 0.0000 0.0000 0.0000
# 3 51.9051 37.4177 116.7723 0.0000 0.0000 0.0000
# 4 0.0000 0.0000 0.0000 44.9533 0.0000 0.0000
# 5 0.0000 0.0000 0.0000 0.0000 15.9816 0.0000
# 6 0.0000 0.0000 0.0000 0.0000 0.0000 35.6066
#
#
#
# Elastic Compliance Matrix: (Units=1/GPa)
#
#
# Indices 1 2 3 4 5 6 
#
# 1 0.016288 -0.003096 -0.006248 0.000000 0.000000 0.000000
# 2 -0.003096 0.011766 -0.002394 0.000000 0.000000 0.000000
# 3 -0.006248 -0.002394 0.012108 0.000000 0.000000 0.000000
# 4 0.000000 0.000000 0.000000 0.022245 0.000000 0.000000
# 5 0.000000 0.000000 0.000000 0.000000 0.062572 0.000000
# 6 0.000000 0.000000 0.000000 0.000000 0.000000 0.028085
#
#
# Mechanical properties :
#
#
# Convention : Reuss Voigt Hill
#
# Bulk Modulus (GPa) = 59.93032 61.31632 60.62332
# Shear Modulus (GPa) = 27.45717 31.50597 29.48157
#
# Velocity S-wave (km/s) = 3.76083 4.02858 3.89700
# Velocity P-wave (km/s) = 7.05194 7.29553 7.17477
#
# Compressibility (1/GPa) = 0.01668605
#
# Stress axis : x y z
#
# Youngs Moduli (GPa) = 61.39610 84.98845 82.59033
#
# Poissons Ratio (x) = 0.26313 0.51601
# Poissons Ratio (y) = 0.19009 0.19773
# Poissons Ratio (z) = 0.38359 0.20347
#
# Static dielectric constant tensor:
#      x y z
#    x 1.669990 0.000000 0.000000 
#    y 0.000000 1.735820 0.000000 
#    z 0.000000 0.000000 1.670010 
# 
# From -- ./inp_files/2050.got.cif
#   From: 2010.05.17/outbox.cif.g08.bks.cpg/sg20_2_cif.got.tgz:2050.got - 2010.06.03 22:52:26.
