data_PCOD9318981
_publ_section_title
;
Structure prediction by ZEFSAII (Michael W. Deem and Ramdas Pophale) SiO2 
 PCOD9318981
Probable space group: C 2 2 21
;
_chemical_formula_sum "Si O2"
_cell_formula_units_Z 40
_cell_length_a 17.513350
_cell_length_b 5.366500
_cell_length_c 16.201947
_cell_angle_alpha 90.000000
_cell_angle_beta 90.000000
_cell_angle_gamma 90.000000
_cell_volume 1522.746353
_symmetry_space_group_name_H-M "C 2 2 21"
_symmetry_group_IT_number 20
_symmetry_cell_setting 'orthorhombic'
loop_
_space_group_symop_operation_xyz
x,y,z
-x,-y,1/2+z
x,-y,-z
-x,y,1/2-z
1/2+x,1/2+y,z
1/2-x,1/2-y,1/2+z
1/2+x,1/2-y,-z
1/2-x,1/2+y,1/2-z
loop_
_atom_site_type_symbol
_atom_site_label
_atom_site_fract_x
_atom_site_fract_y
_atom_site_fract_z
Si Si1 0.294558 0.748145 0.524188
Si Si2 0.722814 0.591604 0.791428
Si Si3 0.872075 0.251092 0.954217
Si Si4 0.493987 0.935991 0.848221
Si Si5 0.554758 0.448171 0.830147
O O1 0.338115 0.500000 0.500000
O O2 0.263304 0.706508 0.616632
O O3 0.219405 0.756110 0.463476
O O4 0.335333 0.000000 0.500000
O O5 0.772698 0.350895 0.761529
O O6 0.640838 0.452249 0.797243
O O7 0.911662 0.314254 0.868323
O O8 0.898249 0.500000 0.000000
O O9 0.898017 0.000000 0.000000
O O10 0.500000 0.965336 0.750000
O O11 0.548223 0.711853 0.876548
O O12 0.523555 0.205430 0.877164
O O13 0.500000 0.468583 0.750000
#
# Coordination Sequence:
#
# PCOD9318981 Si02
#       5
#     8   8   8   8   8
#     4  10  23  42  68 103 146 192 246 311 380 453
#     4  12  26  46  75 110 149 197 254 316 381 458
#     4  10  21  38  64 101 136 181 237 298 365 441
#     4  10  21  39  65  99 141 187 240 299 362 441
#     4  10  23  41  66 103 143 183 237 304 368 437
#
# _framework density 26.268325000000001
#
# number of rings (size 3 to 8) (size 9 to 14) (size 15 to 20)
#    0.000    1.600    0.000    3.600    0.000   19.200 
#    0.000    4.000    0.000    0.000    0.000    0.000 
#    0.000    0.000    0.000    0.000    0.000    0.000 
#
# Total GULP energy -111523.174075 kJ/mol
# GULP energy per Si atom -5576.158704 kJ/mol
# Density = 2.620854 g / cm^3
# Si number density = 26.268325 Si / 1000 Ang^3
#
#
#
# Elastic Constant Matrix: (Units=GPa)
#
#
# Indices 1 2 3 4 5 6 
#
# 1 86.1972 18.4477 24.7262 0.0000 0.0000 0.0000
# 2 18.4477 300.5617 34.2647 0.0000 0.0000 0.0000
# 3 24.7262 34.2647 86.1487 0.0000 0.0000 0.0000
# 4 0.0000 0.0000 0.0000 38.6888 0.0000 0.0000
# 5 0.0000 0.0000 0.0000 0.0000 39.3176 0.0000
# 6 0.0000 0.0000 0.0000 0.0000 0.0000 31.1344
#
#
#
# Elastic Compliance Matrix: (Units=1/GPa)
#
#
# Indices 1 2 3 4 5 6 
#
# 1 0.012684 -0.000381 -0.003489 0.000000 0.000000 0.000000
# 2 -0.000381 0.003497 -0.001281 0.000000 0.000000 0.000000
# 3 -0.003489 -0.001281 0.013119 0.000000 0.000000 0.000000
# 4 0.000000 0.000000 0.000000 0.025847 0.000000 0.000000
# 5 0.000000 0.000000 0.000000 0.000000 0.025434 0.000000
# 6 0.000000 0.000000 0.000000 0.000000 0.000000 0.032119
#
#
# Mechanical properties :
#
#
# Convention : Reuss Voigt Hill
#
# Bulk Modulus (GPa) = 52.64052 69.75387 61.19719
# Shear Modulus (GPa) = 38.65969 48.19275 43.42622
#
# Velocity S-wave (km/s) = 3.84047 4.28791 4.07034
# Velocity P-wave (km/s) = 6.30465 7.15031 6.74075
#
# Compressibility (1/GPa) = 0.01899677
#
# Stress axis : x y z
#
# Youngs Moduli (GPa) = 78.84181 285.99535 76.22577
#
# Poissons Ratio (x) = 0.10889 0.26595
# Poissons Ratio (y) = 0.03002 0.09768
# Poissons Ratio (z) = 0.27508 0.36649
#
# Static dielectric constant tensor:
#      x y z
#    x 2.198120 0.000000 0.000000 
#    y 0.000000 2.191300 0.000000 
#    z 0.000000 0.000000 1.996170 
# 
# From -- ./inp_files/25084.got.cif
#   From: 2010.05.17/outbox.cif.g08.bks.cpg/sg20_13_cif.got.tgz:25084.got - 2010.06.03 22:52:26.
