data_PCOD9318339
_publ_section_title
;
Structure prediction by ZEFSAII (Michael W. Deem and Ramdas Pophale) SiO2 
 PCOD9318339
Probable space group: C 2 2 21
;
_chemical_formula_sum "Si O2"
_cell_formula_units_Z 64
_cell_length_a 9.105849
_cell_length_b 18.424913
_cell_length_c 16.744148
_cell_angle_alpha 90.000000
_cell_angle_beta 90.000000
_cell_angle_gamma 90.000000
_cell_volume 2809.240650
_symmetry_space_group_name_H-M "C 2 2 21"
_symmetry_group_IT_number 20
_symmetry_cell_setting 'orthorhombic'
loop_
_space_group_symop_operation_xyz
x,y,z
-x,-y,1/2+z
x,-y,-z
-x,y,1/2-z
1/2+x,1/2+y,z
1/2-x,1/2-y,1/2+z
1/2+x,1/2-y,-z
1/2-x,1/2+y,1/2-z
loop_
_atom_site_type_symbol
_atom_site_label
_atom_site_fract_x
_atom_site_fract_y
_atom_site_fract_z
Si Si1 0.831476 0.402037 0.279637
Si Si2 0.581501 0.898803 0.583843
Si Si3 0.554638 0.561069 0.431970
Si Si4 0.577885 0.152945 0.936217
Si Si5 0.706544 0.126618 0.172372
Si Si6 0.788740 0.708115 0.848092
Si Si7 0.651858 0.312210 0.989820
Si Si8 0.793814 0.030326 0.315747
O O1 0.824352 0.391485 0.374118
O O2 0.780348 0.328344 0.237678
O O3 0.730372 0.463023 0.241557
O O4 0.000000 0.418465 0.250000
O O5 0.489656 0.899597 0.502466
O O6 0.465459 0.877772 0.652250
O O7 0.709416 0.840905 0.561801
O O8 0.670534 0.968654 0.614169
O O9 0.554170 0.500000 0.500000
O O10 0.710975 0.577656 0.393502
O O11 0.483761 0.636982 0.464058
O O12 0.447765 0.536738 0.359556
O O13 0.448103 0.186998 0.882054
O O14 0.641156 0.225663 0.976802
O O15 0.762886 0.207478 0.160294
O O16 0.755592 0.098393 0.258992
O O17 0.681443 0.676635 0.916129
#
# Coordination Sequence:
#
# PCOD9318339 Si02
#       8
#     8   8   8   8   8   8   8   8
#     4  10  22  39  65  96 131 172 231 283 344 405
#     4  10  23  40  67  98 133 179 225 280 350 408
#     4  11  25  43  71  97 137 187 230 278 350 412
#     4  10  20  39  66 100 127 173 231 289 342 400
#     4  12  23  41  67  98 137 179 229 286 343 413
#     4  10  21  37  67  98 131 175 224 284 344 402
#     4  10  20  41  66  98 138 176 227 288 340 417
#     4  11  25  46  66  96 139 184 231 283 343 424
#
# _framework density 22.781956999999998
#
# number of rings (size 3 to 8) (size 9 to 14) (size 15 to 20)
#    0.000    1.500    2.500    2.250    3.500    3.000 
#    0.000    7.500    2.750    0.000    0.000    0.000 
#    0.000    0.000    0.000    0.000    0.000    0.000 
#
# Total GULP energy -178929.484178 kJ/mol
# GULP energy per Si atom -5591.546381 kJ/mol
# Density = 2.273010 g / cm^3
# Si number density = 22.781957 Si / 1000 Ang^3
#
#
#
# Elastic Constant Matrix: (Units=GPa)
#
#
# Indices 1 2 3 4 5 6 
#
# 1 59.7487 18.0684 23.8196 0.0000 0.0000 0.0000
# 2 18.0684 71.4553 21.8040 0.0000 0.0000 0.0000
# 3 23.8196 21.8040 88.6965 0.0000 0.0000 0.0000
# 4 0.0000 0.0000 0.0000 43.0768 0.0000 0.0000
# 5 0.0000 0.0000 0.0000 0.0000 30.5266 0.0000
# 6 0.0000 0.0000 0.0000 0.0000 0.0000 13.9672
#
#
#
# Elastic Compliance Matrix: (Units=1/GPa)
#
#
# Indices 1 2 3 4 5 6 
#
# 1 0.019571 -0.003616 -0.004367 0.000000 0.000000 0.000000
# 2 -0.003616 0.015798 -0.002912 0.000000 0.000000 0.000000
# 3 -0.004367 -0.002912 0.013163 0.000000 0.000000 0.000000
# 4 0.000000 0.000000 0.000000 0.023214 0.000000 0.000000
# 5 0.000000 0.000000 0.000000 0.000000 0.032758 0.000000
# 6 0.000000 0.000000 0.000000 0.000000 0.000000 0.071596
#
#
# Mechanical properties :
#
#
# Convention : Reuss Voigt Hill
#
# Bulk Modulus (GPa) = 37.39572 38.58718 37.99145
# Shear Modulus (GPa) = 24.17724 27.92803 26.05263
#
# Velocity S-wave (km/s) = 3.26121 3.50506 3.38533
# Velocity P-wave (km/s) = 5.53452 5.77538 5.65623
#
# Compressibility (1/GPa) = 0.02674103
#
# Stress axis : x y z
#
# Youngs Moduli (GPa) = 51.09520 63.29962 75.97006
#
# Poissons Ratio (x) = 0.22891 0.33176
# Poissons Ratio (y) = 0.18478 0.22125
# Poissons Ratio (z) = 0.22313 0.18435
#
# Static dielectric constant tensor:
#      x y z
#    x 1.853110 0.000000 0.000000 
#    y 0.000000 1.839200 0.000000 
#    z 0.000000 0.000000 1.875700 
# 
# From -- ./inp_files/23902.got.cif
#   From: 2010.05.17/outbox.cif.g08.bks.cpg/sg20_12_cif.got.tgz:23902.got - 2010.06.03 22:52:26.
