data_PCOD9318434
_publ_section_title
;
Structure prediction by ZEFSAII (Michael W. Deem and Ramdas Pophale) SiO2 
 PCOD9318434
Probable space group: C 2 2 21
;
_chemical_formula_sum "Si O2"
_cell_formula_units_Z 32
_cell_length_a 8.364080
_cell_length_b 12.427955
_cell_length_c 14.571832
_cell_angle_alpha 90.000000
_cell_angle_beta 90.000000
_cell_angle_gamma 90.000000
_cell_volume 1514.718765
_symmetry_space_group_name_H-M "C 2 2 21"
_symmetry_group_IT_number 20
_symmetry_cell_setting 'orthorhombic'
loop_
_space_group_symop_operation_xyz
x,y,z
-x,-y,1/2+z
x,-y,-z
-x,y,1/2-z
1/2+x,1/2+y,z
1/2-x,1/2-y,1/2+z
1/2+x,1/2-y,-z
1/2-x,1/2+y,1/2-z
loop_
_atom_site_type_symbol
_atom_site_label
_atom_site_fract_x
_atom_site_fract_y
_atom_site_fract_z
Si Si1 0.577512 0.530866 0.851033
Si Si2 0.336629 0.299448 0.694859
Si Si3 0.358481 0.680095 0.945745
Si Si4 0.817504 0.742728 0.376403
O O1 0.500000 0.539104 0.750000
O O2 0.643538 0.411588 0.859340
O O3 0.436095 0.566674 0.918875
O O4 0.703881 0.627839 0.862760
O O5 0.500000 0.277085 0.750000
O O6 0.284771 0.209538 0.623030
O O7 0.207605 0.308455 0.776944
O O8 0.502996 0.761433 0.916897
O O9 0.303035 0.695992 0.048999
#
# Coordination Sequence:
#
# PCOD9318434 Si02
#       4
#     8   8   8   8
#     4   9  20  40  65  87 131 171 212 272 329 384
#     4  11  21  38  68  94 126 181 216 267 343 389
#     4  10  20  40  66  95 134 169 224 277 326 391
#     4  10  20  40  66  90 135 173 212 283 325 391
#
# _framework density 21.126035000000002
#
# number of rings (size 3 to 8) (size 9 to 14) (size 15 to 20)
#    1.500    0.500    2.500    2.250    0.000    1.000 
#    4.500    2.500   22.000    0.000    0.000    0.000 
#    0.000    0.000    0.000    0.000    0.000    0.000 
#
# Total GULP energy -89199.738967 kJ/mol
# GULP energy per Si atom -5574.983685 kJ/mol
# Density = 2.107795 g / cm^3
# Si number density = 21.126035 Si / 1000 Ang^3
#
#
#
# Elastic Constant Matrix: (Units=GPa)
#
#
# Indices 1 2 3 4 5 6 
#
# 1 47.7888 26.8379 5.4168 0.0000 0.0000 0.0000
# 2 26.8379 89.4050 34.2917 0.0000 0.0000 0.0000
# 3 5.4168 34.2917 100.3466 0.0000 0.0000 0.0000
# 4 0.0000 0.0000 0.0000 33.4729 0.0000 0.0000
# 5 0.0000 0.0000 0.0000 0.0000 38.8926 0.0000
# 6 0.0000 0.0000 0.0000 0.0000 0.0000 14.9515
#
#
#
# Elastic Compliance Matrix: (Units=1/GPa)
#
#
# Indices 1 2 3 4 5 6 
#
# 1 0.025342 -0.008151 0.001417 0.000000 0.000000 0.000000
# 2 -0.008151 0.015494 -0.004855 0.000000 0.000000 0.000000
# 3 0.001417 -0.004855 0.011548 0.000000 0.000000 0.000000
# 4 0.000000 0.000000 0.000000 0.029875 0.000000 0.000000
# 5 0.000000 0.000000 0.000000 0.000000 0.025712 0.000000
# 6 0.000000 0.000000 0.000000 0.000000 0.000000 0.066883
#
#
# Mechanical properties :
#
#
# Convention : Reuss Voigt Hill
#
# Bulk Modulus (GPa) = 34.23774 41.18148 37.70961
# Shear Modulus (GPa) = 24.06550 28.86299 26.46424
#
# Velocity S-wave (km/s) = 3.37878 3.70026 3.54317
# Velocity P-wave (km/s) = 5.60920 6.14748 5.88450
#
# Compressibility (1/GPa) = 0.02920754
#
# Stress axis : x y z
#
# Youngs Moduli (GPa) = 39.45973 64.54132 86.59516
#
# Poissons Ratio (x) = 0.52608 -0.12275
# Poissons Ratio (y) = 0.32164 0.42040
# Poissons Ratio (z) = -0.05593 0.31333
#
# Static dielectric constant tensor:
#      x y z
#    x 1.816490 0.000000 0.000000 
#    y 0.000000 1.776130 0.000000 
#    z 0.000000 0.000000 1.755410 
# 
# From -- ./inp_files/18282.got.cif
#   From: 2010.05.17/outbox.cif.g08.bks.cpg/sg20_10_cif.got.tgz:18282.got - 2010.06.03 22:52:26.
