data_PCOD9318955
_publ_section_title
;
Structure prediction by ZEFSAII (Michael W. Deem and Ramdas Pophale) SiO2 
 PCOD9318955
Probable space group: C 2 2 21
;
_chemical_formula_sum "Si O2"
_cell_formula_units_Z 40
_cell_length_a 8.713661
_cell_length_b 11.761492
_cell_length_c 15.575583
_cell_angle_alpha 90.000000
_cell_angle_beta 90.000000
_cell_angle_gamma 90.000000
_cell_volume 1596.273812
_symmetry_space_group_name_H-M "C 2 2 21"
_symmetry_group_IT_number 20
_symmetry_cell_setting 'orthorhombic'
loop_
_space_group_symop_operation_xyz
x,y,z
-x,-y,1/2+z
x,-y,-z
-x,y,1/2-z
1/2+x,1/2+y,z
1/2-x,1/2-y,1/2+z
1/2+x,1/2-y,-z
1/2-x,1/2+y,1/2-z
loop_
_atom_site_type_symbol
_atom_site_label
_atom_site_fract_x
_atom_site_fract_y
_atom_site_fract_z
Si Si1 0.440365 0.452502 0.843716
Si Si2 0.952465 0.468900 0.151985
Si Si3 0.236160 0.113730 0.055879
Si Si4 0.319853 0.761113 0.219995
Si Si5 0.744635 0.652056 0.597817
O O1 0.500000 0.492571 0.750000
O O2 0.579634 0.388520 0.889522
O O3 0.304144 0.361434 0.823696
O O4 0.383432 0.555721 0.901908
O O5 0.885273 0.580759 0.111146
O O6 0.819494 0.371268 0.158968
O O7 0.000000 0.490901 0.250000
O O8 0.092715 0.413417 0.100231
O O9 0.258363 0.245340 0.030231
O O10 0.224499 0.000000 0.000000
O O11 0.500000 0.757387 0.250000
O O12 0.231259 0.790454 0.306801
#
# Coordination Sequence:
#
# PCOD9318955 Si02
#       5
#     8   8   8   8   8
#     4  11  19  40  68  91 123 161 217 261 310 377
#     4   9  19  40  64  85 125 164 207 266 308 365
#     4  12  25  41  61  94 134 165 204 265 324 376
#     4   8  15  33  63  86 117 150 196 261 303 344
#     4  10  21  38  61  90 120 164 206 258 316 366
#
# _framework density 25.058357999999998
#
# number of rings (size 3 to 8) (size 9 to 14) (size 15 to 20)
#    0.000    2.400    6.000    2.400    0.000    2.400 
#    3.600    1.000    0.000    0.000    0.000    0.000 
#    0.000    0.000    0.000    0.000    0.000    0.000 
#
# Total GULP energy -111651.613772 kJ/mol
# GULP energy per Si atom -5582.580689 kJ/mol
# Density = 2.500132 g / cm^3
# Si number density = 25.058358 Si / 1000 Ang^3
#
#
#
# Elastic Constant Matrix: (Units=GPa)
#
#
# Indices 1 2 3 4 5 6 
#
# 1 37.1754 39.7024 6.5223 0.0000 0.0000 0.0000
# 2 39.7024 107.5275 -0.6823 0.0000 0.0000 0.0000
# 3 6.5223 -0.6823 32.0981 0.0000 0.0000 0.0000
# 4 0.0000 0.0000 0.0000 29.4746 0.0000 0.0000
# 5 0.0000 0.0000 0.0000 0.0000 11.1680 0.0000
# 6 0.0000 0.0000 0.0000 0.0000 0.0000 9.2431
#
#
#
# Elastic Compliance Matrix: (Units=1/GPa)
#
#
# Indices 1 2 3 4 5 6 
#
# 1 0.047424 -0.017574 -0.010010 0.000000 0.000000 0.000000
# 2 -0.017574 0.015814 0.003907 0.000000 0.000000 0.000000
# 3 -0.010010 0.003907 0.033272 0.000000 0.000000 0.000000
# 4 0.000000 0.000000 0.000000 0.033928 0.000000 0.000000
# 5 0.000000 0.000000 0.000000 0.000000 0.089542 0.000000
# 6 0.000000 0.000000 0.000000 0.000000 0.000000 0.108189
#
#
# Mechanical properties :
#
#
# Convention : Reuss Voigt Hill
#
# Bulk Modulus (GPa) = 20.34357 29.76507 25.05432
# Shear Modulus (GPa) = 12.75812 18.72770 15.74291
#
# Velocity S-wave (km/s) = 2.25885 2.73676 2.50921
# Velocity P-wave (km/s) = 3.86514 4.67874 4.29126
#
# Compressibility (1/GPa) = 0.04915558
#
# Stress axis : x y z
#
# Youngs Moduli (GPa) = 21.08618 63.23664 30.05568
#
# Poissons Ratio (x) = 1.11132 0.30086
# Poissons Ratio (y) = 0.37057 -0.11743
# Poissons Ratio (z) = 0.21108 -0.24708
#
# Static dielectric constant tensor:
#      x y z
#    x 1.967240 0.000000 0.000000 
#    y 0.000000 2.074740 0.000000 
#    z 0.000000 0.000000 2.071180 
# 
# From -- ./inp_files/23145.got.cif
#   From: 2010.05.17/outbox.cif.g08.bks.cpg/sg20_12_cif.got.tgz:23145.got - 2010.06.03 22:52:26.
