data_PCOD9318132
_publ_section_title
;
Structure prediction by ZEFSAII (Michael W. Deem and Ramdas Pophale) SiO2 
 PCOD9318132
Probable space group: C 2 2 21
;
_chemical_formula_sum "Si O2"
_cell_formula_units_Z 40
_cell_length_a 13.103973
_cell_length_b 12.721693
_cell_length_c 13.790490
_cell_angle_alpha 90.000000
_cell_angle_beta 90.000000
_cell_angle_gamma 90.000000
_cell_volume 2298.939796
_symmetry_space_group_name_H-M "C 2 2 21"
_symmetry_group_IT_number 20
_symmetry_cell_setting 'orthorhombic'
loop_
_space_group_symop_operation_xyz
x,y,z
-x,-y,1/2+z
x,-y,-z
-x,y,1/2-z
1/2+x,1/2+y,z
1/2-x,1/2-y,1/2+z
1/2+x,1/2-y,-z
1/2-x,1/2+y,1/2-z
loop_
_atom_site_type_symbol
_atom_site_label
_atom_site_fract_x
_atom_site_fract_y
_atom_site_fract_z
Si Si1 0.577459 0.244610 0.463380
Si Si2 0.740680 0.225751 0.836509
Si Si3 0.673236 0.336220 0.645122
Si Si4 0.589253 0.432565 0.328030
Si Si5 0.628007 0.875820 0.983579
O O1 0.673611 0.209128 0.397214
O O2 0.612048 0.258379 0.573958
O O3 0.558324 0.362592 0.421457
O O4 0.478855 0.173821 0.452166
O O5 0.688167 0.289857 0.751766
O O6 0.808356 0.129153 0.793832
O O7 0.664707 0.178631 0.916424
O O8 0.617573 0.448509 0.648544
O O9 0.783112 0.353615 0.594363
O O10 0.500000 0.426527 0.250000
O O11 0.620487 0.000000 0.000000
#
# Coordination Sequence:
#
# PCOD9318132 Si02
#       5
#     8   8   8   8   8
#     4   9  22  38  59  87 120 161 200 245 313 356
#     4   9  22  38  59  92 110 167 202 248 308 360
#     4  11  20  40  62  86 125 154 207 255 302 373
#     4  10  20  38  60  88 116 159 205 246 306 355
#     4  11  20  41  62  84 125 163 197 254 314 364
#
# _framework density 17.399324
#
# number of rings (size 3 to 8) (size 9 to 14) (size 15 to 20)
#    1.200    0.800    2.000    1.800    2.800    0.000 
#    3.600    2.000    0.000    0.000    0.000    0.000 
#    0.000    0.000    0.000    0.000    0.000    0.000 
#
# Total GULP energy -111402.409826 kJ/mol
# GULP energy per Si atom -5570.120491 kJ/mol
# Density = 1.735972 g / cm^3
# Si number density = 17.399324 Si / 1000 Ang^3
#
#
#
# Elastic Constant Matrix: (Units=GPa)
#
#
# Indices 1 2 3 4 5 6 
#
# 1 57.2098 13.2502 32.8284 0.0000 0.0000 0.0000
# 2 13.2502 48.2192 35.1003 0.0000 0.0000 0.0000
# 3 32.8284 35.1003 108.7079 0.0000 0.0000 0.0000
# 4 0.0000 0.0000 0.0000 26.2966 0.0000 0.0000
# 5 0.0000 0.0000 0.0000 0.0000 21.3898 0.0000
# 6 0.0000 0.0000 0.0000 0.0000 0.0000 38.3734
#
#
#
# Elastic Compliance Matrix: (Units=1/GPa)
#
#
# Indices 1 2 3 4 5 6 
#
# 1 0.021229 -0.001525 -0.005918 0.000000 0.000000 0.000000
# 2 -0.001525 0.027220 -0.008328 0.000000 0.000000 0.000000
# 3 -0.005918 -0.008328 0.013675 0.000000 0.000000 0.000000
# 4 0.000000 0.000000 0.000000 0.038028 0.000000 0.000000
# 5 0.000000 0.000000 0.000000 0.000000 0.046751 0.000000
# 6 0.000000 0.000000 0.000000 0.000000 0.000000 0.026060
#
#
# Mechanical properties :
#
#
# Convention : Reuss Voigt Hill
#
# Bulk Modulus (GPa) = 32.70076 41.83274 37.26675
# Shear Modulus (GPa) = 23.28820 26.07582 24.68201
#
# Velocity S-wave (km/s) = 3.66246 3.87546 3.77047
# Velocity P-wave (km/s) = 6.05969 6.64233 6.35769
#
# Compressibility (1/GPa) = 0.03058032
#
# Stress axis : x y z
#
# Youngs Moduli (GPa) = 47.10563 36.73729 73.12427
#
# Poissons Ratio (x) = 0.05604 0.43277
# Poissons Ratio (y) = 0.07185 0.60901
# Poissons Ratio (z) = 0.27879 0.30596
#
# Static dielectric constant tensor:
#      x y z
#    x 1.591070 0.000000 0.000000 
#    y 0.000000 1.569740 0.000000 
#    z 0.000000 0.000000 1.587730 
# 
# From -- ./inp_files/19697.got.cif
#   From: 2010.05.17/outbox.cif.g08.bks.cpg/sg20_10_cif.got.tgz:19697.got - 2010.06.03 22:52:26.
