data_PCOD9318886
_publ_section_title
;
Structure prediction by ZEFSAII (Michael W. Deem and Ramdas Pophale) SiO2 
 PCOD9318886
Probable space group: C 2 2 21
;
_chemical_formula_sum "Si O2"
_cell_formula_units_Z 48
_cell_length_a 7.884586
_cell_length_b 6.854182
_cell_length_c 33.715211
_cell_angle_alpha 90.000000
_cell_angle_beta 90.000000
_cell_angle_gamma 90.000000
_cell_volume 1822.050495
_symmetry_space_group_name_H-M "C 2 2 21"
_symmetry_group_IT_number 20
_symmetry_cell_setting 'orthorhombic'
loop_
_space_group_symop_operation_xyz
x,y,z
-x,-y,1/2+z
x,-y,-z
-x,y,1/2-z
1/2+x,1/2+y,z
1/2-x,1/2-y,1/2+z
1/2+x,1/2-y,-z
1/2-x,1/2+y,1/2-z
loop_
_atom_site_type_symbol
_atom_site_label
_atom_site_fract_x
_atom_site_fract_y
_atom_site_fract_z
Si Si1 0.763221 0.849406 0.911029
Si Si2 0.394722 0.092172 0.332166
Si Si3 0.394520 0.343925 0.636518
Si Si4 0.050557 0.061313 0.704667
Si Si5 0.603323 0.776175 0.985545
Si Si6 0.247395 0.283043 0.561896
O O1 0.741876 0.727502 0.951281
O O2 0.948897 0.875565 0.893465
O O3 0.650412 0.795136 0.873127
O O4 0.705499 0.065288 0.923792
O O5 0.425815 0.872460 0.346342
O O6 0.223481 0.054680 0.305902
O O7 0.539044 0.210955 0.308817
O O8 0.409064 0.471944 0.675577
O O9 0.240749 0.380649 0.605529
O O10 0.000000 0.042160 0.750000
O O11 0.428074 0.769664 0.961832
O O12 0.622152 0.659598 0.026745
O O13 0.628446 0.000000 0.000000
#
# Coordination Sequence:
#
# PCOD9318886 Si02
#       6
#     8   8   8   8   8   8
#     4   9  21  40  61  95 138 183 238 300 360 443
#     4  10  25  46  72 108 146 189 247 311 380 463
#     4  10  23  45  73 104 141 199 244 311 384 460
#     4  11  27  49  75 111 150 192 249 322 391 477
#     4  10  21  37  61  96 143 186 243 305 360 441
#     4  10  21  39  61  99 138 190 244 300 366 442
#
# _framework density 26.343947
#
# number of rings (size 3 to 8) (size 9 to 14) (size 15 to 20)
#    0.000    2.000    0.000    1.000    9.333    4.667 
#   12.000    0.000    0.000    0.000    0.000    0.000 
#    0.000    0.000    0.000    0.000    0.000    0.000 
#
# Total GULP energy -134146.745484 kJ/mol
# GULP energy per Si atom -5589.447729 kJ/mol
# Density = 2.628399 g / cm^3
# Si number density = 26.343947 Si / 1000 Ang^3
#
#
#
# Elastic Constant Matrix: (Units=GPa)
#
#
# Indices 1 2 3 4 5 6 
#
# 1 91.7940 -9.2145 46.8141 0.0000 0.0000 0.0000
# 2 -9.2145 81.0072 52.5421 0.0000 0.0000 0.0000
# 3 46.8141 52.5421 250.2166 0.0000 0.0000 0.0000
# 4 0.0000 0.0000 0.0000 36.2563 0.0000 0.0000
# 5 0.0000 0.0000 0.0000 0.0000 33.3960 0.0000
# 6 0.0000 0.0000 0.0000 0.0000 0.0000 26.9558
#
#
#
# Elastic Compliance Matrix: (Units=1/GPa)
#
#
# Indices 1 2 3 4 5 6 
#
# 1 0.012845 0.003496 -0.003137 0.000000 0.000000 0.000000
# 2 0.003496 0.015243 -0.003855 0.000000 0.000000 0.000000
# 3 -0.003137 -0.003855 0.005393 0.000000 0.000000 0.000000
# 4 0.000000 0.000000 0.000000 0.027581 0.000000 0.000000
# 5 0.000000 0.000000 0.000000 0.000000 0.029944 0.000000
# 6 0.000000 0.000000 0.000000 0.000000 0.000000 0.037098
#
#
# Mechanical properties :
#
#
# Convention : Reuss Voigt Hill
#
# Bulk Modulus (GPa) = 37.75276 67.03347 52.39312
# Shear Modulus (GPa) = 34.74036 41.51337 38.12687
#
# Velocity S-wave (km/s) = 3.63536 3.97397 3.80843
# Velocity P-wave (km/s) = 5.65535 6.82329 6.26659
#
# Compressibility (1/GPa) = 0.02648813
#
# Stress axis : x y z
#
# Youngs Moduli (GPa) = 77.85194 65.60597 185.42660
#
# Poissons Ratio (x) = -0.22936 0.58174
# Poissons Ratio (y) = -0.27217 0.71478
# Poissons Ratio (z) = 0.24425 0.25290
#
# Static dielectric constant tensor:
#      x y z
#    x 2.169530 0.000000 0.000000 
#    y 0.000000 2.192900 0.000000 
#    z 0.000000 0.000000 2.025320 
# 
# From -- ./inp_files/30944.got.cif
#   From: 2010.05.17/outbox.cif.g08.bks.cpg/sg20_16_cif.got.tgz:30944.got - 2010.06.03 22:52:26.
