data_PCOD9318143
_publ_section_title
;
Structure prediction by ZEFSAII (Michael W. Deem and Ramdas Pophale) SiO2 
 PCOD9318143
Probable space group: C 2 2 21
;
_chemical_formula_sum "Si O2"
_cell_formula_units_Z 48
_cell_length_a 17.225638
_cell_length_b 14.193873
_cell_length_c 9.223619
_cell_angle_alpha 90.000000
_cell_angle_beta 90.000000
_cell_angle_gamma 90.000000
_cell_volume 2255.161177
_symmetry_space_group_name_H-M "C 2 2 21"
_symmetry_group_IT_number 20
_symmetry_cell_setting 'orthorhombic'
loop_
_space_group_symop_operation_xyz
x,y,z
-x,-y,1/2+z
x,-y,-z
-x,y,1/2-z
1/2+x,1/2+y,z
1/2-x,1/2-y,1/2+z
1/2+x,1/2-y,-z
1/2-x,1/2+y,1/2-z
loop_
_atom_site_type_symbol
_atom_site_label
_atom_site_fract_x
_atom_site_fract_y
_atom_site_fract_z
Si Si1 0.763876 0.463625 0.220827
Si Si2 0.775907 0.154123 0.447118
Si Si3 0.065164 0.421232 0.374111
Si Si4 0.127229 0.767549 0.484234
Si Si5 0.912150 0.866443 0.728847
Si Si6 0.887957 0.051836 0.856913
O O1 0.751283 0.568078 0.156378
O O2 0.855104 0.443999 0.213982
O O3 0.706395 0.451598 0.355146
O O4 0.729287 0.388551 0.106472
O O5 0.712016 0.234493 0.433673
O O6 0.863929 0.175409 0.403562
O O7 0.052651 0.500000 0.500000
O O8 0.080674 0.324652 0.463668
O O9 0.000000 0.414983 0.250000
O O10 0.133697 0.830326 0.629651
O O11 0.089740 0.839090 0.368180
O O12 0.000000 0.835222 0.750000
O O13 0.911107 0.980923 0.727740
O O14 0.919978 0.000000 0.000000
#
# Coordination Sequence:
#
# PCOD9318143 Si02
#       6
#     8   8   8   8   8   8
#     4   9  17  38  60  85 117 163 215 259 317 396
#     4   9  18  34  62  85 113 162 208 251 321 384
#     4  11  22  40  65  90 132 176 218 284 336 382
#     4  10  20  38  61  87 125 162 212 263 320 399
#     4  10  21  39  62  91 126 166 209 272 327 383
#     4   9  20  37  60  88 120 163 209 261 324 395
#
# _framework density 21.284509
#
# number of rings (size 3 to 8) (size 9 to 14) (size 15 to 20)
#    0.000    2.333    3.333    0.500    4.667    0.667 
#   18.000    0.833    3.667    0.000    0.000    0.000 
#    0.000    0.000    0.000    0.000    0.000    0.000 
#
# Total GULP energy -133671.853282 kJ/mol
# GULP energy per Si atom -5569.660553 kJ/mol
# Density = 2.123606 g / cm^3
# Si number density = 21.284509 Si / 1000 Ang^3
#
#
#
# Elastic Constant Matrix: (Units=GPa)
#
#
# Indices 1 2 3 4 5 6 
#
# 1 138.0507 17.5054 34.5752 0.0000 0.0000 0.0000
# 2 17.5054 115.7697 15.0721 0.0000 0.0000 0.0000
# 3 34.5752 15.0721 39.8203 0.0000 0.0000 0.0000
# 4 0.0000 0.0000 0.0000 22.2749 0.0000 0.0000
# 5 0.0000 0.0000 0.0000 0.0000 33.2708 0.0000
# 6 0.0000 0.0000 0.0000 0.0000 0.0000 12.7736
#
#
#
# Elastic Compliance Matrix: (Units=1/GPa)
#
#
# Indices 1 2 3 4 5 6 
#
# 1 0.009272 -0.000372 -0.007910 0.000000 0.000000 0.000000
# 2 -0.000372 0.009100 -0.003121 0.000000 0.000000 0.000000
# 3 -0.007910 -0.003121 0.033162 0.000000 0.000000 0.000000
# 4 0.000000 0.000000 0.000000 0.044894 0.000000 0.000000
# 5 0.000000 0.000000 0.000000 0.000000 0.030056 0.000000
# 6 0.000000 0.000000 0.000000 0.000000 0.000000 0.078287
#
#
# Mechanical properties :
#
#
# Convention : Reuss Voigt Hill
#
# Bulk Modulus (GPa) = 34.80936 47.54956 41.17946
# Shear Modulus (GPa) = 21.08335 28.76305 24.92320
#
# Velocity S-wave (km/s) = 3.15071 3.68007 3.42563
# Velocity P-wave (km/s) = 5.44296 6.35970 5.91910
#
# Compressibility (1/GPa) = 0.02872790
#
# Stress axis : x y z
#
# Youngs Moduli (GPa) = 107.85236 109.88412 30.15484
#
# Poissons Ratio (x) = 0.04090 0.23852
# Poissons Ratio (y) = 0.04015 0.09412
# Poissons Ratio (z) = 0.85309 0.34299
#
# Static dielectric constant tensor:
#      x y z
#    x 1.827530 0.000000 0.000000 
#    y 0.000000 1.829890 0.000000 
#    z 0.000000 0.000000 1.850580 
# 
# From -- ./inp_files/9341.got.cif
#   From: 2010.05.17/outbox.cif.g08.bks.cpg/sg20_5_cif.got.tgz:9341.got - 2010.06.03 22:52:26.
