data_PCOD9318177
_publ_section_title
;
Structure prediction by ZEFSAII (Michael W. Deem and Ramdas Pophale) SiO2 
 PCOD9318177
Probable space group: C 2 2 21
;
_chemical_formula_sum "Si O2"
_cell_formula_units_Z 32
_cell_length_a 14.048891
_cell_length_b 4.901142
_cell_length_c 20.650675
_cell_angle_alpha 90.000000
_cell_angle_beta 90.000000
_cell_angle_gamma 90.000000
_cell_volume 1421.914819
_symmetry_space_group_name_H-M "C 2 2 21"
_symmetry_group_IT_number 20
_symmetry_cell_setting 'orthorhombic'
loop_
_space_group_symop_operation_xyz
x,y,z
-x,-y,1/2+z
x,-y,-z
-x,y,1/2-z
1/2+x,1/2+y,z
1/2-x,1/2-y,1/2+z
1/2+x,1/2-y,-z
1/2-x,1/2+y,1/2-z
loop_
_atom_site_type_symbol
_atom_site_label
_atom_site_fract_x
_atom_site_fract_y
_atom_site_fract_z
Si Si1 0.077964 0.933226 0.361599
Si Si2 0.085672 0.000000 0.500000
Si Si3 0.557574 0.072356 0.861347
Si Si4 0.308466 0.244142 0.751800
Si Si5 0.441091 0.000000 0.500000
O O1 0.136059 0.072015 0.304024
O O2 0.985375 0.125855 0.367255
O O3 0.134081 0.963880 0.429974
O O4 0.031862 0.634782 0.351540
O O5 0.014280 0.748022 0.501849
O O6 0.607598 0.996730 0.929733
O O7 0.625746 0.090050 0.800203
O O8 0.247841 0.487098 0.717454
#
# Coordination Sequence:
#
# PCOD9318177 Si02
#       5
#     8   4   8   8   4
#     4  10  20  38  63  87 112 154 203 245 289 350
#     4   8  16  32  59  88 109 138 198 256 286 330
#     4  10  20  38  63  87 112 154 203 245 289 350
#     4  12  25  38  55  90 130 158 190 244 301 352
#     4   8  16  32  59  88 109 138 198 256 286 330
#
# _framework density 22.504866
#
# number of rings (size 3 to 8) (size 9 to 14) (size 15 to 20)
#    0.000    2.000    0.000    3.750    0.000    2.000 
#    0.000    1.250    0.000    3.000    0.000    0.000 
#    0.000    0.000    0.000    0.000    0.000    0.000 
#
# Total GULP energy -89129.732674 kJ/mol
# GULP energy per Si atom -5570.608292 kJ/mol
# Density = 2.245364 g / cm^3
# Si number density = 22.504866 Si / 1000 Ang^3
#
#
#
# Elastic Constant Matrix: (Units=GPa)
#
#
# Indices 1 2 3 4 5 6 
#
# 1 32.8754 5.2547 39.3008 0.0000 0.0000 0.0000
# 2 5.2547 132.4201 8.7160 0.0000 0.0000 0.0000
# 3 39.3008 8.7160 181.9170 0.0000 0.0000 0.0000
# 4 0.0000 0.0000 0.0000 30.7676 0.0000 0.0000
# 5 0.0000 0.0000 0.0000 0.0000 -29.8315 0.0000
# 6 0.0000 0.0000 0.0000 0.0000 0.0000 22.8267
#
#
#
# Elastic Compliance Matrix: (Units=1/GPa)
#
#
# Indices 1 2 3 4 5 6 
#
# 1 0.041154 -0.001051 -0.008840 0.000000 0.000000 0.000000
# 2 -0.001051 0.007602 -0.000137 0.000000 0.000000 0.000000
# 3 -0.008840 -0.000137 0.007413 0.000000 0.000000 0.000000
# 4 0.000000 0.000000 0.000000 0.032502 0.000000 0.000000
# 5 0.000000 0.000000 0.000000 0.000000 -0.033522 0.000000
# 6 0.000000 0.000000 0.000000 0.000000 0.000000 0.043808
#
#
# Mechanical properties :
#
#
# Convention : Reuss Voigt Hill
#
# Bulk Modulus (GPa) = 27.69127 50.41728 39.05428
# Shear Modulus (GPa) = 38.15234 24.34864 31.25049
#
# Velocity S-wave (km/s) = 4.12186 3.29284 3.73045
# Velocity P-wave (km/s) = 5.91475 6.07524 5.99553
#
# Compressibility (1/GPa) = 0.03611246
#
# Stress axis : x y z
#
# Youngs Moduli (GPa) = 24.29888 131.53628 134.88991
#
# Poissons Ratio (x) = 0.13827 1.19249
# Poissons Ratio (y) = 0.02554 0.01850
# Poissons Ratio (z) = 0.21481 0.01804
#
# Static dielectric constant tensor:
#      x y z
#    x 1.852510 0.000000 0.000000 
#    y 0.000000 1.780980 0.000000 
#    z 0.000000 0.000000 2.027960 
# 
# From -- ./inp_files/27024.got.cif
#   From: 2010.05.17/outbox.cif.g08.bks.cpg/sg20_14_cif.got.tgz:27024.got - 2010.06.03 22:52:26.
