data_PCOD9318995
_publ_section_title
;
Structure prediction by ZEFSAII (Michael W. Deem and Ramdas Pophale) SiO2 
 PCOD9318995
Probable space group: C 2 2 21
;
_chemical_formula_sum "Si O2"
_cell_formula_units_Z 48
_cell_length_a 22.972178
_cell_length_b 5.882375
_cell_length_c 15.841179
_cell_angle_alpha 90.000000
_cell_angle_beta 90.000000
_cell_angle_gamma 90.000000
_cell_volume 2140.633814
_symmetry_space_group_name_H-M "C 2 2 21"
_symmetry_group_IT_number 20
_symmetry_cell_setting 'orthorhombic'
loop_
_space_group_symop_operation_xyz
x,y,z
-x,-y,1/2+z
x,-y,-z
-x,y,1/2-z
1/2+x,1/2+y,z
1/2-x,1/2-y,1/2+z
1/2+x,1/2-y,-z
1/2-x,1/2+y,1/2-z
loop_
_atom_site_type_symbol
_atom_site_label
_atom_site_fract_x
_atom_site_fract_y
_atom_site_fract_z
Si Si1 0.414759 0.493133 0.904003
Si Si2 0.286546 0.390237 0.124308
Si Si3 0.190135 0.278458 0.799407
Si Si4 0.185113 0.121812 0.084561
Si Si5 0.456303 0.996476 0.898085
Si Si6 0.906500 0.518577 0.601327
O O1 0.344653 0.493809 0.907997
O O2 0.432012 0.243911 0.866394
O O3 0.434810 0.743280 0.868338
O O4 0.439058 0.500000 0.000000
O O5 0.239908 0.554077 0.168373
O O6 0.310454 0.230454 0.199430
O O7 0.243416 0.262655 0.059975
O O8 0.128849 0.337697 0.843511
O O9 0.205085 0.038685 0.840634
O O10 0.130012 0.255776 0.120825
O O11 0.165594 0.000000 0.000000
O O12 0.525449 0.010170 0.882807
O O13 0.444659 0.000000 0.000000
O O14 0.897654 0.500000 0.500000
#
# Coordination Sequence:
#
# PCOD9318995 Si02
#       6
#     8   8   8   8   8   8
#     4  10  23  40  66  95 126 169 214 260 316 380
#     4  11  25  40  62  90 131 168 208 262 326 394
#     4  11  23  41  60  91 126 166 205 260 332 371
#     4  11  23  37  65  94 122 161 214 268 315 379
#     4   9  21  40  65  96 126 163 213 268 318 368
#     4  10  21  38  66  94 121 161 216 269 316 378
#
# _framework density 22.423266999999999
#
# number of rings (size 3 to 8) (size 9 to 14) (size 15 to 20)
#    0.000    1.667    3.333    0.000    7.000    1.333 
#    0.000    0.833    0.000    0.000    0.000    0.000 
#    0.000    0.000    0.000    0.000    0.000    0.000 
#
# Total GULP energy -133690.819223 kJ/mol
# GULP energy per Si atom -5570.450801 kJ/mol
# Density = 2.237223 g / cm^3
# Si number density = 22.423267 Si / 1000 Ang^3
#
#
#
# Elastic Constant Matrix: (Units=GPa)
#
#
# Indices 1 2 3 4 5 6 
#
# 1 121.2359 50.1729 1.3391 0.0000 0.0000 0.0000
# 2 50.1729 118.2388 0.9464 0.0000 0.0000 0.0000
# 3 1.3391 0.9464 21.1586 0.0000 0.0000 0.0000
# 4 0.0000 0.0000 0.0000 20.3593 0.0000 0.0000
# 5 0.0000 0.0000 0.0000 0.0000 9.1800 0.0000
# 6 0.0000 0.0000 0.0000 0.0000 0.0000 -86.0572
#
#
#
# Elastic Compliance Matrix: (Units=1/GPa)
#
#
# Indices 1 2 3 4 5 6 
#
# 1 0.010010 -0.004244 -0.000444 0.000000 0.000000 0.000000
# 2 -0.004244 0.010260 -0.000190 0.000000 0.000000 0.000000
# 3 -0.000444 -0.000190 0.047299 0.000000 0.000000 0.000000
# 4 0.000000 0.000000 0.000000 0.049118 0.000000 0.000000
# 5 0.000000 0.000000 0.000000 0.000000 0.108932 0.000000
# 6 0.000000 0.000000 0.000000 0.000000 0.000000 -0.011620
#
#
# Mechanical properties :
#
#
# Convention : Reuss Voigt Hill
#
# Bulk Modulus (GPa) = 17.29731 40.61668 28.95699
# Shear Modulus (GPa) = 20.57408 2.57475 11.57441
#
# Velocity S-wave (km/s) = 3.03237 1.07273 2.27442
# Velocity P-wave (km/s) = 4.47114 4.43703 4.45412
#
# Compressibility (1/GPa) = 0.05781247
#
# Stress axis : x y z
#
# Youngs Moduli (GPa) = 99.90415 97.46772 21.14219
#
# Poissons Ratio (x) = 0.41364 0.00938
# Poissons Ratio (y) = 0.42398 0.00402
# Poissons Ratio (z) = 0.04432 0.01855
#
# Static dielectric constant tensor:
#      x y z
#    x 1.759670 0.000000 0.000000 
#    y 0.000000 2.038170 0.000000 
#    z 0.000000 0.000000 1.919300 
# 
# From -- ./inp_files/22806.got.cif
#   From: 2010.05.17/outbox.cif.g08.bks.cpg/sg20_12_cif.got.tgz:22806.got - 2010.06.03 22:52:26.
