data_PCOD9318804
_publ_section_title
;
Structure prediction by ZEFSAII (Michael W. Deem and Ramdas Pophale) SiO2 
 PCOD9318804
Probable space group: C 2 2 21
;
_chemical_formula_sum "Si O2"
_cell_formula_units_Z 44
_cell_length_a 33.074620
_cell_length_b 8.899933
_cell_length_c 8.077220
_cell_angle_alpha 90.000000
_cell_angle_beta 90.000000
_cell_angle_gamma 90.000000
_cell_volume 2377.625842
_symmetry_space_group_name_H-M "C 2 2 21"
_symmetry_group_IT_number 20
_symmetry_cell_setting 'orthorhombic'
loop_
_space_group_symop_operation_xyz
x,y,z
-x,-y,1/2+z
x,-y,-z
-x,y,1/2-z
1/2+x,1/2+y,z
1/2-x,1/2-y,1/2+z
1/2+x,1/2-y,-z
1/2-x,1/2+y,1/2-z
loop_
_atom_site_type_symbol
_atom_site_label
_atom_site_fract_x
_atom_site_fract_y
_atom_site_fract_z
Si Si1 0.219449 0.228192 0.810521
Si Si2 0.162194 0.000000 0.000000
Si Si3 0.445365 0.077621 0.839259
Si Si4 0.521771 0.000000 0.000000
Si Si5 0.822379 0.500000 0.500000
Si Si6 0.804349 0.325940 0.044413
Si Si7 0.871240 0.259590 0.283022
O O1 0.209660 0.245443 0.620379
O O2 0.266439 0.190902 0.832724
O O3 0.192127 0.097734 0.887219
O O4 0.205340 0.381746 0.901011
O O5 0.135392 0.885430 0.894756
O O6 0.488328 0.881056 0.071889
O O7 0.416832 0.205634 0.768390
O O8 0.453923 0.975451 0.672225
O O9 0.424115 0.000000 0.000000
O O10 0.851477 0.401924 0.380809
O O11 0.843457 0.250293 0.121484
O O12 0.811569 0.500000 0.000000
#
# Coordination Sequence:
#
# PCOD9318804 Si02
#       7
#     8   4   8   4   4   8   8
#     4  11  23  38  57  76 117 156 218 252 313 353
#     4  10  24  42  53  86 120 170 194 254 313 364
#     4   9  17  33  58  92 128 153 189 246 300 365
#     4   8  17  32  59  96 126 152 186 242 305 350
#     4  10  21  36  58  82 108 164 208 262 292 356
#     4  12  24  38  59  83 109 161 212 268 304 361
#     4  11  22  37  59  86 123 155 206 247 311 358
#
# _framework density 18.505855
#
# number of rings (size 3 to 8) (size 9 to 14) (size 15 to 20)
#    0.545    1.091    2.727    3.273    0.000    0.727 
#    0.000    0.000    0.000    0.000    0.000   25.455 
#    0.000    0.000    0.000    0.000    0.000    0.000 
#
# Total GULP energy -122514.925597 kJ/mol
# GULP energy per Si atom -5568.860254 kJ/mol
# Density = 1.846374 g / cm^3
# Si number density = 18.505855 Si / 1000 Ang^3
#
#
#
# Elastic Constant Matrix: (Units=GPa)
#
#
# Indices 1 2 3 4 5 6 
#
# 1 80.8614 24.0034 29.4075 0.0000 0.0000 0.0000
# 2 24.0034 69.1018 20.0335 0.0000 0.0000 0.0000
# 3 29.4075 20.0335 113.7036 0.0000 0.0000 0.0000
# 4 0.0000 0.0000 0.0000 17.8030 0.0000 0.0000
# 5 0.0000 0.0000 0.0000 0.0000 23.0610 0.0000
# 6 0.0000 0.0000 0.0000 0.0000 0.0000 12.8073
#
#
#
# Elastic Compliance Matrix: (Units=1/GPa)
#
#
# Indices 1 2 3 4 5 6 
#
# 1 0.014738 -0.004230 -0.003066 0.000000 0.000000 0.000000
# 2 -0.004230 0.016465 -0.001807 0.000000 0.000000 0.000000
# 3 -0.003066 -0.001807 0.009906 0.000000 0.000000 0.000000
# 4 0.000000 0.000000 0.000000 0.056170 0.000000 0.000000
# 5 0.000000 0.000000 0.000000 0.000000 0.043363 0.000000
# 6 0.000000 0.000000 0.000000 0.000000 0.000000 0.078081
#
#
# Mechanical properties :
#
#
# Convention : Reuss Voigt Hill
#
# Bulk Modulus (GPa) = 43.66502 45.61730 44.64116
# Shear Modulus (GPa) = 20.44458 23.41576 21.93017
#
# Velocity S-wave (km/s) = 3.32740 3.56099 3.44617
# Velocity P-wave (km/s) = 6.19747 6.45068 6.32534
#
# Compressibility (1/GPa) = 0.02290163
#
# Stress axis : x y z
#
# Youngs Moduli (GPa) = 67.85285 60.73601 100.94697
#
# Poissons Ratio (x) = 0.25694 0.30954
# Poissons Ratio (y) = 0.28704 0.18239
# Poissons Ratio (z) = 0.20806 0.10974
#
# Static dielectric constant tensor:
#      x y z
#    x 1.657320 0.000000 0.000000 
#    y 0.000000 1.621130 0.000000 
#    z 0.000000 0.000000 1.699400 
# 
# From -- ./inp_files/11401.got.cif
#   From: 2010.05.17/outbox.cif.g08.bks.cpg/sg20_6_cif.got.tgz:11401.got - 2010.06.03 22:52:26.
