data_PCOD9318007
_publ_section_title
;
Structure prediction by ZEFSAII (Michael W. Deem and Ramdas Pophale) SiO2 
 PCOD9318007
Probable space group: C 2 2 21
;
_chemical_formula_sum "Si O2"
_cell_formula_units_Z 64
_cell_length_a 11.292331
_cell_length_b 19.694264
_cell_length_c 15.314842
_cell_angle_alpha 90.000000
_cell_angle_beta 90.000000
_cell_angle_gamma 90.000000
_cell_volume 3405.931237
_symmetry_space_group_name_H-M "C 2 2 21"
_symmetry_group_IT_number 20
_symmetry_cell_setting 'orthorhombic'
loop_
_space_group_symop_operation_xyz
x,y,z
-x,-y,1/2+z
x,-y,-z
-x,y,1/2-z
1/2+x,1/2+y,z
1/2-x,1/2-y,1/2+z
1/2+x,1/2-y,-z
1/2-x,1/2+y,1/2-z
loop_
_atom_site_type_symbol
_atom_site_label
_atom_site_fract_x
_atom_site_fract_y
_atom_site_fract_z
Si Si1 0.035759 0.402915 0.850028
Si Si2 0.883844 0.132195 0.307471
Si Si3 0.981474 0.546381 0.847813
Si Si4 0.980769 0.201116 0.039765
Si Si5 0.255980 0.199079 0.348929
Si Si6 0.586205 0.851677 0.492005
Si Si7 0.282935 0.494796 0.392916
Si Si8 0.340379 0.345826 0.403493
O O1 0.140396 0.352377 0.872802
O O2 0.000000 0.394260 0.750000
O O3 0.066414 0.482125 0.862273
O O4 0.929346 0.382979 0.913523
O O5 0.928889 0.182638 0.382929
O O6 0.794771 0.172686 0.243802
O O7 0.000000 0.115249 0.250000
O O8 0.836849 0.062463 0.350223
O O9 0.850214 0.515049 0.857786
O O10 0.000000 0.573475 0.750000
O O11 0.983059 0.601982 0.922333
O O12 0.973242 0.279052 0.013700
O O13 0.850354 0.189165 0.080843
O O14 0.037712 0.164246 0.956177
O O15 0.306534 0.276919 0.349174
O O16 0.723702 0.848863 0.465892
O O17 0.284886 0.500000 0.500000
O O18 0.343040 0.422470 0.365698
#
# Coordination Sequence:
#
# PCOD9318007 Si02
#       8
#     8   8   8   8   8   8   8   8
#     4  11  21  35  57  87 122 154 193 253 308 366
#     4  10  21  37  60  86 118 159 204 253 304 361
#     4  10  21  34  57  86 118 150 196 251 306 360
#     4  10  20  37  61  81 117 158 197 250 298 364
#     4  10  22  37  58  90 122 158 202 250 312 370
#     4  10  21  36  60  84 115 152 201 245 308 362
#     4  11  20  36  66  88 114 161 212 253 302 377
#     4  10  20  37  61  85 115 153 208 249 303 363
#
# _framework density 18.790749000000002
#
# number of rings (size 3 to 8) (size 9 to 14) (size 15 to 20)
#    0.000    1.750    2.500    3.375    1.750    3.500 
#    0.000    0.625   13.750    0.000    0.000    0.000 
#    0.000    0.000    0.000    0.000    0.000    0.000 
#
# Total GULP energy -178295.384209 kJ/mol
# GULP energy per Si atom -5571.730757 kJ/mol
# Density = 1.874798 g / cm^3
# Si number density = 18.790749 Si / 1000 Ang^3
#
#
#
# Elastic Constant Matrix: (Units=GPa)
#
#
# Indices 1 2 3 4 5 6 
#
# 1 24.4396 14.5282 5.2177 0.0000 0.0000 0.0000
# 2 14.5282 90.4584 27.5751 0.0000 0.0000 0.0000
# 3 5.2177 27.5751 68.6070 0.0000 0.0000 0.0000
# 4 0.0000 0.0000 0.0000 33.6016 0.0000 0.0000
# 5 0.0000 0.0000 0.0000 0.0000 14.7539 0.0000
# 6 0.0000 0.0000 0.0000 0.0000 0.0000 32.4354
#
#
#
# Elastic Compliance Matrix: (Units=1/GPa)
#
#
# Indices 1 2 3 4 5 6 
#
# 1 0.045257 -0.007088 -0.000593 0.000000 0.000000 0.000000
# 2 -0.007088 0.013708 -0.004971 0.000000 0.000000 0.000000
# 3 -0.000593 -0.004971 0.016619 0.000000 0.000000 0.000000
# 4 0.000000 0.000000 0.000000 0.029761 0.000000 0.000000
# 5 0.000000 0.000000 0.000000 0.000000 0.067779 0.000000
# 6 0.000000 0.000000 0.000000 0.000000 0.000000 0.030831
#
#
# Mechanical properties :
#
#
# Convention : Reuss Voigt Hill
#
# Bulk Modulus (GPa) = 19.88822 30.90521 25.39672
# Shear Modulus (GPa) = 20.32373 25.23710 22.78041
#
# Velocity S-wave (km/s) = 3.29231 3.66875 3.48562
# Velocity P-wave (km/s) = 5.00594 5.86763 5.45383
#
# Compressibility (1/GPa) = 0.05028101
#
# Stress axis : x y z
#
# Youngs Moduli (GPa) = 22.09597 72.94786 60.17292
#
# Poissons Ratio (x) = 0.51704 0.03569
# Poissons Ratio (y) = 0.15661 0.29911
# Poissons Ratio (z) = 0.01311 0.36261
#
# Static dielectric constant tensor:
#      x y z
#    x 1.657320 0.000000 0.000000 
#    y 0.000000 1.672240 0.000000 
#    z 0.000000 0.000000 1.673490 
# 
# From -- ./inp_files/20278.got.cif
#   From: 2010.05.17/outbox.cif.g08.bks.cpg/sg20_11_cif.got.tgz:20278.got - 2010.06.03 22:52:26.
