data_PCOD9318321
_publ_section_title
;
Structure prediction by ZEFSAII (Michael W. Deem and Ramdas Pophale) SiO2 
 PCOD9318321
Probable space group: C 2 2 21
;
_chemical_formula_sum "Si O2"
_cell_formula_units_Z 48
_cell_length_a 24.886229
_cell_length_b 5.408403
_cell_length_c 17.234166
_cell_angle_alpha 90.000000
_cell_angle_beta 90.000000
_cell_angle_gamma 90.000000
_cell_volume 2319.628360
_symmetry_space_group_name_H-M "C 2 2 21"
_symmetry_group_IT_number 20
_symmetry_cell_setting 'orthorhombic'
loop_
_space_group_symop_operation_xyz
x,y,z
-x,-y,1/2+z
x,-y,-z
-x,y,1/2-z
1/2+x,1/2+y,z
1/2-x,1/2-y,1/2+z
1/2+x,1/2-y,-z
1/2-x,1/2+y,1/2-z
loop_
_atom_site_type_symbol
_atom_site_label
_atom_site_fract_x
_atom_site_fract_y
_atom_site_fract_z
Si Si1 0.070222 0.257757 0.450637
Si Si2 0.044141 0.881344 0.915492
Si Si3 0.055552 0.739937 0.225851
Si Si4 0.368541 0.459403 0.817968
Si Si5 0.745852 0.636288 0.699278
Si Si6 0.139312 0.642953 0.838729
O O1 0.080919 0.500000 0.500000
O O2 0.113415 0.230877 0.382773
O O3 0.009911 0.281093 0.415776
O O4 0.072324 0.000000 0.500000
O O5 0.100890 0.746049 0.904973
O O6 0.040492 0.065835 0.841984
O O7 0.044722 0.000000 0.000000
O O8 0.105562 0.589255 0.191878
O O9 0.000000 0.607024 0.250000
O O10 0.080784 0.863483 0.302545
O O11 0.312714 0.592593 0.836954
O O12 0.361016 0.327198 0.735054
O O13 0.754310 0.406252 0.759736
O O14 0.797951 0.611219 0.644071
#
# Coordination Sequence:
#
# PCOD9318321 Si02
#       6
#     8   8   8   8   8   8
#     4  11  26  41  63  92 128 174 210 254 329 389
#     4  10  24  39  58  92 133 171 205 262 332 392
#     4  11  21  36  63  97 125 158 220 267 325 377
#     4  10  22  40  62  92 129 162 214 272 313 379
#     4  10  20  39  64  95 124 163 210 265 324 369
#     4  10  23  35  65  94 123 166 216 265 320 388
#
# _framework density 20.692969999999999
#
# number of rings (size 3 to 8) (size 9 to 14) (size 15 to 20)
#    0.000    1.667    3.333    0.000    9.333    0.000 
#    0.000    0.000    3.667    0.000    0.000    0.000 
#    0.000    0.000    0.000    0.000    0.000    0.000 
#
# Total GULP energy -133867.510663 kJ/mol
# GULP energy per Si atom -5577.812944 kJ/mol
# Density = 2.064587 g / cm^3
# Si number density = 20.692970 Si / 1000 Ang^3
#
#
#
# Elastic Constant Matrix: (Units=GPa)
#
#
# Indices 1 2 3 4 5 6 
#
# 1 127.6632 -2.0728 29.1425 0.0000 0.0000 0.0000
# 2 -2.0728 51.9664 3.9727 0.0000 0.0000 0.0000
# 3 29.1425 3.9727 44.6259 0.0000 0.0000 0.0000
# 4 0.0000 0.0000 0.0000 212.3251 0.0000 0.0000
# 5 0.0000 0.0000 0.0000 0.0000 -61.3030 0.0000
# 6 0.0000 0.0000 0.0000 0.0000 0.0000 28.9623
#
#
#
# Elastic Compliance Matrix: (Units=1/GPa)
#
#
# Indices 1 2 3 4 5 6 
#
# 1 0.009241 0.000836 -0.006109 0.000000 0.000000 0.000000
# 2 0.000836 0.019451 -0.002277 0.000000 0.000000 0.000000
# 3 -0.006109 -0.002277 0.026601 0.000000 0.000000 0.000000
# 4 0.000000 0.000000 0.000000 0.004710 0.000000 0.000000
# 5 0.000000 0.000000 0.000000 0.000000 -0.016312 0.000000
# 6 0.000000 0.000000 0.000000 0.000000 0.000000 0.034528
#
#
# Mechanical properties :
#
#
# Convention : Reuss Voigt Hill
#
# Bulk Modulus (GPa) = 24.88123 31.81557 28.34840
# Shear Modulus (GPa) = 46.85304 48.87775 47.86539
#
# Velocity S-wave (km/s) = 4.76352 4.86536 4.81471
# Velocity P-wave (km/s) = 6.50423 6.85352 6.68116
#
# Compressibility (1/GPa) = 0.04019094
#
# Stress axis : x y z
#
# Youngs Moduli (GPa) = 108.20995 51.41217 37.59274
#
# Poissons Ratio (x) = -0.04296 0.22967
# Poissons Ratio (y) = -0.09043 0.08561
# Poissons Ratio (z) = 0.66109 0.11708
#
# Static dielectric constant tensor:
#      x y z
#    x 1.650830 0.000000 0.000000 
#    y 0.000000 1.965380 0.000000 
#    z 0.000000 0.000000 1.657480 
# 
# From -- ./inp_files/22805.got.cif
#   From: 2010.05.17/outbox.cif.g08.bks.cpg/sg20_12_cif.got.tgz:22805.got - 2010.06.03 22:52:26.
