data_PCOD9318688
_publ_section_title
;
Structure prediction by ZEFSAII (Michael W. Deem and Ramdas Pophale) SiO2 
 PCOD9318688
Probable space group: C 2 2 21
;
_chemical_formula_sum "Si O2"
_cell_formula_units_Z 48
_cell_length_a 9.711734
_cell_length_b 16.647721
_cell_length_c 14.784340
_cell_angle_alpha 90.000000
_cell_angle_beta 90.000000
_cell_angle_gamma 90.000000
_cell_volume 2390.306042
_symmetry_space_group_name_H-M "C 2 2 21"
_symmetry_group_IT_number 20
_symmetry_cell_setting 'orthorhombic'
loop_
_space_group_symop_operation_xyz
x,y,z
-x,-y,1/2+z
x,-y,-z
-x,y,1/2-z
1/2+x,1/2+y,z
1/2-x,1/2-y,1/2+z
1/2+x,1/2-y,-z
1/2-x,1/2+y,1/2-z
loop_
_atom_site_type_symbol
_atom_site_label
_atom_site_fract_x
_atom_site_fract_y
_atom_site_fract_z
Si Si1 0.383639 0.094613 0.672576
Si Si2 0.129202 0.938508 0.198425
Si Si3 0.962074 0.772721 0.396787
Si Si4 0.715371 0.751554 0.073057
Si Si5 0.711609 0.922442 0.620503
Si Si6 0.497064 0.000000 0.500000
Si Si7 0.500000 0.137765 0.250000
O O1 0.500000 0.091023 0.750000
O O2 0.242711 0.077420 0.725111
O O3 0.366531 0.183842 0.632140
O O4 0.415861 0.036940 0.585994
O O5 0.081167 0.855339 0.152469
O O6 0.000000 0.976042 0.250000
O O7 0.193073 0.999974 0.126477
O O8 0.856967 0.754316 0.476669
O O9 0.953271 0.698238 0.328162
O O10 0.122422 0.776024 0.427956
O O11 0.711351 0.661392 0.111731
O O12 0.622648 0.915825 0.712181
O O13 0.599520 0.932728 0.540996
#
# Coordination Sequence:
#
# PCOD9318688 Si02
#       7
#     8   8   8   8   8   4   4
#     4  12  25  46  77 102 139 192 244 290 355 434
#     4  12  23  45  69 102 145 182 222 300 367 415
#     4  11  23  45  70  97 139 181 231 288 357 417
#     4  11  25  44  68 103 134 183 236 291 350 420
#     4  11  23  42  68  99 136 179 227 291 346 413
#     4  12  24  46  72 104 134 188 252 282 346 444
#     4  10  20  44  70  92 126 182 230 274 334 430
#
# _framework density 20.081111
#
# number of rings (size 3 to 8) (size 9 to 14) (size 15 to 20)
#    0.000    0.667    4.167    5.000    2.333    0.667 
#    6.000    0.000    0.000    0.000    0.000    0.000 
#    0.000    0.000    0.000    0.000    0.000    0.000 
#
# Total GULP energy -134133.301226 kJ/mol
# GULP energy per Si atom -5588.887551 kJ/mol
# Density = 2.003541 g / cm^3
# Si number density = 20.081111 Si / 1000 Ang^3
#
#
#
# Elastic Constant Matrix: (Units=GPa)
#
#
# Indices 1 2 3 4 5 6 
#
# 1 100.7779 31.6173 62.2269 0.0000 0.0000 0.0000
# 2 31.6173 120.9615 36.9373 0.0000 0.0000 0.0000
# 3 62.2269 36.9373 120.6004 0.0000 0.0000 0.0000
# 4 0.0000 0.0000 0.0000 30.3246 0.0000 0.0000
# 5 0.0000 0.0000 0.0000 0.0000 47.2536 0.0000
# 6 0.0000 0.0000 0.0000 0.0000 0.0000 18.9603
#
#
#
# Elastic Compliance Matrix: (Units=1/GPa)
#
#
# Indices 1 2 3 4 5 6 
#
# 1 0.014874 -0.001704 -0.007153 0.000000 0.000000 0.000000
# 2 -0.001704 0.009315 -0.001974 0.000000 0.000000 0.000000
# 3 -0.007153 -0.001974 0.012587 0.000000 0.000000 0.000000
# 4 0.000000 0.000000 0.000000 0.032977 0.000000 0.000000
# 5 0.000000 0.000000 0.000000 0.000000 0.021162 0.000000
# 6 0.000000 0.000000 0.000000 0.000000 0.000000 0.052742
#
#
# Mechanical properties :
#
#
# Convention : Reuss Voigt Hill
#
# Bulk Modulus (GPa) = 66.15782 67.10031 66.62906
# Shear Modulus (GPa) = 29.35026 33.41158 31.38092
#
# Velocity S-wave (km/s) = 3.82722 4.08343 3.95740
# Velocity P-wave (km/s) = 7.24893 7.46457 7.35754
#
# Compressibility (1/GPa) = 0.01511537
#
# Stress axis : x y z
#
# Youngs Moduli (GPa) = 67.23197 107.35163 79.44632
#
# Poissons Ratio (x) = 0.18288 0.56826
# Poissons Ratio (y) = 0.11453 0.15683
# Poissons Ratio (z) = 0.48090 0.21192
#
# Static dielectric constant tensor:
#      x y z
#    x 1.734930 0.000000 0.000000 
#    y 0.000000 1.724480 0.000000 
#    z 0.000000 0.000000 1.897260 
# 
# From -- ./inp_files/18932.got.cif
#   From: 2010.05.17/outbox.cif.g08.bks.cpg/sg20_10_cif.got.tgz:18932.got - 2010.06.03 22:52:26.
