data_PCOD9318288
_publ_section_title
;
Structure prediction by ZEFSAII (Michael W. Deem and Ramdas Pophale) SiO2 
 PCOD9318288
Probable space group: C 2 2 21
;
_chemical_formula_sum "Si O2"
_cell_formula_units_Z 56
_cell_length_a 8.606170
_cell_length_b 24.366336
_cell_length_c 12.842535
_cell_angle_alpha 90.000000
_cell_angle_beta 90.000000
_cell_angle_gamma 90.000000
_cell_volume 2693.090247
_symmetry_space_group_name_H-M "C 2 2 21"
_symmetry_group_IT_number 20
_symmetry_cell_setting 'orthorhombic'
loop_
_space_group_symop_operation_xyz
x,y,z
-x,-y,1/2+z
x,-y,-z
-x,y,1/2-z
1/2+x,1/2+y,z
1/2-x,1/2-y,1/2+z
1/2+x,1/2-y,-z
1/2-x,1/2+y,1/2-z
loop_
_atom_site_type_symbol
_atom_site_label
_atom_site_fract_x
_atom_site_fract_y
_atom_site_fract_z
Si Si1 0.168261 0.683583 0.193441
Si Si2 0.221853 0.303674 0.337348
Si Si3 0.662297 0.520861 0.811799
Si Si4 0.507619 0.146679 0.501450
Si Si5 0.296532 0.104738 0.662829
Si Si6 0.789240 0.895863 0.639124
Si Si7 0.036585 0.881371 0.055188
O O1 0.249627 0.742261 0.198174
O O2 0.266749 0.637779 0.254532
O O3 0.000000 0.687786 0.250000
O O4 0.125621 0.668874 0.074672
O O5 0.185946 0.343721 0.240743
O O6 0.376597 0.330222 0.390051
O O7 0.089295 0.308097 0.425373
O O8 0.500000 0.515697 0.750000
O O9 0.779327 0.551267 0.733652
O O10 0.711639 0.460610 0.843255
O O11 0.627221 0.563940 0.904299
O O12 0.434824 0.103457 0.581247
O O13 0.642104 0.121021 0.431434
O O14 0.136155 0.113467 0.599300
O O15 0.937695 0.879476 0.568404
#
# Coordination Sequence:
#
# PCOD9318288 Si02
#       7
#     8   8   8   8   8   8   8
#     4  10  22  40  59  86 124 160 198 249 301 357
#     4  10  20  39  62  86 118 158 202 250 300 353
#     4   9  19  38  63  88 117 154 202 249 291 351
#     4  10  23  40  59  89 123 157 198 244 305 366
#     4  10  20  39  63  90 118 153 204 252 297 358
#     4  10  21  40  61  89 125 159 197 246 304 357
#     4   9  19  36  65  90 112 157 203 248 299 352
#
# _framework density 20.793956000000001
#
# number of rings (size 3 to 8) (size 9 to 14) (size 15 to 20)
#    0.000    2.286    0.000    3.000    0.000    5.714 
#    0.000   26.429    0.000    0.000    0.000    0.000 
#    0.000    0.000    0.000    0.000    0.000    0.000 
#
# Total GULP energy -156435.386134 kJ/mol
# GULP energy per Si atom -5586.978076 kJ/mol
# Density = 2.074663 g / cm^3
# Si number density = 20.793956 Si / 1000 Ang^3
#
#
#
# Elastic Constant Matrix: (Units=GPa)
#
#
# Indices 1 2 3 4 5 6 
#
# 1 37.3453 4.0482 35.3046 0.0000 0.0000 0.0000
# 2 4.0482 86.3084 37.4288 0.0000 0.0000 0.0000
# 3 35.3046 37.4288 95.3489 0.0000 0.0000 0.0000
# 4 0.0000 0.0000 0.0000 17.2192 0.0000 0.0000
# 5 0.0000 0.0000 0.0000 0.0000 38.1765 0.0000
# 6 0.0000 0.0000 0.0000 0.0000 0.0000 7.4008
#
#
#
# Elastic Compliance Matrix: (Units=1/GPa)
#
#
# Indices 1 2 3 4 5 6 
#
# 1 0.043612 0.005974 -0.018493 0.000000 0.000000 0.000000
# 2 0.005974 0.014782 -0.008015 0.000000 0.000000 0.000000
# 3 -0.018493 -0.008015 0.020481 0.000000 0.000000 0.000000
# 4 0.000000 0.000000 0.000000 0.058075 0.000000 0.000000
# 5 0.000000 0.000000 0.000000 0.000000 0.026194 0.000000
# 6 0.000000 0.000000 0.000000 0.000000 0.000000 0.135120
#
#
# Mechanical properties :
#
#
# Convention : Reuss Voigt Hill
#
# Bulk Modulus (GPa) = 26.44938 41.39623 33.92280
# Shear Modulus (GPa) = 14.20718 22.04071 18.12395
#
# Velocity S-wave (km/s) = 2.61671 3.25923 2.95548
# Velocity P-wave (km/s) = 4.67728 5.84076 5.29110
#
# Compressibility (1/GPa) = 0.03780807
#
# Stress axis : x y z
#
# Youngs Moduli (GPa) = 22.92930 67.65083 48.82478
#
# Poissons Ratio (x) = -0.40417 0.90294
# Poissons Ratio (y) = -0.13699 0.39131
# Poissons Ratio (z) = 0.42404 0.54220
#
# Static dielectric constant tensor:
#      x y z
#    x 1.766220 0.000000 0.000000 
#    y 0.000000 1.691100 0.000000 
#    z 0.000000 0.000000 1.770440 
# 
# From -- ./inp_files/19192.got.cif
#   From: 2010.05.17/outbox.cif.g08.bks.cpg/sg20_10_cif.got.tgz:19192.got - 2010.06.03 22:52:26.
