data_PCOD9318429
_publ_section_title
;
Structure prediction by ZEFSAII (Michael W. Deem and Ramdas Pophale) SiO2 
 PCOD9318429
Probable space group: C 2 2 21
;
_chemical_formula_sum "Si O2"
_cell_formula_units_Z 40
_cell_length_a 11.638794
_cell_length_b 7.506981
_cell_length_c 19.209131
_cell_angle_alpha 90.000000
_cell_angle_beta 90.000000
_cell_angle_gamma 90.000000
_cell_volume 1678.344140
_symmetry_space_group_name_H-M "C 2 2 21"
_symmetry_group_IT_number 20
_symmetry_cell_setting 'orthorhombic'
loop_
_space_group_symop_operation_xyz
x,y,z
-x,-y,1/2+z
x,-y,-z
-x,y,1/2-z
1/2+x,1/2+y,z
1/2-x,1/2-y,1/2+z
1/2+x,1/2-y,-z
1/2-x,1/2+y,1/2-z
loop_
_atom_site_type_symbol
_atom_site_label
_atom_site_fract_x
_atom_site_fract_y
_atom_site_fract_z
Si Si1 0.311775 0.399174 0.209414
Si Si2 0.174931 0.963397 0.080616
Si Si3 0.253000 0.077341 0.424156
Si Si4 0.529564 0.671655 0.352089
Si Si5 0.131652 0.514720 0.322569
O O1 0.242336 0.432157 0.137198
O O2 0.400988 0.562060 0.206811
O O3 0.224658 0.416817 0.272677
O O4 0.378271 0.212909 0.206209
O O5 0.169710 0.750006 0.091390
O O6 0.301366 0.026066 0.104164
O O7 0.084283 0.071521 0.126316
O O8 0.155472 0.000000 0.000000
O O9 0.120856 0.147698 0.416370
O O10 0.275591 0.000000 0.500000
O O11 0.526971 0.878973 0.331821
#
# Coordination Sequence:
#
# PCOD9318429 Si02
#       5
#     8   8   8   8   8
#     4  10  20  40  66  88 128 170 216 258 338 386
#     4  11  22  39  63  95 128 169 223 267 319 397
#     4   9  19  39  62  89 131 172 207 271 330 377
#     4   9  22  38  63  90 125 161 218 263 316 391
#     4  11  20  42  65  91 126 175 207 274 329 380
#
# _framework density 23.833013000000001
#
# number of rings (size 3 to 8) (size 9 to 14) (size 15 to 20)
#    1.200    0.800    2.000    1.800    0.000    0.800 
#    7.200    0.000    0.000    0.000    0.000    0.000 
#    0.000    0.000    0.000    0.000    0.000    0.000 
#
# Total GULP energy -111713.605298 kJ/mol
# GULP energy per Si atom -5585.680265 kJ/mol
# Density = 2.377877 g / cm^3
# Si number density = 23.833013 Si / 1000 Ang^3
#
#
#
# Elastic Constant Matrix: (Units=GPa)
#
#
# Indices 1 2 3 4 5 6 
#
# 1 79.1341 35.7125 15.7618 0.0000 0.0000 0.0000
# 2 35.7125 188.7055 13.9301 0.0000 0.0000 0.0000
# 3 15.7618 13.9301 107.2402 0.0000 0.0000 0.0000
# 4 0.0000 0.0000 0.0000 32.6589 0.0000 0.0000
# 5 0.0000 0.0000 0.0000 0.0000 19.8781 0.0000
# 6 0.0000 0.0000 0.0000 0.0000 0.0000 13.6763
#
#
#
# Elastic Compliance Matrix: (Units=1/GPa)
#
#
# Indices 1 2 3 4 5 6 
#
# 1 0.014134 -0.002546 -0.001747 0.000000 0.000000 0.000000
# 2 -0.002546 0.005809 -0.000380 0.000000 0.000000 0.000000
# 3 -0.001747 -0.000380 0.009631 0.000000 0.000000 0.000000
# 4 0.000000 0.000000 0.000000 0.030620 0.000000 0.000000
# 5 0.000000 0.000000 0.000000 0.000000 0.050307 0.000000
# 6 0.000000 0.000000 0.000000 0.000000 0.000000 0.073119
#
#
# Mechanical properties :
#
#
# Convention : Reuss Voigt Hill
#
# Bulk Modulus (GPa) = 49.43647 56.20987 52.82317
# Shear Modulus (GPa) = 25.03663 33.88768 29.46216
#
# Velocity S-wave (km/s) = 3.24466 3.77487 3.51977
# Velocity P-wave (km/s) = 5.90127 6.52960 6.22337
#
# Compressibility (1/GPa) = 0.02022798
#
# Stress axis : x y z
#
# Youngs Moduli (GPa) = 70.75346 172.14237 103.83155
#
# Poissons Ratio (x) = 0.43825 0.18135
# Poissons Ratio (y) = 0.18013 0.03950
# Poissons Ratio (z) = 0.12358 0.06548
#
# Static dielectric constant tensor:
#      x y z
#    x 1.901770 0.000000 0.000000 
#    y 0.000000 1.913330 0.000000 
#    z 0.000000 0.000000 1.913690 
# 
# From -- ./inp_files/27086.got.cif
#   From: 2010.05.17/outbox.cif.g08.bks.cpg/sg20_14_cif.got.tgz:27086.got - 2010.06.03 22:52:26.
