data_PCOD9318215
_publ_section_title
;
Structure prediction by ZEFSAII (Michael W. Deem and Ramdas Pophale) SiO2 
 PCOD9318215
Probable space group: C 2 2 21
;
_chemical_formula_sum "Si O2"
_cell_formula_units_Z 60
_cell_length_a 24.832125
_cell_length_b 11.986576
_cell_length_c 9.614360
_cell_angle_alpha 90.000000
_cell_angle_beta 90.000000
_cell_angle_gamma 90.000000
_cell_volume 2861.734959
_symmetry_space_group_name_H-M "C 2 2 21"
_symmetry_group_IT_number 20
_symmetry_cell_setting 'orthorhombic'
loop_
_space_group_symop_operation_xyz
x,y,z
-x,-y,1/2+z
x,-y,-z
-x,y,1/2-z
1/2+x,1/2+y,z
1/2-x,1/2-y,1/2+z
1/2+x,1/2-y,-z
1/2-x,1/2+y,1/2-z
loop_
_atom_site_type_symbol
_atom_site_label
_atom_site_fract_x
_atom_site_fract_y
_atom_site_fract_z
Si Si1 0.706179 0.656365 0.569072
Si Si2 0.924849 0.587978 0.760834
Si Si3 0.182231 0.544322 0.859535
Si Si4 0.000000 0.378614 0.750000
Si Si5 0.003828 0.709907 0.548995
Si Si6 0.336694 0.552023 0.217749
Si Si7 0.265850 0.907962 0.880370
Si Si8 0.456711 0.446700 0.850733
O O1 0.767892 0.617399 0.589302
O O2 0.674721 0.579584 0.682572
O O3 0.683404 0.617634 0.420420
O O4 0.708781 0.788822 0.583211
O O5 0.862533 0.601858 0.733127
O O6 0.948545 0.462557 0.756270
O O7 0.943428 0.640150 0.905628
O O8 0.956645 0.653312 0.639015
O O9 0.206938 0.448966 0.762531
O O10 0.154746 0.500000 0.000000
O O11 0.995384 0.305399 0.612755
O O12 0.014178 0.833032 0.602688
O O13 0.298093 0.591820 0.342678
O O14 0.400385 0.570218 0.229391
O O15 0.274906 0.000000 0.000000
O O16 0.500000 0.506494 0.750000
O O17 0.442888 0.500000 0.000000
#
# Coordination Sequence:
#
# PCOD9318215 Si02
#       8
#     8   8   8   4   8   8   8   8
#     4  10  21  44  67  93 138 177 223 269 346 410
#     4  10  20  40  63  96 140 173 220 272 339 407
#     4  11  22  40  65 100 135 185 225 267 350 416
#     4  10  20  38  64  94 138 172 220 278 344 402
#     4  10  22  41  64  96 128 180 218 278 348 389
#     4  10  23  48  68  93 137 189 210 287 355 394
#     4  11  26  40  70 109 132 171 240 281 332 425
#     4  12  26  47  70  95 128 174 240 281 341 416
#
# _framework density 20.966304000000001
#
# number of rings (size 3 to 8) (size 9 to 14) (size 15 to 20)
#    0.000    1.600    5.333    2.400    6.533    2.667 
#    0.000    1.333    0.000    0.000    0.000    0.000 
#    0.000    0.000    0.000    0.000    0.000    0.000 
#
# Total GULP energy -167480.582331 kJ/mol
# GULP energy per Si atom -5582.686078 kJ/mol
# Density = 2.091858 g / cm^3
# Si number density = 20.966304 Si / 1000 Ang^3
#
#
#
# Elastic Constant Matrix: (Units=GPa)
#
#
# Indices 1 2 3 4 5 6 
#
# 1 86.0639 -2.8573 -1.2937 0.0000 0.0000 0.0000
# 2 -2.8573 93.2851 23.3208 0.0000 0.0000 0.0000
# 3 -1.2937 23.3208 86.2417 0.0000 0.0000 0.0000
# 4 0.0000 0.0000 0.0000 13.3198 0.0000 0.0000
# 5 0.0000 0.0000 0.0000 0.0000 22.2203 0.0000
# 6 0.0000 0.0000 0.0000 0.0000 0.0000 -2.5565
#
#
#
# Elastic Compliance Matrix: (Units=1/GPa)
#
#
# Indices 1 2 3 4 5 6 
#
# 1 0.011632 0.000335 0.000084 0.000000 0.000000 0.000000
# 2 0.000335 0.011507 -0.003107 0.000000 0.000000 0.000000
# 3 0.000084 -0.003107 0.012437 0.000000 0.000000 0.000000
# 4 0.000000 0.000000 0.000000 0.075076 0.000000 0.000000
# 5 0.000000 0.000000 0.000000 0.000000 0.045004 0.000000
# 6 0.000000 0.000000 0.000000 0.000000 0.000000 -0.391160
#
#
# Mechanical properties :
#
#
# Convention : Reuss Voigt Hill
#
# Bulk Modulus (GPa) = 33.11235 33.77004 33.44119
# Shear Modulus (GPa) = -22.72071 23.02479 0.15204
#
# Velocity S-wave (km/s) = -3.29550 3.31748 0.26958
# Velocity P-wave (km/s) = 1.16061 5.55121 4.01017
#
# Compressibility (1/GPa) = 0.03020021
#
# Stress axis : x y z
#
# Youngs Moduli (GPa) = 85.97225 86.90584 80.40771
#
# Poissons Ratio (x) = -0.02914 -0.00674
# Poissons Ratio (y) = -0.02883 0.24979
# Poissons Ratio (z) = -0.00721 0.26997
#
# Static dielectric constant tensor:
#      x y z
#    x 1.779930 0.000000 0.000000 
#    y 0.000000 1.783980 0.000000 
#    z 0.000000 0.000000 1.760190 
# 
# From -- ./inp_files/11162.got.cif
#   From: 2010.05.17/outbox.cif.g08.bks.cpg/sg20_6_cif.got.tgz:11162.got - 2010.06.03 22:52:26.
