data_PCOD9318182
_publ_section_title
;
Structure prediction by ZEFSAII (Michael W. Deem and Ramdas Pophale) SiO2 
 PCOD9318182
Probable space group: C 2 2 21
;
_chemical_formula_sum "Si O2"
_cell_formula_units_Z 40
_cell_length_a 8.695634
_cell_length_b 11.207970
_cell_length_c 18.816140
_cell_angle_alpha 90.000000
_cell_angle_beta 90.000000
_cell_angle_gamma 90.000000
_cell_volume 1833.828625
_symmetry_space_group_name_H-M "C 2 2 21"
_symmetry_group_IT_number 20
_symmetry_cell_setting 'orthorhombic'
loop_
_space_group_symop_operation_xyz
x,y,z
-x,-y,1/2+z
x,-y,-z
-x,y,1/2-z
1/2+x,1/2+y,z
1/2-x,1/2-y,1/2+z
1/2+x,1/2-y,-z
1/2-x,1/2+y,1/2-z
loop_
_atom_site_type_symbol
_atom_site_label
_atom_site_fract_x
_atom_site_fract_y
_atom_site_fract_z
Si Si1 0.157059 0.623779 0.561612
Si Si2 0.537726 0.743484 0.955815
Si Si3 0.919559 0.305253 0.322602
Si Si4 0.086555 0.922236 0.913435
Si Si5 0.410670 0.609737 0.824328
O O1 0.278362 0.735197 0.556232
O O2 0.270109 0.510938 0.572749
O O3 0.042086 0.644583 0.494539
O O4 0.047682 0.632100 0.629174
O O5 0.461289 0.711389 0.881018
O O6 0.520812 0.635503 0.014005
O O7 0.864890 0.190854 0.367013
O O8 0.770044 0.385006 0.310391
O O9 0.000000 0.268632 0.250000
O O10 0.962717 0.992047 0.866568
O O11 0.500000 0.620073 0.750000
#
# Coordination Sequence:
#
# PCOD9318182 Si02
#       5
#     8   8   8   8   8
#     4  10  20  38  63  89 122 159 204 255 308 368
#     4  10  20  38  63  91 120 159 207 257 309 367
#     4  11  23  40  62  92 128 166 209 256 310 375
#     4  10  22  42  65  89 123 164 207 261 315 364
#     4  11  22  40  64  89 125 166 205 255 314 370
#
# _framework density 21.812290000000001
#
# number of rings (size 3 to 8) (size 9 to 14) (size 15 to 20)
#    0.000    1.600    0.000    7.800    0.000    0.000 
#    0.000   25.000    0.000    2.400    0.000    0.000 
#    0.000    0.000    0.000    0.000    0.000    0.000 
#
# Total GULP energy -111607.605805 kJ/mol
# GULP energy per Si atom -5580.380290 kJ/mol
# Density = 2.176264 g / cm^3
# Si number density = 21.812290 Si / 1000 Ang^3
#
#
#
# Elastic Constant Matrix: (Units=GPa)
#
#
# Indices 1 2 3 4 5 6 
#
# 1 153.2661 38.3463 45.4137 0.0000 0.0000 0.0000
# 2 38.3463 77.2281 22.4703 0.0000 0.0000 0.0000
# 3 45.4137 22.4703 160.5459 0.0000 0.0000 0.0000
# 4 0.0000 0.0000 0.0000 22.2260 0.0000 0.0000
# 5 0.0000 0.0000 0.0000 0.0000 42.6822 0.0000
# 6 0.0000 0.0000 0.0000 0.0000 0.0000 30.4150
#
#
#
# Elastic Compliance Matrix: (Units=1/GPa)
#
#
# Indices 1 2 3 4 5 6 
#
# 1 0.007899 -0.003411 -0.001757 0.000000 0.000000 0.000000
# 2 -0.003411 0.014971 -0.001131 0.000000 0.000000 0.000000
# 3 -0.001757 -0.001131 0.006884 0.000000 0.000000 0.000000
# 4 0.000000 0.000000 0.000000 0.044992 0.000000 0.000000
# 5 0.000000 0.000000 0.000000 0.000000 0.023429 0.000000
# 6 0.000000 0.000000 0.000000 0.000000 0.000000 0.032879
#
#
# Mechanical properties :
#
#
# Convention : Reuss Voigt Hill
#
# Bulk Modulus (GPa) = 58.28441 67.05563 62.67002
# Shear Modulus (GPa) = 33.47417 38.05195 35.76306
#
# Velocity S-wave (km/s) = 3.92171 4.18127 4.05357
# Velocity P-wave (km/s) = 6.87643 7.35660 7.12057
#
# Compressibility (1/GPa) = 0.01715725
#
# Stress axis : x y z
#
# Youngs Moduli (GPa) = 126.60609 66.79517 145.26516
#
# Poissons Ratio (x) = 0.22782 0.25521
# Poissons Ratio (y) = 0.43181 0.16424
# Poissons Ratio (z) = 0.22243 0.07552
#
# Static dielectric constant tensor:
#      x y z
#    x 1.792260 0.000000 0.000000 
#    y 0.000000 1.880280 0.000000 
#    z 0.000000 0.000000 1.821020 
# 
# From -- ./inp_files/26508.got.cif
#   From: 2010.05.17/outbox.cif.g08.bks.cpg/sg20_14_cif.got.tgz:26508.got - 2010.06.03 22:52:26.
