data_PCOD9318941
_publ_section_title
;
Structure prediction by ZEFSAII (Michael W. Deem and Ramdas Pophale) SiO2 
 PCOD9318941
Probable space group: C 2 2 21
;
_chemical_formula_sum "Si O2"
_cell_formula_units_Z 32
_cell_length_a 27.067657
_cell_length_b 11.812697
_cell_length_c 5.054713
_cell_angle_alpha 90.000000
_cell_angle_beta 90.000000
_cell_angle_gamma 90.000000
_cell_volume 1616.204199
_symmetry_space_group_name_H-M "C 2 2 21"
_symmetry_group_IT_number 20
_symmetry_cell_setting 'orthorhombic'
loop_
_space_group_symop_operation_xyz
x,y,z
-x,-y,1/2+z
x,-y,-z
-x,y,1/2-z
1/2+x,1/2+y,z
1/2-x,1/2-y,1/2+z
1/2+x,1/2-y,-z
1/2-x,1/2+y,1/2-z
loop_
_atom_site_type_symbol
_atom_site_label
_atom_site_fract_x
_atom_site_fract_y
_atom_site_fract_z
Si Si1 0.719472 0.077997 0.248247
Si Si2 0.163697 0.899202 0.777087
Si Si3 0.139248 0.232131 0.731686
Si Si4 0.941777 0.579301 0.247370
O O1 0.777636 0.105167 0.224695
O O2 0.687626 0.189470 0.300273
O O3 0.713130 0.000000 0.500000
O O4 0.704211 0.000000 0.000000
O O5 0.141244 0.871072 0.483814
O O6 0.142831 0.800763 0.961008
O O7 0.157173 0.000000 0.000000
O O8 0.091284 0.310094 0.710609
O O9 0.930506 0.500000 0.500000
O O10 0.000000 0.608247 0.250000
O O11 0.931866 0.500000 0.000000
#
# Coordination Sequence:
#
# PCOD9318941 Si02
#       4
#     8   8   8   8
#     4  11  21  35  54  82 116 147 186 232 281 336
#     4  11  23  37  53  79 115 154 195 234 271 322
#     4  12  21  36  59  82 111 152 192 227 282 342
#     4  10  21  38  60  89 118 141 176 233 297 354
#
# _framework density 19.799479999999999
#
# number of rings (size 3 to 8) (size 9 to 14) (size 15 to 20)
#    0.000    1.000    0.000    9.750    0.000    0.000 
#    0.000    0.000    0.000    3.000    0.000    1.750 
#    0.000    0.000    0.000    0.000    0.000    0.000 
#
# Total GULP energy -89168.416163 kJ/mol
# GULP energy per Si atom -5573.026010 kJ/mol
# Density = 1.975442 g / cm^3
# Si number density = 19.799480 Si / 1000 Ang^3
#
#
#
# Elastic Constant Matrix: (Units=GPa)
#
#
# Indices 1 2 3 4 5 6 
#
# 1 49.8657 29.9393 26.4479 0.0000 0.0000 0.0000
# 2 29.9393 49.8122 22.0285 0.0000 0.0000 0.0000
# 3 26.4479 22.0285 152.5854 0.0000 0.0000 0.0000
# 4 0.0000 0.0000 0.0000 92.7758 0.0000 0.0000
# 5 0.0000 0.0000 0.0000 0.0000 20.5736 0.0000
# 6 0.0000 0.0000 0.0000 0.0000 0.0000 47.9776
#
#
#
# Elastic Compliance Matrix: (Units=1/GPa)
#
#
# Indices 1 2 3 4 5 6 
#
# 1 0.032627 -0.018276 -0.003017 0.000000 0.000000 0.000000
# 2 -0.018276 0.031682 -0.001406 0.000000 0.000000 0.000000
# 3 -0.003017 -0.001406 0.007280 0.000000 0.000000 0.000000
# 4 0.000000 0.000000 0.000000 0.010779 0.000000 0.000000
# 5 0.000000 0.000000 0.000000 0.000000 0.048606 0.000000
# 6 0.000000 0.000000 0.000000 0.000000 0.000000 0.020843
#
#
# Mechanical properties :
#
#
# Convention : Reuss Voigt Hill
#
# Bulk Modulus (GPa) = 38.18163 45.45497 41.81830
# Shear Modulus (GPa) = 24.27847 43.85524 34.06685
#
# Velocity S-wave (km/s) = 3.50554 4.71145 4.15250
# Velocity P-wave (km/s) = 5.97587 7.25290 6.64513
#
# Compressibility (1/GPa) = 0.02619060
#
# Stress axis : x y z
#
# Youngs Moduli (GPa) = 30.64964 31.56377 137.37015
#
# Poissons Ratio (x) = 0.57686 0.41442
# Poissons Ratio (y) = 0.56015 0.19315
# Poissons Ratio (z) = 0.09246 0.04438
#
# Static dielectric constant tensor:
#      x y z
#    x 1.653460 0.000000 0.000000 
#    y 0.000000 1.737770 0.000000 
#    z 0.000000 0.000000 1.687110 
# 
# From -- ./inp_files/689.got.cif
#   From: 2010.05.17/outbox.cif.g08.bks.cpg/sg20_1_cif.got.tgz:689.got - 2010.06.03 22:52:26.
