data_PCOD9318902
_publ_section_title
;
Structure prediction by ZEFSAII (Michael W. Deem and Ramdas Pophale) SiO2 
 PCOD9318902
Probable space group: C 2 2 21
;
_chemical_formula_sum "Si O2"
_cell_formula_units_Z 56
_cell_length_a 22.949105
_cell_length_b 5.021091
_cell_length_c 20.869881
_cell_angle_alpha 90.000000
_cell_angle_beta 90.000000
_cell_angle_gamma 90.000000
_cell_volume 2404.826883
_symmetry_space_group_name_H-M "C 2 2 21"
_symmetry_group_IT_number 20
_symmetry_cell_setting 'orthorhombic'
loop_
_space_group_symop_operation_xyz
x,y,z
-x,-y,1/2+z
x,-y,-z
-x,y,1/2-z
1/2+x,1/2+y,z
1/2-x,1/2-y,1/2+z
1/2+x,1/2-y,-z
1/2-x,1/2+y,1/2-z
loop_
_atom_site_type_symbol
_atom_site_label
_atom_site_fract_x
_atom_site_fract_y
_atom_site_fract_z
Si Si1 0.728793 0.510145 0.097947
Si Si2 0.359983 0.835353 0.678196
Si Si3 0.223370 0.246965 0.721079
Si Si4 0.616902 0.800977 0.060896
Si Si5 0.010937 0.755568 0.178140
Si Si6 0.898521 0.000000 0.000000
Si Si7 0.323041 0.000000 0.000000
Si Si8 0.489991 0.270651 0.900343
O O1 0.692698 0.303708 0.140745
O O2 0.760719 0.708919 0.147624
O O3 0.677379 0.643770 0.056758
O O4 0.779657 0.392314 0.054797
O O5 0.337516 0.857725 0.750796
O O6 0.420240 0.681020 0.676133
O O7 0.375224 0.082688 0.633126
O O8 0.268914 0.441078 0.758665
O O9 0.552589 0.672912 0.065026
O O10 0.615115 0.000000 0.000000
O O11 0.993559 0.530759 0.126100
O O12 0.000000 0.659799 0.250000
O O13 0.981393 0.031385 0.159412
O O14 0.859586 0.752881 0.024887
O O15 0.939470 0.150413 0.051041
#
# Coordination Sequence:
#
# PCOD9318902 Si02
#       8
#     8   8   8   8   8   4   4   8
#     4  11  23  44  68 105 143 185 240 294 367 422
#     4  10  22  40  64 106 142 179 240 288 362 431
#     4  10  21  37  63  93 138 183 217 279 346 430
#     4  11  23  39  74 108 141 184 237 314 363 425
#     4  11  24  45  74 110 143 185 241 306 356 432
#     4  12  30  51  66  99 148 194 246 284 358 454
#     4  12  30  45  72  99 144 194 242 300 348 446
#     4  11  26  47  75 103 143 192 243 294 374 427
#
# _framework density 23.286498000000002
#
# number of rings (size 3 to 8) (size 9 to 14) (size 15 to 20)
#    0.000    1.143    2.857    2.143    8.000    2.857 
#    0.000    2.857    0.000    0.000    0.000    0.000 
#    0.000    0.000    0.000    0.000    0.000    0.000 
#
# Total GULP energy -156230.521587 kJ/mol
# GULP energy per Si atom -5579.661485 kJ/mol
# Density = 2.323350 g / cm^3
# Si number density = 23.286498 Si / 1000 Ang^3
#
#
#
# Elastic Constant Matrix: (Units=GPa)
#
#
# Indices 1 2 3 4 5 6 
#
# 1 96.0051 23.8562 31.1149 0.0000 0.0000 0.0000
# 2 23.8562 71.8851 12.4784 0.0000 0.0000 0.0000
# 3 31.1149 12.4784 77.4799 0.0000 0.0000 0.0000
# 4 0.0000 0.0000 0.0000 37.2675 0.0000 0.0000
# 5 0.0000 0.0000 0.0000 0.0000 30.6045 0.0000
# 6 0.0000 0.0000 0.0000 0.0000 0.0000 18.5653
#
#
#
# Elastic Compliance Matrix: (Units=1/GPa)
#
#
# Indices 1 2 3 4 5 6 
#
# 1 0.012751 -0.003439 -0.004567 0.000000 0.000000 0.000000
# 2 -0.003439 0.015239 -0.001073 0.000000 0.000000 0.000000
# 3 -0.004567 -0.001073 0.014913 0.000000 0.000000 0.000000
# 4 0.000000 0.000000 0.000000 0.026833 0.000000 0.000000
# 5 0.000000 0.000000 0.000000 0.000000 0.032675 0.000000
# 6 0.000000 0.000000 0.000000 0.000000 0.000000 0.053864
#
#
# Mechanical properties :
#
#
# Convention : Reuss Voigt Hill
#
# Bulk Modulus (GPa) = 40.41193 42.25214 41.33204
# Shear Modulus (GPa) = 27.37021 29.14882 28.25951
#
# Velocity S-wave (km/s) = 3.43208 3.54184 3.48740
# Velocity P-wave (km/s) = 5.75304 5.90847 5.83128
#
# Compressibility (1/GPa) = 0.02474517
#
# Stress axis : x y z
#
# Youngs Moduli (GPa) = 78.42739 65.62284 67.05406
#
# Poissons Ratio (x) = 0.22566 0.30621
# Poissons Ratio (y) = 0.26969 0.07197
# Poissons Ratio (z) = 0.35815 0.07043
#
# Static dielectric constant tensor:
#      x y z
#    x 1.895740 0.000000 0.000000 
#    y 0.000000 1.922760 0.000000 
#    z 0.000000 0.000000 2.045940 
# 
# From -- ./inp_files/28008.got.cif
#   From: 2010.05.17/outbox.cif.g08.bks.cpg/sg20_15_cif.got.tgz:28008.got - 2010.06.03 22:52:26.
