data_PCOD9318486
_publ_section_title
;
Structure prediction by ZEFSAII (Michael W. Deem and Ramdas Pophale) SiO2 
 PCOD9318486
Probable space group: C 2 2 21
;
_chemical_formula_sum "Si O2"
_cell_formula_units_Z 64
_cell_length_a 12.588464
_cell_length_b 14.238572
_cell_length_c 18.544259
_cell_angle_alpha 90.000000
_cell_angle_beta 90.000000
_cell_angle_gamma 90.000000
_cell_volume 3323.905455
_symmetry_space_group_name_H-M "C 2 2 21"
_symmetry_group_IT_number 20
_symmetry_cell_setting 'orthorhombic'
loop_
_space_group_symop_operation_xyz
x,y,z
-x,-y,1/2+z
x,-y,-z
-x,y,1/2-z
1/2+x,1/2+y,z
1/2-x,1/2-y,1/2+z
1/2+x,1/2-y,-z
1/2-x,1/2+y,1/2-z
loop_
_atom_site_type_symbol
_atom_site_label
_atom_site_fract_x
_atom_site_fract_y
_atom_site_fract_z
Si Si1 0.246154 0.981455 0.381085
Si Si2 0.700334 0.136776 0.025539
Si Si3 0.521732 0.795640 0.568123
Si Si4 0.414746 0.732580 0.435704
Si Si5 0.470634 0.615009 0.833045
Si Si6 0.369311 0.977787 0.915804
Si Si7 0.371456 0.520831 0.415027
Si Si8 0.544165 0.904874 0.170935
O O1 0.277415 0.925075 0.454538
O O2 0.347813 0.966648 0.329843
O O3 0.144640 0.931220 0.347107
O O4 0.230943 0.088474 0.411008
O O5 0.581005 0.135097 0.059213
O O6 0.686378 0.240080 0.988634
O O7 0.515709 0.743921 0.490230
O O8 0.516897 0.714527 0.626821
O O9 0.614408 0.866017 0.588555
O O10 0.399600 0.629840 0.405702
O O11 0.429443 0.810430 0.374127
O O12 0.500000 0.624854 0.750000
O O13 0.551817 0.544429 0.870533
O O14 0.249536 0.000624 0.894570
O O15 0.454179 0.036725 0.871142
O O16 0.384290 0.000000 0.000000
O O17 0.384073 0.500000 0.500000
O O18 0.500000 0.884361 0.250000
#
# Coordination Sequence:
#
# PCOD9318486 Si02
#       8
#     8   8   8   8   8   8   8   8
#     4  10  20  40  71  93 128 174 218 275 326 397
#     4   8  17  36  70  99 114 150 236 277 311 370
#     4  10  20  40  70  97 128 170 221 284 326 391
#     4   9  19  39  66  98 132 156 225 271 325 393
#     4  12  29  46  61  94 148 184 220 266 336 416
#     4  11  21  40  70  99 131 165 218 289 333 386
#     4  11  24  43  65  94 131 180 220 264 336 399
#     4  11  22  38  68 100 130 166 220 282 342 388
#
# _framework density 19.254458
#
# number of rings (size 3 to 8) (size 9 to 14) (size 15 to 20)
#    0.750    1.000    3.750    0.000    7.000    1.000 
#    0.000    1.250    0.000    0.000    0.000    0.000 
#    0.000    0.000    0.000    0.000    0.000    0.000 
#
# Total GULP energy -178138.564935 kJ/mol
# GULP energy per Si atom -5566.830154 kJ/mol
# Density = 1.921063 g / cm^3
# Si number density = 19.254458 Si / 1000 Ang^3
#
#
#
# Elastic Constant Matrix: (Units=GPa)
#
#
# Indices 1 2 3 4 5 6 
#
# 1 101.0950 40.3464 62.0267 0.0000 0.0000 0.0000
# 2 40.3464 110.5474 42.8853 0.0000 0.0000 0.0000
# 3 62.0267 42.8853 88.3727 0.0000 0.0000 0.0000
# 4 0.0000 0.0000 0.0000 19.5990 0.0000 0.0000
# 5 0.0000 0.0000 0.0000 0.0000 4.6554 0.0000
# 6 0.0000 0.0000 0.0000 0.0000 0.0000 16.4827
#
#
#
# Elastic Compliance Matrix: (Units=1/GPa)
#
#
# Indices 1 2 3 4 5 6 
#
# 1 0.017734 -0.002025 -0.011464 0.000000 0.000000 0.000000
# 2 -0.002025 0.011375 -0.004099 0.000000 0.000000 0.000000
# 3 -0.011464 -0.004099 0.021351 0.000000 0.000000 0.000000
# 4 0.000000 0.000000 0.000000 0.051023 0.000000 0.000000
# 5 0.000000 0.000000 0.000000 0.000000 0.214806 0.000000
# 6 0.000000 0.000000 0.000000 0.000000 0.000000 0.060670
#
#
# Mechanical properties :
#
#
# Convention : Reuss Voigt Hill
#
# Bulk Modulus (GPa) = 65.42752 65.61463 65.52108
# Shear Modulus (GPa) = 11.98382 18.46452 15.22417
#
# Velocity S-wave (km/s) = 2.49749 3.10009 2.81496
# Velocity P-wave (km/s) = 6.50929 6.85315 6.68343
#
# Compressibility (1/GPa) = 0.01528409
#
# Stress axis : x y z
#
# Youngs Moduli (GPa) = 56.39007 87.91220 46.83576
#
# Poissons Ratio (x) = 0.17801 0.53693
# Poissons Ratio (y) = 0.11418 0.19197
# Poissons Ratio (z) = 0.64647 0.36034
#
# Static dielectric constant tensor:
#      x y z
#    x 1.723540 0.000000 0.000000 
#    y 0.000000 1.696520 0.000000 
#    z 0.000000 0.000000 1.640570 
# 
# From -- ./inp_files/24461.got.cif
#   From: 2010.05.17/outbox.cif.g08.bks.cpg/sg20_13_cif.got.tgz:24461.got - 2010.06.03 22:52:26.
