data_PCOD9318218
_publ_section_title
;
Structure prediction by ZEFSAII (Michael W. Deem and Ramdas Pophale) SiO2 
 PCOD9318218
Probable space group: C 2 2 21
;
_chemical_formula_sum "Si O2"
_cell_formula_units_Z 48
_cell_length_a 19.373593
_cell_length_b 7.719087
_cell_length_c 14.506426
_cell_angle_alpha 90.000000
_cell_angle_beta 90.000000
_cell_angle_gamma 90.000000
_cell_volume 2169.384509
_symmetry_space_group_name_H-M "C 2 2 21"
_symmetry_group_IT_number 20
_symmetry_cell_setting 'orthorhombic'
loop_
_space_group_symop_operation_xyz
x,y,z
-x,-y,1/2+z
x,-y,-z
-x,y,1/2-z
1/2+x,1/2+y,z
1/2-x,1/2-y,1/2+z
1/2+x,1/2-y,-z
1/2-x,1/2+y,1/2-z
loop_
_atom_site_type_symbol
_atom_site_label
_atom_site_fract_x
_atom_site_fract_y
_atom_site_fract_z
Si Si1 0.278977 0.316868 0.393259
Si Si2 0.937304 0.585564 0.097086
Si Si3 0.917710 0.301357 0.245226
Si Si4 0.309046 0.322692 0.058577
Si Si5 0.409150 0.080622 0.398568
Si Si6 0.298971 0.543697 0.232131
O O1 0.240402 0.291751 0.491258
O O2 0.356224 0.239629 0.397500
O O3 0.278532 0.495436 0.336371
O O4 0.242344 0.190758 0.320601
O O5 0.906874 0.433922 0.160710
O O6 0.881412 0.730305 0.077481
O O7 0.013564 0.640124 0.130468
O O8 0.952133 0.500000 0.000000
O O9 0.893023 0.418803 0.331241
O O10 0.876070 0.123896 0.235441
O O11 0.000000 0.270581 0.250000
O O12 0.287925 0.384455 0.160878
O O13 0.317643 0.500000 0.000000
O O14 0.405134 0.000000 0.500000
#
# Coordination Sequence:
#
# PCOD9318218 Si02
#       6
#     8   8   8   8   8   8
#     4  11  23  40  61  91 127 165 210 263 322 390
#     4  10  20  38  65  90 121 168 212 259 320 384
#     4  10  22  41  66  94 124 165 219 270 323 390
#     4  10  22  39  63  94 128 166 213 265 319 391
#     4  10  21  40  62  88 125 164 206 259 321 387
#     4  11  23  40  63  89 125 164 208 270 327 386
#
# _framework density 22.126092
#
# number of rings (size 3 to 8) (size 9 to 14) (size 15 to 20)
#    0.000    1.667    0.000    5.500    0.000    2.667 
#    0.000    5.833    0.000    0.000    0.000    0.000 
#    0.000    0.000    0.000    0.000    0.000    0.000 
#
# Total GULP energy -133961.336606 kJ/mol
# GULP energy per Si atom -5581.722359 kJ/mol
# Density = 2.207573 g / cm^3
# Si number density = 22.126092 Si / 1000 Ang^3
#
#
#
# Elastic Constant Matrix: (Units=GPa)
#
#
# Indices 1 2 3 4 5 6 
#
# 1 93.6028 33.6308 33.6513 0.0000 0.0000 0.0000
# 2 33.6308 55.5315 48.1186 0.0000 0.0000 0.0000
# 3 33.6513 48.1186 161.0792 0.0000 0.0000 0.0000
# 4 0.0000 0.0000 0.0000 41.4917 0.0000 0.0000
# 5 0.0000 0.0000 0.0000 0.0000 24.9649 0.0000
# 6 0.0000 0.0000 0.0000 0.0000 0.0000 45.6387
#
#
#
# Elastic Compliance Matrix: (Units=1/GPa)
#
#
# Indices 1 2 3 4 5 6 
#
# 1 0.013686 -0.007841 -0.000517 0.000000 0.000000 0.000000
# 2 -0.007841 0.028789 -0.006962 0.000000 0.000000 0.000000
# 3 -0.000517 -0.006962 0.008396 0.000000 0.000000 0.000000
# 4 0.000000 0.000000 0.000000 0.024101 0.000000 0.000000
# 5 0.000000 0.000000 0.000000 0.000000 0.040056 0.000000
# 6 0.000000 0.000000 0.000000 0.000000 0.000000 0.021911
#
#
# Mechanical properties :
#
#
# Convention : Reuss Voigt Hill
#
# Bulk Modulus (GPa) = 49.42733 60.11280 54.77007
# Shear Modulus (GPa) = 28.68234 35.40659 32.04447
#
# Velocity S-wave (km/s) = 3.60434 4.00461 3.80974
# Velocity P-wave (km/s) = 6.30152 6.97208 6.64526
#
# Compressibility (1/GPa) = 0.02023172
#
# Stress axis : x y z
#
# Youngs Moduli (GPa) = 73.06505 34.73559 119.10620
#
# Poissons Ratio (x) = 0.27235 0.06158
# Poissons Ratio (y) = 0.57288 0.82922
# Poissons Ratio (z) = 0.03778 0.24183
#
# Static dielectric constant tensor:
#      x y z
#    x 1.922550 0.000000 0.000000 
#    y 0.000000 1.832120 0.000000 
#    z 0.000000 0.000000 1.835260 
# 
# From -- ./inp_files/21638.got.cif
#   From: 2010.05.17/outbox.cif.g08.bks.cpg/sg20_11_cif.got.tgz:21638.got - 2010.06.03 22:52:26.
