data_PCOD9318645
_publ_section_title
;
Structure prediction by ZEFSAII (Michael W. Deem and Ramdas Pophale) SiO2 
 PCOD9318645
Probable space group: C 2 2 21
;
_chemical_formula_sum "Si O2"
_cell_formula_units_Z 36
_cell_length_a 12.896888
_cell_length_b 12.481383
_cell_length_c 10.977397
_cell_angle_alpha 90.000000
_cell_angle_beta 90.000000
_cell_angle_gamma 90.000000
_cell_volume 1767.042558
_symmetry_space_group_name_H-M "C 2 2 21"
_symmetry_group_IT_number 20
_symmetry_cell_setting 'orthorhombic'
loop_
_space_group_symop_operation_xyz
x,y,z
-x,-y,1/2+z
x,-y,-z
-x,y,1/2-z
1/2+x,1/2+y,z
1/2-x,1/2-y,1/2+z
1/2+x,1/2-y,-z
1/2-x,1/2+y,1/2-z
loop_
_atom_site_type_symbol
_atom_site_label
_atom_site_fract_x
_atom_site_fract_y
_atom_site_fract_z
Si Si1 0.110080 0.166070 0.717944
Si Si2 0.336242 0.903844 0.327156
Si Si3 0.000000 0.758327 0.750000
Si Si4 0.406744 0.622872 0.045501
Si Si5 0.327938 0.137894 0.386405
O O1 0.216931 0.100262 0.716771
O O2 0.099312 0.195707 0.575467
O O3 0.127466 0.263308 0.811106
O O4 0.000000 0.111772 0.750000
O O5 0.403131 0.822193 0.249140
O O6 0.346797 0.864562 0.467949
O O7 0.369644 0.027122 0.329937
O O8 0.995560 0.834274 0.867136
O O9 0.297677 0.632473 0.116531
O O10 0.417966 0.500000 0.000000
#
# Coordination Sequence:
#
# PCOD9318645 Si02
#       5
#     8   8   4   8   8
#     4  11  22  39  66  93 125 168 220 261 320 388
#     4  10  22  40  64  90 126 170 206 267 327 378
#     4  12  24  42  66  94 130 164 222 266 316 396
#     4  11  23  41  66  93 129 173 216 268 329 373
#     4  10  20  43  63  89 130 169 212 266 328 378
#
# _framework density 20.373023
#
# number of rings (size 3 to 8) (size 9 to 14) (size 15 to 20)
#    0.000    1.333    6.667    1.333    3.111    0.000 
#    0.000    0.000    0.000    0.000    0.000    0.000 
#    0.000    0.000    0.000    0.000    0.000    0.000 
#
# Total GULP energy -100359.976863 kJ/mol
# GULP energy per Si atom -5575.554270 kJ/mol
# Density = 2.032665 g / cm^3
# Si number density = 20.373023 Si / 1000 Ang^3
#
#
#
# Elastic Constant Matrix: (Units=GPa)
#
#
# Indices 1 2 3 4 5 6 
#
# 1 82.4179 16.3082 9.8582 0.0000 0.0000 0.0000
# 2 16.3082 72.3703 25.6316 0.0000 0.0000 0.0000
# 3 9.8582 25.6316 40.0523 0.0000 0.0000 0.0000
# 4 0.0000 0.0000 0.0000 40.3946 0.0000 0.0000
# 5 0.0000 0.0000 0.0000 0.0000 29.9495 0.0000
# 6 0.0000 0.0000 0.0000 0.0000 0.0000 11.5225
#
#
#
# Elastic Compliance Matrix: (Units=1/GPa)
#
#
# Indices 1 2 3 4 5 6 
#
# 1 0.012787 -0.002285 -0.001685 0.000000 0.000000 0.000000
# 2 -0.002285 0.018276 -0.011133 0.000000 0.000000 0.000000
# 3 -0.001685 -0.011133 0.032507 0.000000 0.000000 0.000000
# 4 0.000000 0.000000 0.000000 0.024756 0.000000 0.000000
# 5 0.000000 0.000000 0.000000 0.000000 0.033390 0.000000
# 6 0.000000 0.000000 0.000000 0.000000 0.000000 0.086786
#
#
# Mechanical properties :
#
#
# Convention : Reuss Voigt Hill
#
# Bulk Modulus (GPa) = 29.97305 33.15962 31.56634
# Shear Modulus (GPa) = 20.01371 25.90948 22.96159
#
# Velocity S-wave (km/s) = 3.13767 3.57004 3.36081
# Velocity P-wave (km/s) = 5.27927 5.77106 5.53063
#
# Compressibility (1/GPa) = 0.03336330
#
# Stress axis : x y z
#
# Youngs Moduli (GPa) = 78.20488 54.71735 30.76268
#
# Poissons Ratio (x) = 0.12501 0.05184
# Poissons Ratio (y) = 0.17867 0.34249
# Poissons Ratio (z) = 0.13180 0.60918
#
# Static dielectric constant tensor:
#      x y z
#    x 1.773740 0.000000 0.000000 
#    y 0.000000 1.701410 0.000000 
#    z 0.000000 0.000000 1.727870 
# 
# From -- ./inp_files/13654.got.cif
#   From: 2010.05.17/outbox.cif.g08.bks.cpg/sg20_7_cif.got.tgz:13654.got - 2010.06.03 22:52:26.
