data_PCOD9318958
_publ_section_title
;
Structure prediction by ZEFSAII (Michael W. Deem and Ramdas Pophale) SiO2 
 PCOD9318958
Probable space group: C 2 2 21
;
_chemical_formula_sum "Si O2"
_cell_formula_units_Z 56
_cell_length_a 32.766521
_cell_length_b 5.121816
_cell_length_c 15.537887
_cell_angle_alpha 90.000000
_cell_angle_beta 90.000000
_cell_angle_gamma 90.000000
_cell_volume 2607.631770
_symmetry_space_group_name_H-M "C 2 2 21"
_symmetry_group_IT_number 20
_symmetry_cell_setting 'orthorhombic'
loop_
_space_group_symop_operation_xyz
x,y,z
-x,-y,1/2+z
x,-y,-z
-x,y,1/2-z
1/2+x,1/2+y,z
1/2-x,1/2-y,1/2+z
1/2+x,1/2-y,-z
1/2-x,1/2+y,1/2-z
loop_
_atom_site_type_symbol
_atom_site_label
_atom_site_fract_x
_atom_site_fract_y
_atom_site_fract_z
Si Si1 0.275114 0.622628 0.230836
Si Si2 0.400816 0.349713 0.908102
Si Si3 0.405387 0.045285 0.335252
Si Si4 0.185861 0.265144 0.446012
Si Si5 0.634086 0.524419 0.222093
Si Si6 0.020791 0.259708 0.943555
Si Si7 0.033544 0.487580 0.314677
O O1 0.254754 0.338684 0.230219
O O2 0.286609 0.712984 0.135498
O O3 0.319212 0.611307 0.275604
O O4 0.361145 0.164552 0.921782
O O5 0.383915 0.492789 0.820594
O O6 0.441700 0.200823 0.878956
O O7 0.407281 0.500000 0.000000
O O8 0.368745 0.245481 0.323449
O O9 0.434816 0.146629 0.410398
O O10 0.392022 0.744115 0.329314
O O11 0.432688 0.087814 0.250471
O O12 0.203449 0.500000 0.500000
O O13 0.182805 0.000000 0.500000
O O14 0.989705 0.277643 0.863344
O O15 0.005804 0.500000 0.000000
O O16 0.021833 0.000000 0.000000
O O17 0.000000 0.357208 0.250000
#
# Coordination Sequence:
#
# PCOD9318958 Si02
#       7
#     8   8   8   8   8   8   8
#     4  11  22  38  64  95 125 158 197 240 294 365
#     4   9  20  36  59  90 122 158 203 250 299 360
#     4  10  21  41  62  81 115 158 201 244 293 354
#     4  10  21  38  61  90 126 161 195 244 307 362
#     4  10  21  38  63  89 117 158 199 240 293 357
#     4  11  24  40  60  85 113 152 200 256 306 343
#     4   9  21  39  58  84 121 163 203 248 307 365
#
# _framework density 21.475425000000001
#
# number of rings (size 3 to 8) (size 9 to 14) (size 15 to 20)
#    0.000    2.000    0.000    2.571    0.000   13.714 
#    0.000   10.000    0.000   17.143    0.000    0.000 
#    0.000    0.000    0.000    0.000    0.000    0.000 
#
# Total GULP energy -156222.910629 kJ/mol
# GULP energy per Si atom -5579.389665 kJ/mol
# Density = 2.142655 g / cm^3
# Si number density = 21.475425 Si / 1000 Ang^3
#
#
#
# Elastic Constant Matrix: (Units=GPa)
#
#
# Indices 1 2 3 4 5 6 
#
# 1 81.1566 8.5473 25.0875 0.0000 0.0000 0.0000
# 2 8.5473 68.4226 27.0170 0.0000 0.0000 0.0000
# 3 25.0875 27.0170 61.5891 0.0000 0.0000 0.0000
# 4 0.0000 0.0000 0.0000 37.6673 0.0000 0.0000
# 5 0.0000 0.0000 0.0000 0.0000 30.5630 0.0000
# 6 0.0000 0.0000 0.0000 0.0000 0.0000 94.1367
#
#
#
# Elastic Compliance Matrix: (Units=1/GPa)
#
#
# Indices 1 2 3 4 5 6 
#
# 1 0.014118 0.000613 -0.006020 0.000000 0.000000 0.000000
# 2 0.000613 0.017704 -0.008016 0.000000 0.000000 0.000000
# 3 -0.006020 -0.008016 0.022205 0.000000 0.000000 0.000000
# 4 0.000000 0.000000 0.000000 0.026548 0.000000 0.000000
# 5 0.000000 0.000000 0.000000 0.000000 0.032719 0.000000
# 6 0.000000 0.000000 0.000000 0.000000 0.000000 0.010623
#
#
# Mechanical properties :
#
#
# Convention : Reuss Voigt Hill
#
# Bulk Modulus (GPa) = 36.78896 36.94131 36.86514
# Shear Modulus (GPa) = 31.28473 42.50782 36.89627
#
# Velocity S-wave (km/s) = 3.82090 4.45384 4.14946
# Velocity P-wave (km/s) = 6.05257 6.60968 6.33725
#
# Compressibility (1/GPa) = 0.02718207
#
# Stress axis : x y z
#
# Youngs Moduli (GPa) = 70.83072 56.48599 45.03487
#
# Poissons Ratio (x) = -0.03465 0.27111
# Poissons Ratio (y) = -0.04345 0.36099
# Poissons Ratio (z) = 0.42639 0.45278
#
# Static dielectric constant tensor:
#      x y z
#    x 1.795490 0.000000 0.000000 
#    y 0.000000 1.731670 0.000000 
#    z 0.000000 0.000000 -0.086180 
# 
# From -- ./inp_files/22291.got.cif
#   From: 2010.05.17/outbox.cif.g08.bks.cpg/sg20_12_cif.got.tgz:22291.got - 2010.06.03 22:52:26.
