data_PCOD9318786
_publ_section_title
;
Structure prediction by ZEFSAII (Michael W. Deem and Ramdas Pophale) SiO2 
 PCOD9318786
Probable space group: C 2 2 21
;
_chemical_formula_sum "Si O2"
_cell_formula_units_Z 32
_cell_length_a 18.930780
_cell_length_b 18.930212
_cell_length_c 5.066196
_cell_angle_alpha 90.000000
_cell_angle_beta 90.000000
_cell_angle_gamma 90.000000
_cell_volume 1815.540636
_symmetry_space_group_name_H-M "C 2 2 21"
_symmetry_group_IT_number 20
_symmetry_cell_setting 'orthorhombic'
loop_
_space_group_symop_operation_xyz
x,y,z
-x,-y,1/2+z
x,-y,-z
-x,y,1/2-z
1/2+x,1/2+y,z
1/2-x,1/2-y,1/2+z
1/2+x,1/2-y,-z
1/2-x,1/2+y,1/2-z
loop_
_atom_site_type_symbol
_atom_site_label
_atom_site_fract_x
_atom_site_fract_y
_atom_site_fract_z
Si Si1 0.701016 0.000000 0.500000
Si Si2 0.000000 0.298987 0.250000
Si Si3 0.271895 0.155977 0.124541
Si Si4 0.000000 0.390971 0.750000
Si Si5 0.890962 0.500000 0.500000
Si Si6 0.655980 0.771899 0.125642
O O1 0.737940 0.071698 0.397948
O O2 0.654926 0.024505 0.751743
O O3 0.024497 0.345080 0.501742
O O4 0.928299 0.262061 0.351994
O O5 0.317692 0.182286 0.375125
O O6 0.197773 0.197772 0.125072
O O7 0.314346 0.185670 0.875130
O O8 0.939999 0.440005 0.625018
#
# Coordination Sequence:
#
# PCOD9318786 Si02
#       6
#     4   4   8   4   4   8
#     4  12  21  34  54  74 101 138 176 210 254 302
#     4  12  21  34  54  74 101 138 176 210 254 302
#     4  10  21  36  53  76 105 136 173 214 255 304
#     4  12  23  32  46  74 109 138 166 202 250 312
#     4  12  23  32  46  74 109 138 166 202 250 312
#     4  10  21  36  53  76 105 136 173 214 255 304
#
# _framework density 17.625603000000002
#
# number of rings (size 3 to 8) (size 9 to 14) (size 15 to 20)
#    0.000    1.000    0.000   10.500    0.000    0.000 
#    0.000    0.000    0.000    0.000    0.000   14.000 
#    0.000    0.000    0.000    0.000    0.000    0.000 
#
# Total GULP energy -89331.923777 kJ/mol
# GULP energy per Si atom -5583.245236 kJ/mol
# Density = 1.758549 g / cm^3
# Si number density = 17.625603 Si / 1000 Ang^3
#
#
#
# Elastic Constant Matrix: (Units=GPa)
#
#
# Indices 1 2 3 4 5 6 
#
# 1 127.6472 79.7530 36.6014 0.0000 0.0000 0.0000
# 2 79.7530 127.5657 36.5555 0.0000 0.0000 0.0000
# 3 36.6014 36.5555 146.5735 0.0000 0.0000 0.0000
# 4 0.0000 0.0000 0.0000 21.9238 0.0000 0.0000
# 5 0.0000 0.0000 0.0000 0.0000 21.9147 0.0000
# 6 0.0000 0.0000 0.0000 0.0000 0.0000 11.0478
#
#
#
# Elastic Compliance Matrix: (Units=1/GPa)
#
#
# Indices 1 2 3 4 5 6 
#
# 1 0.013089 -0.007804 -0.001322 0.000000 0.000000 0.000000
# 2 -0.007804 0.013096 -0.001317 0.000000 0.000000 0.000000
# 3 -0.001322 -0.001317 0.007481 0.000000 0.000000 0.000000
# 4 0.000000 0.000000 0.000000 0.045613 0.000000 0.000000
# 5 0.000000 0.000000 0.000000 0.000000 0.045632 0.000000
# 6 0.000000 0.000000 0.000000 0.000000 0.000000 0.090516
#
#
# Mechanical properties :
#
#
# Convention : Reuss Voigt Hill
#
# Bulk Modulus (GPa) = 78.25523 78.62291 78.43907
# Shear Modulus (GPa) = 20.78363 27.56901 24.17632
#
# Velocity S-wave (km/s) = 3.43763 3.95922 3.70761
# Velocity P-wave (km/s) = 7.76218 8.09967 7.93272
#
# Compressibility (1/GPa) = 0.01277870
#
# Stress axis : x y z
#
# Youngs Moduli (GPa) = 76.39773 76.35997 133.66849
#
# Poissons Ratio (x) = 0.59595 0.17673
# Poissons Ratio (y) = 0.59625 0.17607
# Poissons Ratio (z) = 0.10101 0.10058
#
# Static dielectric constant tensor:
#      x y z
#    x 1.631220 0.000000 0.000000 
#    y 0.000000 1.631200 0.000000 
#    z 0.000000 0.000000 1.651300 
# 
# From -- ./inp_files/1737.got.cif
#   From: 2010.05.17/outbox.cif.g08.bks.cpg/sg20_1_cif.got.tgz:1737.got - 2010.06.03 22:52:26.
