data_PCOD9318851
_publ_section_title
;
Structure prediction by ZEFSAII (Michael W. Deem and Ramdas Pophale) SiO2 
 PCOD9318851
Probable space group: C 2 2 21
;
_chemical_formula_sum "Si O2"
_cell_formula_units_Z 44
_cell_length_a 13.763418
_cell_length_b 12.424095
_cell_length_c 13.777384
_cell_angle_alpha 90.000000
_cell_angle_beta 90.000000
_cell_angle_gamma 90.000000
_cell_volume 2355.905285
_symmetry_space_group_name_H-M "C 2 2 21"
_symmetry_group_IT_number 20
_symmetry_cell_setting 'orthorhombic'
loop_
_space_group_symop_operation_xyz
x,y,z
-x,-y,1/2+z
x,-y,-z
-x,y,1/2-z
1/2+x,1/2+y,z
1/2-x,1/2-y,1/2+z
1/2+x,1/2-y,-z
1/2-x,1/2+y,1/2-z
loop_
_atom_site_type_symbol
_atom_site_label
_atom_site_fract_x
_atom_site_fract_y
_atom_site_fract_z
Si Si1 0.886599 0.851903 0.238870
Si Si2 0.915900 0.623454 0.818940
Si Si3 0.737343 0.760349 0.898744
Si Si4 0.289539 0.182230 0.099683
Si Si5 0.742782 0.961099 0.772790
Si Si6 0.920013 0.500000 0.000000
O O1 0.840787 0.811201 0.340600
O O2 0.858385 0.762702 0.159030
O O3 0.000000 0.864974 0.250000
O O4 0.831311 0.959647 0.209025
O O5 0.841335 0.712880 0.860357
O O6 0.847959 0.536033 0.761612
O O7 0.967059 0.560126 0.908756
O O8 0.000000 0.666540 0.750000
O O9 0.722915 0.881949 0.862369
O O10 0.733106 0.742848 0.013999
O O11 0.231569 0.118297 0.182699
O O12 0.352086 0.090976 0.046859
#
# Coordination Sequence:
#
# PCOD9318851 Si02
#       6
#     8   8   8   8   8   4
#     4  10  21  37  57  83 112 147 187 231 283 343
#     4   9  17  32  52  74  99 133 176 220 269 324
#     4   9  19  36  55  76 108 145 183 228 274 332
#     4   9  18  36  57  77 105 144 185 223 275 334
#     4   9  19  35  54  76 107 142 179 227 278 330
#     4   8  16  30  52  74  98 134 172 212 264 328
#
# _framework density 18.676470999999999
#
# number of rings (size 3 to 8) (size 9 to 14) (size 15 to 20)
#    0.000    2.909    0.000    1.091    0.000    8.000 
#    0.000   20.000    0.000    0.000    0.000    0.000 
#    0.000    0.000    0.000    0.000    0.000    0.000 
#
# Total GULP energy -122533.665755 kJ/mol
# GULP energy per Si atom -5569.712080 kJ/mol
# Density = 1.863396 g / cm^3
# Si number density = 18.676471 Si / 1000 Ang^3
#
#
#
# Elastic Constant Matrix: (Units=GPa)
#
#
# Indices 1 2 3 4 5 6 
#
# 1 56.9402 -2.2283 -0.2115 0.0000 0.0000 0.0000
# 2 -2.2283 69.1031 -2.4298 0.0000 0.0000 0.0000
# 3 -0.2115 -2.4298 55.2433 0.0000 0.0000 0.0000
# 4 0.0000 0.0000 0.0000 17.8777 0.0000 0.0000
# 5 0.0000 0.0000 0.0000 0.0000 19.5075 0.0000
# 6 0.0000 0.0000 0.0000 0.0000 0.0000 13.7205
#
#
#
# Elastic Compliance Matrix: (Units=1/GPa)
#
#
# Indices 1 2 3 4 5 6 
#
# 1 0.017585 0.000570 0.000092 0.000000 0.000000 0.000000
# 2 0.000570 0.014512 0.000640 0.000000 0.000000 0.000000
# 3 0.000092 0.000640 0.018130 0.000000 0.000000 0.000000
# 4 0.000000 0.000000 0.000000 0.055936 0.000000 0.000000
# 5 0.000000 0.000000 0.000000 0.000000 0.051262 0.000000
# 6 0.000000 0.000000 0.000000 0.000000 0.000000 0.072884
#
#
# Mechanical properties :
#
#
# Convention : Reuss Voigt Hill
#
# Bulk Modulus (GPa) = 18.92735 19.06083 18.99409
# Shear Modulus (GPa) = 20.38206 22.63155 21.50681
#
# Velocity S-wave (km/s) = 3.30710 3.48482 3.39712
# Velocity P-wave (km/s) = 4.97382 5.14003 5.05761
#
# Compressibility (1/GPa) = 0.05283359
#
# Stress axis : x y z
#
# Youngs Moduli (GPa) = 56.86685 68.90828 55.15638
#
# Poissons Ratio (x) = -0.03930 -0.00510
# Poissons Ratio (y) = -0.03243 -0.03533
# Poissons Ratio (z) = -0.00526 -0.04413
#
# Static dielectric constant tensor:
#      x y z
#    x 1.612050 0.000000 0.000000 
#    y 0.000000 1.657220 0.000000 
#    z 0.000000 0.000000 1.662390 
# 
# From -- ./inp_files/14980.got.cif
#   From: 2010.05.17/outbox.cif.g08.bks.cpg/sg20_8_cif.got.tgz:14980.got - 2010.06.03 22:52:26.
