data_PCOD9318792
_publ_section_title
;
Structure prediction by ZEFSAII (Michael W. Deem and Ramdas Pophale) SiO2 
 PCOD9318792
Probable space group: C 2 2 21
;
_chemical_formula_sum "Si O2"
_cell_formula_units_Z 40
_cell_length_a 8.497262
_cell_length_b 26.984038
_cell_length_c 7.897866
_cell_angle_alpha 90.000000
_cell_angle_beta 90.000000
_cell_angle_gamma 90.000000
_cell_volume 1810.905176
_symmetry_space_group_name_H-M "C 2 2 21"
_symmetry_group_IT_number 20
_symmetry_cell_setting 'orthorhombic'
loop_
_space_group_symop_operation_xyz
x,y,z
-x,-y,1/2+z
x,-y,-z
-x,y,1/2-z
1/2+x,1/2+y,z
1/2-x,1/2-y,1/2+z
1/2+x,1/2-y,-z
1/2-x,1/2+y,1/2-z
loop_
_atom_site_type_symbol
_atom_site_label
_atom_site_fract_x
_atom_site_fract_y
_atom_site_fract_z
Si Si1 0.779660 0.500000 0.000000
Si Si2 0.294841 0.695041 0.636273
Si Si3 0.598734 0.404728 0.017831
Si Si4 0.891596 0.775357 0.990082
Si Si5 0.716950 0.622591 0.360698
Si Si6 0.500000 0.062530 0.250000
O O1 0.663915 0.542327 0.929172
O O2 0.889747 0.527288 0.136477
O O3 0.322677 0.636747 0.636160
O O4 0.136188 0.720315 0.575638
O O5 0.424614 0.712968 0.499526
O O6 0.335074 0.717046 0.818056
O O7 0.410892 0.399868 0.992899
O O8 0.660673 0.391313 0.828783
O O9 0.799671 0.818241 0.886748
O O10 0.889161 0.597975 0.366235
#
# Coordination Sequence:
#
# PCOD9318792 Si02
#       6
#     4   8   8   8   8   4
#     4  10  22  38  58  84 116 152 194 242 288 336
#     4  10  21  36  56  83 113 146 190 232 280 343
#     4   9  19  38  58  78 110 155 196 231 281 349
#     4  10  21  36  56  84 115 149 185 232 286 343
#     4   9  19  37  58  81 112 149 188 233 289 342
#     4  10  22  38  58  88 116 146 188 244 292 334
#
# _framework density 22.088398999999999
#
# number of rings (size 3 to 8) (size 9 to 14) (size 15 to 20)
#    0.000    2.400    0.000    1.200    0.000    9.600 
#    0.000   14.000    0.000    0.000    0.000    0.000 
#    0.000    0.000    0.000    0.000    0.000    0.000 
#
# Total GULP energy -111624.743918 kJ/mol
# GULP energy per Si atom -5581.237196 kJ/mol
# Density = 2.203813 g / cm^3
# Si number density = 22.088399 Si / 1000 Ang^3
#
#
#
# Elastic Constant Matrix: (Units=GPa)
#
#
# Indices 1 2 3 4 5 6 
#
# 1 68.7350 63.8259 16.1151 0.0000 0.0000 0.0000
# 2 63.8259 96.8767 27.7518 0.0000 0.0000 0.0000
# 3 16.1151 27.7518 55.6892 0.0000 0.0000 0.0000
# 4 0.0000 0.0000 0.0000 27.7027 0.0000 0.0000
# 5 0.0000 0.0000 0.0000 0.0000 13.1900 0.0000
# 6 0.0000 0.0000 0.0000 0.0000 0.0000 32.5522
#
#
#
# Elastic Compliance Matrix: (Units=1/GPa)
#
#
# Indices 1 2 3 4 5 6 
#
# 1 0.037614 -0.025271 0.001709 0.000000 0.000000 0.000000
# 2 -0.025271 0.029020 -0.007149 0.000000 0.000000 0.000000
# 3 0.001709 -0.007149 0.021025 0.000000 0.000000 0.000000
# 4 0.000000 0.000000 0.000000 0.036098 0.000000 0.000000
# 5 0.000000 0.000000 0.000000 0.000000 0.075815 0.000000
# 6 0.000000 0.000000 0.000000 0.000000 0.000000 0.030720
#
#
# Mechanical properties :
#
#
# Convention : Reuss Voigt Hill
#
# Bulk Modulus (GPa) = 38.11444 48.52071 43.31757
# Shear Modulus (GPa) = 16.64120 22.26286 19.45203
#
# Velocity S-wave (km/s) = 2.74777 3.17819 2.97078
# Velocity P-wave (km/s) = 5.23067 5.95669 5.60544
#
# Compressibility (1/GPa) = 0.02623678
#
# Stress axis : x y z
#
# Youngs Moduli (GPa) = 26.58561 34.45916 47.56299
#
# Poissons Ratio (x) = 0.87083 -0.08128
# Poissons Ratio (y) = 0.67185 0.34001
# Poissons Ratio (z) = -0.04543 0.24634
#
# Static dielectric constant tensor:
#      x y z
#    x 1.885730 0.000000 0.000000 
#    y 0.000000 1.823730 0.000000 
#    z 0.000000 0.000000 1.817700 
# 
# From -- ./inp_files/6172.got.cif
#   From: 2010.05.17/outbox.cif.g08.bks.cpg/sg20_4_cif.got.tgz:6172.got - 2010.06.03 22:52:26.
