data_PCOD9318012
_publ_section_title
;
Structure prediction by ZEFSAII (Michael W. Deem and Ramdas Pophale) SiO2 
 PCOD9318012
Probable space group: C 2 2 21
;
_chemical_formula_sum "Si O2"
_cell_formula_units_Z 48
_cell_length_a 18.757935
_cell_length_b 8.592635
_cell_length_c 16.146859
_cell_angle_alpha 90.000000
_cell_angle_beta 90.000000
_cell_angle_gamma 90.000000
_cell_volume 2602.552168
_symmetry_space_group_name_H-M "C 2 2 21"
_symmetry_group_IT_number 20
_symmetry_cell_setting 'orthorhombic'
loop_
_space_group_symop_operation_xyz
x,y,z
-x,-y,1/2+z
x,-y,-z
-x,y,1/2-z
1/2+x,1/2+y,z
1/2-x,1/2-y,1/2+z
1/2+x,1/2-y,-z
1/2-x,1/2+y,1/2-z
loop_
_atom_site_type_symbol
_atom_site_label
_atom_site_fract_x
_atom_site_fract_y
_atom_site_fract_z
Si Si1 0.332814 0.918198 0.750108
Si Si2 0.586567 0.947911 0.090321
Si Si3 0.548330 0.628950 0.330378
Si Si4 0.920969 0.457605 0.093316
Si Si5 0.088773 0.072574 0.088270
Si Si6 0.326131 0.547820 0.739867
O O1 0.329358 0.732473 0.747244
O O2 0.372668 0.984720 0.669191
O O3 0.374153 0.967814 0.833812
O O4 0.253420 0.987170 0.747870
O O5 0.504481 0.004998 0.097358
O O6 0.589563 0.760176 0.090785
O O7 0.614064 0.000000 0.000000
O O8 0.500000 0.682619 0.250000
O O9 0.575196 0.774185 0.384264
O O10 0.490863 0.528838 0.380988
O O11 0.615974 0.532622 0.300014
O O12 0.896357 0.500000 0.000000
O O13 0.146718 0.005680 0.150284
O O14 0.101177 0.000000 0.000000
#
# Coordination Sequence:
#
# PCOD9318012 Si02
#       6
#     8   8   8   8   8   8
#     4  12  23  40  59  83 119 156 196 242 290 346
#     4  10  21  38  62  90 117 151 193 237 287 344
#     4   9  19  38  59  84 116 152 191 238 290 342
#     4  10  21  37  61  88 117 152 191 237 288 344
#     4  10  20  37  61  88 119 150 188 239 289 343
#     4  11  24  38  59  83 114 157 196 237 294 347
#
# _framework density 18.443435000000001
#
# number of rings (size 3 to 8) (size 9 to 14) (size 15 to 20)
#    0.000    1.667    0.000    6.500    0.000    8.667 
#    0.000    5.833    0.000    0.000    0.000    0.000 
#    0.000    0.000    0.000    0.000    0.000    0.000 
#
# Total GULP energy -133982.240737 kJ/mol
# GULP energy per Si atom -5582.593364 kJ/mol
# Density = 1.840146 g / cm^3
# Si number density = 18.443435 Si / 1000 Ang^3
#
#
#
# Elastic Constant Matrix: (Units=GPa)
#
#
# Indices 1 2 3 4 5 6 
#
# 1 121.0058 55.0599 80.7322 0.0000 0.0000 0.0000
# 2 55.0599 97.4651 65.1851 0.0000 0.0000 0.0000
# 3 80.7322 65.1851 134.1542 0.0000 0.0000 0.0000
# 4 0.0000 0.0000 0.0000 33.1680 0.0000 0.0000
# 5 0.0000 0.0000 0.0000 0.0000 9.1557 0.0000
# 6 0.0000 0.0000 0.0000 0.0000 0.0000 -93.7165
#
#
#
# Elastic Compliance Matrix: (Units=1/GPa)
#
#
# Indices 1 2 3 4 5 6 
#
# 1 0.014575 -0.003507 -0.007067 0.000000 0.000000 0.000000
# 2 -0.003507 0.016043 -0.005685 0.000000 0.000000 0.000000
# 3 -0.007067 -0.005685 0.014469 0.000000 0.000000 0.000000
# 4 0.000000 0.000000 0.000000 0.030150 0.000000 0.000000
# 5 0.000000 0.000000 0.000000 0.000000 0.109222 0.000000
# 6 0.000000 0.000000 0.000000 0.000000 0.000000 -0.010670
#
#
# Mechanical properties :
#
#
# Convention : Reuss Voigt Hill
#
# Bulk Modulus (GPa) = 79.55742 83.84218 81.69980
# Shear Modulus (GPa) = 23.75352 -0.16870 11.79241
#
# Velocity S-wave (km/s) = 3.59264 -0.30277 2.53134
# Velocity P-wave (km/s) = 7.77425 6.74059 7.27580
#
# Compressibility (1/GPa) = 0.01256954
#
# Stress axis : x y z
#
# Youngs Moduli (GPa) = 68.61227 62.33074 69.11350
#
# Poissons Ratio (x) = 0.21861 0.48840
# Poissons Ratio (y) = 0.24064 0.39290
# Poissons Ratio (z) = 0.48486 0.35434
#
# Static dielectric constant tensor:
#      x y z
#    x 1.622930 0.000000 0.000000 
#    y 0.000000 1.629360 0.000000 
#    z 0.000000 0.000000 1.758360 
# 
# From -- ./inp_files/21262.got.cif
#   From: 2010.05.17/outbox.cif.g08.bks.cpg/sg20_11_cif.got.tgz:21262.got - 2010.06.03 22:52:26.
