data_PCOD9318883
_publ_section_title
;
Structure prediction by ZEFSAII (Michael W. Deem and Ramdas Pophale) SiO2 
 PCOD9318883
Probable space group: C 2 2 21
;
_chemical_formula_sum "Si O2"
_cell_formula_units_Z 40
_cell_length_a 10.263487
_cell_length_b 11.711032
_cell_length_c 12.779935
_cell_angle_alpha 90.000000
_cell_angle_beta 90.000000
_cell_angle_gamma 90.000000
_cell_volume 1536.097383
_symmetry_space_group_name_H-M "C 2 2 21"
_symmetry_group_IT_number 20
_symmetry_cell_setting 'orthorhombic'
loop_
_space_group_symop_operation_xyz
x,y,z
-x,-y,1/2+z
x,-y,-z
-x,y,1/2-z
1/2+x,1/2+y,z
1/2-x,1/2-y,1/2+z
1/2+x,1/2-y,-z
1/2-x,1/2+y,1/2-z
loop_
_atom_site_type_symbol
_atom_site_label
_atom_site_fract_x
_atom_site_fract_y
_atom_site_fract_z
Si Si1 0.849780 0.607596 0.870330
Si Si2 0.337280 0.700901 0.960577
Si Si3 0.572993 0.589105 0.853593
Si Si4 0.635800 0.047943 0.862607
Si Si5 0.145804 0.669377 0.245993
O O1 0.712726 0.539635 0.887402
O O2 0.857983 0.622815 0.744652
O O3 0.985295 0.545001 0.896344
O O4 0.851621 0.723005 0.937350
O O5 0.464065 0.621882 0.938071
O O6 0.214946 0.617199 0.949394
O O7 0.321556 0.790413 0.862969
O O8 0.500000 0.539639 0.750000
O O9 0.623757 0.713984 0.816286
O O10 0.707824 0.932009 0.822058
O O11 0.000000 0.619285 0.250000
#
# Coordination Sequence:
#
# PCOD9318883 Si02
#       5
#     8   8   8   8   8
#     4  11  20  35  62  90 116 156 201 243 301 355
#     4  10  21  37  61  88 122 155 198 248 298 359
#     4   9  18  37  58  78 123 157 187 244 299 347
#     4  11  21  37  63  87 119 157 199 247 304 350
#     4   9  18  36  58  85 117 153 194 243 295 348
#
# _framework density 26.040016000000001
#
# number of rings (size 3 to 8) (size 9 to 14) (size 15 to 20)
#    0.000    2.400    6.000    1.200    0.000    0.800 
#    0.000    3.000    8.800    0.000    0.000    0.000 
#    0.000    0.000    0.000    0.000    0.000    0.000 
#
# Total GULP energy -111524.418472 kJ/mol
# GULP energy per Si atom -5576.220924 kJ/mol
# Density = 2.598075 g / cm^3
# Si number density = 26.040016 Si / 1000 Ang^3
#
#
#
# Elastic Constant Matrix: (Units=GPa)
#
#
# Indices 1 2 3 4 5 6 
#
# 1 185.4999 16.7786 13.1641 0.0000 0.0000 0.0000
# 2 16.7786 94.5039 35.6106 0.0000 0.0000 0.0000
# 3 13.1641 35.6106 139.6362 0.0000 0.0000 0.0000
# 4 0.0000 0.0000 0.0000 50.1581 0.0000 0.0000
# 5 0.0000 0.0000 0.0000 0.0000 11.0343 0.0000
# 6 0.0000 0.0000 0.0000 0.0000 0.0000 -89.8917
#
#
#
# Elastic Compliance Matrix: (Units=1/GPa)
#
#
# Indices 1 2 3 4 5 6 
#
# 1 0.005490 -0.000863 -0.000298 0.000000 0.000000 0.000000
# 2 -0.000863 0.011842 -0.002939 0.000000 0.000000 0.000000
# 3 -0.000298 -0.002939 0.007939 0.000000 0.000000 0.000000
# 4 0.000000 0.000000 0.000000 0.019937 0.000000 0.000000
# 5 0.000000 0.000000 0.000000 0.000000 0.090627 0.000000
# 6 0.000000 0.000000 0.000000 0.000000 0.000000 -0.011124
#
#
# Mechanical properties :
#
#
# Convention : Reuss Voigt Hill
#
# Bulk Modulus (GPa) = 58.57100 61.19405 59.88253
# Shear Modulus (GPa) = 36.07527 17.86591 26.97059
#
# Velocity S-wave (km/s) = 3.72611 2.62218 3.22178
# Velocity P-wave (km/s) = 6.40729 5.72004 6.07339
#
# Compressibility (1/GPa) = 0.01707330
#
# Stress axis : x y z
#
# Youngs Moduli (GPa) = 182.15010 84.44470 125.96114
#
# Poissons Ratio (x) = 0.07284 0.03748
# Poissons Ratio (y) = 0.15712 0.37016
# Poissons Ratio (z) = 0.05421 0.24816
#
# Static dielectric constant tensor:
#      x y z
#    x 2.225080 0.000000 0.000000 
#    y 0.000000 2.080830 0.000000 
#    z 0.000000 0.000000 2.118870 
# 
# From -- ./inp_files/19791.got.cif
#   From: 2010.05.17/outbox.cif.g08.bks.cpg/sg20_10_cif.got.tgz:19791.got - 2010.06.03 22:52:26.
