data_PCOD9318713
_publ_section_title
;
Structure prediction by ZEFSAII (Michael W. Deem and Ramdas Pophale) SiO2 
 PCOD9318713
Probable space group: C 2 2 21
;
_chemical_formula_sum "Si O2"
_cell_formula_units_Z 48
_cell_length_a 11.497948
_cell_length_b 9.806540
_cell_length_c 18.476543
_cell_angle_alpha 90.000000
_cell_angle_beta 90.000000
_cell_angle_gamma 90.000000
_cell_volume 2083.324213
_symmetry_space_group_name_H-M "C 2 2 21"
_symmetry_group_IT_number 20
_symmetry_cell_setting 'orthorhombic'
loop_
_space_group_symop_operation_xyz
x,y,z
-x,-y,1/2+z
x,-y,-z
-x,y,1/2-z
1/2+x,1/2+y,z
1/2-x,1/2-y,1/2+z
1/2+x,1/2-y,-z
1/2-x,1/2+y,1/2-z
loop_
_atom_site_type_symbol
_atom_site_label
_atom_site_fract_x
_atom_site_fract_y
_atom_site_fract_z
Si Si1 0.937339 0.759466 0.403059
Si Si2 0.014515 0.000000 0.500000
Si Si3 0.000000 0.253207 0.750000
Si Si4 0.169453 0.621578 0.443744
Si Si5 0.317219 0.311910 0.928568
Si Si6 0.733516 0.078940 0.285537
Si Si7 0.378197 0.802756 0.213990
O O1 0.970874 0.822134 0.324896
O O2 0.813471 0.684750 0.399005
O O3 0.036146 0.648363 0.420602
O O4 0.942101 0.876977 0.464179
O O5 0.100591 0.058806 0.438242
O O6 0.112547 0.346633 0.734928
O O7 0.179699 0.500000 0.500000
O O8 0.198048 0.755094 0.490320
O O9 0.244463 0.597144 0.372197
O O10 0.382491 0.210232 0.873000
O O11 0.834259 0.158443 0.244460
O O12 0.714715 0.920674 0.267905
O O13 0.500000 0.837798 0.250000
#
# Coordination Sequence:
#
# PCOD9318713 Si02
#       7
#     8   4   4   8   8   8   8
#     4  10  23  42  72  99 140 182 231 292 350 423
#     4  10  26  46  68 108 140 174 240 290 354 436
#     4  10  20  46  68 102 138 190 234 288 352 418
#     4  10  22  42  69  98 134 182 230 286 354 415
#     4  11  24  46  69 104 138 184 234 289 357 422
#     4  11  24  46  72 104 145 187 241 296 357 426
#     4  12  27  46  73 106 145 191 240 296 356 431
#
# _framework density 23.040099999999999
#
# number of rings (size 3 to 8) (size 9 to 14) (size 15 to 20)
#    0.000    1.333    4.167    0.000    2.333    8.000 
#    3.000    0.000    0.000    0.000    0.000    0.000 
#    0.000    0.000    0.000    0.000    0.000    0.000 
#
# Total GULP energy -134134.588172 kJ/mol
# GULP energy per Si atom -5588.941174 kJ/mol
# Density = 2.298766 g / cm^3
# Si number density = 23.040100 Si / 1000 Ang^3
#
#
#
# Elastic Constant Matrix: (Units=GPa)
#
#
# Indices 1 2 3 4 5 6 
#
# 1 67.5210 3.0673 18.8928 0.0000 0.0000 0.0000
# 2 3.0673 74.0264 11.6807 0.0000 0.0000 0.0000
# 3 18.8928 11.6807 110.5824 0.0000 0.0000 0.0000
# 4 0.0000 0.0000 0.0000 37.8590 0.0000 0.0000
# 5 0.0000 0.0000 0.0000 0.0000 26.0581 0.0000
# 6 0.0000 0.0000 0.0000 0.0000 0.0000 25.1545
#
#
#
# Elastic Compliance Matrix: (Units=1/GPa)
#
#
# Indices 1 2 3 4 5 6 
#
# 1 0.015558 -0.000229 -0.002634 0.000000 0.000000 0.000000
# 2 -0.000229 0.013741 -0.001412 0.000000 0.000000 0.000000
# 3 -0.002634 -0.001412 0.009642 0.000000 0.000000 0.000000
# 4 0.000000 0.000000 0.000000 0.026414 0.000000 0.000000
# 5 0.000000 0.000000 0.000000 0.000000 0.038376 0.000000
# 6 0.000000 0.000000 0.000000 0.000000 0.000000 0.039754
#
#
# Mechanical properties :
#
#
# Convention : Reuss Voigt Hill
#
# Bulk Modulus (GPa) = 32.90502 35.49014 34.19758
# Shear Modulus (GPa) = 30.83277 32.38025 31.60651
#
# Velocity S-wave (km/s) = 3.66214 3.75292 3.70781
# Velocity P-wave (km/s) = 5.67400 5.84947 5.76240
#
# Compressibility (1/GPa) = 0.03039050
#
# Stress axis : x y z
#
# Youngs Moduli (GPa) = 64.27740 72.77477 103.71086
#
# Poissons Ratio (x) = 0.01667 0.27315
# Poissons Ratio (y) = 0.01472 0.14647
# Poissons Ratio (z) = 0.16929 0.10278
#
# Static dielectric constant tensor:
#      x y z
#    x 1.850520 0.000000 0.000000 
#    y 0.000000 1.861600 0.000000 
#    z 0.000000 0.000000 1.904740 
# 
# From -- ./inp_files/24287.got.cif
#   From: 2010.05.17/outbox.cif.g08.bks.cpg/sg20_13_cif.got.tgz:24287.got - 2010.06.03 22:52:26.
