data_PCOD9318878
_publ_section_title
;
Structure prediction by ZEFSAII (Michael W. Deem and Ramdas Pophale) SiO2 
 PCOD9318878
Probable space group: C 2 2 21
;
_chemical_formula_sum "Si O2"
_cell_formula_units_Z 48
_cell_length_a 21.511282
_cell_length_b 8.930459
_cell_length_c 12.528118
_cell_angle_alpha 90.000000
_cell_angle_beta 90.000000
_cell_angle_gamma 90.000000
_cell_volume 2406.721900
_symmetry_space_group_name_H-M "C 2 2 21"
_symmetry_group_IT_number 20
_symmetry_cell_setting 'orthorhombic'
loop_
_space_group_symop_operation_xyz
x,y,z
-x,-y,1/2+z
x,-y,-z
-x,y,1/2-z
1/2+x,1/2+y,z
1/2-x,1/2-y,1/2+z
1/2+x,1/2-y,-z
1/2-x,1/2+y,1/2-z
loop_
_atom_site_type_symbol
_atom_site_label
_atom_site_fract_x
_atom_site_fract_y
_atom_site_fract_z
Si Si1 0.719409 0.581179 0.886263
Si Si2 0.379776 0.887089 0.355653
Si Si3 0.000000 0.719103 0.750000
Si Si4 0.927442 0.042518 0.122469
Si Si5 0.699704 0.667006 0.282802
Si Si6 0.606112 0.210687 0.096533
Si Si7 0.000000 0.797684 0.250000
O O1 0.729391 0.464051 0.789518
O O2 0.759782 0.729997 0.861886
O O3 0.648290 0.642575 0.886594
O O4 0.731978 0.500000 0.000000
O O5 0.441351 0.876060 0.284630
O O6 0.328584 0.781826 0.304031
O O7 0.398422 0.820553 0.470649
O O8 0.360346 0.059317 0.362831
O O9 0.975735 0.827251 0.844300
O O10 0.858802 0.095774 0.155034
O O11 0.949420 0.900867 0.190920
O O12 0.930989 0.000000 0.000000
O O13 0.540522 0.218226 0.158040
#
# Coordination Sequence:
#
# PCOD9318878 Si02
#       7
#     8   8   4   8   8   8   4
#     4  12  25  45  70  97 133 183 231 290 344 409
#     4  10  21  40  64  94 133 175 218 274 342 402
#     4   9  19  36  62  90 132 172 214 280 324 402
#     4  10  21  37  60  94 129 169 216 276 334 396
#     4  11  24  44  65  94 131 177 226 278 342 406
#     4  11  22  39  67  99 130 176 225 272 340 409
#     4  11  21  38  66 100 132 172 220 278 328 414
#
# _framework density 19.944141999999999
#
# number of rings (size 3 to 8) (size 9 to 14) (size 15 to 20)
#    0.000    1.333    3.333    2.500    0.000    2.000 
#    6.000    0.000    7.333    0.000    0.000    0.000 
#    0.000    0.000    0.000    0.000    0.000    0.000 
#
# Total GULP energy -133930.111043 kJ/mol
# GULP energy per Si atom -5580.421293 kJ/mol
# Density = 1.989875 g / cm^3
# Si number density = 19.944142 Si / 1000 Ang^3
#
#
#
# Elastic Constant Matrix: (Units=GPa)
#
#
# Indices 1 2 3 4 5 6 
#
# 1 68.8142 32.3935 30.9604 0.0000 0.0000 0.0000
# 2 32.3935 93.0636 46.0510 0.0000 0.0000 0.0000
# 3 30.9604 46.0510 112.0302 0.0000 0.0000 0.0000
# 4 0.0000 0.0000 0.0000 26.1228 0.0000 0.0000
# 5 0.0000 0.0000 0.0000 0.0000 21.3385 0.0000
# 6 0.0000 0.0000 0.0000 0.0000 0.0000 -33.1314
#
#
#
# Elastic Compliance Matrix: (Units=1/GPa)
#
#
# Indices 1 2 3 4 5 6 
#
# 1 0.018168 -0.004820 -0.003040 0.000000 0.000000 0.000000
# 2 -0.004820 0.014768 -0.004738 0.000000 0.000000 0.000000
# 3 -0.003040 -0.004738 0.011714 0.000000 0.000000 0.000000
# 4 0.000000 0.000000 0.000000 0.038281 0.000000 0.000000
# 5 0.000000 0.000000 0.000000 0.000000 0.046864 0.000000
# 6 0.000000 0.000000 0.000000 0.000000 0.000000 -0.030183
#
#
# Mechanical properties :
#
#
# Convention : Reuss Voigt Hill
#
# Bulk Modulus (GPa) = 51.40302 54.74645 53.07474
# Shear Modulus (GPa) = 38.08294 13.83285 25.95790
#
# Velocity S-wave (km/s) = 4.37450 2.63645 3.61159
# Velocity P-wave (km/s) = 7.16550 6.06443 6.63784
#
# Compressibility (1/GPa) = 0.01945411
#
# Stress axis : x y z
#
# Youngs Moduli (GPa) = 55.04062 67.71506 85.36806
#
# Poissons Ratio (x) = 0.32638 0.25950
# Poissons Ratio (y) = 0.26529 0.40451
# Poissons Ratio (z) = 0.16731 0.32086
#
# Static dielectric constant tensor:
#      x y z
#    x 1.699270 0.000000 0.000000 
#    y 0.000000 1.719400 0.000000 
#    z 0.000000 0.000000 1.699460 
# 
# From -- ./inp_files/13152.got.cif
#   From: 2010.05.17/outbox.cif.g08.bks.cpg/sg20_7_cif.got.tgz:13152.got - 2010.06.03 22:52:26.
