data_PCOD9318250
_publ_section_title
;
Structure prediction by ZEFSAII (Michael W. Deem and Ramdas Pophale) SiO2 
 PCOD9318250
Probable space group: C 2 2 21
;
_chemical_formula_sum "Si O2"
_cell_formula_units_Z 40
_cell_length_a 15.476534
_cell_length_b 7.782804
_cell_length_c 15.572063
_cell_angle_alpha 90.000000
_cell_angle_beta 90.000000
_cell_angle_gamma 90.000000
_cell_volume 1875.667924
_symmetry_space_group_name_H-M "C 2 2 21"
_symmetry_group_IT_number 20
_symmetry_cell_setting 'orthorhombic'
loop_
_space_group_symop_operation_xyz
x,y,z
-x,-y,1/2+z
x,-y,-z
-x,y,1/2-z
1/2+x,1/2+y,z
1/2-x,1/2-y,1/2+z
1/2+x,1/2-y,-z
1/2-x,1/2+y,1/2-z
loop_
_atom_site_type_symbol
_atom_site_label
_atom_site_fract_x
_atom_site_fract_y
_atom_site_fract_z
Si Si1 0.306766 0.144484 0.927756
Si Si2 0.000000 0.239268 0.750000
Si Si3 0.186416 0.233515 0.777725
Si Si4 0.508923 0.026206 0.604079
Si Si5 0.165275 0.383275 0.161153
Si Si6 0.272479 0.500000 0.000000
O O1 0.224847 0.157128 0.865467
O O2 0.395088 0.094383 0.880954
O O3 0.322887 0.336071 0.964277
O O4 0.292742 0.000000 0.000000
O O5 0.905252 0.149614 0.748918
O O6 0.001991 0.353690 0.661980
O O7 0.166657 0.433108 0.791570
O O8 0.266877 0.230425 0.712552
O O9 0.434491 0.152339 0.640429
O O10 0.498704 0.000000 0.500000
O O11 0.210881 0.419643 0.071215
#
# Coordination Sequence:
#
# PCOD9318250 Si02
#       6
#     8   4   8   8   8   4
#     4  10  22  39  68  96 127 170 218 260 328 387
#     4  10  22  40  62  98 132 166 226 268 324 392
#     4  10  22  39  65  91 123 176 209 265 335 377
#     4  10  20  38  68  94 120 177 218 255 331 397
#     4  10  21  39  63  91 128 165 211 268 318 386
#     4  10  22  38  60  92 132 160 208 270 310 370
#
# _framework density 21.325737
#
# number of rings (size 3 to 8) (size 9 to 14) (size 15 to 20)
#    0.000    2.000    1.000    2.400    8.400    0.000 
#    0.000    4.000    4.400    0.000    0.000    0.000 
#    0.000    0.000    0.000    0.000    0.000    0.000 
#
# Total GULP energy -111478.580898 kJ/mol
# GULP energy per Si atom -5573.929045 kJ/mol
# Density = 2.127720 g / cm^3
# Si number density = 21.325737 Si / 1000 Ang^3
#
#
#
# Elastic Constant Matrix: (Units=GPa)
#
#
# Indices 1 2 3 4 5 6 
#
# 1 164.3140 39.7044 51.1132 0.0000 0.0000 0.0000
# 2 39.7044 24.2836 12.7623 0.0000 0.0000 0.0000
# 3 51.1132 12.7623 97.4596 0.0000 0.0000 0.0000
# 4 0.0000 0.0000 0.0000 30.1209 0.0000 0.0000
# 5 0.0000 0.0000 0.0000 0.0000 -431.0041 0.0000
# 6 0.0000 0.0000 0.0000 0.0000 0.0000 29.0983
#
#
#
# Elastic Compliance Matrix: (Units=1/GPa)
#
#
# Indices 1 2 3 4 5 6 
#
# 1 0.011196 -0.016345 -0.003732 0.000000 0.000000 0.000000
# 2 -0.016345 0.068085 -0.000343 0.000000 0.000000 0.000000
# 3 -0.003732 -0.000343 0.012263 0.000000 0.000000 0.000000
# 4 0.000000 0.000000 0.000000 0.033200 0.000000 0.000000
# 5 0.000000 0.000000 0.000000 0.000000 -0.002320 0.000000
# 6 0.000000 0.000000 0.000000 0.000000 0.000000 0.034366
#
#
# Mechanical properties :
#
#
# Convention : Reuss Voigt Hill
#
# Bulk Modulus (GPa) = 19.72228 54.80187 37.26207
# Shear Modulus (GPa) = 23.30659 -62.19181 -19.44261
#
# Velocity S-wave (km/s) = 3.30947 -5.40612 -3.02271
# Velocity P-wave (km/s) = 4.88586 3.63522 2.30833
#
# Compressibility (1/GPa) = 0.05070408
#
# Stress axis : x y z
#
# Youngs Moduli (GPa) = 89.31536 14.68744 81.54826
#
# Poissons Ratio (x) = 0.24007 0.30430
# Poissons Ratio (y) = 1.45987 0.02801
# Poissons Ratio (z) = 0.33329 0.00504
#
# Static dielectric constant tensor:
#      x y z
#    x 1.840850 0.000000 0.000000 
#    y 0.000000 2.069990 0.000000 
#    z 0.000000 0.000000 1.827280 
# 
# From -- ./inp_files/24709.got.cif
#   From: 2010.05.17/outbox.cif.g08.bks.cpg/sg20_13_cif.got.tgz:24709.got - 2010.06.03 22:52:26.
