data_PCOD9318313
_publ_section_title
;
Structure prediction by ZEFSAII (Michael W. Deem and Ramdas Pophale) SiO2 
 PCOD9318313
Probable space group: C 2 2 21
;
_chemical_formula_sum "Si O2"
_cell_formula_units_Z 48
_cell_length_a 13.789427
_cell_length_b 9.855161
_cell_length_c 14.755850
_cell_angle_alpha 90.000000
_cell_angle_beta 90.000000
_cell_angle_gamma 90.000000
_cell_volume 2005.276090
_symmetry_space_group_name_H-M "C 2 2 21"
_symmetry_group_IT_number 20
_symmetry_cell_setting 'orthorhombic'
loop_
_space_group_symop_operation_xyz
x,y,z
-x,-y,1/2+z
x,-y,-z
-x,y,1/2-z
1/2+x,1/2+y,z
1/2-x,1/2-y,1/2+z
1/2+x,1/2-y,-z
1/2-x,1/2+y,1/2-z
loop_
_atom_site_type_symbol
_atom_site_label
_atom_site_fract_x
_atom_site_fract_y
_atom_site_fract_z
Si Si1 0.791936 0.686103 0.858232
Si Si2 0.811976 0.094373 0.794888
Si Si3 0.289684 0.500000 0.500000
Si Si4 0.435129 0.268486 0.568137
Si Si5 0.500000 0.421755 0.750000
Si Si6 0.622370 0.343269 0.485531
Si Si7 0.099037 0.447706 0.211195
O O1 0.702915 0.695797 0.789379
O O2 0.882635 0.666725 0.790427
O O3 0.775105 0.548971 0.916098
O O4 0.809832 0.800215 0.931444
O O5 0.824832 0.169697 0.889972
O O6 0.712234 0.005521 0.792105
O O7 0.906803 0.009678 0.776966
O O8 0.354176 0.367838 0.525119
O O9 0.469725 0.349948 0.656964
O O10 0.523768 0.259099 0.497552
O O11 0.411876 0.122859 0.612801
O O12 0.595966 0.500000 0.500000
O O13 0.000000 0.516580 0.250000
#
# Coordination Sequence:
#
# PCOD9318313 Si02
#       7
#     8   8   4   8   4   8   8
#     4  10  24  40  60  99 132 178 219 276 334 410
#     4  10  23  37  60  99 140 168 221 277 342 397
#     4  12  22  38  64  98 132 172 222 276 342 404
#     4  12  19  35  68  97 127 172 225 281 341 386
#     4  12  18  38  60 104 130 162 222 298 332 390
#     4  12  22  39  65 104 134 168 229 292 334 394
#     4  10  20  39  64  89 127 182 224 266 330 413
#
# _framework density 23.936855000000001
#
# number of rings (size 3 to 8) (size 9 to 14) (size 15 to 20)
#    1.000    0.000    6.667    1.000    0.000    0.000 
#    0.000    0.000    1.833    0.000   26.000    0.000 
#    0.000    0.000    0.000    0.000    0.000    0.000 
#
# Total GULP energy -133812.378098 kJ/mol
# GULP energy per Si atom -5575.515754 kJ/mol
# Density = 2.388237 g / cm^3
# Si number density = 23.936855 Si / 1000 Ang^3
#
#
#
# Elastic Constant Matrix: (Units=GPa)
#
#
# Indices 1 2 3 4 5 6 
#
# 1 119.2636 9.7003 12.0279 0.0000 0.0000 0.0000
# 2 9.7003 19.4972 4.4159 0.0000 0.0000 0.0000
# 3 12.0279 4.4159 115.6685 0.0000 0.0000 0.0000
# 4 0.0000 0.0000 0.0000 26.2613 0.0000 0.0000
# 5 0.0000 0.0000 0.0000 0.0000 54.2702 0.0000
# 6 0.0000 0.0000 0.0000 0.0000 0.0000 12.3465
#
#
#
# Elastic Compliance Matrix: (Units=1/GPa)
#
#
# Indices 1 2 3 4 5 6 
#
# 1 0.008803 -0.004209 -0.000755 0.000000 0.000000 0.000000
# 2 -0.004209 0.053749 -0.001614 0.000000 0.000000 0.000000
# 3 -0.000755 -0.001614 0.008786 0.000000 0.000000 0.000000
# 4 0.000000 0.000000 0.000000 0.038079 0.000000 0.000000
# 5 0.000000 0.000000 0.000000 0.000000 0.018426 0.000000
# 6 0.000000 0.000000 0.000000 0.000000 0.000000 0.080994
#
#
# Mechanical properties :
#
#
# Convention : Reuss Voigt Hill
#
# Bulk Modulus (GPa) = 17.18745 34.07972 25.63359
# Shear Modulus (GPa) = 20.71360 33.79462 27.25411
#
# Velocity S-wave (km/s) = 2.94486 3.76150 3.37795
# Velocity P-wave (km/s) = 4.33115 5.75616 5.09374
#
# Compressibility (1/GPa) = 0.05818199
#
# Stress axis : x y z
#
# Youngs Moduli (GPa) = 113.59463 18.60497 113.82385
#
# Poissons Ratio (x) = 0.07831 0.08591
# Poissons Ratio (y) = 0.47811 0.18375
# Poissons Ratio (z) = 0.08573 0.03003
#
# Static dielectric constant tensor:
#      x y z
#    x 1.992970 0.000000 0.000000 
#    y 0.000000 1.972860 0.000000 
#    z 0.000000 0.000000 1.951220 
# 
# From -- ./inp_files/20700.got.cif
#   From: 2010.05.17/outbox.cif.g08.bks.cpg/sg20_11_cif.got.tgz:20700.got - 2010.06.03 22:52:26.
