data_PCOD9318653
_publ_section_title
;
Structure prediction by ZEFSAII (Michael W. Deem and Ramdas Pophale) SiO2 
 PCOD9318653
Probable space group: C 2 2 21
;
_chemical_formula_sum "Si O2"
_cell_formula_units_Z 64
_cell_length_a 12.845124
_cell_length_b 13.613764
_cell_length_c 17.671095
_cell_angle_alpha 90.000000
_cell_angle_beta 90.000000
_cell_angle_gamma 90.000000
_cell_volume 3090.152983
_symmetry_space_group_name_H-M "C 2 2 21"
_symmetry_group_IT_number 20
_symmetry_cell_setting 'orthorhombic'
loop_
_space_group_symop_operation_xyz
x,y,z
-x,-y,1/2+z
x,-y,-z
-x,y,1/2-z
1/2+x,1/2+y,z
1/2-x,1/2-y,1/2+z
1/2+x,1/2-y,-z
1/2-x,1/2+y,1/2-z
loop_
_atom_site_type_symbol
_atom_site_label
_atom_site_fract_x
_atom_site_fract_y
_atom_site_fract_z
Si Si1 0.625113 0.708052 0.551721
Si Si2 0.618191 0.352642 0.616486
Si Si3 0.396240 0.369609 0.431801
Si Si4 0.882207 0.099821 0.397352
Si Si5 0.669511 0.151786 0.325061
Si Si6 0.273075 0.031429 0.582998
Si Si7 0.384517 0.956066 0.261258
Si Si8 0.736427 0.287037 0.201733
O O1 0.626420 0.710404 0.461022
O O2 0.518397 0.652985 0.572902
O O3 0.624513 0.810893 0.595322
O O4 0.721588 0.639340 0.577146
O O5 0.497066 0.372182 0.630708
O O6 0.680001 0.454107 0.601000
O O7 0.677748 0.294106 0.680735
O O8 0.379390 0.483295 0.411456
O O9 0.365726 0.352831 0.519337
O O10 0.331062 0.306903 0.372726
O O11 0.790175 0.129617 0.342442
O O12 0.664622 0.242564 0.267264
O O13 0.620186 0.057087 0.286158
O O14 0.355262 0.026400 0.650964
O O15 0.313827 0.000000 0.500000
O O16 0.500000 0.913708 0.250000
O O17 0.296436 0.883571 0.229078
#
# Coordination Sequence:
#
# PCOD9318653 Si02
#       8
#     8   8   8   8   8   8   8   8
#     4  10  21  39  68  99 125 165 215 263 319 380
#     4  10  21  39  68  99 125 165 215 263 319 380
#     4  10  21  41  67  96 126 162 215 273 317 368
#     4  10  21  41  67  96 126 162 215 273 317 368
#     4  12  25  41  63  91 132 171 209 262 320 379
#     4  10  20  43  69  95 127 165 214 264 314 380
#     4  12  28  47  59  95 137 167 211 263 319 379
#     4  12  25  41  63  91 132 171 209 262 320 379
#
# _framework density 20.710947999999998
#
# number of rings (size 3 to 8) (size 9 to 14) (size 15 to 20)
#    0.000    1.250    5.000    0.750    3.500    0.000 
#    0.000    5.000    0.000    0.000    0.000    0.000 
#    0.000    0.000    0.000    0.000    0.000    0.000 
#
# Total GULP energy -178886.861931 kJ/mol
# GULP energy per Si atom -5590.214435 kJ/mol
# Density = 2.066381 g / cm^3
# Si number density = 20.710948 Si / 1000 Ang^3
#
#
#
# Elastic Constant Matrix: (Units=GPa)
#
#
# Indices 1 2 3 4 5 6 
#
# 1 40.1605 -22.8285 21.9553 0.0000 0.0000 0.0000
# 2 -22.8285 40.3448 2.3277 0.0000 0.0000 0.0000
# 3 21.9553 2.3277 63.7108 0.0000 0.0000 0.0000
# 4 0.0000 0.0000 0.0000 33.0615 0.0000 0.0000
# 5 0.0000 0.0000 0.0000 0.0000 21.3980 0.0000
# 6 0.0000 0.0000 0.0000 0.0000 0.0000 26.9922
#
#
#
# Elastic Compliance Matrix: (Units=1/GPa)
#
#
# Indices 1 2 3 4 5 6 
#
# 1 0.053406 0.031347 -0.019550 0.000000 0.000000 0.000000
# 2 0.031347 0.043238 -0.012382 0.000000 0.000000 0.000000
# 3 -0.019550 -0.012382 0.022885 0.000000 0.000000 0.000000
# 4 0.000000 0.000000 0.000000 0.030247 0.000000 0.000000
# 5 0.000000 0.000000 0.000000 0.000000 0.046733 0.000000
# 6 0.000000 0.000000 0.000000 0.000000 0.000000 0.037048
#
#
# Mechanical properties :
#
#
# Convention : Reuss Voigt Hill
#
# Bulk Modulus (GPa) = 8.44876 16.34722 12.39799
# Shear Modulus (GPa) = 18.23617 25.80777 22.02197
#
# Velocity S-wave (km/s) = 2.97056 3.53383 3.26437
# Velocity P-wave (km/s) = 3.98169 4.95589 4.49526
#
# Compressibility (1/GPa) = 0.11836050
#
# Stress axis : x y z
#
# Youngs Moduli (GPa) = 18.72437 23.12772 43.69624
#
# Poissons Ratio (x) = -0.72499 0.85424
# Poissons Ratio (y) = -0.58696 0.54106
# Poissons Ratio (z) = 0.36605 0.28637
#
# Static dielectric constant tensor:
#      x y z
#    x 1.711700 0.000000 0.000000 
#    y 0.000000 1.737250 0.000000 
#    z 0.000000 0.000000 1.737650 
# 
# From -- ./inp_files/24476.got.cif
#   From: 2010.05.17/outbox.cif.g08.bks.cpg/sg20_13_cif.got.tgz:24476.got - 2010.06.03 22:52:26.
