data_PCOD9318107
_publ_section_title
;
Structure prediction by ZEFSAII (Michael W. Deem and Ramdas Pophale) SiO2 
 PCOD9318107
Probable space group: C 2 2 21
;
_chemical_formula_sum "Si O2"
_cell_formula_units_Z 52
_cell_length_a 15.073172
_cell_length_b 21.368428
_cell_length_c 8.470545
_cell_angle_alpha 90.000000
_cell_angle_beta 90.000000
_cell_angle_gamma 90.000000
_cell_volume 2728.277760
_symmetry_space_group_name_H-M "C 2 2 21"
_symmetry_group_IT_number 20
_symmetry_cell_setting 'orthorhombic'
loop_
_space_group_symop_operation_xyz
x,y,z
-x,-y,1/2+z
x,-y,-z
-x,y,1/2-z
1/2+x,1/2+y,z
1/2-x,1/2-y,1/2+z
1/2+x,1/2-y,-z
1/2-x,1/2+y,1/2-z
loop_
_atom_site_type_symbol
_atom_site_label
_atom_site_fract_x
_atom_site_fract_y
_atom_site_fract_z
Si Si1 0.584742 0.240422 0.645452
Si Si2 0.283387 0.699120 0.667740
Si Si3 0.421643 0.387541 0.868892
Si Si4 0.166016 0.000000 0.000000
Si Si5 0.098694 0.310464 0.703695
Si Si6 0.258868 0.380023 0.639575
Si Si7 0.401600 0.413583 0.217730
O O1 0.500000 0.220215 0.750000
O O2 0.684127 0.224134 0.713556
O O3 0.564719 0.313200 0.602393
O O4 0.590506 0.207298 0.478695
O O5 0.352794 0.754656 0.700762
O O6 0.280353 0.675500 0.485832
O O7 0.324617 0.638532 0.757477
O O8 0.500000 0.408691 0.750000
O O9 0.331786 0.385424 0.772627
O O10 0.409007 0.425693 0.030102
O O11 0.113247 0.969322 0.151876
O O12 0.229177 0.056088 0.048794
O O13 0.164327 0.368471 0.713948
O O14 0.000000 0.323504 0.750000
O O15 0.500000 0.385957 0.250000
#
# Coordination Sequence:
#
# PCOD9318107 Si02
#       7
#     8   8   8   4   8   8   8
#     4  10  22  33  55  90 132 165 193 242 304 383
#     4  10  20  38  58  89 128 163 196 249 313 377
#     4  11  21  34  58  93 125 159 200 251 310 374
#     4  10  24  44  64  76 120 170 220 260 300 368
#     4  11  22  35  61  90 122 160 198 251 318 384
#     4  10  23  40  59  88 118 163 206 257 307 367
#     4  11  23  40  63  90 122 166 209 255 313 364
#
# _framework density 19.059643000000001
#
# number of rings (size 3 to 8) (size 9 to 14) (size 15 to 20)
#    0.000    1.538    3.077    2.308    4.308    3.692 
#    0.000    0.000    0.000   10.154    0.000    0.000 
#    0.000    0.000    0.000    0.000    0.000    0.000 
#
# Total GULP energy -144830.854992 kJ/mol
# GULP energy per Si atom -5570.417500 kJ/mol
# Density = 1.901626 g / cm^3
# Si number density = 19.059643 Si / 1000 Ang^3
#
#
#
# Elastic Constant Matrix: (Units=GPa)
#
#
# Indices 1 2 3 4 5 6 
#
# 1 170.3240 45.6536 68.7047 0.0000 0.0000 0.0000
# 2 45.6536 60.7299 46.0833 0.0000 0.0000 0.0000
# 3 68.7047 46.0833 111.3731 0.0000 0.0000 0.0000
# 4 0.0000 0.0000 0.0000 61.6176 0.0000 0.0000
# 5 0.0000 0.0000 0.0000 0.0000 82.5304 0.0000
# 6 0.0000 0.0000 0.0000 0.0000 0.0000 41.8747
#
#
#
# Elastic Compliance Matrix: (Units=1/GPa)
#
#
# Indices 1 2 3 4 5 6 
#
# 1 0.008277 -0.003422 -0.003690 0.000000 0.000000 0.000000
# 2 -0.003422 0.025418 -0.008406 0.000000 0.000000 0.000000
# 3 -0.003690 -0.008406 0.014733 0.000000 0.000000 0.000000
# 4 0.000000 0.000000 0.000000 0.016229 0.000000 0.000000
# 5 0.000000 0.000000 0.000000 0.000000 0.012117 0.000000
# 6 0.000000 0.000000 0.000000 0.000000 0.000000 0.023881
#
#
# Mechanical properties :
#
#
# Convention : Reuss Voigt Hill
#
# Bulk Modulus (GPa) = 57.49909 73.70113 65.60011
# Shear Modulus (GPa) = 36.36683 49.33691 42.85187
#
# Velocity S-wave (km/s) = 4.37287 5.09330 4.74677
# Velocity P-wave (km/s) = 7.46521 8.56397 8.03340
#
# Compressibility (1/GPa) = 0.01739158
#
# Stress axis : x y z
#
# Youngs Moduli (GPa) = 120.81889 39.34272 67.87342
#
# Poissons Ratio (x) = 0.13464 0.25045
# Poissons Ratio (y) = 0.41346 0.57055
# Poissons Ratio (z) = 0.44581 0.33072
#
# Static dielectric constant tensor:
#      x y z
#    x 1.676010 0.000000 0.000000 
#    y 0.000000 -2.642400 0.000000 
#    z 0.000000 0.000000 1.679130 
# 
# From -- ./inp_files/8658.got.cif
#   From: 2010.05.17/outbox.cif.g08.bks.cpg/sg20_5_cif.got.tgz:8658.got - 2010.06.03 22:52:26.
