data_PCOD9318885
_publ_section_title
;
Structure prediction by ZEFSAII (Michael W. Deem and Ramdas Pophale) SiO2 
 PCOD9318885
Probable space group: C 2 2 21
;
_chemical_formula_sum "Si O2"
_cell_formula_units_Z 60
_cell_length_a 18.882967
_cell_length_b 11.748873
_cell_length_c 13.903954
_cell_angle_alpha 90.000000
_cell_angle_beta 90.000000
_cell_angle_gamma 90.000000
_cell_volume 3084.641987
_symmetry_space_group_name_H-M "C 2 2 21"
_symmetry_group_IT_number 20
_symmetry_cell_setting 'orthorhombic'
loop_
_space_group_symop_operation_xyz
x,y,z
-x,-y,1/2+z
x,-y,-z
-x,y,1/2-z
1/2+x,1/2+y,z
1/2-x,1/2-y,1/2+z
1/2+x,1/2-y,-z
1/2-x,1/2+y,1/2-z
loop_
_atom_site_type_symbol
_atom_site_label
_atom_site_fract_x
_atom_site_fract_y
_atom_site_fract_z
Si Si1 0.500000 0.322798 0.750000
Si Si2 0.641830 0.365632 0.013620
Si Si3 0.635467 0.190082 0.554250
Si Si4 0.516911 0.620196 0.459867
Si Si5 0.729264 0.770669 0.832969
Si Si6 0.186111 0.480296 0.104309
Si Si7 0.741302 0.751572 0.607563
Si Si8 0.078370 0.596943 0.730701
O O1 0.499470 0.393374 0.846667
O O2 0.564454 0.232273 0.748110
O O3 0.557806 0.347495 0.008238
O O4 0.684200 0.304453 0.927477
O O5 0.654257 0.500000 0.000000
O O6 0.675250 0.312757 0.110450
O O7 0.573465 0.279497 0.532062
O O8 0.693774 0.236367 0.629199
O O9 0.682213 0.184836 0.457263
O O10 0.601938 0.088000 0.618672
O O11 0.542718 0.500000 0.500000
O O12 0.725066 0.763786 0.719016
O O13 0.716548 0.899067 0.865086
O O14 0.246220 0.383440 0.089750
O O15 0.133815 0.443380 0.190045
O O16 0.150282 0.500000 0.000000
O O17 0.000000 0.545586 0.750000
#
# Coordination Sequence:
#
# PCOD9318885 Si02
#       8
#     4   8   8   8   8   8   8   8
#     4   8  18  36  64  86 114 172 202 248 306 378
#     4  10  23  43  63  90 128 173 206 258 321 385
#     4  10  21  39  62  90 123 162 210 261 308 382
#     4  10  21  37  61  93 123 157 214 257 311 374
#     4  11  25  39  63  95 127 166 213 260 325 370
#     4  12  22  39  65  93 126 161 214 264 316 365
#     4  11  24  41  62  96 127 165 210 265 316 383
#     4   9  20  39  66  90 119 167 216 249 312 389
#
# _framework density 19.451205000000002
#
# number of rings (size 3 to 8) (size 9 to 14) (size 15 to 20)
#    0.400    1.333    4.000    0.800    5.600    0.000 
#    4.800    2.667    0.000    0.000    0.000    0.000 
#    0.000    0.000    0.000    0.000    0.000    0.000 
#
# Total GULP energy -167173.841637 kJ/mol
# GULP energy per Si atom -5572.461388 kJ/mol
# Density = 1.940693 g / cm^3
# Si number density = 19.451205 Si / 1000 Ang^3
#
#
#
# Elastic Constant Matrix: (Units=GPa)
#
#
# Indices 1 2 3 4 5 6 
#
# 1 77.9847 3.0036 18.2573 0.0000 0.0000 0.0000
# 2 3.0036 29.4120 2.6692 0.0000 0.0000 0.0000
# 3 18.2573 2.6692 119.9258 0.0000 0.0000 0.0000
# 4 0.0000 0.0000 0.0000 27.8699 0.0000 0.0000
# 5 0.0000 0.0000 0.0000 0.0000 17.0368 0.0000
# 6 0.0000 0.0000 0.0000 0.0000 0.0000 7.6835
#
#
#
# Elastic Compliance Matrix: (Units=1/GPa)
#
#
# Indices 1 2 3 4 5 6 
#
# 1 0.013338 -0.001180 -0.002004 0.000000 0.000000 0.000000
# 2 -0.001180 0.034173 -0.000581 0.000000 0.000000 0.000000
# 3 -0.002004 -0.000581 0.008657 0.000000 0.000000 0.000000
# 4 0.000000 0.000000 0.000000 0.035881 0.000000 0.000000
# 5 0.000000 0.000000 0.000000 0.000000 0.058696 0.000000
# 6 0.000000 0.000000 0.000000 0.000000 0.000000 0.130148
#
#
# Mechanical properties :
#
#
# Convention : Reuss Voigt Hill
#
# Bulk Modulus (GPa) = 20.56066 30.57586 25.56826
# Shear Modulus (GPa) = 16.41304 24.07754 20.24529
#
# Velocity S-wave (km/s) = 2.90798 3.52212 3.22968
# Velocity P-wave (km/s) = 4.67638 5.68276 5.20395
#
# Compressibility (1/GPa) = 0.04863656
#
# Stress axis : x y z
#
# Youngs Moduli (GPa) = 74.97545 29.26285 115.51953
#
# Poissons Ratio (x) = 0.03454 0.23153
# Poissons Ratio (y) = 0.08849 0.06711
# Poissons Ratio (z) = 0.15027 0.01700
#
# Static dielectric constant tensor:
#      x y z
#    x 1.704510 0.000000 0.000000 
#    y 0.000000 1.683810 0.000000 
#    z 0.000000 0.000000 1.716170 
# 
# From -- ./inp_files/21876.got.cif
#   From: 2010.05.17/outbox.cif.g08.bks.cpg/sg20_11_cif.got.tgz:21876.got - 2010.06.03 22:52:26.
