data_PCOD9318966
_publ_section_title
;
Structure prediction by ZEFSAII (Michael W. Deem and Ramdas Pophale) SiO2 
 PCOD9318966
Probable space group: C 2 2 21
;
_chemical_formula_sum "Si O2"
_cell_formula_units_Z 32
_cell_length_a 5.037046
_cell_length_b 36.383177
_cell_length_c 7.909994
_cell_angle_alpha 90.000000
_cell_angle_beta 90.000000
_cell_angle_gamma 90.000000
_cell_volume 1449.615054
_symmetry_space_group_name_H-M "C 2 2 21"
_symmetry_group_IT_number 20
_symmetry_cell_setting 'orthorhombic'
loop_
_space_group_symop_operation_xyz
x,y,z
-x,-y,1/2+z
x,-y,-z
-x,y,1/2-z
1/2+x,1/2+y,z
1/2-x,1/2-y,1/2+z
1/2+x,1/2-y,-z
1/2-x,1/2+y,1/2-z
loop_
_atom_site_type_symbol
_atom_site_label
_atom_site_fract_x
_atom_site_fract_y
_atom_site_fract_z
Si Si1 0.257326 0.843161 0.636551
Si Si2 0.504517 0.458625 0.047620
Si Si3 0.493630 0.914603 0.455293
Si Si4 0.107133 0.771244 0.438864
O O1 0.500000 0.828011 0.750000
O O2 0.384051 0.877877 0.540191
O O3 0.168035 0.811650 0.508290
O O4 0.000000 0.852619 0.750000
O O5 0.500000 0.456945 0.250000
O O6 0.718072 0.428543 0.988396
O O7 0.212045 0.446632 0.993705
O O8 0.574611 0.500000 0.000000
O O9 0.500000 0.910369 0.250000
O O10 0.374905 0.747576 0.451903
O O11 0.000000 0.772778 0.250000
#
# Coordination Sequence:
#
# PCOD9318966 Si02
#       4
#     8   8   8   8
#     4  12  26  44  67  99 133 170 217 269 321 383
#     4  10  21  38  62  90 124 166 215 266 321 383
#     4  10  23  42  62  90 128 172 216 263 322 386
#     4  12  26  46  71  99 133 172 215 266 321 382
#
# _framework density 22.074825000000001
#
# number of rings (size 3 to 8) (size 9 to 14) (size 15 to 20)
#    0.000    1.000    0.000    6.750    0.000   10.000 
#    0.000    0.000    0.000    0.000    0.000    0.000 
#    0.000    0.000    0.000    0.000    0.000    0.000 
#
# Total GULP energy -89585.470848 kJ/mol
# GULP energy per Si atom -5599.091928 kJ/mol
# Density = 2.202458 g / cm^3
# Si number density = 22.074825 Si / 1000 Ang^3
#
#
#
# Elastic Constant Matrix: (Units=GPa)
#
#
# Indices 1 2 3 4 5 6 
#
# 1 130.3341 35.7678 36.3816 0.0000 0.0000 0.0000
# 2 35.7678 140.0935 43.0656 0.0000 0.0000 0.0000
# 3 36.3816 43.0656 69.2538 0.0000 0.0000 0.0000
# 4 0.0000 0.0000 0.0000 27.6072 0.0000 0.0000
# 5 0.0000 0.0000 0.0000 0.0000 29.6927 0.0000
# 6 0.0000 0.0000 0.0000 0.0000 0.0000 45.4308
#
#
#
# Elastic Compliance Matrix: (Units=1/GPa)
#
#
# Indices 1 2 3 4 5 6 
#
# 1 0.009116 -0.001057 -0.004131 0.000000 0.000000 0.000000
# 2 -0.001057 0.008948 -0.005009 0.000000 0.000000 0.000000
# 3 -0.004131 -0.005009 0.019725 0.000000 0.000000 0.000000
# 4 0.000000 0.000000 0.000000 0.036222 0.000000 0.000000
# 5 0.000000 0.000000 0.000000 0.000000 0.033678 0.000000
# 6 0.000000 0.000000 0.000000 0.000000 0.000000 0.022011
#
#
# Mechanical properties :
#
#
# Convention : Reuss Voigt Hill
#
# Bulk Modulus (GPa) = 57.49303 63.34574 60.41938
# Shear Modulus (GPa) = 32.07316 35.51057 33.79186
#
# Velocity S-wave (km/s) = 3.81587 4.01514 3.91677
# Velocity P-wave (km/s) = 6.74652 7.08896 6.91986
#
# Compressibility (1/GPa) = 0.01739341
#
# Stress axis : x y z
#
# Youngs Moduli (GPa) = 109.69685 111.75975 50.69788
#
# Poissons Ratio (x) = 0.11818 0.20945
# Poissons Ratio (y) = 0.11600 0.25393
# Poissons Ratio (z) = 0.45320 0.55977
#
# Static dielectric constant tensor:
#      x y z
#    x 1.788420 0.000000 0.000000 
#    y 0.000000 1.766300 0.000000 
#    z 0.000000 0.000000 1.810440 
# 
# From -- ./inp_files/5239.got.cif
#   From: 2010.05.17/outbox.cif.g08.bks.cpg/sg20_3_cif.got.tgz:5239.got - 2010.06.03 22:52:26.
