data_PCOD9318967
_publ_section_title
;
Structure prediction by ZEFSAII (Michael W. Deem and Ramdas Pophale) SiO2 
 PCOD9318967
Probable space group: C 2 2 21
;
_chemical_formula_sum "Si O2"
_cell_formula_units_Z 56
_cell_length_a 35.201686
_cell_length_b 5.134247
_cell_length_c 14.084524
_cell_angle_alpha 90.000000
_cell_angle_beta 90.000000
_cell_angle_gamma 90.000000
_cell_volume 2545.554484
_symmetry_space_group_name_H-M "C 2 2 21"
_symmetry_group_IT_number 20
_symmetry_cell_setting 'orthorhombic'
loop_
_space_group_symop_operation_xyz
x,y,z
-x,-y,1/2+z
x,-y,-z
-x,y,1/2-z
1/2+x,1/2+y,z
1/2-x,1/2-y,1/2+z
1/2+x,1/2-y,-z
1/2-x,1/2+y,1/2-z
loop_
_atom_site_type_symbol
_atom_site_label
_atom_site_fract_x
_atom_site_fract_y
_atom_site_fract_z
Si Si1 0.390118 0.048503 0.387151
Si Si2 0.106926 0.089617 0.609611
Si Si3 0.855326 0.062395 0.299262
Si Si4 0.475939 0.002146 0.615775
Si Si5 0.819477 0.736875 0.061914
Si Si6 0.774010 0.083550 0.758471
Si Si7 0.021392 0.007058 0.615303
O O1 0.379602 0.341016 0.355009
O O2 0.432494 0.968170 0.353091
O O3 0.389123 0.000000 0.500000
O O4 0.361181 0.846002 0.341515
O O5 0.129535 0.929852 0.690352
O O6 0.137348 0.324451 0.598673
O O7 0.102788 0.000000 0.500000
O O8 0.063553 0.097902 0.644195
O O9 0.811353 0.981209 0.302872
O O10 0.491294 0.722578 0.645313
O O11 0.475116 0.000000 0.500000
O O12 0.505741 0.225280 0.644486
O O13 0.791512 0.791878 0.146988
O O14 0.805849 0.500000 0.000000
O O15 0.821537 0.000000 0.000000
O O16 0.747031 0.311701 0.719587
O O17 0.021228 0.000000 0.500000
#
# Coordination Sequence:
#
# PCOD9318967 Si02
#       7
#     8   8   8   8   8   8   8
#     4  11  23  43  65  88 124 169 215 263 302 348
#     4   9  21  38  62  91 127 162 201 255 310 370
#     4  11  24  42  66  95 121 159 211 251 307 381
#     4   9  18  33  55  80 115 163 208 251 304 350
#     4  10  21  38  62  91 121 161 202 239 299 378
#     4  11  23  43  66  91 126 159 192 249 314 369
#     4   9  17  31  53  84 118 157 201 250 307 360
#
# _framework density 21.999136
#
# number of rings (size 3 to 8) (size 9 to 14) (size 15 to 20)
#    0.000    2.000    0.000    3.000    0.000   13.143 
#    0.000   11.429    0.000    0.000    0.000    0.000 
#    0.000    0.000    0.000    0.000    0.000    0.000 
#
# Total GULP energy -156259.055821 kJ/mol
# GULP energy per Si atom -5580.680565 kJ/mol
# Density = 2.194907 g / cm^3
# Si number density = 21.999136 Si / 1000 Ang^3
#
#
#
# Elastic Constant Matrix: (Units=GPa)
#
#
# Indices 1 2 3 4 5 6 
#
# 1 115.4862 12.4720 8.9456 0.0000 0.0000 0.0000
# 2 12.4720 90.2565 -0.4596 0.0000 0.0000 0.0000
# 3 8.9456 -0.4596 60.5878 0.0000 0.0000 0.0000
# 4 0.0000 0.0000 0.0000 23.6017 0.0000 0.0000
# 5 0.0000 0.0000 0.0000 0.0000 17.9820 0.0000
# 6 0.0000 0.0000 0.0000 0.0000 0.0000 24.0499
#
#
#
# Elastic Compliance Matrix: (Units=1/GPa)
#
#
# Indices 1 2 3 4 5 6 
#
# 1 0.008895 -0.001236 -0.001323 0.000000 0.000000 0.000000
# 2 -0.001236 0.011252 0.000268 0.000000 0.000000 0.000000
# 3 -0.001323 0.000268 0.016702 0.000000 0.000000 0.000000
# 4 0.000000 0.000000 0.000000 0.042370 0.000000 0.000000
# 5 0.000000 0.000000 0.000000 0.000000 0.055611 0.000000
# 6 0.000000 0.000000 0.000000 0.000000 0.000000 0.041580
#
#
# Mechanical properties :
#
#
# Convention : Reuss Voigt Hill
#
# Bulk Modulus (GPa) = 30.99096 34.24960 32.62028
# Shear Modulus (GPa) = 26.07596 29.48488 27.78042
#
# Velocity S-wave (km/s) = 3.44658 3.66495 3.55744
# Velocity P-wave (km/s) = 5.47325 5.78891 5.63329
#
# Compressibility (1/GPa) = 0.03226748
#
# Stress axis : x y z
#
# Youngs Moduli (GPa) = 112.42311 88.87563 59.87198
#
# Poissons Ratio (x) = 0.10984 0.07919
# Poissons Ratio (y) = 0.13894 -0.01604
# Poissons Ratio (z) = 0.14870 -0.02380
#
# Static dielectric constant tensor:
#      x y z
#    x 1.821000 0.000000 0.000000 
#    y 0.000000 1.766800 0.000000 
#    z 0.000000 0.000000 1.853870 
# 
# From -- ./inp_files/22273.got.cif
#   From: 2010.05.17/outbox.cif.g08.bks.cpg/sg20_12_cif.got.tgz:22273.got - 2010.06.03 22:52:26.
