data_PCOD9318608
_publ_section_title
;
Structure prediction by ZEFSAII (Michael W. Deem and Ramdas Pophale) SiO2 
 PCOD9318608
Probable space group: C 2 2 21
;
_chemical_formula_sum "Si O2"
_cell_formula_units_Z 48
_cell_length_a 16.363527
_cell_length_b 15.826926
_cell_length_c 8.048720
_cell_angle_alpha 90.000000
_cell_angle_beta 90.000000
_cell_angle_gamma 90.000000
_cell_volume 2084.492364
_symmetry_space_group_name_H-M "C 2 2 21"
_symmetry_group_IT_number 20
_symmetry_cell_setting 'orthorhombic'
loop_
_space_group_symop_operation_xyz
x,y,z
-x,-y,1/2+z
x,-y,-z
-x,y,1/2-z
1/2+x,1/2+y,z
1/2-x,1/2-y,1/2+z
1/2+x,1/2-y,-z
1/2-x,1/2+y,1/2-z
loop_
_atom_site_type_symbol
_atom_site_label
_atom_site_fract_x
_atom_site_fract_y
_atom_site_fract_z
Si Si1 0.500000 0.592243 0.250000
Si Si2 0.142893 0.902386 0.957259
Si Si3 0.778454 0.141108 0.800643
Si Si4 0.200914 0.664573 0.298473
Si Si5 0.459405 0.092339 0.065808
Si Si6 0.621900 0.500000 0.500000
Si Si7 0.373151 0.099776 0.542407
O O1 0.438218 0.637979 0.376920
O O2 0.562693 0.536436 0.357790
O O3 0.220491 0.893287 0.835745
O O4 0.173455 0.863464 0.128416
O O5 0.124931 0.000000 0.000000
O O6 0.777010 0.239718 0.841355
O O7 0.824053 0.076278 0.925096
O O8 0.684179 0.111795 0.799116
O O9 0.123195 0.642636 0.411230
O O10 0.171593 0.647465 0.110107
O O11 0.500000 0.085214 0.250000
O O12 0.532921 0.127876 0.952996
O O13 0.438524 0.000000 0.000000
O O14 0.375408 0.000000 0.500000
#
# Coordination Sequence:
#
# PCOD9318608 Si02
#       7
#     4   8   8   8   8   4   8
#     4  12  24  46  70 106 134 184 258 292 362 440
#     4  12  24  44  71 106 140 189 245 295 359 445
#     4  12  24  43  71 100 144 190 235 295 368 435
#     4  11  24  43  68 106 141 184 239 301 364 431
#     4   9  20  40  67  97 134 178 234 286 354 430
#     4  12  22  46  70  98 138 196 234 298 364 436
#     4  10  20  42  68  94 136 188 233 287 363 434
#
# _framework density 23.027190000000001
#
# number of rings (size 3 to 8) (size 9 to 14) (size 15 to 20)
#    0.000    1.000    3.333    3.500    0.000    2.667 
#   16.500    0.000    1.833    0.000    0.000    0.000 
#    0.000    0.000    0.000    0.000    0.000    0.000 
#
# Total GULP energy -134238.049363 kJ/mol
# GULP energy per Si atom -5593.252057 kJ/mol
# Density = 2.297478 g / cm^3
# Si number density = 23.027190 Si / 1000 Ang^3
#
#
#
# Elastic Constant Matrix: (Units=GPa)
#
#
# Indices 1 2 3 4 5 6 
#
# 1 154.1682 17.3058 39.4281 0.0000 0.0000 0.0000
# 2 17.3058 51.3440 7.8076 0.0000 0.0000 0.0000
# 3 39.4281 7.8076 88.0667 0.0000 0.0000 0.0000
# 4 0.0000 0.0000 0.0000 27.1111 0.0000 0.0000
# 5 0.0000 0.0000 0.0000 0.0000 34.0805 0.0000
# 6 0.0000 0.0000 0.0000 0.0000 0.0000 -4.9611
#
#
#
# Elastic Compliance Matrix: (Units=1/GPa)
#
#
# Indices 1 2 3 4 5 6 
#
# 1 0.007533 -0.002054 -0.003190 0.000000 0.000000 0.000000
# 2 -0.002054 0.020303 -0.000880 0.000000 0.000000 0.000000
# 3 -0.003190 -0.000880 0.012861 0.000000 0.000000 0.000000
# 4 0.000000 0.000000 0.000000 0.036885 0.000000 0.000000
# 5 0.000000 0.000000 0.000000 0.000000 0.029342 0.000000
# 6 0.000000 0.000000 0.000000 0.000000 0.000000 -0.201569
#
#
# Mechanical properties :
#
#
# Convention : Reuss Voigt Hill
#
# Bulk Modulus (GPa) = 35.15244 46.96244 41.05744
# Shear Modulus (GPa) = -68.57559 26.51526 -21.03016
#
# Velocity S-wave (km/s) = -5.46305 3.39702 -3.02532
# Velocity P-wave (km/s) = 4.94919 5.98540 2.38018
#
# Compressibility (1/GPa) = 0.02844753
#
# Stress axis : x y z
#
# Youngs Moduli (GPa) = 132.75059 49.25478 77.75158
#
# Poissons Ratio (x) = 0.10116 0.24806
# Poissons Ratio (y) = 0.27265 0.06845
# Poissons Ratio (z) = 0.42354 0.04337
#
# Static dielectric constant tensor:
#      x y z
#    x 1.845210 0.000000 0.000000 
#    y 0.000000 1.799940 0.000000 
#    z 0.000000 0.000000 1.970550 
# 
# From -- ./inp_files/9367.got.cif
#   From: 2010.05.17/outbox.cif.g08.bks.cpg/sg20_5_cif.got.tgz:9367.got - 2010.06.03 22:52:26.
