data_PCOD9318820
_publ_section_title
;
Structure prediction by ZEFSAII (Michael W. Deem and Ramdas Pophale) SiO2 
 PCOD9318820
Probable space group: C 2 2 21
;
_chemical_formula_sum "Si O2"
_cell_formula_units_Z 52
_cell_length_a 8.830964
_cell_length_b 19.575131
_cell_length_c 14.631602
_cell_angle_alpha 90.000000
_cell_angle_beta 90.000000
_cell_angle_gamma 90.000000
_cell_volume 2529.325198
_symmetry_space_group_name_H-M "C 2 2 21"
_symmetry_group_IT_number 20
_symmetry_cell_setting 'orthorhombic'
loop_
_space_group_symop_operation_xyz
x,y,z
-x,-y,1/2+z
x,-y,-z
-x,y,1/2-z
1/2+x,1/2+y,z
1/2-x,1/2-y,1/2+z
1/2+x,1/2-y,-z
1/2-x,1/2+y,1/2-z
loop_
_atom_site_type_symbol
_atom_site_label
_atom_site_fract_x
_atom_site_fract_y
_atom_site_fract_z
Si Si1 0.029297 0.611292 0.427316
Si Si2 0.500000 0.728488 0.250000
Si Si3 0.223794 0.500000 0.500000
Si Si4 0.554928 0.383845 0.073306
Si Si5 0.714535 0.132984 0.920490
Si Si6 0.500000 0.194071 0.250000
Si Si7 0.266712 0.313157 0.267330
Si Si8 0.181362 0.793460 0.926279
O O1 0.117526 0.539020 0.426567
O O2 0.960276 0.643992 0.334687
O O3 0.164835 0.665097 0.443726
O O4 0.911869 0.605361 0.510980
O O5 0.618419 0.775775 0.306808
O O6 0.401941 0.691897 0.328581
O O7 0.334458 0.555349 0.544869
O O8 0.378455 0.401865 0.070339
O O9 0.622621 0.353887 0.166860
O O10 0.569569 0.321646 0.002743
O O11 0.699053 0.137665 0.810675
O O12 0.712767 0.214103 0.941418
O O13 0.365610 0.248459 0.230057
#
# Coordination Sequence:
#
# PCOD9318820 Si02
#       8
#     8   4   4   8   8   4   8   8
#     4  11  24  43  65  95 142 179 238 281 346 424
#     4  10  22  34  61 103 140 168 212 264 376 422
#     4  10  28  48  58  90 136 196 238 278 342 420
#     4  11  23  41  67  88 140 179 227 288 339 422
#     4  11  21  38  70 103 128 175 224 294 365 412
#     4  12  20  44  69 105 140 168 224 314 358 418
#     4  11  22  39  67 108 139 168 229 293 367 423
#     4  10  21  36  61 104 132 170 213 284 358 414
#
# _framework density 20.558844000000001
#
# number of rings (size 3 to 8) (size 9 to 14) (size 15 to 20)
#    0.000    1.231    4.615    1.846   12.923    0.615 
#    2.769    0.000   16.923    0.000    0.000    0.000 
#    0.000    0.000    0.000    0.000    0.000    0.000 
#
# Total GULP energy -144742.142808 kJ/mol
# GULP energy per Si atom -5567.005493 kJ/mol
# Density = 2.051205 g / cm^3
# Si number density = 20.558844 Si / 1000 Ang^3
#
#
#
# Elastic Constant Matrix: (Units=GPa)
#
#
# Indices 1 2 3 4 5 6 
#
# 1 109.8156 15.4118 42.7669 0.0000 0.0000 0.0000
# 2 15.4118 70.4075 24.2653 0.0000 0.0000 0.0000
# 3 42.7669 24.2653 105.0619 0.0000 0.0000 0.0000
# 4 0.0000 0.0000 0.0000 13.6142 0.0000 0.0000
# 5 0.0000 0.0000 0.0000 0.0000 36.7524 0.0000
# 6 0.0000 0.0000 0.0000 0.0000 0.0000 14.2710
#
#
#
# Elastic Compliance Matrix: (Units=1/GPa)
#
#
# Indices 1 2 3 4 5 6 
#
# 1 0.010877 -0.000929 -0.004213 0.000000 0.000000 0.000000
# 2 -0.000929 0.015511 -0.003204 0.000000 0.000000 0.000000
# 3 -0.004213 -0.003204 0.011973 0.000000 0.000000 0.000000
# 4 0.000000 0.000000 0.000000 0.073453 0.000000 0.000000
# 5 0.000000 0.000000 0.000000 0.000000 0.027209 0.000000
# 6 0.000000 0.000000 0.000000 0.000000 0.000000 0.070072
#
#
# Mechanical properties :
#
#
# Convention : Reuss Voigt Hill
#
# Bulk Modulus (GPa) = 46.14988 50.01924 48.08456
# Shear Modulus (GPa) = 21.45824 26.45027 23.95426
#
# Velocity S-wave (km/s) = 3.23421 3.59076 3.41714
# Velocity P-wave (km/s) = 6.03683 6.44779 6.24569
#
# Compressibility (1/GPa) = 0.02166853
#
# Stress axis : x y z
#
# Youngs Moduli (GPa) = 91.93413 64.47169 83.51911
#
# Poissons Ratio (x) = 0.05989 0.35189
# Poissons Ratio (y) = 0.08540 0.26762
# Poissons Ratio (z) = 0.38734 0.20658
#
# Static dielectric constant tensor:
#      x y z
#    x 1.793860 0.000000 0.000000 
#    y 0.000000 1.713830 0.000000 
#    z 0.000000 0.000000 1.825460 
# 
# From -- ./inp_files/19169.got.cif
#   From: 2010.05.17/outbox.cif.g08.bks.cpg/sg20_10_cif.got.tgz:19169.got - 2010.06.03 22:52:26.
