data_PCOD9318222
_publ_section_title
;
Structure prediction by ZEFSAII (Michael W. Deem and Ramdas Pophale) SiO2 
 PCOD9318222
Probable space group: C 2 2 21
;
_chemical_formula_sum "Si O2"
_cell_formula_units_Z 64
_cell_length_a 9.688120
_cell_length_b 14.472668
_cell_length_c 22.268923
_cell_angle_alpha 90.000000
_cell_angle_beta 90.000000
_cell_angle_gamma 90.000000
_cell_volume 3122.391260
_symmetry_space_group_name_H-M "C 2 2 21"
_symmetry_group_IT_number 20
_symmetry_cell_setting 'orthorhombic'
loop_
_space_group_symop_operation_xyz
x,y,z
-x,-y,1/2+z
x,-y,-z
-x,y,1/2-z
1/2+x,1/2+y,z
1/2-x,1/2-y,1/2+z
1/2+x,1/2-y,-z
1/2-x,1/2+y,1/2-z
loop_
_atom_site_type_symbol
_atom_site_label
_atom_site_fract_x
_atom_site_fract_y
_atom_site_fract_z
Si Si1 0.438240 0.669940 0.901148
Si Si2 0.086454 0.465001 0.309561
Si Si3 0.561836 0.920263 0.448625
Si Si4 0.355662 0.609349 0.506844
Si Si5 0.411945 0.533933 0.689722
Si Si6 0.087456 0.686201 0.305734
Si Si7 0.091795 0.185058 0.192309
Si Si8 0.364081 0.226310 0.576679
O O1 0.507281 0.590110 0.861031
O O2 0.464796 0.765358 0.866037
O O3 0.273837 0.669125 0.908505
O O4 0.512929 0.657606 0.963964
O O5 0.036732 0.444222 0.378102
O O6 0.249836 0.439668 0.304108
O O7 0.077654 0.576375 0.307664
O O8 0.000000 0.432123 0.250000
O O9 0.719870 0.886952 0.452206
O O10 0.457854 0.838086 0.464222
O O11 0.550195 0.000000 0.500000
O O12 0.383076 0.500000 0.500000
O O13 0.321743 0.673409 0.449686
O O14 0.500000 0.548146 0.750000
O O15 0.415508 0.423877 0.676895
O O16 0.248213 0.708452 0.296368
O O17 0.000000 0.722178 0.250000
O O18 0.050484 0.247180 0.136097
O O19 0.000000 0.201566 0.250000
#
# Coordination Sequence:
#
# PCOD9318222 Si02
#       8
#     8   8   8   8   8   8   8   8
#     4  11  22  38  65  91 131 163 215 275 328 393
#     4  10  22  42  68  96 132 176 225 269 333 395
#     4  11  26  44  68  96 133 179 219 274 333 400
#     4  11  24  43  70  91 123 177 225 270 332 398
#     4  10  20  38  65  97 128 173 217 268 333 396
#     4   9  20  37  61  92 123 167 209 264 321 387
#     4   9  20  39  63  89 130 169 212 267 328 388
#     4  11  25  41  63  99 131 168 221 279 323 391
#
# _framework density 20.497111
#
# number of rings (size 3 to 8) (size 9 to 14) (size 15 to 20)
#    0.000    1.750    1.250    1.875   12.250    2.000 
#    2.250    1.250    0.000    0.000    0.000    0.000 
#    0.000    0.000    0.000    0.000    0.000    0.000 
#
# Total GULP energy -178476.967128 kJ/mol
# GULP energy per Si atom -5577.405223 kJ/mol
# Density = 2.045046 g / cm^3
# Si number density = 20.497111 Si / 1000 Ang^3
#
#
#
# Elastic Constant Matrix: (Units=GPa)
#
#
# Indices 1 2 3 4 5 6 
#
# 1 75.8057 58.5350 37.6731 0.0000 0.0000 0.0000
# 2 58.5350 74.2565 31.8493 0.0000 0.0000 0.0000
# 3 37.6731 31.8493 85.8079 0.0000 0.0000 0.0000
# 4 0.0000 0.0000 0.0000 33.5220 0.0000 0.0000
# 5 0.0000 0.0000 0.0000 0.0000 32.5040 0.0000
# 6 0.0000 0.0000 0.0000 0.0000 0.0000 7.0144
#
#
#
# Elastic Compliance Matrix: (Units=1/GPa)
#
#
# Indices 1 2 3 4 5 6 
#
# 1 0.036397 -0.025972 -0.006340 0.000000 0.000000 0.000000
# 2 -0.025972 0.034549 -0.001421 0.000000 0.000000 0.000000
# 3 -0.006340 -0.001421 0.014965 0.000000 0.000000 0.000000
# 4 0.000000 0.000000 0.000000 0.029831 0.000000 0.000000
# 5 0.000000 0.000000 0.000000 0.000000 0.030765 0.000000
# 6 0.000000 0.000000 0.000000 0.000000 0.000000 0.142564
#
#
# Mechanical properties :
#
#
# Convention : Reuss Voigt Hill
#
# Bulk Modulus (GPa) = 54.21251 54.66497 54.43874
# Shear Modulus (GPa) = 13.78603 21.79560 17.79082
#
# Velocity S-wave (km/s) = 2.59624 3.26444 2.94932
# Velocity P-wave (km/s) = 5.95764 6.39815 6.18182
#
# Compressibility (1/GPa) = 0.01844593
#
# Stress axis : x y z
#
# Youngs Moduli (GPa) = 27.47476 28.94403 66.82357
#
# Poissons Ratio (x) = 0.75173 0.42365
# Poissons Ratio (y) = 0.71357 0.09496
# Poissons Ratio (z) = 0.17418 0.04113
#
# Static dielectric constant tensor:
#      x y z
#    x 1.694760 0.000000 0.000000 
#    y 0.000000 1.737920 0.000000 
#    z 0.000000 0.000000 1.808810 
# 
# From -- ./inp_files/28890.got.cif
#   From: 2010.05.17/outbox.cif.g08.bks.cpg/sg20_15_cif.got.tgz:28890.got - 2010.06.03 22:52:26.
