data_PCOD9318694
_publ_section_title
;
Structure prediction by ZEFSAII (Michael W. Deem and Ramdas Pophale) SiO2 
 PCOD9318694
Probable space group: C 2 2 21
;
_chemical_formula_sum "Si O2"
_cell_formula_units_Z 56
_cell_length_a 13.726998
_cell_length_b 11.549449
_cell_length_c 15.153557
_cell_angle_alpha 90.000000
_cell_angle_beta 90.000000
_cell_angle_gamma 90.000000
_cell_volume 2402.433764
_symmetry_space_group_name_H-M "C 2 2 21"
_symmetry_group_IT_number 20
_symmetry_cell_setting 'orthorhombic'
loop_
_space_group_symop_operation_xyz
x,y,z
-x,-y,1/2+z
x,-y,-z
-x,y,1/2-z
1/2+x,1/2+y,z
1/2-x,1/2-y,1/2+z
1/2+x,1/2-y,-z
1/2-x,1/2+y,1/2-z
loop_
_atom_site_type_symbol
_atom_site_label
_atom_site_fract_x
_atom_site_fract_y
_atom_site_fract_z
Si Si1 0.363367 0.834315 0.529445
Si Si2 0.396304 0.328503 0.780096
Si Si3 0.784821 0.441938 0.812653
Si Si4 0.564848 0.796603 0.594015
Si Si5 0.580820 0.548520 0.597945
Si Si6 0.297103 0.949066 0.373154
Si Si7 0.703886 0.835280 0.424914
O O1 0.465252 0.862538 0.574305
O O2 0.368444 0.864699 0.425745
O O3 0.308932 0.714849 0.546397
O O4 0.293589 0.929126 0.574819
O O5 0.500000 0.277262 0.750000
O O6 0.317398 0.376982 0.708724
O O7 0.428447 0.442922 0.835447
O O8 0.338703 0.240350 0.843478
O O9 0.869919 0.349655 0.829221
O O10 0.811395 0.518875 0.727247
O O11 0.784630 0.532408 0.893517
O O12 0.523921 0.667101 0.610725
O O13 0.630105 0.810252 0.505561
O O14 0.567780 0.500000 0.500000
O O15 0.689481 0.599473 0.612779
#
# Coordination Sequence:
#
# PCOD9318694 Si02
#       7
#     8   8   8   8   8   8   8
#     4  11  23  45  74 100 133 196 234 281 350 438
#     4  11  26  47  71 105 138 184 238 288 361 414
#     4  11  28  45  69 107 145 177 234 309 345 399
#     4  12  27  45  72 105 143 181 244 288 358 415
#     4  11  19  47  74  95 131 191 231 283 340 432
#     4  10  20  44  72  92 138 184 239 274 348 426
#     4  12  25  49  68 102 147 184 236 297 352 418
#
# _framework density 23.309695000000001
#
# number of rings (size 3 to 8) (size 9 to 14) (size 15 to 20)
#    0.000    0.857    7.143    0.429   10.000    2.857 
#    0.000    0.000    0.000    0.000    0.000    0.000 
#    0.000    0.000    0.000    0.000    0.000    0.000 
#
# Total GULP energy -156422.171459 kJ/mol
# GULP energy per Si atom -5586.506124 kJ/mol
# Density = 2.325664 g / cm^3
# Si number density = 23.309695 Si / 1000 Ang^3
#
#
#
# Elastic Constant Matrix: (Units=GPa)
#
#
# Indices 1 2 3 4 5 6 
#
# 1 93.3895 -1.8305 11.5772 0.0000 0.0000 0.0000
# 2 -1.8305 69.3300 10.6915 0.0000 0.0000 0.0000
# 3 11.5772 10.6915 58.4174 0.0000 0.0000 0.0000
# 4 0.0000 0.0000 0.0000 15.7451 0.0000 0.0000
# 5 0.0000 0.0000 0.0000 0.0000 14.7682 0.0000
# 6 0.0000 0.0000 0.0000 0.0000 0.0000 9.6531
#
#
#
# Elastic Compliance Matrix: (Units=1/GPa)
#
#
# Indices 1 2 3 4 5 6 
#
# 1 0.011006 0.000645 -0.002299 0.000000 0.000000 0.000000
# 2 0.000645 0.014881 -0.002851 0.000000 0.000000 0.000000
# 3 -0.002299 -0.002851 0.018096 0.000000 0.000000 0.000000
# 4 0.000000 0.000000 0.000000 0.063512 0.000000 0.000000
# 5 0.000000 0.000000 0.000000 0.000000 0.067713 0.000000
# 6 0.000000 0.000000 0.000000 0.000000 0.000000 0.103594
#
#
# Mechanical properties :
#
#
# Convention : Reuss Voigt Hill
#
# Bulk Modulus (GPa) = 28.59503 29.11258 28.85380
# Shear Modulus (GPa) = 16.69630 21.41320 19.05475
#
# Velocity S-wave (km/s) = 2.67925 3.03419 2.86223
# Velocity P-wave (km/s) = 4.67603 4.97913 4.82995
#
# Compressibility (1/GPa) = 0.03497111
#
# Stress axis : x y z
#
# Youngs Moduli (GPa) = 90.86364 67.20202 55.26178
#
# Poissons Ratio (x) = -0.04335 0.12706
# Poissons Ratio (y) = -0.05862 0.15757
# Poissons Ratio (z) = 0.20891 0.19161
#
# Static dielectric constant tensor:
#      x y z
#    x 1.830930 0.000000 0.000000 
#    y 0.000000 1.888370 0.000000 
#    z 0.000000 0.000000 1.924940 
# 
# From -- ./inp_files/20753.got.cif
#   From: 2010.05.17/outbox.cif.g08.bks.cpg/sg20_11_cif.got.tgz:20753.got - 2010.06.03 22:52:26.
