data_PCOD9318396
_publ_section_title
;
Structure prediction by ZEFSAII (Michael W. Deem and Ramdas Pophale) SiO2 
 PCOD9318396
Probable space group: C 2 2 21
;
_chemical_formula_sum "Si O2"
_cell_formula_units_Z 56
_cell_length_a 21.588428
_cell_length_b 9.600288
_cell_length_c 14.611031
_cell_angle_alpha 90.000000
_cell_angle_beta 90.000000
_cell_angle_gamma 90.000000
_cell_volume 3028.211075
_symmetry_space_group_name_H-M "C 2 2 21"
_symmetry_group_IT_number 20
_symmetry_cell_setting 'orthorhombic'
loop_
_space_group_symop_operation_xyz
x,y,z
-x,-y,1/2+z
x,-y,-z
-x,y,1/2-z
1/2+x,1/2+y,z
1/2-x,1/2-y,1/2+z
1/2+x,1/2-y,-z
1/2-x,1/2+y,1/2-z
loop_
_atom_site_type_symbol
_atom_site_label
_atom_site_fract_x
_atom_site_fract_y
_atom_site_fract_z
Si Si1 0.023176 0.757295 0.148331
Si Si2 0.774765 0.331546 0.981157
Si Si3 0.269301 0.751123 0.669614
Si Si4 0.872475 0.030280 0.607354
Si Si5 0.172532 0.248401 0.166701
Si Si6 0.377278 0.036106 0.291213
Si Si7 0.595104 0.107045 0.416078
O O1 0.064264 0.883347 0.111912
O O2 0.069718 0.626540 0.160091
O O3 0.000000 0.793318 0.250000
O O4 0.963761 0.707462 0.092181
O O5 0.719569 0.280069 0.916728
O O6 0.841187 0.310794 0.934633
O O7 0.772148 0.500000 0.000000
O O8 0.767476 0.246855 0.074498
O O9 0.318052 0.625131 0.652008
O O10 0.218119 0.733084 0.747203
O O11 0.312412 0.881930 0.694891
O O12 0.861201 0.000000 0.500000
O O13 0.870591 0.887626 0.664108
O O14 0.131496 0.386152 0.164170
O O15 0.394554 0.033138 0.183060
O O16 0.587004 0.000000 0.500000
#
# Coordination Sequence:
#
# PCOD9318396 Si02
#       7
#     8   8   8   8   8   8   8
#     4   9  22  44  62  84 118 168 209 254 307 358
#     4  11  20  37  61  91 125 160 198 250 316 365
#     4  11  20  37  57  93 130 159 195 252 312 373
#     4  11  22  41  64  86 125 166 206 250 312 368
#     4  12  20  35  62  96 122 155 202 251 309 370
#     4  10  22  36  61  92 124 158 205 253 304 361
#     4  10  20  40  63  88 120 166 210 254 299 367
#
# _framework density 18.492764999999999
#
# number of rings (size 3 to 8) (size 9 to 14) (size 15 to 20)
#    0.000    1.429    4.286    2.571    0.000    1.714 
#    0.000    5.000    0.000    0.000    0.000    0.000 
#    0.000    0.000    0.000    0.000    0.000    0.000 
#
# Total GULP energy -156206.289699 kJ/mol
# GULP energy per Si atom -5578.796061 kJ/mol
# Density = 1.845068 g / cm^3
# Si number density = 18.492765 Si / 1000 Ang^3
#
#
#
# Elastic Constant Matrix: (Units=GPa)
#
#
# Indices 1 2 3 4 5 6 
#
# 1 99.1568 47.6528 26.3722 0.0000 0.0000 0.0000
# 2 47.6528 111.4355 40.7002 0.0000 0.0000 0.0000
# 3 26.3722 40.7002 84.4318 0.0000 0.0000 0.0000
# 4 0.0000 0.0000 0.0000 22.6796 0.0000 0.0000
# 5 0.0000 0.0000 0.0000 0.0000 28.3624 0.0000
# 6 0.0000 0.0000 0.0000 0.0000 0.0000 25.8321
#
#
#
# Elastic Compliance Matrix: (Units=1/GPa)
#
#
# Indices 1 2 3 4 5 6 
#
# 1 0.012883 -0.004902 -0.001661 0.000000 0.000000 0.000000
# 2 -0.004902 0.012757 -0.004618 0.000000 0.000000 0.000000
# 3 -0.001661 -0.004618 0.014589 0.000000 0.000000 0.000000
# 4 0.000000 0.000000 0.000000 0.044093 0.000000 0.000000
# 5 0.000000 0.000000 0.000000 0.000000 0.035258 0.000000
# 6 0.000000 0.000000 0.000000 0.000000 0.000000 0.038712
#
#
# Mechanical properties :
#
#
# Convention : Reuss Voigt Hill
#
# Bulk Modulus (GPa) = 55.97286 58.27494 57.12390
# Shear Modulus (GPa) = 26.79407 27.39474 27.09440
#
# Velocity S-wave (km/s) = 3.81056 3.85304 3.83186
# Velocity P-wave (km/s) = 7.04937 7.16765 7.10876
#
# Compressibility (1/GPa) = 0.01786580
#
# Stress axis : x y z
#
# Youngs Moduli (GPa) = 77.62324 78.38864 68.54576
#
# Poissons Ratio (x) = 0.38430 0.11383
# Poissons Ratio (y) = 0.38054 0.31656
# Poissons Ratio (z) = 0.12891 0.36201
#
# Static dielectric constant tensor:
#      x y z
#    x 1.652530 0.000000 0.000000 
#    y 0.000000 1.643960 0.000000 
#    z 0.000000 0.000000 1.605310 
# 
# From -- ./inp_files/21756.got.cif
#   From: 2010.05.17/outbox.cif.g08.bks.cpg/sg20_11_cif.got.tgz:21756.got - 2010.06.03 22:52:26.
