data_PCOD9318993
_publ_section_title
;
Structure prediction by ZEFSAII (Michael W. Deem and Ramdas Pophale) SiO2 
 PCOD9318993
Probable space group: C 2 2 21
;
_chemical_formula_sum "Si O2"
_cell_formula_units_Z 40
_cell_length_a 5.475256
_cell_length_b 22.050199
_cell_length_c 14.911080
_cell_angle_alpha 90.000000
_cell_angle_beta 90.000000
_cell_angle_gamma 90.000000
_cell_volume 1800.221911
_symmetry_space_group_name_H-M "C 2 2 21"
_symmetry_group_IT_number 20
_symmetry_cell_setting 'orthorhombic'
loop_
_space_group_symop_operation_xyz
x,y,z
-x,-y,1/2+z
x,-y,-z
-x,y,1/2-z
1/2+x,1/2+y,z
1/2-x,1/2-y,1/2+z
1/2+x,1/2-y,-z
1/2-x,1/2+y,1/2-z
loop_
_atom_site_type_symbol
_atom_site_label
_atom_site_fract_x
_atom_site_fract_y
_atom_site_fract_z
Si Si1 0.000000 0.088949 0.750000
Si Si2 0.500000 0.164509 0.750000
Si Si3 0.947023 0.444442 0.570798
Si Si4 0.444961 0.513941 0.393487
Si Si5 0.934510 0.232774 0.106260
Si Si6 0.065155 0.312338 0.568493
O O1 0.250365 0.126578 0.746393
O O2 0.988772 0.046439 0.662677
O O3 0.514669 0.208989 0.665854
O O4 0.930631 0.500000 0.500000
O O5 0.181817 0.458976 0.631867
O O6 0.683932 0.444591 0.617830
O O7 0.005819 0.378819 0.528767
O O8 0.426774 0.500000 0.500000
O O9 0.168136 0.188869 0.113145
O O10 0.671338 0.204011 0.127922
O O11 0.918402 0.259130 0.005267
#
# Coordination Sequence:
#
# PCOD9318993 Si02
#       6
#     4   4   8   8   8   8
#     4  12  26  42  65 100 137 174 226 290 324 400
#     4  12  26  42  69  96 133 170 228 286 328 386
#     4  10  21  38  65  95 126 177 211 267 324 406
#     4  10  23  39  61  94 132 174 217 264 344 396
#     4  10  23  40  63  96 125 171 217 273 331 379
#     4  10  21  41  65  92 130 168 222 263 323 402
#
# _framework density 22.219483
#
# number of rings (size 3 to 8) (size 9 to 14) (size 15 to 20)
#    0.000    1.600    0.000    3.600   11.200    0.000 
#    0.000    6.000    0.000    0.000    0.000    0.000 
#    0.000    0.000    0.000    0.000    0.000    0.000 
#
# Total GULP energy -111598.284587 kJ/mol
# GULP energy per Si atom -5579.914229 kJ/mol
# Density = 2.216891 g / cm^3
# Si number density = 22.219483 Si / 1000 Ang^3
#
#
#
# Elastic Constant Matrix: (Units=GPa)
#
#
# Indices 1 2 3 4 5 6 
#
# 1 199.3968 17.7439 11.9114 0.0000 0.0000 0.0000
# 2 17.7439 67.2679 -5.1446 0.0000 0.0000 0.0000
# 3 11.9114 -5.1446 42.7552 0.0000 0.0000 0.0000
# 4 0.0000 0.0000 0.0000 -1.2616 0.0000 0.0000
# 5 0.0000 0.0000 0.0000 0.0000 10.8525 0.0000
# 6 0.0000 0.0000 0.0000 0.0000 0.0000 44.1225
#
#
#
# Elastic Compliance Matrix: (Units=1/GPa)
#
#
# Indices 1 2 3 4 5 6 
#
# 1 0.005248 -0.001510 -0.001644 0.000000 0.000000 0.000000
# 2 -0.001510 0.015438 0.002278 0.000000 0.000000 0.000000
# 3 -0.001644 0.002278 0.024121 0.000000 0.000000 0.000000
# 4 0.000000 0.000000 0.000000 -0.792659 0.000000 0.000000
# 5 0.000000 0.000000 0.000000 0.000000 0.092144 0.000000
# 6 0.000000 0.000000 0.000000 0.000000 0.000000 0.022664
#
#
# Mechanical properties :
#
#
# Convention : Reuss Voigt Hill
#
# Bulk Modulus (GPa) = 23.22526 39.82682 31.52604
# Shear Modulus (GPa) = -8.10450 29.73666 10.81608
#
# Velocity S-wave (km/s) = -1.91191 3.66227 2.20871
# Velocity P-wave (km/s) = 2.36675 5.98716 4.55234
#
# Compressibility (1/GPa) = 0.04305656
#
# Stress axis : x y z
#
# Youngs Moduli (GPa) = 190.56051 64.77333 41.45765
#
# Poissons Ratio (x) = 0.09780 0.06814
# Poissons Ratio (y) = 0.28773 -0.09445
# Poissons Ratio (z) = 0.31322 -0.14757
#
# Static dielectric constant tensor:
#      x y z
#    x 2.314420 0.000000 0.000000 
#    y 0.000000 1.800860 0.000000 
#    z 0.000000 0.000000 1.800730 
# 
# From -- ./inp_files/22673.got.cif
#   From: 2010.05.17/outbox.cif.g08.bks.cpg/sg20_12_cif.got.tgz:22673.got - 2010.06.03 22:52:26.
