data_PCOD9318922
_publ_section_title
;
Structure prediction by ZEFSAII (Michael W. Deem and Ramdas Pophale) SiO2 
 PCOD9318922
Probable space group: C 2 2 21
;
_chemical_formula_sum "Si O2"
_cell_formula_units_Z 56
_cell_length_a 5.418673
_cell_length_b 25.961969
_cell_length_c 18.785812
_cell_angle_alpha 90.000000
_cell_angle_beta 90.000000
_cell_angle_gamma 90.000000
_cell_volume 2642.777145
_symmetry_space_group_name_H-M "C 2 2 21"
_symmetry_group_IT_number 20
_symmetry_cell_setting 'orthorhombic'
loop_
_space_group_symop_operation_xyz
x,y,z
-x,-y,1/2+z
x,-y,-z
-x,y,1/2-z
1/2+x,1/2+y,z
1/2-x,1/2-y,1/2+z
1/2+x,1/2-y,-z
1/2-x,1/2+y,1/2-z
loop_
_atom_site_type_symbol
_atom_site_label
_atom_site_fract_x
_atom_site_fract_y
_atom_site_fract_z
Si Si1 0.716819 0.138712 0.070772
Si Si2 0.026804 0.939846 0.477086
Si Si3 0.239198 0.016823 0.207485
Si Si4 0.849473 0.622765 0.177558
Si Si5 0.482846 0.717667 0.334486
Si Si6 0.958761 0.537773 0.931492
Si Si7 0.467995 0.224098 0.528641
O O1 0.520119 0.105490 0.113113
O O2 0.809411 0.181289 0.128111
O O3 0.912194 0.098807 0.040780
O O4 0.604967 0.169668 0.004522
O O5 0.264555 0.939939 0.424222
O O6 0.759647 0.922651 0.449874
O O7 0.002743 0.000000 0.500000
O O8 0.500000 0.018757 0.250000
O O9 0.164125 0.075840 0.189409
O O10 0.000000 0.995013 0.250000
O O11 0.330890 0.989405 0.135831
O O12 0.743977 0.678235 0.158806
O O13 0.000000 0.628647 0.250000
O O14 0.500000 0.728126 0.250000
O O15 0.463953 0.766491 0.386425
O O16 0.987383 0.500000 0.000000
O O17 0.740629 0.239954 0.500486
#
# Coordination Sequence:
#
# PCOD9318922 Si02
#       7
#     8   8   8   8   8   8   8
#     4  11  23  37  60  88 128 163 210 256 309 373
#     4  10  22  35  57  86 116 162 205 254 297 352
#     4  11  24  38  59  87 124 162 204 252 320 371
#     4  11  21  33  55  88 127 160 194 250 315 382
#     4  11  22  37  60  90 127 158 198 255 321 382
#     4  10  21  38  57  81 121 160 209 247 296 357
#     4  10  22  40  59  87 121 163 203 250 306 372
#
# _framework density 21.189831000000002
#
# number of rings (size 3 to 8) (size 9 to 14) (size 15 to 20)
#    0.000    1.429    2.857    3.000    8.000    0.000 
#    0.000    0.000    0.000    2.571    0.000    4.000 
#    0.000    0.000    0.000    0.000    0.000    0.000 
#
# Total GULP energy -155989.831068 kJ/mol
# GULP energy per Si atom -5571.065395 kJ/mol
# Density = 2.114160 g / cm^3
# Si number density = 21.189831 Si / 1000 Ang^3
#
#
#
# Elastic Constant Matrix: (Units=GPa)
#
#
# Indices 1 2 3 4 5 6 
#
# 1 90.2832 1.3155 7.8066 0.0000 0.0000 0.0000
# 2 1.3155 36.3782 37.7793 0.0000 0.0000 0.0000
# 3 7.8066 37.7793 127.4486 0.0000 0.0000 0.0000
# 4 0.0000 0.0000 0.0000 8.3304 0.0000 0.0000
# 5 0.0000 0.0000 0.0000 0.0000 35.2005 0.0000
# 6 0.0000 0.0000 0.0000 0.0000 0.0000 24.7525
#
#
#
# Elastic Compliance Matrix: (Units=1/GPa)
#
#
# Indices 1 2 3 4 5 6 
#
# 1 0.011140 0.000442 -0.000813 0.000000 0.000000 0.000000
# 2 0.000442 0.039733 -0.011805 0.000000 0.000000 0.000000
# 3 -0.000813 -0.011805 0.011395 0.000000 0.000000 0.000000
# 4 0.000000 0.000000 0.000000 0.120042 0.000000 0.000000
# 5 0.000000 0.000000 0.000000 0.000000 0.028409 0.000000
# 6 0.000000 0.000000 0.000000 0.000000 0.000000 0.040400
#
#
# Mechanical properties :
#
#
# Convention : Reuss Voigt Hill
#
# Bulk Modulus (GPa) = 26.37454 38.65698 32.51576
# Shear Modulus (GPa) = 17.35449 27.47060 22.41255
#
# Velocity S-wave (km/s) = 2.86492 3.60447 3.25576
# Velocity P-wave (km/s) = 4.83917 5.96705 5.43246
#
# Compressibility (1/GPa) = 0.03791535
#
# Stress axis : x y z
#
# Youngs Moduli (GPa) = 89.76542 25.16821 87.75448
#
# Poissons Ratio (x) = -0.01112 0.07137
# Poissons Ratio (y) = -0.03966 1.03594
# Poissons Ratio (z) = 0.07301 0.29711
#
# Static dielectric constant tensor:
#      x y z
#    x 1.899110 0.000000 0.000000 
#    y 0.000000 1.803080 0.000000 
#    z 0.000000 0.000000 1.859830 
# 
# From -- ./inp_files/17938.got.cif
#   From: 2010.05.17/outbox.cif.g08.bks.cpg/sg20_9_cif.got.tgz:17938.got - 2010.06.03 22:52:26.
