data_PCOD9318774
_publ_section_title
;
Structure prediction by ZEFSAII (Michael W. Deem and Ramdas Pophale) SiO2 
 PCOD9318774
Probable space group: C 2 2 21
;
_chemical_formula_sum "Si O2"
_cell_formula_units_Z 36
_cell_length_a 29.357650
_cell_length_b 12.862719
_cell_length_c 5.103311
_cell_angle_alpha 90.000000
_cell_angle_beta 90.000000
_cell_angle_gamma 90.000000
_cell_volume 1927.108230
_symmetry_space_group_name_H-M "C 2 2 21"
_symmetry_group_IT_number 20
_symmetry_cell_setting 'orthorhombic'
loop_
_space_group_symop_operation_xyz
x,y,z
-x,-y,1/2+z
x,-y,-z
-x,y,1/2-z
1/2+x,1/2+y,z
1/2-x,1/2-y,1/2+z
1/2+x,1/2-y,-z
1/2-x,1/2+y,1/2-z
loop_
_atom_site_type_symbol
_atom_site_label
_atom_site_fract_x
_atom_site_fract_y
_atom_site_fract_z
Si Si1 0.665990 0.797407 0.969687
Si Si2 0.302441 0.413105 0.303693
Si Si3 0.780718 0.500000 0.500000
Si Si4 0.448202 0.574449 0.248162
Si Si5 0.869263 0.210699 0.025336
O O1 0.651353 0.792425 0.270427
O O2 0.700315 0.699129 0.942511
O O3 0.626721 0.765915 0.758808
O O4 0.688818 0.905411 0.899406
O O5 0.322480 0.500000 0.500000
O O6 0.253820 0.452793 0.212429
O O7 0.334490 0.382951 0.055644
O O8 0.439885 0.500000 0.500000
O O9 0.500000 0.616288 0.250000
O O10 0.411426 0.661796 0.180322
O O11 0.446066 0.500000 0.000000
#
# Coordination Sequence:
#
# PCOD9318774 Si02
#       5
#     8   8   4   8   8
#     4  10  26  39  59  86 114 169 206 250 303 355
#     4  10  25  37  61  84 116 168 199 256 297 363
#     4  12  26  40  60  82 126 160 218 270 290 346
#     4  10  21  35  60  93 125 158 192 242 313 386
#     4  10  23  40  57  87 120 159 203 239 304 376
#
# _framework density 18.680841000000001
#
# number of rings (size 3 to 8) (size 9 to 14) (size 15 to 20)
#    1.333    0.444    0.000    2.667   14.000    0.000 
#    0.000    0.000    0.000    0.000    0.000    3.111 
#    0.000    0.000    0.000    0.000    0.000    0.000 
#
# Total GULP energy -100235.612573 kJ/mol
# GULP energy per Si atom -5568.645143 kJ/mol
# Density = 1.863832 g / cm^3
# Si number density = 18.680841 Si / 1000 Ang^3
#
#
#
# Elastic Constant Matrix: (Units=GPa)
#
#
# Indices 1 2 3 4 5 6 
#
# 1 71.7145 30.3072 21.3229 0.0000 0.0000 0.0000
# 2 30.3072 88.6209 12.9973 0.0000 0.0000 0.0000
# 3 21.3229 12.9973 113.8816 0.0000 0.0000 0.0000
# 4 0.0000 0.0000 0.0000 18.2374 0.0000 0.0000
# 5 0.0000 0.0000 0.0000 0.0000 20.4759 0.0000
# 6 0.0000 0.0000 0.0000 0.0000 0.0000 -16.8873
#
#
#
# Elastic Compliance Matrix: (Units=1/GPa)
#
#
# Indices 1 2 3 4 5 6 
#
# 1 0.017005 -0.005440 -0.002563 0.000000 0.000000 0.000000
# 2 -0.005440 0.013216 -0.000490 0.000000 0.000000 0.000000
# 3 -0.002563 -0.000490 0.009317 0.000000 0.000000 0.000000
# 4 0.000000 0.000000 0.000000 0.054832 0.000000 0.000000
# 5 0.000000 0.000000 0.000000 0.000000 0.048838 0.000000
# 6 0.000000 0.000000 0.000000 0.000000 0.000000 -0.059216
#
#
# Mechanical properties :
#
#
# Convention : Reuss Voigt Hill
#
# Bulk Modulus (GPa) = 44.34032 44.83023 44.58528
# Shear Modulus (GPa) = 46.08492 18.33783 32.21138
#
# Velocity S-wave (km/s) = 4.97224 3.13651 4.15697
# Velocity P-wave (km/s) = 7.53336 6.09647 6.85268
#
# Compressibility (1/GPa) = 0.02255284
#
# Stress axis : x y z
#
# Youngs Moduli (GPa) = 58.80581 75.66501 107.33211
#
# Poissons Ratio (x) = 0.41159 0.27511
# Poissons Ratio (y) = 0.31988 0.05258
# Poissons Ratio (z) = 0.15073 0.03707
#
# Static dielectric constant tensor:
#      x y z
#    x 1.724240 0.000000 0.000000 
#    y 0.000000 1.638680 0.000000 
#    z 0.000000 0.000000 1.724650 
# 
# From -- ./inp_files/4558.got.cif
#   From: 2010.05.17/outbox.cif.g08.bks.cpg/sg20_3_cif.got.tgz:4558.got - 2010.06.03 22:52:26.
