data_PCOD9318447
_publ_section_title
;
Structure prediction by ZEFSAII (Michael W. Deem and Ramdas Pophale) SiO2 
 PCOD9318447
Probable space group: C 2 2 21
;
_chemical_formula_sum "Si O2"
_cell_formula_units_Z 40
_cell_length_a 7.396037
_cell_length_b 21.777652
_cell_length_c 11.577925
_cell_angle_alpha 90.000000
_cell_angle_beta 90.000000
_cell_angle_gamma 90.000000
_cell_volume 1864.836928
_symmetry_space_group_name_H-M "C 2 2 21"
_symmetry_group_IT_number 20
_symmetry_cell_setting 'orthorhombic'
loop_
_space_group_symop_operation_xyz
x,y,z
-x,-y,1/2+z
x,-y,-z
-x,y,1/2-z
1/2+x,1/2+y,z
1/2-x,1/2-y,1/2+z
1/2+x,1/2-y,-z
1/2-x,1/2+y,1/2-z
loop_
_atom_site_type_symbol
_atom_site_label
_atom_site_fract_x
_atom_site_fract_y
_atom_site_fract_z
Si Si1 0.345725 0.940446 0.033287
Si Si2 0.618044 0.324043 0.973536
Si Si3 0.266997 0.815662 0.439516
Si Si4 0.500000 0.602181 0.250000
Si Si5 0.131420 0.595209 0.144604
Si Si6 0.000000 0.390304 0.250000
O O1 0.263855 0.873001 0.015076
O O2 0.393555 0.935988 0.166242
O O3 0.512619 0.945438 0.942956
O O4 0.227046 0.000000 0.000000
O O5 0.449565 0.323089 0.061818
O O6 0.686713 0.255786 0.950850
O O7 0.561269 0.353671 0.852644
O O8 0.322209 0.847846 0.560668
O O9 0.372924 0.848464 0.333718
O O10 0.319396 0.569686 0.198955
O O11 0.000000 0.612204 0.250000
#
# Coordination Sequence:
#
# PCOD9318447 Si02
#       6
#     8   8   8   4   8   4
#     4  11  25  44  68  95 136 185 224 272 340 403
#     4  11  22  40  64 102 133 179 226 279 344 405
#     4  10  22  40  66  99 136 166 224 287 344 405
#     4  10  21  36  66 100 132 164 229 266 336 418
#     4  10  20  40  67  94 129 171 217 276 335 395
#     4  10  23  44  66  98 132 174 223 286 350 396
#
# _framework density 21.449598000000002
#
# number of rings (size 3 to 8) (size 9 to 14) (size 15 to 20)
#    0.000    1.600    2.000    3.000    1.400    2.400 
#    0.000   11.000    0.000    0.000    0.000    0.000 
#    0.000    0.000    0.000    0.000    0.000    0.000 
#
# Total GULP energy -111502.504925 kJ/mol
# GULP energy per Si atom -5575.125246 kJ/mol
# Density = 2.140078 g / cm^3
# Si number density = 21.449598 Si / 1000 Ang^3
#
#
#
# Elastic Constant Matrix: (Units=GPa)
#
#
# Indices 1 2 3 4 5 6 
#
# 1 109.5053 14.6618 41.1353 0.0000 0.0000 0.0000
# 2 14.6618 85.7239 24.1233 0.0000 0.0000 0.0000
# 3 41.1353 24.1233 130.4364 0.0000 0.0000 0.0000
# 4 0.0000 0.0000 0.0000 15.9193 0.0000 0.0000
# 5 0.0000 0.0000 0.0000 0.0000 92.4452 0.0000
# 6 0.0000 0.0000 0.0000 0.0000 0.0000 13.3405
#
#
#
# Elastic Compliance Matrix: (Units=1/GPa)
#
#
# Indices 1 2 3 4 5 6 
#
# 1 0.010425 -0.000905 -0.003120 0.000000 0.000000 0.000000
# 2 -0.000905 0.012384 -0.002005 0.000000 0.000000 0.000000
# 3 -0.003120 -0.002005 0.009021 0.000000 0.000000 0.000000
# 4 0.000000 0.000000 0.000000 0.062817 0.000000 0.000000
# 5 0.000000 0.000000 0.000000 0.000000 0.010817 0.000000
# 6 0.000000 0.000000 0.000000 0.000000 0.000000 0.074960
#
#
# Mechanical properties :
#
#
# Convention : Reuss Voigt Hill
#
# Bulk Modulus (GPa) = 50.58085 53.94513 52.26299
# Shear Modulus (GPa) = 25.11605 40.72402 32.92003
#
# Velocity S-wave (km/s) = 3.42560 4.36201 3.92185
# Velocity P-wave (km/s) = 6.26728 7.11153 6.70271
#
# Compressibility (1/GPa) = 0.01977033
#
# Stress axis : x y z
#
# Youngs Moduli (GPa) = 95.92032 80.74702 110.84676
#
# Poissons Ratio (x) = 0.07307 0.34589
# Poissons Ratio (y) = 0.08681 0.22225
# Poissons Ratio (z) = 0.29931 0.16190
#
# Static dielectric constant tensor:
#      x y z
#    x 1.818180 0.000000 0.000000 
#    y 0.000000 1.542050 0.000000 
#    z 0.000000 0.000000 1.696550 
# 
# From -- ./inp_files/12956.got.cif
#   From: 2010.05.17/outbox.cif.g08.bks.cpg/sg20_7_cif.got.tgz:12956.got - 2010.06.03 22:52:26.
