data_PCOD9318525
_publ_section_title
;
Structure prediction by ZEFSAII (Michael W. Deem and Ramdas Pophale) SiO2 
 PCOD9318525
Probable space group: C 2 2 21
;
_chemical_formula_sum "Si O2"
_cell_formula_units_Z 64
_cell_length_a 9.039483
_cell_length_b 12.191370
_cell_length_c 27.177442
_cell_angle_alpha 90.000000
_cell_angle_beta 90.000000
_cell_angle_gamma 90.000000
_cell_volume 2995.054172
_symmetry_space_group_name_H-M "C 2 2 21"
_symmetry_group_IT_number 20
_symmetry_cell_setting 'orthorhombic'
loop_
_space_group_symop_operation_xyz
x,y,z
-x,-y,1/2+z
x,-y,-z
-x,y,1/2-z
1/2+x,1/2+y,z
1/2-x,1/2-y,1/2+z
1/2+x,1/2-y,-z
1/2-x,1/2+y,1/2-z
loop_
_atom_site_type_symbol
_atom_site_label
_atom_site_fract_x
_atom_site_fract_y
_atom_site_fract_z
Si Si1 0.169847 0.227267 0.557511
Si Si2 0.868810 0.066233 0.686752
Si Si3 0.351117 0.806025 0.719174
Si Si4 0.898378 0.620372 0.478737
Si Si5 0.390485 0.221964 0.706707
Si Si6 0.288126 0.521562 0.799150
Si Si7 0.627655 0.377316 0.877658
Si Si8 0.620107 0.484052 0.558507
O O1 0.294607 0.188870 0.517309
O O2 0.249804 0.301387 0.597851
O O3 0.033541 0.300545 0.536567
O O4 0.118469 0.108814 0.578132
O O5 0.860676 0.197290 0.685889
O O6 0.799000 0.035403 0.739593
O O7 0.042389 0.035040 0.686049
O O8 0.802297 0.988164 0.645332
O O9 0.500000 0.825395 0.750000
O O10 0.234934 0.783478 0.762578
O O11 0.290121 0.908300 0.689638
O O12 0.949843 0.500000 0.500000
O O13 0.777926 0.578240 0.438282
O O14 0.500000 0.186525 0.750000
O O15 0.315702 0.117982 0.681913
O O16 0.446884 0.306331 0.666229
O O17 0.506296 0.413069 0.916904
O O18 0.592516 0.500000 0.500000
#
# Coordination Sequence:
#
# PCOD9318525 Si02
#       8
#     8   8   8   8   8   8   8   8
#     4  10  21  40  68 101 132 172 214 269 330 399
#     4  10  21  39  62  92 131 170 220 282 330 387
#     4  11  20  38  66  88 123 176 221 275 333 386
#     4   9  20  43  73  99 132 170 217 267 329 400
#     4  11  23  41  64  96 131 177 229 281 335 395
#     4  10  20  41  65  88 127 178 226 278 335 384
#     4  12  24  40  69  99 136 177 224 277 341 406
#     4   9  22  44  69  99 134 178 217 274 342 403
#
# _framework density 21.368563000000002
#
# number of rings (size 3 to 8) (size 9 to 14) (size 15 to 20)
#    0.000    2.000    3.750    2.625    1.750    1.500 
#    0.000   13.750    0.000    0.000    0.000    0.000 
#    0.000    0.000    0.000    0.000    0.000    0.000 
#
# Total GULP energy -178569.011517 kJ/mol
# GULP energy per Si atom -5580.281610 kJ/mol
# Density = 2.131993 g / cm^3
# Si number density = 21.368563 Si / 1000 Ang^3
#
#
#
# Elastic Constant Matrix: (Units=GPa)
#
#
# Indices 1 2 3 4 5 6 
#
# 1 58.1384 49.9597 25.8010 0.0000 0.0000 0.0000
# 2 49.9597 178.6459 36.3901 0.0000 0.0000 0.0000
# 3 25.8010 36.3901 67.4792 0.0000 0.0000 0.0000
# 4 0.0000 0.0000 0.0000 -79.9367 0.0000 0.0000
# 5 0.0000 0.0000 0.0000 0.0000 4.5426 0.0000
# 6 0.0000 0.0000 0.0000 0.0000 0.0000 28.2942
#
#
#
# Elastic Compliance Matrix: (Units=1/GPa)
#
#
# Indices 1 2 3 4 5 6 
#
# 1 0.024936 -0.005652 -0.006486 0.000000 0.000000 0.000000
# 2 -0.005652 0.007570 -0.001921 0.000000 0.000000 0.000000
# 3 -0.006486 -0.001921 0.018335 0.000000 0.000000 0.000000
# 4 0.000000 0.000000 0.000000 -0.012510 0.000000 0.000000
# 5 0.000000 0.000000 0.000000 0.000000 0.220137 0.000000
# 6 0.000000 0.000000 0.000000 0.000000 0.000000 0.035343
#
#
# Mechanical properties :
#
#
# Convention : Reuss Voigt Hill
#
# Bulk Modulus (GPa) = 44.01019 58.72947 51.36983
# Shear Modulus (GPa) = 15.17434 3.38753 9.28094
#
# Velocity S-wave (km/s) = 2.66771 1.26045 2.08631
# Velocity P-wave (km/s) = 5.48902 5.44629 5.46770
#
# Compressibility (1/GPa) = 0.02272201
#
# Stress axis : x y z
#
# Youngs Moduli (GPa) = 40.10270 132.10591 54.53942
#
# Poissons Ratio (x) = 0.74670 0.35375
# Poissons Ratio (y) = 0.22667 0.10477
# Poissons Ratio (z) = 0.26011 0.25377
#
# Static dielectric constant tensor:
#      x y z
#    x 2.121340 0.000000 0.000000 
#    y 0.000000 1.851460 0.000000 
#    z 0.000000 0.000000 2.037740 
# 
# From -- ./inp_files/31064.got.cif
#   From: 2010.05.17/outbox.cif.g08.bks.cpg/sg20_16_cif.got.tgz:31064.got - 2010.06.03 22:52:26.
