data_PCOD9318497
_publ_section_title
;
Structure prediction by ZEFSAII (Michael W. Deem and Ramdas Pophale) SiO2 
 PCOD9318497
Probable space group: C 2 2 21
;
_chemical_formula_sum "Si O2"
_cell_formula_units_Z 48
_cell_length_a 11.929617
_cell_length_b 9.030189
_cell_length_c 17.953806
_cell_angle_alpha 90.000000
_cell_angle_beta 90.000000
_cell_angle_gamma 90.000000
_cell_volume 1934.104205
_symmetry_space_group_name_H-M "C 2 2 21"
_symmetry_group_IT_number 20
_symmetry_cell_setting 'orthorhombic'
loop_
_space_group_symop_operation_xyz
x,y,z
-x,-y,1/2+z
x,-y,-z
-x,y,1/2-z
1/2+x,1/2+y,z
1/2-x,1/2-y,1/2+z
1/2+x,1/2-y,-z
1/2-x,1/2+y,1/2-z
loop_
_atom_site_type_symbol
_atom_site_label
_atom_site_fract_x
_atom_site_fract_y
_atom_site_fract_z
Si Si1 0.018578 0.295007 0.127209
Si Si2 0.827790 0.921812 0.886162
Si Si3 0.128077 0.731570 0.151113
Si Si4 0.000000 0.492482 0.250000
Si Si5 0.471177 0.000000 0.000000
Si Si6 0.613740 0.745814 0.599410
Si Si7 0.273170 0.295497 0.730319
O O1 0.945196 0.384180 0.188698
O O2 0.124949 0.247968 0.175958
O O3 0.943603 0.161386 0.096632
O O4 0.040812 0.411100 0.061735
O O5 0.717777 0.827594 0.908601
O O6 0.816962 0.908245 0.794912
O O7 0.827455 0.911116 0.085750
O O8 0.080212 0.592079 0.199182
O O9 0.203598 0.814008 0.212586
O O10 0.015034 0.798900 0.119881
O O11 0.397013 0.127360 0.038228
O O12 0.676643 0.821817 0.668712
#
# Coordination Sequence:
#
# PCOD9318497 Si02
#       7
#     8   8   8   4   4   8   8
#     4  12  24  48  70 111 150 203 258 315 407 461
#     4  10  25  42  76 111 145 191 257 346 375 437
#     4  10  20  40  74 111 140 190 246 329 385 429
#     4  12  16  42  70  98 142 188 256 310 356 464
#     4  12  30  48  74 100 164 226 240 310 398 508
#     4  12  24  48  69 116 154 203 263 302 401 479
#     4  10  22  42  76 112 143 190 254 337 372 439
#
# _framework density 24.817689000000001
#
# number of rings (size 3 to 8) (size 9 to 14) (size 15 to 20)
#    1.000    0.000    5.000    1.000    0.000    3.333 
#    9.000    0.000    0.000    0.000    0.000    0.000 
#    0.000    0.000    0.000    0.000    0.000    0.000 
#
# Total GULP energy -133676.656520 kJ/mol
# GULP energy per Si atom -5569.860688 kJ/mol
# Density = 2.476120 g / cm^3
# Si number density = 24.817689 Si / 1000 Ang^3
#
#
#
# Elastic Constant Matrix: (Units=GPa)
#
#
# Indices 1 2 3 4 5 6 
#
# 1 143.5747 16.8116 20.1914 0.0000 0.0000 0.0000
# 2 16.8116 71.4882 13.7317 0.0000 0.0000 0.0000
# 3 20.1914 13.7317 81.1208 0.0000 0.0000 0.0000
# 4 0.0000 0.0000 0.0000 35.3942 0.0000 0.0000
# 5 0.0000 0.0000 0.0000 0.0000 22.2654 0.0000
# 6 0.0000 0.0000 0.0000 0.0000 0.0000 29.0637
#
#
#
# Elastic Compliance Matrix: (Units=1/GPa)
#
#
# Indices 1 2 3 4 5 6 
#
# 1 0.007355 -0.001424 -0.001590 0.000000 0.000000 0.000000
# 2 -0.001424 0.014734 -0.002140 0.000000 0.000000 0.000000
# 3 -0.001590 -0.002140 0.013085 0.000000 0.000000 0.000000
# 4 0.000000 0.000000 0.000000 0.028253 0.000000 0.000000
# 5 0.000000 0.000000 0.000000 0.000000 0.044913 0.000000
# 6 0.000000 0.000000 0.000000 0.000000 0.000000 0.034407
#
#
# Mechanical properties :
#
#
# Convention : Reuss Voigt Hill
#
# Bulk Modulus (GPa) = 40.21318 44.18367 42.19843
# Shear Modulus (GPa) = 30.98961 33.70793 32.34877
#
# Velocity S-wave (km/s) = 3.53751 3.68940 3.61426
# Velocity P-wave (km/s) = 5.73794 5.99924 5.87004
#
# Compressibility (1/GPa) = 0.02486747
#
# Stress axis : x y z
#
# Youngs Moduli (GPa) = 135.95528 67.86896 76.42248
#
# Poissons Ratio (x) = 0.09667 0.12149
# Poissons Ratio (y) = 0.19365 0.16351
# Poissons Ratio (z) = 0.21613 0.14521
#
# Static dielectric constant tensor:
#      x y z
#    x 2.080790 0.000000 0.000000 
#    y 0.000000 2.026990 0.000000 
#    z 0.000000 0.000000 2.000190 
# 
# From -- ./inp_files/24328.got.cif
#   From: 2010.05.17/outbox.cif.g08.bks.cpg/sg20_13_cif.got.tgz:24328.got - 2010.06.03 22:52:26.
