data_PCOD9318445
_publ_section_title
;
Structure prediction by ZEFSAII (Michael W. Deem and Ramdas Pophale) SiO2 
 PCOD9318445
Probable space group: C 2 2 21
;
_chemical_formula_sum "Si O2"
_cell_formula_units_Z 52
_cell_length_a 12.482267
_cell_length_b 12.909068
_cell_length_c 17.623602
_cell_angle_alpha 90.000000
_cell_angle_beta 90.000000
_cell_angle_gamma 90.000000
_cell_volume 2839.769124
_symmetry_space_group_name_H-M "C 2 2 21"
_symmetry_group_IT_number 20
_symmetry_cell_setting 'orthorhombic'
loop_
_space_group_symop_operation_xyz
x,y,z
-x,-y,1/2+z
x,-y,-z
-x,y,1/2-z
1/2+x,1/2+y,z
1/2-x,1/2-y,1/2+z
1/2+x,1/2-y,-z
1/2-x,1/2+y,1/2-z
loop_
_atom_site_type_symbol
_atom_site_label
_atom_site_fract_x
_atom_site_fract_y
_atom_site_fract_z
Si Si1 0.247694 0.132711 0.068987
Si Si2 0.794428 0.900745 0.395072
Si Si3 0.487282 0.680685 0.834616
Si Si4 0.612017 0.898249 0.274286
Si Si5 0.758088 0.356087 0.376692
Si Si6 0.358060 0.000000 0.500000
Si Si7 0.522221 0.911758 0.624419
O O1 0.209173 0.235724 0.111475
O O2 0.374846 0.120206 0.075845
O O3 0.205100 0.025971 0.104352
O O4 0.227807 0.136478 0.979941
O O5 0.702010 0.861980 0.336154
O O6 0.913393 0.864756 0.378803
O O7 0.500000 0.640879 0.750000
O O8 0.369579 0.649520 0.863282
O O9 0.506110 0.804688 0.835134
O O10 0.500000 0.841087 0.250000
O O11 0.680035 0.904998 0.195960
O O12 0.563257 0.000256 0.317001
O O13 0.788162 0.417529 0.452999
O O14 0.432918 0.950103 0.565508
#
# Coordination Sequence:
#
# PCOD9318445 Si02
#       7
#     8   8   8   8   8   4   8
#     4   9  21  40  61  90 117 160 208 248 307 374
#     4  10  20  40  67  83 120 168 206 247 308 376
#     4  11  22  39  61  87 122 166 209 242 301 377
#     4  11  20  38  63  89 122 155 206 261 303 359
#     4  11  24  39  59  94 127 153 204 265 306 364
#     4  12  22  38  62  94 128 154 202 266 316 356
#     4  10  21  37  65  89 120 162 207 252 307 376
#
# _framework density 18.311347000000001
#
# number of rings (size 3 to 8) (size 9 to 14) (size 15 to 20)
#    0.000    1.538    3.077    3.231    0.000    1.231 
#    0.000    0.769    3.385    0.000    0.000    0.000 
#    0.000    0.000    0.000    0.000    0.000    0.000 
#
# Total GULP energy -144746.842377 kJ/mol
# GULP energy per Si atom -5567.186245 kJ/mol
# Density = 1.826967 g / cm^3
# Si number density = 18.311347 Si / 1000 Ang^3
#
#
#
# Elastic Constant Matrix: (Units=GPa)
#
#
# Indices 1 2 3 4 5 6 
#
# 1 100.9758 43.4729 52.5896 0.0000 0.0000 0.0000
# 2 43.4729 55.7364 36.5346 0.0000 0.0000 0.0000
# 3 52.5896 36.5346 113.0033 0.0000 0.0000 0.0000
# 4 0.0000 0.0000 0.0000 9.6172 0.0000 0.0000
# 5 0.0000 0.0000 0.0000 0.0000 30.1638 0.0000
# 6 0.0000 0.0000 0.0000 0.0000 0.0000 22.3497
#
#
#
# Elastic Compliance Matrix: (Units=1/GPa)
#
#
# Indices 1 2 3 4 5 6 
#
# 1 0.016515 -0.009953 -0.004468 0.000000 0.000000 0.000000
# 2 -0.009953 0.028764 -0.004668 0.000000 0.000000 0.000000
# 3 -0.004468 -0.004668 0.012438 0.000000 0.000000 0.000000
# 4 0.000000 0.000000 0.000000 0.103981 0.000000 0.000000
# 5 0.000000 0.000000 0.000000 0.000000 0.033152 0.000000
# 6 0.000000 0.000000 0.000000 0.000000 0.000000 0.044743
#
#
# Mechanical properties :
#
#
# Convention : Reuss Voigt Hill
#
# Bulk Modulus (GPa) = 51.17719 59.43443 55.30581
# Shear Modulus (GPa) = 17.58801 21.56737 19.57769
#
# Velocity S-wave (km/s) = 3.10255 3.43565 3.27334
# Velocity P-wave (km/s) = 6.39089 6.94741 6.67495
#
# Compressibility (1/GPa) = 0.01953996
#
# Stress axis : x y z
#
# Youngs Moduli (GPa) = 60.54964 34.76548 80.39991
#
# Poissons Ratio (x) = 0.34601 0.35924
# Poissons Ratio (y) = 0.60263 0.37529
# Poissons Ratio (z) = 0.27055 0.16228
#
# Static dielectric constant tensor:
#      x y z
#    x 1.675510 0.000000 0.000000 
#    y 0.000000 1.698650 0.000000 
#    z 0.000000 0.000000 1.616330 
# 
# From -- ./inp_files/24374.got.cif
#   From: 2010.05.17/outbox.cif.g08.bks.cpg/sg20_13_cif.got.tgz:24374.got - 2010.06.03 22:52:26.
