data_PCOD9318400
_publ_section_title
;
Structure prediction by ZEFSAII (Michael W. Deem and Ramdas Pophale) SiO2 
 PCOD9318400
Probable space group: C 2 2 21
;
_chemical_formula_sum "Si O2"
_cell_formula_units_Z 64
_cell_length_a 7.637217
_cell_length_b 12.878088
_cell_length_c 30.180224
_cell_angle_alpha 90.000000
_cell_angle_beta 90.000000
_cell_angle_gamma 90.000000
_cell_volume 2968.308105
_symmetry_space_group_name_H-M "C 2 2 21"
_symmetry_group_IT_number 20
_symmetry_cell_setting 'orthorhombic'
loop_
_space_group_symop_operation_xyz
x,y,z
-x,-y,1/2+z
x,-y,-z
-x,y,1/2-z
1/2+x,1/2+y,z
1/2-x,1/2-y,1/2+z
1/2+x,1/2-y,-z
1/2-x,1/2+y,1/2-z
loop_
_atom_site_type_symbol
_atom_site_label
_atom_site_fract_x
_atom_site_fract_y
_atom_site_fract_z
Si Si1 0.386010 0.539152 0.692367
Si Si2 0.526577 0.973248 0.644319
Si Si3 0.675783 0.019956 0.774072
Si Si4 0.618423 0.336439 0.712041
Si Si5 0.380401 0.383322 0.010284
Si Si6 0.530643 0.060298 0.952798
Si Si7 0.606679 0.254706 0.150975
Si Si8 0.284495 0.723177 0.550350
O O1 0.213267 0.512290 0.663009
O O2 0.322096 0.568621 0.742232
O O3 0.506666 0.435548 0.693394
O O4 0.473195 0.640559 0.671087
O O5 0.372474 0.027012 0.674099
O O6 0.506075 0.850276 0.653727
O O7 0.499849 0.995665 0.592338
O O8 0.500000 0.048633 0.750000
O O9 0.719235 0.897700 0.765938
O O10 0.500000 0.286755 0.750000
O O11 0.707269 0.264717 0.676048
O O12 0.547731 0.316250 0.023144
O O13 0.225947 0.390308 0.046919
O O14 0.438493 0.500000 0.000000
O O15 0.285255 0.331940 0.968235
O O16 0.376609 0.144284 0.953793
O O17 0.521491 0.000000 0.000000
O O18 0.653476 0.270812 0.100272
#
# Coordination Sequence:
#
# PCOD9318400 Si02
#       8
#     8   8   8   8   8   8   8   8
#     4  10  20  40  63  92 125 171 215 265 326 391
#     4  10  21  41  63  92 134 170 213 278 327 391
#     4   8  17  36  63  86 126 168 205 266 325 374
#     4   9  20  40  62  92 130 165 217 268 316 398
#     4  11  25  45  71  95 131 180 217 276 337 391
#     4  11  23  45  71  97 138 179 221 281 339 395
#     4  11  23  40  64  94 129 167 216 270 326 397
#     4  12  24  45  67 100 132 171 229 271 333 410
#
# _framework density 21.561102000000002
#
# number of rings (size 3 to 8) (size 9 to 14) (size 15 to 20)
#    0.000    1.750    2.500    1.875    0.000    4.500 
#    4.500   22.500    0.000    0.000    0.000    0.000 
#    0.000    0.000    0.000    0.000    0.000    0.000 
#
# Total GULP energy -178477.075837 kJ/mol
# GULP energy per Si atom -5577.408620 kJ/mol
# Density = 2.151203 g / cm^3
# Si number density = 21.561102 Si / 1000 Ang^3
#
#
#
# Elastic Constant Matrix: (Units=GPa)
#
#
# Indices 1 2 3 4 5 6 
#
# 1 70.9800 18.7038 6.3343 0.0000 0.0000 0.0000
# 2 18.7038 82.1222 36.1775 0.0000 0.0000 0.0000
# 3 6.3343 36.1775 112.0860 0.0000 0.0000 0.0000
# 4 0.0000 0.0000 0.0000 -5.3822 0.0000 0.0000
# 5 0.0000 0.0000 0.0000 0.0000 26.2925 0.0000
# 6 0.0000 0.0000 0.0000 0.0000 0.0000 29.4792
#
#
#
# Elastic Compliance Matrix: (Units=1/GPa)
#
#
# Indices 1 2 3 4 5 6 
#
# 1 0.014996 -0.003546 0.000297 0.000000 0.000000 0.000000
# 2 -0.003546 0.015034 -0.004652 0.000000 0.000000 0.000000
# 3 0.000297 -0.004652 0.010406 0.000000 0.000000 0.000000
# 4 0.000000 0.000000 0.000000 -0.185798 0.000000 0.000000
# 5 0.000000 0.000000 0.000000 0.000000 0.038034 0.000000
# 6 0.000000 0.000000 0.000000 0.000000 0.000000 0.033922
#
#
# Mechanical properties :
#
#
# Convention : Reuss Voigt Hill
#
# Bulk Modulus (GPa) = 40.59374 43.06881 41.83127
# Shear Modulus (GPa) = -101.23287 23.67608 -38.77840
#
# Velocity S-wave (km/s) = -6.85956 3.31734 -4.24551
# Velocity P-wave (km/s) = 6.62344 5.88996 2.14223
#
# Compressibility (1/GPa) = 0.02463434
#
# Stress axis : x y z
#
# Youngs Moduli (GPa) = 66.68231 66.51557 96.09425
#
# Poissons Ratio (x) = 0.23589 -0.02856
# Poissons Ratio (y) = 0.23649 0.44704
# Poissons Ratio (z) = -0.01982 0.30943
#
# Static dielectric constant tensor:
#      x y z
#    x 1.851680 0.000000 0.000000 
#    y 0.000000 1.820640 0.000000 
#    z 0.000000 0.000000 1.791090 
# 
# From -- ./inp_files/31057.got.cif
#   From: 2010.05.17/outbox.cif.g08.bks.cpg/sg20_16_cif.got.tgz:31057.got - 2010.06.03 22:52:26.
