data_PCOD9318190
_publ_section_title
;
Structure prediction by ZEFSAII (Michael W. Deem and Ramdas Pophale) SiO2 
 PCOD9318190
Probable space group: C 2 2 21
;
_chemical_formula_sum "Si O2"
_cell_formula_units_Z 56
_cell_length_a 14.197091
_cell_length_b 21.594043
_cell_length_c 7.866724
_cell_angle_alpha 90.000000
_cell_angle_beta 90.000000
_cell_angle_gamma 90.000000
_cell_volume 2411.721979
_symmetry_space_group_name_H-M "C 2 2 21"
_symmetry_group_IT_number 20
_symmetry_cell_setting 'orthorhombic'
loop_
_space_group_symop_operation_xyz
x,y,z
-x,-y,1/2+z
x,-y,-z
-x,y,1/2-z
1/2+x,1/2+y,z
1/2-x,1/2-y,1/2+z
1/2+x,1/2-y,-z
1/2-x,1/2+y,1/2-z
loop_
_atom_site_type_symbol
_atom_site_label
_atom_site_fract_x
_atom_site_fract_y
_atom_site_fract_z
Si Si1 0.707179 0.385028 0.254781
Si Si2 0.917812 0.450267 0.865558
Si Si3 0.957245 0.751397 0.973603
Si Si4 0.225865 0.016853 0.299793
Si Si5 0.325805 0.651076 0.128335
Si Si6 0.095040 0.375905 0.322437
Si Si7 0.652701 0.748727 0.836596
O O1 0.685292 0.455925 0.201773
O O2 0.661507 0.372329 0.434819
O O3 0.818187 0.384638 0.299207
O O4 0.689538 0.322785 0.145550
O O5 0.835047 0.478363 0.754356
O O6 0.000000 0.423582 0.750000
O O7 0.957378 0.500000 0.000000
O O8 0.874251 0.401732 0.994996
O O9 0.895418 0.747724 0.149361
O O10 0.065823 0.745481 0.031832
O O11 0.919586 0.808397 0.861404
O O12 0.927376 0.693689 0.862722
O O13 0.186143 0.086433 0.270504
O O14 0.218756 0.000000 0.500000
O O15 0.235701 0.699141 0.146105
O O16 0.000000 0.405167 0.250000
#
# Coordination Sequence:
#
# PCOD9318190 Si02
#       7
#     8   8   8   8   8   8   8
#     4  10  21  38  59  90 123 170 204 264 320 378
#     4  12  25  37  55  86 128 168 210 252 312 392
#     4  10  22  37  61  94 121 168 209 260 324 385
#     4  10  22  39  62  89 124 170 213 258 322 379
#     4  10  20  38  63  92 123 164 211 264 319 380
#     4  12  24  38  57  90 131 161 209 256 321 381
#     4  10  20  39  62  93 126 162 217 264 320 380
#
# _framework density 23.219923000000001
#
# number of rings (size 3 to 8) (size 9 to 14) (size 15 to 20)
#    0.000    1.429    2.857    2.571    8.000    0.000 
#    0.000    0.000    0.000    0.000   55.714    0.000 
#    0.000    0.000    0.000    0.000    0.000    0.000 
#
# Total GULP energy -156074.527436 kJ/mol
# GULP energy per Si atom -5574.090266 kJ/mol
# Density = 2.316707 g / cm^3
# Si number density = 23.219923 Si / 1000 Ang^3
#
#
#
# Elastic Constant Matrix: (Units=GPa)
#
#
# Indices 1 2 3 4 5 6 
#
# 1 64.3010 35.2345 8.8998 0.0000 0.0000 0.0000
# 2 35.2345 196.7745 22.4704 0.0000 0.0000 0.0000
# 3 8.8998 22.4704 36.1268 0.0000 0.0000 0.0000
# 4 0.0000 0.0000 0.0000 27.9197 0.0000 0.0000
# 5 0.0000 0.0000 0.0000 0.0000 24.2786 0.0000
# 6 0.0000 0.0000 0.0000 0.0000 0.0000 12.1713
#
#
#
# Elastic Compliance Matrix: (Units=1/GPa)
#
#
# Indices 1 2 3 4 5 6 
#
# 1 0.017457 -0.002836 -0.002536 0.000000 0.000000 0.000000
# 2 -0.002836 0.005931 -0.002990 0.000000 0.000000 0.000000
# 3 -0.002536 -0.002990 0.030165 0.000000 0.000000 0.000000
# 4 0.000000 0.000000 0.000000 0.035817 0.000000 0.000000
# 5 0.000000 0.000000 0.000000 0.000000 0.041189 0.000000
# 6 0.000000 0.000000 0.000000 0.000000 0.000000 0.082161
#
#
# Mechanical properties :
#
#
# Convention : Reuss Voigt Hill
#
# Bulk Modulus (GPa) = 27.15379 47.82351 37.48865
# Shear Modulus (GPa) = 20.68493 28.24709 24.46601
#
# Velocity S-wave (km/s) = 2.98791 3.49162 3.24954
# Velocity P-wave (km/s) = 4.86035 6.07420 5.50086
#
# Compressibility (1/GPa) = 0.03682727
#
# Stress axis : x y z
#
# Youngs Moduli (GPa) = 57.28342 168.59689 33.15079
#
# Poissons Ratio (x) = 0.47818 0.08408
# Poissons Ratio (y) = 0.16247 0.09914
# Poissons Ratio (z) = 0.14530 0.50419
#
# Static dielectric constant tensor:
#      x y z
#    x 1.878130 0.000000 0.000000 
#    y 0.000000 2.020280 0.000000 
#    z 0.000000 0.000000 1.922160 
# 
# From -- ./inp_files/8762.got.cif
#   From: 2010.05.17/outbox.cif.g08.bks.cpg/sg20_5_cif.got.tgz:8762.got - 2010.06.03 22:52:26.
