data_PCOD9318539
_publ_section_title
;
Structure prediction by ZEFSAII (Michael W. Deem and Ramdas Pophale) SiO2 
 PCOD9318539
Probable space group: C 2 2 21
;
_chemical_formula_sum "Si O2"
_cell_formula_units_Z 32
_cell_length_a 12.292586
_cell_length_b 6.786630
_cell_length_c 15.070138
_cell_angle_alpha 90.000000
_cell_angle_beta 90.000000
_cell_angle_gamma 90.000000
_cell_volume 1257.229773
_symmetry_space_group_name_H-M "C 2 2 21"
_symmetry_group_IT_number 20
_symmetry_cell_setting 'orthorhombic'
loop_
_space_group_symop_operation_xyz
x,y,z
-x,-y,1/2+z
x,-y,-z
-x,y,1/2-z
1/2+x,1/2+y,z
1/2-x,1/2-y,1/2+z
1/2+x,1/2-y,-z
1/2-x,1/2+y,1/2-z
loop_
_atom_site_type_symbol
_atom_site_label
_atom_site_fract_x
_atom_site_fract_y
_atom_site_fract_z
Si Si1 0.297928 0.210678 0.921620
Si Si2 0.477378 0.068166 0.648595
Si Si3 0.261944 0.325458 0.119317
Si Si4 0.607432 0.662062 0.795448
O O1 0.416743 0.129615 0.902445
O O2 0.291147 0.440406 0.890277
O O3 0.203405 0.099712 0.864131
O O4 0.288256 0.220556 0.027337
O O5 0.500000 0.110850 0.750000
O O6 0.368070 0.179512 0.624500
O O7 0.449040 0.836656 0.647931
O O8 0.322679 0.263973 0.209896
O O9 0.500000 0.558946 0.750000
#
# Coordination Sequence:
#
# PCOD9318539 Si02
#       4
#     8   8   8   8
#     4  10  22  41  67 100 137 180 232 283 336 405
#     4  10  20  41  67  92 136 179 219 281 337 399
#     4  10  22  41  66  98 136 180 229 282 339 401
#     4  10  22  40  64  98 135 178 225 278 344 402
#
# _framework density 25.452788000000002
#
# number of rings (size 3 to 8) (size 9 to 14) (size 15 to 20)
#    0.000    2.000    2.500    0.000    3.500    1.000 
#    4.500    0.000    0.000    0.000    0.000    0.000 
#    0.000    0.000    0.000    0.000    0.000    0.000 
#
# Total GULP energy -89482.473400 kJ/mol
# GULP energy per Si atom -5592.654587 kJ/mol
# Density = 2.539486 g / cm^3
# Si number density = 25.452788 Si / 1000 Ang^3
#
#
#
# Elastic Constant Matrix: (Units=GPa)
#
#
# Indices 1 2 3 4 5 6 
#
# 1 243.2586 29.1391 63.3006 0.0000 0.0000 0.0000
# 2 29.1391 44.3464 -15.0852 0.0000 0.0000 0.0000
# 3 63.3006 -15.0852 117.7244 0.0000 0.0000 0.0000
# 4 0.0000 0.0000 0.0000 34.1588 0.0000 0.0000
# 5 0.0000 0.0000 0.0000 0.0000 60.6951 0.0000
# 6 0.0000 0.0000 0.0000 0.0000 0.0000 53.2189
#
#
#
# Elastic Compliance Matrix: (Units=1/GPa)
#
#
# Indices 1 2 3 4 5 6 
#
# 1 0.005666 -0.004976 -0.003684 0.000000 0.000000 0.000000
# 2 -0.004976 0.027948 0.006257 0.000000 0.000000 0.000000
# 3 -0.003684 0.006257 0.011277 0.000000 0.000000 0.000000
# 4 0.000000 0.000000 0.000000 0.029275 0.000000 0.000000
# 5 0.000000 0.000000 0.000000 0.000000 0.016476 0.000000
# 6 0.000000 0.000000 0.000000 0.000000 0.000000 0.018790
#
#
# Mechanical properties :
#
#
# Convention : Reuss Voigt Hill
#
# Bulk Modulus (GPa) = 24.94762 62.22647 43.58705
# Shear Modulus (GPa) = 39.18530 51.47955 45.33243
#
# Velocity S-wave (km/s) = 3.92794 4.50216 4.22481
# Velocity P-wave (km/s) = 5.51311 7.17821 6.40005
#
# Compressibility (1/GPa) = 0.04008398
#
# Stress axis : x y z
#
# Youngs Moduli (GPa) = 176.50585 35.78125 88.67578
#
# Poissons Ratio (x) = 0.17804 0.32668
# Poissons Ratio (y) = 0.87827 -0.55482
# Poissons Ratio (z) = 0.65024 -0.22387
#
# Static dielectric constant tensor:
#      x y z
#    x 1.891630 0.000000 0.000000 
#    y 0.000000 2.199590 0.000000 
#    z 0.000000 0.000000 2.064140 
# 
# From -- ./inp_files/18165.got.cif
#   From: 2010.05.17/outbox.cif.g08.bks.cpg/sg20_10_cif.got.tgz:18165.got - 2010.06.03 22:52:26.
