data_PCOD9318659
_publ_section_title
;
Structure prediction by ZEFSAII (Michael W. Deem and Ramdas Pophale) SiO2 
 PCOD9318659
Probable space group: C 2 2 21
;
_chemical_formula_sum "Si O2"
_cell_formula_units_Z 56
_cell_length_a 10.661660
_cell_length_b 14.686235
_cell_length_c 13.440545
_cell_angle_alpha 90.000000
_cell_angle_beta 90.000000
_cell_angle_gamma 90.000000
_cell_volume 2104.515755
_symmetry_space_group_name_H-M "C 2 2 21"
_symmetry_group_IT_number 20
_symmetry_cell_setting 'orthorhombic'
loop_
_space_group_symop_operation_xyz
x,y,z
-x,-y,1/2+z
x,-y,-z
-x,y,1/2-z
1/2+x,1/2+y,z
1/2-x,1/2-y,1/2+z
1/2+x,1/2-y,-z
1/2-x,1/2+y,1/2-z
loop_
_atom_site_type_symbol
_atom_site_label
_atom_site_fract_x
_atom_site_fract_y
_atom_site_fract_z
Si Si1 0.631712 0.713179 0.477104
Si Si2 0.363466 0.067613 0.700851
Si Si3 0.003258 0.404864 0.003135
Si Si4 0.634955 0.542322 0.198163
Si Si5 0.662127 0.817720 0.842024
Si Si6 0.720316 0.734662 0.162240
Si Si7 0.954286 0.128862 0.632339
O O1 0.560484 0.810015 0.461186
O O2 0.694509 0.669303 0.379960
O O3 0.742262 0.738767 0.553025
O O4 0.556971 0.642640 0.546980
O O5 0.500000 0.051054 0.750000
O O6 0.389524 0.070424 0.583067
O O7 0.254739 0.997602 0.737269
O O8 0.323921 0.173997 0.718763
O O9 0.925638 0.500000 0.000000
O O10 0.066110 0.382621 0.897256
O O11 0.500000 0.539187 0.250000
O O12 0.638518 0.644582 0.158104
O O13 0.621769 0.462827 0.117581
O O14 0.661743 0.807035 0.723702
O O15 0.629008 0.717273 0.878046
O O16 0.000000 0.133418 0.750000
#
# Coordination Sequence:
#
# PCOD9318659 Si02
#       7
#     8   8   8   8   8   8   8
#     4  11  24  42  74  98 142 193 236 297 367 421
#     4  12  25  47  75 107 151 194 240 310 363 424
#     4  11  26  42  66 107 143 178 245 300 354 433
#     4  11  25  44  75 105 141 197 240 295 372 434
#     4  11  22  43  72  99 136 188 235 291 364 419
#     4  12  23  45  74 103 146 189 247 295 365 435
#     4  10  20  43  70  95 136 189 233 290 352 433
#
# _framework density 26.609448
#
# number of rings (size 3 to 8) (size 9 to 14) (size 15 to 20)
#    0.000    0.857    4.286    3.000    2.000    0.000 
#    0.000    0.000    3.143    0.000    0.000    0.000 
#    0.000    0.000    0.000    0.000    0.000    0.000 
#
# Total GULP energy -156429.385140 kJ/mol
# GULP energy per Si atom -5586.763755 kJ/mol
# Density = 2.654888 g / cm^3
# Si number density = 26.609448 Si / 1000 Ang^3
#
#
#
# Elastic Constant Matrix: (Units=GPa)
#
#
# Indices 1 2 3 4 5 6 
#
# 1 110.2208 37.1302 30.3779 0.0000 0.0000 0.0000
# 2 37.1302 170.4747 6.6633 0.0000 0.0000 0.0000
# 3 30.3779 6.6633 99.1162 0.0000 0.0000 0.0000
# 4 0.0000 0.0000 0.0000 28.1808 0.0000 0.0000
# 5 0.0000 0.0000 0.0000 0.0000 45.7107 0.0000
# 6 0.0000 0.0000 0.0000 0.0000 0.0000 36.9618
#
#
#
# Elastic Compliance Matrix: (Units=1/GPa)
#
#
# Indices 1 2 3 4 5 6 
#
# 1 0.010676 -0.002203 -0.003124 0.000000 0.000000 0.000000
# 2 -0.002203 0.006336 0.000249 0.000000 0.000000 0.000000
# 3 -0.003124 0.000249 0.011030 0.000000 0.000000 0.000000
# 4 0.000000 0.000000 0.000000 0.035485 0.000000 0.000000
# 5 0.000000 0.000000 0.000000 0.000000 0.021877 0.000000
# 6 0.000000 0.000000 0.000000 0.000000 0.000000 0.027055
#
#
# Mechanical properties :
#
#
# Convention : Reuss Voigt Hill
#
# Bulk Modulus (GPa) = 55.90889 58.68382 57.29635
# Shear Modulus (GPa) = 38.88745 42.54670 40.71707
#
# Velocity S-wave (km/s) = 3.82699 4.00300 3.91599
# Velocity P-wave (km/s) = 6.37059 6.59295 6.48272
#
# Compressibility (1/GPa) = 0.01788624
#
# Stress axis : x y z
#
# Youngs Moduli (GPa) = 93.66937 157.82615 90.66309
#
# Poissons Ratio (x) = 0.34771 0.28322
# Poissons Ratio (y) = 0.20637 -0.02260
# Poissons Ratio (z) = 0.29261 -0.03934
#
# Static dielectric constant tensor:
#      x y z
#    x 2.347530 0.000000 0.000000 
#    y 0.000000 2.206580 0.000000 
#    z 0.000000 0.000000 2.110860 
# 
# From -- ./inp_files/20051.got.cif
#   From: 2010.05.17/outbox.cif.g08.bks.cpg/sg20_11_cif.got.tgz:20051.got - 2010.06.03 22:52:26.
