data_PCOD9318247
_publ_section_title
;
Structure prediction by ZEFSAII (Michael W. Deem and Ramdas Pophale) SiO2 
 PCOD9318247
Probable space group: C 2 2 21
;
_chemical_formula_sum "Si O2"
_cell_formula_units_Z 48
_cell_length_a 16.205256
_cell_length_b 8.089792
_cell_length_c 14.181518
_cell_angle_alpha 90.000000
_cell_angle_beta 90.000000
_cell_angle_gamma 90.000000
_cell_volume 1859.156597
_symmetry_space_group_name_H-M "C 2 2 21"
_symmetry_group_IT_number 20
_symmetry_cell_setting 'orthorhombic'
loop_
_space_group_symop_operation_xyz
x,y,z
-x,-y,1/2+z
x,-y,-z
-x,y,1/2-z
1/2+x,1/2+y,z
1/2-x,1/2-y,1/2+z
1/2+x,1/2-y,-z
1/2-x,1/2+y,1/2-z
loop_
_atom_site_type_symbol
_atom_site_label
_atom_site_fract_x
_atom_site_fract_y
_atom_site_fract_z
Si Si1 0.174787 0.032663 0.656161
Si Si2 0.365899 0.182746 0.900903
Si Si3 0.076719 0.637821 0.178583
Si Si4 0.987015 0.964761 0.390841
Si Si5 0.000433 0.500000 0.500000
Si Si6 0.000000 0.755343 0.750000
Si Si7 0.772071 0.389114 0.819046
O O1 0.078983 0.082707 0.645803
O O2 0.227981 0.200889 0.641106
O O3 0.176494 0.862949 0.593348
O O4 0.196823 0.962473 0.759510
O O5 0.421321 0.177427 0.803970
O O6 0.303590 0.029757 0.890756
O O7 0.434193 0.148840 0.981691
O O8 0.159858 0.620081 0.235361
O O9 0.000000 0.625737 0.250000
O O10 0.072986 0.816444 0.131359
O O11 0.055287 0.517086 0.092154
O O12 0.989257 0.000000 0.500000
O O13 0.966288 0.128186 0.333051
#
# Coordination Sequence:
#
# PCOD9318247 Si02
#       7
#     8   8   8   8   4   4   8
#     4  11  23  41  66  98 135 185 234 281 352 431
#     4  11  22  40  69 102 135 181 235 286 354 424
#     4  12  21  41  69 102 139 180 238 300 350 412
#     4  11  22  42  72 102 139 185 242 293 353 428
#     4  12  24  40  70 106 140 180 238 304 358 422
#     4  10  20  38  68 106 132 174 238 296 356 410
#     4  12  23  41  69  99 139 186 232 290 359 423
#
# _framework density 25.818156999999999
#
# number of rings (size 3 to 8) (size 9 to 14) (size 15 to 20)
#    0.000    0.667    5.833    4.000    0.000    0.000 
#    1.500    0.000    1.833    0.000    0.000    0.000 
#    0.000    0.000    0.000    0.000    0.000    0.000 
#
# Total GULP energy -134248.484137 kJ/mol
# GULP energy per Si atom -5593.686839 kJ/mol
# Density = 2.575939 g / cm^3
# Si number density = 25.818157 Si / 1000 Ang^3
#
#
#
# Elastic Constant Matrix: (Units=GPa)
#
#
# Indices 1 2 3 4 5 6 
#
# 1 61.8747 13.5916 35.9334 0.0000 0.0000 0.0000
# 2 13.5916 184.8168 9.4450 0.0000 0.0000 0.0000
# 3 35.9334 9.4450 120.0370 0.0000 0.0000 0.0000
# 4 0.0000 0.0000 0.0000 41.6641 0.0000 0.0000
# 5 0.0000 0.0000 0.0000 0.0000 32.6885 0.0000
# 6 0.0000 0.0000 0.0000 0.0000 0.0000 32.0149
#
#
#
# Elastic Compliance Matrix: (Units=1/GPa)
#
#
# Indices 1 2 3 4 5 6 
#
# 1 0.019806 -0.001158 -0.005838 0.000000 0.000000 0.000000
# 2 -0.001158 0.005500 -0.000086 0.000000 0.000000 0.000000
# 3 -0.005838 -0.000086 0.010085 0.000000 0.000000 0.000000
# 4 0.000000 0.000000 0.000000 0.024001 0.000000 0.000000
# 5 0.000000 0.000000 0.000000 0.000000 0.030592 0.000000
# 6 0.000000 0.000000 0.000000 0.000000 0.000000 0.031235
#
#
# Mechanical properties :
#
#
# Convention : Reuss Voigt Hill
#
# Bulk Modulus (GPa) = 47.10895 53.85206 50.48051
# Shear Modulus (GPa) = 35.09732 41.79075 38.44403
#
# Velocity S-wave (km/s) = 3.69101 4.02762 3.86298
# Velocity P-wave (km/s) = 6.03745 6.52169 6.28424
#
# Compressibility (1/GPa) = 0.02122739
#
# Stress axis : x y z
#
# Youngs Moduli (GPa) = 50.48853 181.80697 99.15571
#
# Poissons Ratio (x) = 0.21058 0.57887
# Poissons Ratio (y) = 0.05848 0.00853
# Poissons Ratio (z) = 0.29475 0.01565
#
# Static dielectric constant tensor:
#      x y z
#    x 2.017370 0.000000 0.000000 
#    y 0.000000 2.163020 0.000000 
#    z 0.000000 0.000000 1.993200 
# 
# From -- ./inp_files/21311.got.cif
#   From: 2010.05.17/outbox.cif.g08.bks.cpg/sg20_11_cif.got.tgz:21311.got - 2010.06.03 22:52:26.
