data_PCOD9318537
_publ_section_title
;
Structure prediction by ZEFSAII (Michael W. Deem and Ramdas Pophale) SiO2 
 PCOD9318537
Probable space group: C 2 2 21
;
_chemical_formula_sum "Si O2"
_cell_formula_units_Z 32
_cell_length_a 15.086195
_cell_length_b 6.564546
_cell_length_c 13.125145
_cell_angle_alpha 90.000000
_cell_angle_beta 90.000000
_cell_angle_gamma 90.000000
_cell_volume 1299.835886
_symmetry_space_group_name_H-M "C 2 2 21"
_symmetry_group_IT_number 20
_symmetry_cell_setting 'orthorhombic'
loop_
_space_group_symop_operation_xyz
x,y,z
-x,-y,1/2+z
x,-y,-z
-x,y,1/2-z
1/2+x,1/2+y,z
1/2-x,1/2-y,1/2+z
1/2+x,1/2-y,-z
1/2-x,1/2+y,1/2-z
loop_
_atom_site_type_symbol
_atom_site_label
_atom_site_fract_x
_atom_site_fract_y
_atom_site_fract_z
Si Si1 0.400929 0.612170 0.708079
Si Si2 0.685129 0.173449 0.374783
Si Si3 0.158988 0.000000 0.000000
Si Si4 0.572363 0.788035 0.325056
Si Si5 0.429927 0.500000 0.000000
O O1 0.500000 0.662985 0.750000
O O2 0.325109 0.751428 0.758400
O O3 0.394274 0.622691 0.586409
O O4 0.615208 0.384946 0.747049
O O5 0.630056 0.345491 0.434303
O O6 0.776842 0.143089 0.432651
O O7 0.636517 0.954510 0.372395
O O8 0.500000 0.885703 0.250000
O O9 0.529215 0.656064 0.416782
#
# Coordination Sequence:
#
# PCOD9318537 Si02
#       5
#     8   8   4   8   4
#     4  10  26  47  71 104 155 190 248 304 369 449
#     4  11  23  44  73 103 142 188 249 306 360 444
#     4  12  26  47  74 109 144 202 244 310 383 424
#     4  10  21  41  69 101 143 187 237 300 362 437
#     4  10  20  41  66  99 140 192 234 300 371 420
#
# _framework density 24.618490999999999
#
# number of rings (size 3 to 8) (size 9 to 14) (size 15 to 20)
#    0.000    1.500    2.500    0.750    3.500   10.000 
#    0.000    0.000    0.000    0.000    0.000    0.000 
#    0.000    0.000    0.000    0.000    0.000    0.000 
#
# Total GULP energy -89340.106082 kJ/mol
# GULP energy per Si atom -5583.756630 kJ/mol
# Density = 2.456246 g / cm^3
# Si number density = 24.618491 Si / 1000 Ang^3
#
#
#
# Elastic Constant Matrix: (Units=GPa)
#
#
# Indices 1 2 3 4 5 6 
#
# 1 101.0702 23.5825 62.8753 0.0000 0.0000 0.0000
# 2 23.5825 115.4220 35.8800 0.0000 0.0000 0.0000
# 3 62.8753 35.8800 223.0682 0.0000 0.0000 0.0000
# 4 0.0000 0.0000 0.0000 44.1574 0.0000 0.0000
# 5 0.0000 0.0000 0.0000 0.0000 57.7560 0.0000
# 6 0.0000 0.0000 0.0000 0.0000 0.0000 -0.1516
#
#
#
# Elastic Compliance Matrix: (Units=1/GPa)
#
#
# Indices 1 2 3 4 5 6 
#
# 1 0.012241 -0.001504 -0.003208 0.000000 0.000000 0.000000
# 2 -0.001504 0.009305 -0.001073 0.000000 0.000000 0.000000
# 3 -0.003208 -0.001073 0.005560 0.000000 0.000000 0.000000
# 4 0.000000 0.000000 0.000000 0.022646 0.000000 0.000000
# 5 0.000000 0.000000 0.000000 0.000000 0.017314 0.000000
# 6 0.000000 0.000000 0.000000 0.000000 0.000000 -6.596159
#
#
# Mechanical properties :
#
#
# Convention : Reuss Voigt Hill
#
# Bulk Modulus (GPa) = 64.36839 76.02625 70.19732
# Shear Modulus (GPa) = -0.76777 41.50053 20.36638
#
# Velocity S-wave (km/s) = -0.55906 4.11024 2.87937
# Velocity P-wave (km/s) = 5.07803 7.31261 6.29526
#
# Compressibility (1/GPa) = 0.01553558
#
# Stress axis : x y z
#
# Youngs Moduli (GPa) = 81.69327 107.47415 179.86129
#
# Poissons Ratio (x) = 0.16160 0.57707
# Poissons Ratio (y) = 0.12284 0.19295
# Poissons Ratio (z) = 0.26211 0.11530
#
# Static dielectric constant tensor:
#      x y z
#    x 2.107650 0.000000 0.000000 
#    y 0.000000 1.923230 0.000000 
#    z 0.000000 0.000000 2.043270 
# 
# From -- ./inp_files/15515.got.cif
#   From: 2010.05.17/outbox.cif.g08.bks.cpg/sg20_8_cif.got.tgz:15515.got - 2010.06.03 22:52:26.
