data_PCOD9318394
_publ_section_title
;
Structure prediction by ZEFSAII (Michael W. Deem and Ramdas Pophale) SiO2 
 PCOD9318394
Probable space group: C 2 2 21
;
_chemical_formula_sum "Si O2"
_cell_formula_units_Z 64
_cell_length_a 8.993672
_cell_length_b 23.817606
_cell_length_c 14.969979
_cell_angle_alpha 90.000000
_cell_angle_beta 90.000000
_cell_angle_gamma 90.000000
_cell_volume 3206.685312
_symmetry_space_group_name_H-M "C 2 2 21"
_symmetry_group_IT_number 20
_symmetry_cell_setting 'orthorhombic'
loop_
_space_group_symop_operation_xyz
x,y,z
-x,-y,1/2+z
x,-y,-z
-x,y,1/2-z
1/2+x,1/2+y,z
1/2-x,1/2-y,1/2+z
1/2+x,1/2-y,-z
1/2-x,1/2+y,1/2-z
loop_
_atom_site_type_symbol
_atom_site_label
_atom_site_fract_x
_atom_site_fract_y
_atom_site_fract_z
Si Si1 0.176903 0.598714 0.243587
Si Si2 0.305118 0.446534 0.059856
Si Si3 0.840788 0.941644 0.452793
Si Si4 0.158997 0.756143 0.641801
Si Si5 0.678003 0.292314 0.829380
Si Si6 0.831600 0.642846 0.444581
Si Si7 0.834110 0.332137 0.993425
Si Si8 0.824244 0.016593 0.739889
O O1 0.272409 0.646705 0.292255
O O2 0.210246 0.602853 0.138520
O O3 0.227867 0.538745 0.277720
O O4 0.000000 0.608784 0.250000
O O5 0.480730 0.439769 0.040505
O O6 0.280828 0.458202 0.164416
O O7 0.253253 0.500000 0.000000
O O8 0.229986 0.388677 0.030474
O O9 0.767657 0.887119 0.496506
O O10 0.806497 0.944767 0.347005
O O11 0.792333 0.000000 0.500000
O O12 0.214442 0.752584 0.744535
O O13 0.261526 0.798212 0.585022
O O14 0.150268 0.698537 0.588307
O O15 0.995450 0.784043 0.649519
O O16 0.765622 0.288471 0.921846
O O17 0.006403 0.649980 0.456547
O O18 0.000000 0.001506 0.750000
#
# Coordination Sequence:
#
# PCOD9318394 Si02
#       8
#     8   8   8   8   8   8   8   8
#     4  11  21  36  62  96 127 161 211 268 321 371
#     4  10  20  40  62  93 129 166 216 258 312 389
#     4  10  23  40  65  94 127 172 210 258 326 385
#     4  10  24  42  65  93 120 171 219 257 322 380
#     4  10  22  42  66  90 126 160 218 263 312 381
#     4  11  23  37  64  95 124 168 212 264 322 376
#     4  12  23  43  65  93 133 164 214 272 326 383
#     4  10  22  38  62  93 128 169 216 260 317 387
#
# _framework density 19.958303999999998
#
# number of rings (size 3 to 8) (size 9 to 14) (size 15 to 20)
#    0.000    1.500    2.500    2.250    3.500    1.500 
#    6.750    0.000    2.750    0.000    0.000    0.000 
#    0.000    0.000    0.000    0.000    0.000    0.000 
#
# Total GULP energy -178629.461315 kJ/mol
# GULP energy per Si atom -5582.170666 kJ/mol
# Density = 1.991288 g / cm^3
# Si number density = 19.958304 Si / 1000 Ang^3
#
#
#
# Elastic Constant Matrix: (Units=GPa)
#
#
# Indices 1 2 3 4 5 6 
#
# 1 30.7695 14.6638 28.7194 0.0000 0.0000 0.0000
# 2 14.6638 34.7674 23.1861 0.0000 0.0000 0.0000
# 3 28.7194 23.1861 117.7208 0.0000 0.0000 0.0000
# 4 0.0000 0.0000 0.0000 35.4134 0.0000 0.0000
# 5 0.0000 0.0000 0.0000 0.0000 24.5467 0.0000
# 6 0.0000 0.0000 0.0000 0.0000 0.0000 65.3888
#
#
#
# Elastic Compliance Matrix: (Units=1/GPa)
#
#
# Indices 1 2 3 4 5 6 
#
# 1 0.047446 -0.014150 -0.008788 0.000000 0.000000 0.000000
# 2 -0.014150 0.037332 -0.003901 0.000000 0.000000 0.000000
# 3 -0.008788 -0.003901 0.011407 0.000000 0.000000 0.000000
# 4 0.000000 0.000000 0.000000 0.028238 0.000000 0.000000
# 5 0.000000 0.000000 0.000000 0.000000 0.040739 0.000000
# 6 0.000000 0.000000 0.000000 0.000000 0.000000 0.015293
#
#
# Mechanical properties :
#
#
# Convention : Reuss Voigt Hill
#
# Bulk Modulus (GPa) = 23.52577 35.15513 29.34045
# Shear Modulus (GPa) = 20.13682 32.84902 26.49292
#
# Velocity S-wave (km/s) = 3.17983 4.06135 3.64732
# Velocity P-wave (km/s) = 5.02940 6.29645 5.69825
#
# Compressibility (1/GPa) = 0.04250657
#
# Stress axis : x y z
#
# Youngs Moduli (GPa) = 21.07673 26.78656 87.66649
#
# Poissons Ratio (x) = 0.37904 0.77040
# Poissons Ratio (y) = 0.29825 0.34196
# Poissons Ratio (z) = 0.18522 0.10449
#
# Static dielectric constant tensor:
#      x y z
#    x 1.681760 0.000000 0.000000 
#    y 0.000000 1.665080 0.000000 
#    z 0.000000 0.000000 1.747950 
# 
# From -- ./inp_files/19363.got.cif
#   From: 2010.05.17/outbox.cif.g08.bks.cpg/sg20_10_cif.got.tgz:19363.got - 2010.06.03 22:52:26.
