data_PCOD9318463
_publ_section_title
;
Structure prediction by ZEFSAII (Michael W. Deem and Ramdas Pophale) SiO2 
 PCOD9318463
Probable space group: C 2 2 21
;
_chemical_formula_sum "Si O2"
_cell_formula_units_Z 36
_cell_length_a 26.190622
_cell_length_b 13.467652
_cell_length_c 5.016010
_cell_angle_alpha 90.000000
_cell_angle_beta 90.000000
_cell_angle_gamma 90.000000
_cell_volume 1769.278060
_symmetry_space_group_name_H-M "C 2 2 21"
_symmetry_group_IT_number 20
_symmetry_cell_setting 'orthorhombic'
loop_
_space_group_symop_operation_xyz
x,y,z
-x,-y,1/2+z
x,-y,-z
-x,y,1/2-z
1/2+x,1/2+y,z
1/2-x,1/2-y,1/2+z
1/2+x,1/2-y,-z
1/2-x,1/2+y,1/2-z
loop_
_atom_site_type_symbol
_atom_site_label
_atom_site_fract_x
_atom_site_fract_y
_atom_site_fract_z
Si Si1 0.940925 0.786717 0.661540
Si Si2 0.614302 0.205680 0.330534
Si Si3 0.536584 0.500000 0.000000
Si Si4 0.237472 0.500000 0.000000
Si Si5 0.723219 0.708348 0.645507
Si Si6 0.838721 0.500000 0.000000
O O1 0.923128 0.715070 0.422152
O O2 0.000000 0.776311 0.750000
O O3 0.933259 0.899945 0.564044
O O4 0.908543 0.765634 0.922804
O O5 0.668027 0.256765 0.256523
O O6 0.626525 0.095789 0.438449
O O7 0.500000 0.477602 0.250000
O O8 0.271664 0.598234 0.973028
O O9 0.199232 0.504221 0.750751
O O10 0.739971 0.778469 0.399734
#
# Coordination Sequence:
#
# PCOD9318463 Si02
#       6
#     8   8   4   4   8   4
#     4  11  24  43  68  98 136 172 224 282 335 398
#     4  12  24  42  68  99 132 178 230 273 337 402
#     4  10  20  40  68  94 126 174 208 262 354 408
#     4  12  22  42  67  95 138 179 224 277 342 398
#     4  12  23  41  64  99 133 174 223 278 326 400
#     4  12  24  42  69  93 130 189 226 267 344 414
#
# _framework density 20.347280999999999
#
# number of rings (size 3 to 8) (size 9 to 14) (size 15 to 20)
#    0.000    0.444    4.444    6.000    0.000    1.778 
#    0.000    2.222    0.000    1.333    0.000    0.000 
#    0.000    0.000    0.000    0.000    0.000    0.000 
#
# Total GULP energy -100640.577399 kJ/mol
# GULP energy per Si atom -5591.143189 kJ/mol
# Density = 2.030097 g / cm^3
# Si number density = 20.347281 Si / 1000 Ang^3
#
#
#
# Elastic Constant Matrix: (Units=GPa)
#
#
# Indices 1 2 3 4 5 6 
#
# 1 66.3755 54.5888 22.4036 0.0000 0.0000 0.0000
# 2 54.5888 88.9526 9.4055 0.0000 0.0000 0.0000
# 3 22.4036 9.4055 126.5950 0.0000 0.0000 0.0000
# 4 0.0000 0.0000 0.0000 22.8481 0.0000 0.0000
# 5 0.0000 0.0000 0.0000 0.0000 43.4553 0.0000
# 6 0.0000 0.0000 0.0000 0.0000 0.0000 29.8773
#
#
#
# Elastic Compliance Matrix: (Units=1/GPa)
#
#
# Indices 1 2 3 4 5 6 
#
# 1 0.032602 -0.019551 -0.004317 0.000000 0.000000 0.000000
# 2 -0.019551 0.023055 0.001747 0.000000 0.000000 0.000000
# 3 -0.004317 0.001747 0.008533 0.000000 0.000000 0.000000
# 4 0.000000 0.000000 0.000000 0.043767 0.000000 0.000000
# 5 0.000000 0.000000 0.000000 0.000000 0.023012 0.000000
# 6 0.000000 0.000000 0.000000 0.000000 0.000000 0.033470
#
#
# Mechanical properties :
#
#
# Convention : Reuss Voigt Hill
#
# Bulk Modulus (GPa) = 50.12812 50.52433 50.32623
# Shear Modulus (GPa) = 23.21995 32.27115 27.74555
#
# Velocity S-wave (km/s) = 3.38180 3.98680 3.69670
# Velocity P-wave (km/s) = 6.31970 6.78806 6.55806
#
# Compressibility (1/GPa) = 0.01994888
#
# Stress axis : x y z
#
# Youngs Moduli (GPa) = 30.67291 43.37396 117.18649
#
# Poissons Ratio (x) = 0.84800 0.50590
# Poissons Ratio (y) = 0.59968 -0.20473
# Poissons Ratio (z) = 0.13242 -0.07578
#
# Static dielectric constant tensor:
#      x y z
#    x 1.748690 0.000000 0.000000 
#    y 0.000000 1.763700 0.000000 
#    z 0.000000 0.000000 1.692360 
# 
# From -- ./inp_files/3585.got.cif
#   From: 2010.05.17/outbox.cif.g08.bks.cpg/sg20_2_cif.got.tgz:3585.got - 2010.06.03 22:52:26.
