data_PCOD9318008
_publ_section_title
;
Structure prediction by ZEFSAII (Michael W. Deem and Ramdas Pophale) SiO2 
 PCOD9318008
Probable space group: C 2 2 21
;
_chemical_formula_sum "Si O2"
_cell_formula_units_Z 32
_cell_length_a 8.879983
_cell_length_b 10.923645
_cell_length_c 15.873007
_cell_angle_alpha 90.000000
_cell_angle_beta 90.000000
_cell_angle_gamma 90.000000
_cell_volume 1539.709963
_symmetry_space_group_name_H-M "C 2 2 21"
_symmetry_group_IT_number 20
_symmetry_cell_setting 'orthorhombic'
loop_
_space_group_symop_operation_xyz
x,y,z
-x,-y,1/2+z
x,-y,-z
-x,y,1/2-z
1/2+x,1/2+y,z
1/2-x,1/2-y,1/2+z
1/2+x,1/2-y,-z
1/2-x,1/2+y,1/2-z
loop_
_atom_site_type_symbol
_atom_site_label
_atom_site_fract_x
_atom_site_fract_y
_atom_site_fract_z
Si Si1 0.609188 0.012745 0.594105
Si Si2 0.931441 0.227207 0.156185
Si Si3 0.572029 0.213198 0.157010
Si Si4 0.567876 0.482049 0.155781
O O1 0.538362 0.146305 0.608005
O O2 0.751585 0.004272 0.656709
O O3 0.671378 0.000000 0.500000
O O4 0.494582 0.902726 0.609132
O O5 0.752202 0.209055 0.162233
O O6 0.000000 0.240984 0.250000
O O7 0.001430 0.104966 0.115757
O O8 0.500000 0.208808 0.250000
O O9 0.533257 0.347561 0.119149
O O10 0.500000 0.480061 0.250000
#
# Coordination Sequence:
#
# PCOD9318008 Si02
#       4
#     8   8   8   8
#     4  11  24  39  58  90 128 159 192 243 304 359
#     4  10  21  37  60  88 114 152 202 247 292 348
#     4  10  20  37  61  87 114 152 200 247 294 350
#     4   9  20  39  63  89 116 155 205 249 290 345
#
# _framework density 20.783134
#
# number of rings (size 3 to 8) (size 9 to 14) (size 15 to 20)
#    0.000    2.000    0.000    3.750    0.000   12.000 
#    0.000    1.250    0.000    0.000    0.000    0.000 
#    0.000    0.000    0.000    0.000    0.000    0.000 
#
# Total GULP energy -89280.781279 kJ/mol
# GULP energy per Si atom -5580.048830 kJ/mol
# Density = 2.073583 g / cm^3
# Si number density = 20.783134 Si / 1000 Ang^3
#
#
#
# Elastic Constant Matrix: (Units=GPa)
#
#
# Indices 1 2 3 4 5 6 
#
# 1 79.5639 78.0727 17.4875 0.0000 0.0000 0.0000
# 2 78.0727 215.2919 10.0658 0.0000 0.0000 0.0000
# 3 17.4875 10.0658 31.4923 0.0000 0.0000 0.0000
# 4 0.0000 0.0000 0.0000 -46.4491 0.0000 0.0000
# 5 0.0000 0.0000 0.0000 0.0000 7.8955 0.0000
# 6 0.0000 0.0000 0.0000 0.0000 0.0000 37.1796
#
#
#
# Elastic Compliance Matrix: (Units=1/GPa)
#
#
# Indices 1 2 3 4 5 6 
#
# 1 0.022183 -0.007582 -0.009895 0.000000 0.000000 0.000000
# 2 -0.007582 0.007307 0.001875 0.000000 0.000000 0.000000
# 3 -0.009895 0.001875 0.036649 0.000000 0.000000 0.000000
# 4 0.000000 0.000000 0.000000 -0.021529 0.000000 0.000000
# 5 0.000000 0.000000 0.000000 0.000000 0.126654 0.000000
# 6 0.000000 0.000000 0.000000 0.000000 0.000000 0.026897
#
#
# Mechanical properties :
#
#
# Convention : Reuss Voigt Hill
#
# Bulk Modulus (GPa) = 28.62452 59.73335 44.17893
# Shear Modulus (GPa) = 20.74617 14.44001 17.59309
#
# Velocity S-wave (km/s) = 3.16289 2.63876 2.91264
# Velocity P-wave (km/s) = 5.20974 6.17152 5.71091
#
# Compressibility (1/GPa) = 0.03493508
#
# Stress axis : x y z
#
# Youngs Moduli (GPa) = 45.07969 136.86224 27.28585
#
# Poissons Ratio (x) = 1.03765 0.26999
# Poissons Ratio (y) = 0.34178 -0.05115
# Poissons Ratio (z) = 0.44605 -0.25658
#
# Static dielectric constant tensor:
#      x y z
#    x 1.717510 0.000000 0.000000 
#    y 0.000000 1.803850 0.000000 
#    z 0.000000 0.000000 1.717310 
# 
# From -- ./inp_files/18162.got.cif
#   From: 2010.05.17/outbox.cif.g08.bks.cpg/sg20_10_cif.got.tgz:18162.got - 2010.06.03 22:52:26.
