data_PCOD9318782
_publ_section_title
;
Structure prediction by ZEFSAII (Michael W. Deem and Ramdas Pophale) SiO2 
 PCOD9318782
Probable space group: C 2 2 21
;
_chemical_formula_sum "Si O2"
_cell_formula_units_Z 40
_cell_length_a 7.862423
_cell_length_b 27.061786
_cell_length_c 8.020951
_cell_angle_alpha 90.000000
_cell_angle_beta 90.000000
_cell_angle_gamma 90.000000
_cell_volume 1706.627439
_symmetry_space_group_name_H-M "C 2 2 21"
_symmetry_group_IT_number 20
_symmetry_cell_setting 'orthorhombic'
loop_
_space_group_symop_operation_xyz
x,y,z
-x,-y,1/2+z
x,-y,-z
-x,y,1/2-z
1/2+x,1/2+y,z
1/2-x,1/2-y,1/2+z
1/2+x,1/2-y,-z
1/2-x,1/2+y,1/2-z
loop_
_atom_site_type_symbol
_atom_site_label
_atom_site_fract_x
_atom_site_fract_y
_atom_site_fract_z
Si Si1 0.705493 0.879187 0.762869
Si Si2 0.680232 0.084994 0.587429
Si Si3 0.786110 0.553877 0.566742
Si Si4 0.326985 0.272694 0.658113
Si Si5 0.323957 0.681293 0.699992
O O1 0.500000 0.881390 0.750000
O O2 0.762600 0.908711 0.595196
O O3 0.755140 0.821928 0.747512
O O4 0.769589 0.904550 0.932702
O O5 0.492463 0.062162 0.569081
O O6 0.769319 0.057285 0.740641
O O7 0.680690 0.141018 0.660336
O O8 0.747136 0.500000 0.500000
O O9 0.500000 0.259608 0.750000
O O10 0.350257 0.288734 0.469512
O O11 0.218123 0.223061 0.666637
O O12 0.500000 0.655686 0.750000
#
# Coordination Sequence:
#
# PCOD9318782 Si02
#       5
#     8   8   8   8   8
#     4   9  20  38  58  89 127 162 208 259 316 379
#     4   9  22  36  58  92 124 158 205 260 315 377
#     4  10  21  35  65  93 122 161 210 268 321 371
#     4  11  24  38  64  92 126 171 213 263 312 384
#     4  11  24  42  62  91 130 173 211 259 323 386
#
# _framework density 23.438039
#
# number of rings (size 3 to 8) (size 9 to 14) (size 15 to 20)
#    0.000    2.000    0.000    1.800   16.800    1.600 
#    0.000    0.000    0.000    2.400    0.000    0.000 
#    0.000    0.000    0.000    0.000    0.000    0.000 
#
# Total GULP energy -111692.890841 kJ/mol
# GULP energy per Si atom -5584.644542 kJ/mol
# Density = 2.338469 g / cm^3
# Si number density = 23.438039 Si / 1000 Ang^3
#
#
#
# Elastic Constant Matrix: (Units=GPa)
#
#
# Indices 1 2 3 4 5 6 
#
# 1 39.5753 3.6264 0.2399 0.0000 0.0000 0.0000
# 2 3.6264 49.5142 4.8269 0.0000 0.0000 0.0000
# 3 0.2399 4.8269 98.1953 0.0000 0.0000 0.0000
# 4 0.0000 0.0000 0.0000 193.7969 0.0000 0.0000
# 5 0.0000 0.0000 0.0000 0.0000 13.8055 0.0000
# 6 0.0000 0.0000 0.0000 0.0000 0.0000 13.6243
#
#
#
# Elastic Compliance Matrix: (Units=1/GPa)
#
#
# Indices 1 2 3 4 5 6 
#
# 1 0.025439 -0.001866 0.000030 0.000000 0.000000 0.000000
# 2 -0.001866 0.020430 -0.001000 0.000000 0.000000 0.000000
# 3 0.000030 -0.001000 0.010233 0.000000 0.000000 0.000000
# 4 0.000000 0.000000 0.000000 0.005160 0.000000 0.000000
# 5 0.000000 0.000000 0.000000 0.000000 0.072435 0.000000
# 6 0.000000 0.000000 0.000000 0.000000 0.000000 0.073398
#
#
# Mechanical properties :
#
#
# Convention : Reuss Voigt Hill
#
# Bulk Modulus (GPa) = 19.82949 22.74124 21.28536
# Shear Modulus (GPa) = 21.77911 56.15144 38.96528
#
# Velocity S-wave (km/s) = 3.05162 4.89994 4.08178
# Velocity P-wave (km/s) = 4.57113 6.46036 5.59605
#
# Compressibility (1/GPa) = 0.05042994
#
# Stress axis : x y z
#
# Youngs Moduli (GPa) = 39.30959 48.94678 97.72440
#
# Poissons Ratio (x) = 0.09134 -0.00289
# Poissons Ratio (y) = 0.07335 0.09770
# Poissons Ratio (z) = -0.00116 0.04893
#
# Static dielectric constant tensor:
#      x y z
#    x 1.764260 0.000000 0.000000 
#    y 0.000000 1.862340 0.000000 
#    z 0.000000 0.000000 1.925000 
# 
# From -- ./inp_files/6114.got.cif
#   From: 2010.05.17/outbox.cif.g08.bks.cpg/sg20_4_cif.got.tgz:6114.got - 2010.06.03 22:52:26.
