data_PCOD9318034
_publ_section_title
;
Structure prediction by ZEFSAII (Michael W. Deem and Ramdas Pophale) SiO2 
 PCOD9318034
Probable space group: C 2 2 21
;
_chemical_formula_sum "Si O2"
_cell_formula_units_Z 48
_cell_length_a 8.510894
_cell_length_b 20.547092
_cell_length_c 14.122303
_cell_angle_alpha 90.000000
_cell_angle_beta 90.000000
_cell_angle_gamma 90.000000
_cell_volume 2469.625338
_symmetry_space_group_name_H-M "C 2 2 21"
_symmetry_group_IT_number 20
_symmetry_cell_setting 'orthorhombic'
loop_
_space_group_symop_operation_xyz
x,y,z
-x,-y,1/2+z
x,-y,-z
-x,y,1/2-z
1/2+x,1/2+y,z
1/2-x,1/2-y,1/2+z
1/2+x,1/2-y,-z
1/2-x,1/2+y,1/2-z
loop_
_atom_site_type_symbol
_atom_site_label
_atom_site_fract_x
_atom_site_fract_y
_atom_site_fract_z
Si Si1 0.174805 0.071720 0.964126
Si Si2 0.165134 0.699545 0.034421
Si Si3 0.188912 0.116237 0.754502
Si Si4 0.695529 0.810660 0.587945
Si Si5 0.682993 0.737966 0.270736
Si Si6 0.203413 0.068114 0.549275
O O1 0.226883 0.084342 0.855860
O O2 0.984606 0.077663 0.965024
O O3 0.248130 0.125449 0.033071
O O4 0.215863 0.000000 0.000000
O O5 0.272890 0.720218 0.122557
O O6 0.985039 0.703214 0.065107
O O7 0.201538 0.750985 0.952306
O O8 0.208385 0.627889 0.999532
O O9 0.264639 0.187680 0.751976
O O10 0.233983 0.074202 0.662112
O O11 0.000000 0.124874 0.750000
O O12 0.724376 0.809681 0.699695
O O13 0.500000 0.730931 0.250000
O O14 0.245962 0.000000 0.500000
#
# Coordination Sequence:
#
# PCOD9318034 Si02
#       6
#     8   8   8   8   8   8
#     4  10  22  40  63  93 130 172 214 260 316 379
#     4  12  24  40  63  93 127 165 211 263 313 372
#     4  10  20  37  62  89 125 169 213 259 312 377
#     4  12  24  40  63  93 127 165 211 263 313 372
#     4  12  24  39  64  95 125 165 213 265 320 377
#     4  10  22  40  63  93 130 172 214 260 316 379
#
# _framework density 19.436146999999998
#
# number of rings (size 3 to 8) (size 9 to 14) (size 15 to 20)
#    0.000    1.000    3.333    4.500    0.000    2.000 
#    0.000    3.333    0.000    0.000    0.000    0.000 
#    0.000    0.000    0.000    0.000    0.000    0.000 
#
# Total GULP energy -134221.401103 kJ/mol
# GULP energy per Si atom -5592.558379 kJ/mol
# Density = 1.939191 g / cm^3
# Si number density = 19.436147 Si / 1000 Ang^3
#
#
#
# Elastic Constant Matrix: (Units=GPa)
#
#
# Indices 1 2 3 4 5 6 
#
# 1 48.3570 20.4722 3.7284 0.0000 0.0000 0.0000
# 2 20.4722 95.2524 18.4532 0.0000 0.0000 0.0000
# 3 3.7284 18.4532 87.3414 0.0000 0.0000 0.0000
# 4 0.0000 0.0000 0.0000 33.7234 0.0000 0.0000
# 5 0.0000 0.0000 0.0000 0.0000 23.2200 0.0000
# 6 0.0000 0.0000 0.0000 0.0000 0.0000 19.2192
#
#
#
# Elastic Compliance Matrix: (Units=1/GPa)
#
#
# Indices 1 2 3 4 5 6 
#
# 1 0.022750 -0.004902 0.000065 0.000000 0.000000 0.000000
# 2 -0.004902 0.012003 -0.002327 0.000000 0.000000 0.000000
# 3 0.000065 -0.002327 0.011938 0.000000 0.000000 0.000000
# 4 0.000000 0.000000 0.000000 0.029653 0.000000 0.000000
# 5 0.000000 0.000000 0.000000 0.000000 0.043066 0.000000
# 6 0.000000 0.000000 0.000000 0.000000 0.000000 0.052031
#
#
# Mechanical properties :
#
#
# Convention : Reuss Voigt Hill
#
# Bulk Modulus (GPa) = 30.89998 35.13980 33.01989
# Shear Modulus (GPa) = 25.43792 27.78566 26.61179
#
# Velocity S-wave (km/s) = 3.62165 3.78509 3.70427
# Velocity P-wave (km/s) = 5.78111 6.10093 5.94317
#
# Compressibility (1/GPa) = 0.03236248
#
# Stress axis : x y z
#
# Youngs Moduli (GPa) = 43.95633 83.31432 83.76516
#
# Poissons Ratio (x) = 0.40841 -0.00541
# Poissons Ratio (y) = 0.21548 0.19489
# Poissons Ratio (z) = -0.00284 0.19384
#
# Static dielectric constant tensor:
#      x y z
#    x 1.670580 0.000000 0.000000 
#    y 0.000000 1.633140 0.000000 
#    z 0.000000 0.000000 1.681600 
# 
# From -- ./inp_files/19009.got.cif
#   From: 2010.05.17/outbox.cif.g08.bks.cpg/sg20_10_cif.got.tgz:19009.got - 2010.06.03 22:52:26.
