data_PCOD9318490
_publ_section_title
;
Structure prediction by ZEFSAII (Michael W. Deem and Ramdas Pophale) SiO2 
 PCOD9318490
Probable space group: C 2 2 21
;
_chemical_formula_sum "Si O2"
_cell_formula_units_Z 56
_cell_length_a 7.736664
_cell_length_b 19.611736
_cell_length_c 14.751700
_cell_angle_alpha 90.000000
_cell_angle_beta 90.000000
_cell_angle_gamma 90.000000
_cell_volume 2238.266765
_symmetry_space_group_name_H-M "C 2 2 21"
_symmetry_group_IT_number 20
_symmetry_cell_setting 'orthorhombic'
loop_
_space_group_symop_operation_xyz
x,y,z
-x,-y,1/2+z
x,-y,-z
-x,y,1/2-z
1/2+x,1/2+y,z
1/2-x,1/2-y,1/2+z
1/2+x,1/2-y,-z
1/2-x,1/2+y,1/2-z
loop_
_atom_site_type_symbol
_atom_site_label
_atom_site_fract_x
_atom_site_fract_y
_atom_site_fract_z
Si Si1 0.259430 0.871490 0.116871
Si Si2 0.230863 0.077459 0.527221
Si Si3 0.792968 0.533807 0.726650
Si Si4 0.791182 0.614859 0.254961
Si Si5 0.891178 0.136945 0.437160
Si Si6 0.815263 0.245162 0.720090
Si Si7 0.608218 0.204441 0.900327
O O1 0.219759 0.934398 0.181073
O O2 0.134338 0.810867 0.146503
O O3 0.435353 0.830815 0.138037
O O4 0.251588 0.884238 0.011925
O O5 0.232873 0.073133 0.637290
O O6 0.333346 0.150079 0.522579
O O7 0.054987 0.094240 0.474011
O O8 0.294218 0.000000 0.500000
O O9 0.734700 0.457336 0.706956
O O10 0.000000 0.537899 0.750000
O O11 0.695315 0.621108 0.158761
O O12 0.729946 0.682853 0.308014
O O13 0.000000 0.604848 0.250000
O O14 0.918139 0.219328 0.439624
O O15 0.724196 0.216275 0.810226
O O16 0.000000 0.271173 0.750000
#
# Coordination Sequence:
#
# PCOD9318490 Si02
#       7
#     8   8   8   8   8   8   8
#     4  12  23  40  77 100 145 194 253 299 374 463
#     4  12  27  47  73 113 156 195 254 323 385 444
#     4  11  23  46  72 102 143 203 246 302 381 462
#     4   9  23  45  72 104 149 194 254 305 380 461
#     4  11  27  45  72 114 149 193 251 324 375 453
#     4  10  20  40  71 104 137 190 248 312 373 450
#     4  11  23  47  69 101 147 196 252 301 380 453
#
# _framework density 25.019359999999999
#
# number of rings (size 3 to 8) (size 9 to 14) (size 15 to 20)
#    0.000    1.143    2.857    2.143    2.000    6.857 
#    0.000    1.429    0.000    0.000    0.000    0.000 
#    0.000    0.000    0.000    0.000    0.000    0.000 
#
# Total GULP energy -156062.106241 kJ/mol
# GULP energy per Si atom -5573.646651 kJ/mol
# Density = 2.496241 g / cm^3
# Si number density = 25.019360 Si / 1000 Ang^3
#
#
#
# Elastic Constant Matrix: (Units=GPa)
#
#
# Indices 1 2 3 4 5 6 
#
# 1 50.5021 9.0110 19.9764 0.0000 0.0000 0.0000
# 2 9.0110 150.8089 17.2696 0.0000 0.0000 0.0000
# 3 19.9764 17.2696 66.9626 0.0000 0.0000 0.0000
# 4 0.0000 0.0000 0.0000 50.7055 0.0000 0.0000
# 5 0.0000 0.0000 0.0000 0.0000 29.4721 0.0000
# 6 0.0000 0.0000 0.0000 0.0000 0.0000 24.1867
#
#
#
# Elastic Compliance Matrix: (Units=1/GPa)
#
#
# Indices 1 2 3 4 5 6 
#
# 1 0.022502 -0.000593 -0.006560 0.000000 0.000000 0.000000
# 2 -0.000593 0.006848 -0.001589 0.000000 0.000000 0.000000
# 3 -0.006560 -0.001589 0.017300 0.000000 0.000000 0.000000
# 4 0.000000 0.000000 0.000000 0.019722 0.000000 0.000000
# 5 0.000000 0.000000 0.000000 0.000000 0.033930 0.000000
# 6 0.000000 0.000000 0.000000 0.000000 0.000000 0.041345
#
#
# Mechanical properties :
#
#
# Convention : Reuss Voigt Hill
#
# Bulk Modulus (GPa) = 34.28640 40.08751 37.18696
# Shear Modulus (GPa) = 29.61131 35.67395 32.64263
#
# Velocity S-wave (km/s) = 3.44399 3.78014 3.61597
# Velocity P-wave (km/s) = 5.43585 5.92537 5.68588
#
# Compressibility (1/GPa) = 0.02916608
#
# Stress axis : x y z
#
# Youngs Moduli (GPa) = 44.44089 146.02068 57.80184
#
# Poissons Ratio (x) = 0.08664 0.37917
# Poissons Ratio (y) = 0.02637 0.09186
# Poissons Ratio (z) = 0.29152 0.23205
#
# Static dielectric constant tensor:
#      x y z
#    x 2.138220 0.000000 0.000000 
#    y 0.000000 2.075000 0.000000 
#    z 0.000000 0.000000 2.084550 
# 
# From -- ./inp_files/19211.got.cif
#   From: 2010.05.17/outbox.cif.g08.bks.cpg/sg20_10_cif.got.tgz:19211.got - 2010.06.03 22:52:26.
