data_PCOD9318130
_publ_section_title
;
Structure prediction by ZEFSAII (Michael W. Deem and Ramdas Pophale) SiO2 
 PCOD9318130
Probable space group: C 2 2 21
;
_chemical_formula_sum "Si O2"
_cell_formula_units_Z 64
_cell_length_a 23.494674
_cell_length_b 13.342033
_cell_length_c 9.172651
_cell_angle_alpha 90.000000
_cell_angle_beta 90.000000
_cell_angle_gamma 90.000000
_cell_volume 2875.320784
_symmetry_space_group_name_H-M "C 2 2 21"
_symmetry_group_IT_number 20
_symmetry_cell_setting 'orthorhombic'
loop_
_space_group_symop_operation_xyz
x,y,z
-x,-y,1/2+z
x,-y,-z
-x,y,1/2-z
1/2+x,1/2+y,z
1/2-x,1/2-y,1/2+z
1/2+x,1/2-y,-z
1/2-x,1/2+y,1/2-z
loop_
_atom_site_type_symbol
_atom_site_label
_atom_site_fract_x
_atom_site_fract_y
_atom_site_fract_z
Si Si1 0.461914 0.389041 0.866385
Si Si2 0.377153 0.365732 0.118898
Si Si3 0.044475 0.834763 0.133266
Si Si4 0.758731 0.965454 0.149032
Si Si5 0.396478 0.746837 0.376391
Si Si6 0.712739 0.601027 0.102326
Si Si7 0.145455 0.432677 0.281126
Si Si8 0.654394 0.859045 0.599115
O O1 0.500000 0.452485 0.750000
O O2 0.436895 0.305813 0.748756
O O3 0.406454 0.400705 0.968703
O O4 0.506480 0.381481 0.002720
O O5 0.410638 0.397648 0.267009
O O6 0.312467 0.398193 0.117890
O O7 0.374834 0.245740 0.129481
O O8 0.000000 0.793915 0.250000
O O9 0.077210 0.754378 0.036877
O O10 0.712262 0.913888 0.249573
O O11 0.783624 0.059603 0.234332
O O12 0.730135 0.000000 0.000000
O O13 0.338997 0.679691 0.398617
O O14 0.386512 0.860016 0.327311
O O15 0.776455 0.645574 0.080288
O O16 0.704860 0.500000 0.000000
O O17 0.132186 0.395450 0.442830
O O18 0.141065 0.552929 0.285274
#
# Coordination Sequence:
#
# PCOD9318130 Si02
#       8
#     8   8   8   8   8   8   8   8
#     4   9  19  37  60  86 112 149 203 260 302 342
#     4  11  20  38  64  85 114 164 198 235 312 365
#     4   9  21  37  60  89 116 148 202 263 304 343
#     4  11  23  36  55  90 129 153 195 246 284 358
#     4  11  20  36  67  86 113 167 205 233 301 375
#     4  11  21  38  57  87 129 165 196 237 291 357
#     4  10  21  38  57  92 125 154 193 240 292 356
#     4  10  20  38  60  87 127 157 189 242 294 355
#
# _framework density 22.258386000000002
#
# number of rings (size 3 to 8) (size 9 to 14) (size 15 to 20)
#    0.000    1.750    3.750    2.250    0.000    2.000 
#    0.000    0.000    0.000   63.750    0.000    0.000 
#    0.000    0.000    0.000    0.000    0.000    0.000 
#
# Total GULP energy -178155.203474 kJ/mol
# GULP energy per Si atom -5567.350109 kJ/mol
# Density = 2.220772 g / cm^3
# Si number density = 22.258386 Si / 1000 Ang^3
#
#
#
# Elastic Constant Matrix: (Units=GPa)
#
#
# Indices 1 2 3 4 5 6 
#
# 1 37.1074 34.6535 27.9844 0.0000 0.0000 0.0000
# 2 34.6535 74.9754 33.2170 0.0000 0.0000 0.0000
# 3 27.9844 33.2170 148.6130 0.0000 0.0000 0.0000
# 4 0.0000 0.0000 0.0000 7.2974 0.0000 0.0000
# 5 0.0000 0.0000 0.0000 0.0000 51.3046 0.0000
# 6 0.0000 0.0000 0.0000 0.0000 0.0000 7.8095
#
#
#
# Elastic Compliance Matrix: (Units=1/GPa)
#
#
# Indices 1 2 3 4 5 6 
#
# 1 0.050254 -0.021127 -0.004741 0.000000 0.000000 0.000000
# 2 -0.021127 0.023685 -0.001316 0.000000 0.000000 0.000000
# 3 -0.004741 -0.001316 0.007916 0.000000 0.000000 0.000000
# 4 0.000000 0.000000 0.000000 0.137035 0.000000 0.000000
# 5 0.000000 0.000000 0.000000 0.000000 0.019491 0.000000
# 6 0.000000 0.000000 0.000000 0.000000 0.000000 0.128049
#
#
# Mechanical properties :
#
#
# Convention : Reuss Voigt Hill
#
# Bulk Modulus (GPa) = 36.37946 50.26731 43.32339
# Shear Modulus (GPa) = 11.62900 24.27171 17.95036
#
# Velocity S-wave (km/s) = 2.28821 3.30578 2.84289
# Velocity P-wave (km/s) = 4.83330 6.09947 5.50292
#
# Compressibility (1/GPa) = 0.02748804
#
# Stress axis : x y z
#
# Youngs Moduli (GPa) = 19.89899 42.22005 126.33131
#
# Poissons Ratio (x) = 0.89198 0.59892
# Poissons Ratio (y) = 0.42040 0.16622
# Poissons Ratio (z) = 0.09434 0.05555
#
# Static dielectric constant tensor:
#      x y z
#    x 1.902250 0.000000 0.000000 
#    y 0.000000 1.922110 0.000000 
#    z 0.000000 0.000000 1.876000 
# 
# From -- ./inp_files/10815.got.cif
#   From: 2010.05.17/outbox.cif.g08.bks.cpg/sg20_6_cif.got.tgz:10815.got - 2010.06.03 22:52:26.
