data_PCOD9318192
_publ_section_title
;
Structure prediction by ZEFSAII (Michael W. Deem and Ramdas Pophale) SiO2 
 PCOD9318192
Probable space group: C 2 2 21
;
_chemical_formula_sum "Si O2"
_cell_formula_units_Z 64
_cell_length_a 12.973637
_cell_length_b 14.743442
_cell_length_c 16.008253
_cell_angle_alpha 90.000000
_cell_angle_beta 90.000000
_cell_angle_gamma 90.000000
_cell_volume 3061.995636
_symmetry_space_group_name_H-M "C 2 2 21"
_symmetry_group_IT_number 20
_symmetry_cell_setting 'orthorhombic'
loop_
_space_group_symop_operation_xyz
x,y,z
-x,-y,1/2+z
x,-y,-z
-x,y,1/2-z
1/2+x,1/2+y,z
1/2-x,1/2-y,1/2+z
1/2+x,1/2-y,-z
1/2-x,1/2+y,1/2-z
loop_
_atom_site_type_symbol
_atom_site_label
_atom_site_fract_x
_atom_site_fract_y
_atom_site_fract_z
Si Si1 0.886679 0.857572 0.286199
Si Si2 0.730051 0.177727 0.846740
Si Si3 0.902647 0.468873 0.295725
Si Si4 0.230350 0.980015 0.840205
Si Si5 0.772358 0.723023 0.399618
Si Si6 0.621410 0.324467 0.736081
Si Si7 0.446950 0.908461 0.555740
Si Si8 0.676317 0.162844 0.461180
O O1 0.820897 0.870829 0.202585
O O2 0.849977 0.765239 0.330657
O O3 0.000000 0.856579 0.250000
O O4 0.849874 0.937292 0.348275
O O5 0.651243 0.096316 0.864098
O O6 0.665411 0.234618 0.779115
O O7 0.783115 0.251117 0.906517
O O8 0.825239 0.491911 0.219941
O O9 0.940094 0.555828 0.348161
O O10 0.000000 0.425038 0.250000
O O11 0.168004 0.906382 0.787868
O O12 0.274054 0.927979 0.921201
O O13 0.675830 0.673747 0.354674
O O14 0.845126 0.655269 0.452831
O O15 0.721109 0.806720 0.449732
O O16 0.500000 0.326081 0.750000
O O17 0.553088 0.852631 0.540525
O O18 0.452087 0.000000 0.500000
#
# Coordination Sequence:
#
# PCOD9318192 Si02
#       8
#     8   8   8   8   8   8   8   8
#     4  10  21  39  66  91 127 175 231 276 345 405
#     4   9  21  37  61  93 130 167 221 277 329 408
#     4  11  20  38  67  95 129 172 231 281 341 398
#     4  10  21  38  64  97 126 175 226 291 319 423
#     4  11  25  42  65  97 141 179 221 289 351 416
#     4  10  20  38  63  92 128 172 226 274 342 400
#     4  12  26  41  68  98 136 182 229 280 346 410
#     4  11  24  41  63  97 142 176 222 281 355 409
#
# _framework density 20.901402000000001
#
# number of rings (size 3 to 8) (size 9 to 14) (size 15 to 20)
#    0.000    1.500    2.500    2.250    1.750    4.500 
#    0.000    0.000    0.000    1.500    0.000    0.000 
#    0.000    0.000    0.000    0.000    0.000    0.000 
#
# Total GULP energy -178326.120828 kJ/mol
# GULP energy per Si atom -5572.691276 kJ/mol
# Density = 2.085383 g / cm^3
# Si number density = 20.901402 Si / 1000 Ang^3
#
#
#
# Elastic Constant Matrix: (Units=GPa)
#
#
# Indices 1 2 3 4 5 6 
#
# 1 195.0254 53.3246 43.3432 0.0000 0.0000 0.0000
# 2 53.3246 68.6299 16.0957 0.0000 0.0000 0.0000
# 3 43.3432 16.0957 52.2521 0.0000 0.0000 0.0000
# 4 0.0000 0.0000 0.0000 26.6905 0.0000 0.0000
# 5 0.0000 0.0000 0.0000 0.0000 16.2914 0.0000
# 6 0.0000 0.0000 0.0000 0.0000 0.0000 23.8148
#
#
#
# Elastic Compliance Matrix: (Units=1/GPa)
#
#
# Indices 1 2 3 4 5 6 
#
# 1 0.007464 -0.004686 -0.004748 0.000000 0.000000 0.000000
# 2 -0.004686 0.018647 -0.001857 0.000000 0.000000 0.000000
# 3 -0.004748 -0.001857 0.023648 0.000000 0.000000 0.000000
# 4 0.000000 0.000000 0.000000 0.037466 0.000000 0.000000
# 5 0.000000 0.000000 0.000000 0.000000 0.061382 0.000000
# 6 0.000000 0.000000 0.000000 0.000000 0.000000 0.041991
#
#
# Mechanical properties :
#
#
# Convention : Reuss Voigt Hill
#
# Bulk Modulus (GPa) = 36.79472 60.15937 48.47704
# Shear Modulus (GPa) = 22.49818 26.90228 24.70023
#
# Velocity S-wave (km/s) = 3.28441 3.59152 3.44139
# Velocity P-wave (km/s) = 5.65909 6.78554 6.24775
#
# Compressibility (1/GPa) = 0.02717781
#
# Stress axis : x y z
#
# Youngs Moduli (GPa) = 133.97709 53.62692 42.28604
#
# Poissons Ratio (x) = 0.25129 0.20077
# Poissons Ratio (y) = 0.62780 0.07853
# Poissons Ratio (z) = 0.63611 0.09959
#
# Static dielectric constant tensor:
#      x y z
#    x 1.814720 0.000000 0.000000 
#    y 0.000000 1.796700 0.000000 
#    z 0.000000 0.000000 1.848550 
# 
# From -- ./inp_files/24463.got.cif
#   From: 2010.05.17/outbox.cif.g08.bks.cpg/sg20_13_cif.got.tgz:24463.got - 2010.06.03 22:52:26.
