data_PCOD9318385
_publ_section_title
;
Structure prediction by ZEFSAII (Michael W. Deem and Ramdas Pophale) SiO2 
 PCOD9318385
Probable space group: C 2 2 21
;
_chemical_formula_sum "Si O2"
_cell_formula_units_Z 48
_cell_length_a 28.969815
_cell_length_b 9.654448
_cell_length_c 8.481760
_cell_angle_alpha 90.000000
_cell_angle_beta 90.000000
_cell_angle_gamma 90.000000
_cell_volume 2372.242865
_symmetry_space_group_name_H-M "C 2 2 21"
_symmetry_group_IT_number 20
_symmetry_cell_setting 'orthorhombic'
loop_
_space_group_symop_operation_xyz
x,y,z
-x,-y,1/2+z
x,-y,-z
-x,y,1/2-z
1/2+x,1/2+y,z
1/2-x,1/2-y,1/2+z
1/2+x,1/2-y,-z
1/2-x,1/2+y,1/2-z
loop_
_atom_site_type_symbol
_atom_site_label
_atom_site_fract_x
_atom_site_fract_y
_atom_site_fract_z
Si Si1 0.795282 0.624674 0.180368
Si Si2 0.623835 0.111201 0.120634
Si Si3 0.457570 0.615022 0.366141
Si Si4 0.645291 0.637106 0.101582
Si Si5 0.280119 0.194807 0.819244
Si Si6 0.479372 0.871837 0.586386
O O1 0.848952 0.614132 0.218747
O O2 0.768414 0.729927 0.292621
O O3 0.777229 0.469423 0.217938
O O4 0.790036 0.683633 0.005163
O O5 0.570859 0.074142 0.140757
O O6 0.630267 0.256115 0.034318
O O7 0.645030 0.000000 0.000000
O O8 0.457057 0.500000 0.500000
O O9 0.500000 0.585785 0.250000
O O10 0.403969 0.615247 0.306573
O O11 0.470546 0.757472 0.454261
O O12 0.683147 0.714222 0.214152
O O13 0.660278 0.500000 0.000000
O O14 0.500000 0.818072 0.750000
O O15 0.504410 0.000000 0.500000
#
# Coordination Sequence:
#
# PCOD9318385 Si02
#       6
#     8   8   8   8   8   8
#     4  11  25  42  64  94 123 167 207 262 315 377
#     4  10  20  40  62  83 124 166 203 252 315 366
#     4  10  21  39  64  89 123 165 205 254 310 363
#     4  10  22  40  63  90 124 166 209 256 311 375
#     4  11  25  42  65  93 127 162 213 258 318 378
#     4  10  21  37  59  92 122 161 204 249 305 365
#
# _framework density 20.234016
#
# number of rings (size 3 to 8) (size 9 to 14) (size 15 to 20)
#    0.000    1.667    1.667    2.000    4.667    1.333 
#    3.000    0.000    0.000    0.000    0.000    0.000 
#    0.000    0.000    0.000    0.000    0.000    0.000 
#
# Total GULP energy -133664.154541 kJ/mol
# GULP energy per Si atom -5569.339773 kJ/mol
# Density = 2.018796 g / cm^3
# Si number density = 20.234016 Si / 1000 Ang^3
#
#
#
# Elastic Constant Matrix: (Units=GPa)
#
#
# Indices 1 2 3 4 5 6 
#
# 1 65.8381 -0.3389 21.1124 0.0000 0.0000 0.0000
# 2 -0.3389 96.2548 18.9390 0.0000 0.0000 0.0000
# 3 21.1124 18.9390 56.3114 0.0000 0.0000 0.0000
# 4 0.0000 0.0000 0.0000 28.1295 0.0000 0.0000
# 5 0.0000 0.0000 0.0000 0.0000 21.3930 0.0000
# 6 0.0000 0.0000 0.0000 0.0000 0.0000 24.8238
#
#
#
# Elastic Compliance Matrix: (Units=1/GPa)
#
#
# Indices 1 2 3 4 5 6 
#
# 1 0.017450 0.001444 -0.007028 0.000000 0.000000 0.000000
# 2 0.001444 0.011245 -0.004323 0.000000 0.000000 0.000000
# 3 -0.007028 -0.004323 0.021847 0.000000 0.000000 0.000000
# 4 0.000000 0.000000 0.000000 0.035550 0.000000 0.000000
# 5 0.000000 0.000000 0.000000 0.000000 0.046744 0.000000
# 6 0.000000 0.000000 0.000000 0.000000 0.000000 0.040284
#
#
# Mechanical properties :
#
#
# Convention : Reuss Voigt Hill
#
# Bulk Modulus (GPa) = 32.54390 33.09214 32.81802
# Shear Modulus (GPa) = 24.60905 26.78205 25.69555
#
# Velocity S-wave (km/s) = 3.49122 3.64210 3.56746
# Velocity P-wave (km/s) = 5.68948 5.83753 5.76398
#
# Compressibility (1/GPa) = 0.03072772
#
# Stress axis : x y z
#
# Youngs Moduli (GPa) = 57.30692 88.92958 45.77196
#
# Poissons Ratio (x) = -0.12844 0.32169
# Poissons Ratio (y) = -0.08277 0.19789
# Poissons Ratio (z) = 0.40276 0.38448
#
# Static dielectric constant tensor:
#      x y z
#    x 1.804550 0.000000 0.000000 
#    y 0.000000 1.755230 0.000000 
#    z 0.000000 0.000000 1.737580 
# 
# From -- ./inp_files/11429.got.cif
#   From: 2010.05.17/outbox.cif.g08.bks.cpg/sg20_6_cif.got.tgz:11429.got - 2010.06.03 22:52:26.
