data_PCOD9318168
_publ_section_title
;
Structure prediction by ZEFSAII (Michael W. Deem and Ramdas Pophale) SiO2 
 PCOD9318168
Probable space group: C 2 2 21
;
_chemical_formula_sum "Si O2"
_cell_formula_units_Z 48
_cell_length_a 9.392305
_cell_length_b 10.753227
_cell_length_c 23.092919
_cell_angle_alpha 90.000000
_cell_angle_beta 90.000000
_cell_angle_gamma 90.000000
_cell_volume 2332.329112
_symmetry_space_group_name_H-M "C 2 2 21"
_symmetry_group_IT_number 20
_symmetry_cell_setting 'orthorhombic'
loop_
_space_group_symop_operation_xyz
x,y,z
-x,-y,1/2+z
x,-y,-z
-x,y,1/2-z
1/2+x,1/2+y,z
1/2-x,1/2-y,1/2+z
1/2+x,1/2-y,-z
1/2-x,1/2+y,1/2-z
loop_
_atom_site_type_symbol
_atom_site_label
_atom_site_fract_x
_atom_site_fract_y
_atom_site_fract_z
Si Si1 0.417222 0.500000 0.000000
Si Si2 0.754627 0.215229 0.565700
Si Si3 0.455339 0.350733 0.341221
Si Si4 0.000000 0.936891 0.750000
Si Si5 0.038720 0.735858 0.969674
Si Si6 0.246426 0.638687 0.176366
Si Si7 0.750239 0.891948 0.110653
O O1 0.508635 0.617427 0.022136
O O2 0.321050 0.453594 0.053485
O O3 0.857721 0.125053 0.601854
O O4 0.860337 0.292617 0.524590
O O5 0.617210 0.172195 0.530322
O O6 0.691291 0.299394 0.617527
O O7 0.453960 0.470922 0.301486
O O8 0.384016 0.230950 0.311268
O O9 0.616228 0.322937 0.360018
O O10 0.865014 0.863292 0.774370
O O11 0.124550 0.693858 0.913020
O O12 0.204838 0.500116 0.155673
#
# Coordination Sequence:
#
# PCOD9318168 Si02
#       7
#     4   8   8   4   8   8   8
#     4  12  18  36  58  82 126 168 196 240 298 366
#     4  10  20  38  62  93 128 153 214 235 308 376
#     4   9  20  42  60  91 117 155 208 257 295 376
#     4  10  20  40  72  80 120 164 204 260 326 330
#     4  12  21  36  62  94 123 171 190 251 297 382
#     4   9  20  41  62  88 119 163 198 263 299 364
#     4  11  20  38  61  84 127 161 197 243 311 353
#
# _framework density 20.580286999999998
#
# number of rings (size 3 to 8) (size 9 to 14) (size 15 to 20)
#    1.000    0.667    5.000    0.000    0.000    0.000 
#    9.000    1.667    0.000    0.000    0.000    0.000 
#    0.000    0.000    0.000    0.000    0.000    0.000 
#
# Total GULP energy -133641.599621 kJ/mol
# GULP energy per Si atom -5568.399984 kJ/mol
# Density = 2.053345 g / cm^3
# Si number density = 20.580287 Si / 1000 Ang^3
#
#
#
# Elastic Constant Matrix: (Units=GPa)
#
#
# Indices 1 2 3 4 5 6 
#
# 1 98.8651 16.0066 13.2546 0.0000 0.0000 0.0000
# 2 16.0066 43.9647 -20.3134 0.0000 0.0000 0.0000
# 3 13.2546 -20.3134 32.8910 0.0000 0.0000 0.0000
# 4 0.0000 0.0000 0.0000 25.1605 0.0000 0.0000
# 5 0.0000 0.0000 0.0000 0.0000 36.5277 0.0000
# 6 0.0000 0.0000 0.0000 0.0000 0.0000 28.6647
#
#
#
# Elastic Compliance Matrix: (Units=1/GPa)
#
#
# Indices 1 2 3 4 5 6 
#
# 1 0.013352 -0.010281 -0.011730 0.000000 0.000000 0.000000
# 2 -0.010281 0.039744 0.028689 0.000000 0.000000 0.000000
# 3 -0.011730 0.028689 0.052849 0.000000 0.000000 0.000000
# 4 0.000000 0.000000 0.000000 0.039745 0.000000 0.000000
# 5 0.000000 0.000000 0.000000 0.000000 0.027376 0.000000
# 6 0.000000 0.000000 0.000000 0.000000 0.000000 0.034886
#
#
# Mechanical properties :
#
#
# Convention : Reuss Voigt Hill
#
# Bulk Modulus (GPa) = 8.38223 21.51291 14.94757
# Shear Modulus (GPa) = 21.33443 29.18877 25.26160
#
# Velocity S-wave (km/s) = 3.22319 3.77010 3.50732
# Velocity P-wave (km/s) = 4.23482 5.42470 4.86627
#
# Compressibility (1/GPa) = 0.11930001
#
# Stress axis : x y z
#
# Youngs Moduli (GPa) = 74.89559 25.16110 18.92198
#
# Poissons Ratio (x) = 0.25868 0.22196
# Poissons Ratio (y) = 0.76999 -0.54285
# Poissons Ratio (z) = 0.87853 -0.72184
#
# Static dielectric constant tensor:
#      x y z
#    x 1.756410 0.000000 0.000000 
#    y 0.000000 1.753000 0.000000 
#    z 0.000000 0.000000 1.785650 
# 
# From -- ./inp_files/31009.got.cif
#   From: 2010.05.17/outbox.cif.g08.bks.cpg/sg20_16_cif.got.tgz:31009.got - 2010.06.03 22:52:26.
