data_PCOD9318914
_publ_section_title
;
Structure prediction by ZEFSAII (Michael W. Deem and Ramdas Pophale) SiO2 
 PCOD9318914
Probable space group: C 2 2 21
;
_chemical_formula_sum "Si O2"
_cell_formula_units_Z 48
_cell_length_a 30.153512
_cell_length_b 8.497959
_cell_length_c 9.058071
_cell_angle_alpha 90.000000
_cell_angle_beta 90.000000
_cell_angle_gamma 90.000000
_cell_volume 2321.070083
_symmetry_space_group_name_H-M "C 2 2 21"
_symmetry_group_IT_number 20
_symmetry_cell_setting 'orthorhombic'
loop_
_space_group_symop_operation_xyz
x,y,z
-x,-y,1/2+z
x,-y,-z
-x,y,1/2-z
1/2+x,1/2+y,z
1/2-x,1/2-y,1/2+z
1/2+x,1/2-y,-z
1/2-x,1/2+y,1/2-z
loop_
_atom_site_type_symbol
_atom_site_label
_atom_site_fract_x
_atom_site_fract_y
_atom_site_fract_z
Si Si1 0.381256 0.885306 0.629253
Si Si2 0.546460 0.671244 0.327430
Si Si3 0.384377 0.371161 0.602606
Si Si4 0.291893 0.950919 0.331939
Si Si5 0.792209 0.923106 0.659976
Si Si6 0.546785 0.289165 0.331025
O O1 0.364578 0.744583 0.521556
O O2 0.339515 0.970140 0.708572
O O3 0.416017 0.809152 0.742695
O O4 0.400467 0.000000 0.500000
O O5 0.500000 0.707125 0.250000
O O6 0.585367 0.721419 0.216843
O O7 0.552312 0.480005 0.325650
O O8 0.547333 0.739657 0.492350
O O9 0.409667 0.500000 0.500000
O O10 0.344423 0.454966 0.690455
O O11 0.248337 0.012291 0.252267
O O12 0.287134 0.000000 0.500000
O O13 0.291021 0.764090 0.321532
O O14 0.785396 0.000000 0.500000
O O15 0.500000 0.255493 0.250000
#
# Coordination Sequence:
#
# PCOD9318914 Si02
#       6
#     8   8   8   8   8   8
#     4  11  22  43  65  90 136 179 223 277 341 407
#     4  10  21  37  67 102 132 168 231 289 342 408
#     4  11  21  40  66  94 127 177 228 279 340 398
#     4  11  23  44  66  95 130 174 221 274 331 400
#     4  11  24  43  69  97 129 171 222 271 336 400
#     4  10  21  40  65  99 134 176 225 287 347 405
#
# _framework density 20.680119000000001
#
# number of rings (size 3 to 8) (size 9 to 14) (size 15 to 20)
#    0.000    1.333    5.000    2.000    4.667    0.000 
#    9.000    3.333    0.000    0.000    0.000    0.000 
#    0.000    0.000    0.000    0.000    0.000    0.000 
#
# Total GULP energy -133722.565139 kJ/mol
# GULP energy per Si atom -5571.773547 kJ/mol
# Density = 2.063305 g / cm^3
# Si number density = 20.680119 Si / 1000 Ang^3
#
#
#
# Elastic Constant Matrix: (Units=GPa)
#
#
# Indices 1 2 3 4 5 6 
#
# 1 163.5583 42.2140 92.2974 0.0000 0.0000 0.0000
# 2 42.2140 70.5227 30.0061 0.0000 0.0000 0.0000
# 3 92.2974 30.0061 116.2659 0.0000 0.0000 0.0000
# 4 0.0000 0.0000 0.0000 32.2974 0.0000 0.0000
# 5 0.0000 0.0000 0.0000 0.0000 43.5489 0.0000
# 6 0.0000 0.0000 0.0000 0.0000 0.0000 42.7182
#
#
#
# Elastic Compliance Matrix: (Units=1/GPa)
#
#
# Indices 1 2 3 4 5 6 
#
# 1 0.011779 -0.003451 -0.008460 0.000000 0.000000 0.000000
# 2 -0.003451 0.016940 -0.001632 0.000000 0.000000 0.000000
# 3 -0.008460 -0.001632 0.015738 0.000000 0.000000 0.000000
# 4 0.000000 0.000000 0.000000 0.030962 0.000000 0.000000
# 5 0.000000 0.000000 0.000000 0.000000 0.022963 0.000000
# 6 0.000000 0.000000 0.000000 0.000000 0.000000 0.023409
#
#
# Mechanical properties :
#
#
# Convention : Reuss Voigt Hill
#
# Bulk Modulus (GPa) = 57.56904 75.48688 66.52796
# Shear Modulus (GPa) = 32.32737 36.10151 34.21444
#
# Velocity S-wave (km/s) = 3.95803 4.18270 4.07192
# Velocity P-wave (km/s) = 6.98472 7.74003 7.37206
#
# Compressibility (1/GPa) = 0.01737045
#
# Stress axis : x y z
#
# Youngs Moduli (GPa) = 84.89896 59.03142 63.54019
#
# Poissons Ratio (x) = 0.20372 0.53754
# Poissons Ratio (y) = 0.29299 0.10372
# Poissons Ratio (z) = 0.71823 0.09636
#
# Static dielectric constant tensor:
#      x y z
#    x 1.804470 0.000000 0.000000 
#    y 0.000000 1.923150 0.000000 
#    z 0.000000 0.000000 1.713750 
# 
# From -- ./inp_files/11432.got.cif
#   From: 2010.05.17/outbox.cif.g08.bks.cpg/sg20_6_cif.got.tgz:11432.got - 2010.06.03 22:52:26.
