data_PCOD9318700
_publ_section_title
;
Structure prediction by ZEFSAII (Michael W. Deem and Ramdas Pophale) SiO2 
 PCOD9318700
Probable space group: C 2 2 21
;
_chemical_formula_sum "Si O2"
_cell_formula_units_Z 32
_cell_length_a 8.374548
_cell_length_b 11.726116
_cell_length_c 12.387504
_cell_angle_alpha 90.000000
_cell_angle_beta 90.000000
_cell_angle_gamma 90.000000
_cell_volume 1216.464305
_symmetry_space_group_name_H-M "C 2 2 21"
_symmetry_group_IT_number 20
_symmetry_cell_setting 'orthorhombic'
loop_
_space_group_symop_operation_xyz
x,y,z
-x,-y,1/2+z
x,-y,-z
-x,y,1/2-z
1/2+x,1/2+y,z
1/2-x,1/2-y,1/2+z
1/2+x,1/2-y,-z
1/2-x,1/2+y,1/2-z
loop_
_atom_site_type_symbol
_atom_site_label
_atom_site_fract_x
_atom_site_fract_y
_atom_site_fract_z
Si Si1 0.301470 0.758933 0.992739
Si Si2 0.559138 0.363397 0.128219
Si Si3 0.156862 0.885793 0.820370
Si Si4 0.000000 0.537593 0.250000
Si Si5 0.480736 0.000000 0.000000
O O1 0.413566 0.656853 0.955380
O O2 0.171483 0.779062 0.899129
O O3 0.197569 0.772376 0.099903
O O4 0.398814 0.876836 0.987695
O O5 0.500000 0.347697 0.250000
O O6 0.626855 0.491230 0.122428
O O7 0.000000 0.869781 0.750000
O O8 0.330268 0.900694 0.767798
O O9 0.036889 0.485197 0.128215
#
# Coordination Sequence:
#
# PCOD9318700 Si02
#       5
#     8   8   8   4   4
#     4  11  23  47  72 104 154 192 252 325 379 467
#     4  11  25  45  71 111 151 192 267 316 382 487
#     4  10  23  47  75 110 151 199 256 314 390 465
#     4  10  20  44  76 110 148 200 256 316 376 470
#     4  10  22  44  78 102 148 204 250 310 396 448
#
# _framework density 26.305745000000002
#
# number of rings (size 3 to 8) (size 9 to 14) (size 15 to 20)
#    0.000    1.500    5.000    0.000    7.000    6.000 
#    9.000    0.000    0.000    0.000    0.000    0.000 
#    0.000    0.000    0.000    0.000    0.000    0.000 
#
# Total GULP energy -89140.570251 kJ/mol
# GULP energy per Si atom -5571.285641 kJ/mol
# Density = 2.624587 g / cm^3
# Si number density = 26.305745 Si / 1000 Ang^3
#
#
#
# Elastic Constant Matrix: (Units=GPa)
#
#
# Indices 1 2 3 4 5 6 
#
# 1 127.5132 54.0347 39.1446 0.0000 0.0000 0.0000
# 2 54.0347 106.1936 22.9202 0.0000 0.0000 0.0000
# 3 39.1446 22.9202 162.0838 0.0000 0.0000 0.0000
# 4 0.0000 0.0000 0.0000 29.0624 0.0000 0.0000
# 5 0.0000 0.0000 0.0000 0.0000 61.5620 0.0000
# 6 0.0000 0.0000 0.0000 0.0000 0.0000 137.2886
#
#
#
# Elastic Compliance Matrix: (Units=1/GPa)
#
#
# Indices 1 2 3 4 5 6 
#
# 1 0.010503 -0.004948 -0.001837 0.000000 0.000000 0.000000
# 2 -0.004948 0.012044 -0.000508 0.000000 0.000000 0.000000
# 3 -0.001837 -0.000508 0.006685 0.000000 0.000000 0.000000
# 4 0.000000 0.000000 0.000000 0.034409 0.000000 0.000000
# 5 0.000000 0.000000 0.000000 0.000000 0.016244 0.000000
# 6 0.000000 0.000000 0.000000 0.000000 0.000000 0.007284
#
#
# Mechanical properties :
#
#
# Convention : Reuss Voigt Hill
#
# Bulk Modulus (GPa) = 68.27632 69.77661 69.02647
# Shear Modulus (GPa) = 46.88839 64.22867 55.55853
#
# Velocity S-wave (km/s) = 4.22647 4.94664 4.60067
# Velocity P-wave (km/s) = 7.05895 7.69470 7.38367
#
# Compressibility (1/GPa) = 0.01464637
#
# Stress axis : x y z
#
# Youngs Moduli (GPa) = 95.21223 83.02883 149.58555
#
# Poissons Ratio (x) = 0.41080 0.27477
# Poissons Ratio (y) = 0.47108 0.07602
# Poissons Ratio (z) = 0.17489 0.04220
#
# Static dielectric constant tensor:
#      x y z
#    x 2.126680 0.000000 0.000000 
#    y 0.000000 1.987710 0.000000 
#    z 0.000000 0.000000 2.251060 
# 
# From -- ./inp_files/12534.got.cif
#   From: 2010.05.17/outbox.cif.g08.bks.cpg/sg20_7_cif.got.tgz:12534.got - 2010.06.03 22:52:26.
