data_PCOD9318371
_publ_section_title
;
Structure prediction by ZEFSAII (Michael W. Deem and Ramdas Pophale) SiO2 
 PCOD9318371
Probable space group: C 2 2 21
;
_chemical_formula_sum "Si O2"
_cell_formula_units_Z 44
_cell_length_a 12.921189
_cell_length_b 27.333054
_cell_length_c 5.007570
_cell_angle_alpha 90.000000
_cell_angle_beta 90.000000
_cell_angle_gamma 90.000000
_cell_volume 1768.551322
_symmetry_space_group_name_H-M "C 2 2 21"
_symmetry_group_IT_number 20
_symmetry_cell_setting 'orthorhombic'
loop_
_space_group_symop_operation_xyz
x,y,z
-x,-y,1/2+z
x,-y,-z
-x,y,1/2-z
1/2+x,1/2+y,z
1/2-x,1/2-y,1/2+z
1/2+x,1/2-y,-z
1/2-x,1/2+y,1/2-z
loop_
_atom_site_type_symbol
_atom_site_label
_atom_site_fract_x
_atom_site_fract_y
_atom_site_fract_z
Si Si1 0.350922 0.467293 0.728349
Si Si2 0.819402 0.243290 0.039254
Si Si3 0.927433 0.500000 0.500000
Si Si4 0.692346 0.922698 0.324365
Si Si5 0.183627 0.135347 0.414550
Si Si6 0.897387 0.341186 0.913109
O O1 0.408723 0.500000 0.500000
O O2 0.246254 0.452974 0.560601
O O3 0.346452 0.500000 0.000000
O O4 0.380291 0.411185 0.802711
O O5 0.776800 0.248419 0.738660
O O6 0.866371 0.189171 0.072600
O O7 0.886232 0.291635 0.081497
O O8 0.146782 0.457014 0.098251
O O9 0.000000 0.486881 0.750000
O O10 0.776710 0.885595 0.198412
O O11 0.598308 0.889944 0.417296
O O12 0.291373 0.147451 0.255313
O O13 0.000000 0.335832 0.750000
#
# Coordination Sequence:
#
# PCOD9318371 Si02
#       6
#     8   8   4   8   8   8
#     4  11  21  35  56  80 110 147 188 234 283 328
#     4  10  20  40  59  83 106 146 196 242 292 342
#     4  12  32  40  52  72 112 158 202 242 278 318
#     4  11  23  41  53  76 111 152 201 239 278 327
#     4  10  21  35  61  79 109 154 195 240 285 338
#     4  10  23  38  59  83 114 150 197 246 291 343
#
# _framework density 24.879121999999999
#
# number of rings (size 3 to 8) (size 9 to 14) (size 15 to 20)
#    0.000    1.455    3.636    1.091    8.909    0.000 
#    3.273    0.000    0.000    0.000    0.000    0.000 
#    0.000    0.000    6.182    0.545    0.000    0.364 
#
# Total GULP energy -122816.990109 kJ/mol
# GULP energy per Si atom -5582.590460 kJ/mol
# Density = 2.482250 g / cm^3
# Si number density = 24.879122 Si / 1000 Ang^3
#
#
#
# Elastic Constant Matrix: (Units=GPa)
#
#
# Indices 1 2 3 4 5 6 
#
# 1 53.2386 14.0536 11.1329 0.0000 0.0000 0.0000
# 2 14.0536 233.5840 47.1924 0.0000 0.0000 0.0000
# 3 11.1329 47.1924 113.5917 0.0000 0.0000 0.0000
# 4 0.0000 0.0000 0.0000 41.8734 0.0000 0.0000
# 5 0.0000 0.0000 0.0000 0.0000 5.4974 0.0000
# 6 0.0000 0.0000 0.0000 0.0000 0.0000 -14.0236
#
#
#
# Elastic Compliance Matrix: (Units=1/GPa)
#
#
# Indices 1 2 3 4 5 6 
#
# 1 0.019330 -0.000852 -0.001541 0.000000 0.000000 0.000000
# 2 -0.000852 0.004711 -0.001874 0.000000 0.000000 0.000000
# 3 -0.001541 -0.001874 0.009733 0.000000 0.000000 0.000000
# 4 0.000000 0.000000 0.000000 0.023882 0.000000 0.000000
# 5 0.000000 0.000000 0.000000 0.000000 0.181905 0.000000
# 6 0.000000 0.000000 0.000000 0.000000 0.000000 -0.071308
#
#
# Mechanical properties :
#
#
# Convention : Reuss Voigt Hill
#
# Bulk Modulus (GPa) = 39.61660 60.57469 50.09565
# Shear Modulus (GPa) = 26.99797 28.53845 27.76821
#
# Velocity S-wave (km/s) = 3.29776 3.39054 3.34447
# Velocity P-wave (km/s) = 5.51892 6.30302 5.92396
#
# Compressibility (1/GPa) = 0.02524194
#
# Stress axis : x y z
#
# Youngs Moduli (GPa) = 51.73210 212.27291 102.74427
#
# Poissons Ratio (x) = 0.18080 0.15830
# Poissons Ratio (y) = 0.04406 0.19251
# Poissons Ratio (z) = 0.07970 0.39774
#
# Static dielectric constant tensor:
#      x y z
#    x 1.972910 0.000000 0.000000 
#    y 0.000000 2.040320 0.000000 
#    z 0.000000 0.000000 2.057380 
# 
# From -- ./inp_files/2688.got.cif
#   From: 2010.05.17/outbox.cif.g08.bks.cpg/sg20_2_cif.got.tgz:2688.got - 2010.06.03 22:52:26.
