data_PCOD9318869
_publ_section_title
;
Structure prediction by ZEFSAII (Michael W. Deem and Ramdas Pophale) SiO2 
 PCOD9318869
Probable space group: C 2 2 21
;
_chemical_formula_sum "Si O2"
_cell_formula_units_Z 48
_cell_length_a 5.493936
_cell_length_b 23.888138
_cell_length_c 17.476703
_cell_angle_alpha 90.000000
_cell_angle_beta 90.000000
_cell_angle_gamma 90.000000
_cell_volume 2293.640777
_symmetry_space_group_name_H-M "C 2 2 21"
_symmetry_group_IT_number 20
_symmetry_cell_setting 'orthorhombic'
loop_
_space_group_symop_operation_xyz
x,y,z
-x,-y,1/2+z
x,-y,-z
-x,y,1/2-z
1/2+x,1/2+y,z
1/2-x,1/2-y,1/2+z
1/2+x,1/2-y,-z
1/2-x,1/2+y,1/2-z
loop_
_atom_site_type_symbol
_atom_site_label
_atom_site_fract_x
_atom_site_fract_y
_atom_site_fract_z
Si Si1 0.248323 0.345245 0.295134
Si Si2 0.729605 0.624018 0.425906
Si Si3 0.253111 0.288829 0.795349
Si Si4 0.528694 0.588934 0.928959
Si Si5 0.890660 0.458627 0.948702
Si Si6 0.508364 0.483785 0.840420
O O1 0.500000 0.357837 0.250000
O O2 0.241891 0.278160 0.305332
O O3 0.291244 0.375661 0.375605
O O4 0.000000 0.361321 0.250000
O O5 0.726091 0.679250 0.375747
O O6 0.632767 0.626023 0.513195
O O7 0.606648 0.572212 0.377913
O O8 0.001225 0.601422 0.432046
O O9 0.500000 0.304657 0.750000
O O10 0.000000 0.302942 0.750000
O O11 0.403372 0.541836 0.875032
O O12 0.682631 0.553674 0.989669
O O13 0.787683 0.482816 0.870246
O O14 0.058959 0.500000 0.000000
O O15 0.500000 0.482523 0.750000
#
# Coordination Sequence:
#
# PCOD9318869 Si02
#       6
#     8   8   8   8   8   8
#     4  10  23  46  68  94 129 173 220 273 326 386
#     4  11  22  37  63  90 130 171 211 272 328 396
#     4  10  24  44  68  95 130 173 221 273 326 389
#     4  10  22  40  61  91 129 169 216 272 331 394
#     4   9  20  37  55  88 126 166 210 268 330 393
#     4  10  21  37  59  90 125 167 222 266 329 396
#
# _framework density 20.927424999999999
#
# number of rings (size 3 to 8) (size 9 to 14) (size 15 to 20)
#    0.000    2.000    0.000    3.500    9.333    0.000 
#    9.000    0.000    0.000    0.000    0.000    0.000 
#    0.000    0.000    0.000    0.000    0.000    0.000 
#
# Total GULP energy -133672.620812 kJ/mol
# GULP energy per Si atom -5569.692534 kJ/mol
# Density = 2.087979 g / cm^3
# Si number density = 20.927425 Si / 1000 Ang^3
#
#
#
# Elastic Constant Matrix: (Units=GPa)
#
#
# Indices 1 2 3 4 5 6 
#
# 1 85.5193 27.4553 56.6202 0.0000 0.0000 0.0000
# 2 27.4553 48.3807 48.5205 0.0000 0.0000 0.0000
# 3 56.6202 48.5205 170.6178 0.0000 0.0000 0.0000
# 4 0.0000 0.0000 0.0000 43.9647 0.0000 0.0000
# 5 0.0000 0.0000 0.0000 0.0000 24.7519 0.0000
# 6 0.0000 0.0000 0.0000 0.0000 0.0000 18.2028
#
#
#
# Elastic Compliance Matrix: (Units=1/GPa)
#
#
# Indices 1 2 3 4 5 6 
#
# 1 0.015872 -0.005211 -0.003785 0.000000 0.000000 0.000000
# 2 -0.005211 0.030627 -0.006980 0.000000 0.000000 0.000000
# 3 -0.003785 -0.006980 0.009102 0.000000 0.000000 0.000000
# 4 0.000000 0.000000 0.000000 0.022746 0.000000 0.000000
# 5 0.000000 0.000000 0.000000 0.000000 0.040401 0.000000
# 6 0.000000 0.000000 0.000000 0.000000 0.000000 0.054937
#
#
# Mechanical properties :
#
#
# Convention : Reuss Voigt Hill
#
# Bulk Modulus (GPa) = 42.28657 63.30109 52.79383
# Shear Modulus (GPa) = 23.41680 28.84533 26.13107
#
# Velocity S-wave (km/s) = 3.34870 3.71664 3.53746
# Velocity P-wave (km/s) = 5.93312 6.98079 6.47817
#
# Compressibility (1/GPa) = 0.02364817
#
# Stress axis : x y z
#
# Youngs Moduli (GPa) = 63.00218 32.65069 109.86140
#
# Poissons Ratio (x) = 0.17014 0.41587
# Poissons Ratio (y) = 0.32831 0.76689
# Poissons Ratio (z) = 0.23849 0.22792
#
# Static dielectric constant tensor:
#      x y z
#    x 1.919250 0.000000 0.000000 
#    y 0.000000 1.799870 0.000000 
#    z 0.000000 0.000000 1.751960 
# 
# From -- ./inp_files/17805.got.cif
#   From: 2010.05.17/outbox.cif.g08.bks.cpg/sg20_9_cif.got.tgz:17805.got - 2010.06.03 22:52:26.
