data_PCOD9318644
_publ_section_title
;
Structure prediction by ZEFSAII (Michael W. Deem and Ramdas Pophale) SiO2 
 PCOD9318644
Probable space group: C 2 2 21
;
_chemical_formula_sum "Si O2"
_cell_formula_units_Z 44
_cell_length_a 9.097073
_cell_length_b 11.780179
_cell_length_c 16.307120
_cell_angle_alpha 90.000000
_cell_angle_beta 90.000000
_cell_angle_gamma 90.000000
_cell_volume 1747.554933
_symmetry_space_group_name_H-M "C 2 2 21"
_symmetry_group_IT_number 20
_symmetry_cell_setting 'orthorhombic'
loop_
_space_group_symop_operation_xyz
x,y,z
-x,-y,1/2+z
x,-y,-z
-x,y,1/2-z
1/2+x,1/2+y,z
1/2-x,1/2-y,1/2+z
1/2+x,1/2-y,-z
1/2-x,1/2+y,1/2-z
loop_
_atom_site_type_symbol
_atom_site_label
_atom_site_fract_x
_atom_site_fract_y
_atom_site_fract_z
Si Si1 0.271775 0.691057 0.929696
Si Si2 0.670859 0.345545 0.242624
Si Si3 0.564123 0.000000 0.000000
Si Si4 0.894957 0.804148 0.822963
Si Si5 0.917219 0.540158 0.833766
Si Si6 0.456501 0.375703 0.526524
O O1 0.267546 0.656713 0.834656
O O2 0.948559 0.675961 0.846929
O O3 0.188233 0.808339 0.947070
O O4 0.441289 0.686327 0.958871
O O5 0.500000 0.353295 0.250000
O O6 0.730090 0.227018 0.203151
O O7 0.745643 0.447786 0.191178
O O8 0.673151 0.102853 0.980236
O O9 0.467245 0.017579 0.082543
O O10 0.929000 0.883730 0.897889
O O11 0.000000 0.840853 0.750000
O O12 0.000000 0.504335 0.750000
O O13 0.414973 0.500000 0.500000
#
# Coordination Sequence:
#
# PCOD9318644 Si02
#       6
#     8   8   4   8   8   8
#     4  12  25  48  77 121 163 210 284 340 410 503
#     4  10  20  42  79 117 157 217 280 345 400 496
#     4  12  18  44  84 112 162 226 270 354 424 474
#     4   9  17  43  75 104 148 209 266 335 399 486
#     4   9  17  36  74 113 152 222 275 339 412 496
#     4  12  26  47  80 114 161 209 266 340 413 484
#
# _framework density 25.178032999999999
#
# number of rings (size 3 to 8) (size 9 to 14) (size 15 to 20)
#    1.091    0.364    6.364    0.000    2.545    0.000 
#    1.636    1.818    8.000    0.000    0.000    0.000 
#    0.000    0.000    0.000    0.000    0.000    0.000 
#
# Total GULP energy -123047.648264 kJ/mol
# GULP energy per Si atom -5593.074921 kJ/mol
# Density = 2.512073 g / cm^3
# Si number density = 25.178033 Si / 1000 Ang^3
#
#
#
# Elastic Constant Matrix: (Units=GPa)
#
#
# Indices 1 2 3 4 5 6 
#
# 1 156.9129 46.6360 24.6365 0.0000 0.0000 0.0000
# 2 46.6360 87.2041 50.5889 0.0000 0.0000 0.0000
# 3 24.6365 50.5889 133.2104 0.0000 0.0000 0.0000
# 4 0.0000 0.0000 0.0000 17.6291 0.0000 0.0000
# 5 0.0000 0.0000 0.0000 0.0000 -2.6588 0.0000
# 6 0.0000 0.0000 0.0000 0.0000 0.0000 15.6955
#
#
#
# Elastic Compliance Matrix: (Units=1/GPa)
#
#
# Indices 1 2 3 4 5 6 
#
# 1 0.007581 -0.004156 0.000176 0.000000 0.000000 0.000000
# 2 -0.004156 0.016987 -0.005682 0.000000 0.000000 0.000000
# 3 0.000176 -0.005682 0.009632 0.000000 0.000000 0.000000
# 4 0.000000 0.000000 0.000000 0.056724 0.000000 0.000000
# 5 0.000000 0.000000 0.000000 0.000000 -0.376113 0.000000
# 6 0.000000 0.000000 0.000000 0.000000 0.000000 0.063713
#
#
# Mechanical properties :
#
#
# Convention : Reuss Voigt Hill
#
# Bulk Modulus (GPa) = 67.22677 69.00556 68.11617
# Shear Modulus (GPa) = -25.35578 23.16423 -1.09578
#
# Velocity S-wave (km/s) = -3.17686 3.03647 -0.66042
# Velocity P-wave (km/s) = 3.64718 6.30556 5.15083
#
# Compressibility (1/GPa) = 0.01487503
#
# Stress axis : x y z
#
# Youngs Moduli (GPa) = 131.91613 58.87019 103.81843
#
# Poissons Ratio (x) = 0.24469 -0.01832
# Poissons Ratio (y) = 0.54830 0.58992
# Poissons Ratio (z) = -0.02328 0.33451
#
# Static dielectric constant tensor:
#      x y z
#    x 2.024070 0.000000 0.000000 
#    y 0.000000 2.021800 0.000000 
#    z 0.000000 0.000000 2.002070 
# 
# From -- ./inp_files/23627.got.cif
#   From: 2010.05.17/outbox.cif.g08.bks.cpg/sg20_12_cif.got.tgz:23627.got - 2010.06.03 22:52:26.
