data_PCOD9318740
_publ_section_title
;
Structure prediction by ZEFSAII (Michael W. Deem and Ramdas Pophale) SiO2 
 PCOD9318740
Probable space group: C 2 2 21
;
_chemical_formula_sum "Si O2"
_cell_formula_units_Z 60
_cell_length_a 12.373555
_cell_length_b 20.104834
_cell_length_c 13.102011
_cell_angle_alpha 90.000000
_cell_angle_beta 90.000000
_cell_angle_gamma 90.000000
_cell_volume 3259.364600
_symmetry_space_group_name_H-M "C 2 2 21"
_symmetry_group_IT_number 20
_symmetry_cell_setting 'orthorhombic'
loop_
_space_group_symop_operation_xyz
x,y,z
-x,-y,1/2+z
x,-y,-z
-x,y,1/2-z
1/2+x,1/2+y,z
1/2-x,1/2-y,1/2+z
1/2+x,1/2-y,-z
1/2-x,1/2+y,1/2-z
loop_
_atom_site_type_symbol
_atom_site_label
_atom_site_fract_x
_atom_site_fract_y
_atom_site_fract_z
Si Si1 0.000000 0.690594 0.750000
Si Si2 0.153387 0.713305 0.930989
Si Si3 0.129861 0.475161 0.747128
Si Si4 0.394408 0.712515 0.638360
Si Si5 0.880704 0.257369 0.848718
Si Si6 0.209417 0.609112 0.672787
Si Si7 0.886663 0.397525 0.955700
Si Si8 0.132332 0.572277 0.033238
O O1 0.946070 0.723133 0.648508
O O2 0.896340 0.650598 0.792307
O O3 0.263250 0.732176 0.875730
O O4 0.142000 0.759688 0.029959
O O5 0.166535 0.637596 0.971731
O O6 0.199269 0.542551 0.740065
O O7 0.152799 0.436141 0.643509
O O8 0.150705 0.429363 0.845259
O O9 0.000000 0.491681 0.750000
O O10 0.382486 0.768673 0.726792
O O11 0.523707 0.704015 0.632423
O O12 0.319146 0.651972 0.675319
O O13 0.903585 0.321723 0.917960
O O14 0.188753 0.594788 0.553175
O O15 0.003343 0.426104 0.984582
O O16 0.174557 0.500000 0.000000
#
# Coordination Sequence:
#
# PCOD9318740 Si02
#       8
#     4   8   8   8   8   8   8   8
#     4  12  22  36  58  92 120 156 208 248 314 364
#     4  12  23  40  61  91 127 164 206 266 311 378
#     4  10  21  33  55  91 126 153 194 256 321 371
#     4  11  24  38  59  87 123 171 203 255 309 372
#     4  11  23  39  59  89 126 162 215 247 316 376
#     4  12  20  37  58  87 125 157 206 250 308 376
#     4  11  20  34  56  88 122 156 193 258 312 373
#     4  11  21  35  59  88 126 154 194 254 322 370
#
# _framework density 18.408496
#
# number of rings (size 3 to 8) (size 9 to 14) (size 15 to 20)
#    0.000    0.800    6.000    3.600    3.733    0.000 
#    0.000    0.000    0.000    1.600    0.000    0.000 
#    0.000    0.000    0.000    0.000    0.000    0.000 
#
# Total GULP energy -167258.761375 kJ/mol
# GULP energy per Si atom -5575.292046 kJ/mol
# Density = 1.836660 g / cm^3
# Si number density = 18.408496 Si / 1000 Ang^3
#
#
#
# Elastic Constant Matrix: (Units=GPa)
#
#
# Indices 1 2 3 4 5 6 
#
# 1 84.4995 23.6804 16.2558 0.0000 0.0000 0.0000
# 2 23.6804 61.9936 11.6888 0.0000 0.0000 0.0000
# 3 16.2558 11.6888 91.0779 0.0000 0.0000 0.0000
# 4 0.0000 0.0000 0.0000 30.6513 0.0000 0.0000
# 5 0.0000 0.0000 0.0000 0.0000 20.6912 0.0000
# 6 0.0000 0.0000 0.0000 0.0000 0.0000 74.0951
#
#
#
# Elastic Compliance Matrix: (Units=1/GPa)
#
#
# Indices 1 2 3 4 5 6 
#
# 1 0.013534 -0.004831 -0.001796 0.000000 0.000000 0.000000
# 2 -0.004831 0.018255 -0.001481 0.000000 0.000000 0.000000
# 3 -0.001796 -0.001481 0.011490 0.000000 0.000000 0.000000
# 4 0.000000 0.000000 0.000000 0.032625 0.000000 0.000000
# 5 0.000000 0.000000 0.000000 0.000000 0.048330 0.000000
# 6 0.000000 0.000000 0.000000 0.000000 0.000000 0.013496
#
#
# Mechanical properties :
#
#
# Convention : Reuss Voigt Hill
#
# Bulk Modulus (GPa) = 36.94855 37.86902 37.40879
# Shear Modulus (GPa) = 30.68126 37.48391 34.08258
#
# Velocity S-wave (km/s) = 4.08694 4.51735 4.30753
# Velocity P-wave (km/s) = 6.51044 6.91555 6.71605
#
# Compressibility (1/GPa) = 0.02706466
#
# Stress axis : x y z
#
# Youngs Moduli (GPa) = 73.88975 54.77875 87.03150
#
# Poissons Ratio (x) = 0.26464 0.15627
# Poissons Ratio (y) = 0.35697 0.12886
# Poissons Ratio (z) = 0.13267 0.08111
#
# Static dielectric constant tensor:
#      x y z
#    x 1.613920 0.000000 0.000000 
#    y 0.000000 1.665040 0.000000 
#    z 0.000000 0.000000 1.704380 
# 
# From -- ./inp_files/20344.got.cif
#   From: 2010.05.17/outbox.cif.g08.bks.cpg/sg20_11_cif.got.tgz:20344.got - 2010.06.03 22:52:26.
