data_PCOD9318233
_publ_section_title
;
Structure prediction by ZEFSAII (Michael W. Deem and Ramdas Pophale) SiO2 
 PCOD9318233
Probable space group: C 2 2 21
;
_chemical_formula_sum "Si O2"
_cell_formula_units_Z 56
_cell_length_a 10.973100
_cell_length_b 15.696058
_cell_length_c 13.051252
_cell_angle_alpha 90.000000
_cell_angle_beta 90.000000
_cell_angle_gamma 90.000000
_cell_volume 2247.874741
_symmetry_space_group_name_H-M "C 2 2 21"
_symmetry_group_IT_number 20
_symmetry_cell_setting 'orthorhombic'
loop_
_space_group_symop_operation_xyz
x,y,z
-x,-y,1/2+z
x,-y,-z
-x,y,1/2-z
1/2+x,1/2+y,z
1/2-x,1/2-y,1/2+z
1/2+x,1/2-y,-z
1/2-x,1/2+y,1/2-z
loop_
_atom_site_type_symbol
_atom_site_label
_atom_site_fract_x
_atom_site_fract_y
_atom_site_fract_z
Si Si1 0.694650 0.416353 0.941835
Si Si2 0.425056 0.169353 0.103884
Si Si3 0.527558 0.193552 0.893735
Si Si4 0.427108 0.364540 0.938789
Si Si5 0.192845 0.825856 0.344443
Si Si6 0.462490 0.994497 0.378815
Si Si7 0.303527 0.508013 0.217052
O O1 0.797167 0.345465 0.955886
O O2 0.562027 0.388556 0.977668
O O3 0.683517 0.441943 0.822750
O O4 0.737551 0.500000 0.000000
O O5 0.388361 0.243487 0.180871
O O6 0.457502 0.076789 0.145267
O O7 0.525234 0.192948 0.018870
O O8 0.447199 0.277274 0.873453
O O9 0.663455 0.196750 0.847908
O O10 0.480380 0.099314 0.862595
O O11 0.378097 0.440071 0.868206
O O12 0.343214 0.350243 0.037926
O O13 0.161838 0.908409 0.277123
O O14 0.334632 0.002690 0.322855
O O15 0.438305 0.000000 0.500000
#
# Coordination Sequence:
#
# PCOD9318233 Si02
#       7
#     8   8   8   8   8   8   8
#     4  12  25  41  62  91 132 173 216 275 332 377
#     4  10  20  38  66  95 135 166 214 268 323 382
#     4   9  18  36  67  97 127 167 213 259 320 388
#     4  11  21  38  68  96 131 168 209 272 322 391
#     4  10  20  41  70 100 127 171 217 259 321 401
#     4   9  18  38  69  95 127 172 214 262 318 390
#     4  11  23  40  67  92 127 171 222 264 320 389
#
# _framework density 24.912420000000001
#
# number of rings (size 3 to 8) (size 9 to 14) (size 15 to 20)
#    0.000    1.714    1.429    5.571    0.000    0.571 
#    0.000    4.286   22.000    0.000    0.000    0.000 
#    0.000    0.000    0.000    0.000    0.000    0.000 
#
# Total GULP energy -156676.217148 kJ/mol
# GULP energy per Si atom -5595.579184 kJ/mol
# Density = 2.485572 g / cm^3
# Si number density = 24.912420 Si / 1000 Ang^3
#
#
#
# Elastic Constant Matrix: (Units=GPa)
#
#
# Indices 1 2 3 4 5 6 
#
# 1 62.4165 26.2970 -1.1123 0.0000 0.0000 0.0000
# 2 26.2970 163.7699 -23.8156 0.0000 0.0000 0.0000
# 3 -1.1123 -23.8156 58.2300 0.0000 0.0000 0.0000
# 4 0.0000 0.0000 0.0000 3.2924 0.0000 0.0000
# 5 0.0000 0.0000 0.0000 0.0000 22.4277 0.0000
# 6 0.0000 0.0000 0.0000 0.0000 0.0000 69.3463
#
#
#
# Elastic Compliance Matrix: (Units=1/GPa)
#
#
# Indices 1 2 3 4 5 6 
#
# 1 0.017224 -0.002890 -0.000853 0.000000 0.000000 0.000000
# 2 -0.002890 0.006977 0.002798 0.000000 0.000000 0.000000
# 3 -0.000853 0.002798 0.018301 0.000000 0.000000 0.000000
# 4 0.000000 0.000000 0.000000 0.303730 0.000000 0.000000
# 5 0.000000 0.000000 0.000000 0.000000 0.044588 0.000000
# 6 0.000000 0.000000 0.000000 0.000000 0.000000 0.014420
#
#
# Mechanical properties :
#
#
# Convention : Reuss Voigt Hill
#
# Bulk Modulus (GPa) = 24.62211 31.90608 28.26410
# Shear Modulus (GPa) = 11.88590 37.88309 24.88449
#
# Velocity S-wave (km/s) = 2.18665 3.90378 3.16393
# Velocity P-wave (km/s) = 4.03487 5.75799 4.97165
#
# Compressibility (1/GPa) = 0.04061390
#
# Stress axis : x y z
#
# Youngs Moduli (GPa) = 58.05963 143.32655 54.64033
#
# Poissons Ratio (x) = 0.41417 0.04660
# Poissons Ratio (y) = 0.16777 -0.15290
# Poissons Ratio (z) = 0.04952 -0.40108
#
# Static dielectric constant tensor:
#      x y z
#    x 1.968670 0.000000 0.000000 
#    y 0.000000 2.037100 0.000000 
#    z 0.000000 0.000000 1.912030 
# 
# From -- ./inp_files/20035.got.cif
#   From: 2010.05.17/outbox.cif.g08.bks.cpg/sg20_11_cif.got.tgz:20035.got - 2010.06.03 22:52:26.
