data_PCOD9318519
_publ_section_title
;
Structure prediction by ZEFSAII (Michael W. Deem and Ramdas Pophale) SiO2 
 PCOD9318519
Probable space group: C 2 2 21
;
_chemical_formula_sum "Si O2"
_cell_formula_units_Z 48
_cell_length_a 12.860523
_cell_length_b 13.599836
_cell_length_c 12.980122
_cell_angle_alpha 90.000000
_cell_angle_beta 90.000000
_cell_angle_gamma 90.000000
_cell_volume 2270.236366
_symmetry_space_group_name_H-M "C 2 2 21"
_symmetry_group_IT_number 20
_symmetry_cell_setting 'orthorhombic'
loop_
_space_group_symop_operation_xyz
x,y,z
-x,-y,1/2+z
x,-y,-z
-x,y,1/2-z
1/2+x,1/2+y,z
1/2-x,1/2-y,1/2+z
1/2+x,1/2-y,-z
1/2-x,1/2+y,1/2-z
loop_
_atom_site_type_symbol
_atom_site_label
_atom_site_fract_x
_atom_site_fract_y
_atom_site_fract_z
Si Si1 0.111836 0.286338 0.883912
Si Si2 0.793649 0.887863 0.513324
Si Si3 0.573721 0.258633 0.667170
Si Si4 0.697627 0.615187 0.493829
Si Si5 0.453354 0.112420 0.988959
Si Si6 0.763432 0.249066 0.809549
O O1 0.194221 0.362827 0.934536
O O2 0.140882 0.275500 0.764977
O O3 0.000320 0.326797 0.916457
O O4 0.138401 0.184678 0.943087
O O5 0.671611 0.883767 0.481911
O O6 0.784816 0.841690 0.627617
O O7 0.828180 0.000000 0.500000
O O8 0.500000 0.309252 0.750000
O O9 0.612310 0.329661 0.576450
O O10 0.511388 0.169397 0.613551
O O11 0.673769 0.219089 0.728857
O O12 0.677995 0.500000 0.500000
O O13 0.708124 0.668344 0.604618
O O14 0.484990 0.000000 0.000000
#
# Coordination Sequence:
#
# PCOD9318519 Si02
#       6
#     8   8   8   8   8   8
#     4  10  21  38  65  94 129 170 205 266 326 365
#     4  10  21  41  63  92 130 163 213 267 310 380
#     4  11  22  42  63  90 126 170 208 263 320 378
#     4  10  21  41  60  89 128 165 211 262 314 379
#     4  11  22  43  64  98 129 163 215 265 313 380
#     4  10  20  41  64  87 127 169 208 264 320 373
#
# _framework density 21.143173000000001
#
# number of rings (size 3 to 8) (size 9 to 14) (size 15 to 20)
#    0.000    1.667    5.000    2.500    0.000    3.333 
#    6.000    5.000    0.000    0.000    0.000    0.000 
#    0.000    0.000    0.000    0.000    0.000    0.000 
#
# Total GULP energy -133991.275739 kJ/mol
# GULP energy per Si atom -5582.969822 kJ/mol
# Density = 2.109505 g / cm^3
# Si number density = 21.143173 Si / 1000 Ang^3
#
#
#
# Elastic Constant Matrix: (Units=GPa)
#
#
# Indices 1 2 3 4 5 6 
#
# 1 45.2474 39.3536 36.6708 0.0000 0.0000 0.0000
# 2 39.3536 180.8561 80.1997 0.0000 0.0000 0.0000
# 3 36.6708 80.1997 174.0816 0.0000 0.0000 0.0000
# 4 0.0000 0.0000 0.0000 8.9482 0.0000 0.0000
# 5 0.0000 0.0000 0.0000 0.0000 45.0919 0.0000
# 6 0.0000 0.0000 0.0000 0.0000 0.0000 9.3134
#
#
#
# Elastic Compliance Matrix: (Units=1/GPa)
#
#
# Indices 1 2 3 4 5 6 
#
# 1 0.029397 -0.004588 -0.004079 0.000000 0.000000 0.000000
# 2 -0.004588 0.007665 -0.002565 0.000000 0.000000 0.000000
# 3 -0.004079 -0.002565 0.007785 0.000000 0.000000 0.000000
# 4 0.000000 0.000000 0.000000 0.111754 0.000000 0.000000
# 5 0.000000 0.000000 0.000000 0.000000 0.022177 0.000000
# 6 0.000000 0.000000 0.000000 0.000000 0.000000 0.107372
#
#
# Mechanical properties :
#
#
# Convention : Reuss Voigt Hill
#
# Bulk Modulus (GPa) = 44.67512 79.18150 61.92831
# Shear Modulus (GPa) = 15.81905 28.93477 22.37691
#
# Velocity S-wave (km/s) = 2.73827 3.70336 3.25676
# Velocity P-wave (km/s) = 5.58329 7.47114 6.59512
#
# Compressibility (1/GPa) = 0.02238382
#
# Stress axis : x y z
#
# Youngs Moduli (GPa) = 34.01745 130.46479 128.44790
#
# Poissons Ratio (x) = 0.59855 0.52392
# Poissons Ratio (y) = 0.15607 0.32944
# Poissons Ratio (z) = 0.13875 0.33461
#
# Static dielectric constant tensor:
#      x y z
#    x 1.844300 0.000000 0.000000 
#    y 0.000000 1.746310 0.000000 
#    z 0.000000 0.000000 1.769330 
# 
# From -- ./inp_files/15029.got.cif
#   From: 2010.05.17/outbox.cif.g08.bks.cpg/sg20_8_cif.got.tgz:15029.got - 2010.06.03 22:52:26.
