data_PCOD9318680
_publ_section_title
;
Structure prediction by ZEFSAII (Michael W. Deem and Ramdas Pophale) SiO2 
 PCOD9318680
Probable space group: C 2 2 21
;
_chemical_formula_sum "Si O2"
_cell_formula_units_Z 60
_cell_length_a 6.921986
_cell_length_b 25.895900
_cell_length_c 16.820201
_cell_angle_alpha 90.000000
_cell_angle_beta 90.000000
_cell_angle_gamma 90.000000
_cell_volume 3015.038813
_symmetry_space_group_name_H-M "C 2 2 21"
_symmetry_group_IT_number 20
_symmetry_cell_setting 'orthorhombic'
loop_
_space_group_symop_operation_xyz
x,y,z
-x,-y,1/2+z
x,-y,-z
-x,y,1/2-z
1/2+x,1/2+y,z
1/2-x,1/2-y,1/2+z
1/2+x,1/2-y,-z
1/2-x,1/2+y,1/2-z
loop_
_atom_site_type_symbol
_atom_site_label
_atom_site_fract_x
_atom_site_fract_y
_atom_site_fract_z
Si Si1 0.671577 0.118292 0.086401
Si Si2 0.500000 0.465504 0.250000
Si Si3 0.656497 0.978401 0.817573
Si Si4 0.003405 0.452398 0.454888
Si Si5 0.782588 0.779464 0.387379
Si Si6 0.872353 0.712167 0.068357
Si Si7 0.324043 0.112164 0.815664
Si Si8 0.981212 0.185633 0.158757
O O1 0.632508 0.081278 0.161039
O O2 0.516966 0.163927 0.078282
O O3 0.880130 0.143478 0.101281
O O4 0.635098 0.080565 0.012123
O O5 0.626752 0.505478 0.299875
O O6 0.340839 0.426957 0.286103
O O7 0.500000 0.991256 0.750000
O O8 0.611370 0.014245 0.891790
O O9 0.114204 0.500000 0.500000
O O10 0.115175 0.411512 0.401010
O O11 0.689362 0.783534 0.476002
O O12 0.756760 0.831208 0.336412
O O13 0.664793 0.734197 0.343204
O O14 0.002927 0.761430 0.402675
O O15 0.684135 0.702875 0.121673
O O16 0.500000 0.114351 0.750000
O O17 0.000000 0.167627 0.250000
#
# Coordination Sequence:
#
# PCOD9318680 Si02
#       8
#     8   4   8   8   8   8   8   8
#     4  10  25  41  72  98 133 181 222 284 338 406
#     4  12  24  40  66 104 134 180 222 276 352 400
#     4  11  23  43  67  97 139 175 225 285 332 404
#     4  10  20  44  67  97 138 178 224 281 339 395
#     4  11  24  43  72  99 133 181 222 289 345 405
#     4  11  23  45  69 101 135 173 229 281 344 414
#     4  12  24  45  69 103 139 181 234 294 338 415
#     4  11  26  45  67 104 137 174 229 282 342 420
#
# _framework density 19.900241999999999
#
# number of rings (size 3 to 8) (size 9 to 14) (size 15 to 20)
#    0.000    1.067    5.333    0.400    2.800    4.800 
#    0.000    0.667    0.000    0.000    0.000    0.000 
#    0.000    0.000    0.000    0.000    0.000    0.000 
#
# Total GULP energy -167260.001721 kJ/mol
# GULP energy per Si atom -5575.333391 kJ/mol
# Density = 1.985495 g / cm^3
# Si number density = 19.900242 Si / 1000 Ang^3
#
#
#
# Elastic Constant Matrix: (Units=GPa)
#
#
# Indices 1 2 3 4 5 6 
#
# 1 98.5040 19.2674 39.5053 0.0000 0.0000 0.0000
# 2 19.2674 87.9005 28.2325 0.0000 0.0000 0.0000
# 3 39.5053 28.2325 83.5792 0.0000 0.0000 0.0000
# 4 0.0000 0.0000 0.0000 22.1965 0.0000 0.0000
# 5 0.0000 0.0000 0.0000 0.0000 19.7003 0.0000
# 6 0.0000 0.0000 0.0000 0.0000 0.0000 25.9167
#
#
#
# Elastic Compliance Matrix: (Units=1/GPa)
#
#
# Indices 1 2 3 4 5 6 
#
# 1 0.012597 -0.000952 -0.005633 0.000000 0.000000 0.000000
# 2 -0.000952 0.012833 -0.003885 0.000000 0.000000 0.000000
# 3 -0.005633 -0.003885 0.015939 0.000000 0.000000 0.000000
# 4 0.000000 0.000000 0.000000 0.045052 0.000000 0.000000
# 5 0.000000 0.000000 0.000000 0.000000 0.050761 0.000000
# 6 0.000000 0.000000 0.000000 0.000000 0.000000 0.038585
#
#
# Mechanical properties :
#
#
# Convention : Reuss Voigt Hill
#
# Bulk Modulus (GPa) = 48.94713 49.33267 49.13990
# Shear Modulus (GPa) = 24.56805 25.76129 25.16467
#
# Velocity S-wave (km/s) = 3.51744 3.60185 3.55990
# Velocity P-wave (km/s) = 6.41453 6.49165 6.45321
#
# Compressibility (1/GPa) = 0.02043021
#
# Stress axis : x y z
#
# Youngs Moduli (GPa) = 79.38344 77.92439 62.73782
#
# Poissons Ratio (x) = 0.07419 0.35338
# Poissons Ratio (y) = 0.07558 0.24373
# Poissons Ratio (z) = 0.44714 0.30272
#
# Static dielectric constant tensor:
#      x y z
#    x 1.739710 0.000000 0.000000 
#    y 0.000000 1.732740 0.000000 
#    z 0.000000 0.000000 1.742340 
# 
# From -- ./inp_files/22939.got.cif
#   From: 2010.05.17/outbox.cif.g08.bks.cpg/sg20_12_cif.got.tgz:22939.got - 2010.06.03 22:52:26.
