data_PCOD9318175
_publ_section_title
;
Structure prediction by ZEFSAII (Michael W. Deem and Ramdas Pophale) SiO2 
 PCOD9318175
Probable space group: C 2 2 21
;
_chemical_formula_sum "Si O2"
_cell_formula_units_Z 64
_cell_length_a 8.870233
_cell_length_b 11.498358
_cell_length_c 27.249001
_cell_angle_alpha 90.000000
_cell_angle_beta 90.000000
_cell_angle_gamma 90.000000
_cell_volume 2779.210481
_symmetry_space_group_name_H-M "C 2 2 21"
_symmetry_group_IT_number 20
_symmetry_cell_setting 'orthorhombic'
loop_
_space_group_symop_operation_xyz
x,y,z
-x,-y,1/2+z
x,-y,-z
-x,y,1/2-z
1/2+x,1/2+y,z
1/2-x,1/2-y,1/2+z
1/2+x,1/2-y,-z
1/2-x,1/2+y,1/2-z
loop_
_atom_site_type_symbol
_atom_site_label
_atom_site_fract_x
_atom_site_fract_y
_atom_site_fract_z
Si Si1 0.688646 0.288194 0.370579
Si Si2 0.465668 0.860083 0.696030
Si Si3 0.352207 0.662709 0.147541
Si Si4 0.302711 0.356633 0.542805
Si Si5 0.255531 0.206990 0.938180
Si Si6 0.477907 0.472894 0.403599
Si Si7 0.463308 0.098695 0.658314
Si Si8 0.006614 0.525254 0.550141
O O1 0.562388 0.212884 0.343474
O O2 0.792440 0.216170 0.407551
O O3 0.610452 0.381248 0.405996
O O4 0.796626 0.351962 0.332069
O O5 0.500000 0.813964 0.750000
O O6 0.287630 0.857081 0.683613
O O7 0.516071 0.994945 0.692716
O O8 0.276097 0.678975 0.093505
O O9 0.472916 0.558150 0.141203
O O10 0.430785 0.787544 0.157718
O O11 0.319389 0.290533 0.491572
O O12 0.439423 0.444794 0.551105
O O13 0.146979 0.433214 0.545574
O O14 0.417112 0.152659 0.951012
O O15 0.168797 0.112187 0.903586
O O16 0.447354 0.031448 0.605451
O O17 0.915899 0.500000 0.500000
#
# Coordination Sequence:
#
# PCOD9318175 Si02
#       8
#     8   8   8   8   8   8   8   8
#     4  12  24  42  71  98 138 181 230 285 347 408
#     4  12  28  49  73  99 131 177 234 297 361 416
#     4  11  23  45  71  97 141 179 224 288 347 406
#     4  10  20  38  62  98 142 190 223 270 332 397
#     4   9  20  36  62  97 143 189 222 265 330 398
#     4  11  21  39  66  96 140 183 228 273 335 406
#     4  11  23  44  72  99 134 175 224 290 340 412
#     4   8  16  35  61  91 135 182 218 258 329 395
#
# _framework density 23.028122
#
# number of rings (size 3 to 8) (size 9 to 14) (size 15 to 20)
#    0.000    1.500    5.000    1.125    0.000    3.000 
#    4.500    1.250    0.000    0.000    0.000    0.000 
#    0.000    0.000    0.000    0.000    0.000    0.000 
#
# Total GULP energy -178388.966889 kJ/mol
# GULP energy per Si atom -5574.655215 kJ/mol
# Density = 2.297571 g / cm^3
# Si number density = 23.028122 Si / 1000 Ang^3
#
#
#
# Elastic Constant Matrix: (Units=GPa)
#
#
# Indices 1 2 3 4 5 6 
#
# 1 75.5596 32.8441 14.0323 0.0000 0.0000 0.0000
# 2 32.8441 79.8375 21.3999 0.0000 0.0000 0.0000
# 3 14.0323 21.3999 66.5542 0.0000 0.0000 0.0000
# 4 0.0000 0.0000 0.0000 15.4269 0.0000 0.0000
# 5 0.0000 0.0000 0.0000 0.0000 18.6131 0.0000
# 6 0.0000 0.0000 0.0000 0.0000 0.0000 26.3496
#
#
#
# Elastic Compliance Matrix: (Units=1/GPa)
#
#
# Indices 1 2 3 4 5 6 
#
# 1 0.016234 -0.006304 -0.001396 0.000000 0.000000 0.000000
# 2 -0.006304 0.016155 -0.003865 0.000000 0.000000 0.000000
# 3 -0.001396 -0.003865 0.016562 0.000000 0.000000 0.000000
# 4 0.000000 0.000000 0.000000 0.064822 0.000000 0.000000
# 5 0.000000 0.000000 0.000000 0.000000 0.053726 0.000000
# 6 0.000000 0.000000 0.000000 0.000000 0.000000 0.037951
#
#
# Mechanical properties :
#
#
# Convention : Reuss Voigt Hill
#
# Bulk Modulus (GPa) = 38.72832 39.83378 39.28105
# Shear Modulus (GPa) = 21.08032 22.32292 21.70162
#
# Velocity S-wave (km/s) = 3.02887 3.11686 3.07318
# Velocity P-wave (km/s) = 5.39318 5.50350 5.44862
#
# Compressibility (1/GPa) = 0.02582090
#
# Stress axis : x y z
#
# Youngs Moduli (GPa) = 61.59844 61.90004 60.37754
#
# Poissons Ratio (x) = 0.39024 0.08427
# Poissons Ratio (y) = 0.38834 0.23338
# Poissons Ratio (z) = 0.08597 0.23926
#
# Static dielectric constant tensor:
#      x y z
#    x 1.903750 0.000000 0.000000 
#    y 0.000000 1.930220 0.000000 
#    z 0.000000 0.000000 1.896140 
# 
# From -- ./inp_files/31079.got.cif
#   From: 2010.05.17/outbox.cif.g08.bks.cpg/sg20_16_cif.got.tgz:31079.got - 2010.06.03 22:52:26.
