data_PCOD9318566
_publ_section_title
;
Structure prediction by ZEFSAII (Michael W. Deem and Ramdas Pophale) SiO2 
 PCOD9318566
Probable space group: C 2 2 21
;
_chemical_formula_sum "Si O2"
_cell_formula_units_Z 48
_cell_length_a 11.083887
_cell_length_b 16.352120
_cell_length_c 11.933209
_cell_angle_alpha 90.000000
_cell_angle_beta 90.000000
_cell_angle_gamma 90.000000
_cell_volume 2162.835065
_symmetry_space_group_name_H-M "C 2 2 21"
_symmetry_group_IT_number 20
_symmetry_cell_setting 'orthorhombic'
loop_
_space_group_symop_operation_xyz
x,y,z
-x,-y,1/2+z
x,-y,-z
-x,y,1/2-z
1/2+x,1/2+y,z
1/2-x,1/2-y,1/2+z
1/2+x,1/2-y,-z
1/2-x,1/2+y,1/2-z
loop_
_atom_site_type_symbol
_atom_site_label
_atom_site_fract_x
_atom_site_fract_y
_atom_site_fract_z
Si Si1 0.500000 0.265658 0.750000
Si Si2 0.134200 0.644340 0.147133
Si Si3 0.274311 0.359245 0.632205
Si Si4 0.093658 0.000000 0.000000
Si Si5 0.000000 0.218576 0.750000
Si Si6 0.677934 0.000000 0.000000
Si Si7 0.606803 0.403276 0.391334
Si Si8 0.642285 0.741248 0.456721
O O1 0.390226 0.317404 0.693869
O O2 0.438141 0.220942 0.856834
O O3 0.180697 0.616222 0.269343
O O4 0.246606 0.692709 0.097201
O O5 0.037873 0.716716 0.156195
O O6 0.105593 0.567052 0.070229
O O7 0.324351 0.432428 0.557749
O O8 0.202884 0.298793 0.549004
O O9 0.002693 0.033641 0.903482
O O10 0.105681 0.155641 0.716601
O O11 0.770034 0.049808 0.918116
O O12 0.575541 0.336158 0.486672
#
# Coordination Sequence:
#
# PCOD9318566 Si02
#       8
#     4   8   8   4   4   4   8   8
#     4  10  22  39  66  93 138 180 222 284 356 407
#     4  10  23  39  65  89 135 178 217 279 341 417
#     4  11  22  39  63  99 136 176 221 287 349 412
#     4  11  22  36  63  96 134 164 217 294 339 400
#     4  12  22  39  68  99 122 172 236 270 330 409
#     4   9  22  44  59  92 134 172 213 276 355 404
#     4  10  21  37  65  95 123 168 221 282 332 398
#     4  10  20  42  62  96 130 174 223 277 342 413
#
# _framework density 22.193093000000001
#
# number of rings (size 3 to 8) (size 9 to 14) (size 15 to 20)
#    0.000    1.667    3.333    1.000    4.667    0.000 
#    0.000    0.833    0.000    4.000    0.000    0.000 
#    0.000    0.000    0.000    0.000    0.000    0.000 
#
# Total GULP energy -133788.468742 kJ/mol
# GULP energy per Si atom -5574.519531 kJ/mol
# Density = 2.214258 g / cm^3
# Si number density = 22.193093 Si / 1000 Ang^3
#
#
#
# Elastic Constant Matrix: (Units=GPa)
#
#
# Indices 1 2 3 4 5 6 
#
# 1 37.8154 26.3294 12.4699 0.0000 0.0000 0.0000
# 2 26.3294 105.7924 40.2388 0.0000 0.0000 0.0000
# 3 12.4699 40.2388 71.9244 0.0000 0.0000 0.0000
# 4 0.0000 0.0000 0.0000 47.8430 0.0000 0.0000
# 5 0.0000 0.0000 0.0000 0.0000 36.8980 0.0000
# 6 0.0000 0.0000 0.0000 0.0000 0.0000 7.1408
#
#
#
# Elastic Compliance Matrix: (Units=1/GPa)
#
#
# Indices 1 2 3 4 5 6 
#
# 1 0.032096 -0.007459 -0.001392 0.000000 0.000000 0.000000
# 2 -0.007459 0.013741 -0.006394 0.000000 0.000000 0.000000
# 3 -0.001392 -0.006394 0.017722 0.000000 0.000000 0.000000
# 4 0.000000 0.000000 0.000000 0.020902 0.000000 0.000000
# 5 0.000000 0.000000 0.000000 0.000000 0.027102 0.000000
# 6 0.000000 0.000000 0.000000 0.000000 0.000000 0.140040
#
#
# Mechanical properties :
#
#
# Convention : Reuss Voigt Hill
#
# Bulk Modulus (GPa) = 30.23917 41.51203 35.87560
# Shear Modulus (GPa) = 17.05811 27.47598 22.26704
#
# Velocity S-wave (km/s) = 2.77541 3.52240 3.17098
# Velocity P-wave (km/s) = 4.89138 5.94042 5.44124
#
# Compressibility (1/GPa) = 0.03306969
#
# Stress axis : x y z
#
# Youngs Moduli (GPa) = 31.15613 72.77556 56.42648
#
# Poissons Ratio (x) = 0.54281 0.07854
# Poissons Ratio (y) = 0.23238 0.36081
# Poissons Ratio (z) = 0.04337 0.46535
#
# Static dielectric constant tensor:
#      x y z
#    x 1.832050 0.000000 0.000000 
#    y 0.000000 1.778060 0.000000 
#    z 0.000000 0.000000 2.080010 
# 
# From -- ./inp_files/14205.got.cif
#   From: 2010.05.17/outbox.cif.g08.bks.cpg/sg20_8_cif.got.tgz:14205.got - 2010.06.03 22:52:26.
