data_PCOD9318134
_publ_section_title
;
Structure prediction by ZEFSAII (Michael W. Deem and Ramdas Pophale) SiO2 
 PCOD9318134
Probable space group: C 2 2 21
;
_chemical_formula_sum "Si O2"
_cell_formula_units_Z 40
_cell_length_a 20.055066
_cell_length_b 8.852975
_cell_length_c 11.341476
_cell_angle_alpha 90.000000
_cell_angle_beta 90.000000
_cell_angle_gamma 90.000000
_cell_volume 2013.645016
_symmetry_space_group_name_H-M "C 2 2 21"
_symmetry_group_IT_number 20
_symmetry_cell_setting 'orthorhombic'
loop_
_space_group_symop_operation_xyz
x,y,z
-x,-y,1/2+z
x,-y,-z
-x,y,1/2-z
1/2+x,1/2+y,z
1/2-x,1/2-y,1/2+z
1/2+x,1/2-y,-z
1/2-x,1/2+y,1/2-z
loop_
_atom_site_type_symbol
_atom_site_label
_atom_site_fract_x
_atom_site_fract_y
_atom_site_fract_z
Si Si1 0.864467 0.714950 0.301095
Si Si2 0.783037 0.713280 0.710148
Si Si3 0.500000 0.748885 0.250000
Si Si4 0.610592 0.542816 0.136102
Si Si5 0.319628 0.000000 0.500000
Si Si6 0.608028 0.045137 0.634635
O O1 0.788044 0.740055 0.260071
O O2 0.894514 0.880774 0.302621
O O3 0.861764 0.622775 0.424830
O O4 0.900139 0.606831 0.209339
O O5 0.780175 0.598384 0.598107
O O6 0.827499 0.629756 0.809721
O O7 0.823621 0.862480 0.671311
O O8 0.549443 0.647617 0.172749
O O9 0.454784 0.849729 0.163680
O O10 0.613462 0.500000 0.000000
O O11 0.616706 0.000000 0.500000
#
# Coordination Sequence:
#
# PCOD9318134 Si02
#       6
#     8   8   4   8   4   8
#     4  11  23  38  68  97 128 171 209 257 337 383
#     4  10  22  40  64 101 128 168 207 260 326 395
#     4  10  26  44  62  94 124 170 230 266 312 372
#     4  11  22  42  67  91 129 166 218 267 314 376
#     4  10  20  38  60  92 130 166 204 250 314 396
#     4  10  24  44  64  92 133 170 215 268 319 380
#
# _framework density 19.864476
#
# number of rings (size 3 to 8) (size 9 to 14) (size 15 to 20)
#    0.000    1.600    2.000    2.400    2.800    5.600 
#    3.600    0.000    0.000    0.000    0.000    0.000 
#    0.000    0.000    0.000    0.000    0.000    0.000 
#
# Total GULP energy -111757.806092 kJ/mol
# GULP energy per Si atom -5587.890305 kJ/mol
# Density = 1.981926 g / cm^3
# Si number density = 19.864476 Si / 1000 Ang^3
#
#
#
# Elastic Constant Matrix: (Units=GPa)
#
#
# Indices 1 2 3 4 5 6 
#
# 1 68.8319 43.9802 30.1812 0.0000 0.0000 0.0000
# 2 43.9802 166.0162 59.1454 0.0000 0.0000 0.0000
# 3 30.1812 59.1454 138.8327 0.0000 0.0000 0.0000
# 4 0.0000 0.0000 0.0000 31.0350 0.0000 0.0000
# 5 0.0000 0.0000 0.0000 0.0000 -2.7890 0.0000
# 6 0.0000 0.0000 0.0000 0.0000 0.0000 47.4768
#
#
#
# Elastic Compliance Matrix: (Units=1/GPa)
#
#
# Indices 1 2 3 4 5 6 
#
# 1 0.018053 -0.003990 -0.002225 0.000000 0.000000 0.000000
# 2 -0.003990 0.007983 -0.002534 0.000000 0.000000 0.000000
# 3 -0.002225 -0.002534 0.008766 0.000000 0.000000 0.000000
# 4 0.000000 0.000000 0.000000 0.032222 0.000000 0.000000
# 5 0.000000 0.000000 0.000000 0.000000 -0.358551 0.000000
# 6 0.000000 0.000000 0.000000 0.000000 0.000000 0.021063
#
#
# Mechanical properties :
#
#
# Convention : Reuss Voigt Hill
#
# Bulk Modulus (GPa) = 57.78523 71.14382 64.46452
# Shear Modulus (GPa) = -20.22660 31.16949 5.47145
#
# Velocity S-wave (km/s) = -3.19443 3.96549 1.66144
# Velocity P-wave (km/s) = 3.94297 7.54050 6.01690
#
# Compressibility (1/GPa) = 0.01730546
#
# Stress axis : x y z
#
# Youngs Moduli (GPa) = 55.39238 125.26434 114.07797
#
# Poissons Ratio (x) = 0.49979 0.25380
# Poissons Ratio (y) = 0.22101 0.28903
# Poissons Ratio (z) = 0.12324 0.31737
#
# Static dielectric constant tensor:
#      x y z
#    x 1.676440 0.000000 0.000000 
#    y 0.000000 1.724430 0.000000 
#    z 0.000000 0.000000 1.636690 
# 
# From -- ./inp_files/12758.got.cif
#   From: 2010.05.17/outbox.cif.g08.bks.cpg/sg20_7_cif.got.tgz:12758.got - 2010.06.03 22:52:26.
