data_PCOD9318677
_publ_section_title
;
Structure prediction by ZEFSAII (Michael W. Deem and Ramdas Pophale) SiO2 
 PCOD9318677
Probable space group: C 2 2 21
;
_chemical_formula_sum "Si O2"
_cell_formula_units_Z 40
_cell_length_a 8.873685
_cell_length_b 22.126870
_cell_length_c 8.870120
_cell_angle_alpha 90.000000
_cell_angle_beta 90.000000
_cell_angle_gamma 90.000000
_cell_volume 1741.620338
_symmetry_space_group_name_H-M "C 2 2 21"
_symmetry_group_IT_number 20
_symmetry_cell_setting 'orthorhombic'
loop_
_space_group_symop_operation_xyz
x,y,z
-x,-y,1/2+z
x,-y,-z
-x,y,1/2-z
1/2+x,1/2+y,z
1/2-x,1/2-y,1/2+z
1/2+x,1/2-y,-z
1/2-x,1/2+y,1/2-z
loop_
_atom_site_type_symbol
_atom_site_label
_atom_site_fract_x
_atom_site_fract_y
_atom_site_fract_z
Si Si1 0.179234 0.166397 0.267163
Si Si2 0.752486 0.234242 0.932773
Si Si3 0.822253 0.455032 0.782125
Si Si4 0.500000 0.829355 0.250000
Si Si5 0.500000 0.340946 0.250000
Si Si6 0.750020 0.581491 0.876298
O O1 0.223555 0.215153 0.395417
O O2 0.249274 0.195809 0.115164
O O3 0.248503 0.101114 0.306346
O O4 0.000000 0.160748 0.250000
O O5 0.591495 0.209762 0.872266
O O6 0.884499 0.200059 0.842825
O O7 0.755926 0.522450 0.767342
O O8 0.000000 0.457333 0.750000
O O9 0.787593 0.438538 0.955382
O O10 0.622333 0.872520 0.324150
O O11 0.407459 0.384433 0.360678
#
# Coordination Sequence:
#
# PCOD9318677 Si02
#       6
#     8   8   8   4   4   8
#     4  12  28  44  69 103 142 184 234 289 347 419
#     4  11  26  43  71  98 141 183 233 290 346 413
#     4  11  24  42  69  99 136 180 229 283 343 414
#     4  10  20  44  66  96 134 174 230 278 348 404
#     4  10  24  44  68 100 136 186 226 292 348 414
#     4  10  22  43  69  96 135 178 229 282 345 414
#
# _framework density 22.967117999999999
#
# number of rings (size 3 to 8) (size 9 to 14) (size 15 to 20)
#    0.000    1.200    2.000    2.400   11.200    0.000 
#    0.000    0.000    0.000    0.000    0.000    0.000 
#    0.000    0.000    0.000    0.000    0.000    0.000 
#
# Total GULP energy -111985.379073 kJ/mol
# GULP energy per Si atom -5599.268954 kJ/mol
# Density = 2.291484 g / cm^3
# Si number density = 22.967118 Si / 1000 Ang^3
#
#
#
# Elastic Constant Matrix: (Units=GPa)
#
#
# Indices 1 2 3 4 5 6 
#
# 1 125.0939 53.9327 17.3252 0.0000 0.0000 0.0000
# 2 53.9327 134.7932 11.6300 0.0000 0.0000 0.0000
# 3 17.3252 11.6300 66.5190 0.0000 0.0000 0.0000
# 4 0.0000 0.0000 0.0000 23.9432 0.0000 0.0000
# 5 0.0000 0.0000 0.0000 0.0000 32.0371 0.0000
# 6 0.0000 0.0000 0.0000 0.0000 0.0000 29.8041
#
#
#
# Elastic Compliance Matrix: (Units=1/GPa)
#
#
# Indices 1 2 3 4 5 6 
#
# 1 0.009895 -0.003794 -0.001914 0.000000 0.000000 0.000000
# 2 -0.003794 0.008987 -0.000583 0.000000 0.000000 0.000000
# 3 -0.001914 -0.000583 0.015634 0.000000 0.000000 0.000000
# 4 0.000000 0.000000 0.000000 0.041766 0.000000 0.000000
# 5 0.000000 0.000000 0.000000 0.000000 0.031214 0.000000
# 6 0.000000 0.000000 0.000000 0.000000 0.000000 0.033552
#
#
# Mechanical properties :
#
#
# Convention : Reuss Voigt Hill
#
# Bulk Modulus (GPa) = 45.59170 54.68689 50.13929
# Shear Modulus (GPa) = 31.06741 33.39142 32.22941
#
# Velocity S-wave (km/s) = 3.68188 3.81711 3.75011
# Velocity P-wave (km/s) = 6.16190 6.57950 6.37412
#
# Compressibility (1/GPa) = 0.02193382
#
# Stress axis : x y z
#
# Youngs Moduli (GPa) = 101.06369 111.27089 63.96432
#
# Poissons Ratio (x) = 0.42215 0.12242
# Poissons Ratio (y) = 0.38343 0.03730
# Poissons Ratio (z) = 0.19342 0.06489
#
# Static dielectric constant tensor:
#      x y z
#    x 1.796220 0.000000 0.000000 
#    y 0.000000 1.896590 0.000000 
#    z 0.000000 0.000000 1.898640 
# 
# From -- ./inp_files/6135.got.cif
#   From: 2010.05.17/outbox.cif.g08.bks.cpg/sg20_4_cif.got.tgz:6135.got - 2010.06.03 22:52:26.
