data_PCOD9318246
_publ_section_title
;
Structure prediction by ZEFSAII (Michael W. Deem and Ramdas Pophale) SiO2 
 PCOD9318246
Probable space group: C 2 2 21
;
_chemical_formula_sum "Si O2"
_cell_formula_units_Z 44
_cell_length_a 9.436458
_cell_length_b 12.509119
_cell_length_c 16.055050
_cell_angle_alpha 90.000000
_cell_angle_beta 90.000000
_cell_angle_gamma 90.000000
_cell_volume 1895.166617
_symmetry_space_group_name_H-M "C 2 2 21"
_symmetry_group_IT_number 20
_symmetry_cell_setting 'orthorhombic'
loop_
_space_group_symop_operation_xyz
x,y,z
-x,-y,1/2+z
x,-y,-z
-x,y,1/2-z
1/2+x,1/2+y,z
1/2-x,1/2-y,1/2+z
1/2+x,1/2-y,-z
1/2-x,1/2+y,1/2-z
loop_
_atom_site_type_symbol
_atom_site_label
_atom_site_fract_x
_atom_site_fract_y
_atom_site_fract_z
Si Si1 0.435619 0.732469 0.888171
Si Si2 0.176870 0.500000 0.000000
Si Si3 0.367070 0.549277 0.410947
Si Si4 0.331682 0.765740 0.492402
Si Si5 0.851879 0.991728 0.166394
Si Si6 0.870825 0.454707 0.801466
O O1 0.337341 0.726827 0.972731
O O2 0.370577 0.637117 0.832476
O O3 0.424625 0.841197 0.836118
O O4 0.596751 0.723421 0.922192
O O5 0.104248 0.385551 0.016657
O O6 0.272084 0.519332 0.080564
O O7 0.405061 0.500000 0.500000
O O8 0.365622 0.676650 0.423585
O O9 0.487918 0.526530 0.345024
O O10 0.214559 0.502844 0.382194
O O11 0.755631 0.046232 0.235084
O O12 0.000000 0.507273 0.750000
#
# Coordination Sequence:
#
# PCOD9318246 Si02
#       6
#     8   4   8   8   8   8
#     4  10  22  43  68  98 135 182 238 289 358 414
#     4  10  20  38  68 100 136 174 234 290 356 414
#     4  11  21  44  73 101 130 185 246 281 336 435
#     4  10  20  40  66 101 130 175 232 292 341 415
#     4  11  21  45  71  97 134 189 239 288 350 425
#     4  11  26  43  61 103 148 174 224 296 370 407
#
# _framework density 23.216954999999999
#
# number of rings (size 3 to 8) (size 9 to 14) (size 15 to 20)
#    0.000    1.455    2.727    2.727    0.000    1.455 
#   24.545    7.273    0.000    0.000    0.000    0.000 
#    0.000    0.000    0.000    0.000    0.000    0.000 
#
# Total GULP energy -122522.547251 kJ/mol
# GULP energy per Si atom -5569.206693 kJ/mol
# Density = 2.316411 g / cm^3
# Si number density = 23.216955 Si / 1000 Ang^3
#
#
#
# Elastic Constant Matrix: (Units=GPa)
#
#
# Indices 1 2 3 4 5 6 
#
# 1 95.9242 24.2057 37.4613 0.0000 0.0000 0.0000
# 2 24.2057 55.6813 -6.4403 0.0000 0.0000 0.0000
# 3 37.4613 -6.4403 80.7853 0.0000 0.0000 0.0000
# 4 0.0000 0.0000 0.0000 16.5197 0.0000 0.0000
# 5 0.0000 0.0000 0.0000 0.0000 55.9281 0.0000
# 6 0.0000 0.0000 0.0000 0.0000 0.0000 8.9701
#
#
#
# Elastic Compliance Matrix: (Units=1/GPa)
#
#
# Indices 1 2 3 4 5 6 
#
# 1 0.015349 -0.007566 -0.007721 0.000000 0.000000 0.000000
# 2 -0.007566 0.021856 0.005251 0.000000 0.000000 0.000000
# 3 -0.007721 0.005251 0.016377 0.000000 0.000000 0.000000
# 4 0.000000 0.000000 0.000000 0.060534 0.000000 0.000000
# 5 0.000000 0.000000 0.000000 0.000000 0.017880 0.000000
# 6 0.000000 0.000000 0.000000 0.000000 0.000000 0.111481
#
#
# Mechanical properties :
#
#
# Convention : Reuss Voigt Hill
#
# Bulk Modulus (GPa) = 29.84130 38.09380 33.96755
# Shear Modulus (GPa) = 18.20043 28.09453 23.14748
#
# Velocity S-wave (km/s) = 2.80291 3.48240 3.16097
# Velocity P-wave (km/s) = 4.83283 5.71077 5.29004
#
# Compressibility (1/GPa) = 0.03351061
#
# Stress axis : x y z
#
# Youngs Moduli (GPa) = 65.14980 45.75485 61.06000
#
# Poissons Ratio (x) = 0.34616 0.47143
# Poissons Ratio (y) = 0.49290 -0.32061
# Poissons Ratio (z) = 0.50301 -0.24024
#
# Static dielectric constant tensor:
#      x y z
#    x 1.935250 0.000000 0.000000 
#    y 0.000000 1.917410 0.000000 
#    z 0.000000 0.000000 1.981980 
# 
# From -- ./inp_files/23359.got.cif
#   From: 2010.05.17/outbox.cif.g08.bks.cpg/sg20_12_cif.got.tgz:23359.got - 2010.06.03 22:52:26.
