data_PCOD9318529
_publ_section_title
;
Structure prediction by ZEFSAII (Michael W. Deem and Ramdas Pophale) SiO2 
 PCOD9318529
Probable space group: C 2 2 21
;
_chemical_formula_sum "Si O2"
_cell_formula_units_Z 48
_cell_length_a 9.540537
_cell_length_b 27.842249
_cell_length_c 9.208547
_cell_angle_alpha 90.000000
_cell_angle_beta 90.000000
_cell_angle_gamma 90.000000
_cell_volume 2446.066402
_symmetry_space_group_name_H-M "C 2 2 21"
_symmetry_group_IT_number 20
_symmetry_cell_setting 'orthorhombic'
loop_
_space_group_symop_operation_xyz
x,y,z
-x,-y,1/2+z
x,-y,-z
-x,y,1/2-z
1/2+x,1/2+y,z
1/2-x,1/2-y,1/2+z
1/2+x,1/2-y,-z
1/2-x,1/2+y,1/2-z
loop_
_atom_site_type_symbol
_atom_site_label
_atom_site_fract_x
_atom_site_fract_y
_atom_site_fract_z
Si Si1 0.847844 0.293732 0.824384
Si Si2 0.854923 0.055241 0.951973
Si Si3 0.154702 0.118951 0.270877
Si Si4 0.825089 0.945625 0.507048
Si Si5 0.162963 0.395964 0.280985
Si Si6 0.348295 0.214106 0.822032
O O1 0.767874 0.342954 0.782410
O O2 0.760113 0.251752 0.745034
O O3 0.000000 0.294719 0.750000
O O4 0.853633 0.286137 0.000441
O O5 0.822787 0.096478 0.071373
O O6 0.759092 0.070434 0.818575
O O7 0.023066 0.058108 0.929410
O O8 0.827328 0.000000 0.000000
O O9 0.000000 0.141740 0.250000
O O10 0.150208 0.072175 0.168867
O O11 0.708077 0.911671 0.440588
O O12 0.778119 0.000000 0.500000
O O13 0.193056 0.339463 0.269337
O O14 0.000000 0.403455 0.250000
O O15 0.500000 0.224008 0.750000
#
# Coordination Sequence:
#
# PCOD9318529 Si02
#       6
#     8   8   8   8   8   8
#     4  12  26  44  72  97 129 174 215 276 334 394
#     4  10  22  39  65  95 128 174 223 269 320 381
#     4  10  22  39  64  95 130 167 217 268 325 386
#     4  10  20  41  65  91 127 170 218 271 316 383
#     4  11  24  40  63  94 134 168 211 267 326 389
#     4  11  26  47  67  98 134 169 220 269 333 403
#
# _framework density 19.623343999999999
#
# number of rings (size 3 to 8) (size 9 to 14) (size 15 to 20)
#    0.000    1.333    1.667    3.000    7.000    4.667 
#    0.000    1.667    0.000    0.000    0.000    0.000 
#    0.000    0.000    0.000    0.000    0.000    0.000 
#
# Total GULP energy -133965.340550 kJ/mol
# GULP energy per Si atom -5581.889190 kJ/mol
# Density = 1.957868 g / cm^3
# Si number density = 19.623344 Si / 1000 Ang^3
#
#
#
# Elastic Constant Matrix: (Units=GPa)
#
#
# Indices 1 2 3 4 5 6 
#
# 1 83.2543 69.1565 34.3503 0.0000 0.0000 0.0000
# 2 69.1565 113.4790 22.7455 0.0000 0.0000 0.0000
# 3 34.3503 22.7455 91.0596 0.0000 0.0000 0.0000
# 4 0.0000 0.0000 0.0000 22.8093 0.0000 0.0000
# 5 0.0000 0.0000 0.0000 0.0000 32.8140 0.0000
# 6 0.0000 0.0000 0.0000 0.0000 0.0000 -27.0694
#
#
#
# Elastic Compliance Matrix: (Units=1/GPa)
#
#
# Indices 1 2 3 4 5 6 
#
# 1 0.027582 -0.015499 -0.006533 0.000000 0.000000 0.000000
# 2 -0.015499 0.017986 0.001354 0.000000 0.000000 0.000000
# 3 -0.006533 0.001354 0.013108 0.000000 0.000000 0.000000
# 4 0.000000 0.000000 0.000000 0.043842 0.000000 0.000000
# 5 0.000000 0.000000 0.000000 0.000000 0.030475 0.000000
# 6 0.000000 0.000000 0.000000 0.000000 0.000000 -0.036942
#
#
# Mechanical properties :
#
#
# Convention : Reuss Voigt Hill
#
# Bulk Modulus (GPa) = 57.73882 60.03306 58.88594
# Shear Modulus (GPa) = 34.92081 16.48013 25.70047
#
# Velocity S-wave (km/s) = 4.22305 2.90111 3.62289
# Velocity P-wave (km/s) = 7.29838 6.47156 6.89737
#
# Compressibility (1/GPa) = 0.01731937
#
# Stress axis : x y z
#
# Youngs Moduli (GPa) = 36.25579 55.59726 76.28886
#
# Poissons Ratio (x) = 0.86173 0.49840
# Poissons Ratio (y) = 0.56195 -0.10330
# Poissons Ratio (z) = 0.23686 -0.07528
#
# Static dielectric constant tensor:
#      x y z
#    x 1.673110 0.000000 0.000000 
#    y 0.000000 1.659320 0.000000 
#    z 0.000000 0.000000 1.921730 
# 
# From -- ./inp_files/6488.got.cif
#   From: 2010.05.17/outbox.cif.g08.bks.cpg/sg20_4_cif.got.tgz:6488.got - 2010.06.03 22:52:26.
