data_PCOD9318510
_publ_section_title
;
Structure prediction by ZEFSAII (Michael W. Deem and Ramdas Pophale) SiO2 
 PCOD9318510
Probable space group: C 2 2 21
;
_chemical_formula_sum "Si O2"
_cell_formula_units_Z 60
_cell_length_a 28.192992
_cell_length_b 9.343275
_cell_length_c 11.892507
_cell_angle_alpha 90.000000
_cell_angle_beta 90.000000
_cell_angle_gamma 90.000000
_cell_volume 3132.663273
_symmetry_space_group_name_H-M "C 2 2 21"
_symmetry_group_IT_number 20
_symmetry_cell_setting 'orthorhombic'
loop_
_space_group_symop_operation_xyz
x,y,z
-x,-y,1/2+z
x,-y,-z
-x,y,1/2-z
1/2+x,1/2+y,z
1/2-x,1/2-y,1/2+z
1/2+x,1/2-y,-z
1/2-x,1/2+y,1/2-z
loop_
_atom_site_type_symbol
_atom_site_label
_atom_site_fract_x
_atom_site_fract_y
_atom_site_fract_z
Si Si1 0.049762 0.704069 0.407343
Si Si2 0.000000 0.070958 0.750000
Si Si3 0.360483 0.245016 0.735235
Si Si4 0.586469 0.487669 0.874322
Si Si5 0.639690 0.272164 0.257627
Si Si6 0.542565 0.125913 0.663714
Si Si7 0.303494 0.521635 0.131594
Si Si8 0.192489 0.515289 0.133861
O O1 0.016559 0.823084 0.349590
O O2 0.102595 0.735182 0.357905
O O3 0.043040 0.703857 0.541834
O O4 0.038376 0.543723 0.364331
O O5 0.956685 0.974205 0.711552
O O6 0.378790 0.354107 0.639750
O O7 0.406532 0.161895 0.781310
O O8 0.336094 0.348404 0.826173
O O9 0.322552 0.134048 0.689053
O O10 0.611733 0.632772 0.833958
O O11 0.569089 0.500000 0.000000
O O12 0.679619 0.377623 0.306301
O O13 0.661477 0.136095 0.195483
O O14 0.500000 0.160322 0.750000
O O15 0.247947 0.547984 0.152027
O O16 0.310551 0.500000 0.000000
O O17 0.183789 0.500000 0.000000
#
# Coordination Sequence:
#
# PCOD9318510 Si02
#       8
#     8   4   8   8   8   8   8   8
#     4  10  21  40  58  86 122 159 208 256 307 373
#     4  10  22  38  58  82 118 166 208 248 314 364
#     4  11  23  40  61  93 124 159 209 257 315 370
#     4  10  23  38  58  84 121 161 206 250 310 373
#     4  10  20  41  62  85 125 169 200 262 326 375
#     4  11  23  38  61  90 123 157 213 258 307 366
#     4  10  22  40  64  93 123 163 208 264 325 388
#     4  11  22  39  64  93 125 162 213 263 321 382
#
# _framework density 19.153033000000001
#
# number of rings (size 3 to 8) (size 9 to 14) (size 15 to 20)
#    0.000    1.600    2.000    2.400    2.800    0.000 
#    2.400    1.333    0.000    6.400    0.000    0.000 
#    0.000    0.000    0.000    0.000    0.000    0.000 
#
# Total GULP energy -167535.968839 kJ/mol
# GULP energy per Si atom -5584.532295 kJ/mol
# Density = 1.910944 g / cm^3
# Si number density = 19.153033 Si / 1000 Ang^3
#
#
#
# Elastic Constant Matrix: (Units=GPa)
#
#
# Indices 1 2 3 4 5 6 
#
# 1 79.6376 21.7001 34.4047 0.0000 0.0000 0.0000
# 2 21.7001 73.4383 19.3040 0.0000 0.0000 0.0000
# 3 34.4047 19.3040 93.8785 0.0000 0.0000 0.0000
# 4 0.0000 0.0000 0.0000 8.4423 0.0000 0.0000
# 5 0.0000 0.0000 0.0000 0.0000 22.0822 0.0000
# 6 0.0000 0.0000 0.0000 0.0000 0.0000 56.7841
#
#
#
# Elastic Compliance Matrix: (Units=1/GPa)
#
#
# Indices 1 2 3 4 5 6 
#
# 1 0.015637 -0.003292 -0.005054 0.000000 0.000000 0.000000
# 2 -0.003292 0.015088 -0.001896 0.000000 0.000000 0.000000
# 3 -0.005054 -0.001896 0.012894 0.000000 0.000000 0.000000
# 4 0.000000 0.000000 0.000000 0.118451 0.000000 0.000000
# 5 0.000000 0.000000 0.000000 0.000000 0.045285 0.000000
# 6 0.000000 0.000000 0.000000 0.000000 0.000000 0.017611
#
#
# Mechanical properties :
#
#
# Convention : Reuss Voigt Hill
#
# Bulk Modulus (GPa) = 43.22373 44.19688 43.71031
# Shear Modulus (GPa) = 19.75019 28.89810 24.32415
#
# Velocity S-wave (km/s) = 3.21468 3.88854 3.56756
# Velocity P-wave (km/s) = 6.03286 6.57927 6.31198
#
# Compressibility (1/GPa) = 0.02313544
#
# Stress axis : x y z
#
# Youngs Moduli (GPa) = 63.94979 66.27758 77.55501
#
# Poissons Ratio (x) = 0.21820 0.39195
# Poissons Ratio (y) = 0.21053 0.14704
# Poissons Ratio (z) = 0.32319 0.12566
#
# Static dielectric constant tensor:
#      x y z
#    x 1.652780 0.000000 0.000000 
#    y 0.000000 1.647600 0.000000 
#    z 0.000000 0.000000 1.632520 
# 
# From -- ./inp_files/17085.got.cif
#   From: 2010.05.17/outbox.cif.g08.bks.cpg/sg20_9_cif.got.tgz:17085.got - 2010.06.03 22:52:26.
