data_PCOD9318119
_publ_section_title
;
Structure prediction by ZEFSAII (Michael W. Deem and Ramdas Pophale) SiO2 
 PCOD9318119
Probable space group: C 2 2 21
;
_chemical_formula_sum "Si O2"
_cell_formula_units_Z 32
_cell_length_a 11.799528
_cell_length_b 8.428470
_cell_length_c 12.752516
_cell_angle_alpha 90.000000
_cell_angle_beta 90.000000
_cell_angle_gamma 90.000000
_cell_volume 1268.262810
_symmetry_space_group_name_H-M "C 2 2 21"
_symmetry_group_IT_number 20
_symmetry_cell_setting 'orthorhombic'
loop_
_space_group_symop_operation_xyz
x,y,z
-x,-y,1/2+z
x,-y,-z
-x,y,1/2-z
1/2+x,1/2+y,z
1/2-x,1/2-y,1/2+z
1/2+x,1/2-y,-z
1/2-x,1/2+y,1/2-z
loop_
_atom_site_type_symbol
_atom_site_label
_atom_site_fract_x
_atom_site_fract_y
_atom_site_fract_z
Si Si1 0.079026 0.348913 0.565745
Si Si2 0.844977 0.840556 0.872604
Si Si3 0.930967 0.053892 0.609270
Si Si4 0.790827 0.464296 0.241973
O O1 0.036706 0.500000 0.500000
O O2 0.158317 0.253745 0.482687
O O3 0.982819 0.227509 0.598793
O O4 0.141175 0.414414 0.668315
O O5 0.844365 0.707969 0.779635
O O6 0.962765 0.936160 0.875261
O O7 0.738918 0.957745 0.853146
O O8 0.835652 0.050277 0.695501
O O9 0.876108 0.000000 0.500000
#
# Coordination Sequence:
#
# PCOD9318119 Si02
#       4
#     8   8   8   8
#     4   9  20  39  60  88 121 153 201 252 293 357
#     4  10  21  36  59  88 117 154 200 246 291 355
#     4  10  20  38  60  82 115 154 191 241 301 354
#     4  11  21  39  60  84 121 161 199 247 307 354
#
# _framework density 25.231362000000001
#
# number of rings (size 3 to 8) (size 9 to 14) (size 15 to 20)
#    0.000    2.000    0.000    4.500    0.000    0.000 
#    0.000   26.250    0.000    0.000    0.000    0.000 
#    0.000    0.000    0.000    0.000    0.000    0.000 
#
# Total GULP energy -89612.697500 kJ/mol
# GULP energy per Si atom -5600.793594 kJ/mol
# Density = 2.517393 g / cm^3
# Si number density = 25.231362 Si / 1000 Ang^3
#
#
#
# Elastic Constant Matrix: (Units=GPa)
#
#
# Indices 1 2 3 4 5 6 
#
# 1 68.1813 55.8070 12.9454 0.0000 0.0000 0.0000
# 2 55.8070 152.4114 29.9621 0.0000 0.0000 0.0000
# 3 12.9454 29.9621 38.9700 0.0000 0.0000 0.0000
# 4 0.0000 0.0000 0.0000 45.8750 0.0000 0.0000
# 5 0.0000 0.0000 0.0000 0.0000 35.4063 0.0000
# 6 0.0000 0.0000 0.0000 0.0000 0.0000 39.3974
#
#
#
# Elastic Compliance Matrix: (Units=1/GPa)
#
#
# Indices 1 2 3 4 5 6 
#
# 1 0.020996 -0.007441 -0.001253 0.000000 0.000000 0.000000
# 2 -0.007441 0.010367 -0.005499 0.000000 0.000000 0.000000
# 3 -0.001253 -0.005499 0.030305 0.000000 0.000000 0.000000
# 4 0.000000 0.000000 0.000000 0.021798 0.000000 0.000000
# 5 0.000000 0.000000 0.000000 0.000000 0.028244 0.000000
# 6 0.000000 0.000000 0.000000 0.000000 0.000000 0.025382
#
#
# Mechanical properties :
#
#
# Convention : Reuss Voigt Hill
#
# Bulk Modulus (GPa) = 30.04742 50.77686 40.41214
# Shear Modulus (GPa) = 28.31715 34.85896 31.58805
#
# Velocity S-wave (km/s) = 3.35371 3.72098 3.54211
# Velocity P-wave (km/s) = 5.18952 6.21524 5.72539
#
# Compressibility (1/GPa) = 0.03328073
#
# Stress axis : x y z
#
# Youngs Moduli (GPa) = 47.62916 96.46103 32.99814
#
# Poissons Ratio (x) = 0.71780 0.04135
# Poissons Ratio (y) = 0.35443 0.18145
# Poissons Ratio (z) = 0.05969 0.53041
#
# Static dielectric constant tensor:
#      x y z
#    x 1.919950 0.000000 0.000000 
#    y 0.000000 2.028600 0.000000 
#    z 0.000000 0.000000 2.133300 
# 
# From -- ./inp_files/18169.got.cif
#   From: 2010.05.17/outbox.cif.g08.bks.cpg/sg20_10_cif.got.tgz:18169.got - 2010.06.03 22:52:26.
