data_PCOD9318254
_publ_section_title
;
Structure prediction by ZEFSAII (Michael W. Deem and Ramdas Pophale) SiO2 
 PCOD9318254
Probable space group: C 2 2 21
;
_chemical_formula_sum "Si O2"
_cell_formula_units_Z 56
_cell_length_a 22.125896
_cell_length_b 8.776565
_cell_length_c 13.559274
_cell_angle_alpha 90.000000
_cell_angle_beta 90.000000
_cell_angle_gamma 90.000000
_cell_volume 2633.066800
_symmetry_space_group_name_H-M "C 2 2 21"
_symmetry_group_IT_number 20
_symmetry_cell_setting 'orthorhombic'
loop_
_space_group_symop_operation_xyz
x,y,z
-x,-y,1/2+z
x,-y,-z
-x,y,1/2-z
1/2+x,1/2+y,z
1/2-x,1/2-y,1/2+z
1/2+x,1/2-y,-z
1/2-x,1/2+y,1/2-z
loop_
_atom_site_type_symbol
_atom_site_label
_atom_site_fract_x
_atom_site_fract_y
_atom_site_fract_z
Si Si1 0.845928 0.259610 0.612187
Si Si2 0.046575 0.249062 0.335948
Si Si3 0.941123 0.678965 0.530194
Si Si4 0.338798 0.396083 0.905368
Si Si5 0.238623 0.677611 0.481004
Si Si6 0.867891 0.582326 0.714255
Si Si7 0.268960 0.362010 0.213845
O O1 0.908890 0.225678 0.556512
O O2 0.796657 0.268866 0.523997
O O3 0.858414 0.416346 0.669063
O O4 0.813912 0.155917 0.694280
O O5 0.099969 0.128658 0.346761
O O6 0.082553 0.401174 0.300358
O O7 0.000000 0.208341 0.250000
O O8 0.006862 0.270111 0.433670
O O9 0.943819 0.500000 0.500000
O O10 0.896971 0.681669 0.625673
O O11 0.315840 0.239024 0.952272
O O12 0.288078 0.482637 0.841681
O O13 0.350357 0.500000 0.000000
O O14 0.248550 0.500000 0.500000
O O15 0.226215 0.728198 0.368633
O O16 0.801145 0.636407 0.743568
#
# Coordination Sequence:
#
# PCOD9318254 Si02
#       7
#     8   8   8   8   8   8   8
#     4  11  22  39  64 102 139 174 228 284 346 407
#     4  10  22  42  67  93 126 185 239 282 335 414
#     4   9  20  41  65  94 130 180 225 289 337 402
#     4  10  23  44  63  92 138 183 220 285 361 405
#     4  11  24  39  64 103 139 177 220 279 348 429
#     4  10  20  38  69  96 133 173 222 285 347 408
#     4  11  23  39  67 100 137 179 215 282 359 418
#
# _framework density 21.267976000000001
#
# number of rings (size 3 to 8) (size 9 to 14) (size 15 to 20)
#    0.000    1.714    2.857    0.857    4.000    0.571 
#    5.143    0.000    0.000    0.000    0.000    0.000 
#    0.000    0.000    0.000    0.000    0.000    0.000 
#
# Total GULP energy -156268.558063 kJ/mol
# GULP energy per Si atom -5581.019931 kJ/mol
# Density = 2.121957 g / cm^3
# Si number density = 21.267976 Si / 1000 Ang^3
#
#
#
# Elastic Constant Matrix: (Units=GPa)
#
#
# Indices 1 2 3 4 5 6 
#
# 1 130.6566 18.5620 54.2977 0.0000 0.0000 0.0000
# 2 18.5620 22.7932 21.7501 0.0000 0.0000 0.0000
# 3 54.2977 21.7501 93.4724 0.0000 0.0000 0.0000
# 4 0.0000 0.0000 0.0000 18.1319 0.0000 0.0000
# 5 0.0000 0.0000 0.0000 0.0000 55.4720 0.0000
# 6 0.0000 0.0000 0.0000 0.0000 0.0000 22.2831
#
#
#
# Elastic Compliance Matrix: (Units=1/GPa)
#
#
# Indices 1 2 3 4 5 6 
#
# 1 0.010295 -0.003441 -0.005180 0.000000 0.000000 0.000000
# 2 -0.003441 0.057545 -0.011391 0.000000 0.000000 0.000000
# 3 -0.005180 -0.011391 0.016358 0.000000 0.000000 0.000000
# 4 0.000000 0.000000 0.000000 0.055151 0.000000 0.000000
# 5 0.000000 0.000000 0.000000 0.000000 0.018027 0.000000
# 6 0.000000 0.000000 0.000000 0.000000 0.000000 0.044877
#
#
# Mechanical properties :
#
#
# Convention : Reuss Voigt Hill
#
# Bulk Modulus (GPa) = 22.63790 48.46020 35.54905
# Shear Modulus (GPa) = 19.45510 29.33155 24.39333
#
# Velocity S-wave (km/s) = 3.02778 3.71771 3.39034
# Velocity P-wave (km/s) = 4.78440 6.42366 5.66366
#
# Compressibility (1/GPa) = 0.04417371
#
# Stress axis : x y z
#
# Youngs Moduli (GPa) = 97.13394 17.37771 61.13310
#
# Poissons Ratio (x) = 0.05980 0.31664
# Poissons Ratio (y) = 0.33427 0.69637
# Poissons Ratio (z) = 0.50311 0.19795
#
# Static dielectric constant tensor:
#      x y z
#    x 1.758380 0.000000 0.000000 
#    y 0.000000 1.774960 0.000000 
#    z 0.000000 0.000000 1.822600 
# 
# From -- ./inp_files/21773.got.cif
#   From: 2010.05.17/outbox.cif.g08.bks.cpg/sg20_11_cif.got.tgz:21773.got - 2010.06.03 22:52:26.
