data_PCOD9318663
_publ_section_title
;
Structure prediction by ZEFSAII (Michael W. Deem and Ramdas Pophale) SiO2 
 PCOD9318663
Probable space group: C 2 2 21
;
_chemical_formula_sum "Si O2"
_cell_formula_units_Z 48
_cell_length_a 12.603764
_cell_length_b 17.918063
_cell_length_c 9.523897
_cell_angle_alpha 90.000000
_cell_angle_beta 90.000000
_cell_angle_gamma 90.000000
_cell_volume 2150.829635
_symmetry_space_group_name_H-M "C 2 2 21"
_symmetry_group_IT_number 20
_symmetry_cell_setting 'orthorhombic'
loop_
_space_group_symop_operation_xyz
x,y,z
-x,-y,1/2+z
x,-y,-z
-x,y,1/2-z
1/2+x,1/2+y,z
1/2-x,1/2-y,1/2+z
1/2+x,1/2-y,-z
1/2-x,1/2+y,1/2-z
loop_
_atom_site_type_symbol
_atom_site_label
_atom_site_fract_x
_atom_site_fract_y
_atom_site_fract_z
Si Si1 0.941539 0.088394 0.515795
Si Si2 0.773846 0.068924 0.744634
Si Si3 0.052127 0.569974 0.598282
Si Si4 0.578934 0.179241 0.376067
Si Si5 0.667028 0.330426 0.482963
Si Si6 0.776946 0.897072 0.734176
O O1 0.876824 0.096683 0.659933
O O2 0.864590 0.111760 0.387610
O O3 0.050251 0.132525 0.515871
O O4 0.962602 0.000000 0.500000
O O5 0.677331 0.072126 0.635002
O O6 0.760510 0.120980 0.878711
O O7 0.788226 0.982407 0.786439
O O8 0.025154 0.500000 0.500000
O O9 0.021613 0.643910 0.511312
O O10 0.000000 0.564130 0.750000
O O11 0.500000 0.199316 0.250000
O O12 0.650915 0.247838 0.425276
O O13 0.658927 0.114971 0.323405
O O14 0.707843 0.338760 0.640688
#
# Coordination Sequence:
#
# PCOD9318663 Si02
#       6
#     8   8   8   8   8   8
#     4  10  20  43  70  99 139 176 232 294 357 418
#     4  11  22  44  72 105 136 182 236 298 355 422
#     4  12  26  47  73 103 140 194 248 301 355 421
#     4  12  28  48  67 103 149 195 236 303 356 429
#     4  12  27  40  72 104 142 187 232 287 368 433
#     4  11  24  44  71 100 141 181 242 296 352 423
#
# _framework density 22.316972
#
# number of rings (size 3 to 8) (size 9 to 14) (size 15 to 20)
#    0.000    0.667    3.333    4.500    4.667    5.333 
#    0.000    0.000    0.000    0.000    0.000    0.000 
#    0.000    0.000    0.000    0.000    0.000    0.000 
#
# Total GULP energy -134382.729686 kJ/mol
# GULP energy per Si atom -5599.280404 kJ/mol
# Density = 2.226618 g / cm^3
# Si number density = 22.316972 Si / 1000 Ang^3
#
#
#
# Elastic Constant Matrix: (Units=GPa)
#
#
# Indices 1 2 3 4 5 6 
#
# 1 28.9803 -9.3200 10.0703 0.0000 0.0000 0.0000
# 2 -9.3200 63.8633 47.3969 0.0000 0.0000 0.0000
# 3 10.0703 47.3969 126.9963 0.0000 0.0000 0.0000
# 4 0.0000 0.0000 0.0000 30.5069 0.0000 0.0000
# 5 0.0000 0.0000 0.0000 0.0000 38.1200 0.0000
# 6 0.0000 0.0000 0.0000 0.0000 0.0000 30.6715
#
#
#
# Elastic Compliance Matrix: (Units=1/GPa)
#
#
# Indices 1 2 3 4 5 6 
#
# 1 0.040854 0.011571 -0.007558 0.000000 0.000000 0.000000
# 2 0.011571 0.024935 -0.010224 0.000000 0.000000 0.000000
# 3 -0.007558 -0.010224 0.012289 0.000000 0.000000 0.000000
# 4 0.000000 0.000000 0.000000 0.032779 0.000000 0.000000
# 5 0.000000 0.000000 0.000000 0.000000 0.026233 0.000000
# 6 0.000000 0.000000 0.000000 0.000000 0.000000 0.032604
#
#
# Mechanical properties :
#
#
# Convention : Reuss Voigt Hill
#
# Bulk Modulus (GPa) = 15.23062 35.12602 25.17832
# Shear Modulus (GPa) = 24.50982 31.30588 27.90785
#
# Velocity S-wave (km/s) = 3.31759 3.74944 3.54011
# Velocity P-wave (km/s) = 4.63840 5.87521 5.29306
#
# Compressibility (1/GPa) = 0.06565719
#
# Stress axis : x y z
#
# Youngs Moduli (GPa) = 24.47749 40.10479 81.37252
#
# Poissons Ratio (x) = -0.46407 0.61503
# Poissons Ratio (y) = -0.28324 0.83192
# Poissons Ratio (z) = 0.18501 0.41001
#
# Static dielectric constant tensor:
#      x y z
#    x 1.816960 0.000000 0.000000 
#    y 0.000000 1.807020 0.000000 
#    z 0.000000 0.000000 1.827150 
# 
# From -- ./inp_files/8429.got.cif
#   From: 2010.05.17/outbox.cif.g08.bks.cpg/sg20_5_cif.got.tgz:8429.got - 2010.06.03 22:52:26.
