data_PCOD9318099
_publ_section_title
;
Structure prediction by ZEFSAII (Michael W. Deem and Ramdas Pophale) SiO2 
 PCOD9318099
Probable space group: C 2 2 21
;
_chemical_formula_sum "Si O2"
_cell_formula_units_Z 24
_cell_length_a 13.697101
_cell_length_b 14.617327
_cell_length_c 5.238732
_cell_angle_alpha 90.000000
_cell_angle_beta 90.000000
_cell_angle_gamma 90.000000
_cell_volume 1048.872750
_symmetry_space_group_name_H-M "C 2 2 21"
_symmetry_group_IT_number 20
_symmetry_cell_setting 'orthorhombic'
loop_
_space_group_symop_operation_xyz
x,y,z
-x,-y,1/2+z
x,-y,-z
-x,y,1/2-z
1/2+x,1/2+y,z
1/2-x,1/2-y,1/2+z
1/2+x,1/2-y,-z
1/2-x,1/2+y,1/2-z
loop_
_atom_site_type_symbol
_atom_site_label
_atom_site_fract_x
_atom_site_fract_y
_atom_site_fract_z
Si Si1 0.902074 0.218768 0.140978
Si Si2 0.721519 0.140673 0.906829
Si Si3 0.618757 0.090973 0.422777
O O1 0.833739 0.154883 0.973348
O O2 0.828197 0.259556 0.356062
O O3 0.932041 0.312380 0.990533
O O4 0.000000 0.176999 0.250000
O O5 0.663032 0.097354 0.142586
O O6 0.702835 0.089970 0.641347
O O7 0.559614 0.000000 0.500000
#
# Coordination Sequence:
#
# PCOD9318099 Si02
#       3
#     8   8   8
#     4  10  21  38  62  86 118 156 200 245 292 353
#     4  10  20  39  55  88 114 153 203 234 296 352
#     4  10  20  38  57  84 122 151 189 245 304 353
#
# _framework density 22.881710000000002
#
# number of rings (size 3 to 8) (size 9 to 14) (size 15 to 20)
#    2.000    0.000    3.333    1.000    0.000    1.333 
#    6.000    0.000    0.000    4.000    0.000    0.000 
#    0.000    0.000    0.000    0.000    0.000    0.000 
#
# Total GULP energy -66896.393831 kJ/mol
# GULP energy per Si atom -5574.699486 kJ/mol
# Density = 2.282963 g / cm^3
# Si number density = 22.881710 Si / 1000 Ang^3
#
#
#
# Elastic Constant Matrix: (Units=GPa)
#
#
# Indices 1 2 3 4 5 6 
#
# 1 122.1530 -3.2361 35.5971 0.0000 0.0000 0.0000
# 2 -3.2361 30.6409 21.9290 0.0000 0.0000 0.0000
# 3 35.5971 21.9290 145.9136 0.0000 0.0000 0.0000
# 4 0.0000 0.0000 0.0000 31.1716 0.0000 0.0000
# 5 0.0000 0.0000 0.0000 0.0000 41.1429 0.0000
# 6 0.0000 0.0000 0.0000 0.0000 0.0000 -10.3926
#
#
#
# Elastic Compliance Matrix: (Units=1/GPa)
#
#
# Indices 1 2 3 4 5 6 
#
# 1 0.009027 0.002834 -0.002628 0.000000 0.000000 0.000000
# 2 0.002834 0.037459 -0.006321 0.000000 0.000000 0.000000
# 3 -0.002628 -0.006321 0.008445 0.000000 0.000000 0.000000
# 4 0.000000 0.000000 0.000000 0.032080 0.000000 0.000000
# 5 0.000000 0.000000 0.000000 0.000000 0.024306 0.000000
# 6 0.000000 0.000000 0.000000 0.000000 0.000000 -0.096222
#
#
# Mechanical properties :
#
#
# Convention : Reuss Voigt Hill
#
# Bulk Modulus (GPa) = 23.41841 45.25414 34.33628
# Shear Modulus (GPa) = 120.31116 28.67889 74.49503
#
# Velocity S-wave (km/s) = 7.25905 3.54412 5.71203
# Velocity P-wave (km/s) = 8.97302 6.04715 7.65125
#
# Compressibility (1/GPa) = 0.04270144
#
# Stress axis : x y z
#
# Youngs Moduli (GPa) = 110.77294 26.69553 118.41930
#
# Poissons Ratio (x) = -0.07567 0.31124
# Poissons Ratio (y) = -0.31398 0.74855
# Poissons Ratio (z) = 0.29115 0.16875
#
# Static dielectric constant tensor:
#      x y z
#    x 1.847330 0.000000 0.000000 
#    y 0.000000 1.981330 0.000000 
#    z 0.000000 0.000000 1.895310 
# 
# From -- ./inp_files/858.got.cif
#   From: 2010.05.17/outbox.cif.g08.bks.cpg/sg20_1_cif.got.tgz:858.got - 2010.06.03 22:52:26.
