data_PCOD9318075
_publ_section_title
;
Structure prediction by ZEFSAII (Michael W. Deem and Ramdas Pophale) SiO2 
 PCOD9318075
Probable space group: C 2 2 21
;
_chemical_formula_sum "Si O2"
_cell_formula_units_Z 48
_cell_length_a 14.851275
_cell_length_b 16.834389
_cell_length_c 8.985631
_cell_angle_alpha 90.000000
_cell_angle_beta 90.000000
_cell_angle_gamma 90.000000
_cell_volume 2246.516840
_symmetry_space_group_name_H-M "C 2 2 21"
_symmetry_group_IT_number 20
_symmetry_cell_setting 'orthorhombic'
loop_
_space_group_symop_operation_xyz
x,y,z
-x,-y,1/2+z
x,-y,-z
-x,y,1/2-z
1/2+x,1/2+y,z
1/2-x,1/2-y,1/2+z
1/2+x,1/2-y,-z
1/2-x,1/2+y,1/2-z
loop_
_atom_site_type_symbol
_atom_site_label
_atom_site_fract_x
_atom_site_fract_y
_atom_site_fract_z
Si Si1 0.904074 0.911703 0.685462
Si Si2 0.729527 0.974104 0.826596
Si Si3 0.959016 0.833070 0.400618
Si Si4 0.668946 0.811747 0.937108
Si Si5 0.371905 0.729225 0.089376
Si Si6 0.602645 0.886280 0.243285
O O1 0.823663 0.965399 0.743330
O O2 0.913613 0.896262 0.510756
O O3 0.883883 0.825430 0.762657
O O4 0.000000 0.937779 0.750000
O O5 0.680027 0.888610 0.831557
O O6 0.668951 0.040086 0.750605
O O7 0.743837 0.000000 0.000000
O O8 0.887763 0.761818 0.373414
O O9 0.000000 0.866694 0.250000
O O10 0.045756 0.797409 0.486640
O O11 0.772235 0.787433 0.972476
O O12 0.621177 0.842309 0.086424
O O13 0.380499 0.820548 0.132073
O O14 0.500000 0.913148 0.250000
#
# Coordination Sequence:
#
# PCOD9318075 Si02
#       6
#     8   8   8   8   8   8
#     4   9  18  40  67  91 128 169 217 280 339 387
#     4   9  21  37  67  99 132 179 220 274 348 418
#     4  11  22  35  63 103 130 169 225 282 330 396
#     4  10  21  38  62  96 134 167 220 274 332 407
#     4  10  20  37  67  97 123 168 219 279 338 388
#     4  11  19  39  68  97 131 175 212 271 346 402
#
# _framework density 21.366410999999999
#
# number of rings (size 3 to 8) (size 9 to 14) (size 15 to 20)
#    0.000    2.000    3.333    0.500    2.333    0.667 
#    0.000    0.000   14.667    0.000    0.000    0.000 
#    0.000    0.000    0.000    0.000    0.000    0.000 
#
# Total GULP energy -134205.983708 kJ/mol
# GULP energy per Si atom -5591.915988 kJ/mol
# Density = 2.131778 g / cm^3
# Si number density = 21.366411 Si / 1000 Ang^3
#
#
#
# Elastic Constant Matrix: (Units=GPa)
#
#
# Indices 1 2 3 4 5 6 
#
# 1 161.9680 65.5486 42.3216 0.0000 0.0000 0.0000
# 2 65.5486 97.5088 21.3636 0.0000 0.0000 0.0000
# 3 42.3216 21.3636 74.3731 0.0000 0.0000 0.0000
# 4 0.0000 0.0000 0.0000 -0.6798 0.0000 0.0000
# 5 0.0000 0.0000 0.0000 0.0000 33.0870 0.0000
# 6 0.0000 0.0000 0.0000 0.0000 0.0000 37.3039
#
#
#
# Elastic Compliance Matrix: (Units=1/GPa)
#
#
# Indices 1 2 3 4 5 6 
#
# 1 0.009373 -0.005477 -0.003760 0.000000 0.000000 0.000000
# 2 -0.005477 0.014145 -0.000946 0.000000 0.000000 0.000000
# 3 -0.003760 -0.000946 0.015857 0.000000 0.000000 0.000000
# 4 0.000000 0.000000 0.000000 -1.470989 0.000000 0.000000
# 5 0.000000 0.000000 0.000000 0.000000 0.030223 0.000000
# 6 0.000000 0.000000 0.000000 0.000000 0.000000 0.026807
#
#
# Mechanical properties :
#
#
# Convention : Reuss Voigt Hill
#
# Bulk Modulus (GPa) = 52.61078 65.81307 59.21192
# Shear Modulus (GPa) = -3.70953 27.58330 11.93688
#
# Velocity S-wave (km/s) = -1.31906 3.59690 2.36620
# Velocity P-wave (km/s) = 4.72829 6.93680 5.93616
#
# Compressibility (1/GPa) = 0.01900751
#
# Stress axis : x y z
#
# Youngs Moduli (GPa) = 106.68665 70.69787 63.06184
#
# Poissons Ratio (x) = 0.38722 0.23714
# Poissons Ratio (y) = 0.58433 0.05968
# Poissons Ratio (z) = 0.40120 0.06690
#
# Static dielectric constant tensor:
#      x y z
#    x 1.734360 0.000000 0.000000 
#    y 0.000000 1.775830 0.000000 
#    z 0.000000 0.000000 1.782480 
# 
# From -- ./inp_files/8420.got.cif
#   From: 2010.05.17/outbox.cif.g08.bks.cpg/sg20_5_cif.got.tgz:8420.got - 2010.06.03 22:52:26.
