data_PCOD9318016
_publ_section_title
;
Structure prediction by ZEFSAII (Michael W. Deem and Ramdas Pophale) SiO2 
 PCOD9318016
Probable space group: C 2 2 21
;
_chemical_formula_sum "Si O2"
_cell_formula_units_Z 48
_cell_length_a 10.911719
_cell_length_b 23.664748
_cell_length_c 9.128150
_cell_angle_alpha 90.000000
_cell_angle_beta 90.000000
_cell_angle_gamma 90.000000
_cell_volume 2357.099011
_symmetry_space_group_name_H-M "C 2 2 21"
_symmetry_group_IT_number 20
_symmetry_cell_setting 'orthorhombic'
loop_
_space_group_symop_operation_xyz
x,y,z
-x,-y,1/2+z
x,-y,-z
-x,y,1/2-z
1/2+x,1/2+y,z
1/2-x,1/2-y,1/2+z
1/2+x,1/2-y,-z
1/2-x,1/2+y,1/2-z
loop_
_atom_site_type_symbol
_atom_site_label
_atom_site_fract_x
_atom_site_fract_y
_atom_site_fract_z
Si Si1 0.541990 0.442639 0.416880
Si Si2 0.228296 0.932809 0.012837
Si Si3 0.538610 0.205340 0.910869
Si Si4 0.759846 0.371991 0.304324
Si Si5 0.622714 0.844979 0.659495
Si Si6 0.134420 0.237968 0.823801
O O1 0.576582 0.500000 0.500000
O O2 0.500000 0.456245 0.250000
O O3 0.417060 0.418524 0.486887
O O4 0.653935 0.399263 0.404223
O O5 0.282328 0.914759 0.170776
O O6 0.296645 0.897516 0.888449
O O7 0.237814 0.000000 0.000000
O O8 0.500000 0.224348 0.750000
O O9 0.621838 0.149414 0.889753
O O10 0.425263 0.186741 0.012649
O O11 0.613133 0.251388 0.004794
O O12 0.708725 0.315783 0.225523
O O13 0.500000 0.861516 0.750000
O O14 0.685816 0.796711 0.758298
O O15 0.000000 0.231707 0.750000
#
# Coordination Sequence:
#
# PCOD9318016 Si02
#       6
#     8   8   8   8   8   8
#     4   9  20  40  62  89 117 162 205 260 311 361
#     4  10  20  38  63  83 117 166 202 249 312 359
#     4  10  20  37  61  89 123 158 199 257 298 367
#     4  11  21  38  64  90 123 159 206 248 321 367
#     4   9  20  41  58  86 124 158 205 251 310 364
#     4   9  21  37  62  88 121 159 194 252 317 362
#
# _framework density 20.364014999999998
#
# number of rings (size 3 to 8) (size 9 to 14) (size 15 to 20)
#    0.000    2.667    1.667    1.500    2.333    0.000 
#   21.000    0.000    0.000   19.000    0.000    0.000 
#    0.000    0.000    0.000    0.000    0.000    0.000 
#
# Total GULP energy -133972.920832 kJ/mol
# GULP energy per Si atom -5582.205035 kJ/mol
# Density = 2.031767 g / cm^3
# Si number density = 20.364015 Si / 1000 Ang^3
#
#
#
# Elastic Constant Matrix: (Units=GPa)
#
#
# Indices 1 2 3 4 5 6 
#
# 1 40.3417 29.0932 32.5733 0.0000 0.0000 0.0000
# 2 29.0932 79.3070 33.7540 0.0000 0.0000 0.0000
# 3 32.5733 33.7540 101.8009 0.0000 0.0000 0.0000
# 4 0.0000 0.0000 0.0000 42.2661 0.0000 0.0000
# 5 0.0000 0.0000 0.0000 0.0000 32.3467 0.0000
# 6 0.0000 0.0000 0.0000 0.0000 0.0000 24.8921
#
#
#
# Elastic Compliance Matrix: (Units=1/GPa)
#
#
# Indices 1 2 3 4 5 6 
#
# 1 0.039990 -0.010740 -0.009235 0.000000 0.000000 0.000000
# 2 -0.010740 0.017565 -0.002388 0.000000 0.000000 0.000000
# 3 -0.009235 -0.002388 0.013570 0.000000 0.000000 0.000000
# 4 0.000000 0.000000 0.000000 0.023660 0.000000 0.000000
# 5 0.000000 0.000000 0.000000 0.000000 0.030915 0.000000
# 6 0.000000 0.000000 0.000000 0.000000 0.000000 0.040173
#
#
# Mechanical properties :
#
#
# Convention : Reuss Voigt Hill
#
# Bulk Modulus (GPa) = 37.87785 45.81007 41.84396
# Shear Modulus (GPa) = 22.78980 28.30293 25.54637
#
# Velocity S-wave (km/s) = 3.34896 3.73211 3.54571
# Velocity P-wave (km/s) = 5.79610 6.41218 6.11191
#
# Compressibility (1/GPa) = 0.02640066
#
# Stress axis : x y z
#
# Youngs Moduli (GPa) = 25.00648 56.93076 73.69415
#
# Poissons Ratio (x) = 0.61141 0.68054
# Poissons Ratio (y) = 0.26856 0.17596
# Poissons Ratio (z) = 0.23093 0.13594
#
# Static dielectric constant tensor:
#      x y z
#    x 1.774190 0.000000 0.000000 
#    y 0.000000 1.711110 0.000000 
#    z 0.000000 0.000000 1.759230 
# 
# From -- ./inp_files/7407.got.cif
#   From: 2010.05.17/outbox.cif.g08.bks.cpg/sg20_4_cif.got.tgz:7407.got - 2010.06.03 22:52:26.
