data_PCOD9318762
_publ_section_title
;
Structure prediction by ZEFSAII (Michael W. Deem and Ramdas Pophale) SiO2 
 PCOD9318762
Probable space group: C 2 2 21
;
_chemical_formula_sum "Si O2"
_cell_formula_units_Z 64
_cell_length_a 26.567184
_cell_length_b 12.237105
_cell_length_c 9.519899
_cell_angle_alpha 90.000000
_cell_angle_beta 90.000000
_cell_angle_gamma 90.000000
_cell_volume 3094.970764
_symmetry_space_group_name_H-M "C 2 2 21"
_symmetry_group_IT_number 20
_symmetry_cell_setting 'orthorhombic'
loop_
_space_group_symop_operation_xyz
x,y,z
-x,-y,1/2+z
x,-y,-z
-x,y,1/2-z
1/2+x,1/2+y,z
1/2-x,1/2-y,1/2+z
1/2+x,1/2-y,-z
1/2-x,1/2+y,1/2-z
loop_
_atom_site_type_symbol
_atom_site_label
_atom_site_fract_x
_atom_site_fract_y
_atom_site_fract_z
Si Si1 0.950337 0.186657 0.323468
Si Si2 0.840107 0.868530 0.166780
Si Si3 0.541784 0.945154 0.146836
Si Si4 0.122478 0.813318 0.045097
Si Si5 0.278438 0.379498 0.604309
Si Si6 0.761048 0.379039 0.176250
Si Si7 0.848837 0.867218 0.843682
Si Si8 0.651841 0.086568 0.891139
O O1 0.962583 0.313900 0.351999
O O2 0.928883 0.146050 0.472992
O O3 0.900795 0.175361 0.224958
O O4 0.000000 0.137952 0.250000
O O5 0.876022 0.819519 0.287587
O O6 0.784369 0.839582 0.223482
O O7 0.847604 0.000361 0.167890
O O8 0.847648 0.834946 0.006264
O O9 0.500000 0.990057 0.250000
O O10 0.600878 0.965009 0.172542
O O11 0.531211 0.000000 0.000000
O O12 0.168663 0.883894 0.982218
O O13 0.135818 0.692619 0.983353
O O14 0.253141 0.493274 0.646057
O O15 0.243513 0.328485 0.481000
O O16 0.299410 0.332657 0.752545
O O17 0.811735 0.384680 0.264702
O O18 0.675363 0.000000 0.000000
#
# Coordination Sequence:
#
# PCOD9318762 Si02
#       8
#     8   8   8   8   8   8   8   8
#     4   9  18  35  58  82 115 152 191 250 305 350
#     4   9  18  33  57  84 116 162 200 230 284 380
#     4   9  19  40  62  81 108 151 197 241 307 366
#     4   9  18  37  56  80 115 160 202 236 299 371
#     4   8  16  32  54  74 108 150 188 231 278 364
#     4   9  17  32  53  78 111 152 196 232 296 342
#     4   9  17  32  58  85 116 154 195 238 293 354
#     4  10  21  35  55  81 120 152 192 262 310 342
#
# _framework density 20.678708
#
# number of rings (size 3 to 8) (size 9 to 14) (size 15 to 20)
#    0.000    3.000    0.000    0.750    3.500    1.500 
#    6.750   13.125    5.500    0.000    0.000    0.875 
#    0.000    0.000    0.000    0.000    0.000    0.000 
#
# Total GULP energy -178144.281974 kJ/mol
# GULP energy per Si atom -5567.008812 kJ/mol
# Density = 2.063164 g / cm^3
# Si number density = 20.678708 Si / 1000 Ang^3
#
#
#
# Elastic Constant Matrix: (Units=GPa)
#
#
# Indices 1 2 3 4 5 6 
#
# 1 104.4163 18.6566 90.5378 0.0000 0.0000 0.0000
# 2 18.6566 54.4167 26.0829 0.0000 0.0000 0.0000
# 3 90.5378 26.0829 211.0101 0.0000 0.0000 0.0000
# 4 0.0000 0.0000 0.0000 26.4147 0.0000 0.0000
# 5 0.0000 0.0000 0.0000 0.0000 37.3021 0.0000
# 6 0.0000 0.0000 0.0000 0.0000 0.0000 11.0213
#
#
#
# Elastic Compliance Matrix: (Units=1/GPa)
#
#
# Indices 1 2 3 4 5 6 
#
# 1 0.015509 -0.002262 -0.006375 0.000000 0.000000 0.000000
# 2 -0.002262 0.019864 -0.001485 0.000000 0.000000 0.000000
# 3 -0.006375 -0.001485 0.007658 0.000000 0.000000 0.000000
# 4 0.000000 0.000000 0.000000 0.037858 0.000000 0.000000
# 5 0.000000 0.000000 0.000000 0.000000 0.026808 0.000000
# 6 0.000000 0.000000 0.000000 0.000000 0.000000 0.090734
#
#
# Mechanical properties :
#
#
# Convention : Reuss Voigt Hill
#
# Bulk Modulus (GPa) = 43.88322 71.15532 57.51927
# Shear Modulus (GPa) = 22.09769 30.58534 26.34151
#
# Velocity S-wave (km/s) = 3.27252 3.85005 3.57297
# Velocity P-wave (km/s) = 5.96211 7.36535 6.70057
#
# Compressibility (1/GPa) = 0.02278775
#
# Stress axis : x y z
#
# Youngs Moduli (GPa) = 64.48077 50.34271 130.58521
#
# Poissons Ratio (x) = 0.11385 0.83244
# Poissons Ratio (y) = 0.14583 0.19392
# Poissons Ratio (z) = 0.41104 0.07476
#
# Static dielectric constant tensor:
#      x y z
#    x 1.766690 0.000000 0.000000 
#    y 0.000000 1.832660 0.000000 
#    z 0.000000 0.000000 1.906150 
# 
# From -- ./inp_files/10792.got.cif
#   From: 2010.05.17/outbox.cif.g08.bks.cpg/sg20_6_cif.got.tgz:10792.got - 2010.06.03 22:52:26.
