data_PCOD9318973
_publ_section_title
;
Structure prediction by ZEFSAII (Michael W. Deem and Ramdas Pophale) SiO2 
 PCOD9318973
Probable space group: C 2 2 21
;
_chemical_formula_sum "Si O2"
_cell_formula_units_Z 36
_cell_length_a 5.751560
_cell_length_b 22.562070
_cell_length_c 10.469027
_cell_angle_alpha 90.000000
_cell_angle_beta 90.000000
_cell_angle_gamma 90.000000
_cell_volume 1358.535267
_symmetry_space_group_name_H-M "C 2 2 21"
_symmetry_group_IT_number 20
_symmetry_cell_setting 'orthorhombic'
loop_
_space_group_symop_operation_xyz
x,y,z
-x,-y,1/2+z
x,-y,-z
-x,y,1/2-z
1/2+x,1/2+y,z
1/2-x,1/2-y,1/2+z
1/2+x,1/2-y,-z
1/2-x,1/2+y,1/2-z
loop_
_atom_site_type_symbol
_atom_site_label
_atom_site_fract_x
_atom_site_fract_y
_atom_site_fract_z
Si Si1 0.182831 0.846576 0.547890
Si Si2 0.500000 0.909792 0.750000
Si Si3 0.252984 0.762099 0.182881
Si Si4 0.243643 0.607841 0.768946
Si Si5 0.886658 0.047529 0.390424
O O1 0.326711 0.868829 0.670445
O O2 0.214625 0.775990 0.554309
O O3 0.270016 0.868540 0.412644
O O4 0.950079 0.885453 0.566331
O O5 0.383358 0.950141 0.858062
O O6 0.500000 0.745096 0.250000
O O7 0.256101 0.833377 0.179619
O O8 0.000000 0.750097 0.250000
O O9 0.500000 0.580840 0.750000
O O10 0.000000 0.574592 0.750000
O O11 0.000000 0.038959 0.250000
O O12 0.948254 0.000000 0.500000
#
# Coordination Sequence:
#
# PCOD9318973 Si02
#       5
#     8   4   8   8   8
#     4  11  23  42  70  95 146 182 245 292 362 438
#     4  10  22  42  72 102 130 188 236 298 368 436
#     4  10  21  38  62  98 133 185 237 280 349 415
#     4  10  25  41  62 103 142 190 238 294 358 419
#     4  10  24  46  72 104 138 186 245 306 378 441
#
# _framework density 26.499127999999999
#
# number of rings (size 3 to 8) (size 9 to 14) (size 15 to 20)
#    0.000    1.778    1.111    2.000    3.111   11.556 
#    0.000    0.000    0.000    0.000    0.000    0.000 
#    0.000    0.000    0.000    0.000    0.000    0.000 
#
# Total GULP energy -100445.086210 kJ/mol
# GULP energy per Si atom -5580.282567 kJ/mol
# Density = 2.643882 g / cm^3
# Si number density = 26.499128 Si / 1000 Ang^3
#
#
#
# Elastic Constant Matrix: (Units=GPa)
#
#
# Indices 1 2 3 4 5 6 
#
# 1 180.3322 27.2713 31.8419 0.0000 0.0000 0.0000
# 2 27.2713 121.9964 30.6622 0.0000 0.0000 0.0000
# 3 31.8419 30.6622 133.1227 0.0000 0.0000 0.0000
# 4 0.0000 0.0000 0.0000 18.5235 0.0000 0.0000
# 5 0.0000 0.0000 0.0000 0.0000 37.2644 0.0000
# 6 0.0000 0.0000 0.0000 0.0000 0.0000 50.1864
#
#
#
# Elastic Compliance Matrix: (Units=1/GPa)
#
#
# Indices 1 2 3 4 5 6 
#
# 1 0.005908 -0.001025 -0.001177 0.000000 0.000000 0.000000
# 2 -0.001025 0.008878 -0.001800 0.000000 0.000000 0.000000
# 3 -0.001177 -0.001800 0.008208 0.000000 0.000000 0.000000
# 4 0.000000 0.000000 0.000000 0.053986 0.000000 0.000000
# 5 0.000000 0.000000 0.000000 0.000000 0.026835 0.000000
# 6 0.000000 0.000000 0.000000 0.000000 0.000000 0.019926
#
#
# Mechanical properties :
#
#
# Convention : Reuss Voigt Hill
#
# Bulk Modulus (GPa) = 66.70704 68.33356 67.52030
# Shear Modulus (GPa) = 36.56527 44.23991 40.40259
#
# Velocity S-wave (km/s) = 3.71869 4.09037 3.90895
# Velocity P-wave (km/s) = 6.60803 6.93911 6.77559
#
# Compressibility (1/GPa) = 0.01499092
#
# Stress axis : x y z
#
# Youngs Moduli (GPa) = 169.25743 112.63251 121.83266
#
# Poissons Ratio (x) = 0.11543 0.14341
# Poissons Ratio (y) = 0.17347 0.21928
# Poissons Ratio (z) = 0.19924 0.20272
#
# Static dielectric constant tensor:
#      x y z
#    x 2.238150 0.000000 0.000000 
#    y 0.000000 2.094800 0.000000 
#    z 0.000000 0.000000 2.042310 
# 
# From -- ./inp_files/12041.got.cif
#   From: 2010.05.17/outbox.cif.g08.bks.cpg/sg20_7_cif.got.tgz:12041.got - 2010.06.03 22:52:26.
