data_PCOD9318296
_publ_section_title
;
Structure prediction by ZEFSAII (Michael W. Deem and Ramdas Pophale) SiO2 
 PCOD9318296
Probable space group: C 2 2 21
;
_chemical_formula_sum "Si O2"
_cell_formula_units_Z 52
_cell_length_a 9.287766
_cell_length_b 17.864974
_cell_length_c 14.369440
_cell_angle_alpha 90.000000
_cell_angle_beta 90.000000
_cell_angle_gamma 90.000000
_cell_volume 2384.259363
_symmetry_space_group_name_H-M "C 2 2 21"
_symmetry_group_IT_number 20
_symmetry_cell_setting 'orthorhombic'
loop_
_space_group_symop_operation_xyz
x,y,z
-x,-y,1/2+z
x,-y,-z
-x,y,1/2-z
1/2+x,1/2+y,z
1/2-x,1/2-y,1/2+z
1/2+x,1/2-y,-z
1/2-x,1/2+y,1/2-z
loop_
_atom_site_type_symbol
_atom_site_label
_atom_site_fract_x
_atom_site_fract_y
_atom_site_fract_z
Si Si1 0.073888 0.767725 0.562146
Si Si2 0.292930 0.086197 0.686231
Si Si3 0.005093 0.534504 0.096415
Si Si4 0.609875 0.266994 0.117746
Si Si5 0.697319 0.414752 0.511837
Si Si6 0.500000 0.201109 0.750000
Si Si7 0.000000 0.354561 0.750000
Si Si8 0.500000 0.398735 0.250000
O O1 0.231946 0.731168 0.572893
O O2 0.094563 0.857133 0.560892
O O3 0.996749 0.745618 0.466716
O O4 0.990073 0.745313 0.654682
O O5 0.237955 0.118846 0.588341
O O6 0.359490 0.148518 0.751865
O O7 0.144067 0.054575 0.727279
O O8 0.422563 0.032241 0.656080
O O9 0.149458 0.576431 0.061756
O O10 0.932468 0.590793 0.170196
O O11 0.938676 0.500000 0.000000
O O12 0.606429 0.202469 0.196960
O O13 0.550843 0.342460 0.167042
O O14 0.642712 0.500000 0.500000
#
# Coordination Sequence:
#
# PCOD9318296 Si02
#       8
#     8   8   8   8   8   4   4   4
#     4  12  23  42  62  97 122 172 213 279 327 396
#     4  10  20  39  62  91 122 171 206 262 315 388
#     4   9  20  37  65  89 124 167 221 256 319 390
#     4  11  25  38  68  88 132 162 221 269 335 388
#     4   9  19  39  63  82 118 167 212 249 321 388
#     4  12  25  34  64  95 134 154 218 272 330 377
#     4  11  21  40  66  95 128 171 224 270 329 395
#     4  11  20  40  60  92 122 167 208 252 337 390
#
# _framework density 21.809708000000001
#
# number of rings (size 3 to 8) (size 9 to 14) (size 15 to 20)
#    0.000    1.846    4.615    1.385    2.154    0.000 
#    0.000    3.077    0.000    0.000    0.000    0.000 
#    0.000    0.000    0.000    0.000    0.000    0.000 
#
# Total GULP energy -144865.337450 kJ/mol
# GULP energy per Si atom -5571.743748 kJ/mol
# Density = 2.176007 g / cm^3
# Si number density = 21.809708 Si / 1000 Ang^3
#
#
#
# Elastic Constant Matrix: (Units=GPa)
#
#
# Indices 1 2 3 4 5 6 
#
# 1 58.9199 6.3497 26.3669 0.0000 0.0000 0.0000
# 2 6.3497 47.6894 14.7564 0.0000 0.0000 0.0000
# 3 26.3669 14.7564 110.0571 0.0000 0.0000 0.0000
# 4 0.0000 0.0000 0.0000 31.2167 0.0000 0.0000
# 5 0.0000 0.0000 0.0000 0.0000 21.9883 0.0000
# 6 0.0000 0.0000 0.0000 0.0000 0.0000 5.7017
#
#
#
# Elastic Compliance Matrix: (Units=1/GPa)
#
#
# Indices 1 2 3 4 5 6 
#
# 1 0.019073 -0.001174 -0.004412 0.000000 0.000000 0.000000
# 2 -0.001174 0.021949 -0.002662 0.000000 0.000000 0.000000
# 3 -0.004412 -0.002662 0.010500 0.000000 0.000000 0.000000
# 4 0.000000 0.000000 0.000000 0.032034 0.000000 0.000000
# 5 0.000000 0.000000 0.000000 0.000000 0.045479 0.000000
# 6 0.000000 0.000000 0.000000 0.000000 0.000000 0.175387
#
#
# Mechanical properties :
#
#
# Convention : Reuss Voigt Hill
#
# Bulk Modulus (GPa) = 28.54998 34.62363 31.58680
# Shear Modulus (GPa) = 15.03336 23.06090 19.04713
#
# Velocity S-wave (km/s) = 2.62829 3.25525 2.95843
# Velocity P-wave (km/s) = 4.72541 5.48075 5.11704
#
# Compressibility (1/GPa) = 0.03502630
#
# Stress axis : x y z
#
# Youngs Moduli (GPa) = 52.42979 45.56033 95.23760
#
# Poissons Ratio (x) = 0.05350 0.42019
# Poissons Ratio (y) = 0.06157 0.25348
# Poissons Ratio (z) = 0.23132 0.12126
#
# Static dielectric constant tensor:
#      x y z
#    x 1.809980 0.000000 0.000000 
#    y 0.000000 1.862880 0.000000 
#    z 0.000000 0.000000 1.864590 
# 
# From -- ./inp_files/19166.got.cif
#   From: 2010.05.17/outbox.cif.g08.bks.cpg/sg20_10_cif.got.tgz:19166.got - 2010.06.03 22:52:26.
