data_PCOD9318309
_publ_section_title
;
Structure prediction by ZEFSAII (Michael W. Deem and Ramdas Pophale) SiO2 
 PCOD9318309
Probable space group: C 2 2 21
;
_chemical_formula_sum "Si O2"
_cell_formula_units_Z 36
_cell_length_a 5.128937
_cell_length_b 24.648308
_cell_length_c 13.647105
_cell_angle_alpha 90.000000
_cell_angle_beta 90.000000
_cell_angle_gamma 90.000000
_cell_volume 1725.261813
_symmetry_space_group_name_H-M "C 2 2 21"
_symmetry_group_IT_number 20
_symmetry_cell_setting 'orthorhombic'
loop_
_space_group_symop_operation_xyz
x,y,z
-x,-y,1/2+z
x,-y,-z
-x,y,1/2-z
1/2+x,1/2+y,z
1/2-x,1/2-y,1/2+z
1/2+x,1/2-y,-z
1/2-x,1/2+y,1/2-z
loop_
_atom_site_type_symbol
_atom_site_label
_atom_site_fract_x
_atom_site_fract_y
_atom_site_fract_z
Si Si1 0.745238 0.143570 0.611381
Si Si2 0.320540 0.242157 0.434914
Si Si3 0.241474 0.126660 0.475462
Si Si4 0.263606 0.039024 0.313532
Si Si5 0.000000 0.435060 0.250000
O O1 0.767196 0.207487 0.636876
O O2 0.488701 0.132849 0.546192
O O3 0.711910 0.103628 0.701637
O O4 0.988610 0.130363 0.543027
O O5 0.615465 0.246664 0.475603
O O6 0.257983 0.180505 0.406229
O O7 0.235695 0.072728 0.411688
O O8 0.500000 0.064557 0.250000
O O9 0.000000 0.038963 0.250000
O O10 0.363276 0.977030 0.325280
#
# Coordination Sequence:
#
# PCOD9318309 Si02
#       5
#     8   8   8   8   4
#     4  10  21  37  63  87 118 157 192 247 301 359
#     4   8  16  33  58  86 111 141 190 246 284 354
#     4  10  20  39  64  86 113 158 205 233 303 358
#     4  10  23  41  56  83 124 152 195 259 283 344
#     4  10  26  40  56  88 132 148 202 252 298 342
#
# _framework density 20.866398
#
# number of rings (size 3 to 8) (size 9 to 14) (size 15 to 20)
#    0.667    1.778    0.000    1.333    3.111    0.889 
#    2.000    0.000    0.000    0.000    0.000    0.000 
#    0.000    0.000    0.000    0.000    0.000    0.000 
#
# Total GULP energy -100361.171822 kJ/mol
# GULP energy per Si atom -5575.620657 kJ/mol
# Density = 2.081890 g / cm^3
# Si number density = 20.866398 Si / 1000 Ang^3
#
#
#
# Elastic Constant Matrix: (Units=GPa)
#
#
# Indices 1 2 3 4 5 6 
#
# 1 137.5850 4.1492 10.4859 0.0000 0.0000 0.0000
# 2 4.1492 154.9545 40.7000 0.0000 0.0000 0.0000
# 3 10.4859 40.7000 26.2024 0.0000 0.0000 0.0000
# 4 0.0000 0.0000 0.0000 -140.7882 0.0000 0.0000
# 5 0.0000 0.0000 0.0000 0.0000 23.0067 0.0000
# 6 0.0000 0.0000 0.0000 0.0000 0.0000 12.1205
#
#
#
# Elastic Compliance Matrix: (Units=1/GPa)
#
#
# Indices 1 2 3 4 5 6 
#
# 1 0.007588 0.001004 -0.004596 0.000000 0.000000 0.000000
# 2 0.001004 0.011034 -0.017541 0.000000 0.000000 0.000000
# 3 -0.004596 -0.017541 0.067249 0.000000 0.000000 0.000000
# 4 0.000000 0.000000 0.000000 -0.007103 0.000000 0.000000
# 5 0.000000 0.000000 0.000000 0.000000 0.043466 0.000000
# 6 0.000000 0.000000 0.000000 0.000000 0.000000 0.082505
#
#
# Mechanical properties :
#
#
# Convention : Reuss Voigt Hill
#
# Bulk Modulus (GPa) = 22.93268 47.71244 35.32256
# Shear Modulus (GPa) = 19.11756 -3.57173 7.77291
#
# Velocity S-wave (km/s) = 3.03014 -1.30974 1.93214
# Velocity P-wave (km/s) = 4.82250 4.54181 4.68426
#
# Compressibility (1/GPa) = 0.04360590
#
# Stress axis : x y z
#
# Youngs Moduli (GPa) = 131.78246 90.63076 14.87000
#
# Poissons Ratio (x) = -0.09100 0.06835
# Poissons Ratio (y) = -0.13232 0.26083
# Poissons Ratio (z) = 0.60572 1.58971
#
# Static dielectric constant tensor:
#      x y z
#    x 1.732020 0.000000 0.000000 
#    y 0.000000 1.791500 0.000000 
#    z 0.000000 0.000000 1.764720 
# 
# From -- ./inp_files/17594.got.cif
#   From: 2010.05.17/outbox.cif.g08.bks.cpg/sg20_9_cif.got.tgz:17594.got - 2010.06.03 22:52:26.
