data_PCOD9318469
_publ_section_title
;
Structure prediction by ZEFSAII (Michael W. Deem and Ramdas Pophale) SiO2 
 PCOD9318469
Probable space group: C 2 2 21
;
_chemical_formula_sum "Si O2"
_cell_formula_units_Z 40
_cell_length_a 26.602415
_cell_length_b 7.930095
_cell_length_c 9.108380
_cell_angle_alpha 90.000000
_cell_angle_beta 90.000000
_cell_angle_gamma 90.000000
_cell_volume 1921.500914
_symmetry_space_group_name_H-M "C 2 2 21"
_symmetry_group_IT_number 20
_symmetry_cell_setting 'orthorhombic'
loop_
_space_group_symop_operation_xyz
x,y,z
-x,-y,1/2+z
x,-y,-z
-x,y,1/2-z
1/2+x,1/2+y,z
1/2-x,1/2-y,1/2+z
1/2+x,1/2-y,-z
1/2-x,1/2+y,1/2-z
loop_
_atom_site_type_symbol
_atom_site_label
_atom_site_fract_x
_atom_site_fract_y
_atom_site_fract_z
Si Si1 0.500000 0.716605 0.250000
Si Si2 0.218913 0.101919 0.864391
Si Si3 0.544905 0.500000 0.000000
Si Si4 0.381283 0.229591 0.378038
Si Si5 0.608305 0.863522 0.221943
Si Si6 0.194686 0.855584 0.618556
O O1 0.510314 0.610495 0.104189
O O2 0.551951 0.815339 0.265511
O O3 0.172690 0.216485 0.818052
O O4 0.265742 0.209077 0.922854
O O5 0.226436 0.965149 0.737971
O O6 0.197005 0.000000 0.000000
O O7 0.579598 0.385099 0.108744
O O8 0.379260 0.179161 0.550932
O O9 0.392788 0.066536 0.279952
O O10 0.647765 0.749060 0.313914
O O11 0.180778 0.000000 0.500000
#
# Coordination Sequence:
#
# PCOD9318469 Si02
#       6
#     4   8   4   8   8   8
#     4  10  22  40  66  94 128 172 216 272 332 384
#     4  12  22  42  66  91 127 181 220 255 330 408
#     4  10  20  40  68  98 122 172 222 276 324 392
#     4  10  20  41  71  90 122 181 231 257 310 426
#     4  10  22  41  65  97 131 171 225 276 326 391
#     4  12  26  39  63 100 138 167 217 285 336 384
#
# _framework density 20.817059
#
# number of rings (size 3 to 8) (size 9 to 14) (size 15 to 20)
#    0.000    1.200    3.000    3.600    4.200    0.800 
#    0.000    0.000    8.800    0.000    0.000    0.000 
#    0.000    0.000    0.000    0.000    0.000    0.000 
#
# Total GULP energy -111430.300103 kJ/mol
# GULP energy per Si atom -5571.515005 kJ/mol
# Density = 2.076968 g / cm^3
# Si number density = 20.817059 Si / 1000 Ang^3
#
#
#
# Elastic Constant Matrix: (Units=GPa)
#
#
# Indices 1 2 3 4 5 6 
#
# 1 109.3760 75.7602 25.4620 0.0000 0.0000 0.0000
# 2 75.7602 141.6205 30.8417 0.0000 0.0000 0.0000
# 3 25.4620 30.8417 37.7639 0.0000 0.0000 0.0000
# 4 0.0000 0.0000 0.0000 39.0325 0.0000 0.0000
# 5 0.0000 0.0000 0.0000 0.0000 15.9272 0.0000
# 6 0.0000 0.0000 0.0000 0.0000 0.0000 145.1659
#
#
#
# Elastic Compliance Matrix: (Units=1/GPa)
#
#
# Indices 1 2 3 4 5 6 
#
# 1 0.015092 -0.007125 -0.004357 0.000000 0.000000 0.000000
# 2 -0.007125 0.011952 -0.004958 0.000000 0.000000 0.000000
# 3 -0.004357 -0.004958 0.033467 0.000000 0.000000 0.000000
# 4 0.000000 0.000000 0.000000 0.025620 0.000000 0.000000
# 5 0.000000 0.000000 0.000000 0.000000 0.062786 0.000000
# 6 0.000000 0.000000 0.000000 0.000000 0.000000 0.006889
#
#
# Mechanical properties :
#
#
# Convention : Reuss Voigt Hill
#
# Bulk Modulus (GPa) = 36.18915 61.43204 48.81059
# Shear Modulus (GPa) = 25.26605 50.47155 37.86880
#
# Velocity S-wave (km/s) = 3.48763 4.92929 4.26975
# Velocity P-wave (km/s) = 5.80001 7.87221 6.91418
#
# Compressibility (1/GPa) = 0.02763259
#
# Stress axis : x y z
#
# Youngs Moduli (GPa) = 66.26023 83.66722 29.88035
#
# Poissons Ratio (x) = 0.59610 0.13019
# Poissons Ratio (y) = 0.47208 0.14813
# Poissons Ratio (z) = 0.28870 0.41478
#
# Static dielectric constant tensor:
#      x y z
#    x 1.697310 0.000000 0.000000 
#    y 0.000000 1.931890 0.000000 
#    z 0.000000 0.000000 1.305670 
# 
# From -- ./inp_files/10517.got.cif
#   From: 2010.05.17/outbox.cif.g08.bks.cpg/sg20_6_cif.got.tgz:10517.got - 2010.06.03 22:52:26.
