data_PCOD9318167
_publ_section_title
;
Structure prediction by ZEFSAII (Michael W. Deem and Ramdas Pophale) SiO2 
 PCOD9318167
Probable space group: C 2 2 21
;
_chemical_formula_sum "Si O2"
_cell_formula_units_Z 56
_cell_length_a 18.121024
_cell_length_b 16.256059
_cell_length_c 8.424321
_cell_angle_alpha 90.000000
_cell_angle_beta 90.000000
_cell_angle_gamma 90.000000
_cell_volume 2481.606450
_symmetry_space_group_name_H-M "C 2 2 21"
_symmetry_group_IT_number 20
_symmetry_cell_setting 'orthorhombic'
loop_
_space_group_symop_operation_xyz
x,y,z
-x,-y,1/2+z
x,-y,-z
-x,y,1/2-z
1/2+x,1/2+y,z
1/2-x,1/2-y,1/2+z
1/2+x,1/2-y,-z
1/2-x,1/2+y,1/2-z
loop_
_atom_site_type_symbol
_atom_site_label
_atom_site_fract_x
_atom_site_fract_y
_atom_site_fract_z
Si Si1 0.092486 0.358039 0.106532
Si Si2 0.737248 0.902570 0.012457
Si Si3 0.119905 0.047684 0.340858
Si Si4 0.075574 0.408147 0.445029
Si Si5 0.444886 0.252105 0.114445
Si Si6 0.336311 0.624762 0.707805
Si Si7 0.424589 0.326450 0.591168
O O1 0.158119 0.362945 0.979541
O O2 0.105863 0.407192 0.266897
O O3 0.087861 0.263932 0.160490
O O4 0.013260 0.391409 0.051726
O O5 0.761140 0.871317 0.188547
O O6 0.809869 0.898064 0.902219
O O7 0.722811 0.000000 0.000000
O O8 0.074413 0.106305 0.227528
O O9 0.090346 0.000000 0.500000
O O10 0.143424 0.970755 0.232056
O O11 0.091354 0.500000 0.500000
O O12 0.098402 0.324754 0.537187
O O13 0.500000 0.217864 0.250000
O O14 0.390042 0.315572 0.194515
O O15 0.499558 0.308040 0.005204
O O16 0.357152 0.649602 0.528326
#
# Coordination Sequence:
#
# PCOD9318167 Si02
#       7
#     8   8   8   8   8   8   8
#     4  10  22  38  63  92 122 165 207 265 331 376
#     4   9  20  40  60  87 128 165 211 262 312 378
#     4   9  20  37  62  86 126 173 207 261 311 371
#     4  10  22  39  64  92 121 164 211 270 326 394
#     4   9  20  38  63  90 132 164 211 273 322 380
#     4   9  19  39  61  88 125 173 206 260 319 374
#     4  10  20  38  62  93 127 164 219 265 315 388
#
# _framework density 22.566029
#
# number of rings (size 3 to 8) (size 9 to 14) (size 15 to 20)
#    0.000    2.857    0.000    0.857    6.000    1.143 
#    2.571   21.429    0.000    0.000    0.000    0.000 
#    0.000    0.000    0.000    0.000    0.000    0.000 
#
# Total GULP energy -155886.869732 kJ/mol
# GULP energy per Si atom -5567.388205 kJ/mol
# Density = 2.251467 g / cm^3
# Si number density = 22.566029 Si / 1000 Ang^3
#
#
#
# Elastic Constant Matrix: (Units=GPa)
#
#
# Indices 1 2 3 4 5 6 
#
# 1 65.5569 16.1852 16.4565 0.0000 0.0000 0.0000
# 2 16.1852 33.6934 14.8972 0.0000 0.0000 0.0000
# 3 16.4565 14.8972 71.9899 0.0000 0.0000 0.0000
# 4 0.0000 0.0000 0.0000 41.3327 0.0000 0.0000
# 5 0.0000 0.0000 0.0000 0.0000 12.1342 0.0000
# 6 0.0000 0.0000 0.0000 0.0000 0.0000 205.8925
#
#
#
# Elastic Compliance Matrix: (Units=1/GPa)
#
#
# Indices 1 2 3 4 5 6 
#
# 1 0.017712 -0.007395 -0.002519 0.000000 0.000000 0.000000
# 2 -0.007395 0.035756 -0.005709 0.000000 0.000000 0.000000
# 3 -0.002519 -0.005709 0.015648 0.000000 0.000000 0.000000
# 4 0.000000 0.000000 0.000000 0.024194 0.000000 0.000000
# 5 0.000000 0.000000 0.000000 0.000000 0.082412 0.000000
# 6 0.000000 0.000000 0.000000 0.000000 0.000000 0.004857
#
#
# Mechanical properties :
#
#
# Convention : Reuss Voigt Hill
#
# Bulk Modulus (GPa) = 26.40512 29.59091 27.99802
# Shear Modulus (GPa) = 22.27709 60.11862 41.19785
#
# Velocity S-wave (km/s) = 3.14538 5.16711 4.27741
# Velocity P-wave (km/s) = 4.99178 6.98142 6.06869
#
# Compressibility (1/GPa) = 0.03787144
#
# Stress axis : x y z
#
# Youngs Moduli (GPa) = 56.45952 27.96763 63.90629
#
# Poissons Ratio (x) = 0.20681 0.16096
# Poissons Ratio (y) = 0.41750 0.36482
# Poissons Ratio (z) = 0.14220 0.15966
#
# Static dielectric constant tensor:
#      x y z
#    x 2.022480 0.000000 0.000000 
#    y 0.000000 1.791270 0.000000 
#    z 0.000000 0.000000 0.950490 
# 
# From -- ./inp_files/10222.got.cif
#   From: 2010.05.17/outbox.cif.g08.bks.cpg/sg20_6_cif.got.tgz:10222.got - 2010.06.03 22:52:26.
