data_PCOD9318083
_publ_section_title
;
Structure prediction by ZEFSAII (Michael W. Deem and Ramdas Pophale) SiO2 
 PCOD9318083
Probable space group: C 2 2 21
;
_chemical_formula_sum "Si O2"
_cell_formula_units_Z 56
_cell_length_a 15.331552
_cell_length_b 37.911920
_cell_length_c 5.202276
_cell_angle_alpha 90.000000
_cell_angle_beta 90.000000
_cell_angle_gamma 90.000000
_cell_volume 3023.815501
_symmetry_space_group_name_H-M "C 2 2 21"
_symmetry_group_IT_number 20
_symmetry_cell_setting 'orthorhombic'
loop_
_space_group_symop_operation_xyz
x,y,z
-x,-y,1/2+z
x,-y,-z
-x,y,1/2-z
1/2+x,1/2+y,z
1/2-x,1/2-y,1/2+z
1/2+x,1/2-y,-z
1/2-x,1/2+y,1/2-z
loop_
_atom_site_type_symbol
_atom_site_label
_atom_site_fract_x
_atom_site_fract_y
_atom_site_fract_z
Si Si1 0.213961 0.109048 0.630744
Si Si2 0.899497 0.178607 0.852401
Si Si3 0.699633 0.749424 0.800525
Si Si4 0.123026 0.086411 0.107563
Si Si5 0.000000 0.145640 0.250000
Si Si6 0.500000 0.476353 0.750000
Si Si7 0.901696 0.632134 0.719510
Si Si8 0.596531 0.180888 0.281364
O O1 0.172004 0.147785 0.698440
O O2 0.185220 0.099969 0.339870
O O3 0.316658 0.108160 0.688946
O O4 0.169116 0.083306 0.834975
O O5 0.860079 0.215758 0.768479
O O6 0.000000 0.175259 0.750000
O O7 0.923191 0.170875 0.150239
O O8 0.781171 0.747168 0.603743
O O9 0.660012 0.786607 0.719226
O O10 0.079464 0.050187 0.192381
O O11 0.048070 0.116573 0.071028
O O12 0.515854 0.500000 0.500000
O O13 0.895771 0.655701 0.463801
O O14 0.000000 0.616624 0.750000
O O15 0.892424 0.657561 0.965205
O O16 0.500000 0.196367 0.250000
#
# Coordination Sequence:
#
# PCOD9318083 Si02
#       8
#     8   8   8   8   4   4   8   8
#     4  11  20  35  56  83 113 145 183 233 283 325
#     4  11  22  35  55  75 103 137 182 226 283 353
#     4  12  26  38  50  70  97 132 180 237 288 343
#     4  10  21  35  57  84 121 148 186 225 265 310
#     4   9  20  36  52  80 106 138 176 222 276 328
#     4  11  22  38  60  88 128 172 198 212 252 318
#     4  10  21  37  60  78 106 142 186 233 296 352
#     4  10  20  38  52  70  95 134 177 233 296 355
#
# _framework density 18.519649000000001
#
# number of rings (size 3 to 8) (size 9 to 14) (size 15 to 20)
#    0.000    1.429    1.429    4.714    2.000    1.143 
#    3.857    0.000    0.000    0.000    0.000    0.000 
#    0.000   11.429    0.000    0.000    0.000    0.000 
#
# Total GULP energy -156007.342933 kJ/mol
# GULP energy per Si atom -5571.690819 kJ/mol
# Density = 1.847750 g / cm^3
# Si number density = 18.519649 Si / 1000 Ang^3
#
#
#
# Elastic Constant Matrix: (Units=GPa)
#
#
# Indices 1 2 3 4 5 6 
#
# 1 73.3277 15.6745 -2.7490 0.0000 0.0000 0.0000
# 2 15.6745 46.1750 11.2115 0.0000 0.0000 0.0000
# 3 -2.7490 11.2115 81.0827 0.0000 0.0000 0.0000
# 4 0.0000 0.0000 0.0000 22.1354 0.0000 0.0000
# 5 0.0000 0.0000 0.0000 0.0000 23.5872 0.0000
# 6 0.0000 0.0000 0.0000 0.0000 0.0000 7.2116
#
#
#
# Elastic Compliance Matrix: (Units=1/GPa)
#
#
# Indices 1 2 3 4 5 6 
#
# 1 0.014824 -0.005333 0.001240 0.000000 0.000000 0.000000
# 2 -0.005333 0.024328 -0.003545 0.000000 0.000000 0.000000
# 3 0.001240 -0.003545 0.012865 0.000000 0.000000 0.000000
# 4 0.000000 0.000000 0.000000 0.045176 0.000000 0.000000
# 5 0.000000 0.000000 0.000000 0.000000 0.042396 0.000000
# 6 0.000000 0.000000 0.000000 0.000000 0.000000 0.138665
#
#
# Mechanical properties :
#
#
# Convention : Reuss Voigt Hill
#
# Bulk Modulus (GPa) = 27.21733 27.65104 27.43419
# Shear Modulus (GPa) = 16.35176 22.35007 19.35092
#
# Velocity S-wave (km/s) = 2.97466 3.47772 3.23598
# Velocity P-wave (km/s) = 5.15039 5.57576 5.36729
#
# Compressibility (1/GPa) = 0.03674129
#
# Stress axis : x y z
#
# Youngs Moduli (GPa) = 67.45851 41.10521 77.72871
#
# Poissons Ratio (x) = 0.21922 -0.09639
# Poissons Ratio (y) = 0.35977 0.27552
# Poissons Ratio (z) = -0.08365 0.14570
#
# Static dielectric constant tensor:
#      x y z
#    x 1.687900 0.000000 0.000000 
#    y 0.000000 1.593290 0.000000 
#    z 0.000000 0.000000 1.786090 
# 
# From -- ./inp_files/2253.got.cif
#   From: 2010.05.17/outbox.cif.g08.bks.cpg/sg20_2_cif.got.tgz:2253.got - 2010.06.03 22:52:26.
