data_PCOD9318423
_publ_section_title
;
Structure prediction by ZEFSAII (Michael W. Deem and Ramdas Pophale) SiO2 
 PCOD9318423
Probable space group: C 2 2 21
;
_chemical_formula_sum "Si O2"
_cell_formula_units_Z 60
_cell_length_a 18.316399
_cell_length_b 30.161970
_cell_length_c 5.398686
_cell_angle_alpha 90.000000
_cell_angle_beta 90.000000
_cell_angle_gamma 90.000000
_cell_volume 2982.550926
_symmetry_space_group_name_H-M "C 2 2 21"
_symmetry_group_IT_number 20
_symmetry_cell_setting 'orthorhombic'
loop_
_space_group_symop_operation_xyz
x,y,z
-x,-y,1/2+z
x,-y,-z
-x,y,1/2-z
1/2+x,1/2+y,z
1/2-x,1/2-y,1/2+z
1/2+x,1/2-y,-z
1/2-x,1/2+y,1/2-z
loop_
_atom_site_type_symbol
_atom_site_label
_atom_site_fract_x
_atom_site_fract_y
_atom_site_fract_z
Si Si1 0.660214 0.928380 0.671095
Si Si2 0.415532 0.528864 0.749857
Si Si3 0.584106 0.786506 0.314496
Si Si4 0.045069 0.627219 0.495785
Si Si5 0.718035 0.270422 0.691935
Si Si6 0.303832 0.151692 0.515875
Si Si7 0.772689 0.076414 0.708714
Si Si8 0.685170 0.000000 0.000000
O O1 0.605596 0.910550 0.464328
O O2 0.741320 0.933392 0.563421
O O3 0.660132 0.887369 0.858864
O O4 0.638998 0.974040 0.796425
O O5 0.403382 0.500000 0.500000
O O6 0.500000 0.543017 0.750000
O O7 0.357940 0.568651 0.739010
O O8 0.403761 0.500000 0.000000
O O9 0.500000 0.775783 0.250000
O O10 0.577641 0.822871 0.534449
O O11 0.633570 0.743077 0.348766
O O12 0.633716 0.815932 0.123641
O O13 0.000000 0.616216 0.250000
O O14 0.000000 0.629495 0.750000
O O15 0.758061 0.242821 0.470199
O O16 0.746459 0.319686 0.641776
O O17 0.256769 0.124879 0.719433
O O18 0.734096 0.038304 0.875728
#
# Coordination Sequence:
#
# PCOD9318423 Si02
#       8
#     8   8   8   8   8   8   8   4
#     4  11  21  37  62  87 121 164 212 258 318 363
#     4  10  21  38  61  89 120 155 203 256 306 359
#     4  10  20  40  65  93 121 164 213 261 307 371
#     4  11  23  38  62  88 122 159 212 262 308 360
#     4  10  22  39  62  90 127 159 204 256 316 374
#     4  10  22  38  61  93 125 162 205 257 318 372
#     4  11  21  37  62  88 123 161 206 259 307 369
#     4  10  22  34  60  88 118 154 216 258 300 368
#
# _framework density 20.117007000000001
#
# number of rings (size 3 to 8) (size 9 to 14) (size 15 to 20)
#    0.000    1.600    2.000    3.600    5.600    2.133 
#    0.000    0.000    5.867    0.000    0.000    0.000 
#    0.000    0.000    0.000    0.000    0.000    0.000 
#
# Total GULP energy -167263.605611 kJ/mol
# GULP energy per Si atom -5575.453520 kJ/mol
# Density = 2.007122 g / cm^3
# Si number density = 20.117007 Si / 1000 Ang^3
#
#
#
# Elastic Constant Matrix: (Units=GPa)
#
#
# Indices 1 2 3 4 5 6 
#
# 1 130.5358 28.2226 10.6366 0.0000 0.0000 0.0000
# 2 28.2226 54.9652 1.4714 0.0000 0.0000 0.0000
# 3 10.6366 1.4714 65.4229 0.0000 0.0000 0.0000
# 4 0.0000 0.0000 0.0000 26.4601 0.0000 0.0000
# 5 0.0000 0.0000 0.0000 0.0000 20.0897 0.0000
# 6 0.0000 0.0000 0.0000 0.0000 0.0000 22.8761
#
#
#
# Elastic Compliance Matrix: (Units=1/GPa)
#
#
# Indices 1 2 3 4 5 6 
#
# 1 0.008730 -0.004447 -0.001319 0.000000 0.000000 0.000000
# 2 -0.004447 0.020470 0.000263 0.000000 0.000000 0.000000
# 3 -0.001319 0.000263 0.015494 0.000000 0.000000 0.000000
# 4 0.000000 0.000000 0.000000 0.037793 0.000000 0.000000
# 5 0.000000 0.000000 0.000000 0.000000 0.049777 0.000000
# 6 0.000000 0.000000 0.000000 0.000000 0.000000 0.043714
#
#
# Mechanical properties :
#
#
# Convention : Reuss Voigt Hill
#
# Bulk Modulus (GPa) = 29.68613 36.84278 33.26446
# Shear Modulus (GPa) = 25.22547 27.92473 26.57510
#
# Velocity S-wave (km/s) = 3.54494 3.72978 3.63854
# Velocity P-wave (km/s) = 5.61643 6.07473 5.85007
#
# Compressibility (1/GPa) = 0.03368576
#
# Stress axis : x y z
#
# Youngs Moduli (GPa) = 114.55127 48.85265 64.54210
#
# Poissons Ratio (x) = 0.21725 0.08515
# Poissons Ratio (y) = 0.50942 -0.01695
# Poissons Ratio (z) = 0.15112 -0.01283
#
# Static dielectric constant tensor:
#      x y z
#    x 1.775810 0.000000 0.000000 
#    y 0.000000 1.708590 0.000000 
#    z 0.000000 0.000000 1.815430 
# 
# From -- ./inp_files/2899.got.cif
#   From: 2010.05.17/outbox.cif.g08.bks.cpg/sg20_2_cif.got.tgz:2899.got - 2010.06.03 22:52:26.
