data_PCOD9318506
_publ_section_title
;
Structure prediction by ZEFSAII (Michael W. Deem and Ramdas Pophale) SiO2 
 PCOD9318506
Probable space group: C 2 2 21
;
_chemical_formula_sum "Si O2"
_cell_formula_units_Z 64
_cell_length_a 17.961371
_cell_length_b 5.735542
_cell_length_c 28.035444
_cell_angle_alpha 90.000000
_cell_angle_beta 90.000000
_cell_angle_gamma 90.000000
_cell_volume 2888.160914
_symmetry_space_group_name_H-M "C 2 2 21"
_symmetry_group_IT_number 20
_symmetry_cell_setting 'orthorhombic'
loop_
_space_group_symop_operation_xyz
x,y,z
-x,-y,1/2+z
x,-y,-z
-x,y,1/2-z
1/2+x,1/2+y,z
1/2-x,1/2-y,1/2+z
1/2+x,1/2-y,-z
1/2-x,1/2+y,1/2-z
loop_
_atom_site_type_symbol
_atom_site_label
_atom_site_fract_x
_atom_site_fract_y
_atom_site_fract_z
Si Si1 0.663744 0.271382 0.368652
Si Si2 0.564666 0.689634 0.223692
Si Si3 0.548687 0.348637 0.589505
Si Si4 0.281235 0.794622 0.229153
Si Si5 0.731219 0.155195 0.126067
Si Si6 0.825879 0.612551 0.950767
Si Si7 0.963326 0.455372 0.829928
Si Si8 0.578691 0.590285 0.868969
O O1 0.607504 0.471149 0.387490
O O2 0.743717 0.391397 0.361207
O O3 0.669536 0.091348 0.411674
O O4 0.618921 0.157424 0.324311
O O5 0.500000 0.536817 0.250000
O O6 0.631844 0.753980 0.258403
O O7 0.597614 0.578569 0.175455
O O8 0.515154 0.906196 0.206147
O O9 0.465479 0.455226 0.588649
O O10 0.593523 0.240490 0.544903
O O11 0.544644 0.140510 0.627423
O O12 0.244716 0.546398 0.248892
O O13 0.263830 0.791331 0.172409
O O14 0.769304 0.212870 0.075359
O O15 0.647305 0.241653 0.120489
O O16 0.802073 0.500000 0.000000
O O17 0.014467 0.248599 0.847542
#
# Coordination Sequence:
#
# PCOD9318506 Si02
#       8
#     8   8   8   8   8   8   8   8
#     4   9  20  37  65  93 126 166 224 277 350 420
#     4  11  25  37  61  94 132 180 239 296 342 415
#     4   8  18  36  62  92 122 163 214 271 343 410
#     4  12  28  47  65 101 148 197 249 297 372 445
#     4  11  24  39  67  96 136 187 225 293 361 439
#     4  10  22  41  69 102 129 170 230 297 361 432
#     4   9  19  37  60  84 126 169 223 282 330 413
#     4  10  20  41  59  90 128 175 221 278 351 421
#
# _framework density 22.159427999999998
#
# number of rings (size 3 to 8) (size 9 to 14) (size 15 to 20)
#    0.000    2.000    1.250    0.750   12.250    4.500 
#    0.000    0.000    8.250    0.000    0.000    0.000 
#    0.000    0.000    0.000    0.000    0.000    0.000 
#
# Total GULP energy -178248.411008 kJ/mol
# GULP energy per Si atom -5570.262844 kJ/mol
# Density = 2.210899 g / cm^3
# Si number density = 22.159428 Si / 1000 Ang^3
#
#
#
# Elastic Constant Matrix: (Units=GPa)
#
#
# Indices 1 2 3 4 5 6 
#
# 1 144.0250 29.5856 13.1516 0.0000 0.0000 0.0000
# 2 29.5856 68.4755 2.3890 0.0000 0.0000 0.0000
# 3 13.1516 2.3890 30.4038 0.0000 0.0000 0.0000
# 4 0.0000 0.0000 0.0000 6.2889 0.0000 0.0000
# 5 0.0000 0.0000 0.0000 0.0000 20.6321 0.0000
# 6 0.0000 0.0000 0.0000 0.0000 0.0000 40.4255
#
#
#
# Elastic Compliance Matrix: (Units=1/GPa)
#
#
# Indices 1 2 3 4 5 6 
#
# 1 0.007912 -0.003308 -0.003162 0.000000 0.000000 0.000000
# 2 -0.003308 0.016027 0.000172 0.000000 0.000000 0.000000
# 3 -0.003162 0.000172 0.034245 0.000000 0.000000 0.000000
# 4 0.000000 0.000000 0.000000 0.159009 0.000000 0.000000
# 5 0.000000 0.000000 0.000000 0.000000 0.048468 0.000000
# 6 0.000000 0.000000 0.000000 0.000000 0.000000 0.024737
#
#
# Mechanical properties :
#
#
# Convention : Reuss Voigt Hill
#
# Bulk Modulus (GPa) = 21.93647 37.01739 29.47693
# Shear Modulus (GPa) = 15.71385 26.65451 21.18418
#
# Velocity S-wave (km/s) = 2.66583 3.47198 3.09526
# Velocity P-wave (km/s) = 4.40414 5.72836 5.10933
#
# Compressibility (1/GPa) = 0.04558619
#
# Stress axis : x y z
#
# Youngs Moduli (GPa) = 126.39799 62.39467 29.20132
#
# Poissons Ratio (x) = 0.20640 0.09234
# Poissons Ratio (y) = 0.41812 -0.00501
# Poissons Ratio (z) = 0.39971 -0.01070
#
# Static dielectric constant tensor:
#      x y z
#    x 1.870080 0.000000 0.000000 
#    y 0.000000 1.957330 0.000000 
#    z 0.000000 0.000000 2.111550 
# 
# From -- ./inp_files/31362.got.cif
#   From: 2010.05.17/outbox.cif.g08.bks.cpg/sg20_16_cif.got.tgz:31362.got - 2010.06.03 22:52:26.
