data_PCOD9318887
_publ_section_title
;
Structure prediction by ZEFSAII (Michael W. Deem and Ramdas Pophale) SiO2 
 PCOD9318887
Probable space group: C 2 2 21
;
_chemical_formula_sum "Si O2"
_cell_formula_units_Z 60
_cell_length_a 18.764595
_cell_length_b 5.069374
_cell_length_c 26.462476
_cell_angle_alpha 90.000000
_cell_angle_beta 90.000000
_cell_angle_gamma 90.000000
_cell_volume 2517.236414
_symmetry_space_group_name_H-M "C 2 2 21"
_symmetry_group_IT_number 20
_symmetry_cell_setting 'orthorhombic'
loop_
_space_group_symop_operation_xyz
x,y,z
-x,-y,1/2+z
x,-y,-z
-x,y,1/2-z
1/2+x,1/2+y,z
1/2-x,1/2-y,1/2+z
1/2+x,1/2-y,-z
1/2-x,1/2+y,1/2-z
loop_
_atom_site_type_symbol
_atom_site_label
_atom_site_fract_x
_atom_site_fract_y
_atom_site_fract_z
Si Si1 0.326773 0.415311 0.571440
Si Si2 0.618338 0.000000 0.000000
Si Si3 0.226109 0.725633 0.629705
Si Si4 0.972751 0.914399 0.551099
Si Si5 0.862102 0.434591 0.335736
Si Si6 0.421849 0.528473 0.143649
Si Si7 0.016712 0.532419 0.308013
Si Si8 0.711358 0.984587 0.736628
O O1 0.510444 0.500000 0.500000
O O2 0.253672 0.562897 0.581824
O O3 0.396836 0.584819 0.553321
O O4 0.322452 0.813372 0.469897
O O5 0.557727 0.877031 0.040169
O O6 0.157303 0.907665 0.624535
O O7 0.207431 0.542125 0.677682
O O8 0.297090 0.884573 0.645655
O O9 0.853197 0.812486 0.626768
O O10 0.022357 0.948027 0.598028
O O11 0.941640 0.543456 0.338005
O O12 0.847254 0.403980 0.275708
O O13 0.430708 0.247911 0.169366
O O14 0.449060 0.747177 0.183352
O O15 0.000000 0.587644 0.250000
O O16 0.777438 0.174253 0.754024
#
# Coordination Sequence:
#
# PCOD9318887 Si02
#       8
#     8   4   8   8   8   8   8   8
#     4  10  21  41  73 104 135 190 253 312 372 450
#     4   8  22  38  74 102 128 178 260 310 376 426
#     4  11  25  41  70 105 154 190 247 306 385 452
#     4  10  23  44  77 103 139 192 258 319 381 455
#     4  11  23  41  72 101 146 197 256 297 365 448
#     4  12  28  46  74 110 154 198 243 316 394 451
#     4  12  27  47  72 111 156 205 259 306 368 458
#     4  10  21  37  62 102 144 191 237 295 361 436
#
# _framework density 23.835664999999999
#
# number of rings (size 3 to 8) (size 9 to 14) (size 15 to 20)
#    0.800    0.533    2.667    2.000    7.467    4.267 
#    0.000    0.000    8.800    0.000    0.000    0.000 
#    0.000    0.000    0.000    0.000    0.000    0.000 
#
# Total GULP energy -167215.688768 kJ/mol
# GULP energy per Si atom -5573.856292 kJ/mol
# Density = 2.378141 g / cm^3
# Si number density = 23.835665 Si / 1000 Ang^3
#
#
#
# Elastic Constant Matrix: (Units=GPa)
#
#
# Indices 1 2 3 4 5 6 
#
# 1 132.6245 22.3187 21.2324 0.0000 0.0000 0.0000
# 2 22.3187 64.8075 14.7793 0.0000 0.0000 0.0000
# 3 21.2324 14.7793 94.0126 0.0000 0.0000 0.0000
# 4 0.0000 0.0000 0.0000 43.3264 0.0000 0.0000
# 5 0.0000 0.0000 0.0000 0.0000 37.3011 0.0000
# 6 0.0000 0.0000 0.0000 0.0000 0.0000 34.9184
#
#
#
# Elastic Compliance Matrix: (Units=1/GPa)
#
#
# Indices 1 2 3 4 5 6 
#
# 1 0.008192 -0.002489 -0.001459 0.000000 0.000000 0.000000
# 2 -0.002489 0.016760 -0.002073 0.000000 0.000000 0.000000
# 3 -0.001459 -0.002073 0.011292 0.000000 0.000000 0.000000
# 4 0.000000 0.000000 0.000000 0.023081 0.000000 0.000000
# 5 0.000000 0.000000 0.000000 0.000000 0.026809 0.000000
# 6 0.000000 0.000000 0.000000 0.000000 0.000000 0.028638
#
#
# Mechanical properties :
#
#
# Convention : Reuss Voigt Hill
#
# Bulk Modulus (GPa) = 41.31546 45.34503 43.33025
# Shear Modulus (GPa) = 37.06968 38.65013 37.85990
#
# Velocity S-wave (km/s) = 3.94790 4.03118 3.98976
# Velocity P-wave (km/s) = 6.17676 6.38221 6.28032
#
# Compressibility (1/GPa) = 0.02420401
#
# Stress axis : x y z
#
# Youngs Moduli (GPa) = 122.06341 59.66572 88.55648
#
# Poissons Ratio (x) = 0.14849 0.12920
# Poissons Ratio (y) = 0.30377 0.18355
# Poissons Ratio (z) = 0.17809 0.12367
#
# Static dielectric constant tensor:
#      x y z
#    x 1.934930 0.000000 0.000000 
#    y 0.000000 1.557000 0.000000 
#    z 0.000000 0.000000 1.859820 
# 
# From -- ./inp_files/30516.got.cif
#   From: 2010.05.17/outbox.cif.g08.bks.cpg/sg20_16_cif.got.tgz:30516.got - 2010.06.03 22:52:26.
