data_PCOD9318369
_publ_section_title
;
Structure prediction by ZEFSAII (Michael W. Deem and Ramdas Pophale) SiO2 
 PCOD9318369
Probable space group: C 2 2 21
;
_chemical_formula_sum "Si O2"
_cell_formula_units_Z 48
_cell_length_a 5.234880
_cell_length_b 17.785663
_cell_length_c 19.524911
_cell_angle_alpha 90.000000
_cell_angle_beta 90.000000
_cell_angle_gamma 90.000000
_cell_volume 1817.882684
_symmetry_space_group_name_H-M "C 2 2 21"
_symmetry_group_IT_number 20
_symmetry_cell_setting 'orthorhombic'
loop_
_space_group_symop_operation_xyz
x,y,z
-x,-y,1/2+z
x,-y,-z
-x,y,1/2-z
1/2+x,1/2+y,z
1/2-x,1/2-y,1/2+z
1/2+x,1/2-y,-z
1/2-x,1/2+y,1/2-z
loop_
_atom_site_type_symbol
_atom_site_label
_atom_site_fract_x
_atom_site_fract_y
_atom_site_fract_z
Si Si1 0.667122 0.291667 0.971429
Si Si2 0.620949 0.125195 0.858079
Si Si3 0.106616 0.769123 0.672483
Si Si4 0.519070 0.434335 0.459287
Si Si5 0.302704 0.996705 0.836777
Si Si6 0.500000 0.863706 0.750000
Si Si7 0.000000 0.884905 0.250000
O O1 0.567640 0.295981 0.891865
O O2 0.946820 0.257353 0.988653
O O3 0.659887 0.377236 0.999221
O O4 0.381373 0.180785 0.850076
O O5 0.772617 0.122027 0.927830
O O6 0.577502 0.036030 0.847379
O O7 0.821968 0.157439 0.803071
O O8 0.361436 0.815891 0.689628
O O9 0.000000 0.772877 0.750000
O O10 0.658837 0.500000 0.500000
O O11 0.351967 0.483945 0.405708
O O12 0.183927 0.057765 0.787004
O O13 0.319562 0.919676 0.795238
#
# Coordination Sequence:
#
# PCOD9318369 Si02
#       7
#     8   8   8   8   8   4   4
#     4  12  29  57  85 122 179 231 291 359 438 531
#     4  11  23  49  75 112 158 214 276 338 421 523
#     4  12  30  48  83 124 172 221 286 363 444 518
#     4  11  28  46  83 116 157 222 289 347 424 517
#     4  11  24  46  78 111 160 214 268 350 420 508
#     4  12  30  47  80 123 174 210 284 372 443 504
#     4  10  20  39  80 103 150 200 272 320 421 488
#
# _framework density 26.404346
#
# number of rings (size 3 to 8) (size 9 to 14) (size 15 to 20)
#    0.000    0.667    3.333    2.000    8.167    6.000 
#    0.000    0.000    0.000    0.000    0.000    0.000 
#    0.000    0.000    0.000    0.000    0.000    0.000 
#
# Total GULP energy -133834.949014 kJ/mol
# GULP energy per Si atom -5576.456209 kJ/mol
# Density = 2.634425 g / cm^3
# Si number density = 26.404346 Si / 1000 Ang^3
#
#
#
# Elastic Constant Matrix: (Units=GPa)
#
#
# Indices 1 2 3 4 5 6 
#
# 1 85.0454 36.6980 21.8609 0.0000 0.0000 0.0000
# 2 36.6980 139.7994 51.5658 0.0000 0.0000 0.0000
# 3 21.8609 51.5658 131.7350 0.0000 0.0000 0.0000
# 4 0.0000 0.0000 0.0000 14.8093 0.0000 0.0000
# 5 0.0000 0.0000 0.0000 0.0000 19.6952 0.0000
# 6 0.0000 0.0000 0.0000 0.0000 0.0000 -119.2492
#
#
#
# Elastic Compliance Matrix: (Units=1/GPa)
#
#
# Indices 1 2 3 4 5 6 
#
# 1 0.013369 -0.003145 -0.000987 0.000000 0.000000 0.000000
# 2 -0.003145 0.009100 -0.003040 0.000000 0.000000 0.000000
# 3 -0.000987 -0.003040 0.008945 0.000000 0.000000 0.000000
# 4 0.000000 0.000000 0.000000 0.067525 0.000000 0.000000
# 5 0.000000 0.000000 0.000000 0.000000 0.050774 0.000000
# 6 0.000000 0.000000 0.000000 0.000000 0.000000 -0.008386
#
#
# Mechanical properties :
#
#
# Convention : Reuss Voigt Hill
#
# Bulk Modulus (GPa) = 58.58684 64.09212 61.33948
# Shear Modulus (GPa) = 30.98606 -0.51859 15.23373
#
# Velocity S-wave (km/s) = 3.42939 -0.44366 2.40456
# Velocity P-wave (km/s) = 6.15771 4.90546 5.56691
#
# Compressibility (1/GPa) = 0.01706868
#
# Stress axis : x y z
#
# Youngs Moduli (GPa) = 74.79724 109.88824 111.79572
#
# Poissons Ratio (x) = 0.34564 0.11039
# Poissons Ratio (y) = 0.23526 0.33988
# Poissons Ratio (z) = 0.07386 0.33408
#
# Static dielectric constant tensor:
#      x y z
#    x 3.501250 0.000000 0.000000 
#    y 0.000000 2.041350 0.000000 
#    z 0.000000 0.000000 3.616770 
# 
# From -- ./inp_files/28374.got.cif
#   From: 2010.05.17/outbox.cif.g08.bks.cpg/sg20_15_cif.got.tgz:28374.got - 2010.06.03 22:52:26.
