data_PCOD9318137
_publ_section_title
;
Structure prediction by ZEFSAII (Michael W. Deem and Ramdas Pophale) SiO2 
 PCOD9318137
Probable space group: C 2 2 21
;
_chemical_formula_sum "Si O2"
_cell_formula_units_Z 44
_cell_length_a 22.328684
_cell_length_b 9.023487
_cell_length_c 10.873740
_cell_angle_alpha 90.000000
_cell_angle_beta 90.000000
_cell_angle_gamma 90.000000
_cell_volume 2190.869296
_symmetry_space_group_name_H-M "C 2 2 21"
_symmetry_group_IT_number 20
_symmetry_cell_setting 'orthorhombic'
loop_
_space_group_symop_operation_xyz
x,y,z
-x,-y,1/2+z
x,-y,-z
-x,y,1/2-z
1/2+x,1/2+y,z
1/2-x,1/2-y,1/2+z
1/2+x,1/2-y,-z
1/2-x,1/2+y,1/2-z
loop_
_atom_site_type_symbol
_atom_site_label
_atom_site_fract_x
_atom_site_fract_y
_atom_site_fract_z
Si Si1 0.000000 0.457597 0.750000
Si Si2 0.523664 0.706158 0.559879
Si Si3 0.571878 0.776581 0.151149
Si Si4 0.760148 0.878513 0.855794
Si Si5 0.209435 0.305737 0.114686
Si Si6 0.000000 0.039465 0.250000
Si Si7 0.868778 0.000000 0.000000
O O1 0.024917 0.350827 0.644419
O O2 0.053137 0.564992 0.794665
O O3 0.478266 0.744572 0.451498
O O4 0.495548 0.570253 0.636198
O O5 0.588635 0.640030 0.528685
O O6 0.639107 0.770612 0.105277
O O7 0.557121 0.647316 0.249058
O O8 0.763705 0.788228 0.728915
O O9 0.824127 0.952062 0.890564
O O10 0.716648 0.020741 0.850200
O O11 0.740427 0.788970 0.980006
#
# Coordination Sequence:
#
# PCOD9318137 Si02
#       7
#     4   8   8   8   8   4   4
#     4  10  26  34  60  98 134 170 204 258 348 392
#     4  11  21  39  60  97 128 171 212 258 332 393
#     4  11  22  41  63  95 138 169 211 276 331 398
#     4  10  25  46  68  95 129 181 227 279 330 379
#     4  10  24  46  67  94 133 173 230 280 327 395
#     4  10  20  38  60  96 126 172 214 250 328 394
#     4  10  20  42  66  90 136 170 224 274 312 408
#
# _framework density 20.083352000000001
#
# number of rings (size 3 to 8) (size 9 to 14) (size 15 to 20)
#    0.000    1.818    1.818    1.636    7.636    3.636 
#   13.091    0.000    0.000    0.000    0.000    0.000 
#    0.000    0.000    0.000    0.000    0.000    0.000 
#
# Total GULP energy -122710.105743 kJ/mol
# GULP energy per Si atom -5577.732079 kJ/mol
# Density = 2.003764 g / cm^3
# Si number density = 20.083352 Si / 1000 Ang^3
#
#
#
# Elastic Constant Matrix: (Units=GPa)
#
#
# Indices 1 2 3 4 5 6 
#
# 1 111.2086 23.8340 38.5533 0.0000 0.0000 0.0000
# 2 23.8340 104.0302 47.4447 0.0000 0.0000 0.0000
# 3 38.5533 47.4447 114.9373 0.0000 0.0000 0.0000
# 4 0.0000 0.0000 0.0000 45.5125 0.0000 0.0000
# 5 0.0000 0.0000 0.0000 0.0000 16.4032 0.0000
# 6 0.0000 0.0000 0.0000 0.0000 0.0000 -86.2828
#
#
#
# Elastic Compliance Matrix: (Units=1/GPa)
#
#
# Indices 1 2 3 4 5 6 
#
# 1 0.010253 -0.000962 -0.003042 0.000000 0.000000 0.000000
# 2 -0.000962 0.011932 -0.004603 0.000000 0.000000 0.000000
# 3 -0.003042 -0.004603 0.011621 0.000000 0.000000 0.000000
# 4 0.000000 0.000000 0.000000 0.021972 0.000000 0.000000
# 5 0.000000 0.000000 0.000000 0.000000 0.060964 0.000000
# 6 0.000000 0.000000 0.000000 0.000000 0.000000 -0.011590
#
#
# Mechanical properties :
#
#
# Convention : Reuss Voigt Hill
#
# Bulk Modulus (GPa) = 60.26803 61.09333 60.68068
# Shear Modulus (GPa) = 39.09426 9.81617 24.45522
#
# Velocity S-wave (km/s) = 4.41682 2.21322 3.49332
# Velocity P-wave (km/s) = 7.48900 6.08416 6.82283
#
# Compressibility (1/GPa) = 0.01659254
#
# Stress axis : x y z
#
# Youngs Moduli (GPa) = 97.53394 83.80738 86.05225
#
# Poissons Ratio (x) = 0.08059 0.26179
# Poissons Ratio (y) = 0.09379 0.39609
# Poissons Ratio (z) = 0.29672 0.38576
#
# Static dielectric constant tensor:
#      x y z
#    x 1.708020 0.000000 0.000000 
#    y 0.000000 1.711650 0.000000 
#    z 0.000000 0.000000 1.998060 
# 
# From -- ./inp_files/13061.got.cif
#   From: 2010.05.17/outbox.cif.g08.bks.cpg/sg20_7_cif.got.tgz:13061.got - 2010.06.03 22:52:26.
