data_PCOD9318405
_publ_section_title
;
Structure prediction by ZEFSAII (Michael W. Deem and Ramdas Pophale) SiO2 
 PCOD9318405
Probable space group: C 2 2 21
;
_chemical_formula_sum "Si O2"
_cell_formula_units_Z 28
_cell_length_a 25.489779
_cell_length_b 6.222646
_cell_length_c 7.212453
_cell_angle_alpha 90.000000
_cell_angle_beta 90.000000
_cell_angle_gamma 90.000000
_cell_volume 1143.995092
_symmetry_space_group_name_H-M "C 2 2 21"
_symmetry_group_IT_number 20
_symmetry_cell_setting 'orthorhombic'
loop_
_space_group_symop_operation_xyz
x,y,z
-x,-y,1/2+z
x,-y,-z
-x,y,1/2-z
1/2+x,1/2+y,z
1/2-x,1/2-y,1/2+z
1/2+x,1/2-y,-z
1/2-x,1/2+y,1/2-z
loop_
_atom_site_type_symbol
_atom_site_label
_atom_site_fract_x
_atom_site_fract_y
_atom_site_fract_z
Si Si1 0.947143 0.000000 0.000000
Si Si2 0.785792 0.000000 0.000000
Si Si3 0.500000 0.848553 0.250000
Si Si4 0.597890 0.878785 0.698754
Si Si5 0.201352 0.407786 0.302569
O O1 0.982350 0.813240 0.911334
O O2 0.914407 0.130437 0.843719
O O3 0.747136 0.104595 0.846649
O O4 0.816845 0.826818 0.876126
O O5 0.450863 0.002274 0.293286
O O6 0.600872 0.000000 0.500000
O O7 0.654737 0.942224 0.776036
O O8 0.220501 0.500000 0.500000
#
# Coordination Sequence:
#
# PCOD9318405 Si02
#       5
#     4   4   4   8   8
#     4  10  20  41  66  96 142 186 214 287 348 402
#     4  12  24  47  70 104 140 182 240 301 362 420
#     4  10  20  40  64 102 136 174 232 274 342 420
#     4   9  21  40  65  99 134 184 228 279 347 422
#     4  11  24  44  71 102 141 184 234 301 359 429
#
# _framework density 24.475625999999998
#
# number of rings (size 3 to 8) (size 9 to 14) (size 15 to 20)
#    0.000    1.714    2.857    0.857    0.000   10.286 
#   12.857    0.000    0.000    0.000    0.000    0.000 
#    0.000    0.000    0.000    0.000    0.000    0.000 
#
# Total GULP energy -78139.113895 kJ/mol
# GULP energy per Si atom -5581.365278 kJ/mol
# Density = 2.441992 g / cm^3
# Si number density = 24.475626 Si / 1000 Ang^3
#
#
#
# Elastic Constant Matrix: (Units=GPa)
#
#
# Indices 1 2 3 4 5 6 
#
# 1 120.1698 72.1422 32.0215 0.0000 0.0000 0.0000
# 2 72.1422 162.4233 27.2282 0.0000 0.0000 0.0000
# 3 32.0215 27.2282 74.4602 0.0000 0.0000 0.0000
# 4 0.0000 0.0000 0.0000 39.8443 0.0000 0.0000
# 5 0.0000 0.0000 0.0000 0.0000 25.0952 0.0000
# 6 0.0000 0.0000 0.0000 0.0000 0.0000 37.1651
#
#
#
# Elastic Compliance Matrix: (Units=1/GPa)
#
#
# Indices 1 2 3 4 5 6 
#
# 1 0.012129 -0.004808 -0.003458 0.000000 0.000000 0.000000
# 2 -0.004808 0.008464 -0.001028 0.000000 0.000000 0.000000
# 3 -0.003458 -0.001028 0.015293 0.000000 0.000000 0.000000
# 4 0.000000 0.000000 0.000000 0.025098 0.000000 0.000000
# 5 0.000000 0.000000 0.000000 0.000000 0.039848 0.000000
# 6 0.000000 0.000000 0.000000 0.000000 0.000000 0.026907
#
#
# Mechanical properties :
#
#
# Convention : Reuss Voigt Hill
#
# Bulk Modulus (GPa) = 57.80457 68.87078 63.33768
# Shear Modulus (GPa) = 32.87462 35.46501 34.16982
#
# Velocity S-wave (km/s) = 3.66889 3.81069 3.74046
# Velocity P-wave (km/s) = 6.45106 6.89648 6.67748
#
# Compressibility (1/GPa) = 0.01729967
#
# Stress axis : x y z
#
# Youngs Moduli (GPa) = 82.44548 118.14192 65.38960
#
# Poissons Ratio (x) = 0.56798 0.22613
# Poissons Ratio (y) = 0.39637 0.06720
# Poissons Ratio (z) = 0.28511 0.12142
#
# Static dielectric constant tensor:
#      x y z
#    x 2.053220 0.000000 0.000000 
#    y 0.000000 2.061600 0.000000 
#    z 0.000000 0.000000 1.966500 
# 
# From -- ./inp_files/5090.got.cif
#   From: 2010.05.17/outbox.cif.g08.bks.cpg/sg20_3_cif.got.tgz:5090.got - 2010.06.03 22:52:26.
