data_PCOD9318671
_publ_section_title
;
Structure prediction by ZEFSAII (Michael W. Deem and Ramdas Pophale) SiO2 
 PCOD9318671
Probable space group: C 2 2 21
;
_chemical_formula_sum "Si O2"
_cell_formula_units_Z 48
_cell_length_a 9.650666
_cell_length_b 28.805980
_cell_length_c 8.208329
_cell_angle_alpha 90.000000
_cell_angle_beta 90.000000
_cell_angle_gamma 90.000000
_cell_volume 2281.889949
_symmetry_space_group_name_H-M "C 2 2 21"
_symmetry_group_IT_number 20
_symmetry_cell_setting 'orthorhombic'
loop_
_space_group_symop_operation_xyz
x,y,z
-x,-y,1/2+z
x,-y,-z
-x,y,1/2-z
1/2+x,1/2+y,z
1/2-x,1/2-y,1/2+z
1/2+x,1/2-y,-z
1/2-x,1/2+y,1/2-z
loop_
_atom_site_type_symbol
_atom_site_label
_atom_site_fract_x
_atom_site_fract_y
_atom_site_fract_z
Si Si1 0.500000 0.561733 0.750000
Si Si2 0.876648 0.393166 0.471338
Si Si3 0.219968 0.481017 0.185817
Si Si4 0.431535 0.381057 0.922930
Si Si5 0.427838 0.284925 0.089121
Si Si6 0.000000 0.553954 0.250000
Si Si7 0.900671 0.714230 0.600107
O O1 0.632670 0.528962 0.760453
O O2 0.511541 0.592147 0.583844
O O3 0.851621 0.430504 0.329489
O O4 0.732100 0.391920 0.572285
O O5 0.905415 0.341278 0.416804
O O6 0.987818 0.414155 0.592760
O O7 0.128129 0.519191 0.272043
O O8 0.233981 0.500000 0.000000
O O9 0.500000 0.393264 0.750000
O O10 0.442273 0.325768 0.956065
O O11 0.500000 0.305107 0.250000
O O12 0.263796 0.273870 0.111900
O O13 0.522951 0.240882 0.045776
O O14 0.000000 0.727371 0.750000
#
# Coordination Sequence:
#
# PCOD9318671 Si02
#       7
#     4   8   8   8   8   4   8
#     4  10  20  44  71  98 132 184 221 288 336 410
#     4   9  22  42  63  94 134 173 225 278 335 413
#     4   9  20  42  66  90 138 168 226 285 337 407
#     4  10  21  43  69 101 140 176 228 278 335 409
#     4  11  23  43  68 101 140 181 225 280 344 408
#     4  10  20  44  61  90 130 178 213 292 338 404
#     4  11  24  43  68  97 138 181 228 284 339 412
#
# _framework density 21.035194000000001
#
# number of rings (size 3 to 8) (size 9 to 14) (size 15 to 20)
#    0.000    2.000    0.833    1.500    2.333    1.333 
#   25.500    0.000    0.000    0.000    0.000    0.000 
#    0.000    0.000    0.000    0.000    0.000    0.000 
#
# Total GULP energy -133980.551813 kJ/mol
# GULP energy per Si atom -5582.522992 kJ/mol
# Density = 2.098732 g / cm^3
# Si number density = 21.035194 Si / 1000 Ang^3
#
#
#
# Elastic Constant Matrix: (Units=GPa)
#
#
# Indices 1 2 3 4 5 6 
#
# 1 141.1400 40.1956 49.7779 0.0000 0.0000 0.0000
# 2 40.1956 84.5281 9.2322 0.0000 0.0000 0.0000
# 3 49.7779 9.2322 83.2490 0.0000 0.0000 0.0000
# 4 0.0000 0.0000 0.0000 26.5980 0.0000 0.0000
# 5 0.0000 0.0000 0.0000 0.0000 34.2360 0.0000
# 6 0.0000 0.0000 0.0000 0.0000 0.0000 23.3047
#
#
#
# Elastic Compliance Matrix: (Units=1/GPa)
#
#
# Indices 1 2 3 4 5 6 
#
# 1 0.010312 -0.004282 -0.005691 0.000000 0.000000 0.000000
# 2 -0.004282 0.013754 0.001035 0.000000 0.000000 0.000000
# 3 -0.005691 0.001035 0.015300 0.000000 0.000000 0.000000
# 4 0.000000 0.000000 0.000000 0.037597 0.000000 0.000000
# 5 0.000000 0.000000 0.000000 0.000000 0.029209 0.000000
# 6 0.000000 0.000000 0.000000 0.000000 0.000000 0.042910
#
#
# Mechanical properties :
#
#
# Convention : Reuss Voigt Hill
#
# Bulk Modulus (GPa) = 46.53353 56.36983 51.45168
# Shear Modulus (GPa) = 28.71583 30.80850 29.76217
#
# Velocity S-wave (km/s) = 3.69878 3.83118 3.76556
# Velocity P-wave (km/s) = 6.35697 6.81371 6.58930
#
# Compressibility (1/GPa) = 0.02148988
#
# Stress axis : x y z
#
# Youngs Moduli (GPa) = 96.97679 72.70864 65.35856
#
# Poissons Ratio (x) = 0.31134 0.37195
# Poissons Ratio (y) = 0.41525 -0.06765
# Poissons Ratio (z) = 0.55189 -0.07526
#
# Static dielectric constant tensor:
#      x y z
#    x 1.743460 0.000000 0.000000 
#    y 0.000000 1.752450 0.000000 
#    z 0.000000 0.000000 1.815770 
# 
# From -- ./inp_files/6574.got.cif
#   From: 2010.05.17/outbox.cif.g08.bks.cpg/sg20_4_cif.got.tgz:6574.got - 2010.06.03 22:52:26.
