data_PCOD9318660
_publ_section_title
;
Structure prediction by ZEFSAII (Michael W. Deem and Ramdas Pophale) SiO2 
 PCOD9318660
Probable space group: C 2 2 21
;
_chemical_formula_sum "Si O2"
_cell_formula_units_Z 36
_cell_length_a 12.696215
_cell_length_b 7.959188
_cell_length_c 14.813226
_cell_angle_alpha 90.000000
_cell_angle_beta 90.000000
_cell_angle_gamma 90.000000
_cell_volume 1496.899627
_symmetry_space_group_name_H-M "C 2 2 21"
_symmetry_group_IT_number 20
_symmetry_cell_setting 'orthorhombic'
loop_
_space_group_symop_operation_xyz
x,y,z
-x,-y,1/2+z
x,-y,-z
-x,y,1/2-z
1/2+x,1/2+y,z
1/2-x,1/2-y,1/2+z
1/2+x,1/2-y,-z
1/2-x,1/2+y,1/2-z
loop_
_atom_site_type_symbol
_atom_site_label
_atom_site_fract_x
_atom_site_fract_y
_atom_site_fract_z
Si Si1 0.439623 0.520388 0.395041
Si Si2 0.351078 0.264511 0.867702
Si Si3 0.060654 0.312770 0.665373
Si Si4 0.639696 0.000000 0.500000
Si Si5 0.275116 0.439763 0.239774
O O1 0.408303 0.500000 0.500000
O O2 0.530067 0.664117 0.381038
O O3 0.496991 0.347995 0.369522
O O4 0.346367 0.521741 0.320955
O O5 0.279784 0.425292 0.840511
O O6 0.329092 0.131325 0.787039
O O7 0.310117 0.168585 0.957507
O O8 0.072307 0.435990 0.583103
O O9 0.167293 0.226570 0.701231
O O10 0.000000 0.384762 0.750000
#
# Coordination Sequence:
#
# PCOD9318660 Si02
#       5
#     8   8   8   4   8
#     4  10  20  43  70  95 139 190 233 292 364 424
#     4  11  23  41  67 101 138 187 236 299 360 424
#     4   9  20  39  63  94 137 182 232 292 352 425
#     4  12  22  36  66 100 138 190 232 292 366 418
#     4  10  23  42  69  99 138 187 241 295 362 433
#
# _framework density 24.049707999999999
#
# number of rings (size 3 to 8) (size 9 to 14) (size 15 to 20)
#    0.000    1.778    2.222    3.333    1.556    1.778 
#    0.000    0.000    9.778    0.000    0.000    0.000 
#    0.000    0.000    0.000    0.000    0.000    0.000 
#
# Total GULP energy -100481.904369 kJ/mol
# GULP energy per Si atom -5582.328021 kJ/mol
# Density = 2.399497 g / cm^3
# Si number density = 24.049708 Si / 1000 Ang^3
#
#
#
# Elastic Constant Matrix: (Units=GPa)
#
#
# Indices 1 2 3 4 5 6 
#
# 1 66.8891 66.0181 46.3062 0.0000 0.0000 0.0000
# 2 66.0181 112.3718 75.1018 0.0000 0.0000 0.0000
# 3 46.3062 75.1018 177.1871 0.0000 0.0000 0.0000
# 4 0.0000 0.0000 0.0000 70.3844 0.0000 0.0000
# 5 0.0000 0.0000 0.0000 0.0000 11.9982 0.0000
# 6 0.0000 0.0000 0.0000 0.0000 0.0000 40.3910
#
#
#
# Elastic Compliance Matrix: (Units=1/GPa)
#
#
# Indices 1 2 3 4 5 6 
#
# 1 0.035630 -0.020523 -0.000613 0.000000 0.000000 0.000000
# 2 -0.020523 0.024238 -0.004910 0.000000 0.000000 0.000000
# 3 -0.000613 -0.004910 0.007885 0.000000 0.000000 0.000000
# 4 0.000000 0.000000 0.000000 0.014208 0.000000 0.000000
# 5 0.000000 0.000000 0.000000 0.000000 0.083346 0.000000
# 6 0.000000 0.000000 0.000000 0.000000 0.000000 0.024758
#
#
# Mechanical properties :
#
#
# Convention : Reuss Voigt Hill
#
# Bulk Modulus (GPa) = 63.85083 81.25555 72.55319
# Shear Modulus (GPa) = 20.21217 35.82285 28.01751
#
# Velocity S-wave (km/s) = 2.90217 3.86363 3.41689
# Velocity P-wave (km/s) = 6.15120 7.33235 6.76759
#
# Compressibility (1/GPa) = 0.01566150
#
# Stress axis : x y z
#
# Youngs Moduli (GPa) = 28.06614 41.25823 126.82436
#
# Poissons Ratio (x) = 0.84674 0.07772
# Poissons Ratio (y) = 0.57600 0.62267
# Poissons Ratio (z) = 0.01720 0.20257
#
# Static dielectric constant tensor:
#      x y z
#    x 1.954480 0.000000 0.000000 
#    y 0.000000 2.012780 0.000000 
#    z 0.000000 0.000000 1.909240 
# 
# From -- ./inp_files/18467.got.cif
#   From: 2010.05.17/outbox.cif.g08.bks.cpg/sg20_10_cif.got.tgz:18467.got - 2010.06.03 22:52:26.
