data_PCOD9318827
_publ_section_title
;
Structure prediction by ZEFSAII (Michael W. Deem and Ramdas Pophale) SiO2 
 PCOD9318827
Probable space group: C 2 2 21
;
_chemical_formula_sum "Si O2"
_cell_formula_units_Z 48
_cell_length_a 14.745909
_cell_length_b 12.246856
_cell_length_c 12.735399
_cell_angle_alpha 90.000000
_cell_angle_beta 90.000000
_cell_angle_gamma 90.000000
_cell_volume 2299.898748
_symmetry_space_group_name_H-M "C 2 2 21"
_symmetry_group_IT_number 20
_symmetry_cell_setting 'orthorhombic'
loop_
_space_group_symop_operation_xyz
x,y,z
-x,-y,1/2+z
x,-y,-z
-x,y,1/2-z
1/2+x,1/2+y,z
1/2-x,1/2-y,1/2+z
1/2+x,1/2-y,-z
1/2-x,1/2+y,1/2-z
loop_
_atom_site_type_symbol
_atom_site_label
_atom_site_fract_x
_atom_site_fract_y
_atom_site_fract_z
Si Si1 0.739879 0.091788 0.587336
Si Si2 0.385166 0.956590 0.387306
Si Si3 0.741288 0.572276 0.257686
Si Si4 0.613182 0.617284 0.460051
Si Si5 0.235994 0.744461 0.915251
Si Si6 0.044617 0.317300 0.360057
O O1 0.789665 0.183893 0.518205
O O2 0.649837 0.148648 0.633406
O O3 0.714315 0.000000 0.500000
O O4 0.788764 0.028374 0.681990
O O5 0.340452 0.838046 0.379540
O O6 0.490693 0.928799 0.385710
O O7 0.357797 0.000000 0.500000
O O8 0.338538 0.035796 0.304406
O O9 0.672973 0.595899 0.353726
O O10 0.753851 0.674591 0.180949
O O11 0.579654 0.500000 0.500000
O O12 0.679462 0.670795 0.547177
O O13 0.539900 0.710756 0.433771
O O14 0.000000 0.284243 0.250000
#
# Coordination Sequence:
#
# PCOD9318827 Si02
#       6
#     8   8   8   8   8   8
#     4   9  20  37  57  92 125 161 203 264 311 371
#     4  12  22  38  61  93 120 162 213 258 307 375
#     4  11  20  36  65  91 119 161 214 255 306 377
#     4  11  22  41  62  89 126 171 208 258 318 382
#     4  10  21  36  62  92 121 159 213 262 304 373
#     4  11  22  37  61  88 127 162 202 257 328 365
#
# _framework density 20.870484999999999
#
# number of rings (size 3 to 8) (size 9 to 14) (size 15 to 20)
#    0.000    1.333    5.000    1.500    2.333    0.000 
#    0.000    4.167    0.000    0.000    0.000    0.000 
#    0.000    0.000    0.000    0.000    0.000    0.000 
#
# Total GULP energy -133859.288776 kJ/mol
# GULP energy per Si atom -5577.470366 kJ/mol
# Density = 2.082298 g / cm^3
# Si number density = 20.870485 Si / 1000 Ang^3
#
#
#
# Elastic Constant Matrix: (Units=GPa)
#
#
# Indices 1 2 3 4 5 6 
#
# 1 32.5527 4.8035 18.0029 0.0000 0.0000 0.0000
# 2 4.8035 86.1900 28.1625 0.0000 0.0000 0.0000
# 3 18.0029 28.1625 98.7555 0.0000 0.0000 0.0000
# 4 0.0000 0.0000 0.0000 45.7939 0.0000 0.0000
# 5 0.0000 0.0000 0.0000 0.0000 17.9701 0.0000
# 6 0.0000 0.0000 0.0000 0.0000 0.0000 32.6729
#
#
#
# Elastic Compliance Matrix: (Units=1/GPa)
#
#
# Indices 1 2 3 4 5 6 
#
# 1 0.034165 0.000144 -0.006269 0.000000 0.000000 0.000000
# 2 0.000144 0.012795 -0.003675 0.000000 0.000000 0.000000
# 3 -0.006269 -0.003675 0.012317 0.000000 0.000000 0.000000
# 4 0.000000 0.000000 0.000000 0.021837 0.000000 0.000000
# 5 0.000000 0.000000 0.000000 0.000000 0.055648 0.000000
# 6 0.000000 0.000000 0.000000 0.000000 0.000000 0.030606
#
#
# Mechanical properties :
#
#
# Convention : Reuss Voigt Hill
#
# Bulk Modulus (GPa) = 25.20346 35.49289 30.34817
# Shear Modulus (GPa) = 24.97566 30.38933 27.68249
#
# Velocity S-wave (km/s) = 3.46308 3.82002 3.64592
# Velocity P-wave (km/s) = 5.30028 6.04151 5.68299
#
# Compressibility (1/GPa) = 0.03967710
#
# Stress axis : x y z
#
# Youngs Moduli (GPa) = 29.26940 78.15508 81.18871
#
# Poissons Ratio (x) = -0.01129 0.50901
# Poissons Ratio (y) = -0.00423 0.29838
# Poissons Ratio (z) = 0.18350 0.28723
#
# Static dielectric constant tensor:
#      x y z
#    x 1.783320 0.000000 0.000000 
#    y 0.000000 1.790900 0.000000 
#    z 0.000000 0.000000 1.789470 
# 
# From -- ./inp_files/20673.got.cif
#   From: 2010.05.17/outbox.cif.g08.bks.cpg/sg20_11_cif.got.tgz:20673.got - 2010.06.03 22:52:26.
