data_PCOD9318503
_publ_section_title
;
Structure prediction by ZEFSAII (Michael W. Deem and Ramdas Pophale) SiO2 
 PCOD9318503
Probable space group: C 2 2 21
;
_chemical_formula_sum "Si O2"
_cell_formula_units_Z 44
_cell_length_a 11.239723
_cell_length_b 7.473359
_cell_length_c 25.353081
_cell_angle_alpha 90.000000
_cell_angle_beta 90.000000
_cell_angle_gamma 90.000000
_cell_volume 2129.620395
_symmetry_space_group_name_H-M "C 2 2 21"
_symmetry_group_IT_number 20
_symmetry_cell_setting 'orthorhombic'
loop_
_space_group_symop_operation_xyz
x,y,z
-x,-y,1/2+z
x,-y,-z
-x,y,1/2-z
1/2+x,1/2+y,z
1/2-x,1/2-y,1/2+z
1/2+x,1/2-y,-z
1/2-x,1/2+y,1/2-z
loop_
_atom_site_type_symbol
_atom_site_label
_atom_site_fract_x
_atom_site_fract_y
_atom_site_fract_z
Si Si1 0.873211 0.025238 0.757863
Si Si2 0.800622 0.418720 0.088784
Si Si3 0.560507 0.783011 0.647101
Si Si4 0.802815 0.700340 0.325543
Si Si5 0.488157 0.000000 0.000000
Si Si6 0.044369 0.873176 0.045701
O O1 0.900970 0.182410 0.800076
O O2 0.835091 0.112904 0.703015
O O3 0.000000 0.927153 0.750000
O O4 0.769572 0.911698 0.783454
O O5 0.843040 0.577114 0.127171
O O6 0.778589 0.243247 0.124142
O O7 0.672461 0.450681 0.062317
O O8 0.901885 0.415894 0.044533
O O9 0.431513 0.874888 0.657692
O O10 0.534314 0.647692 0.598477
O O11 0.557616 0.831075 0.975762
O O12 0.993729 0.000000 0.000000
#
# Coordination Sequence:
#
# PCOD9318503 Si02
#       6
#     8   8   8   8   4   8
#     4  10  21  38  59  89 120 154 197 246 301 365
#     4  10  20  41  58  84 120 157 200 256 306 355
#     4   9  21  39  57  83 119 152 197 251 296 361
#     4  10  21  36  59  86 118 155 199 244 306 366
#     4  10  22  40  58  86 122 156 208 258 302 368
#     4  10  21  40  60  85 119 160 203 252 305 362
#
# _framework density 20.660957
#
# number of rings (size 3 to 8) (size 9 to 14) (size 15 to 20)
#    0.000    2.182    0.909    1.091    2.545    1.455 
#   11.455    0.000    0.000    0.000    0.000    0.000 
#    0.000    0.000    0.000    0.000    0.000    0.000 
#
# Total GULP energy -122720.645969 kJ/mol
# GULP energy per Si atom -5578.211180 kJ/mol
# Density = 2.061393 g / cm^3
# Si number density = 20.660957 Si / 1000 Ang^3
#
#
#
# Elastic Constant Matrix: (Units=GPa)
#
#
# Indices 1 2 3 4 5 6 
#
# 1 99.8984 37.2978 25.3774 0.0000 0.0000 0.0000
# 2 37.2978 33.4363 7.9122 0.0000 0.0000 0.0000
# 3 25.3774 7.9122 80.8215 0.0000 0.0000 0.0000
# 4 0.0000 0.0000 0.0000 40.1003 0.0000 0.0000
# 5 0.0000 0.0000 0.0000 0.0000 28.1312 0.0000
# 6 0.0000 0.0000 0.0000 0.0000 0.0000 23.6254
#
#
#
# Elastic Compliance Matrix: (Units=1/GPa)
#
#
# Indices 1 2 3 4 5 6 
#
# 1 0.018240 -0.019442 -0.003824 0.000000 0.000000 0.000000
# 2 -0.019442 0.051340 0.001079 0.000000 0.000000 0.000000
# 3 -0.003824 0.001079 0.013468 0.000000 0.000000 0.000000
# 4 0.000000 0.000000 0.000000 0.024937 0.000000 0.000000
# 5 0.000000 0.000000 0.000000 0.000000 0.035548 0.000000
# 6 0.000000 0.000000 0.000000 0.000000 0.000000 0.042327
#
#
# Mechanical properties :
#
#
# Convention : Reuss Voigt Hill
#
# Bulk Modulus (GPa) = 25.85759 39.48121 32.66940
# Shear Modulus (GPa) = 20.56539 27.94264 24.25402
#
# Velocity S-wave (km/s) = 3.15838 3.68154 3.42995
# Velocity P-wave (km/s) = 5.08358 6.10100 5.61538
#
# Compressibility (1/GPa) = 0.03867337
#
# Stress axis : x y z
#
# Youngs Moduli (GPa) = 54.82319 19.47805 74.24965
#
# Poissons Ratio (x) = 0.37869 0.28393
# Poissons Ratio (y) = 1.06588 -0.08009
# Poissons Ratio (z) = 0.20965 -0.02101
#
# Static dielectric constant tensor:
#      x y z
#    x 1.743580 0.000000 0.000000 
#    y 0.000000 1.720770 0.000000 
#    z 0.000000 0.000000 1.775070 
# 
# From -- ./inp_files/28649.got.cif
#   From: 2010.05.17/outbox.cif.g08.bks.cpg/sg20_15_cif.got.tgz:28649.got - 2010.06.03 22:52:26.
