data_PCOD9318498
_publ_section_title
;
Structure prediction by ZEFSAII (Michael W. Deem and Ramdas Pophale) SiO2 
 PCOD9318498
Probable space group: C 2 2 21
;
_chemical_formula_sum "Si O2"
_cell_formula_units_Z 40
_cell_length_a 15.183666
_cell_length_b 14.692455
_cell_length_c 7.787273
_cell_angle_alpha 90.000000
_cell_angle_beta 90.000000
_cell_angle_gamma 90.000000
_cell_volume 1737.226363
_symmetry_space_group_name_H-M "C 2 2 21"
_symmetry_group_IT_number 20
_symmetry_cell_setting 'orthorhombic'
loop_
_space_group_symop_operation_xyz
x,y,z
-x,-y,1/2+z
x,-y,-z
-x,y,1/2-z
1/2+x,1/2+y,z
1/2-x,1/2-y,1/2+z
1/2+x,1/2-y,-z
1/2-x,1/2+y,1/2-z
loop_
_atom_site_type_symbol
_atom_site_label
_atom_site_fract_x
_atom_site_fract_y
_atom_site_fract_z
Si Si1 0.777101 0.840879 0.587650
Si Si2 0.382293 0.753548 0.118098
Si Si3 0.913048 0.450115 0.174735
Si Si4 0.274453 0.537652 0.750719
Si Si5 0.951436 0.908894 0.076391
O O1 0.694646 0.778858 0.522599
O O2 0.839873 0.775625 0.699502
O O3 0.797768 0.896673 0.412252
O O4 0.770467 0.929565 0.712042
O O5 0.434565 0.847393 0.124700
O O6 0.444199 0.672772 0.055038
O O7 0.827440 0.442885 0.294717
O O8 0.000000 0.495410 0.250000
O O9 0.884021 0.500000 0.000000
O O10 0.351496 0.563989 0.877433
O O11 0.000000 0.882007 0.250000
O O12 0.995534 0.000000 0.000000
#
# Coordination Sequence:
#
# PCOD9318498 Si02
#       5
#     8   8   8   8   8
#     4  10  20  40  74  96 134 177 225 277 347 403
#     4  11  22  44  67 103 135 177 229 283 344 409
#     4  11  24  44  67  96 133 175 219 277 336 401
#     4  10  21  47  70  93 137 179 221 288 339 403
#     4  12  28  43  69 100 136 182 230 280 350 411
#
# _framework density 23.025207999999999
#
# number of rings (size 3 to 8) (size 9 to 14) (size 15 to 20)
#    0.000    1.200    6.000    2.400    2.800    4.000 
#    3.600    0.000    0.000    0.000    0.000    0.000 
#    0.000    0.000    0.000    0.000    0.000    0.000 
#
# Total GULP energy -111524.355039 kJ/mol
# GULP energy per Si atom -5576.217752 kJ/mol
# Density = 2.297280 g / cm^3
# Si number density = 23.025208 Si / 1000 Ang^3
#
#
#
# Elastic Constant Matrix: (Units=GPa)
#
#
# Indices 1 2 3 4 5 6 
#
# 1 84.6517 -6.1632 25.2589 0.0000 0.0000 0.0000
# 2 -6.1632 126.5579 16.1040 0.0000 0.0000 0.0000
# 3 25.2589 16.1040 56.8643 0.0000 0.0000 0.0000
# 4 0.0000 0.0000 0.0000 28.8884 0.0000 0.0000
# 5 0.0000 0.0000 0.0000 0.0000 48.8752 0.0000
# 6 0.0000 0.0000 0.0000 0.0000 0.0000 31.3639
#
#
#
# Elastic Compliance Matrix: (Units=1/GPa)
#
#
# Indices 1 2 3 4 5 6 
#
# 1 0.013893 0.001516 -0.006601 0.000000 0.000000 0.000000
# 2 0.001516 0.008362 -0.003042 0.000000 0.000000 0.000000
# 3 -0.006601 -0.003042 0.021379 0.000000 0.000000 0.000000
# 4 0.000000 0.000000 0.000000 0.034616 0.000000 0.000000
# 5 0.000000 0.000000 0.000000 0.000000 0.020460 0.000000
# 6 0.000000 0.000000 0.000000 0.000000 0.000000 0.031884
#
#
# Mechanical properties :
#
#
# Convention : Reuss Voigt Hill
#
# Bulk Modulus (GPa) = 36.51963 37.60813 37.06388
# Shear Modulus (GPa) = 32.05654 37.35047 34.70350
#
# Velocity S-wave (km/s) = 3.73532 4.03197 3.88647
# Velocity P-wave (km/s) = 5.87355 6.16803 6.02259
#
# Compressibility (1/GPa) = 0.02738253
#
# Stress axis : x y z
#
# Youngs Moduli (GPa) = 71.97825 119.58238 46.77445
#
# Poissons Ratio (x) = -0.18135 0.30875
# Poissons Ratio (y) = -0.10915 0.14228
# Poissons Ratio (z) = 0.47511 0.36375
#
# Static dielectric constant tensor:
#      x y z
#    x 1.929580 0.000000 0.000000 
#    y 0.000000 1.870870 0.000000 
#    z 0.000000 0.000000 1.904700 
# 
# From -- ./inp_files/8125.got.cif
#   From: 2010.05.17/outbox.cif.g08.bks.cpg/sg20_5_cif.got.tgz:8125.got - 2010.06.03 22:52:26.
