data_PCOD9318598
_publ_section_title
;
Structure prediction by ZEFSAII (Michael W. Deem and Ramdas Pophale) SiO2 
 PCOD9318598
Probable space group: C 2 2 21
;
_chemical_formula_sum "Si O2"
_cell_formula_units_Z 48
_cell_length_a 15.610732
_cell_length_b 9.049556
_cell_length_c 15.069152
_cell_angle_alpha 90.000000
_cell_angle_beta 90.000000
_cell_angle_gamma 90.000000
_cell_volume 2128.822018
_symmetry_space_group_name_H-M "C 2 2 21"
_symmetry_group_IT_number 20
_symmetry_cell_setting 'orthorhombic'
loop_
_space_group_symop_operation_xyz
x,y,z
-x,-y,1/2+z
x,-y,-z
-x,y,1/2-z
1/2+x,1/2+y,z
1/2-x,1/2-y,1/2+z
1/2+x,1/2-y,-z
1/2-x,1/2+y,1/2-z
loop_
_atom_site_type_symbol
_atom_site_label
_atom_site_fract_x
_atom_site_fract_y
_atom_site_fract_z
Si Si1 0.921964 0.180499 0.314352
Si Si2 0.689726 0.635846 0.651400
Si Si3 0.495633 0.367103 0.347230
Si Si4 0.306892 0.828460 0.020709
Si Si5 0.512795 0.169897 0.984800
Si Si6 0.251972 0.678349 0.199044
O O1 0.932085 0.269788 0.404116
O O2 0.836711 0.199787 0.258999
O O3 0.000000 0.221990 0.250000
O O4 0.935444 0.008872 0.339248
O O5 0.593064 0.577019 0.633700
O O6 0.715351 0.726969 0.564069
O O7 0.748789 0.495660 0.675508
O O8 0.684088 0.749515 0.734125
O O9 0.500000 0.295770 0.250000
O O10 0.470085 0.260418 0.425795
O O11 0.260824 0.769276 0.108430
O O12 0.410308 0.815414 0.034456
O O13 0.287915 0.000000 0.000000
O O14 0.531168 0.000000 0.000000
#
# Coordination Sequence:
#
# PCOD9318598 Si02
#       6
#     8   8   8   8   8   8
#     4  11  20  40  67  94 120 170 220 261 309 383
#     4  11  23  41  65  95 128 170 211 265 325 382
#     4  10  20  42  67  91 122 172 222 251 312 393
#     4  10  21  41  65  91 126 177 214 257 325 396
#     4  10  21  37  61  95 131 162 213 271 320 369
#     4  12  23  42  66  95 133 165 219 270 320 385
#
# _framework density 22.547681000000001
#
# number of rings (size 3 to 8) (size 9 to 14) (size 15 to 20)
#    0.000    1.333    5.000    2.000    0.000    3.333 
#    9.000    0.000    0.000    0.000    0.000    0.000 
#    0.000    0.000    0.000    0.000    0.000    0.000 
#
# Total GULP energy -134320.431931 kJ/mol
# GULP energy per Si atom -5596.684664 kJ/mol
# Density = 2.249636 g / cm^3
# Si number density = 22.547681 Si / 1000 Ang^3
#
#
#
# Elastic Constant Matrix: (Units=GPa)
#
#
# Indices 1 2 3 4 5 6 
#
# 1 54.5984 28.1746 15.1726 0.0000 0.0000 0.0000
# 2 28.1746 114.8795 76.8242 0.0000 0.0000 0.0000
# 3 15.1726 76.8242 178.6500 0.0000 0.0000 0.0000
# 4 0.0000 0.0000 0.0000 17.8922 0.0000 0.0000
# 5 0.0000 0.0000 0.0000 0.0000 22.2612 0.0000
# 6 0.0000 0.0000 0.0000 0.0000 0.0000 21.6745
#
#
#
# Elastic Compliance Matrix: (Units=1/GPa)
#
#
# Indices 1 2 3 4 5 6 
#
# 1 0.021016 -0.005559 0.000606 0.000000 0.000000 0.000000
# 2 -0.005559 0.013689 -0.005415 0.000000 0.000000 0.000000
# 3 0.000606 -0.005415 0.007874 0.000000 0.000000 0.000000
# 4 0.000000 0.000000 0.000000 0.055890 0.000000 0.000000
# 5 0.000000 0.000000 0.000000 0.000000 0.044921 0.000000
# 6 0.000000 0.000000 0.000000 0.000000 0.000000 0.046137
#
#
# Mechanical properties :
#
#
# Convention : Reuss Voigt Hill
#
# Bulk Modulus (GPa) = 45.78038 65.38564 55.58301
# Shear Modulus (GPa) = 22.98371 27.56270 25.27320
#
# Velocity S-wave (km/s) = 3.19617 3.50010 3.35158
# Velocity P-wave (km/s) = 5.82826 6.73766 6.29939
#
# Compressibility (1/GPa) = 0.02184342
#
# Stress axis : x y z
#
# Youngs Moduli (GPa) = 47.58277 73.05073 126.99262
#
# Poissons Ratio (x) = 0.40612 -0.07693
# Poissons Ratio (y) = 0.26453 0.68760
# Poissons Ratio (z) = -0.02883 0.39554
#
# Static dielectric constant tensor:
#      x y z
#    x 1.915060 0.000000 0.000000 
#    y 0.000000 1.798900 0.000000 
#    z 0.000000 0.000000 1.794290 
# 
# From -- ./inp_files/21288.got.cif
#   From: 2010.05.17/outbox.cif.g08.bks.cpg/sg20_11_cif.got.tgz:21288.got - 2010.06.03 22:52:26.
