data_PCOD9318097
_publ_section_title
;
Structure prediction by ZEFSAII (Michael W. Deem and Ramdas Pophale) SiO2 
 PCOD9318097
Probable space group: C 2 2 21
;
_chemical_formula_sum "Si O2"
_cell_formula_units_Z 40
_cell_length_a 22.479169
_cell_length_b 5.017624
_cell_length_c 18.499330
_cell_angle_alpha 90.000000
_cell_angle_beta 90.000000
_cell_angle_gamma 90.000000
_cell_volume 2086.576760
_symmetry_space_group_name_H-M "C 2 2 21"
_symmetry_group_IT_number 20
_symmetry_cell_setting 'orthorhombic'
loop_
_space_group_symop_operation_xyz
x,y,z
-x,-y,1/2+z
x,-y,-z
-x,y,1/2-z
1/2+x,1/2+y,z
1/2-x,1/2-y,1/2+z
1/2+x,1/2-y,-z
1/2-x,1/2+y,1/2-z
loop_
_atom_site_type_symbol
_atom_site_label
_atom_site_fract_x
_atom_site_fract_y
_atom_site_fract_z
Si Si1 0.702067 0.343475 0.818308
Si Si2 0.878520 0.241975 0.451076
Si Si3 0.539564 0.048281 0.322739
Si Si4 0.170961 0.650446 0.271938
Si Si5 0.489635 0.448243 0.916490
O O1 0.667363 0.237169 0.886780
O O2 0.773055 0.306995 0.825264
O O3 0.682521 0.639325 0.793298
O O4 0.681064 0.149877 0.754504
O O5 0.884138 0.500000 0.500000
O O6 0.943285 0.162319 0.421695
O O7 0.857169 0.000000 0.500000
O O8 0.500000 0.005824 0.250000
O O9 0.604468 0.160885 0.301398
O O10 0.510458 0.274417 0.373357
O O11 0.544316 0.776583 0.369577
O O12 0.469663 0.500000 0.000000
#
# Coordination Sequence:
#
# PCOD9318097 Si02
#       5
#     8   8   8   8   8
#     4  10  20  38  57  82 113 143 185 237 284 328
#     4  11  21  36  58  81 108 146 190 229 275 336
#     4  12  22  37  61  89 115 150 199 237 279 346
#     4  10  21  36  59  83 112 147 183 235 289 328
#     4  11  23  39  57  83 120 154 185 234 295 342
#
# _framework density 19.170155999999999
#
# number of rings (size 3 to 8) (size 9 to 14) (size 15 to 20)
#    0.000    1.200    0.000    8.400    0.000    0.000 
#    0.000    3.000    0.000    0.000    0.000    0.000 
#    0.000    0.000    0.000    0.000    0.000    0.000 
#
# Total GULP energy -111635.475966 kJ/mol
# GULP energy per Si atom -5581.773798 kJ/mol
# Density = 1.912652 g / cm^3
# Si number density = 19.170156 Si / 1000 Ang^3
#
#
#
# Elastic Constant Matrix: (Units=GPa)
#
#
# Indices 1 2 3 4 5 6 
#
# 1 104.6066 5.5498 49.4262 0.0000 0.0000 0.0000
# 2 5.5498 94.1911 19.0876 0.0000 0.0000 0.0000
# 3 49.4262 19.0876 77.8074 0.0000 0.0000 0.0000
# 4 0.0000 0.0000 0.0000 42.3539 0.0000 0.0000
# 5 0.0000 0.0000 0.0000 0.0000 26.4258 0.0000
# 6 0.0000 0.0000 0.0000 0.0000 0.0000 22.9032
#
#
#
# Elastic Compliance Matrix: (Units=1/GPa)
#
#
# Indices 1 2 3 4 5 6 
#
# 1 0.013750 0.001010 -0.008982 0.000000 0.000000 0.000000
# 2 0.001010 0.011246 -0.003401 0.000000 0.000000 0.000000
# 3 -0.008982 -0.003401 0.019392 0.000000 0.000000 0.000000
# 4 0.000000 0.000000 0.000000 0.023611 0.000000 0.000000
# 5 0.000000 0.000000 0.000000 0.000000 0.037842 0.000000
# 6 0.000000 0.000000 0.000000 0.000000 0.000000 0.043662
#
#
# Mechanical properties :
#
#
# Convention : Reuss Voigt Hill
#
# Bulk Modulus (GPa) = 46.20403 47.19246 46.69825
# Shear Modulus (GPa) = 27.86079 31.83935 29.85007
#
# Velocity S-wave (km/s) = 3.81641 4.07981 3.95031
# Velocity P-wave (km/s) = 6.60109 6.84575 6.72453
#
# Compressibility (1/GPa) = 0.02164313
#
# Stress axis : x y z
#
# Youngs Moduli (GPa) = 72.72610 88.91799 51.56638
#
# Poissons Ratio (x) = -0.08982 0.46319
# Poissons Ratio (y) = -0.07346 0.17536
# Poissons Ratio (z) = 0.65326 0.30237
#
# Static dielectric constant tensor:
#      x y z
#    x 1.677250 0.000000 0.000000 
#    y 0.000000 1.681970 0.000000 
#    z 0.000000 0.000000 1.716490 
# 
# From -- ./inp_files/17633.got.cif
#   From: 2010.05.17/outbox.cif.g08.bks.cpg/sg20_9_cif.got.tgz:17633.got - 2010.06.03 22:52:26.
