data_PCOD9318377
_publ_section_title
;
Structure prediction by ZEFSAII (Michael W. Deem and Ramdas Pophale) SiO2 
 PCOD9318377
Probable space group: C 2 2 21
;
_chemical_formula_sum "Si O2"
_cell_formula_units_Z 56
_cell_length_a 22.923264
_cell_length_b 22.359618
_cell_length_c 5.843184
_cell_angle_alpha 90.000000
_cell_angle_beta 90.000000
_cell_angle_gamma 90.000000
_cell_volume 2994.955666
_symmetry_space_group_name_H-M "C 2 2 21"
_symmetry_group_IT_number 20
_symmetry_cell_setting 'orthorhombic'
loop_
_space_group_symop_operation_xyz
x,y,z
-x,-y,1/2+z
x,-y,-z
-x,y,1/2-z
1/2+x,1/2+y,z
1/2-x,1/2-y,1/2+z
1/2+x,1/2-y,-z
1/2-x,1/2+y,1/2-z
loop_
_atom_site_type_symbol
_atom_site_label
_atom_site_fract_x
_atom_site_fract_y
_atom_site_fract_z
Si Si1 0.500000 0.265102 0.250000
Si Si2 0.847637 0.500000 0.000000
Si Si3 0.433343 0.054736 0.670070
Si Si4 0.807691 0.743428 0.333965
Si Si5 0.234217 0.970988 0.754663
Si Si6 0.100258 0.773591 0.547138
Si Si7 0.585656 0.188541 0.933167
Si Si8 0.198252 0.834379 0.808449
O O1 0.545802 0.300392 0.408305
O O2 0.457115 0.223568 0.397653
O O3 0.889559 0.548402 0.884022
O O4 0.803743 0.475074 0.806202
O O5 0.500000 0.050399 0.750000
O O6 0.423912 0.118616 0.555595
O O7 0.421855 0.000000 0.500000
O O8 0.848619 0.748809 0.114441
O O9 0.847731 0.706320 0.510326
O O10 0.799778 0.810567 0.430563
O O11 0.747725 0.708742 0.300641
O O12 0.214182 0.902396 0.761510
O O13 0.222412 0.000000 0.500000
O O14 0.210934 0.000000 0.000000
O O15 0.074952 0.717120 0.685058
O O16 0.134039 0.818815 0.713434
#
# Coordination Sequence:
#
# PCOD9318377 Si02
#       8
#     4   4   8   8   8   8   8   8
#     4  10  20  40  60  88 122 158 210 256 340 390
#     4  10  26  40  54  78 114 168 226 264 330 374
#     4  12  25  39  53  77 114 165 234 285 326 371
#     4  10  22  35  59  92 119 162 202 273 326 387
#     4  10  26  43  66  91 129 178 216 265 323 408
#     4  10  21  37  60  89 123 156 203 260 335 388
#     4  10  24  37  60  81 120 164 211 272 328 387
#     4  11  22  38  61  92 132 159 220 263 332 392
#
# _framework density 18.698107
#
# number of rings (size 3 to 8) (size 9 to 14) (size 15 to 20)
#    0.429    1.143    2.143    1.714    9.000    1.143 
#    0.000    0.000    0.000    0.000    0.000    0.000 
#   12.857    0.000    0.000    0.000    0.000    0.000 
#
# Total GULP energy -156009.620378 kJ/mol
# GULP energy per Si atom -5571.772156 kJ/mol
# Density = 1.865555 g / cm^3
# Si number density = 18.698107 Si / 1000 Ang^3
#
#
#
# Elastic Constant Matrix: (Units=GPa)
#
#
# Indices 1 2 3 4 5 6 
#
# 1 77.5602 21.9066 16.8852 0.0000 0.0000 0.0000
# 2 21.9066 98.4138 34.5707 0.0000 0.0000 0.0000
# 3 16.8852 34.5707 80.5281 0.0000 0.0000 0.0000
# 4 0.0000 0.0000 0.0000 8.7338 0.0000 0.0000
# 5 0.0000 0.0000 0.0000 0.0000 39.3635 0.0000
# 6 0.0000 0.0000 0.0000 0.0000 0.0000 5.4374
#
#
#
# Elastic Compliance Matrix: (Units=1/GPa)
#
#
# Indices 1 2 3 4 5 6 
#
# 1 0.013996 -0.002455 -0.001881 0.000000 0.000000 0.000000
# 2 -0.002455 0.012396 -0.004807 0.000000 0.000000 0.000000
# 3 -0.001881 -0.004807 0.014876 0.000000 0.000000 0.000000
# 4 0.000000 0.000000 0.000000 0.114498 0.000000 0.000000
# 5 0.000000 0.000000 0.000000 0.000000 0.025404 0.000000
# 6 0.000000 0.000000 0.000000 0.000000 0.000000 0.183911
#
#
# Mechanical properties :
#
#
# Convention : Reuss Voigt Hill
#
# Bulk Modulus (GPa) = 43.51032 44.80301 44.15667
# Shear Modulus (GPa) = 12.78681 22.91625 17.85153
#
# Velocity S-wave (km/s) = 2.61790 3.50464 3.09321
# Velocity P-wave (km/s) = 5.69722 6.35531 6.03524
#
# Compressibility (1/GPa) = 0.02298305
#
# Stress axis : x y z
#
# Youngs Moduli (GPa) = 71.44890 80.66997 67.22224
#
# Poissons Ratio (x) = 0.19803 0.12644
# Poissons Ratio (y) = 0.17539 0.32313
# Poissons Ratio (z) = 0.13439 0.38778
#
# Static dielectric constant tensor:
#      x y z
#    x 1.650800 0.000000 0.000000 
#    y 0.000000 1.602040 0.000000 
#    z 0.000000 0.000000 1.790160 
# 
# From -- ./inp_files/3877.got.cif
#   From: 2010.05.17/outbox.cif.g08.bks.cpg/sg20_2_cif.got.tgz:3877.got - 2010.06.03 22:52:26.
