data_PCOD9318942
_publ_section_title
;
Structure prediction by ZEFSAII (Michael W. Deem and Ramdas Pophale) SiO2 
 PCOD9318942
Probable space group: C 2 2 21
;
_chemical_formula_sum "Si O2"
_cell_formula_units_Z 48
_cell_length_a 10.320396
_cell_length_b 21.854829
_cell_length_c 9.385658
_cell_angle_alpha 90.000000
_cell_angle_beta 90.000000
_cell_angle_gamma 90.000000
_cell_volume 2116.939759
_symmetry_space_group_name_H-M "C 2 2 21"
_symmetry_group_IT_number 20
_symmetry_cell_setting 'orthorhombic'
loop_
_space_group_symop_operation_xyz
x,y,z
-x,-y,1/2+z
x,-y,-z
-x,y,1/2-z
1/2+x,1/2+y,z
1/2-x,1/2-y,1/2+z
1/2+x,1/2-y,-z
1/2-x,1/2+y,1/2-z
loop_
_atom_site_type_symbol
_atom_site_label
_atom_site_fract_x
_atom_site_fract_y
_atom_site_fract_z
Si Si1 0.132298 0.247147 0.169684
Si Si2 0.997298 0.898867 0.403129
Si Si3 0.305832 0.395254 0.635463
Si Si4 0.388330 0.736869 0.652378
Si Si5 0.968389 0.563440 0.082926
Si Si6 0.248572 0.929857 0.547810
O O1 0.146001 0.173127 0.167701
O O2 0.256891 0.267678 0.258718
O O3 0.000000 0.264104 0.250000
O O4 0.132323 0.265727 0.003319
O O5 0.906136 0.925777 0.526284
O O6 0.938222 0.831666 0.378061
O O7 0.000000 0.931230 0.250000
O O8 0.142406 0.893332 0.459826
O O9 0.160519 0.396177 0.571384
O O10 0.291474 0.427054 0.787406
O O11 0.500000 0.767780 0.750000
O O12 0.000000 0.550883 0.250000
O O13 0.103436 0.590950 0.027140
O O14 0.944411 0.500000 0.000000
O O15 0.242847 0.000000 0.500000
#
# Coordination Sequence:
#
# PCOD9318942 Si02
#       6
#     8   8   8   8   8   8
#     4  11  22  40  64  91 126 167 210 265 325 387
#     4  10  22  39  58  89 124 157 203 257 308 370
#     4  10  21  39  62  90 123 164 209 256 312 379
#     4  10  22  41  63  90 121 160 209 261 319 382
#     4   9  20  37  59  87 120 159 203 248 301 364
#     4  10  21  38  60  89 125 169 209 249 304 370
#
# _framework density 22.674239
#
# number of rings (size 3 to 8) (size 9 to 14) (size 15 to 20)
#    0.000    2.000    0.000    3.500    0.000    9.333 
#    0.000    6.667    0.000    0.000    0.000    0.000 
#    0.000    0.000    0.000    0.000    0.000    0.000 
#
# Total GULP energy -134143.933572 kJ/mol
# GULP energy per Si atom -5589.330566 kJ/mol
# Density = 2.262263 g / cm^3
# Si number density = 22.674239 Si / 1000 Ang^3
#
#
#
# Elastic Constant Matrix: (Units=GPa)
#
#
# Indices 1 2 3 4 5 6 
#
# 1 193.4623 2.0047 78.2684 0.0000 0.0000 0.0000
# 2 2.0047 48.1749 6.3300 0.0000 0.0000 0.0000
# 3 78.2684 6.3300 118.9678 0.0000 0.0000 0.0000
# 4 0.0000 0.0000 0.0000 23.4537 0.0000 0.0000
# 5 0.0000 0.0000 0.0000 0.0000 41.1211 0.0000
# 6 0.0000 0.0000 0.0000 0.0000 0.0000 44.8084
#
#
#
# Elastic Compliance Matrix: (Units=1/GPa)
#
#
# Indices 1 2 3 4 5 6 
#
# 1 0.007049 0.000318 -0.004654 0.000000 0.000000 0.000000
# 2 0.000318 0.020918 -0.001322 0.000000 0.000000 0.000000
# 3 -0.004654 -0.001322 0.011538 0.000000 0.000000 0.000000
# 4 0.000000 0.000000 0.000000 0.042637 0.000000 0.000000
# 5 0.000000 0.000000 0.000000 0.000000 0.024318 0.000000
# 6 0.000000 0.000000 0.000000 0.000000 0.000000 0.022317
#
#
# Mechanical properties :
#
#
# Convention : Reuss Voigt Hill
#
# Bulk Modulus (GPa) = 35.47596 59.31235 47.39416
# Shear Modulus (GPa) = 33.44699 40.14342 36.79521
#
# Velocity S-wave (km/s) = 3.84488 4.21223 4.03274
# Velocity P-wave (km/s) = 5.94901 7.06204 6.52929
#
# Compressibility (1/GPa) = 0.02818810
#
# Stress axis : x y z
#
# Youngs Moduli (GPa) = 141.87238 47.80528 86.67053
#
# Poissons Ratio (x) = -0.01521 0.40338
# Poissons Ratio (y) = -0.04515 0.11461
# Poissons Ratio (z) = 0.66030 0.06322
#
# Static dielectric constant tensor:
#      x y z
#    x 1.856830 0.000000 0.000000 
#    y 0.000000 1.844830 0.000000 
#    z 0.000000 0.000000 1.876840 
# 
# From -- ./inp_files/6520.got.cif
#   From: 2010.05.17/outbox.cif.g08.bks.cpg/sg20_4_cif.got.tgz:6520.got - 2010.06.03 22:52:26.
