data_PCOD9318301
_publ_section_title
;
Structure prediction by ZEFSAII (Michael W. Deem and Ramdas Pophale) SiO2 
 PCOD9318301
Probable space group: C 2 2 21
;
_chemical_formula_sum "Si O2"
_cell_formula_units_Z 32
_cell_length_a 11.836237
_cell_length_b 13.671305
_cell_length_c 8.319364
_cell_angle_alpha 90.000000
_cell_angle_beta 90.000000
_cell_angle_gamma 90.000000
_cell_volume 1346.212911
_symmetry_space_group_name_H-M "C 2 2 21"
_symmetry_group_IT_number 20
_symmetry_cell_setting 'orthorhombic'
loop_
_space_group_symop_operation_xyz
x,y,z
-x,-y,1/2+z
x,-y,-z
-x,y,1/2-z
1/2+x,1/2+y,z
1/2-x,1/2-y,1/2+z
1/2+x,1/2-y,-z
1/2-x,1/2+y,1/2-z
loop_
_atom_site_type_symbol
_atom_site_label
_atom_site_fract_x
_atom_site_fract_y
_atom_site_fract_z
Si Si1 0.080891 0.090297 0.900570
Si Si2 0.919226 0.232714 0.068149
Si Si3 0.908477 0.582689 0.124448
Si Si4 0.263209 0.256528 0.212969
O O1 0.000865 0.145392 0.027746
O O2 0.000000 0.062514 0.750000
O O3 0.170994 0.167037 0.828620
O O4 0.128801 0.000000 0.000000
O O5 0.964355 0.329592 0.980002
O O6 0.867959 0.255535 0.241373
O O7 0.803816 0.210492 0.963879
O O8 0.810737 0.644754 0.214336
O O9 0.000000 0.544340 0.250000
O O10 0.873565 0.500000 0.000000
#
# Coordination Sequence:
#
# PCOD9318301 Si02
#       4
#     8   8   8   8
#     4  10  20  39  63  87 123 165 207 259 321 384
#     4   9  19  40  61  87 129 160 205 269 318 382
#     4  10  20  43  65  90 127 171 221 264 322 391
#     4   9  19  40  63  84 132 163 205 275 315 385
#
# _framework density 23.770385000000001
#
# number of rings (size 3 to 8) (size 9 to 14) (size 15 to 20)
#    1.500    1.000    2.500    0.000    0.000    3.000 
#   13.500    1.250    0.000    0.000    0.000    0.000 
#    0.000    0.000    0.000    0.000    0.000    0.000 
#
# Total GULP energy -89210.454499 kJ/mol
# GULP energy per Si atom -5575.653406 kJ/mol
# Density = 2.371628 g / cm^3
# Si number density = 23.770385 Si / 1000 Ang^3
#
#
#
# Elastic Constant Matrix: (Units=GPa)
#
#
# Indices 1 2 3 4 5 6 
#
# 1 44.1666 40.1079 44.9180 0.0000 0.0000 0.0000
# 2 40.1079 127.4641 54.3951 0.0000 0.0000 0.0000
# 3 44.9180 54.3951 99.7620 0.0000 0.0000 0.0000
# 4 0.0000 0.0000 0.0000 60.3252 0.0000 0.0000
# 5 0.0000 0.0000 0.0000 0.0000 43.7813 0.0000
# 6 0.0000 0.0000 0.0000 0.0000 0.0000 9.6690
#
#
#
# Elastic Compliance Matrix: (Units=1/GPa)
#
#
# Indices 1 2 3 4 5 6 
#
# 1 0.046623 -0.007444 -0.016933 0.000000 0.000000 0.000000
# 2 -0.007444 0.011413 -0.002871 0.000000 0.000000 0.000000
# 3 -0.016933 -0.002871 0.019213 0.000000 0.000000 0.000000
# 4 0.000000 0.000000 0.000000 0.016577 0.000000 0.000000
# 5 0.000000 0.000000 0.000000 0.000000 0.022841 0.000000
# 6 0.000000 0.000000 0.000000 0.000000 0.000000 0.103424
#
#
# Mechanical properties :
#
#
# Convention : Reuss Voigt Hill
#
# Bulk Modulus (GPa) = 43.95125 61.13718 52.54421
# Shear Modulus (GPa) = 17.71973 31.55321 24.63647
#
# Velocity S-wave (km/s) = 2.73326 3.64733 3.22286
# Velocity P-wave (km/s) = 5.33770 6.59644 6.00017
#
# Compressibility (1/GPa) = 0.02275248
#
# Stress axis : x y z
#
# Youngs Moduli (GPa) = 21.44876 87.61937 52.04677
#
# Poissons Ratio (x) = 0.65225 0.88131
# Poissons Ratio (y) = 0.15967 0.14944
# Poissons Ratio (z) = 0.36319 0.25157
#
# Static dielectric constant tensor:
#      x y z
#    x 1.885850 0.000000 0.000000 
#    y 0.000000 1.864790 0.000000 
#    z 0.000000 0.000000 2.074970 
# 
# From -- ./inp_files/7891.got.cif
#   From: 2010.05.17/outbox.cif.g08.bks.cpg/sg20_4_cif.got.tgz:7891.got - 2010.06.03 22:52:26.
