data_PCOD9318197
_publ_section_title
;
Structure prediction by ZEFSAII (Michael W. Deem and Ramdas Pophale) SiO2 
 PCOD9318197
Probable space group: C 2 2 21
;
_chemical_formula_sum "Si O2"
_cell_formula_units_Z 60
_cell_length_a 10.188399
_cell_length_b 9.255576
_cell_length_c 24.770077
_cell_angle_alpha 90.000000
_cell_angle_beta 90.000000
_cell_angle_gamma 90.000000
_cell_volume 2335.805907
_symmetry_space_group_name_H-M "C 2 2 21"
_symmetry_group_IT_number 20
_symmetry_cell_setting 'orthorhombic'
loop_
_space_group_symop_operation_xyz
x,y,z
-x,-y,1/2+z
x,-y,-z
-x,y,1/2-z
1/2+x,1/2+y,z
1/2-x,1/2-y,1/2+z
1/2+x,1/2-y,-z
1/2-x,1/2+y,1/2-z
loop_
_atom_site_type_symbol
_atom_site_label
_atom_site_fract_x
_atom_site_fract_y
_atom_site_fract_z
Si Si1 0.857961 0.804666 0.925442
Si Si2 0.200115 0.000000 0.500000
Si Si3 0.118351 0.404575 0.792324
Si Si4 0.845116 0.078370 0.666519
Si Si5 0.378888 0.492688 0.818875
Si Si6 0.173132 0.226338 0.596000
Si Si7 0.432972 0.012475 0.876356
Si Si8 0.120147 0.944364 0.944073
O O1 0.739571 0.868400 0.960845
O O2 0.901737 0.641223 0.917485
O O3 0.976621 0.883900 0.957605
O O4 0.857815 0.872652 0.865775
O O5 0.164588 0.108358 0.550044
O O6 0.140163 0.239389 0.810983
O O7 0.262423 0.463566 0.776997
O O8 0.000000 0.404702 0.750000
O O9 0.063802 0.506907 0.840895
O O10 0.966367 0.990864 0.692862
O O11 0.694799 0.024275 0.663711
O O12 0.882705 0.067025 0.602068
O O13 0.347790 0.646773 0.847039
O O14 0.073648 0.359583 0.594023
O O15 0.308326 0.312028 0.585677
O O16 0.179966 0.000000 0.000000
#
# Coordination Sequence:
#
# PCOD9318197 Si02
#       8
#     8   4   8   8   8   8   8   8
#     4  10  20  38  63  95 138 183 230 279 350 408
#     4  10  22  36  58 100 138 188 232 286 332 416
#     4  12  26  45  74 106 135 181 248 302 362 440
#     4  10  23  45  70 100 150 185 225 301 370 411
#     4  10  21  45  69  96 140 184 224 291 365 416
#     4  10  22  37  63  97 139 186 232 284 353 416
#     4  11  23  43  72 102 135 190 236 290 365 428
#     4  10  21  36  63 102 142 192 237 284 342 430
#
# _framework density 25.687065
#
# number of rings (size 3 to 8) (size 9 to 14) (size 15 to 20)
#    0.000    1.600    3.333    0.800    3.733    1.067 
#    0.000    1.333    0.000    0.000    1.733    0.000 
#    0.000    0.000    0.000    0.000    0.000    0.000 
#
# Total GULP energy -167246.455402 kJ/mol
# GULP energy per Si atom -5574.881847 kJ/mol
# Density = 2.562860 g / cm^3
# Si number density = 25.687065 Si / 1000 Ang^3
#
#
#
# Elastic Constant Matrix: (Units=GPa)
#
#
# Indices 1 2 3 4 5 6 
#
# 1 133.2762 14.7659 11.3513 0.0000 0.0000 0.0000
# 2 14.7659 135.3568 21.2625 0.0000 0.0000 0.0000
# 3 11.3513 21.2625 60.0788 0.0000 0.0000 0.0000
# 4 0.0000 0.0000 0.0000 0.1237 0.0000 0.0000
# 5 0.0000 0.0000 0.0000 0.0000 29.2231 0.0000
# 6 0.0000 0.0000 0.0000 0.0000 0.0000 44.2679
#
#
#
# Elastic Compliance Matrix: (Units=1/GPa)
#
#
# Indices 1 2 3 4 5 6 
#
# 1 0.007679 -0.000646 -0.001222 0.000000 0.000000 0.000000
# 2 -0.000646 0.007877 -0.002666 0.000000 0.000000 0.000000
# 3 -0.001222 -0.002666 0.017819 0.000000 0.000000 0.000000
# 4 0.000000 0.000000 0.000000 8.085469 0.000000 0.000000
# 5 0.000000 0.000000 0.000000 0.000000 0.034219 0.000000
# 6 0.000000 0.000000 0.000000 0.000000 0.000000 0.022590
#
#
# Mechanical properties :
#
#
# Convention : Reuss Voigt Hill
#
# Bulk Modulus (GPa) = 41.13947 47.05235 44.09591
# Shear Modulus (GPa) = 0.61029 33.47841 17.04435
#
# Velocity S-wave (km/s) = 0.48796 3.61407 2.57872
# Velocity P-wave (km/s) = 4.04572 5.98102 5.10590
#
# Compressibility (1/GPa) = 0.02430755
#
# Stress axis : x y z
#
# Youngs Moduli (GPa) = 130.22768 126.95076 56.11924
#
# Poissons Ratio (x) = 0.08197 0.06860
# Poissons Ratio (y) = 0.08408 0.14960
# Poissons Ratio (z) = 0.15918 0.33842
#
# Static dielectric constant tensor:
#      x y z
#    x 2.457670 0.000000 0.000000 
#    y 0.000000 2.033330 0.000000 
#    z 0.000000 0.000000 1.898350 
# 
# From -- ./inp_files/30339.got.cif
#   From: 2010.05.17/outbox.cif.g08.bks.cpg/sg20_16_cif.got.tgz:30339.got - 2010.06.03 22:52:26.
