data_PCOD9318874
_publ_section_title
;
Structure prediction by ZEFSAII (Michael W. Deem and Ramdas Pophale) SiO2 
 PCOD9318874
Probable space group: C 2 2 21
;
_chemical_formula_sum "Si O2"
_cell_formula_units_Z 60
_cell_length_a 20.663346
_cell_length_b 14.982573
_cell_length_c 9.593229
_cell_angle_alpha 90.000000
_cell_angle_beta 90.000000
_cell_angle_gamma 90.000000
_cell_volume 2969.968628
_symmetry_space_group_name_H-M "C 2 2 21"
_symmetry_group_IT_number 20
_symmetry_cell_setting 'orthorhombic'
loop_
_space_group_symop_operation_xyz
x,y,z
-x,-y,1/2+z
x,-y,-z
-x,y,1/2-z
1/2+x,1/2+y,z
1/2-x,1/2-y,1/2+z
1/2+x,1/2-y,-z
1/2-x,1/2+y,1/2-z
loop_
_atom_site_type_symbol
_atom_site_label
_atom_site_fract_x
_atom_site_fract_y
_atom_site_fract_z
Si Si1 0.956160 0.023047 0.861739
Si Si2 0.252668 0.518113 0.166617
Si Si3 0.100696 0.204211 0.577942
Si Si4 0.220132 0.178669 0.768141
Si Si5 0.500000 0.817046 0.750000
Si Si6 0.615815 0.080387 0.102566
Si Si7 0.872980 0.144557 0.215829
Si Si8 0.674571 0.248205 0.943649
O O1 0.905498 0.096268 0.910312
O O2 0.000000 0.069269 0.750000
O O3 0.924494 0.935550 0.797865
O O4 0.995389 0.000000 0.000000
O O5 0.273466 0.428006 0.245983
O O6 0.178101 0.546451 0.191909
O O7 0.303118 0.596735 0.199066
O O8 0.256293 0.500000 0.000000
O O9 0.158902 0.220857 0.685261
O O10 0.037761 0.256150 0.634624
O O11 0.115694 0.212958 0.413427
O O12 0.280164 0.219149 0.684391
O O13 0.212302 0.204099 0.929693
O O14 0.444291 0.879417 0.685372
O O15 0.643535 0.160554 0.008691
O O16 0.596522 0.000000 0.000000
O O17 0.876824 0.188363 0.367529
#
# Coordination Sequence:
#
# PCOD9318874 Si02
#       8
#     8   8   8   8   4   8   8   8
#     4  10  21  37  60  90 136 181 215 262 345 414
#     4  11  19  42  73  98 141 179 219 288 374 419
#     4  11  21  41  66  97 139 179 224 279 344 413
#     4  12  22  41  70 101 132 176 223 287 359 422
#     4  12  26  44  72 100 134 198 254 278 330 440
#     4  11  24  48  70  94 139 194 231 291 359 407
#     4  11  23  39  65 106 136 176 225 291 350 425
#     4  12  25  41  71 102 135 175 231 293 356 415
#
# _framework density 20.202234000000001
#
# number of rings (size 3 to 8) (size 9 to 14) (size 15 to 20)
#    0.000    0.800    7.333    2.000    0.000    3.733 
#    2.400    0.000    0.000    0.000    0.000    0.000 
#    0.000    0.000    0.000    0.000    0.000    0.000 
#
# Total GULP energy -167413.267470 kJ/mol
# GULP energy per Si atom -5580.442249 kJ/mol
# Density = 2.015625 g / cm^3
# Si number density = 20.202234 Si / 1000 Ang^3
#
#
#
# Elastic Constant Matrix: (Units=GPa)
#
#
# Indices 1 2 3 4 5 6 
#
# 1 79.0030 35.2148 34.1804 0.0000 0.0000 0.0000
# 2 35.2148 107.6014 55.1032 0.0000 0.0000 0.0000
# 3 34.1804 55.1032 118.1111 0.0000 0.0000 0.0000
# 4 0.0000 0.0000 0.0000 21.5255 0.0000 0.0000
# 5 0.0000 0.0000 0.0000 0.0000 33.2719 0.0000
# 6 0.0000 0.0000 0.0000 0.0000 0.0000 108.5759
#
#
#
# Elastic Compliance Matrix: (Units=1/GPa)
#
#
# Indices 1 2 3 4 5 6 
#
# 1 0.015485 -0.003643 -0.002781 0.000000 0.000000 0.000000
# 2 -0.003643 0.013068 -0.005042 0.000000 0.000000 0.000000
# 3 -0.002781 -0.005042 0.011624 0.000000 0.000000 0.000000
# 4 0.000000 0.000000 0.000000 0.046457 0.000000 0.000000
# 5 0.000000 0.000000 0.000000 0.000000 0.030055 0.000000
# 6 0.000000 0.000000 0.000000 0.000000 0.000000 0.009210
#
#
# Mechanical properties :
#
#
# Convention : Reuss Voigt Hill
#
# Bulk Modulus (GPa) = 57.99554 61.52361 59.75958
# Shear Modulus (GPa) = 32.34535 44.68913 38.51724
#
# Velocity S-wave (km/s) = 4.00569 4.70839 4.37118
# Velocity P-wave (km/s) = 7.08265 7.75103 7.42436
#
# Compressibility (1/GPa) = 0.01724271
#
# Stress axis : x y z
#
# Youngs Moduli (GPa) = 64.57791 76.52169 86.02877
#
# Poissons Ratio (x) = 0.27880 0.23929
# Poissons Ratio (y) = 0.23529 0.43379
# Poissons Ratio (z) = 0.17962 0.38585
#
# Static dielectric constant tensor:
#      x y z
#    x 1.745690 0.000000 0.000000 
#    y 0.000000 1.749060 0.000000 
#    z 0.000000 0.000000 1.716660 
# 
# From -- ./inp_files/10753.got.cif
#   From: 2010.05.17/outbox.cif.g08.bks.cpg/sg20_6_cif.got.tgz:10753.got - 2010.06.03 22:52:26.
