data_PCOD9318848
_publ_section_title
;
Structure prediction by ZEFSAII (Michael W. Deem and Ramdas Pophale) SiO2 
 PCOD9318848
Probable space group: C 2 2 21
;
_chemical_formula_sum "Si O2"
_cell_formula_units_Z 32
_cell_length_a 5.364344
_cell_length_b 23.536778
_cell_length_c 11.124366
_cell_angle_alpha 90.000000
_cell_angle_beta 90.000000
_cell_angle_gamma 90.000000
_cell_volume 1404.555486
_symmetry_space_group_name_H-M "C 2 2 21"
_symmetry_group_IT_number 20
_symmetry_cell_setting 'orthorhombic'
loop_
_space_group_symop_operation_xyz
x,y,z
-x,-y,1/2+z
x,-y,-z
-x,y,1/2-z
1/2+x,1/2+y,z
1/2-x,1/2-y,1/2+z
1/2+x,1/2-y,-z
1/2-x,1/2+y,1/2-z
loop_
_atom_site_type_symbol
_atom_site_label
_atom_site_fract_x
_atom_site_fract_y
_atom_site_fract_z
Si Si1 0.077591 0.298157 0.881633
Si Si2 0.078740 0.823111 0.021332
Si Si3 0.431439 0.963976 0.876317
Si Si4 0.932356 0.934662 0.957431
O O1 0.860377 0.319802 0.971835
O O2 0.000000 0.317169 0.750000
O O3 0.361863 0.310960 0.921614
O O4 0.053593 0.229070 0.888317
O O5 0.009342 0.887894 0.056322
O O6 0.500000 0.994122 0.750000
O O7 0.336608 0.922886 0.598494
O O8 0.410396 0.000000 0.000000
O O9 0.164298 0.934669 0.866748
O O10 0.910759 0.000000 0.000000
#
# Coordination Sequence:
#
# PCOD9318848 Si02
#       4
#     8   8   8   8
#     4  10  21  37  58  81 110 148 189 238 287 335
#     4  10  21  37  57  85 113 144 191 236 285 345
#     4  10  21  37  56  81 115 153 194 235 281 340
#     4  10  21  37  58  85 117 151 189 237 293 350
#
# _framework density 22.783010999999998
#
# number of rings (size 3 to 8) (size 9 to 14) (size 15 to 20)
#    0.000    2.000    0.000    3.000    0.000    6.000 
#    0.000   10.000    0.000    0.000    0.000    0.000 
#    0.000    0.000    0.000    0.000    0.000    0.000 
#
# Total GULP energy -89078.650976 kJ/mol
# GULP energy per Si atom -5567.415686 kJ/mol
# Density = 2.273116 g / cm^3
# Si number density = 22.783011 Si / 1000 Ang^3
#
#
#
# Elastic Constant Matrix: (Units=GPa)
#
#
# Indices 1 2 3 4 5 6 
#
# 1 188.5878 -3.5605 11.7051 0.0000 0.0000 0.0000
# 2 -3.5605 112.8471 -7.7710 0.0000 0.0000 0.0000
# 3 11.7051 -7.7710 64.5773 0.0000 0.0000 0.0000
# 4 0.0000 0.0000 0.0000 19.8468 0.0000 0.0000
# 5 0.0000 0.0000 0.0000 0.0000 20.2365 0.0000
# 6 0.0000 0.0000 0.0000 0.0000 0.0000 37.6396
#
#
#
# Elastic Compliance Matrix: (Units=1/GPa)
#
#
# Indices 1 2 3 4 5 6 
#
# 1 0.005364 0.000103 -0.000960 0.000000 0.000000 0.000000
# 2 0.000103 0.008938 0.001057 0.000000 0.000000 0.000000
# 3 -0.000960 0.001057 0.015786 0.000000 0.000000 0.000000
# 4 0.000000 0.000000 0.000000 0.050386 0.000000 0.000000
# 5 0.000000 0.000000 0.000000 0.000000 0.049416 0.000000
# 6 0.000000 0.000000 0.000000 0.000000 0.000000 0.026568
#
#
# Mechanical properties :
#
#
# Convention : Reuss Voigt Hill
#
# Bulk Modulus (GPa) = 32.79944 40.75106 36.77525
# Shear Modulus (GPa) = 30.08060 39.92048 35.00054
#
# Velocity S-wave (km/s) = 3.63755 4.19047 3.92376
# Velocity P-wave (km/s) = 5.66304 6.42953 6.05842
#
# Compressibility (1/GPa) = 0.03048832
#
# Stress axis : x y z
#
# Youngs Moduli (GPa) = 186.42482 111.88715 63.34541
#
# Poissons Ratio (x) = -0.01154 0.06080
# Poissons Ratio (y) = -0.01923 -0.06694
# Poissons Ratio (z) = 0.17894 -0.11824
#
# Static dielectric constant tensor:
#      x y z
#    x 1.883580 0.000000 0.000000 
#    y 0.000000 2.175420 0.000000 
#    z 0.000000 0.000000 1.762700 
# 
# From -- ./inp_files/11896.got.cif
#   From: 2010.05.17/outbox.cif.g08.bks.cpg/sg20_6_cif.got.tgz:11896.got - 2010.06.03 22:52:26.
