data_PCOD9318442
_publ_section_title
;
Structure prediction by ZEFSAII (Michael W. Deem and Ramdas Pophale) SiO2 
 PCOD9318442
Probable space group: C 2 2 21
;
_chemical_formula_sum "Si O2"
_cell_formula_units_Z 48
_cell_length_a 31.775189
_cell_length_b 9.158419
_cell_length_c 8.238212
_cell_angle_alpha 90.000000
_cell_angle_beta 90.000000
_cell_angle_gamma 90.000000
_cell_volume 2397.406149
_symmetry_space_group_name_H-M "C 2 2 21"
_symmetry_group_IT_number 20
_symmetry_cell_setting 'orthorhombic'
loop_
_space_group_symop_operation_xyz
x,y,z
-x,-y,1/2+z
x,-y,-z
-x,y,1/2-z
1/2+x,1/2+y,z
1/2-x,1/2-y,1/2+z
1/2+x,1/2-y,-z
1/2-x,1/2+y,1/2-z
loop_
_atom_site_type_symbol
_atom_site_label
_atom_site_fract_x
_atom_site_fract_y
_atom_site_fract_z
Si Si1 0.110929 0.167747 0.479384
Si Si2 0.450672 0.752854 0.282891
Si Si3 0.355956 0.749816 0.667521
Si Si4 0.773017 0.170149 0.472330
Si Si5 0.200900 0.849672 0.604285
Si Si6 0.592757 0.000000 0.000000
Si Si7 0.088525 0.000000 0.000000
O O1 0.074500 0.253861 0.388012
O O2 0.132736 0.229598 0.642557
O O3 0.151366 0.162789 0.364111
O O4 0.096539 0.000000 0.500000
O O5 0.500000 0.759127 0.250000
O O6 0.434888 0.888166 0.392751
O O7 0.438477 0.601780 0.377389
O O8 0.308761 0.740143 0.591817
O O9 0.377394 0.899212 0.610109
O O10 0.381411 0.614329 0.590175
O O11 0.781646 0.178970 0.282438
O O12 0.726879 0.233371 0.501968
O O13 0.774161 0.000000 0.500000
O O14 0.206643 0.000000 0.500000
#
# Coordination Sequence:
#
# PCOD9318442 Si02
#       7
#     8   8   8   8   8   4   4
#     4  11  22  43  69 102 131 176 230 290 348 403
#     4  11  25  44  71 101 137 175 228 287 347 423
#     4  11  22  41  69  94 136 181 221 283 339 406
#     4  12  23  42  65  98 135 181 232 286 329 394
#     4  11  24  41  64  95 136 181 228 281 341 405
#     4  10  26  44  62  98 136 186 216 270 354 416
#     4  10  20  40  66  98 128 170 222 276 346 402
#
# _framework density 20.021639
#
# number of rings (size 3 to 8) (size 9 to 14) (size 15 to 20)
#    0.000    1.000    2.500    6.000    2.333    2.000 
#    9.000    3.333    0.000    0.000    0.000    0.000 
#    0.000    0.000    0.000    0.000    0.000    0.000 
#
# Total GULP energy -133872.780605 kJ/mol
# GULP energy per Si atom -5578.032525 kJ/mol
# Density = 1.997607 g / cm^3
# Si number density = 20.021639 Si / 1000 Ang^3
#
#
#
# Elastic Constant Matrix: (Units=GPa)
#
#
# Indices 1 2 3 4 5 6 
#
# 1 82.6147 26.2950 25.8533 0.0000 0.0000 0.0000
# 2 26.2950 71.9358 14.0806 0.0000 0.0000 0.0000
# 3 25.8533 14.0806 84.6545 0.0000 0.0000 0.0000
# 4 0.0000 0.0000 0.0000 16.0381 0.0000 0.0000
# 5 0.0000 0.0000 0.0000 0.0000 32.1287 0.0000
# 6 0.0000 0.0000 0.0000 0.0000 0.0000 7.5599
#
#
#
# Elastic Compliance Matrix: (Units=1/GPa)
#
#
# Indices 1 2 3 4 5 6 
#
# 1 0.014756 -0.004664 -0.003731 0.000000 0.000000 0.000000
# 2 -0.004664 0.015843 -0.001211 0.000000 0.000000 0.000000
# 3 -0.003731 -0.001211 0.013154 0.000000 0.000000 0.000000
# 4 0.000000 0.000000 0.000000 0.062351 0.000000 0.000000
# 5 0.000000 0.000000 0.000000 0.000000 0.031125 0.000000
# 6 0.000000 0.000000 0.000000 0.000000 0.000000 0.132277
#
#
# Mechanical properties :
#
#
# Convention : Reuss Voigt Hill
#
# Bulk Modulus (GPa) = 40.74642 41.29589 41.02115
# Shear Modulus (GPa) = 16.84082 22.67709 19.75895
#
# Velocity S-wave (km/s) = 2.90337 3.36911 3.14487
# Velocity P-wave (km/s) = 5.62448 5.98372 5.80688
#
# Compressibility (1/GPa) = 0.02454203
#
# Stress axis : x y z
#
# Youngs Moduli (GPa) = 67.76777 63.11926 76.02526
#
# Poissons Ratio (x) = 0.29437 0.28364
# Poissons Ratio (y) = 0.31605 0.09206
# Poissons Ratio (z) = 0.25283 0.07643
#
# Static dielectric constant tensor:
#      x y z
#    x 1.670230 0.000000 0.000000 
#    y 0.000000 1.701850 0.000000 
#    z 0.000000 0.000000 1.880260 
# 
# From -- ./inp_files/11513.got.cif
#   From: 2010.05.17/outbox.cif.g08.bks.cpg/sg20_6_cif.got.tgz:11513.got - 2010.06.03 22:52:26.
