data_PCOD9318587
_publ_section_title
;
Structure prediction by ZEFSAII (Michael W. Deem and Ramdas Pophale) SiO2 
 PCOD9318587
Probable space group: C 2 2 21
;
_chemical_formula_sum "Si O2"
_cell_formula_units_Z 60
_cell_length_a 12.038834
_cell_length_b 25.161324
_cell_length_c 8.462440
_cell_angle_alpha 90.000000
_cell_angle_beta 90.000000
_cell_angle_gamma 90.000000
_cell_volume 2563.383112
_symmetry_space_group_name_H-M "C 2 2 21"
_symmetry_group_IT_number 20
_symmetry_cell_setting 'orthorhombic'
loop_
_space_group_symop_operation_xyz
x,y,z
-x,-y,1/2+z
x,-y,-z
-x,y,1/2-z
1/2+x,1/2+y,z
1/2-x,1/2-y,1/2+z
1/2+x,1/2-y,-z
1/2-x,1/2+y,1/2-z
loop_
_atom_site_type_symbol
_atom_site_label
_atom_site_fract_x
_atom_site_fract_y
_atom_site_fract_z
Si Si1 0.907618 0.938352 0.972825
Si Si2 0.189275 0.840412 0.428065
Si Si3 0.646499 0.590637 0.111837
Si Si4 0.757627 0.322277 0.073235
Si Si5 0.578521 0.834310 0.904197
Si Si6 0.448609 0.908418 0.089937
Si Si7 0.451980 0.740936 0.075681
Si Si8 0.314950 0.000000 0.000000
O O1 0.835701 0.902825 0.090544
O O2 0.878049 0.916581 0.797410
O O3 0.039034 0.928173 0.986504
O O4 0.885050 0.000000 0.000000
O O5 0.214678 0.819236 0.252681
O O6 0.289565 0.834231 0.556782
O O7 0.075770 0.813803 0.489706
O O8 0.674922 0.651358 0.056072
O O9 0.740390 0.545668 0.078390
O O10 0.849707 0.367982 0.061832
O O11 0.830701 0.269529 0.051247
O O12 0.500000 0.827276 0.750000
O O13 0.539848 0.893143 0.961002
O O14 0.537878 0.782832 0.002295
O O15 0.500000 0.888728 0.250000
O O16 0.399130 0.966484 0.108398
O O17 0.500000 0.732402 0.250000
#
# Coordination Sequence:
#
# PCOD9318587 Si02
#       8
#     8   8   8   8   8   8   8   4
#     4  11  27  45  68 106 150 189 242 315 365 434
#     4  12  27  43  73 105 138 195 246 293 375 451
#     4  10  24  45  71  97 142 194 241 300 370 445
#     4  10  22  45  72 101 137 192 239 295 374 447
#     4  11  25  44  67 104 144 180 236 300 363 437
#     4  10  20  42  65  95 141 181 231 297 357 421
#     4  11  25  48  74 102 149 187 234 311 371 446
#     4  10  22  38  70  94 124 194 242 282 360 430
#
# _framework density 23.406568
#
# number of rings (size 3 to 8) (size 9 to 14) (size 15 to 20)
#    0.000    1.333    3.333    0.800   13.067    2.133 
#    1.200    0.000    0.000    0.000    0.000    0.000 
#    0.000    0.000    0.000    0.000    0.000    0.000 
#
# Total GULP energy -167183.781937 kJ/mol
# GULP energy per Si atom -5572.792731 kJ/mol
# Density = 2.335329 g / cm^3
# Si number density = 23.406568 Si / 1000 Ang^3
#
#
#
# Elastic Constant Matrix: (Units=GPa)
#
#
# Indices 1 2 3 4 5 6 
#
# 1 82.5053 34.3756 2.3485 0.0000 0.0000 0.0000
# 2 34.3756 98.5925 -1.5263 0.0000 0.0000 0.0000
# 3 2.3485 -1.5263 33.2097 0.0000 0.0000 0.0000
# 4 0.0000 0.0000 0.0000 2.8268 0.0000 0.0000
# 5 0.0000 0.0000 0.0000 0.0000 30.5565 0.0000
# 6 0.0000 0.0000 0.0000 0.0000 0.0000 117.3062
#
#
#
# Elastic Compliance Matrix: (Units=1/GPa)
#
#
# Indices 1 2 3 4 5 6 
#
# 1 0.014231 -0.004981 -0.001235 0.000000 0.000000 0.000000
# 2 -0.004981 0.011893 0.000899 0.000000 0.000000 0.000000
# 3 -0.001235 0.000899 0.030240 0.000000 0.000000 0.000000
# 4 0.000000 0.000000 0.000000 0.353752 0.000000 0.000000
# 5 0.000000 0.000000 0.000000 0.000000 0.032726 0.000000
# 6 0.000000 0.000000 0.000000 0.000000 0.000000 0.008525
#
#
# Mechanical properties :
#
#
# Convention : Reuss Voigt Hill
#
# Bulk Modulus (GPa) = 21.86751 31.63364 26.75058
# Shear Modulus (GPa) = 10.47678 42.07854 26.27766
#
# Velocity S-wave (km/s) = 2.11795 4.24456 3.35425
# Velocity P-wave (km/s) = 3.91710 6.12910 5.14342
#
# Compressibility (1/GPa) = 0.04572994
#
# Stress axis : x y z
#
# Youngs Moduli (GPa) = 70.26971 84.08067 33.06836
#
# Poissons Ratio (x) = 0.41880 0.04085
# Poissons Ratio (y) = 0.35001 -0.02972
# Poissons Ratio (z) = 0.08680 -0.07558
#
# Static dielectric constant tensor:
#      x y z
#    x 1.957160 0.000000 0.000000 
#    y 0.000000 1.338170 0.000000 
#    z 0.000000 0.000000 1.665360 
# 
# From -- ./inp_files/7566.got.cif
#   From: 2010.05.17/outbox.cif.g08.bks.cpg/sg20_4_cif.got.tgz:7566.got - 2010.06.03 22:52:26.
