data_PCOD9318176
_publ_section_title
;
Structure prediction by ZEFSAII (Michael W. Deem and Ramdas Pophale) SiO2 
 PCOD9318176
Probable space group: C 2 2 21
;
_chemical_formula_sum "Si O2"
_cell_formula_units_Z 64
_cell_length_a 15.143391
_cell_length_b 5.283406
_cell_length_c 33.878028
_cell_angle_alpha 90.000000
_cell_angle_beta 90.000000
_cell_angle_gamma 90.000000
_cell_volume 2710.536399
_symmetry_space_group_name_H-M "C 2 2 21"
_symmetry_group_IT_number 20
_symmetry_cell_setting 'orthorhombic'
loop_
_space_group_symop_operation_xyz
x,y,z
-x,-y,1/2+z
x,-y,-z
-x,y,1/2-z
1/2+x,1/2+y,z
1/2-x,1/2-y,1/2+z
1/2+x,1/2-y,-z
1/2-x,1/2+y,1/2-z
loop_
_atom_site_type_symbol
_atom_site_label
_atom_site_fract_x
_atom_site_fract_y
_atom_site_fract_z
Si Si1 0.692103 0.440316 0.754124
Si Si2 0.193614 0.443368 0.392733
Si Si3 0.861699 0.049106 0.170306
Si Si4 0.818910 0.777066 0.659412
Si Si5 0.051290 0.164655 0.602577
Si Si6 0.554465 0.837427 0.093750
Si Si7 0.596243 0.247922 0.988294
Si Si8 0.791659 0.750849 0.978319
O O1 0.734214 0.720886 0.753182
O O2 0.627783 0.411361 0.716692
O O3 0.657547 0.385843 0.797915
O O4 0.284775 0.510402 0.371348
O O5 0.145938 0.703858 0.406381
O O6 0.198558 0.272149 0.431416
O O7 0.142732 0.299952 0.356962
O O8 0.765565 0.910218 0.165245
O O9 0.936221 0.878458 0.149798
O O10 0.900101 0.661134 0.636146
O O11 0.986228 0.385665 0.589438
O O12 0.015343 0.893367 0.588588
O O13 0.619833 0.778732 0.057551
O O14 0.546821 0.500000 0.000000
O O15 0.685904 0.250339 0.013464
O O16 0.543356 0.000000 0.000000
O O17 0.826212 0.500000 0.000000
O O18 0.826568 0.000000 0.000000
#
# Coordination Sequence:
#
# PCOD9318176 Si02
#       8
#     8   8   8   8   8   8   8   8
#     4  10  20  38  63 106 137 165 218 287 334 380
#     4  11  22  44  73  97 131 182 223 268 341 402
#     4  10  22  42  72  96 135 178 224 270 334 396
#     4  10  23  37  73 105 130 172 230 282 326 393
#     4  11  26  44  67  93 137 187 216 266 329 420
#     4  12  25  43  69  97 135 175 227 269 338 402
#     4  10  21  39  62  93 128 161 205 280 336 377
#     4  10  23  37  63  99 127 154 215 281 324 377
#
# _framework density 23.611564000000001
#
# number of rings (size 3 to 8) (size 9 to 14) (size 15 to 20)
#    0.000    1.500    2.500    2.250    8.750    0.000 
#    0.000    3.125    2.750    0.000    0.000    0.000 
#    0.000    0.000    0.000    0.000    0.000    0.000 
#
# Total GULP energy -178606.248454 kJ/mol
# GULP energy per Si atom -5581.445264 kJ/mol
# Density = 2.355782 g / cm^3
# Si number density = 23.611564 Si / 1000 Ang^3
#
#
#
# Elastic Constant Matrix: (Units=GPa)
#
#
# Indices 1 2 3 4 5 6 
#
# 1 38.7882 0.0275 12.7975 0.0000 0.0000 0.0000
# 2 0.0275 133.3106 9.4895 0.0000 0.0000 0.0000
# 3 12.7975 9.4895 152.6745 0.0000 0.0000 0.0000
# 4 0.0000 0.0000 0.0000 33.5537 0.0000 0.0000
# 5 0.0000 0.0000 0.0000 0.0000 14.5153 0.0000
# 6 0.0000 0.0000 0.0000 0.0000 0.0000 15.2447
#
#
#
# Elastic Compliance Matrix: (Units=1/GPa)
#
#
# Indices 1 2 3 4 5 6 
#
# 1 0.026517 0.000153 -0.002232 0.000000 0.000000 0.000000
# 2 0.000153 0.007536 -0.000481 0.000000 0.000000 0.000000
# 3 -0.002232 -0.000481 0.006767 0.000000 0.000000 0.000000
# 4 0.000000 0.000000 0.000000 0.029803 0.000000 0.000000
# 5 0.000000 0.000000 0.000000 0.000000 0.068893 0.000000
# 6 0.000000 0.000000 0.000000 0.000000 0.000000 0.065597
#
#
# Mechanical properties :
#
#
# Convention : Reuss Voigt Hill
#
# Bulk Modulus (GPa) = 28.01148 41.04470 34.52809
# Shear Modulus (GPa) = 22.50910 32.82665 27.66787
#
# Velocity S-wave (km/s) = 3.09092 3.73269 3.42686
# Velocity P-wave (km/s) = 4.96262 5.99986 5.50572
#
# Compressibility (1/GPa) = 0.03569965
#
# Stress axis : x y z
#
# Youngs Moduli (GPa) = 37.71109 132.70509 147.77803
#
# Poissons Ratio (x) = -0.02036 0.32988
# Poissons Ratio (y) = -0.00579 0.07112
# Poissons Ratio (z) = 0.08418 0.06386
#
# Static dielectric constant tensor:
#      x y z
#    x 1.926560 0.000000 0.000000 
#    y 0.000000 2.028580 0.000000 
#    z 0.000000 0.000000 1.895670 
# 
# From -- ./inp_files/31360.got.cif
#   From: 2010.05.17/outbox.cif.g08.bks.cpg/sg20_16_cif.got.tgz:31360.got - 2010.06.03 22:52:26.
