data_PCOD9318367
_publ_section_title
;
Structure prediction by ZEFSAII (Michael W. Deem and Ramdas Pophale) SiO2 
 PCOD9318367
Probable space group: C 2 2 21
;
_chemical_formula_sum "Si O2"
_cell_formula_units_Z 60
_cell_length_a 11.521108
_cell_length_b 14.456615
_cell_length_c 18.772051
_cell_angle_alpha 90.000000
_cell_angle_beta 90.000000
_cell_angle_gamma 90.000000
_cell_volume 3126.601907
_symmetry_space_group_name_H-M "C 2 2 21"
_symmetry_group_IT_number 20
_symmetry_cell_setting 'orthorhombic'
loop_
_space_group_symop_operation_xyz
x,y,z
-x,-y,1/2+z
x,-y,-z
-x,y,1/2-z
1/2+x,1/2+y,z
1/2-x,1/2-y,1/2+z
1/2+x,1/2-y,-z
1/2-x,1/2+y,1/2-z
loop_
_atom_site_type_symbol
_atom_site_label
_atom_site_fract_x
_atom_site_fract_y
_atom_site_fract_z
Si Si1 0.000000 0.012589 0.250000
Si Si2 0.600525 0.331649 0.845585
Si Si3 0.271135 0.210400 0.277444
Si Si4 0.466855 0.072730 0.560396
Si Si5 0.371188 0.234947 0.908700
Si Si6 0.176117 0.872177 0.304469
Si Si7 0.239463 0.284293 0.051911
Si Si8 0.880286 0.493536 0.707083
O O1 0.927658 0.072171 0.307423
O O2 0.918315 0.950350 0.202183
O O3 0.662048 0.281954 0.777914
O O4 0.479204 0.292569 0.875335
O O5 0.689111 0.309481 0.910479
O O6 0.231502 0.247102 0.353434
O O7 0.357275 0.283860 0.242646
O O8 0.319009 0.106137 0.281897
O O9 0.577583 0.131808 0.585712
O O10 0.371223 0.149280 0.535008
O O11 0.412042 0.015042 0.625274
O O12 0.496494 0.000000 0.500000
O O13 0.322708 0.265838 0.985532
O O14 0.195773 0.838081 0.384552
O O15 0.292054 0.923212 0.274535
O O16 0.000000 0.496854 0.750000
#
# Coordination Sequence:
#
# PCOD9318367 Si02
#       8
#     4   8   8   8   8   8   8   8
#     4  12  20  42  66  92 128 162 222 272 318 388
#     4  10  20  39  69  91 118 174 219 260 321 387
#     4  11  21  39  65  95 123 166 223 268 322 381
#     4  10  22  38  59  89 123 165 214 255 317 389
#     4  11  20  40  66  89 127 171 212 265 324 397
#     4  10  23  39  60  96 126 164 212 270 322 394
#     4   9  22  40  61  90 127 163 214 261 325 393
#     4  11  22  39  65  92 124 163 213 274 316 373
#
# _framework density 19.190162999999998
#
# number of rings (size 3 to 8) (size 9 to 14) (size 15 to 20)
#    0.000    1.600    2.667    2.400    0.933    3.200 
#    7.200    0.000    0.000    0.000    0.000    0.000 
#    0.000    0.000    0.000    0.000    0.000    0.000 
#
# Total GULP energy -167159.542287 kJ/mol
# GULP energy per Si atom -5571.984743 kJ/mol
# Density = 1.914649 g / cm^3
# Si number density = 19.190163 Si / 1000 Ang^3
#
#
#
# Elastic Constant Matrix: (Units=GPa)
#
#
# Indices 1 2 3 4 5 6 
#
# 1 56.6404 26.8403 35.8021 0.0000 0.0000 0.0000
# 2 26.8403 108.7632 43.8993 0.0000 0.0000 0.0000
# 3 35.8021 43.8993 98.0055 0.0000 0.0000 0.0000
# 4 0.0000 0.0000 0.0000 20.5452 0.0000 0.0000
# 5 0.0000 0.0000 0.0000 0.0000 27.4361 0.0000
# 6 0.0000 0.0000 0.0000 0.0000 0.0000 -4.1776
#
#
#
# Elastic Compliance Matrix: (Units=1/GPa)
#
#
# Indices 1 2 3 4 5 6 
#
# 1 0.023668 -0.002870 -0.007361 0.000000 0.000000 0.000000
# 2 -0.002870 0.011571 -0.004135 0.000000 0.000000 0.000000
# 3 -0.007361 -0.004135 0.014744 0.000000 0.000000 0.000000
# 4 0.000000 0.000000 0.000000 0.048673 0.000000 0.000000
# 5 0.000000 0.000000 0.000000 0.000000 0.036448 0.000000
# 6 0.000000 0.000000 0.000000 0.000000 0.000000 -0.239375
#
#
# Mechanical properties :
#
#
# Convention : Reuss Voigt Hill
#
# Bulk Modulus (GPa) = 47.05142 52.94362 49.99752
# Shear Modulus (GPa) = -73.04067 19.21857 -26.91105
#
# Velocity S-wave (km/s) = -6.17609 3.16805 -3.74884
# Velocity P-wave (km/s) = 5.12710 6.40554 2.71512
#
# Compressibility (1/GPa) = 0.02125334
#
# Stress axis : x y z
#
# Youngs Moduli (GPa) = 42.25168 86.42020 67.82219
#
# Poissons Ratio (x) = 0.24801 0.49921
# Poissons Ratio (y) = 0.12125 0.28043
# Poissons Ratio (z) = 0.31099 0.35733
#
# Static dielectric constant tensor:
#      x y z
#    x 1.742460 0.000000 0.000000 
#    y 0.000000 1.681140 0.000000 
#    z 0.000000 0.000000 1.643460 
# 
# From -- ./inp_files/24408.got.cif
#   From: 2010.05.17/outbox.cif.g08.bks.cpg/sg20_13_cif.got.tgz:24408.got - 2010.06.03 22:52:26.
