data_PCOD9318749
_publ_section_title
;
Structure prediction by ZEFSAII (Michael W. Deem and Ramdas Pophale) SiO2 
 PCOD9318749
Probable space group: C 2 2 21
;
_chemical_formula_sum "Si O2"
_cell_formula_units_Z 56
_cell_length_a 14.443361
_cell_length_b 25.190067
_cell_length_c 9.142526
_cell_angle_alpha 90.000000
_cell_angle_beta 90.000000
_cell_angle_gamma 90.000000
_cell_volume 3326.318207
_symmetry_space_group_name_H-M "C 2 2 21"
_symmetry_group_IT_number 20
_symmetry_cell_setting 'orthorhombic'
loop_
_space_group_symop_operation_xyz
x,y,z
-x,-y,1/2+z
x,-y,-z
-x,y,1/2-z
1/2+x,1/2+y,z
1/2-x,1/2-y,1/2+z
1/2+x,1/2-y,-z
1/2-x,1/2+y,1/2-z
loop_
_atom_site_type_symbol
_atom_site_label
_atom_site_fract_x
_atom_site_fract_y
_atom_site_fract_z
Si Si1 0.595671 0.184920 0.830893
Si Si2 0.616715 0.554687 0.415392
Si Si3 0.191588 0.255321 0.425137
Si Si4 0.604908 0.557276 0.071062
Si Si5 0.998691 0.253505 0.583286
Si Si6 0.356359 0.663600 0.600665
Si Si7 0.278269 0.352921 0.079237
O O1 0.500000 0.169288 0.750000
O O2 0.648777 0.230204 0.734152
O O3 0.673900 0.141001 0.858860
O O4 0.563605 0.209593 0.982440
O O5 0.635877 0.500000 0.500000
O O6 0.633789 0.554853 0.241161
O O7 0.506604 0.564592 0.433748
O O8 0.677291 0.599039 0.493344
O O9 0.272701 0.297834 0.450346
O O10 0.225262 0.196619 0.466135
O O11 0.102395 0.259671 0.527487
O O12 0.626126 0.500000 0.000000
O O13 0.645221 0.607306 0.981595
O O14 0.952308 0.195031 0.572134
O O15 0.000000 0.269456 0.750000
O O16 0.340155 0.657736 0.775364
#
# Coordination Sequence:
#
# PCOD9318749 Si02
#       7
#     8   8   8   8   8   8   8
#     4   9  21  36  51  75 114 151 186 225 284 335
#     4  10  22  37  56  81 108 147 190 227 275 333
#     4  10  21  34  51  78 112 147 184 223 276 331
#     4  10  22  38  55  77 112 149 184 228 278 333
#     4  11  20  33  51  77 109 148 181 226 271 326
#     4  11  22  34  52  79 112 147 185 226 274 325
#     4  11  20  35  55  79 112 147 189 230 276 332
#
# _framework density 16.835429000000001
#
# number of rings (size 3 to 8) (size 9 to 14) (size 15 to 20)
#    0.000    1.714    2.857    1.714    2.000    2.286 
#    0.000    0.000    0.000    0.000    0.000   16.000 
#    0.000    0.000    0.000    0.000    0.000    0.000 
#
# Total GULP energy -156070.699684 kJ/mol
# GULP energy per Si atom -5573.953560 kJ/mol
# Density = 1.679711 g / cm^3
# Si number density = 16.835429 Si / 1000 Ang^3
#
#
#
# Elastic Constant Matrix: (Units=GPa)
#
#
# Indices 1 2 3 4 5 6 
#
# 1 82.5233 58.9364 50.3774 0.0000 0.0000 0.0000
# 2 58.9364 127.0595 71.8943 0.0000 0.0000 0.0000
# 3 50.3774 71.8943 118.0748 0.0000 0.0000 0.0000
# 4 0.0000 0.0000 0.0000 26.4964 0.0000 0.0000
# 5 0.0000 0.0000 0.0000 0.0000 18.9932 0.0000
# 6 0.0000 0.0000 0.0000 0.0000 0.0000 23.3605
#
#
#
# Elastic Compliance Matrix: (Units=1/GPa)
#
#
# Indices 1 2 3 4 5 6 
#
# 1 0.019441 -0.006597 -0.004278 0.000000 0.000000 0.000000
# 2 -0.006597 0.014246 -0.005859 0.000000 0.000000 0.000000
# 3 -0.004278 -0.005859 0.013862 0.000000 0.000000 0.000000
# 4 0.000000 0.000000 0.000000 0.037741 0.000000 0.000000
# 5 0.000000 0.000000 0.000000 0.000000 0.052651 0.000000
# 6 0.000000 0.000000 0.000000 0.000000 0.000000 0.042807
#
#
# Mechanical properties :
#
#
# Convention : Reuss Voigt Hill
#
# Bulk Modulus (GPa) = 71.02153 76.67489 73.84821
# Shear Modulus (GPa) = 22.84056 23.53331 23.18694
#
# Velocity S-wave (km/s) = 3.68733 3.74283 3.71519
# Velocity P-wave (km/s) = 7.77212 8.02004 7.89705
#
# Compressibility (1/GPa) = 0.01408024
#
# Stress axis : x y z
#
# Youngs Moduli (GPa) = 51.43875 70.19585 72.13979
#
# Poissons Ratio (x) = 0.46309 0.30858
# Poissons Ratio (y) = 0.33935 0.42270
# Poissons Ratio (z) = 0.22003 0.41131
#
# Static dielectric constant tensor:
#      x y z
#    x 1.593280 0.000000 0.000000 
#    y 0.000000 1.543830 0.000000 
#    z 0.000000 0.000000 1.591900 
# 
# From -- ./inp_files/8735.got.cif
#   From: 2010.05.17/outbox.cif.g08.bks.cpg/sg20_5_cif.got.tgz:8735.got - 2010.06.03 22:52:26.
