data_PCOD9318615
_publ_section_title
;
Structure prediction by ZEFSAII (Michael W. Deem and Ramdas Pophale) SiO2 
 PCOD9318615
Probable space group: C 2 2 21
;
_chemical_formula_sum "Si O2"
_cell_formula_units_Z 48
_cell_length_a 4.631174
_cell_length_b 24.790171
_cell_length_c 15.305879
_cell_angle_alpha 90.000000
_cell_angle_beta 90.000000
_cell_angle_gamma 90.000000
_cell_volume 1757.231163
_symmetry_space_group_name_H-M "C 2 2 21"
_symmetry_group_IT_number 20
_symmetry_cell_setting 'orthorhombic'
loop_
_space_group_symop_operation_xyz
x,y,z
-x,-y,1/2+z
x,-y,-z
-x,y,1/2-z
1/2+x,1/2+y,z
1/2-x,1/2-y,1/2+z
1/2+x,1/2-y,-z
1/2-x,1/2+y,1/2-z
loop_
_atom_site_type_symbol
_atom_site_label
_atom_site_fract_x
_atom_site_fract_y
_atom_site_fract_z
Si Si1 0.410404 0.143205 0.349674
Si Si2 0.500000 0.432959 0.250000
Si Si3 0.170703 0.882629 0.006669
Si Si4 0.314333 0.147996 0.622446
Si Si5 0.215985 0.524505 0.165638
Si Si6 0.161564 0.500000 0.500000
Si Si7 0.019365 0.250624 0.566197
O O1 0.500000 0.149262 0.250000
O O2 0.673697 0.131404 0.416287
O O3 0.219472 0.088205 0.346966
O O4 0.342618 0.203817 0.381474
O O5 0.282853 0.390423 0.201824
O O6 0.471526 0.481092 0.176771
O O7 0.359211 0.864688 0.093205
O O8 0.850050 0.865111 0.030870
O O9 0.159132 0.946413 0.004603
O O10 0.191839 0.209158 0.629864
O O11 0.000000 0.520673 0.250000
O O12 0.041171 0.504762 0.083295
O O13 0.272928 0.271791 0.500430
#
# Coordination Sequence:
#
# PCOD9318615 Si02
#       7
#     8   4   8   8   8   4   8
#     4  10  23  46  72 103 147 193 252 301 373 433
#     4  12  26  42  74 108 154 182 252 310 376 442
#     4  11  23  45  68 104 140 190 243 294 371 438
#     4  12  25  44  72 104 142 194 236 305 375 433
#     4  10  22  45  65 103 144 188 242 305 362 446
#     4  10  20  42  68  98 142 188 240 292 374 442
#     4  12  24  49  73 103 145 191 250 308 362 443
#
# _framework density 27.315698000000001
#
# number of rings (size 3 to 8) (size 9 to 14) (size 15 to 20)
#    0.000    1.000    5.000    1.000    1.167    0.667 
#   24.000    0.000    0.000    0.000    0.000    0.000 
#    0.000    0.000    0.000    0.000    0.000    0.000 
#
# Total GULP energy -133927.048456 kJ/mol
# GULP energy per Si atom -5580.293686 kJ/mol
# Density = 2.725353 g / cm^3
# Si number density = 27.315698 Si / 1000 Ang^3
#
#
#
# Elastic Constant Matrix: (Units=GPa)
#
#
# Indices 1 2 3 4 5 6 
#
# 1 98.1949 16.9813 41.2616 0.0000 0.0000 0.0000
# 2 16.9813 169.8182 42.4885 0.0000 0.0000 0.0000
# 3 41.2616 42.4885 157.3575 0.0000 0.0000 0.0000
# 4 0.0000 0.0000 0.0000 57.5188 0.0000 0.0000
# 5 0.0000 0.0000 0.0000 0.0000 34.7608 0.0000
# 6 0.0000 0.0000 0.0000 0.0000 0.0000 7.1101
#
#
#
# Elastic Compliance Matrix: (Units=1/GPa)
#
#
# Indices 1 2 3 4 5 6 
#
# 1 0.011473 -0.000423 -0.002894 0.000000 0.000000 0.000000
# 2 -0.000423 0.006331 -0.001598 0.000000 0.000000 0.000000
# 3 -0.002894 -0.001598 0.007545 0.000000 0.000000 0.000000
# 4 0.000000 0.000000 0.000000 0.017386 0.000000 0.000000
# 5 0.000000 0.000000 0.000000 0.000000 0.028768 0.000000
# 6 0.000000 0.000000 0.000000 0.000000 0.000000 0.140644
#
#
# Mechanical properties :
#
#
# Convention : Reuss Voigt Hill
#
# Bulk Modulus (GPa) = 64.44170 69.64816 67.04493
# Shear Modulus (GPa) = 22.01175 41.52057 31.76616
#
# Velocity S-wave (km/s) = 2.84179 3.90298 3.41387
# Velocity P-wave (km/s) = 5.86603 6.77229 6.33539
#
# Compressibility (1/GPa) = 0.01551790
#
# Stress axis : x y z
#
# Youngs Moduli (GPa) = 87.16006 157.95540 132.52996
#
# Poissons Ratio (x) = 0.06684 0.38357
# Poissons Ratio (y) = 0.03688 0.21184
# Poissons Ratio (z) = 0.25226 0.25249
#
# Static dielectric constant tensor:
#      x y z
#    x 2.096710 0.000000 0.000000 
#    y 0.000000 2.283170 0.000000 
#    z 0.000000 0.000000 2.161130 
# 
# From -- ./inp_files/17841.got.cif
#   From: 2010.05.17/outbox.cif.g08.bks.cpg/sg20_9_cif.got.tgz:17841.got - 2010.06.03 22:52:26.
