data_PCOD9318775
_publ_section_title
;
Structure prediction by ZEFSAII (Michael W. Deem and Ramdas Pophale) SiO2 
 PCOD9318775
Probable space group: C 2 2 21
;
_chemical_formula_sum "Si O2"
_cell_formula_units_Z 48
_cell_length_a 8.826623
_cell_length_b 11.552275
_cell_length_c 19.597989
_cell_angle_alpha 90.000000
_cell_angle_beta 90.000000
_cell_angle_gamma 90.000000
_cell_volume 1998.359437
_symmetry_space_group_name_H-M "C 2 2 21"
_symmetry_group_IT_number 20
_symmetry_cell_setting 'orthorhombic'
loop_
_space_group_symop_operation_xyz
x,y,z
-x,-y,1/2+z
x,-y,-z
-x,y,1/2-z
1/2+x,1/2+y,z
1/2-x,1/2-y,1/2+z
1/2+x,1/2-y,-z
1/2-x,1/2+y,1/2-z
loop_
_atom_site_type_symbol
_atom_site_label
_atom_site_fract_x
_atom_site_fract_y
_atom_site_fract_z
Si Si1 0.647404 0.879605 0.868862
Si Si2 0.527981 0.732829 0.525443
Si Si3 0.142922 0.496532 0.364386
Si Si4 0.158319 0.000000 0.000000
Si Si5 0.500000 0.273787 0.250000
Si Si6 0.418730 0.754767 0.129948
Si Si7 0.265481 0.246984 0.155551
O O1 0.594706 0.815065 0.938031
O O2 0.540935 0.991769 0.869134
O O3 0.584993 0.801656 0.807230
O O4 0.826850 0.865307 0.863312
O O5 0.449294 0.609673 0.513114
O O6 0.572300 0.778545 0.451324
O O7 0.666703 0.730253 0.579567
O O8 0.232752 0.513146 0.435022
O O9 0.196626 0.611853 0.325430
O O10 0.169110 0.366269 0.340006
O O11 0.365003 0.328521 0.205186
O O12 0.586651 0.752711 0.158617
#
# Coordination Sequence:
#
# PCOD9318775 Si02
#       7
#     8   8   8   4   4   8   8
#     4  10  22  39  63  89 126 165 210 257 310 374
#     4  10  21  35  60  94 127 160 202 253 318 377
#     4  10  21  38  60  86 128 162 197 259 310 364
#     4  12  18  36  64  92 136 166 202 262 324 372
#     4   8  20  44  62  86 128 166 206 272 304 350
#     4  12  21  38  66  95 122 165 210 253 328 380
#     4  10  22  41  63  88 129 166 209 262 309 373
#
# _framework density 24.019704000000001
#
# number of rings (size 3 to 8) (size 9 to 14) (size 15 to 20)
#    0.000    2.000    3.333    3.000    0.000    2.000 
#    0.000    6.667    0.000    0.000    0.000    0.000 
#    0.000    0.000    0.000    0.000    0.000    0.000 
#
# Total GULP energy -133850.447108 kJ/mol
# GULP energy per Si atom -5577.101963 kJ/mol
# Density = 2.396503 g / cm^3
# Si number density = 24.019704 Si / 1000 Ang^3
#
#
#
# Elastic Constant Matrix: (Units=GPa)
#
#
# Indices 1 2 3 4 5 6 
#
# 1 119.7530 26.8484 27.9439 0.0000 0.0000 0.0000
# 2 26.8484 90.9556 -4.7702 0.0000 0.0000 0.0000
# 3 27.9439 -4.7702 43.2113 0.0000 0.0000 0.0000
# 4 0.0000 0.0000 0.0000 12.2580 0.0000 0.0000
# 5 0.0000 0.0000 0.0000 0.0000 26.8614 0.0000
# 6 0.0000 0.0000 0.0000 0.0000 0.0000 28.7511
#
#
#
# Elastic Compliance Matrix: (Units=1/GPa)
#
#
# Indices 1 2 3 4 5 6 
#
# 1 0.010896 -0.003607 -0.007445 0.000000 0.000000 0.000000
# 2 -0.003607 0.012252 0.003685 0.000000 0.000000 0.000000
# 3 -0.007445 0.003685 0.028363 0.000000 0.000000 0.000000
# 4 0.000000 0.000000 0.000000 0.081579 0.000000 0.000000
# 5 0.000000 0.000000 0.000000 0.000000 0.037228 0.000000
# 6 0.000000 0.000000 0.000000 0.000000 0.000000 0.034781
#
#
# Mechanical properties :
#
#
# Convention : Reuss Voigt Hill
#
# Bulk Modulus (GPa) = 27.18942 39.32934 33.25938
# Shear Modulus (GPa) = 21.54308 27.16728 24.35518
#
# Velocity S-wave (km/s) = 2.99806 3.36674 3.18774
# Velocity P-wave (km/s) = 4.82998 5.61450 5.23695
#
# Compressibility (1/GPa) = 0.03677901
#
# Stress axis : x y z
#
# Youngs Moduli (GPa) = 91.77392 81.61727 35.25696
#
# Poissons Ratio (x) = 0.29438 0.26247
# Poissons Ratio (y) = 0.33101 -0.12992
# Poissons Ratio (z) = 0.68322 -0.30076
#
# Static dielectric constant tensor:
#      x y z
#    x 1.999720 0.000000 0.000000 
#    y 0.000000 1.941060 0.000000 
#    z 0.000000 0.000000 1.942420 
# 
# From -- ./inp_files/28744.got.cif
#   From: 2010.05.17/outbox.cif.g08.bks.cpg/sg20_15_cif.got.tgz:28744.got - 2010.06.03 22:52:26.
