data_PCOD9318579
_publ_section_title
;
Structure prediction by ZEFSAII (Michael W. Deem and Ramdas Pophale) SiO2 
 PCOD9318579
Probable space group: C 2 2 21
;
_chemical_formula_sum "Si O2"
_cell_formula_units_Z 44
_cell_length_a 15.887420
_cell_length_b 9.340335
_cell_length_c 13.150788
_cell_angle_alpha 90.000000
_cell_angle_beta 90.000000
_cell_angle_gamma 90.000000
_cell_volume 1951.495734
_symmetry_space_group_name_H-M "C 2 2 21"
_symmetry_group_IT_number 20
_symmetry_cell_setting 'orthorhombic'
loop_
_space_group_symop_operation_xyz
x,y,z
-x,-y,1/2+z
x,-y,-z
-x,y,1/2-z
1/2+x,1/2+y,z
1/2-x,1/2-y,1/2+z
1/2+x,1/2-y,-z
1/2-x,1/2+y,1/2-z
loop_
_atom_site_type_symbol
_atom_site_label
_atom_site_fract_x
_atom_site_fract_y
_atom_site_fract_z
Si Si1 0.793301 0.500000 0.000000
Si Si2 0.790195 0.394581 0.654243
Si Si3 0.358074 0.267704 0.917075
Si Si4 0.175809 0.071627 0.806074
Si Si5 0.591266 0.135596 0.796515
Si Si6 0.464002 0.584453 0.399151
O O1 0.855163 0.362491 0.003146
O O2 0.730814 0.479173 0.095458
O O3 0.730830 0.345352 0.562111
O O4 0.722340 0.486467 0.717714
O O5 0.867622 0.501123 0.648959
O O6 0.820737 0.243380 0.701381
O O7 0.358822 0.193424 0.803625
O O8 0.438445 0.370515 0.911347
O O9 0.079900 0.016288 0.814962
O O10 0.500000 0.101747 0.750000
O O11 0.580798 0.264553 0.875822
O O12 0.441963 0.500000 0.500000
#
# Coordination Sequence:
#
# PCOD9318579 Si02
#       6
#     4   8   8   8   8   8
#     4  10  20  42  64  92 130 176 208 286 332 390
#     4  11  20  42  69  99 123 179 224 273 332 416
#     4  10  22  42  68  91 137 173 226 274 338 406
#     4  11  21  39  69  94 131 167 226 272 339 399
#     4  10  21  43  67  93 132 174 224 272 335 411
#     4  11  23  45  61  94 135 175 216 288 341 391
#
# _framework density 22.546807999999999
#
# number of rings (size 3 to 8) (size 9 to 14) (size 15 to 20)
#    0.000    1.455    6.364    0.000    0.000    0.000 
#   16.364    0.000    0.000    0.000    0.000    0.000 
#    0.000    0.000    0.000    0.000    0.000    0.000 
#
# Total GULP energy -122571.048099 kJ/mol
# GULP energy per Si atom -5571.411277 kJ/mol
# Density = 2.249549 g / cm^3
# Si number density = 22.546808 Si / 1000 Ang^3
#
#
#
# Elastic Constant Matrix: (Units=GPa)
#
#
# Indices 1 2 3 4 5 6 
#
# 1 134.0501 83.4067 5.1904 0.0000 0.0000 0.0000
# 2 83.4067 189.4488 25.2921 0.0000 0.0000 0.0000
# 3 5.1904 25.2921 38.3650 0.0000 0.0000 0.0000
# 4 0.0000 0.0000 0.0000 37.5318 0.0000 0.0000
# 5 0.0000 0.0000 0.0000 0.0000 9.0656 0.0000
# 6 0.0000 0.0000 0.0000 0.0000 0.0000 12.1396
#
#
#
# Elastic Compliance Matrix: (Units=1/GPa)
#
#
# Indices 1 2 3 4 5 6 
#
# 1 0.010382 -0.004806 0.001764 0.000000 0.000000 0.000000
# 2 -0.004806 0.008013 -0.004632 0.000000 0.000000 0.000000
# 3 0.001764 -0.004632 0.028881 0.000000 0.000000 0.000000
# 4 0.000000 0.000000 0.000000 0.026644 0.000000 0.000000
# 5 0.000000 0.000000 0.000000 0.000000 0.110308 0.000000
# 6 0.000000 0.000000 0.000000 0.000000 0.000000 0.082375
#
#
# Mechanical properties :
#
#
# Convention : Reuss Voigt Hill
#
# Bulk Modulus (GPa) = 31.32207 65.51582 48.41894
# Shear Modulus (GPa) = 17.08853 28.27903 22.68378
#
# Velocity S-wave (km/s) = 2.75601 3.54536 3.17531
# Velocity P-wave (km/s) = 4.90404 6.77349 5.91312
#
# Compressibility (1/GPa) = 0.03192637
#
# Stress axis : x y z
#
# Youngs Moduli (GPa) = 96.31945 124.79828 34.62535
#
# Poissons Ratio (x) = 0.59982 -0.06108
# Poissons Ratio (y) = 0.46294 0.16039
# Poissons Ratio (z) = -0.16990 0.57810
#
# Static dielectric constant tensor:
#      x y z
#    x 1.937840 0.000000 0.000000 
#    y 0.000000 1.895640 0.000000 
#    z 0.000000 0.000000 1.894280 
# 
# From -- ./inp_files/21235.got.cif
#   From: 2010.05.17/outbox.cif.g08.bks.cpg/sg20_11_cif.got.tgz:21235.got - 2010.06.03 22:52:26.
