data_PCOD9318306
_publ_section_title
;
Structure prediction by ZEFSAII (Michael W. Deem and Ramdas Pophale) SiO2 
 PCOD9318306
Probable space group: C 2 2 21
;
_chemical_formula_sum "Si O2"
_cell_formula_units_Z 48
_cell_length_a 16.420767
_cell_length_b 25.072981
_cell_length_c 5.543065
_cell_angle_alpha 90.000000
_cell_angle_beta 90.000000
_cell_angle_gamma 90.000000
_cell_volume 2282.177302
_symmetry_space_group_name_H-M "C 2 2 21"
_symmetry_group_IT_number 20
_symmetry_cell_setting 'orthorhombic'
loop_
_space_group_symop_operation_xyz
x,y,z
-x,-y,1/2+z
x,-y,-z
-x,y,1/2-z
1/2+x,1/2+y,z
1/2-x,1/2-y,1/2+z
1/2+x,1/2-y,-z
1/2-x,1/2+y,1/2-z
loop_
_atom_site_type_symbol
_atom_site_label
_atom_site_fract_x
_atom_site_fract_y
_atom_site_fract_z
Si Si1 0.089778 0.446389 0.647529
Si Si2 0.199509 0.746266 0.821697
Si Si3 0.670931 0.641465 0.178363
Si Si4 0.449256 0.559665 0.502421
Si Si5 0.328641 0.135110 0.876647
Si Si6 0.753357 0.439857 0.502320
O O1 0.105739 0.500000 0.500000
O O2 0.093263 0.392150 0.492042
O O3 0.164559 0.442181 0.834737
O O4 0.000000 0.451983 0.750000
O O5 0.261997 0.752523 0.592066
O O6 0.141818 0.798054 0.787118
O O7 0.160770 0.687675 0.783246
O O8 0.686464 0.601682 0.400105
O O9 0.614870 0.607491 0.002191
O O10 0.762112 0.649958 0.077681
O O11 0.411338 0.500000 0.500000
O O12 0.500000 0.562795 0.750000
O O13 0.500000 0.564304 0.250000
O O14 0.285271 0.085905 0.741640
O O15 0.720693 0.500000 0.500000
#
# Coordination Sequence:
#
# PCOD9318306 Si02
#       6
#     8   8   8   8   8   8
#     4  11  23  37  57  89 127 174 206 255 322 386
#     4  10  20  39  63  93 124 162 206 262 322 368
#     4  10  23  37  65  90 122 161 206 262 318 378
#     4  10  24  41  61  91 127 164 202 250 320 388
#     4  10  22  38  60  93 122 157 217 263 310 376
#     4  11  21  35  60  93 123 154 212 266 313 369
#
# _framework density 21.032544999999999
#
# number of rings (size 3 to 8) (size 9 to 14) (size 15 to 20)
#    0.000    1.667    3.333    0.500    4.667    0.667 
#    0.000    0.000    3.667    0.000    0.000    0.000 
#    0.000    0.000    0.000    0.000    0.000    0.000 
#
# Total GULP energy -133767.967652 kJ/mol
# GULP energy per Si atom -5573.665319 kJ/mol
# Density = 2.098467 g / cm^3
# Si number density = 21.032545 Si / 1000 Ang^3
#
#
#
# Elastic Constant Matrix: (Units=GPa)
#
#
# Indices 1 2 3 4 5 6 
#
# 1 29.2865 16.7992 7.5152 0.0000 0.0000 0.0000
# 2 16.7992 154.9645 14.1105 0.0000 0.0000 0.0000
# 3 7.5152 14.1105 76.1712 0.0000 0.0000 0.0000
# 4 0.0000 0.0000 0.0000 39.3663 0.0000 0.0000
# 5 0.0000 0.0000 0.0000 0.0000 20.0084 0.0000
# 6 0.0000 0.0000 0.0000 0.0000 0.0000 5.5962
#
#
#
# Elastic Compliance Matrix: (Units=1/GPa)
#
#
# Indices 1 2 3 4 5 6 
#
# 1 0.037055 -0.003747 -0.002962 0.000000 0.000000 0.000000
# 2 -0.003747 0.006943 -0.000916 0.000000 0.000000 0.000000
# 3 -0.002962 -0.000916 0.013590 0.000000 0.000000 0.000000
# 4 0.000000 0.000000 0.000000 0.025402 0.000000 0.000000
# 5 0.000000 0.000000 0.000000 0.000000 0.049979 0.000000
# 6 0.000000 0.000000 0.000000 0.000000 0.000000 0.178694
#
#
# Mechanical properties :
#
#
# Convention : Reuss Voigt Hill
#
# Bulk Modulus (GPa) = 23.61992 37.47466 30.54729
# Shear Modulus (GPa) = 14.66162 27.79402 21.22782
#
# Velocity S-wave (km/s) = 2.64311 3.63916 3.18037
# Velocity P-wave (km/s) = 4.53534 5.95937 5.29544
#
# Compressibility (1/GPa) = 0.04233715
#
# Stress axis : x y z
#
# Youngs Moduli (GPa) = 26.98691 144.03479 73.58195
#
# Poissons Ratio (x) = 0.53974 0.21793
# Poissons Ratio (y) = 0.10113 0.06743
# Poissons Ratio (z) = 0.07993 0.13200
#
# Static dielectric constant tensor:
#      x y z
#    x 1.747940 0.000000 0.000000 
#    y 0.000000 1.908790 0.000000 
#    z 0.000000 0.000000 1.854210 
# 
# From -- ./inp_files/2010.got.cif
#   From: 2010.05.17/outbox.cif.g08.bks.cpg/sg20_2_cif.got.tgz:2010.got - 2010.06.03 22:52:26.
