data_PCOD9318027
_publ_section_title
;
Structure prediction by ZEFSAII (Michael W. Deem and Ramdas Pophale) SiO2 
 PCOD9318027
Probable space group: C 2 2 21
;
_chemical_formula_sum "Si O2"
_cell_formula_units_Z 44
_cell_length_a 13.880596
_cell_length_b 28.853440
_cell_length_c 5.390742
_cell_angle_alpha 90.000000
_cell_angle_beta 90.000000
_cell_angle_gamma 90.000000
_cell_volume 2159.008041
_symmetry_space_group_name_H-M "C 2 2 21"
_symmetry_group_IT_number 20
_symmetry_cell_setting 'orthorhombic'
loop_
_space_group_symop_operation_xyz
x,y,z
-x,-y,1/2+z
x,-y,-z
-x,y,1/2-z
1/2+x,1/2+y,z
1/2-x,1/2-y,1/2+z
1/2+x,1/2-y,-z
1/2-x,1/2+y,1/2-z
loop_
_atom_site_type_symbol
_atom_site_label
_atom_site_fract_x
_atom_site_fract_y
_atom_site_fract_z
Si Si1 0.937016 0.500000 0.000000
Si Si2 0.500000 0.274311 0.250000
Si Si3 0.000000 0.922133 0.250000
Si Si4 0.706455 0.267537 0.376288
Si Si5 0.500000 0.334322 0.750000
Si Si6 0.172387 0.873061 0.510318
Si Si7 0.721046 0.038751 0.192909
Si Si8 0.395203 0.500000 0.500000
O O1 0.860702 0.539678 0.092595
O O2 0.000000 0.489552 0.250000
O O3 0.601838 0.249854 0.282832
O O4 0.494737 0.304338 0.501217
O O5 0.905713 0.893901 0.179152
O O6 0.964654 0.957037 0.458885
O O7 0.725462 0.247039 0.649153
O O8 0.707964 0.323399 0.411231
O O9 0.599735 0.362346 0.738657
O O10 0.251416 0.911477 0.578857
O O11 0.820723 0.016131 0.289287
O O12 0.685571 0.000000 0.000000
#
# Coordination Sequence:
#
# PCOD9318027 Si02
#       8
#     4   4   4   8   4   8   8   4
#     4  11  24  46  71  92 118 170 231 290 332 383
#     4  10  21  42  68  97 132 170 226 273 340 407
#     4  12  21  35  62 100 152 192 218 254 319 425
#     4  11  24  43  68  99 131 177 230 287 337 399
#     4  10  20  37  62 101 136 178 212 249 311 426
#     4  11  22  38  64 100 138 183 219 266 334 409
#     4  11  22  41  63 100 134 176 216 276 332 410
#     4  11  22  34  57  98 156 182 217 252 322 399
#
# _framework density 20.379732000000001
#
# number of rings (size 3 to 8) (size 9 to 14) (size 15 to 20)
#    0.000    1.091    2.727    6.545    0.000    1.455 
#    0.000    0.000    2.000    2.182    9.455    0.000 
#    0.000    0.000    0.000    0.000    0.000    0.000 
#
# Total GULP energy -122633.637992 kJ/mol
# GULP energy per Si atom -5574.256272 kJ/mol
# Density = 2.033335 g / cm^3
# Si number density = 20.379732 Si / 1000 Ang^3
#
#
#
# Elastic Constant Matrix: (Units=GPa)
#
#
# Indices 1 2 3 4 5 6 
#
# 1 88.6893 43.7342 35.0158 0.0000 0.0000 0.0000
# 2 43.7342 118.9010 46.7798 0.0000 0.0000 0.0000
# 3 35.0158 46.7798 118.0110 0.0000 0.0000 0.0000
# 4 0.0000 0.0000 0.0000 20.5580 0.0000 0.0000
# 5 0.0000 0.0000 0.0000 0.0000 53.5496 0.0000
# 6 0.0000 0.0000 0.0000 0.0000 0.0000 29.4346
#
#
#
# Elastic Compliance Matrix: (Units=1/GPa)
#
#
# Indices 1 2 3 4 5 6 
#
# 1 0.014405 -0.004285 -0.002576 0.000000 0.000000 0.000000
# 2 -0.004285 0.011239 -0.003184 0.000000 0.000000 0.000000
# 3 -0.002576 -0.003184 0.010500 0.000000 0.000000 0.000000
# 4 0.000000 0.000000 0.000000 0.048643 0.000000 0.000000
# 5 0.000000 0.000000 0.000000 0.000000 0.018674 0.000000
# 6 0.000000 0.000000 0.000000 0.000000 0.000000 0.033974
#
#
# Mechanical properties :
#
#
# Convention : Reuss Voigt Hill
#
# Bulk Modulus (GPa) = 62.28447 64.07344 63.17895
# Shear Modulus (GPa) = 30.69817 34.04655 32.37236
#
# Velocity S-wave (km/s) = 3.88533 4.09174 3.98987
# Velocity P-wave (km/s) = 7.12433 7.33697 7.23143
#
# Compressibility (1/GPa) = 0.01605537
#
# Stress axis : x y z
#
# Youngs Moduli (GPa) = 69.41875 88.97480 95.23768
#
# Poissons Ratio (x) = 0.38128 0.24530
# Poissons Ratio (y) = 0.29748 0.30321
# Poissons Ratio (z) = 0.17880 0.28327
#
# Static dielectric constant tensor:
#      x y z
#    x 2.023350 0.000000 0.000000 
#    y 0.000000 1.756740 0.000000 
#    z 0.000000 0.000000 1.843010 
# 
# From -- ./inp_files/2006.got.cif
#   From: 2010.05.17/outbox.cif.g08.bks.cpg/sg20_2_cif.got.tgz:2006.got - 2010.06.03 22:52:26.
