data_PCOD9318319
_publ_section_title
;
Structure prediction by ZEFSAII (Michael W. Deem and Ramdas Pophale) SiO2 
 PCOD9318319
Probable space group: C 2 2 21
;
_chemical_formula_sum "Si O2"
_cell_formula_units_Z 48
_cell_length_a 8.535641
_cell_length_b 29.663129
_cell_length_c 8.325913
_cell_angle_alpha 90.000000
_cell_angle_beta 90.000000
_cell_angle_gamma 90.000000
_cell_volume 2108.069718
_symmetry_space_group_name_H-M "C 2 2 21"
_symmetry_group_IT_number 20
_symmetry_cell_setting 'orthorhombic'
loop_
_space_group_symop_operation_xyz
x,y,z
-x,-y,1/2+z
x,-y,-z
-x,y,1/2-z
1/2+x,1/2+y,z
1/2-x,1/2-y,1/2+z
1/2+x,1/2-y,-z
1/2-x,1/2+y,1/2-z
loop_
_atom_site_type_symbol
_atom_site_label
_atom_site_fract_x
_atom_site_fract_y
_atom_site_fract_z
Si Si1 0.101850 0.350914 0.085747
Si Si2 0.156579 0.776010 0.533627
Si Si3 0.817660 0.922394 0.243822
Si Si4 0.318245 0.106987 0.089074
Si Si5 0.328040 0.990181 0.810022
Si Si6 0.174510 0.800985 0.897470
O O1 0.223619 0.391461 0.120466
O O2 0.000000 0.343513 0.250000
O O3 0.206396 0.307587 0.038693
O O4 0.985617 0.369594 0.947560
O O5 0.165419 0.778231 0.724726
O O6 0.183786 0.724639 0.483169
O O7 0.981688 0.793409 0.497801
O O8 0.741335 0.909744 0.415010
O O9 0.000000 0.912103 0.250000
O O10 0.789375 0.975918 0.221236
O O11 0.312377 0.063650 0.203691
O O12 0.203911 0.147055 0.137386
O O13 0.500000 0.003396 0.750000
O O14 0.317742 0.000000 0.000000
#
# Coordination Sequence:
#
# PCOD9318319 Si02
#       6
#     8   8   8   8   8   8
#     4  10  22  40  69  95 127 172 223 270 325 395
#     4  11  26  44  70  97 136 172 219 276 329 397
#     4  10  20  39  64  93 128 173 217 265 327 384
#     4  10  22  40  64  92 133 168 216 270 323 388
#     4  10  21  40  63  93 127 167 215 269 319 388
#     4  11  26  45  65 101 134 173 220 269 336 396
#
# _framework density 22.769646000000002
#
# number of rings (size 3 to 8) (size 9 to 14) (size 15 to 20)
#    0.000    1.667    0.000    4.500    9.333    2.000 
#    3.000    7.500    0.000    0.000    0.000    0.000 
#    0.000    0.000    0.000    0.000    0.000    0.000 
#
# Total GULP energy -134161.693879 kJ/mol
# GULP energy per Si atom -5590.070578 kJ/mol
# Density = 2.271782 g / cm^3
# Si number density = 22.769646 Si / 1000 Ang^3
#
#
#
# Elastic Constant Matrix: (Units=GPa)
#
#
# Indices 1 2 3 4 5 6 
#
# 1 117.3972 32.8610 1.1646 0.0000 0.0000 0.0000
# 2 32.8610 123.0869 19.5181 0.0000 0.0000 0.0000
# 3 1.1646 19.5181 26.2539 0.0000 0.0000 0.0000
# 4 0.0000 0.0000 0.0000 67.7225 0.0000 0.0000
# 5 0.0000 0.0000 0.0000 0.0000 16.5401 0.0000
# 6 0.0000 0.0000 0.0000 0.0000 0.0000 26.6901
#
#
#
# Elastic Compliance Matrix: (Units=1/GPa)
#
#
# Indices 1 2 3 4 5 6 
#
# 1 0.009266 -0.002731 0.001619 0.000000 0.000000 0.000000
# 2 -0.002731 0.010015 -0.007324 0.000000 0.000000 0.000000
# 3 0.001619 -0.007324 0.043463 0.000000 0.000000 0.000000
# 4 0.000000 0.000000 0.000000 0.014766 0.000000 0.000000
# 5 0.000000 0.000000 0.000000 0.000000 0.060459 0.000000
# 6 0.000000 0.000000 0.000000 0.000000 0.000000 0.037467
#
#
# Mechanical properties :
#
#
# Convention : Reuss Voigt Hill
#
# Bulk Modulus (GPa) = 21.79964 41.53617 31.66790
# Shear Modulus (GPa) = 24.08491 36.40347 30.24419
#
# Velocity S-wave (km/s) = 3.25586 4.00280 3.64849
# Velocity P-wave (km/s) = 4.87123 6.29641 5.62910
#
# Compressibility (1/GPa) = 0.04587232
#
# Stress axis : x y z
#
# Youngs Moduli (GPa) = 107.91718 99.85267 23.00814
#
# Poissons Ratio (x) = 0.27266 -0.03725
# Poissons Ratio (y) = 0.29468 0.16852
# Poissons Ratio (z) = -0.17471 0.73134
#
# Static dielectric constant tensor:
#      x y z
#    x 1.876290 0.000000 0.000000 
#    y 0.000000 1.895200 0.000000 
#    z 0.000000 0.000000 1.841190 
# 
# From -- ./inp_files/6529.got.cif
#   From: 2010.05.17/outbox.cif.g08.bks.cpg/sg20_4_cif.got.tgz:6529.got - 2010.06.03 22:52:26.
