data_PCOD9318006
_publ_section_title
;
Structure prediction by ZEFSAII (Michael W. Deem and Ramdas Pophale) SiO2 
 PCOD9318006
Probable space group: C 2 2 21
;
_chemical_formula_sum "Si O2"
_cell_formula_units_Z 48
_cell_length_a 18.084749
_cell_length_b 10.790154
_cell_length_c 13.936776
_cell_angle_alpha 90.000000
_cell_angle_beta 90.000000
_cell_angle_gamma 90.000000
_cell_volume 2719.583819
_symmetry_space_group_name_H-M "C 2 2 21"
_symmetry_group_IT_number 20
_symmetry_cell_setting 'orthorhombic'
loop_
_space_group_symop_operation_xyz
x,y,z
-x,-y,1/2+z
x,-y,-z
-x,y,1/2-z
1/2+x,1/2+y,z
1/2-x,1/2-y,1/2+z
1/2+x,1/2-y,-z
1/2-x,1/2+y,1/2-z
loop_
_atom_site_type_symbol
_atom_site_label
_atom_site_fract_x
_atom_site_fract_y
_atom_site_fract_z
Si Si1 0.106795 0.249918 0.462941
Si Si2 0.224831 0.404214 0.583194
Si Si3 0.635610 0.072732 0.711024
Si Si4 0.810519 0.000000 0.000000
Si Si5 0.317102 0.836148 0.414185
Si Si6 0.000000 0.596563 0.250000
Si Si7 0.539913 0.859295 0.962147
O O1 0.153279 0.329522 0.542013
O O2 0.126261 0.315252 0.362809
O O3 0.137249 0.110155 0.461530
O O4 0.020947 0.270377 0.488519
O O5 0.246820 0.500000 0.500000
O O6 0.202039 0.485434 0.674483
O O7 0.286008 0.301286 0.599884
O O8 0.643809 0.118115 0.818515
O O9 0.563605 0.988679 0.706682
O O10 0.752685 0.926766 0.068030
O O11 0.376596 0.838507 0.500279
O O12 0.032928 0.658918 0.153236
O O13 0.522082 0.000000 0.000000
#
# Coordination Sequence:
#
# PCOD9318006 Si02
#       7
#     8   8   8   4   8   4   8
#     4  10  20  37  61  79 119 156 195 237 306 362
#     4   9  20  39  55  83 119 164 197 245 307 363
#     4  11  19  33  62  89 113 154 205 250 301 363
#     4  10  22  40  54  86 122 162 190 246 306 362
#     4  11  22  36  60  89 123 156 205 261 299 354
#     4  12  20  34  64  90 112 146 208 260 298 354
#     4  12  20  38  59  90 117 153 204 254 295 355
#
# _framework density 17.649759
#
# number of rings (size 3 to 8) (size 9 to 14) (size 15 to 20)
#    0.000    1.333    5.833    0.500    2.333    0.000 
#    4.500    0.000    0.000    0.000    0.000    0.000 
#    0.000    0.000    0.000    0.000    0.000    0.000 
#
# Total GULP energy -133770.086329 kJ/mol
# GULP energy per Si atom -5573.753597 kJ/mol
# Density = 1.760959 g / cm^3
# Si number density = 17.649759 Si / 1000 Ang^3
#
#
#
# Elastic Constant Matrix: (Units=GPa)
#
#
# Indices 1 2 3 4 5 6 
#
# 1 67.6065 30.6020 19.7078 0.0000 0.0000 0.0000
# 2 30.6020 89.3085 28.5015 0.0000 0.0000 0.0000
# 3 19.7078 28.5015 86.4962 0.0000 0.0000 0.0000
# 4 0.0000 0.0000 0.0000 8.7664 0.0000 0.0000
# 5 0.0000 0.0000 0.0000 0.0000 15.2547 0.0000
# 6 0.0000 0.0000 0.0000 0.0000 0.0000 -154.4203
#
#
#
# Elastic Compliance Matrix: (Units=1/GPa)
#
#
# Indices 1 2 3 4 5 6 
#
# 1 0.017907 -0.005402 -0.002300 0.000000 0.000000 0.000000
# 2 -0.005402 0.014143 -0.003429 0.000000 0.000000 0.000000
# 3 -0.002300 -0.003429 0.013215 0.000000 0.000000 0.000000
# 4 0.000000 0.000000 0.000000 0.114071 0.000000 0.000000
# 5 0.000000 0.000000 0.000000 0.000000 0.065554 0.000000
# 6 0.000000 0.000000 0.000000 0.000000 0.000000 -0.006476
#
#
# Mechanical properties :
#
#
# Convention : Reuss Voigt Hill
#
# Bulk Modulus (GPa) = 43.47393 44.55934 44.01663
# Shear Modulus (GPa) = 20.13333 -15.10651 2.51341
#
# Velocity S-wave (km/s) = 3.38111 -2.92876 1.19463
# Velocity P-wave (km/s) = 6.31882 3.72349 5.18613
#
# Compressibility (1/GPa) = 0.02300229
#
# Stress axis : x y z
#
# Youngs Moduli (GPa) = 55.84358 70.70853 75.67004
#
# Poissons Ratio (x) = 0.38196 0.17405
# Poissons Ratio (y) = 0.30166 0.25950
# Poissons Ratio (z) = 0.12844 0.24248
#
# Static dielectric constant tensor:
#      x y z
#    x 1.676270 0.000000 0.000000 
#    y 0.000000 1.582120 0.000000 
#    z 0.000000 0.000000 1.604530 
# 
# From -- ./inp_files/20147.got.cif
#   From: 2010.05.17/outbox.cif.g08.bks.cpg/sg20_11_cif.got.tgz:20147.got - 2010.06.03 22:52:26.
