data_PCOD9318221
_publ_section_title
;
Structure prediction by ZEFSAII (Michael W. Deem and Ramdas Pophale) SiO2 
 PCOD9318221
Probable space group: C 2 2 21
;
_chemical_formula_sum "Si O2"
_cell_formula_units_Z 48
_cell_length_a 22.721317
_cell_length_b 5.463753
_cell_length_c 17.546034
_cell_angle_alpha 90.000000
_cell_angle_beta 90.000000
_cell_angle_gamma 90.000000
_cell_volume 2178.228948
_symmetry_space_group_name_H-M "C 2 2 21"
_symmetry_group_IT_number 20
_symmetry_cell_setting 'orthorhombic'
loop_
_space_group_symop_operation_xyz
x,y,z
-x,-y,1/2+z
x,-y,-z
-x,y,1/2-z
1/2+x,1/2+y,z
1/2-x,1/2-y,1/2+z
1/2+x,1/2-y,-z
1/2-x,1/2+y,1/2-z
loop_
_atom_site_type_symbol
_atom_site_label
_atom_site_fract_x
_atom_site_fract_y
_atom_site_fract_z
Si Si1 0.947981 0.186099 0.310272
Si Si2 0.530960 0.873355 0.429634
Si Si3 0.358471 0.147865 0.126794
Si Si4 0.120925 0.000000 0.500000
Si Si5 0.373724 0.811468 0.701462
Si Si6 0.336856 0.750881 0.532442
Si Si7 0.224106 0.500000 0.500000
O O1 0.905932 0.424617 0.306920
O O2 0.000000 0.217124 0.250000
O O3 0.984777 0.205559 0.387416
O O4 0.916666 0.926368 0.297105
O O5 0.579724 0.714228 0.471108
O O6 0.499064 0.000000 0.500000
O O7 0.572882 0.053135 0.378306
O O8 0.350491 0.393626 0.076503
O O9 0.343451 0.178111 0.215277
O O10 0.315577 0.979425 0.075517
O O11 0.337215 0.765016 0.623999
O O12 0.365821 0.500000 0.500000
O O13 0.270508 0.721563 0.499825
O O14 0.362555 0.000000 0.500000
#
# Coordination Sequence:
#
# PCOD9318221 Si02
#       7
#     8   8   8   4   8   8   4
#     4  12  25  43  67 101 142 189 221 286 339 414
#     4  10  22  38  62 101 136 180 239 269 351 414
#     4  11  22  43  68 107 131 186 228 305 344 408
#     4  10  20  38  65  94 146 165 234 286 342 410
#     4  12  27  45  73 100 147 181 238 285 345 423
#     4  10  25  51  70 103 137 185 235 295 357 422
#     4  10  24  46  75  96 142 177 232 302 356 410
#
# _framework density 22.036251
#
# number of rings (size 3 to 8) (size 9 to 14) (size 15 to 20)
#    0.500    0.667    4.167    2.500    5.833    2.000 
#    3.000    0.000    0.000    0.000    0.000    0.000 
#    0.000    0.000    0.000    0.000    0.000    0.000 
#
# Total GULP energy -133679.925114 kJ/mol
# GULP energy per Si atom -5569.996880 kJ/mol
# Density = 2.198610 g / cm^3
# Si number density = 22.036251 Si / 1000 Ang^3
#
#
#
# Elastic Constant Matrix: (Units=GPa)
#
#
# Indices 1 2 3 4 5 6 
#
# 1 54.6297 15.7235 10.1105 0.0000 0.0000 0.0000
# 2 15.7235 108.4824 14.2062 0.0000 0.0000 0.0000
# 3 10.1105 14.2062 141.4462 0.0000 0.0000 0.0000
# 4 0.0000 0.0000 0.0000 32.1310 0.0000 0.0000
# 5 0.0000 0.0000 0.0000 0.0000 23.7644 0.0000
# 6 0.0000 0.0000 0.0000 0.0000 0.0000 9.1446
#
#
#
# Elastic Compliance Matrix: (Units=1/GPa)
#
#
# Indices 1 2 3 4 5 6 
#
# 1 0.019273 -0.002648 -0.001112 0.000000 0.000000 0.000000
# 2 -0.002648 0.009705 -0.000785 0.000000 0.000000 0.000000
# 3 -0.001112 -0.000785 0.007228 0.000000 0.000000 0.000000
# 4 0.000000 0.000000 0.000000 0.031123 0.000000 0.000000
# 5 0.000000 0.000000 0.000000 0.000000 0.042080 0.000000
# 6 0.000000 0.000000 0.000000 0.000000 0.000000 0.109354
#
#
# Mechanical properties :
#
#
# Convention : Reuss Voigt Hill
#
# Bulk Modulus (GPa) = 36.87876 42.73763 39.80820
# Shear Modulus (GPa) = 21.10682 30.64256 25.87469
#
# Velocity S-wave (km/s) = 3.09823 3.73306 3.43036
# Velocity P-wave (km/s) = 5.43788 6.16582 5.81325
#
# Compressibility (1/GPa) = 0.02711588
#
# Stress axis : x y z
#
# Youngs Moduli (GPa) = 51.88635 103.04264 138.34755
#
# Poissons Ratio (x) = 0.27284 0.15380
# Poissons Ratio (y) = 0.13739 0.10866
# Poissons Ratio (z) = 0.05768 0.08093
#
# Static dielectric constant tensor:
#      x y z
#    x 1.822470 0.000000 0.000000 
#    y 0.000000 2.016570 0.000000 
#    z 0.000000 0.000000 1.869220 
# 
# From -- ./inp_files/25597.got.cif
#   From: 2010.05.17/outbox.cif.g08.bks.cpg/sg20_13_cif.got.tgz:25597.got - 2010.06.03 22:52:26.
