data_PCOD9318229
_publ_section_title
;
Structure prediction by ZEFSAII (Michael W. Deem and Ramdas Pophale) SiO2 
 PCOD9318229
Probable space group: C 2 2 21
;
_chemical_formula_sum "Si O2"
_cell_formula_units_Z 48
_cell_length_a 30.904166
_cell_length_b 8.537307
_cell_length_c 8.946731
_cell_angle_alpha 90.000000
_cell_angle_beta 90.000000
_cell_angle_gamma 90.000000
_cell_volume 2360.490769
_symmetry_space_group_name_H-M "C 2 2 21"
_symmetry_group_IT_number 20
_symmetry_cell_setting 'orthorhombic'
loop_
_space_group_symop_operation_xyz
x,y,z
-x,-y,1/2+z
x,-y,-z
-x,y,1/2-z
1/2+x,1/2+y,z
1/2-x,1/2-y,1/2+z
1/2+x,1/2-y,-z
1/2-x,1/2+y,1/2-z
loop_
_atom_site_type_symbol
_atom_site_label
_atom_site_fract_x
_atom_site_fract_y
_atom_site_fract_z
Si Si1 0.031163 0.500000 0.500000
Si Si2 0.587229 0.397563 0.288436
Si Si3 0.500000 0.780851 0.750000
Si Si4 0.912977 0.766388 0.871111
Si Si5 0.312591 0.342137 0.205878
Si Si6 0.823190 0.654618 0.904595
Si Si7 0.733734 0.033957 0.174491
O O1 0.004795 0.385297 0.603610
O O2 0.058814 0.389145 0.388415
O O3 0.544983 0.311313 0.226533
O O4 0.575329 0.581013 0.277368
O O5 0.588938 0.334949 0.459861
O O6 0.637489 0.365706 0.242676
O O7 0.865348 0.717092 0.823642
O O8 0.287923 0.201495 0.291390
O O9 0.284190 0.500583 0.214270
O O10 0.310618 0.279703 0.033052
O O11 0.789794 0.591073 0.783549
O O12 0.836102 0.500000 0.000000
O O13 0.727406 0.000000 0.000000
#
# Coordination Sequence:
#
# PCOD9318229 Si02
#       7
#     4   8   4   8   8   8   8
#     4  10  20  38  66  94 120 154 210 264 312 362
#     4   9  20  36  61  88 123 155 206 253 307 369
#     4  10  22  40  60  96 122 154 208 264 314 380
#     4   9  17  34  65  90 111 158 210 248 297 368
#     4  10  22  38  60  88 118 167 206 246 303 375
#     4   9  18  35  59  87 118 153 209 251 288 368
#     4  11  23  36  57  89 126 155 204 255 312 354
#
# _framework density 20.334754
#
# number of rings (size 3 to 8) (size 9 to 14) (size 15 to 20)
#    0.000    2.333    0.833    1.000    9.333    0.667 
#    1.500    0.000    0.000    2.000    0.000    0.000 
#    0.000    0.000    0.000    0.000    0.000    0.000 
#
# Total GULP energy -133663.008866 kJ/mol
# GULP energy per Si atom -5569.292036 kJ/mol
# Density = 2.028847 g / cm^3
# Si number density = 20.334754 Si / 1000 Ang^3
#
#
#
# Elastic Constant Matrix: (Units=GPa)
#
#
# Indices 1 2 3 4 5 6 
#
# 1 148.4452 91.1085 36.9717 0.0000 0.0000 0.0000
# 2 91.1085 120.6955 18.5059 0.0000 0.0000 0.0000
# 3 36.9717 18.5059 37.5215 0.0000 0.0000 0.0000
# 4 0.0000 0.0000 0.0000 19.2348 0.0000 0.0000
# 5 0.0000 0.0000 0.0000 0.0000 23.7887 0.0000
# 6 0.0000 0.0000 0.0000 0.0000 0.0000 140.0189
#
#
#
# Elastic Compliance Matrix: (Units=1/GPa)
#
#
# Indices 1 2 3 4 5 6 
#
# 1 0.015524 -0.010140 -0.010296 0.000000 0.000000 0.000000
# 2 -0.010140 0.015586 0.002304 0.000000 0.000000 0.000000
# 3 -0.010296 0.002304 0.035660 0.000000 0.000000 0.000000
# 4 0.000000 0.000000 0.000000 0.051989 0.000000 0.000000
# 5 0.000000 0.000000 0.000000 0.000000 0.042037 0.000000
# 6 0.000000 0.000000 0.000000 0.000000 0.000000 0.007142
#
#
# Mechanical properties :
#
#
# Convention : Reuss Voigt Hill
#
# Bulk Modulus (GPa) = 32.77902 66.64828 49.71365
# Shear Modulus (GPa) = 23.32419 47.28023 35.30221
#
# Velocity S-wave (km/s) = 3.39043 4.82715 4.17112
# Velocity P-wave (km/s) = 5.61083 7.99470 6.90640
#
# Compressibility (1/GPa) = 0.03050732
#
# Stress axis : x y z
#
# Youngs Moduli (GPa) = 64.41581 64.15882 28.04285
#
# Poissons Ratio (x) = 0.65057 0.28872
# Poissons Ratio (y) = 0.65318 -0.06461
# Poissons Ratio (z) = 0.66320 -0.14783
#
# Static dielectric constant tensor:
#      x y z
#    x 1.751890 0.000000 0.000000 
#    y 0.000000 1.804860 0.000000 
#    z 0.000000 0.000000 1.671440 
# 
# From -- ./inp_files/11494.got.cif
#   From: 2010.05.17/outbox.cif.g08.bks.cpg/sg20_6_cif.got.tgz:11494.got - 2010.06.03 22:52:26.
