data_PCOD9318455
_publ_section_title
;
Structure prediction by ZEFSAII (Michael W. Deem and Ramdas Pophale) SiO2 
 PCOD9318455
Probable space group: C 2 2 21
;
_chemical_formula_sum "Si O2"
_cell_formula_units_Z 48
_cell_length_a 18.725119
_cell_length_b 7.750963
_cell_length_c 14.699250
_cell_angle_alpha 90.000000
_cell_angle_beta 90.000000
_cell_angle_gamma 90.000000
_cell_volume 2133.415403
_symmetry_space_group_name_H-M "C 2 2 21"
_symmetry_group_IT_number 20
_symmetry_cell_setting 'orthorhombic'
loop_
_space_group_symop_operation_xyz
x,y,z
-x,-y,1/2+z
x,-y,-z
-x,y,1/2-z
1/2+x,1/2+y,z
1/2-x,1/2-y,1/2+z
1/2+x,1/2-y,-z
1/2-x,1/2+y,1/2-z
loop_
_atom_site_type_symbol
_atom_site_label
_atom_site_fract_x
_atom_site_fract_y
_atom_site_fract_z
Si Si1 0.820906 0.000000 0.000000
Si Si2 0.606432 0.201106 0.566030
Si Si3 0.450391 0.878956 0.866679
Si Si4 0.895248 0.756852 0.311036
Si Si5 0.322340 0.601637 0.323415
Si Si6 0.217113 0.523897 0.836705
Si Si7 0.259090 0.000000 0.000000
O O1 0.766080 0.929015 0.076375
O O2 0.875458 0.100105 0.067941
O O3 0.570315 0.173679 0.467971
O O4 0.686121 0.123037 0.554457
O O5 0.562237 0.086016 0.635875
O O6 0.529567 0.815656 0.846447
O O7 0.396561 0.792825 0.795505
O O8 0.832370 0.643236 0.355903
O O9 0.885989 0.961579 0.321224
O O10 0.267276 0.530433 0.247530
O O11 0.329438 0.807237 0.309673
O O12 0.289415 0.582051 0.423429
#
# Coordination Sequence:
#
# PCOD9318455 Si02
#       7
#     4   8   8   8   8   8   4
#     4  12  24  40  68 104 134 168 230 276 348 400
#     4  10  20  40  68  86 129 173 219 273 322 399
#     4   9  22  44  63  87 129 179 227 266 321 389
#     4  11  23  43  65  93 133 177 215 277 331 395
#     4  12  24  41  66  98 137 165 218 272 346 393
#     4  12  25  40  68 106 128 173 215 283 340 408
#     4  10  20  42  60  94 126 170 202 278 330 392
#
# _framework density 22.499133
#
# number of rings (size 3 to 8) (size 9 to 14) (size 15 to 20)
#    0.000    1.333    3.333    4.000    2.333    1.333 
#    3.000    1.667    0.000    0.000    0.000    0.000 
#    0.000    0.000    0.000    0.000    0.000    0.000 
#
# Total GULP energy -133839.273601 kJ/mol
# GULP energy per Si atom -5576.636400 kJ/mol
# Density = 2.244792 g / cm^3
# Si number density = 22.499133 Si / 1000 Ang^3
#
#
#
# Elastic Constant Matrix: (Units=GPa)
#
#
# Indices 1 2 3 4 5 6 
#
# 1 64.6000 21.3411 10.8516 0.0000 0.0000 0.0000
# 2 21.3411 104.5886 10.7376 0.0000 0.0000 0.0000
# 3 10.8516 10.7376 69.0825 0.0000 0.0000 0.0000
# 4 0.0000 0.0000 0.0000 19.2694 0.0000 0.0000
# 5 0.0000 0.0000 0.0000 0.0000 -77.0093 0.0000
# 6 0.0000 0.0000 0.0000 0.0000 0.0000 22.1164
#
#
#
# Elastic Compliance Matrix: (Units=1/GPa)
#
#
# Indices 1 2 3 4 5 6 
#
# 1 0.016908 -0.003229 -0.002154 0.000000 0.000000 0.000000
# 2 -0.003229 0.010333 -0.001099 0.000000 0.000000 0.000000
# 3 -0.002154 -0.001099 0.014985 0.000000 0.000000 0.000000
# 4 0.000000 0.000000 0.000000 0.051896 0.000000 0.000000
# 5 0.000000 0.000000 0.000000 0.000000 -0.012985 0.000000
# 6 0.000000 0.000000 0.000000 0.000000 0.000000 0.045215
#
#
# Mechanical properties :
#
#
# Convention : Reuss Voigt Hill
#
# Bulk Modulus (GPa) = 34.17390 36.01464 35.09427
# Shear Modulus (GPa) = 33.54143 5.89803 19.71973
#
# Velocity S-wave (km/s) = 3.86526 1.62085 2.96373
# Velocity P-wave (km/s) = 5.92809 4.42094 5.22910
#
# Compressibility (1/GPa) = 0.02926210
#
# Stress axis : x y z
#
# Youngs Moduli (GPa) = 59.14206 96.77772 66.73513
#
# Poissons Ratio (x) = 0.31249 0.14376
# Poissons Ratio (y) = 0.19097 0.07333
# Poissons Ratio (z) = 0.12740 0.10634
#
# Static dielectric constant tensor:
#      x y z
#    x 1.802690 0.000000 0.000000 
#    y 0.000000 2.076700 0.000000 
#    z 0.000000 0.000000 1.851960 
# 
# From -- ./inp_files/21663.got.cif
#   From: 2010.05.17/outbox.cif.g08.bks.cpg/sg20_11_cif.got.tgz:21663.got - 2010.06.03 22:52:26.
