data_PCOD9318337
_publ_section_title
;
Structure prediction by ZEFSAII (Michael W. Deem and Ramdas Pophale) SiO2 
 PCOD9318337
Probable space group: C 2 2 21
;
_chemical_formula_sum "Si O2"
_cell_formula_units_Z 52
_cell_length_a 19.076341
_cell_length_b 8.923453
_cell_length_c 13.782236
_cell_angle_alpha 90.000000
_cell_angle_beta 90.000000
_cell_angle_gamma 90.000000
_cell_volume 2346.106377
_symmetry_space_group_name_H-M "C 2 2 21"
_symmetry_group_IT_number 20
_symmetry_cell_setting 'orthorhombic'
loop_
_space_group_symop_operation_xyz
x,y,z
-x,-y,1/2+z
x,-y,-z
-x,y,1/2-z
1/2+x,1/2+y,z
1/2-x,1/2-y,1/2+z
1/2+x,1/2-y,-z
1/2-x,1/2+y,1/2-z
loop_
_atom_site_type_symbol
_atom_site_label
_atom_site_fract_x
_atom_site_fract_y
_atom_site_fract_z
Si Si1 0.724146 0.266927 0.843082
Si Si2 0.814793 0.000000 0.500000
Si Si3 0.620560 0.285603 0.309010
Si Si4 0.457562 0.316767 0.995055
Si Si5 0.902086 0.244657 0.595295
Si Si6 0.732376 0.064612 0.096118
Si Si7 0.632904 0.353586 0.683653
O O1 0.724946 0.369683 0.940067
O O2 0.802545 0.289786 0.799172
O O3 0.649992 0.303018 0.791685
O O4 0.722152 0.087331 0.845879
O O5 0.863106 0.087260 0.576771
O O6 0.589268 0.254459 0.415467
O O7 0.579910 0.244717 0.209735
O O8 0.624423 0.467054 0.311302
O O9 0.533605 0.252491 0.021442
O O10 0.461011 0.500000 0.000000
O O11 0.424592 0.286637 0.888894
O O12 0.841991 0.364763 0.573730
O O13 0.789772 0.175961 0.138294
O O14 0.768740 0.000000 0.000000
#
# Coordination Sequence:
#
# PCOD9318337 Si02
#       7
#     8   4   8   8   8   8   8
#     4  11  22  40  68 102 127 172 221 277 327 388
#     4  12  24  38  66 100 126 172 228 262 322 396
#     4  10  21  38  65  97 130 166 218 275 329 385
#     4  10  22  39  63  96 130 170 222 267 327 395
#     4  12  22  40  64  95 128 170 215 273 328 395
#     4  11  22  39  67  91 133 168 211 277 333 384
#     4  10  20  39  65  97 128 168 219 268 325 392
#
# _framework density 22.164383000000001
#
# number of rings (size 3 to 8) (size 9 to 14) (size 15 to 20)
#    0.000    1.231    5.385    2.769    0.000    0.000 
#    0.000    0.769    8.462    0.000    0.000    0.000 
#    0.000    0.000    0.000    0.000    0.000    0.000 
#
# Total GULP energy -144782.908802 kJ/mol
# GULP energy per Si atom -5568.573415 kJ/mol
# Density = 2.211394 g / cm^3
# Si number density = 22.164383 Si / 1000 Ang^3
#
#
#
# Elastic Constant Matrix: (Units=GPa)
#
#
# Indices 1 2 3 4 5 6 
#
# 1 95.2413 22.9005 23.6224 0.0000 0.0000 0.0000
# 2 22.9005 34.5742 9.4326 0.0000 0.0000 0.0000
# 3 23.6224 9.4326 71.3609 0.0000 0.0000 0.0000
# 4 0.0000 0.0000 0.0000 21.3923 0.0000 0.0000
# 5 0.0000 0.0000 0.0000 0.0000 -725.6259 0.0000
# 6 0.0000 0.0000 0.0000 0.0000 0.0000 19.4520
#
#
#
# Elastic Compliance Matrix: (Units=1/GPa)
#
#
# Indices 1 2 3 4 5 6 
#
# 1 0.013213 -0.007841 -0.003337 0.000000 0.000000 0.000000
# 2 -0.007841 0.034659 -0.001986 0.000000 0.000000 0.000000
# 3 -0.003337 -0.001986 0.015380 0.000000 0.000000 0.000000
# 4 0.000000 0.000000 0.000000 0.046746 0.000000 0.000000
# 5 0.000000 0.000000 0.000000 0.000000 -0.001378 0.000000
# 6 0.000000 0.000000 0.000000 0.000000 0.000000 0.051409
#
#
# Mechanical properties :
#
#
# Convention : Reuss Voigt Hill
#
# Bulk Modulus (GPa) = 27.08278 34.78748 30.93513
# Shear Modulus (GPa) = 25.16809 -127.27493 -51.05342
#
# Velocity S-wave (km/s) = 3.37340 -7.58603 -4.80458
# Velocity P-wave (km/s) = 5.23629 7.81032 4.09771
#
# Compressibility (1/GPa) = 0.03692383
#
# Stress axis : x y z
#
# Youngs Moduli (GPa) = 75.68434 28.85281 65.01749
#
# Poissons Ratio (x) = 0.22624 0.21699
# Poissons Ratio (y) = 0.59345 0.12910
# Poissons Ratio (z) = 0.25258 0.05729
#
# Static dielectric constant tensor:
#      x y z
#    x 1.832200 0.000000 0.000000 
#    y 0.000000 2.707510 0.000000 
#    z 0.000000 0.000000 1.849950 
# 
# From -- ./inp_files/21702.got.cif
#   From: 2010.05.17/outbox.cif.g08.bks.cpg/sg20_11_cif.got.tgz:21702.got - 2010.06.03 22:52:26.
