data_PCOD9318389
_publ_section_title
;
Structure prediction by ZEFSAII (Michael W. Deem and Ramdas Pophale) SiO2 
 PCOD9318389
Probable space group: C 2 2 21
;
_chemical_formula_sum "Si O2"
_cell_formula_units_Z 48
_cell_length_a 14.323980
_cell_length_b 9.323543
_cell_length_c 18.329237
_cell_angle_alpha 90.000000
_cell_angle_beta 90.000000
_cell_angle_gamma 90.000000
_cell_volume 2447.874064
_symmetry_space_group_name_H-M "C 2 2 21"
_symmetry_group_IT_number 20
_symmetry_cell_setting 'orthorhombic'
loop_
_space_group_symop_operation_xyz
x,y,z
-x,-y,1/2+z
x,-y,-z
-x,y,1/2-z
1/2+x,1/2+y,z
1/2-x,1/2-y,1/2+z
1/2+x,1/2-y,-z
1/2-x,1/2+y,1/2-z
loop_
_atom_site_type_symbol
_atom_site_label
_atom_site_fract_x
_atom_site_fract_y
_atom_site_fract_z
Si Si1 0.203925 0.643596 0.908488
Si Si2 0.558360 0.745168 0.986226
Si Si3 0.103586 0.787146 0.773956
Si Si4 0.963113 0.997209 0.612227
Si Si5 0.331904 0.384275 0.876928
Si Si6 0.849069 0.665450 0.010843
O O1 0.135222 0.654635 0.977808
O O2 0.150203 0.688620 0.834991
O O3 0.248077 0.489341 0.895230
O O4 0.285607 0.758003 0.928195
O O5 0.551766 0.622460 0.049313
O O6 0.575548 0.649096 0.914639
O O7 0.459648 0.822209 0.974027
O O8 0.084349 0.937784 0.815215
O O9 0.164780 0.812425 0.702395
O O10 0.000000 0.734734 0.750000
O O11 0.075114 0.985671 0.620320
O O12 0.336939 0.260995 0.937887
O O13 0.821790 0.500000 0.000000
#
# Coordination Sequence:
#
# PCOD9318389 Si02
#       6
#     8   8   8   8   8   8
#     4  11  22  37  66  93 124 172 212 260 318 382
#     4   9  18  35  60  89 127 156 207 263 315 365
#     4   9  20  37  62  92 124 169 209 253 324 386
#     4   8  15  34  63  89 116 163 204 252 313 379
#     4  10  20  40  62  89 125 164 208 259 317 377
#     4  11  24  38  61  94 128 163 212 267 313 374
#
# _framework density 19.608853
#
# number of rings (size 3 to 8) (size 9 to 14) (size 15 to 20)
#    0.000    2.333    1.667    1.500    4.667    2.667 
#    0.000    0.000    0.000    0.000    0.000    0.000 
#    0.000    0.000    0.000    0.000    0.000    0.000 
#
# Total GULP energy -133861.133595 kJ/mol
# GULP energy per Si atom -5577.547233 kJ/mol
# Density = 1.956422 g / cm^3
# Si number density = 19.608853 Si / 1000 Ang^3
#
#
#
# Elastic Constant Matrix: (Units=GPa)
#
#
# Indices 1 2 3 4 5 6 
#
# 1 82.9954 37.1822 28.8113 0.0000 0.0000 0.0000
# 2 37.1822 99.5569 33.4937 0.0000 0.0000 0.0000
# 3 28.8113 33.4937 75.4846 0.0000 0.0000 0.0000
# 4 0.0000 0.0000 0.0000 11.7457 0.0000 0.0000
# 5 0.0000 0.0000 0.0000 0.0000 41.0394 0.0000
# 6 0.0000 0.0000 0.0000 0.0000 0.0000 25.8253
#
#
#
# Elastic Compliance Matrix: (Units=1/GPa)
#
#
# Indices 1 2 3 4 5 6 
#
# 1 0.015392 -0.004434 -0.003907 0.000000 0.000000 0.000000
# 2 -0.004434 0.013084 -0.004113 0.000000 0.000000 0.000000
# 3 -0.003907 -0.004113 0.016564 0.000000 0.000000 0.000000
# 4 0.000000 0.000000 0.000000 0.085138 0.000000 0.000000
# 5 0.000000 0.000000 0.000000 0.000000 0.024367 0.000000
# 6 0.000000 0.000000 0.000000 0.000000 0.000000 0.038722
#
#
# Mechanical properties :
#
#
# Convention : Reuss Voigt Hill
#
# Bulk Modulus (GPa) = 49.67459 50.77902 50.22681
# Shear Modulus (GPa) = 22.23347 26.29206 24.26277
#
# Velocity S-wave (km/s) = 3.37092 3.66570 3.52140
# Velocity P-wave (km/s) = 6.36699 6.62334 6.49643
#
# Compressibility (1/GPa) = 0.02013102
#
# Stress axis : x y z
#
# Youngs Moduli (GPa) = 64.97017 76.42741 60.37080
#
# Poissons Ratio (x) = 0.33887 0.23589
# Poissons Ratio (y) = 0.28807 0.24833
# Poissons Ratio (z) = 0.25386 0.31437
#
# Static dielectric constant tensor:
#      x y z
#    x 1.745110 0.000000 0.000000 
#    y 0.000000 1.684120 0.000000 
#    z 0.000000 0.000000 1.685200 
# 
# From -- ./inp_files/24824.got.cif
#   From: 2010.05.17/outbox.cif.g08.bks.cpg/sg20_13_cif.got.tgz:24824.got - 2010.06.03 22:52:26.
