data_PCOD9318664
_publ_section_title
;
Structure prediction by ZEFSAII (Michael W. Deem and Ramdas Pophale) SiO2 
 PCOD9318664
Probable space group: C 2 2 21
;
_chemical_formula_sum "Si O2"
_cell_formula_units_Z 48
_cell_length_a 6.354220
_cell_length_b 25.905000
_cell_length_c 13.553126
_cell_angle_alpha 90.000000
_cell_angle_beta 90.000000
_cell_angle_gamma 90.000000
_cell_volume 2230.926795
_symmetry_space_group_name_H-M "C 2 2 21"
_symmetry_group_IT_number 20
_symmetry_cell_setting 'orthorhombic'
loop_
_space_group_symop_operation_xyz
x,y,z
-x,-y,1/2+z
x,-y,-z
-x,y,1/2-z
1/2+x,1/2+y,z
1/2-x,1/2-y,1/2+z
1/2+x,1/2-y,-z
1/2-x,1/2+y,1/2-z
loop_
_atom_site_type_symbol
_atom_site_label
_atom_site_fract_x
_atom_site_fract_y
_atom_site_fract_z
Si Si1 0.620516 0.173384 0.348024
Si Si2 0.873042 0.068687 0.150794
Si Si3 0.500000 0.736273 0.250000
Si Si4 0.115936 0.224441 0.854916
Si Si5 0.185892 0.022893 0.902047
Si Si6 0.000000 0.517960 0.250000
Si Si7 0.405430 0.629103 0.503389
O O1 0.500000 0.154017 0.250000
O O2 0.831919 0.201464 0.307969
O O3 0.474385 0.219879 0.387980
O O4 0.702804 0.134644 0.430866
O O5 0.000000 0.084296 0.250000
O O6 0.905013 0.112505 0.069251
O O7 0.639472 0.052821 0.177742
O O8 0.992244 0.016677 0.114349
O O9 0.639298 0.769393 0.326278
O O10 0.000000 0.212969 0.750000
O O11 0.072099 0.181320 0.935731
O O12 0.337209 0.016303 0.810280
O O13 0.122742 0.081173 0.922962
O O14 0.294917 0.000000 0.000000
#
# Coordination Sequence:
#
# PCOD9318664 Si02
#       7
#     8   8   4   8   8   4   8
#     4   9  21  42  61  90 128 171 220 273 321 381
#     4   9  21  43  62  92 128 165 213 278 326 390
#     4   8  18  41  62  80 132 172 214 271 316 364
#     4   9  21  41  61  94 132 175 220 265 327 390
#     4   9  21  41  60  95 129 162 217 266 322 395
#     4  10  20  43  72  84 136 172 206 271 336 382
#     4  11  22  39  70  96 134 170 221 268 332 396
#
# _framework density 21.515723999999999
#
# number of rings (size 3 to 8) (size 9 to 14) (size 15 to 20)
#    0.000    3.000    0.000    0.000    3.500    4.667 
#   13.500   15.000    0.000    0.000    0.000    0.000 
#    0.000    0.000    0.000    0.000    0.000    0.000 
#
# Total GULP energy -134086.631057 kJ/mol
# GULP energy per Si atom -5586.942961 kJ/mol
# Density = 2.146675 g / cm^3
# Si number density = 21.515724 Si / 1000 Ang^3
#
#
#
# Elastic Constant Matrix: (Units=GPa)
#
#
# Indices 1 2 3 4 5 6 
#
# 1 86.2208 22.7053 33.3872 0.0000 0.0000 0.0000
# 2 22.7053 103.7269 45.1333 0.0000 0.0000 0.0000
# 3 33.3872 45.1333 83.3132 0.0000 0.0000 0.0000
# 4 0.0000 0.0000 0.0000 48.9708 0.0000 0.0000
# 5 0.0000 0.0000 0.0000 0.0000 28.9125 0.0000
# 6 0.0000 0.0000 0.0000 0.0000 0.0000 -3.8126
#
#
#
# Elastic Compliance Matrix: (Units=1/GPa)
#
#
# Indices 1 2 3 4 5 6 
#
# 1 0.013779 -0.000803 -0.005087 0.000000 0.000000 0.000000
# 2 -0.000803 0.012661 -0.006537 0.000000 0.000000 0.000000
# 3 -0.005087 -0.006537 0.017583 0.000000 0.000000 0.000000
# 4 0.000000 0.000000 0.000000 0.020420 0.000000 0.000000
# 5 0.000000 0.000000 0.000000 0.000000 0.034587 0.000000
# 6 0.000000 0.000000 0.000000 0.000000 0.000000 -0.262288
#
#
# Mechanical properties :
#
#
# Convention : Reuss Voigt Hill
#
# Bulk Modulus (GPa) = 52.16700 52.85695 52.51198
# Shear Modulus (GPa) = -37.87468 26.28316 -5.79576
#
# Velocity S-wave (km/s) = -4.20018 3.49890 -1.64304
# Velocity P-wave (km/s) = 0.88128 6.39868 4.56726
#
# Compressibility (1/GPa) = 0.01916921
#
# Stress axis : x y z
#
# Youngs Moduli (GPa) = 72.57210 78.98397 56.87360
#
# Poissons Ratio (x) = 0.06340 0.28932
# Poissons Ratio (y) = 0.05826 0.37179
# Poissons Ratio (z) = 0.36918 0.51632
#
# Static dielectric constant tensor:
#      x y z
#    x 1.787840 0.000000 0.000000 
#    y 0.000000 1.789630 0.000000 
#    z 0.000000 0.000000 1.821110 
# 
# From -- ./inp_files/17826.got.cif
#   From: 2010.05.17/outbox.cif.g08.bks.cpg/sg20_9_cif.got.tgz:17826.got - 2010.06.03 22:52:26.
