data_PCOD9318418
_publ_section_title
;
Structure prediction by ZEFSAII (Michael W. Deem and Ramdas Pophale) SiO2 
 PCOD9318418
Probable space group: C 2 2 21
;
_chemical_formula_sum "Si O2"
_cell_formula_units_Z 56
_cell_length_a 16.238906
_cell_length_b 9.297746
_cell_length_c 18.389360
_cell_angle_alpha 90.000000
_cell_angle_beta 90.000000
_cell_angle_gamma 90.000000
_cell_volume 2776.521626
_symmetry_space_group_name_H-M "C 2 2 21"
_symmetry_group_IT_number 20
_symmetry_cell_setting 'orthorhombic'
loop_
_space_group_symop_operation_xyz
x,y,z
-x,-y,1/2+z
x,-y,-z
-x,y,1/2-z
1/2+x,1/2+y,z
1/2-x,1/2-y,1/2+z
1/2+x,1/2-y,-z
1/2-x,1/2+y,1/2-z
loop_
_atom_site_type_symbol
_atom_site_label
_atom_site_fract_x
_atom_site_fract_y
_atom_site_fract_z
Si Si1 0.585900 0.084739 0.574313
Si Si2 0.046591 0.921498 0.080003
Si Si3 0.282698 0.880673 0.787372
Si Si4 0.230912 0.937627 0.080602
Si Si5 0.512518 0.719367 0.144939
Si Si6 0.640018 0.187258 0.749081
Si Si7 0.452384 0.188918 0.172274
O O1 0.679813 0.138015 0.589409
O O2 0.519792 0.210853 0.570573
O O3 0.589727 0.000000 0.500000
O O4 0.555393 0.968314 0.634365
O O5 0.141405 0.867642 0.088638
O O6 0.989473 0.795272 0.111819
O O7 0.030035 0.052931 0.135849
O O8 0.037117 0.000000 0.000000
O O9 0.215645 0.796880 0.741190
O O10 0.357802 0.775811 0.807806
O O11 0.238363 0.935238 0.860634
O O12 0.323862 0.026021 0.755502
O O13 0.230355 0.000000 0.000000
O O14 0.434188 0.759924 0.196058
O O15 0.594026 0.795283 0.173986
O O16 0.500000 0.185565 0.250000
#
# Coordination Sequence:
#
# PCOD9318418 Si02
#       7
#     8   8   8   8   8   8   8
#     4  10  20  40  65  85 121 168 206 255 319 380
#     4  11  24  40  62  91 125 165 214 259 308 375
#     4  11  23  41  61  90 121 163 200 256 317 378
#     4   9  19  38  59  83 114 161 207 245 302 371
#     4  11  22  39  61  89 123 158 203 252 314 369
#     4  11  24  39  63  88 122 158 202 258 315 374
#     4  11  24  38  63  93 125 159 211 262 311 372
#
# _framework density 20.169119999999999
#
# number of rings (size 3 to 8) (size 9 to 14) (size 15 to 20)
#    0.000    1.429    4.286    1.714    6.000    0.000 
#    0.000    0.000    0.000    0.857    0.000    0.000 
#    0.000    0.000    0.000    0.000    0.000    0.000 
#
# Total GULP energy -155870.355524 kJ/mol
# GULP energy per Si atom -5566.798412 kJ/mol
# Density = 2.012321 g / cm^3
# Si number density = 20.169120 Si / 1000 Ang^3
#
#
#
# Elastic Constant Matrix: (Units=GPa)
#
#
# Indices 1 2 3 4 5 6 
#
# 1 111.6132 53.1316 27.7809 0.0000 0.0000 0.0000
# 2 53.1316 78.5896 17.1982 0.0000 0.0000 0.0000
# 3 27.7809 17.1982 63.7977 0.0000 0.0000 0.0000
# 4 0.0000 0.0000 0.0000 24.1985 0.0000 0.0000
# 5 0.0000 0.0000 0.0000 0.0000 28.7261 0.0000
# 6 0.0000 0.0000 0.0000 0.0000 0.0000 27.1474
#
#
#
# Elastic Compliance Matrix: (Units=1/GPa)
#
#
# Indices 1 2 3 4 5 6 
#
# 1 0.014016 -0.008650 -0.003771 0.000000 0.000000 0.000000
# 2 -0.008650 0.018861 -0.001318 0.000000 0.000000 0.000000
# 3 -0.003771 -0.001318 0.017672 0.000000 0.000000 0.000000
# 4 0.000000 0.000000 0.000000 0.041325 0.000000 0.000000
# 5 0.000000 0.000000 0.000000 0.000000 0.034812 0.000000
# 6 0.000000 0.000000 0.000000 0.000000 0.000000 0.036836
#
#
# Mechanical properties :
#
#
# Convention : Reuss Voigt Hill
#
# Bulk Modulus (GPa) = 43.34601 50.02465 46.68533
# Shear Modulus (GPa) = 25.16476 26.40704 25.78590
#
# Velocity S-wave (km/s) = 3.53609 3.62232 3.57947
# Velocity P-wave (km/s) = 6.18141 6.50780 6.34670
#
# Compressibility (1/GPa) = 0.02307018
#
# Stress axis : x y z
#
# Youngs Moduli (GPa) = 71.34622 53.01963 56.58665
#
# Poissons Ratio (x) = 0.45865 0.21341
# Poissons Ratio (y) = 0.61718 0.07456
# Poissons Ratio (z) = 0.26908 0.06986
#
# Static dielectric constant tensor:
#      x y z
#    x 1.752730 0.000000 0.000000 
#    y 0.000000 1.690620 0.000000 
#    z 0.000000 0.000000 1.873900 
# 
# From -- ./inp_files/27591.got.cif
#   From: 2010.05.17/outbox.cif.g08.bks.cpg/sg20_14_cif.got.tgz:27591.got - 2010.06.03 22:52:26.
