data_PCOD9318768
_publ_section_title
;
Structure prediction by ZEFSAII (Michael W. Deem and Ramdas Pophale) SiO2 
 PCOD9318768
Probable space group: C 2 2 21
;
_chemical_formula_sum "Si O2"
_cell_formula_units_Z 52
_cell_length_a 11.078511
_cell_length_b 15.495492
_cell_length_c 16.593233
_cell_angle_alpha 90.000000
_cell_angle_beta 90.000000
_cell_angle_gamma 90.000000
_cell_volume 2848.510174
_symmetry_space_group_name_H-M "C 2 2 21"
_symmetry_group_IT_number 20
_symmetry_cell_setting 'orthorhombic'
loop_
_space_group_symop_operation_xyz
x,y,z
-x,-y,1/2+z
x,-y,-z
-x,y,1/2-z
1/2+x,1/2+y,z
1/2-x,1/2-y,1/2+z
1/2+x,1/2-y,-z
1/2-x,1/2+y,1/2-z
loop_
_atom_site_type_symbol
_atom_site_label
_atom_site_fract_x
_atom_site_fract_y
_atom_site_fract_z
Si Si1 0.745551 0.842331 0.798289
Si Si2 0.971081 0.656456 0.591106
Si Si3 0.888844 0.240848 0.565265
Si Si4 0.897839 0.675370 0.139206
Si Si5 0.073936 0.486373 0.828489
Si Si6 0.276672 0.897536 0.011061
Si Si7 0.000000 0.772463 0.750000
O O1 0.708521 0.790076 0.878405
O O2 0.660506 0.808945 0.725375
O O3 0.699910 0.940612 0.807849
O O4 0.882731 0.827886 0.773755
O O5 0.908807 0.707354 0.518036
O O6 0.911260 0.564451 0.610736
O O7 0.971801 0.713517 0.671877
O O8 0.106640 0.630606 0.563368
O O9 0.840692 0.145455 0.549631
O O10 0.017687 0.247618 0.609395
O O11 0.797697 0.648808 0.074838
O O12 0.988282 0.592215 0.141266
O O13 0.000000 0.518768 0.750000
O O14 0.272549 0.000000 0.000000
#
# Coordination Sequence:
#
# PCOD9318768 Si02
#       7
#     8   8   8   8   8   8   4
#     4  10  21  37  60  89 124 158 204 251 314 364
#     4  11  21  35  62  92 119 156 207 256 303 361
#     4  10  21  35  57  93 122 155 202 254 310 364
#     4   9  19  35  60  87 118 159 199 253 305 359
#     4   9  17  34  59  93 112 150 206 255 293 355
#     4  11  20  35  59  93 122 154 206 259 306 362
#     4  12  22  38  60  92 124 158 204 258 306 372
#
# _framework density 18.255157000000001
#
# number of rings (size 3 to 8) (size 9 to 14) (size 15 to 20)
#    0.000    1.846    3.846    2.308    0.000    0.000 
#    0.000    0.000    0.000   11.077    2.000    0.000 
#    0.000    0.000    0.000    0.000    0.000    0.000 
#
# Total GULP energy -145018.348739 kJ/mol
# GULP energy per Si atom -5577.628798 kJ/mol
# Density = 1.821361 g / cm^3
# Si number density = 18.255157 Si / 1000 Ang^3
#
#
#
# Elastic Constant Matrix: (Units=GPa)
#
#
# Indices 1 2 3 4 5 6 
#
# 1 92.9401 61.4717 39.4891 0.0000 0.0000 0.0000
# 2 61.4717 76.5327 31.2641 0.0000 0.0000 0.0000
# 3 39.4891 31.2641 101.5738 0.0000 0.0000 0.0000
# 4 0.0000 0.0000 0.0000 19.8854 0.0000 0.0000
# 5 0.0000 0.0000 0.0000 0.0000 23.7122 0.0000
# 6 0.0000 0.0000 0.0000 0.0000 0.0000 25.1142
#
#
#
# Elastic Compliance Matrix: (Units=1/GPa)
#
#
# Indices 1 2 3 4 5 6 
#
# 1 0.024250 -0.017874 -0.003926 0.000000 0.000000 0.000000
# 2 -0.017874 0.028120 -0.001706 0.000000 0.000000 0.000000
# 3 -0.003926 -0.001706 0.011897 0.000000 0.000000 0.000000
# 4 0.000000 0.000000 0.000000 0.050288 0.000000 0.000000
# 5 0.000000 0.000000 0.000000 0.000000 0.042172 0.000000
# 6 0.000000 0.000000 0.000000 0.000000 0.000000 0.039818
#
#
# Mechanical properties :
#
#
# Convention : Reuss Voigt Hill
#
# Bulk Modulus (GPa) = 57.95882 59.49960 58.72921
# Shear Modulus (GPa) = 20.05550 22.99714 21.52632
#
# Velocity S-wave (km/s) = 3.31814 3.55316 3.43766
# Velocity P-wave (km/s) = 6.81897 7.03543 6.92805
#
# Compressibility (1/GPa) = 0.01725363
#
# Stress axis : x y z
#
# Youngs Moduli (GPa) = 41.23769 35.56225 84.05731
#
# Poissons Ratio (x) = 0.63563 0.33002
# Poissons Ratio (y) = 0.73707 0.14343
# Poissons Ratio (z) = 0.16190 0.06068
#
# Static dielectric constant tensor:
#      x y z
#    x 1.632000 0.000000 0.000000 
#    y 0.000000 1.612120 0.000000 
#    z 0.000000 0.000000 1.678540 
# 
# From -- ./inp_files/24371.got.cif
#   From: 2010.05.17/outbox.cif.g08.bks.cpg/sg20_13_cif.got.tgz:24371.got - 2010.06.03 22:52:26.
