data_PCOD9318776
_publ_section_title
;
Structure prediction by ZEFSAII (Michael W. Deem and Ramdas Pophale) SiO2 
 PCOD9318776
Probable space group: C 2 2 21
;
_chemical_formula_sum "Si O2"
_cell_formula_units_Z 48
_cell_length_a 7.344533
_cell_length_b 32.363539
_cell_length_c 7.952729
_cell_angle_alpha 90.000000
_cell_angle_beta 90.000000
_cell_angle_gamma 90.000000
_cell_volume 1890.324557
_symmetry_space_group_name_H-M "C 2 2 21"
_symmetry_group_IT_number 20
_symmetry_cell_setting 'orthorhombic'
loop_
_space_group_symop_operation_xyz
x,y,z
-x,-y,1/2+z
x,-y,-z
-x,y,1/2-z
1/2+x,1/2+y,z
1/2-x,1/2-y,1/2+z
1/2+x,1/2-y,-z
1/2-x,1/2+y,1/2-z
loop_
_atom_site_type_symbol
_atom_site_label
_atom_site_fract_x
_atom_site_fract_y
_atom_site_fract_z
Si Si1 0.779062 0.602464 0.267043
Si Si2 0.294271 0.346916 0.273613
Si Si3 0.310015 0.071038 0.923713
Si Si4 0.695568 0.813570 0.917148
Si Si5 0.121768 0.726267 0.581893
Si Si6 0.229040 0.544582 0.932846
O O1 0.745952 0.651729 0.282070
O O2 0.712870 0.579606 0.434896
O O3 0.000000 0.600320 0.250000
O O4 0.716456 0.576356 0.104500
O O5 0.500000 0.361227 0.250000
O O6 0.175804 0.381101 0.367495
O O7 0.287966 0.304393 0.378324
O O8 0.213596 0.338386 0.091441
O O9 0.507080 0.049660 0.937592
O O10 0.216961 0.050653 0.761339
O O11 0.820315 0.773286 0.934091
O O12 0.493294 0.793457 0.930008
O O13 0.000000 0.724574 0.750000
O O14 0.280406 0.500000 0.000000
#
# Coordination Sequence:
#
# PCOD9318776 Si02
#       6
#     8   8   8   8   8   8
#     4  10  21  35  61  95 132 170 213 276 349 407
#     4  11  23  41  63  88 133 186 231 286 349 403
#     4  10  22  36  62  97 134 169 216 273 342 419
#     4  11  22  41  61  93 138 184 240 295 352 409
#     4  10  23  37  63  94 134 186 242 300 345 414
#     4  10  21  37  65 101 134 162 211 282 346 422
#
# _framework density 25.392465999999999
#
# number of rings (size 3 to 8) (size 9 to 14) (size 15 to 20)
#    0.000    1.667    1.667    3.000   11.667    7.333 
#    0.000    0.000    0.000    1.000    0.000    0.000 
#    0.000    0.000    0.000    0.000    0.000    0.000 
#
# Total GULP energy -134168.658660 kJ/mol
# GULP energy per Si atom -5590.360778 kJ/mol
# Density = 2.533467 g / cm^3
# Si number density = 25.392466 Si / 1000 Ang^3
#
#
#
# Elastic Constant Matrix: (Units=GPa)
#
#
# Indices 1 2 3 4 5 6 
#
# 1 72.2188 8.7109 -5.9261 0.0000 0.0000 0.0000
# 2 8.7109 159.2566 45.5061 0.0000 0.0000 0.0000
# 3 -5.9261 45.5061 147.8210 0.0000 0.0000 0.0000
# 4 0.0000 0.0000 0.0000 33.2690 0.0000 0.0000
# 5 0.0000 0.0000 0.0000 0.0000 -1.5052 0.0000
# 6 0.0000 0.0000 0.0000 0.0000 0.0000 953.0576
#
#
#
# Elastic Compliance Matrix: (Units=1/GPa)
#
#
# Indices 1 2 3 4 5 6 
#
# 1 0.014042 -0.001018 0.000876 0.000000 0.000000 0.000000
# 2 -0.001018 0.006959 -0.002183 0.000000 0.000000 0.000000
# 3 0.000876 -0.002183 0.007472 0.000000 0.000000 0.000000
# 4 0.000000 0.000000 0.000000 0.030058 0.000000 0.000000
# 5 0.000000 0.000000 0.000000 0.000000 -0.664352 0.000000
# 6 0.000000 0.000000 0.000000 0.000000 0.000000 0.001049
#
#
# Mechanical properties :
#
#
# Convention : Reuss Voigt Hill
#
# Bulk Modulus (GPa) = 41.97756 52.87536 47.42646
# Shear Modulus (GPa) = -8.44336 219.03131 105.29397
#
# Velocity S-wave (km/s) = -1.82548 9.29761 6.44644
# Velocity P-wave (km/s) = 3.48199 11.66745 8.60969
#
# Compressibility (1/GPa) = 0.02382225
#
# Stress axis : x y z
#
# Youngs Moduli (GPa) = 71.21710 143.70586 133.83105
#
# Poissons Ratio (x) = 0.14636 -0.11730
# Poissons Ratio (y) = 0.07253 0.29216
# Poissons Ratio (z) = -0.06242 0.31371
#
# Static dielectric constant tensor:
#      x y z
#    x 2.084430 0.000000 0.000000 
#    y 0.000000 1.958790 0.000000 
#    z 0.000000 0.000000 1.782400 
# 
# From -- ./inp_files/6481.got.cif
#   From: 2010.05.17/outbox.cif.g08.bks.cpg/sg20_4_cif.got.tgz:6481.got - 2010.06.03 22:52:26.
