data_PCOD9318747
_publ_section_title
;
Structure prediction by ZEFSAII (Michael W. Deem and Ramdas Pophale) SiO2 
 PCOD9318747
Probable space group: C 2 2 21
;
_chemical_formula_sum "Si O2"
_cell_formula_units_Z 64
_cell_length_a 6.705253
_cell_length_b 25.425445
_cell_length_c 22.758289
_cell_angle_alpha 90.000000
_cell_angle_beta 90.000000
_cell_angle_gamma 90.000000
_cell_volume 3879.925083
_symmetry_space_group_name_H-M "C 2 2 21"
_symmetry_group_IT_number 20
_symmetry_cell_setting 'orthorhombic'
loop_
_space_group_symop_operation_xyz
x,y,z
-x,-y,1/2+z
x,-y,-z
-x,y,1/2-z
1/2+x,1/2+y,z
1/2-x,1/2-y,1/2+z
1/2+x,1/2-y,-z
1/2-x,1/2+y,1/2-z
loop_
_atom_site_type_symbol
_atom_site_label
_atom_site_fract_x
_atom_site_fract_y
_atom_site_fract_z
Si Si1 0.846573 0.018096 0.405615
Si Si2 0.814159 0.913599 0.877882
Si Si3 0.790512 0.714250 0.082838
Si Si4 0.886619 0.839199 0.689384
Si Si5 0.032483 0.807868 0.482750
Si Si6 0.785207 0.086508 0.524145
Si Si7 0.416369 0.865464 0.522638
Si Si8 0.575820 0.933536 0.691114
O O1 0.818424 0.059661 0.459696
O O2 0.682712 0.030222 0.356572
O O3 0.058477 0.033323 0.377547
O O4 0.830426 0.960043 0.430910
O O5 0.720995 0.905664 0.941868
O O6 0.625975 0.912185 0.836405
O O7 0.960827 0.867485 0.856233
O O8 0.716268 0.705907 0.149531
O O9 0.930487 0.763980 0.067114
O O10 0.925200 0.663693 0.065147
O O11 0.601455 0.713442 0.037468
O O12 0.725377 0.884932 0.703871
O O13 0.000000 0.824565 0.750000
O O14 0.256620 0.823663 0.500423
O O15 0.920537 0.862064 0.466002
O O16 0.555761 0.105832 0.524448
O O17 0.500000 0.961183 0.750000
#
# Coordination Sequence:
#
# PCOD9318747 Si02
#       8
#     8   8   8   8   8   8   8   8
#     4  10  21  34  50  80 113 142 180 224 265 329
#     4  11  18  33  54  77 113 143 171 219 272 322
#     4  11  21  32  53  81 110 144 184 221 274 339
#     4  11  21  32  51  82 117 140 175 226 272 335
#     4  11  20  33  52  77 109 148 180 224 272 325
#     4  10  21  35  49  77 115 144 180 219 271 329
#     4  11  18  33  54  75 111 144 175 218 269 327
#     4  11  20  33  54  80 109 145 178 215 275 329
#
# _framework density 16.495163999999999
#
# number of rings (size 3 to 8) (size 9 to 14) (size 15 to 20)
#    0.000    1.250    7.500    1.500    0.000    1.000 
#    0.000    0.000    0.000    0.000    0.000    5.250 
#    0.000    0.000    0.000    0.000    0.000    0.000 
#
# Total GULP energy -178235.938774 kJ/mol
# GULP energy per Si atom -5569.873087 kJ/mol
# Density = 1.645762 g / cm^3
# Si number density = 16.495164 Si / 1000 Ang^3
#
#
#
# Elastic Constant Matrix: (Units=GPa)
#
#
# Indices 1 2 3 4 5 6 
#
# 1 94.2392 29.3503 25.8144 0.0000 0.0000 0.0000
# 2 29.3503 84.0781 43.2587 0.0000 0.0000 0.0000
# 3 25.8144 43.2587 82.0096 0.0000 0.0000 0.0000
# 4 0.0000 0.0000 0.0000 20.4062 0.0000 0.0000
# 5 0.0000 0.0000 0.0000 0.0000 23.4464 0.0000
# 6 0.0000 0.0000 0.0000 0.0000 0.0000 8.1497
#
#
#
# Elastic Compliance Matrix: (Units=1/GPa)
#
#
# Indices 1 2 3 4 5 6 
#
# 1 0.012184 -0.003129 -0.002185 0.000000 0.000000 0.000000
# 2 -0.003129 0.017128 -0.008049 0.000000 0.000000 0.000000
# 3 -0.002185 -0.008049 0.017127 0.000000 0.000000 0.000000
# 4 0.000000 0.000000 0.000000 0.049005 0.000000 0.000000
# 5 0.000000 0.000000 0.000000 0.000000 0.042651 0.000000
# 6 0.000000 0.000000 0.000000 0.000000 0.000000 0.122704
#
#
# Mechanical properties :
#
#
# Convention : Reuss Voigt Hill
#
# Bulk Modulus (GPa) = 50.72963 50.79708 50.76336
# Shear Modulus (GPa) = 17.00125 21.19402 19.09764
#
# Velocity S-wave (km/s) = 3.21390 3.58839 3.40630
# Velocity P-wave (km/s) = 6.67782 6.93042 6.80529
#
# Compressibility (1/GPa) = 0.01971235
#
# Stress axis : x y z
#
# Youngs Moduli (GPa) = 82.07256 58.38523 58.38626
#
# Poissons Ratio (x) = 0.18271 0.12755
# Poissons Ratio (y) = 0.25683 0.46998
# Poissons Ratio (z) = 0.17930 0.46997
#
# Static dielectric constant tensor:
#      x y z
#    x 1.586560 0.000000 0.000000 
#    y 0.000000 1.550550 0.000000 
#    z 0.000000 0.000000 1.613330 
# 
# From -- ./inp_files/28515.got.cif
#   From: 2010.05.17/outbox.cif.g08.bks.cpg/sg20_15_cif.got.tgz:28515.got - 2010.06.03 22:52:26.
