data_PCOD9318293
_publ_section_title
;
Structure prediction by ZEFSAII (Michael W. Deem and Ramdas Pophale) SiO2 
 PCOD9318293
Probable space group: C 2 2 21
;
_chemical_formula_sum "Si O2"
_cell_formula_units_Z 36
_cell_length_a 5.355141
_cell_length_b 27.446635
_cell_length_c 10.200735
_cell_angle_alpha 90.000000
_cell_angle_beta 90.000000
_cell_angle_gamma 90.000000
_cell_volume 1499.310155
_symmetry_space_group_name_H-M "C 2 2 21"
_symmetry_group_IT_number 20
_symmetry_cell_setting 'orthorhombic'
loop_
_space_group_symop_operation_xyz
x,y,z
-x,-y,1/2+z
x,-y,-z
-x,y,1/2-z
1/2+x,1/2+y,z
1/2-x,1/2-y,1/2+z
1/2+x,1/2-y,-z
1/2-x,1/2+y,1/2-z
loop_
_atom_site_type_symbol
_atom_site_label
_atom_site_fract_x
_atom_site_fract_y
_atom_site_fract_z
Si Si1 0.000000 0.806808 0.250000
Si Si2 0.486275 0.343243 0.952543
Si Si3 0.000000 0.757416 0.750000
Si Si4 0.265044 0.000000 0.000000
Si Si5 0.000000 0.033729 0.750000
Si Si6 0.500000 0.903070 0.250000
Si Si7 0.981479 0.606143 0.032907
O O1 0.009453 0.835698 0.389179
O O2 0.248848 0.774079 0.252724
O O3 0.737298 0.370229 0.905226
O O4 0.246013 0.376048 0.916276
O O5 0.479755 0.292108 0.877682
O O6 0.432711 0.048215 0.020425
O O7 0.082759 0.004101 0.876218
O O8 0.750827 0.065447 0.772187
O O9 0.528417 0.874578 0.383105
#
# Coordination Sequence:
#
# PCOD9318293 Si02
#       7
#     4   8   4   4   4   4   8
#     4  12  24  47  76  96 128 175 220 271 340 413
#     4  12  25  43  69 102 135 171 221 278 331 401
#     4  12  26  46  70 103 136 165 210 274 356 422
#     4  10  24  44  68  96 138 190 232 278 332 390
#     4  10  22  38  62  90 122 173 238 281 320 378
#     4  10  20  39  62  89 124 173 232 278 310 377
#     4  11  23  41  66  97 137 179 227 274 326 387
#
# _framework density 24.011040000000001
#
# number of rings (size 3 to 8) (size 9 to 14) (size 15 to 20)
#    0.000    0.889    0.000    8.000    0.000    9.778 
#    0.000    6.667    0.000    1.333    0.000    0.000 
#    0.000    0.000    0.000    0.000    0.000    0.000 
#
# Total GULP energy -100730.499692 kJ/mol
# GULP energy per Si atom -5596.138872 kJ/mol
# Density = 2.395639 g / cm^3
# Si number density = 24.011040 Si / 1000 Ang^3
#
#
#
# Elastic Constant Matrix: (Units=GPa)
#
#
# Indices 1 2 3 4 5 6 
#
# 1 246.9701 77.9220 38.4563 0.0000 0.0000 0.0000
# 2 77.9220 96.7600 22.1707 0.0000 0.0000 0.0000
# 3 38.4563 22.1707 122.3855 0.0000 0.0000 0.0000
# 4 0.0000 0.0000 0.0000 35.4512 0.0000 0.0000
# 5 0.0000 0.0000 0.0000 0.0000 0.7276 0.0000
# 6 0.0000 0.0000 0.0000 0.0000 0.0000 55.5086
#
#
#
# Elastic Compliance Matrix: (Units=1/GPa)
#
#
# Indices 1 2 3 4 5 6 
#
# 1 0.005537 -0.004236 -0.000972 0.000000 0.000000 0.000000
# 2 -0.004236 0.014023 -0.001209 0.000000 0.000000 0.000000
# 3 -0.000972 -0.001209 0.008696 0.000000 0.000000 0.000000
# 4 0.000000 0.000000 0.000000 0.028208 0.000000 0.000000
# 5 0.000000 0.000000 0.000000 0.000000 1.374400 0.000000
# 6 0.000000 0.000000 0.000000 0.000000 0.000000 0.018015
#
#
# Mechanical properties :
#
#
# Convention : Reuss Voigt Hill
#
# Bulk Modulus (GPa) = 64.85062 82.57932 73.71497
# Shear Modulus (GPa) = 3.40865 40.17526 21.79195
#
# Velocity S-wave (km/s) = 1.19277 4.09491 3.01588
# Velocity P-wave (km/s) = 5.38184 7.53821 6.54938
#
# Compressibility (1/GPa) = 0.01542005
#
# Stress axis : x y z
#
# Youngs Moduli (GPa) = 180.60034 71.30917 115.00149
#
# Poissons Ratio (x) = 0.30208 0.11183
# Poissons Ratio (y) = 0.76507 0.13907
# Poissons Ratio (z) = 0.17563 0.08623
#
# Static dielectric constant tensor:
#      x y z
#    x 1.895360 0.000000 0.000000 
#    y 0.000000 1.900830 0.000000 
#    z 0.000000 0.000000 1.933700 
# 
# From -- ./inp_files/12108.got.cif
#   From: 2010.05.17/outbox.cif.g08.bks.cpg/sg20_7_cif.got.tgz:12108.got - 2010.06.03 22:52:26.
