data_PCOD9318499
_publ_section_title
;
Structure prediction by ZEFSAII (Michael W. Deem and Ramdas Pophale) SiO2 
 PCOD9318499
Probable space group: C 2 2 21
;
_chemical_formula_sum "Si O2"
_cell_formula_units_Z 28
_cell_length_a 16.046883
_cell_length_b 9.863365
_cell_length_c 8.508161
_cell_angle_alpha 90.000000
_cell_angle_beta 90.000000
_cell_angle_gamma 90.000000
_cell_volume 1346.639938
_symmetry_space_group_name_H-M "C 2 2 21"
_symmetry_group_IT_number 20
_symmetry_cell_setting 'orthorhombic'
loop_
_space_group_symop_operation_xyz
x,y,z
-x,-y,1/2+z
x,-y,-z
-x,y,1/2-z
1/2+x,1/2+y,z
1/2-x,1/2-y,1/2+z
1/2+x,1/2-y,-z
1/2-x,1/2+y,1/2-z
loop_
_atom_site_type_symbol
_atom_site_label
_atom_site_fract_x
_atom_site_fract_y
_atom_site_fract_z
Si Si1 0.660655 0.640304 0.082396
Si Si2 0.585376 0.035482 0.677377
Si Si3 0.000000 0.800318 0.750000
Si Si4 0.274432 0.105710 0.379670
O O1 0.562563 0.628672 0.129552
O O2 0.714215 0.654148 0.241539
O O3 0.685305 0.500000 0.000000
O O4 0.683265 0.767790 0.970620
O O5 0.500000 0.973608 0.750000
O O6 0.655707 0.986748 0.795192
O O7 0.604503 0.000000 0.500000
O O8 0.563582 0.194370 0.669422
O O9 0.231357 0.000000 0.500000
#
# Coordination Sequence:
#
# PCOD9318499 Si02
#       4
#     8   8   4   8
#     4  12  27  45  70 109 152 185 239 309 378 421
#     4  10  20  40  75  98 128 181 245 287 334 430
#     4  10  24  46  66 104 146 178 238 284 368 428
#     4  12  24  47  71 106 137 193 251 291 354 448
#
# _framework density 20.792490000000001
#
# number of rings (size 3 to 8) (size 9 to 14) (size 15 to 20)
#    0.857    0.000    2.857    5.143    4.000    1.143 
#    7.714    0.000    0.000    0.000    0.000    0.000 
#    0.000    0.000    0.000    0.000    0.000    0.000 
#
# Total GULP energy -78036.588419 kJ/mol
# GULP energy per Si atom -5574.042030 kJ/mol
# Density = 2.074517 g / cm^3
# Si number density = 20.792490 Si / 1000 Ang^3
#
#
#
# Elastic Constant Matrix: (Units=GPa)
#
#
# Indices 1 2 3 4 5 6 
#
# 1 109.0328 25.1191 41.4576 0.0000 0.0000 0.0000
# 2 25.1191 82.5480 51.4179 0.0000 0.0000 0.0000
# 3 41.4576 51.4179 133.6471 0.0000 0.0000 0.0000
# 4 0.0000 0.0000 0.0000 27.5742 0.0000 0.0000
# 5 0.0000 0.0000 0.0000 0.0000 40.8454 0.0000
# 6 0.0000 0.0000 0.0000 0.0000 0.0000 23.0060
#
#
#
# Elastic Compliance Matrix: (Units=1/GPa)
#
#
# Indices 1 2 3 4 5 6 
#
# 1 0.010545 -0.001540 -0.002678 0.000000 0.000000 0.000000
# 2 -0.001540 0.016157 -0.005738 0.000000 0.000000 0.000000
# 3 -0.002678 -0.005738 0.010521 0.000000 0.000000 0.000000
# 4 0.000000 0.000000 0.000000 0.036266 0.000000 0.000000
# 5 0.000000 0.000000 0.000000 0.000000 0.024483 0.000000
# 6 0.000000 0.000000 0.000000 0.000000 0.000000 0.043467
#
#
# Mechanical properties :
#
#
# Convention : Reuss Voigt Hill
#
# Bulk Modulus (GPa) = 57.77428 62.35745 60.06587
# Shear Modulus (GPa) = 29.91824 32.10066 31.00945
#
# Velocity S-wave (km/s) = 3.79739 3.93346 3.86603
# Velocity P-wave (km/s) = 6.86100 7.11934 6.99136
#
# Compressibility (1/GPa) = 0.01730874
#
# Stress axis : x y z
#
# Youngs Moduli (GPa) = 94.83314 61.89183 95.04873
#
# Poissons Ratio (x) = 0.09534 0.25458
# Poissons Ratio (y) = 0.14609 0.54542
# Poissons Ratio (z) = 0.25400 0.35515
#
# Static dielectric constant tensor:
#      x y z
#    x 1.778210 0.000000 0.000000 
#    y 0.000000 1.768340 0.000000 
#    z 0.000000 0.000000 1.775900 
# 
# From -- ./inp_files/9013.got.cif
#   From: 2010.05.17/outbox.cif.g08.bks.cpg/sg20_5_cif.got.tgz:9013.got - 2010.06.03 22:52:26.
