data_PCOD9318715
_publ_section_title
;
Structure prediction by ZEFSAII (Michael W. Deem and Ramdas Pophale) SiO2 
 PCOD9318715
Probable space group: C 2 2 21
;
_chemical_formula_sum "Si O2"
_cell_formula_units_Z 28
_cell_length_a 7.718587
_cell_length_b 11.655455
_cell_length_c 11.115791
_cell_angle_alpha 90.000000
_cell_angle_beta 90.000000
_cell_angle_gamma 90.000000
_cell_volume 1000.017058
_symmetry_space_group_name_H-M "C 2 2 21"
_symmetry_group_IT_number 20
_symmetry_cell_setting 'orthorhombic'
loop_
_space_group_symop_operation_xyz
x,y,z
-x,-y,1/2+z
x,-y,-z
-x,y,1/2-z
1/2+x,1/2+y,z
1/2-x,1/2-y,1/2+z
1/2+x,1/2-y,-z
1/2-x,1/2+y,1/2-z
loop_
_atom_site_type_symbol
_atom_site_label
_atom_site_fract_x
_atom_site_fract_y
_atom_site_fract_z
Si Si1 0.000000 0.096205 0.250000
Si Si2 0.614988 0.500000 0.500000
Si Si3 0.430730 0.164745 0.465488
Si Si4 0.000000 0.499223 0.750000
Si Si5 0.708491 0.196001 0.674995
O O1 0.838797 0.187774 0.247868
O O2 0.010953 0.028022 0.376312
O O3 0.748848 0.608229 0.506355
O O4 0.561948 0.184848 0.571822
O O5 0.385873 0.280035 0.392490
O O6 0.503546 0.075737 0.368879
O O7 0.830305 0.580615 0.753575
#
# Coordination Sequence:
#
# PCOD9318715 Si02
#       5
#     4   4   8   4   8
#     4   9  22  42  67 106 154 191 250 306 373 456
#     4  10  20  46  70 108 152 196 248 310 376 458
#     4  11  23  46  76 106 151 204 254 316 389 456
#     4  11  22  46  73 102 154 201 250 322 379 458
#     4  10  23  45  72 108 151 193 263 311 379 469
#
# _framework density 27.999525999999999
#
# number of rings (size 3 to 8) (size 9 to 14) (size 15 to 20)
#    0.000    1.714    2.857    0.000    0.000    6.857 
#   20.571    0.000    0.000    0.000    0.000    0.000 
#    0.000    0.000    0.000    0.000    0.000    0.000 
#
# Total GULP energy -78471.488066 kJ/mol
# GULP energy per Si atom -5605.106290 kJ/mol
# Density = 2.793580 g / cm^3
# Si number density = 27.999526 Si / 1000 Ang^3
#
#
#
# Elastic Constant Matrix: (Units=GPa)
#
#
# Indices 1 2 3 4 5 6 
#
# 1 50.4362 43.3214 41.9931 0.0000 0.0000 0.0000
# 2 43.3214 160.7385 81.3304 0.0000 0.0000 0.0000
# 3 41.9931 81.3304 212.4404 0.0000 0.0000 0.0000
# 4 0.0000 0.0000 0.0000 54.2050 0.0000 0.0000
# 5 0.0000 0.0000 0.0000 0.0000 57.0789 0.0000
# 6 0.0000 0.0000 0.0000 0.0000 0.0000 40.3788
#
#
#
# Elastic Compliance Matrix: (Units=1/GPa)
#
#
# Indices 1 2 3 4 5 6 
#
# 1 0.027466 -0.005774 -0.003219 0.000000 0.000000 0.000000
# 2 -0.005774 0.008930 -0.002277 0.000000 0.000000 0.000000
# 3 -0.003219 -0.002277 0.006215 0.000000 0.000000 0.000000
# 4 0.000000 0.000000 0.000000 0.018448 0.000000 0.000000
# 5 0.000000 0.000000 0.000000 0.000000 0.017520 0.000000
# 6 0.000000 0.000000 0.000000 0.000000 0.000000 0.024765
#
#
# Mechanical properties :
#
#
# Convention : Reuss Voigt Hill
#
# Bulk Modulus (GPa) = 49.82225 84.10054 66.96140
# Shear Modulus (GPa) = 37.71432 47.46390 42.58911
#
# Velocity S-wave (km/s) = 3.67408 4.12171 3.90431
# Velocity P-wave (km/s) = 5.98591 7.26312 6.65522
#
# Compressibility (1/GPa) = 0.02007135
#
# Stress axis : x y z
#
# Youngs Moduli (GPa) = 36.40803 111.98557 160.89327
#
# Poissons Ratio (x) = 0.64660 0.51788
# Poissons Ratio (y) = 0.21022 0.36640
# Poissons Ratio (z) = 0.11719 0.25502
#
# Static dielectric constant tensor:
#      x y z
#    x 2.204240 0.000000 0.000000 
#    y 0.000000 2.273410 0.000000 
#    z 0.000000 0.000000 2.208210 
# 
# From -- ./inp_files/12438.got.cif
#   From: 2010.05.17/outbox.cif.g08.bks.cpg/sg20_7_cif.got.tgz:12438.got - 2010.06.03 22:52:26.
