data_PCOD9318191
_publ_section_title
;
Structure prediction by ZEFSAII (Michael W. Deem and Ramdas Pophale) SiO2 
 PCOD9318191
Probable space group: C 2 2 21
;
_chemical_formula_sum "Si O2"
_cell_formula_units_Z 64
_cell_length_a 14.792916
_cell_length_b 16.965460
_cell_length_c 11.710835
_cell_angle_alpha 90.000000
_cell_angle_beta 90.000000
_cell_angle_gamma 90.000000
_cell_volume 2939.052154
_symmetry_space_group_name_H-M "C 2 2 21"
_symmetry_group_IT_number 20
_symmetry_cell_setting 'orthorhombic'
loop_
_space_group_symop_operation_xyz
x,y,z
-x,-y,1/2+z
x,-y,-z
-x,y,1/2-z
1/2+x,1/2+y,z
1/2-x,1/2-y,1/2+z
1/2+x,1/2-y,-z
1/2-x,1/2+y,1/2-z
loop_
_atom_site_type_symbol
_atom_site_label
_atom_site_fract_x
_atom_site_fract_y
_atom_site_fract_z
Si Si1 0.352951 0.632181 0.965869
Si Si2 0.601523 0.798249 0.886587
Si Si3 0.465656 0.966542 0.620355
Si Si4 0.727865 0.972410 0.190916
Si Si5 0.780217 0.141967 0.218161
Si Si6 0.230581 0.766959 0.926924
Si Si7 0.540571 0.620274 0.869121
Si Si8 0.242068 0.077858 0.928048
O O1 0.294462 0.566102 0.900860
O O2 0.316962 0.711798 0.904924
O O3 0.457865 0.613958 0.955644
O O4 0.328063 0.644676 0.096990
O O5 0.534545 0.871720 0.893528
O O6 0.678359 0.826215 0.798645
O O7 0.561980 0.713504 0.857022
O O8 0.657933 0.784883 0.003558
O O9 0.500000 0.984051 0.750000
O O10 0.505098 0.000000 0.500000
O O11 0.363202 0.000101 0.629195
O O12 0.712755 0.918812 0.302520
O O13 0.772996 0.050191 0.246135
O O14 0.817675 0.196319 0.317062
O O15 0.260288 0.842046 0.002423
O O16 0.500000 0.590069 0.750000
O O17 0.633660 0.579953 0.904891
O O18 0.266758 0.000000 0.000000
#
# Coordination Sequence:
#
# PCOD9318191 Si02
#       8
#     8   8   8   8   8   8   8   8
#     4  11  23  38  65  96 125 177 226 260 337 398
#     4   9  21  40  62  90 132 172 217 277 334 402
#     4  11  24  46  68 101 135 175 225 283 346 407
#     4  11  22  42  68  91 133 173 220 275 331 405
#     4  10  20  38  63  92 124 174 221 272 323 401
#     4  10  21  38  63  92 129 167 224 277 328 394
#     4  11  21  39  61  91 125 170 216 268 321 394
#     4  11  23  41  60  94 132 167 218 275 332 389
#
# _framework density 21.775725999999999
#
# number of rings (size 3 to 8) (size 9 to 14) (size 15 to 20)
#    0.000    1.500    2.500    3.750    3.500    2.500 
#    2.250    2.500    0.000    0.000    0.000    0.000 
#    0.000    0.000    0.000    0.000    0.000    0.000 
#
# Total GULP energy -178673.522064 kJ/mol
# GULP energy per Si atom -5583.547565 kJ/mol
# Density = 2.172616 g / cm^3
# Si number density = 21.775726 Si / 1000 Ang^3
#
#
#
# Elastic Constant Matrix: (Units=GPa)
#
#
# Indices 1 2 3 4 5 6 
#
# 1 43.9706 11.9199 0.9934 0.0000 0.0000 0.0000
# 2 11.9199 72.3943 26.4047 0.0000 0.0000 0.0000
# 3 0.9934 26.4047 110.2744 0.0000 0.0000 0.0000
# 4 0.0000 0.0000 0.0000 32.8974 0.0000 0.0000
# 5 0.0000 0.0000 0.0000 0.0000 21.4434 0.0000
# 6 0.0000 0.0000 0.0000 0.0000 0.0000 8.8705
#
#
#
# Elastic Compliance Matrix: (Units=1/GPa)
#
#
# Indices 1 2 3 4 5 6 
#
# 1 0.023869 -0.004220 0.000795 0.000000 0.000000 0.000000
# 2 -0.004220 0.015881 -0.003765 0.000000 0.000000 0.000000
# 3 0.000795 -0.003765 0.009963 0.000000 0.000000 0.000000
# 4 0.000000 0.000000 0.000000 0.030398 0.000000 0.000000
# 5 0.000000 0.000000 0.000000 0.000000 0.046634 0.000000
# 6 0.000000 0.000000 0.000000 0.000000 0.000000 0.112733
#
#
# Mechanical properties :
#
#
# Convention : Reuss Voigt Hill
#
# Bulk Modulus (GPa) = 28.30166 33.91948 31.11057
# Shear Modulus (GPa) = 18.82293 25.13035 21.97664
#
# Velocity S-wave (km/s) = 2.94326 3.40082 3.18028
# Velocity P-wave (km/s) = 4.95736 5.57058 5.27289
#
# Compressibility (1/GPa) = 0.03533361
#
# Stress axis : x y z
#
# Youngs Moduli (GPa) = 41.89616 62.96756 100.37587
#
# Poissons Ratio (x) = 0.26573 -0.07985
# Poissons Ratio (y) = 0.17681 0.37788
# Poissons Ratio (z) = -0.03333 0.23705
#
# Static dielectric constant tensor:
#      x y z
#    x 1.807650 0.000000 0.000000 
#    y 0.000000 1.823090 0.000000 
#    z 0.000000 0.000000 1.858820 
# 
# From -- ./inp_files/15334.got.cif
#   From: 2010.05.17/outbox.cif.g08.bks.cpg/sg20_8_cif.got.tgz:15334.got - 2010.06.03 22:52:26.
