data_PCOD9318574
_publ_section_title
;
Structure prediction by ZEFSAII (Michael W. Deem and Ramdas Pophale) SiO2 
 PCOD9318574
Probable space group: C 2 2 21
;
_chemical_formula_sum "Si O2"
_cell_formula_units_Z 56
_cell_length_a 17.378456
_cell_length_b 8.132339
_cell_length_c 20.237099
_cell_angle_alpha 90.000000
_cell_angle_beta 90.000000
_cell_angle_gamma 90.000000
_cell_volume 2860.058518
_symmetry_space_group_name_H-M "C 2 2 21"
_symmetry_group_IT_number 20
_symmetry_cell_setting 'orthorhombic'
loop_
_space_group_symop_operation_xyz
x,y,z
-x,-y,1/2+z
x,-y,-z
-x,y,1/2-z
1/2+x,1/2+y,z
1/2-x,1/2-y,1/2+z
1/2+x,1/2-y,-z
1/2-x,1/2+y,1/2-z
loop_
_atom_site_type_symbol
_atom_site_label
_atom_site_fract_x
_atom_site_fract_y
_atom_site_fract_z
Si Si1 0.434207 0.837092 0.625940
Si Si2 0.029703 0.956781 0.325498
Si Si3 0.805225 0.217015 0.824749
Si Si4 0.149092 0.426842 0.559717
Si Si5 0.110437 0.716195 0.661010
Si Si6 0.500000 0.964933 0.250000
Si Si7 0.496143 0.000000 0.000000
Si Si8 0.273937 0.118416 0.310888
O O1 0.474389 0.927133 0.688165
O O2 0.449769 0.953702 0.562195
O O3 0.344449 0.825777 0.643702
O O4 0.472739 0.655417 0.630571
O O5 0.109819 0.859067 0.317510
O O6 0.000000 0.979806 0.250000
O O7 0.053354 0.132650 0.356779
O O8 0.806213 0.300559 0.895843
O O9 0.743669 0.073026 0.819483
O O10 0.792915 0.343189 0.765275
O O11 0.198556 0.500000 0.500000
O O12 0.117912 0.568112 0.609065
O O13 0.072008 0.365451 0.520655
O O14 0.072168 0.642752 0.726833
O O15 0.195124 0.787684 0.671828
#
# Coordination Sequence:
#
# PCOD9318574 Si02
#       8
#     8   8   8   8   8   4   4   8
#     4  12  21  40  63  90 124 172 205 271 317 383
#     4  11  19  35  63  93 125 159 211 257 322 374
#     4  11  20  39  62  97 122 172 204 261 324 386
#     4  10  20  42  64  81 121 171 222 255 308 381
#     4  11  23  37  62 100 122 161 213 269 318 385
#     4  12  18  36  68  86 116 170 220 246 308 380
#     4  10  22  38  64  88 114 170 224 252 322 376
#     4  11  24  36  63  98 135 154 208 270 333 379
#
# _framework density 19.580020000000001
#
# number of rings (size 3 to 8) (size 9 to 14) (size 15 to 20)
#    0.429    0.571    5.714    2.571    0.000    0.000 
#    2.571    5.714    0.000    0.000    0.000    0.000 
#    0.000    0.000    0.000    0.000    0.000    0.000 
#
# Total GULP energy -155890.618835 kJ/mol
# GULP energy per Si atom -5567.522101 kJ/mol
# Density = 1.953546 g / cm^3
# Si number density = 19.580020 Si / 1000 Ang^3
#
#
#
# Elastic Constant Matrix: (Units=GPa)
#
#
# Indices 1 2 3 4 5 6 
#
# 1 80.4740 20.8864 -1.6130 0.0000 0.0000 0.0000
# 2 20.8864 70.8377 -4.8749 0.0000 0.0000 0.0000
# 3 -1.6130 -4.8749 39.7225 0.0000 0.0000 0.0000
# 4 0.0000 0.0000 0.0000 5.7533 0.0000 0.0000
# 5 0.0000 0.0000 0.0000 0.0000 17.3394 0.0000
# 6 0.0000 0.0000 0.0000 0.0000 0.0000 24.2598
#
#
#
# Elastic Compliance Matrix: (Units=1/GPa)
#
#
# Indices 1 2 3 4 5 6 
#
# 1 0.013456 -0.003963 0.000060 0.000000 0.000000 0.000000
# 2 -0.003963 0.015404 0.001730 0.000000 0.000000 0.000000
# 3 0.000060 0.001730 0.025389 0.000000 0.000000 0.000000
# 4 0.000000 0.000000 0.000000 0.173813 0.000000 0.000000
# 5 0.000000 0.000000 0.000000 0.000000 0.057672 0.000000
# 6 0.000000 0.000000 0.000000 0.000000 0.000000 0.041220
#
#
# Mechanical properties :
#
#
# Convention : Reuss Voigt Hill
#
# Bulk Modulus (GPa) = 20.03917 24.42569 22.23243
# Shear Modulus (GPa) = 14.37039 21.24621 17.80830
#
# Velocity S-wave (km/s) = 2.71206 3.29765 3.01909
# Velocity P-wave (km/s) = 4.47925 5.19627 4.85103
#
# Compressibility (1/GPa) = 0.04990227
#
# Stress axis : x y z
#
# Youngs Moduli (GPa) = 74.31489 64.91640 39.38659
#
# Poissons Ratio (x) = 0.25729 -0.00236
# Poissons Ratio (y) = 0.29454 -0.06812
# Poissons Ratio (z) = -0.00446 -0.11228
#
# Static dielectric constant tensor:
#      x y z
#    x 1.711220 0.000000 0.000000 
#    y 0.000000 1.762980 0.000000 
#    z 0.000000 0.000000 1.746090 
# 
# From -- ./inp_files/27750.got.cif
#   From: 2010.05.17/outbox.cif.g08.bks.cpg/sg20_14_cif.got.tgz:27750.got - 2010.06.03 22:52:26.
