data_PCOD9318042
_publ_section_title
;
Structure prediction by ZEFSAII (Michael W. Deem and Ramdas Pophale) SiO2 
 PCOD9318042
Probable space group: C 2 2 21
;
_chemical_formula_sum "Si O2"
_cell_formula_units_Z 40
_cell_length_a 17.732485
_cell_length_b 5.373871
_cell_length_c 17.319981
_cell_angle_alpha 90.000000
_cell_angle_beta 90.000000
_cell_angle_gamma 90.000000
_cell_volume 1650.457135
_symmetry_space_group_name_H-M "C 2 2 21"
_symmetry_group_IT_number 20
_symmetry_cell_setting 'orthorhombic'
loop_
_space_group_symop_operation_xyz
x,y,z
-x,-y,1/2+z
x,-y,-z
-x,y,1/2-z
1/2+x,1/2+y,z
1/2-x,1/2-y,1/2+z
1/2+x,1/2-y,-z
1/2-x,1/2+y,1/2-z
loop_
_atom_site_type_symbol
_atom_site_label
_atom_site_fract_x
_atom_site_fract_y
_atom_site_fract_z
Si Si1 0.874796 0.671462 0.849607
Si Si2 0.380075 0.702083 0.638950
Si Si3 0.500000 0.957954 0.750000
Si Si4 0.674377 0.796208 0.091438
Si Si5 0.801722 0.500000 0.000000
Si Si6 0.202293 0.830766 0.289004
O O1 0.835456 0.421439 0.817933
O O2 0.956154 0.633600 0.810767
O O3 0.841886 0.933250 0.822486
O O4 0.855583 0.641679 0.939812
O O5 0.383693 0.434484 0.597714
O O6 0.309161 0.668627 0.697290
O O7 0.447277 0.785086 0.695677
O O8 0.362559 0.931786 0.581706
O O9 0.743785 0.699480 0.038740
O O10 0.714631 0.831220 0.175284
#
# Coordination Sequence:
#
# PCOD9318042 Si02
#       6
#     8   8   4   8   4   8
#     4  10  22  39  66  92 134 181 226 287 341 428
#     4  11  22  37  63  93 130 169 216 288 339 414
#     4  10  24  44  66 100 138 186 242 276 352 428
#     4  11  22  37  62  93 128 171 223 282 348 407
#     4  10  24  44  64  98 138 184 238 296 372 424
#     4  10  20  37  62  95 124 163 221 288 352 393
#
# _framework density 24.235710999999998
#
# number of rings (size 3 to 8) (size 9 to 14) (size 15 to 20)
#    0.000    1.600    0.000    6.000    0.000   14.400 
#    0.000    2.000    0.000    0.000    0.000    0.000 
#    0.000    0.000    0.000    0.000    0.000    0.000 
#
# Total GULP energy -111715.868800 kJ/mol
# GULP energy per Si atom -5585.793440 kJ/mol
# Density = 2.418055 g / cm^3
# Si number density = 24.235711 Si / 1000 Ang^3
#
#
#
# Elastic Constant Matrix: (Units=GPa)
#
#
# Indices 1 2 3 4 5 6 
#
# 1 91.6459 45.8099 33.2917 0.0000 0.0000 0.0000
# 2 45.8099 211.6752 45.5685 0.0000 0.0000 0.0000
# 3 33.2917 45.5685 114.1516 0.0000 0.0000 0.0000
# 4 0.0000 0.0000 0.0000 41.2188 0.0000 0.0000
# 5 0.0000 0.0000 0.0000 0.0000 51.9004 0.0000
# 6 0.0000 0.0000 0.0000 0.0000 0.0000 35.1593
#
#
#
# Elastic Compliance Matrix: (Units=1/GPa)
#
#
# Indices 1 2 3 4 5 6 
#
# 1 0.013077 -0.002198 -0.002936 0.000000 0.000000 0.000000
# 2 -0.002198 0.005538 -0.001570 0.000000 0.000000 0.000000
# 3 -0.002936 -0.001570 0.010243 0.000000 0.000000 0.000000
# 4 0.000000 0.000000 0.000000 0.024261 0.000000 0.000000
# 5 0.000000 0.000000 0.000000 0.000000 0.019268 0.000000
# 6 0.000000 0.000000 0.000000 0.000000 0.000000 0.028442
#
#
# Mechanical properties :
#
#
# Convention : Reuss Voigt Hill
#
# Bulk Modulus (GPa) = 64.72485 74.09032 69.40758
# Shear Modulus (GPa) = 41.88085 45.17588 43.52836
#
# Velocity S-wave (km/s) = 4.16151 4.32211 4.24257
# Velocity P-wave (km/s) = 7.06082 7.45283 7.25947
#
# Compressibility (1/GPa) = 0.01545002
#
# Stress axis : x y z
#
# Youngs Moduli (GPa) = 76.47073 180.57764 97.62524
#
# Poissons Ratio (x) = 0.39689 0.28667
# Poissons Ratio (y) = 0.16808 0.15324
# Poissons Ratio (z) = 0.22455 0.28344
#
# Static dielectric constant tensor:
#      x y z
#    x 1.974010 0.000000 0.000000 
#    y 0.000000 1.957130 0.000000 
#    z 0.000000 0.000000 2.006390 
# 
# From -- ./inp_files/27705.got.cif
#   From: 2010.05.17/outbox.cif.g08.bks.cpg/sg20_14_cif.got.tgz:27705.got - 2010.06.03 22:52:26.
