data_PCOD9318220
_publ_section_title
;
Structure prediction by ZEFSAII (Michael W. Deem and Ramdas Pophale) SiO2 
 PCOD9318220
Probable space group: C 2 2 21
;
_chemical_formula_sum "Si O2"
_cell_formula_units_Z 60
_cell_length_a 32.833804
_cell_length_b 11.067106
_cell_length_c 8.202719
_cell_angle_alpha 90.000000
_cell_angle_beta 90.000000
_cell_angle_gamma 90.000000
_cell_volume 2980.664569
_symmetry_space_group_name_H-M "C 2 2 21"
_symmetry_group_IT_number 20
_symmetry_cell_setting 'orthorhombic'
loop_
_space_group_symop_operation_xyz
x,y,z
-x,-y,1/2+z
x,-y,-z
-x,y,1/2-z
1/2+x,1/2+y,z
1/2-x,1/2-y,1/2+z
1/2+x,1/2-y,-z
1/2-x,1/2+y,1/2-z
loop_
_atom_site_type_symbol
_atom_site_label
_atom_site_fract_x
_atom_site_fract_y
_atom_site_fract_z
Si Si1 0.951713 0.233102 0.247501
Si Si2 0.373029 0.833178 0.372448
Si Si3 0.899138 0.786240 0.077377
Si Si4 0.303379 0.314421 0.780140
Si Si5 0.456575 0.464214 0.193770
Si Si6 0.664710 0.500000 0.500000
Si Si7 0.649850 0.904030 0.765053
Si Si8 0.770985 0.635703 0.062717
O O1 0.921175 0.307917 0.360943
O O2 0.000000 0.263267 0.250000
O O3 0.948697 0.089681 0.286362
O O4 0.930112 0.242517 0.069993
O O5 0.346962 0.727412 0.289115
O O6 0.358533 0.850886 0.556549
O O7 0.360780 0.955017 0.276585
O O8 0.924365 0.858789 0.213733
O O9 0.878975 0.665245 0.139407
O O10 0.864388 0.885405 0.035019
O O11 0.307784 0.449292 0.853849
O O12 0.270099 0.311502 0.638393
O O13 0.288750 0.223019 0.922425
O O14 0.500000 0.418848 0.250000
O O15 0.457043 0.500000 0.000000
O O16 0.695311 0.878534 0.704539
O O17 0.763860 0.500000 0.000000
#
# Coordination Sequence:
#
# PCOD9318220 Si02
#       8
#     8   8   8   8   8   4   8   8
#     4  10  20  38  65  94 134 174 224 281 336 388
#     4  11  23  46  64  96 129 182 223 277 331 391
#     4  11  20  40  64  95 128 177 220 264 339 397
#     4  12  26  42  72  93 137 166 220 281 325 411
#     4   9  18  33  57  89 128 165 211 271 333 384
#     4  12  22  40  66  96 126 166 218 262 336 400
#     4  11  25  42  69  92 133 178 229 265 333 407
#     4  12  26  45  68 102 128 176 221 268 345 389
#
# _framework density 20.129738
#
# number of rings (size 3 to 8) (size 9 to 14) (size 15 to 20)
#    0.000    1.067    6.000    0.800    1.867    5.333 
#    0.000    4.667    0.000    0.000    0.000    0.000 
#    0.000    0.000    0.000    0.000    0.000    0.000 
#
# Total GULP energy -167515.137541 kJ/mol
# GULP energy per Si atom -5583.837918 kJ/mol
# Density = 2.008392 g / cm^3
# Si number density = 20.129738 Si / 1000 Ang^3
#
#
#
# Elastic Constant Matrix: (Units=GPa)
#
#
# Indices 1 2 3 4 5 6 
#
# 1 103.7864 18.1980 27.3241 0.0000 0.0000 0.0000
# 2 18.1980 40.6493 31.4804 0.0000 0.0000 0.0000
# 3 27.3241 31.4804 50.1005 0.0000 0.0000 0.0000
# 4 0.0000 0.0000 0.0000 28.7427 0.0000 0.0000
# 5 0.0000 0.0000 0.0000 0.0000 36.7855 0.0000
# 6 0.0000 0.0000 0.0000 0.0000 0.0000 12.1325
#
#
#
# Elastic Compliance Matrix: (Units=1/GPa)
#
#
# Indices 1 2 3 4 5 6 
#
# 1 0.011257 -0.000555 -0.005791 0.000000 0.000000 0.000000
# 2 -0.000555 0.047946 -0.029824 0.000000 0.000000 0.000000
# 3 -0.005791 -0.029824 0.041858 0.000000 0.000000 0.000000
# 4 0.000000 0.000000 0.000000 0.034791 0.000000 0.000000
# 5 0.000000 0.000000 0.000000 0.000000 0.027185 0.000000
# 6 0.000000 0.000000 0.000000 0.000000 0.000000 0.082423
#
#
# Mechanical properties :
#
#
# Convention : Reuss Voigt Hill
#
# Bulk Modulus (GPa) = 34.81715 38.72681 36.77198
# Shear Modulus (GPa) = 15.27309 23.36773 19.32041
#
# Velocity S-wave (km/s) = 2.75750 3.41083 3.10142
# Velocity P-wave (km/s) = 5.24140 5.89848 5.57962
#
# Compressibility (1/GPa) = 0.02872148
#
# Stress axis : x y z
#
# Youngs Moduli (GPa) = 88.83344 20.85679 23.89041
#
# Poissons Ratio (x) = 0.01158 0.13834
# Poissons Ratio (y) = 0.04931 0.71251
# Poissons Ratio (z) = 0.51440 0.62203
#
# Static dielectric constant tensor:
#      x y z
#    x 1.716430 0.000000 0.000000 
#    y 0.000000 1.695070 0.000000 
#    z 0.000000 0.000000 1.759150 
# 
# From -- ./inp_files/11573.got.cif
#   From: 2010.05.17/outbox.cif.g08.bks.cpg/sg20_6_cif.got.tgz:11573.got - 2010.06.03 22:52:26.
