data_PCOD9318342
_publ_section_title
;
Structure prediction by ZEFSAII (Michael W. Deem and Ramdas Pophale) SiO2 
 PCOD9318342
Probable space group: C 2 2 21
;
_chemical_formula_sum "Si O2"
_cell_formula_units_Z 48
_cell_length_a 16.656974
_cell_length_b 8.172931
_cell_length_c 18.172685
_cell_angle_alpha 90.000000
_cell_angle_beta 90.000000
_cell_angle_gamma 90.000000
_cell_volume 2473.962082
_symmetry_space_group_name_H-M "C 2 2 21"
_symmetry_group_IT_number 20
_symmetry_cell_setting 'orthorhombic'
loop_
_space_group_symop_operation_xyz
x,y,z
-x,-y,1/2+z
x,-y,-z
-x,y,1/2-z
1/2+x,1/2+y,z
1/2-x,1/2-y,1/2+z
1/2+x,1/2-y,-z
1/2-x,1/2+y,1/2-z
loop_
_atom_site_type_symbol
_atom_site_label
_atom_site_fract_x
_atom_site_fract_y
_atom_site_fract_z
Si Si1 0.593325 0.663799 0.308140
Si Si2 0.155008 0.809182 0.993326
Si Si3 0.039182 0.351083 0.890740
Si Si4 0.087756 0.500000 0.500000
Si Si5 0.000000 0.866408 0.250000
Si Si6 0.178768 0.833589 0.540669
Si Si7 0.414799 0.807467 0.341843
O O1 0.571745 0.488117 0.273187
O O2 0.656144 0.649916 0.373697
O O3 0.507572 0.739957 0.336743
O O4 0.620086 0.771661 0.238740
O O5 0.082630 0.757027 0.047265
O O6 0.229169 0.697575 0.018926
O O7 0.128863 0.779124 0.909503
O O8 0.174845 0.000000 0.000000
O O9 0.016511 0.241309 0.821503
O O10 0.090500 0.501477 0.859631
O O11 0.967057 0.445091 0.931557
O O12 0.136492 0.664163 0.517134
O O13 0.150321 0.000000 0.500000
#
# Coordination Sequence:
#
# PCOD9318342 Si02
#       7
#     8   8   8   4   4   8   8
#     4  10  21  41  64 100 131 175 228 294 346 412
#     4  12  24  43  66  96 137 186 230 282 356 425
#     4  12  21  40  66  99 132 175 231 285 346 414
#     4  12  24  42  70 104 130 184 232 280 346 422
#     4  10  22  36  68 100 130 174 230 296 348 410
#     4  12  25  44  67  99 144 182 229 288 350 430
#     4  10  20  39  66  93 131 169 228 282 346 407
#
# _framework density 19.402076999999998
#
# number of rings (size 3 to 8) (size 9 to 14) (size 15 to 20)
#    0.000    1.000    4.167    5.000    0.000    1.333 
#    0.000    8.333    0.000    0.000    0.000    0.000 
#    0.000    0.000    0.000    0.000    0.000    0.000 
#
# Total GULP energy -133970.961588 kJ/mol
# GULP energy per Si atom -5582.123399 kJ/mol
# Density = 1.935792 g / cm^3
# Si number density = 19.402077 Si / 1000 Ang^3
#
#
#
# Elastic Constant Matrix: (Units=GPa)
#
#
# Indices 1 2 3 4 5 6 
#
# 1 46.6258 12.9183 44.6870 0.0000 0.0000 0.0000
# 2 12.9183 111.1654 18.4361 0.0000 0.0000 0.0000
# 3 44.6870 18.4361 124.1513 0.0000 0.0000 0.0000
# 4 0.0000 0.0000 0.0000 45.4626 0.0000 0.0000
# 5 0.0000 0.0000 0.0000 0.0000 20.1884 0.0000
# 6 0.0000 0.0000 0.0000 0.0000 0.0000 22.9618
#
#
#
# Elastic Compliance Matrix: (Units=1/GPa)
#
#
# Indices 1 2 3 4 5 6 
#
# 1 0.033138 -0.001920 -0.011642 0.000000 0.000000 0.000000
# 2 -0.001920 0.009334 -0.000695 0.000000 0.000000 0.000000
# 3 -0.011642 -0.000695 0.012348 0.000000 0.000000 0.000000
# 4 0.000000 0.000000 0.000000 0.021996 0.000000 0.000000
# 5 0.000000 0.000000 0.000000 0.000000 0.049533 0.000000
# 6 0.000000 0.000000 0.000000 0.000000 0.000000 0.043551
#
#
# Mechanical properties :
#
#
# Convention : Reuss Voigt Hill
#
# Bulk Modulus (GPa) = 38.01532 48.22506 43.12019
# Shear Modulus (GPa) = 24.13320 31.44930 27.79125
#
# Velocity S-wave (km/s) = 3.53065 4.03044 3.78879
# Velocity P-wave (km/s) = 6.02134 6.82413 6.43527
#
# Compressibility (1/GPa) = 0.02630519
#
# Stress axis : x y z
#
# Youngs Moduli (GPa) = 30.17717 107.13538 80.98163
#
# Poissons Ratio (x) = 0.20570 0.94282
# Poissons Ratio (y) = 0.05794 0.05628
# Poissons Ratio (z) = 0.35134 0.07446
#
# Static dielectric constant tensor:
#      x y z
#    x 1.711360 0.000000 0.000000 
#    y 0.000000 1.715530 0.000000 
#    z 0.000000 0.000000 1.940440 
# 
# From -- ./inp_files/25187.got.cif
#   From: 2010.05.17/outbox.cif.g08.bks.cpg/sg20_13_cif.got.tgz:25187.got - 2010.06.03 22:52:26.
