data_PCOD9318545
_publ_section_title
;
Structure prediction by ZEFSAII (Michael W. Deem and Ramdas Pophale) SiO2 
 PCOD9318545
Probable space group: C 2 2 21
;
_chemical_formula_sum "Si O2"
_cell_formula_units_Z 48
_cell_length_a 15.466598
_cell_length_b 10.253641
_cell_length_c 13.969383
_cell_angle_alpha 90.000000
_cell_angle_beta 90.000000
_cell_angle_gamma 90.000000
_cell_volume 2215.389690
_symmetry_space_group_name_H-M "C 2 2 21"
_symmetry_group_IT_number 20
_symmetry_cell_setting 'orthorhombic'
loop_
_space_group_symop_operation_xyz
x,y,z
-x,-y,1/2+z
x,-y,-z
-x,y,1/2-z
1/2+x,1/2+y,z
1/2-x,1/2-y,1/2+z
1/2+x,1/2-y,-z
1/2-x,1/2+y,1/2-z
loop_
_atom_site_type_symbol
_atom_site_label
_atom_site_fract_x
_atom_site_fract_y
_atom_site_fract_z
Si Si1 0.336525 0.265569 0.654732
Si Si2 0.820762 0.629823 0.254658
Si Si3 0.584163 0.456837 0.101056
Si Si4 0.000000 0.628481 0.750000
Si Si5 0.134832 0.574051 0.601352
Si Si6 0.277469 0.769064 0.557326
Si Si7 0.000000 0.218397 0.750000
O O1 0.251083 0.269677 0.718554
O O2 0.373791 0.412619 0.643184
O O3 0.414332 0.196120 0.708901
O O4 0.305197 0.209396 0.552378
O O5 0.813980 0.508652 0.182542
O O6 0.800821 0.616698 0.367569
O O7 0.915761 0.691237 0.243077
O O8 0.660998 0.353631 0.084486
O O9 0.514272 0.379645 0.162214
O O10 0.545938 0.500000 0.000000
O O11 0.040372 0.573233 0.650593
O O12 0.135244 0.500000 0.500000
O O13 0.181059 0.711980 0.576151
#
# Coordination Sequence:
#
# PCOD9318545 Si02
#       7
#     8   8   8   4   8   8   4
#     4  11  21  41  65  93 126 175 216 268 322 386
#     4  11  22  40  66  91 127 171 222 264 324 388
#     4   9  18  36  62  83 116 162 211 253 313 374
#     4  12  28  38  64 104 138 160 222 282 322 390
#     4  12  23  42  67  93 128 178 218 263 337 400
#     4  10  20  41  68  88 122 174 219 262 317 396
#     4  10  22  36  58  94 122 156 210 276 308 374
#
# _framework density 21.666616000000001
#
# number of rings (size 3 to 8) (size 9 to 14) (size 15 to 20)
#    0.000    1.333    5.000    1.500    0.000    5.333 
#    0.000    0.000    0.000    0.000    0.000    0.000 
#    0.000    0.000    0.000    0.000    0.000    0.000 
#
# Total GULP energy -133761.014197 kJ/mol
# GULP energy per Si atom -5573.375592 kJ/mol
# Density = 2.161730 g / cm^3
# Si number density = 21.666616 Si / 1000 Ang^3
#
#
#
# Elastic Constant Matrix: (Units=GPa)
#
#
# Indices 1 2 3 4 5 6 
#
# 1 111.2783 13.4022 24.8974 0.0000 0.0000 0.0000
# 2 13.4022 35.8010 29.9524 0.0000 0.0000 0.0000
# 3 24.8974 29.9524 96.0289 0.0000 0.0000 0.0000
# 4 0.0000 0.0000 0.0000 24.1759 0.0000 0.0000
# 5 0.0000 0.0000 0.0000 0.0000 34.6600 0.0000
# 6 0.0000 0.0000 0.0000 0.0000 0.0000 19.1547
#
#
#
# Elastic Compliance Matrix: (Units=1/GPa)
#
#
# Indices 1 2 3 4 5 6 
#
# 1 0.009650 -0.002056 -0.001861 0.000000 0.000000 0.000000
# 2 -0.002056 0.038233 -0.011392 0.000000 0.000000 0.000000
# 3 -0.001861 -0.011392 0.014449 0.000000 0.000000 0.000000
# 4 0.000000 0.000000 0.000000 0.041364 0.000000 0.000000
# 5 0.000000 0.000000 0.000000 0.000000 0.028852 0.000000
# 6 0.000000 0.000000 0.000000 0.000000 0.000000 0.052207
#
#
# Mechanical properties :
#
#
# Convention : Reuss Voigt Hill
#
# Bulk Modulus (GPa) = 31.53091 42.17913 36.85502
# Shear Modulus (GPa) = 22.12939 27.25518 24.69228
#
# Velocity S-wave (km/s) = 3.19934 3.55058 3.37953
# Velocity P-wave (km/s) = 5.31338 6.02648 5.68113
#
# Compressibility (1/GPa) = 0.03171491
#
# Stress axis : x y z
#
# Youngs Moduli (GPa) = 103.62240 26.15550 69.20729
#
# Poissons Ratio (x) = 0.05377 0.12878
# Poissons Ratio (y) = 0.21303 0.78842
# Poissons Ratio (z) = 0.19282 0.29797
#
# Static dielectric constant tensor:
#      x y z
#    x 1.804420 0.000000 0.000000 
#    y 0.000000 1.837570 0.000000 
#    z 0.000000 0.000000 2.033700 
# 
# From -- ./inp_files/19973.got.cif
#   From: 2010.05.17/outbox.cif.g08.bks.cpg/sg20_10_cif.got.tgz:19973.got - 2010.06.03 22:52:26.
