data_PCOD9318150
_publ_section_title
;
Structure prediction by ZEFSAII (Michael W. Deem and Ramdas Pophale) SiO2 
 PCOD9318150
Probable space group: C 2 2 21
;
_chemical_formula_sum "Si O2"
_cell_formula_units_Z 60
_cell_length_a 20.019898
_cell_length_b 8.766412
_cell_length_c 13.573371
_cell_angle_alpha 90.000000
_cell_angle_beta 90.000000
_cell_angle_gamma 90.000000
_cell_volume 2382.162907
_symmetry_space_group_name_H-M "C 2 2 21"
_symmetry_group_IT_number 20
_symmetry_cell_setting 'orthorhombic'
loop_
_space_group_symop_operation_xyz
x,y,z
-x,-y,1/2+z
x,-y,-z
-x,y,1/2-z
1/2+x,1/2+y,z
1/2-x,1/2-y,1/2+z
1/2+x,1/2-y,-z
1/2-x,1/2+y,1/2-z
loop_
_atom_site_type_symbol
_atom_site_label
_atom_site_fract_x
_atom_site_fract_y
_atom_site_fract_z
Si Si1 0.652893 0.211158 0.432177
Si Si2 0.283833 0.933212 0.740182
Si Si3 0.529846 0.949909 0.653701
Si Si4 0.636101 0.322366 0.128289
Si Si5 0.745035 0.500000 0.000000
Si Si6 0.375167 0.200776 0.753570
Si Si7 0.416168 0.854136 0.456178
Si Si8 0.135429 0.000913 0.678827
O O1 0.698889 0.138091 0.515485
O O2 0.644331 0.389474 0.413552
O O3 0.699767 0.147433 0.343211
O O4 0.579040 0.143476 0.417460
O O5 0.305331 0.109714 0.750279
O O6 0.207841 0.937393 0.709829
O O7 0.326430 0.830958 0.665111
O O8 0.500000 0.862333 0.750000
O O9 0.577947 0.064705 0.710872
O O10 0.477730 0.052055 0.592596
O O11 0.609849 0.400720 0.228215
O O12 0.690144 0.437154 0.079590
O O13 0.582307 0.264651 0.047014
O O14 0.386686 0.234429 0.637772
O O15 0.399738 0.338706 0.823119
O O16 0.375196 0.000000 0.500000
#
# Coordination Sequence:
#
# PCOD9318150 Si02
#       8
#     8   8   8   8   4   8   8   8
#     4  10  23  40  63  95 133 180 221 272 352 413
#     4  10  20  38  61  96 130 179 216 261 339 438
#     4   9  22  43  67  87 124 182 237 274 327 411
#     4  11  23  37  64 100 135 175 226 284 348 406
#     4  12  24  40  62 106 152 170 216 298 362 414
#     4  10  20  40  65  89 135 174 224 276 341 403
#     4  11  22  39  67  96 124 170 230 290 330 396
#     4  11  22  38  66  97 135 176 222 272 345 431
#
# _framework density 25.187196
#
# number of rings (size 3 to 8) (size 9 to 14) (size 15 to 20)
#    0.000    1.600    2.667    2.400    6.533    0.000 
#    0.000    2.000    5.867    0.000    0.000    0.000 
#    0.000    0.000    0.000    0.000    0.000    0.000 
#
# Total GULP energy -167155.208560 kJ/mol
# GULP energy per Si atom -5571.840285 kJ/mol
# Density = 2.512987 g / cm^3
# Si number density = 25.187196 Si / 1000 Ang^3
#
#
#
# Elastic Constant Matrix: (Units=GPa)
#
#
# Indices 1 2 3 4 5 6 
#
# 1 39.9744 -2.6195 -2.1874 0.0000 0.0000 0.0000
# 2 -2.6195 122.8523 4.9899 0.0000 0.0000 0.0000
# 3 -2.1874 4.9899 38.6170 0.0000 0.0000 0.0000
# 4 0.0000 0.0000 0.0000 44.7792 0.0000 0.0000
# 5 0.0000 0.0000 0.0000 0.0000 26.3707 0.0000
# 6 0.0000 0.0000 0.0000 0.0000 0.0000 7.4669
#
#
#
# Elastic Compliance Matrix: (Units=1/GPa)
#
#
# Indices 1 2 3 4 5 6 
#
# 1 0.025122 0.000480 0.001361 0.000000 0.000000 0.000000
# 2 0.000480 0.008192 -0.001031 0.000000 0.000000 0.000000
# 3 0.001361 -0.001031 0.026106 0.000000 0.000000 0.000000
# 4 0.000000 0.000000 0.000000 0.022332 0.000000 0.000000
# 5 0.000000 0.000000 0.000000 0.000000 0.037921 0.000000
# 6 0.000000 0.000000 0.000000 0.000000 0.000000 0.133924
#
#
# Mechanical properties :
#
#
# Convention : Reuss Voigt Hill
#
# Bulk Modulus (GPa) = 16.38282 22.42331 19.40306
# Shear Modulus (GPa) = 18.36055 29.14074 23.75065
#
# Velocity S-wave (km/s) = 2.70286 3.40511 3.07411
# Velocity P-wave (km/s) = 4.03226 4.93778 4.50782
#
# Compressibility (1/GPa) = 0.06103957
#
# Stress axis : x y z
#
# Youngs Moduli (GPa) = 39.80577 122.07045 38.30583
#
# Poissons Ratio (x) = -0.05864 -0.05213
# Poissons Ratio (y) = -0.01912 0.03951
# Poissons Ratio (z) = -0.05417 0.12589
#
# Static dielectric constant tensor:
#      x y z
#    x 2.100010 0.000000 0.000000 
#    y 0.000000 2.229260 0.000000 
#    z 0.000000 0.000000 2.409610 
# 
# From -- ./inp_files/22001.got.cif
#   From: 2010.05.17/outbox.cif.g08.bks.cpg/sg20_12_cif.got.tgz:22001.got - 2010.06.03 22:52:26.
