data_PCOD9318535
_publ_section_title
;
Structure prediction by ZEFSAII (Michael W. Deem and Ramdas Pophale) SiO2 
 PCOD9318535
Probable space group: C 2 2 21
;
_chemical_formula_sum "Si O2"
_cell_formula_units_Z 56
_cell_length_a 13.818479
_cell_length_b 15.164196
_cell_length_c 12.324879
_cell_angle_alpha 90.000000
_cell_angle_beta 90.000000
_cell_angle_gamma 90.000000
_cell_volume 2582.630623
_symmetry_space_group_name_H-M "C 2 2 21"
_symmetry_group_IT_number 20
_symmetry_cell_setting 'orthorhombic'
loop_
_space_group_symop_operation_xyz
x,y,z
-x,-y,1/2+z
x,-y,-z
-x,y,1/2-z
1/2+x,1/2+y,z
1/2-x,1/2-y,1/2+z
1/2+x,1/2-y,-z
1/2-x,1/2+y,1/2-z
loop_
_atom_site_type_symbol
_atom_site_label
_atom_site_fract_x
_atom_site_fract_y
_atom_site_fract_z
Si Si1 0.895571 0.303732 0.739918
Si Si2 0.500000 0.704112 0.250000
Si Si3 0.761358 0.465876 0.767827
Si Si4 0.700099 0.292587 0.433009
Si Si5 0.673411 0.322304 0.075896
Si Si6 0.401486 0.573784 0.091722
Si Si7 0.833919 0.354780 0.260834
Si Si8 0.834535 0.000000 0.500000
O O1 0.809090 0.372416 0.743911
O O2 0.875713 0.238045 0.841378
O O3 0.893616 0.252015 0.626197
O O4 0.000000 0.346521 0.750000
O O5 0.482933 0.633514 0.152576
O O6 0.411104 0.775037 0.253550
O O7 0.668718 0.470335 0.684941
O O8 0.845795 0.540123 0.753244
O O9 0.725801 0.473736 0.892129
O O10 0.757517 0.209791 0.480557
O O11 0.656218 0.350808 0.527197
O O12 0.784034 0.347824 0.376529
O O13 0.749872 0.338244 0.172731
O O14 0.617533 0.410124 0.041878
O O15 0.425907 0.500000 0.000000
#
# Coordination Sequence:
#
# PCOD9318535 Si02
#       8
#     8   4   8   8   8   8   8   4
#     4  11  24  40  66 104 144 176 234 305 361 416
#     4  12  26  46  72 112 146 184 240 320 362 416
#     4  11  22  44  73 104 137 193 237 285 357 456
#     4  11  20  44  70  88 133 195 234 278 362 441
#     4  10  20  41  66  94 133 188 232 288 354 439
#     4  12  25  49  73 101 144 191 248 292 363 443
#     4  10  23  40  69  99 137 180 233 291 359 420
#     4  10  22  40  74  98 128 182 258 272 336 450
#
# _framework density 21.683316999999999
#
# number of rings (size 3 to 8) (size 9 to 14) (size 15 to 20)
#    0.000    1.143    5.714    0.857    1.000    1.143 
#    2.571    0.000    1.571    0.000    0.000    0.000 
#    0.000    0.000    0.000    0.000    0.000    0.000 
#
# Total GULP energy -155941.723471 kJ/mol
# GULP energy per Si atom -5569.347267 kJ/mol
# Density = 2.163397 g / cm^3
# Si number density = 21.683317 Si / 1000 Ang^3
#
#
#
# Elastic Constant Matrix: (Units=GPa)
#
#
# Indices 1 2 3 4 5 6 
#
# 1 61.7063 24.2483 29.5582 0.0000 0.0000 0.0000
# 2 24.2483 122.9675 43.2203 0.0000 0.0000 0.0000
# 3 29.5582 43.2203 116.6274 0.0000 0.0000 0.0000
# 4 0.0000 0.0000 0.0000 29.6521 0.0000 0.0000
# 5 0.0000 0.0000 0.0000 0.0000 22.3541 0.0000
# 6 0.0000 0.0000 0.0000 0.0000 0.0000 26.4414
#
#
#
# Elastic Compliance Matrix: (Units=1/GPa)
#
#
# Indices 1 2 3 4 5 6 
#
# 1 0.019025 -0.002365 -0.003945 0.000000 0.000000 0.000000
# 2 -0.002365 0.009644 -0.002975 0.000000 0.000000 0.000000
# 3 -0.003945 -0.002975 0.010677 0.000000 0.000000 0.000000
# 4 0.000000 0.000000 0.000000 0.033724 0.000000 0.000000
# 5 0.000000 0.000000 0.000000 0.000000 0.044735 0.000000
# 6 0.000000 0.000000 0.000000 0.000000 0.000000 0.037819
#
#
# Mechanical properties :
#
#
# Convention : Reuss Voigt Hill
#
# Bulk Modulus (GPa) = 48.13244 55.03943 51.58593
# Shear Modulus (GPa) = 27.60614 29.30779 28.45697
#
# Velocity S-wave (km/s) = 3.57200 3.68044 3.62662
# Velocity P-wave (km/s) = 6.26564 6.59540 6.43263
#
# Compressibility (1/GPa) = 0.02077601
#
# Stress axis : x y z
#
# Youngs Moduli (GPa) = 52.56241 103.69065 93.66317
#
# Poissons Ratio (x) = 0.24522 0.36953
# Poissons Ratio (y) = 0.12430 0.27861
# Poissons Ratio (z) = 0.20738 0.30844
#
# Static dielectric constant tensor:
#      x y z
#    x 1.794380 0.000000 0.000000 
#    y 0.000000 1.881860 0.000000 
#    z 0.000000 0.000000 1.901560 
# 
# From -- ./inp_files/15167.got.cif
#   From: 2010.05.17/outbox.cif.g08.bks.cpg/sg20_8_cif.got.tgz:15167.got - 2010.06.03 22:52:26.
