data_PCOD9318731
_publ_section_title
;
Structure prediction by ZEFSAII (Michael W. Deem and Ramdas Pophale) SiO2 
 PCOD9318731
Probable space group: C 2 2 21
;
_chemical_formula_sum "Si O2"
_cell_formula_units_Z 36
_cell_length_a 25.201739
_cell_length_b 16.601991
_cell_length_c 5.056111
_cell_angle_alpha 90.000000
_cell_angle_beta 90.000000
_cell_angle_gamma 90.000000
_cell_volume 2115.472009
_symmetry_space_group_name_H-M "C 2 2 21"
_symmetry_group_IT_number 20
_symmetry_cell_setting 'orthorhombic'
loop_
_space_group_symop_operation_xyz
x,y,z
-x,-y,1/2+z
x,-y,-z
-x,y,1/2-z
1/2+x,1/2+y,z
1/2-x,1/2-y,1/2+z
1/2+x,1/2-y,-z
1/2-x,1/2+y,1/2-z
loop_
_atom_site_type_symbol
_atom_site_label
_atom_site_fract_x
_atom_site_fract_y
_atom_site_fract_z
Si Si1 0.126824 0.077139 0.800736
Si Si2 0.319950 0.276781 0.543842
Si Si3 0.284379 0.500000 0.000000
Si Si4 0.290000 0.000000 0.000000
Si Si5 0.196855 0.675457 0.458294
Si Si6 0.965186 0.000000 0.000000
O O1 0.136659 0.157147 0.965981
O O2 0.073677 0.066460 0.630433
O O3 0.175754 0.069700 0.594589
O O4 0.129643 0.000000 0.000000
O O5 0.261227 0.317092 0.521760
O O6 0.325458 0.238984 0.831555
O O7 0.319221 0.204450 0.331703
O O8 0.247167 0.484075 0.752821
O O9 0.319482 0.915293 0.031437
O O10 0.000000 0.029011 0.250000
#
# Coordination Sequence:
#
# PCOD9318731 Si02
#       6
#     8   8   4   4   8   4
#     4  11  22  34  57  72 100 138 176 220 259 323
#     4  10  21  32  45  73  94 132 176 226 254 282
#     4  11  20  28  50  69  90 132 188 211 248 304
#     4  12  20  33  48  67  98 146 174 225 263 292
#     4  10  21  31  46  66 104 127 180 228 248 294
#     4  11  24  39  54  80 102 132 178 222 275 326
#
# _framework density 17.017479999999999
#
# number of rings (size 3 to 8) (size 9 to 14) (size 15 to 20)
#    0.000    1.333    4.444    1.333   12.444    0.000 
#    0.000    0.000    0.000    0.000    0.000    0.000 
#    0.000    0.000    0.000    6.000    7.111    0.222 
#
# Total GULP energy -100475.869003 kJ/mol
# GULP energy per Si atom -5581.992722 kJ/mol
# Density = 1.697875 g / cm^3
# Si number density = 17.017480 Si / 1000 Ang^3
#
#
#
# Elastic Constant Matrix: (Units=GPa)
#
#
# Indices 1 2 3 4 5 6 
#
# 1 38.9134 7.2436 12.1438 0.0000 0.0000 0.0000
# 2 7.2436 85.7898 -0.4285 0.0000 0.0000 0.0000
# 3 12.1438 -0.4285 83.5666 0.0000 0.0000 0.0000
# 4 0.0000 0.0000 0.0000 22.3288 0.0000 0.0000
# 5 0.0000 0.0000 0.0000 0.0000 -7.4363 0.0000
# 6 0.0000 0.0000 0.0000 0.0000 0.0000 3.2292
#
#
#
# Elastic Compliance Matrix: (Units=1/GPa)
#
#
# Indices 1 2 3 4 5 6 
#
# 1 0.027377 -0.002332 -0.003990 0.000000 0.000000 0.000000
# 2 -0.002332 0.011855 0.000400 0.000000 0.000000 0.000000
# 3 -0.003990 0.000400 0.012548 0.000000 0.000000 0.000000
# 4 0.000000 0.000000 0.000000 0.044785 0.000000 0.000000
# 5 0.000000 0.000000 0.000000 0.000000 -0.134475 0.000000
# 6 0.000000 0.000000 0.000000 0.000000 0.000000 0.309678
#
#
# Mechanical properties :
#
#
# Convention : Reuss Voigt Hill
#
# Bulk Modulus (GPa) = 25.03980 27.35418 26.19699
# Shear Modulus (GPa) = 16.83921 16.24506 16.54214
#
# Velocity S-wave (km/s) = 3.14908 3.09303 3.12118
# Velocity P-wave (km/s) = 5.28852 5.37260 5.33072
#
# Compressibility (1/GPa) = 0.03993642
#
# Stress axis : x y z
#
# Youngs Moduli (GPa) = 36.52654 84.35081 79.69127
#
# Poissons Ratio (x) = 0.19667 0.31800
# Poissons Ratio (y) = 0.08516 -0.03185
# Poissons Ratio (z) = 0.14576 -0.03371
#
# Static dielectric constant tensor:
#      x y z
#    x 1.565810 0.000000 0.000000 
#    y 0.000000 1.626580 0.000000 
#    z 0.000000 0.000000 1.628360 
# 
# From -- ./inp_files/4166.got.cif
#   From: 2010.05.17/outbox.cif.g08.bks.cpg/sg20_3_cif.got.tgz:4166.got - 2010.06.03 22:52:26.
