data_PCOD9318372
_publ_section_title
;
Structure prediction by ZEFSAII (Michael W. Deem and Ramdas Pophale) SiO2 
 PCOD9318372
Probable space group: C 2 2 21
;
_chemical_formula_sum "Si O2"
_cell_formula_units_Z 44
_cell_length_a 13.385551
_cell_length_b 13.674179
_cell_length_c 12.460237
_cell_angle_alpha 90.000000
_cell_angle_beta 90.000000
_cell_angle_gamma 90.000000
_cell_volume 2280.677178
_symmetry_space_group_name_H-M "C 2 2 21"
_symmetry_group_IT_number 20
_symmetry_cell_setting 'orthorhombic'
loop_
_space_group_symop_operation_xyz
x,y,z
-x,-y,1/2+z
x,-y,-z
-x,y,1/2-z
1/2+x,1/2+y,z
1/2-x,1/2-y,1/2+z
1/2+x,1/2-y,-z
1/2-x,1/2+y,1/2-z
loop_
_atom_site_type_symbol
_atom_site_label
_atom_site_fract_x
_atom_site_fract_y
_atom_site_fract_z
Si Si1 0.206788 0.724934 0.299807
Si Si2 0.406146 0.380903 0.674788
Si Si3 0.415479 0.936985 0.899368
Si Si4 0.169948 0.051595 0.672816
Si Si5 0.492956 0.500000 0.000000
Si Si6 0.860920 0.442373 0.662801
O O1 0.321066 0.700709 0.327995
O O2 0.136367 0.669281 0.387475
O O3 0.184606 0.837975 0.291374
O O4 0.181132 0.665603 0.190641
O O5 0.500000 0.352643 0.750000
O O6 0.356938 0.476350 0.731812
O O7 0.443272 0.417158 0.559556
O O8 0.386402 0.982602 0.783461
O O9 0.535713 0.932449 0.899517
O O10 0.380154 0.000000 0.000000
O O11 0.079055 0.045210 0.590009
O O12 0.272376 0.010142 0.621847
#
# Coordination Sequence:
#
# PCOD9318372 Si02
#       6
#     8   8   8   8   4   8
#     4   9  19  37  60  84 110 152 194 227 284 345
#     4   9  20  39  57  82 120 150 189 240 283 343
#     4   9  18  35  59  82 114 144 186 233 285 334
#     4  10  20  40  60  81 116 151 191 235 286 345
#     4  10  22  36  58  82 116 158 184 234 296 332
#     4   8  19  36  57  82 113 147 183 239 285 334
#
# _framework density 19.292517
#
# number of rings (size 3 to 8) (size 9 to 14) (size 15 to 20)
#    1.091    1.818    0.000    0.000    2.545    4.364 
#    6.545    9.091    0.000    0.000    0.000    0.000 
#    0.000    0.000    0.000    0.000    0.000    0.000 
#
# Total GULP energy -122482.529248 kJ/mol
# GULP energy per Si atom -5567.387693 kJ/mol
# Density = 1.924861 g / cm^3
# Si number density = 19.292517 Si / 1000 Ang^3
#
#
#
# Elastic Constant Matrix: (Units=GPa)
#
#
# Indices 1 2 3 4 5 6 
#
# 1 92.9744 3.3141 1.0287 0.0000 0.0000 0.0000
# 2 3.3141 68.0541 9.4222 0.0000 0.0000 0.0000
# 3 1.0287 9.4222 27.6841 0.0000 0.0000 0.0000
# 4 0.0000 0.0000 0.0000 4.9796 0.0000 0.0000
# 5 0.0000 0.0000 0.0000 0.0000 8.1867 0.0000
# 6 0.0000 0.0000 0.0000 0.0000 0.0000 6.6966
#
#
#
# Elastic Compliance Matrix: (Units=1/GPa)
#
#
# Indices 1 2 3 4 5 6 
#
# 1 0.010776 -0.000493 -0.000233 0.000000 0.000000 0.000000
# 2 -0.000493 0.015443 -0.005238 0.000000 0.000000 0.000000
# 3 -0.000233 -0.005238 0.037913 0.000000 0.000000 0.000000
# 4 0.000000 0.000000 0.000000 0.200820 0.000000 0.000000
# 5 0.000000 0.000000 0.000000 0.000000 0.122150 0.000000
# 6 0.000000 0.000000 0.000000 0.000000 0.000000 0.149329
#
#
# Mechanical properties :
#
#
# Convention : Reuss Voigt Hill
#
# Bulk Modulus (GPa) = 19.15484 24.02695 21.59090
# Shear Modulus (GPa) = 8.83767 15.63575 12.23671
#
# Velocity S-wave (km/s) = 2.14262 2.84994 2.52121
# Velocity P-wave (km/s) = 4.00890 4.82811 4.43745
#
# Compressibility (1/GPa) = 0.05220611
#
# Stress axis : x y z
#
# Youngs Moduli (GPa) = 92.80068 64.75281 26.37605
#
# Poissons Ratio (x) = 0.03189 0.00614
# Poissons Ratio (y) = 0.04571 0.13815
# Poissons Ratio (z) = 0.02160 0.33916
#
# Static dielectric constant tensor:
#      x y z
#    x 1.715700 0.000000 0.000000 
#    y 0.000000 1.638450 0.000000 
#    z 0.000000 0.000000 1.714310 
# 
# From -- ./inp_files/20586.got.cif
#   From: 2010.05.17/outbox.cif.g08.bks.cpg/sg20_11_cif.got.tgz:20586.got - 2010.06.03 22:52:26.
