data_PCOD9318312
_publ_section_title
;
Structure prediction by ZEFSAII (Michael W. Deem and Ramdas Pophale) SiO2 
 PCOD9318312
Probable space group: C 2 2 21
;
_chemical_formula_sum "Si O2"
_cell_formula_units_Z 48
_cell_length_a 20.779885
_cell_length_b 8.543728
_cell_length_c 13.337689
_cell_angle_alpha 90.000000
_cell_angle_beta 90.000000
_cell_angle_gamma 90.000000
_cell_volume 2367.942432
_symmetry_space_group_name_H-M "C 2 2 21"
_symmetry_group_IT_number 20
_symmetry_cell_setting 'orthorhombic'
loop_
_space_group_symop_operation_xyz
x,y,z
-x,-y,1/2+z
x,-y,-z
-x,y,1/2-z
1/2+x,1/2+y,z
1/2-x,1/2-y,1/2+z
1/2+x,1/2-y,-z
1/2-x,1/2+y,1/2-z
loop_
_atom_site_type_symbol
_atom_site_label
_atom_site_fract_x
_atom_site_fract_y
_atom_site_fract_z
Si Si1 0.820574 0.179433 0.825031
Si Si2 0.370677 0.610587 0.419418
Si Si3 0.941362 0.845907 0.296661
Si Si4 0.365895 0.183508 0.973169
Si Si5 0.199938 0.815230 0.723067
Si Si6 0.985855 0.315717 0.515188
O O1 0.891820 0.215576 0.784242
O O2 0.772472 0.265701 0.748398
O O3 0.806061 0.995121 0.812666
O O4 0.823387 0.230296 0.941036
O O5 0.332251 0.500000 0.500000
O O6 0.404660 0.470002 0.362097
O O7 0.331357 0.699644 0.334103
O O8 0.427102 0.721528 0.462625
O O9 0.973939 0.718536 0.367529
O O10 0.000000 0.939414 0.250000
O O11 0.335701 0.216879 0.863704
O O12 0.441808 0.234119 0.980749
O O13 0.364623 0.000000 0.000000
O O14 0.979891 0.500000 0.500000
#
# Coordination Sequence:
#
# PCOD9318312 Si02
#       6
#     8   8   8   8   8   8
#     4  11  24  42  65  92 128 170 217 268 324 393
#     4   9  22  40  65  92 126 163 213 262 319 392
#     4  10  20  39  64  89 119 166 209 260 315 385
#     4  11  24  41  62  93 133 169 218 272 324 397
#     4  11  25  42  65  96 127 176 217 264 336 391
#     4  10  22  38  61  96 128 164 208 273 330 374
#
# _framework density 20.270762999999999
#
# number of rings (size 3 to 8) (size 9 to 14) (size 15 to 20)
#    0.000    1.667    1.667    1.500    4.667    8.667 
#    0.000    0.000    0.000    0.000    0.000    0.000 
#    0.000    0.000    0.000    0.000    0.000    0.000 
#
# Total GULP energy -133692.849921 kJ/mol
# GULP energy per Si atom -5570.535413 kJ/mol
# Density = 2.022463 g / cm^3
# Si number density = 20.270763 Si / 1000 Ang^3
#
#
#
# Elastic Constant Matrix: (Units=GPa)
#
#
# Indices 1 2 3 4 5 6 
#
# 1 82.8854 8.1038 32.2450 0.0000 0.0000 0.0000
# 2 8.1038 36.4655 17.9917 0.0000 0.0000 0.0000
# 3 32.2450 17.9917 96.8381 0.0000 0.0000 0.0000
# 4 0.0000 0.0000 0.0000 17.6681 0.0000 0.0000
# 5 0.0000 0.0000 0.0000 0.0000 28.7717 0.0000
# 6 0.0000 0.0000 0.0000 0.0000 0.0000 16.8804
#
#
#
# Elastic Compliance Matrix: (Units=1/GPa)
#
#
# Indices 1 2 3 4 5 6 
#
# 1 0.013886 -0.000886 -0.004459 0.000000 0.000000 0.000000
# 2 -0.000886 0.030247 -0.005325 0.000000 0.000000 0.000000
# 3 -0.004459 -0.005325 0.012801 0.000000 0.000000 0.000000
# 4 0.000000 0.000000 0.000000 0.056599 0.000000 0.000000
# 5 0.000000 0.000000 0.000000 0.000000 0.034756 0.000000
# 6 0.000000 0.000000 0.000000 0.000000 0.000000 0.059240
#
#
# Mechanical properties :
#
#
# Convention : Reuss Voigt Hill
#
# Bulk Modulus (GPa) = 28.09421 36.98556 32.53989
# Shear Modulus (GPa) = 20.76978 23.18726 21.97852
#
# Velocity S-wave (km/s) = 3.20444 3.38579 3.29636
# Velocity P-wave (km/s) = 5.25174 5.79398 5.52951
#
# Compressibility (1/GPa) = 0.03559452
#
# Stress axis : x y z
#
# Youngs Moduli (GPa) = 72.01368 33.06086 78.12108
#
# Poissons Ratio (x) = 0.02929 0.34836
# Poissons Ratio (y) = 0.06379 0.41597
# Poissons Ratio (z) = 0.32113 0.17604
#
# Static dielectric constant tensor:
#      x y z
#    x 1.780820 0.000000 0.000000 
#    y 0.000000 1.726430 0.000000 
#    z 0.000000 0.000000 1.832460 
# 
# From -- ./inp_files/16632.got.cif
#   From: 2010.05.17/outbox.cif.g08.bks.cpg/sg20_9_cif.got.tgz:16632.got - 2010.06.03 22:52:26.
