data_PCOD9318586
_publ_section_title
;
Structure prediction by ZEFSAII (Michael W. Deem and Ramdas Pophale) SiO2 
 PCOD9318586
Probable space group: C 2 2 21
;
_chemical_formula_sum "Si O2"
_cell_formula_units_Z 56
_cell_length_a 29.970300
_cell_length_b 5.096905
_cell_length_c 16.067590
_cell_angle_alpha 90.000000
_cell_angle_beta 90.000000
_cell_angle_gamma 90.000000
_cell_volume 2454.417113
_symmetry_space_group_name_H-M "C 2 2 21"
_symmetry_group_IT_number 20
_symmetry_cell_setting 'orthorhombic'
loop_
_space_group_symop_operation_xyz
x,y,z
-x,-y,1/2+z
x,-y,-z
-x,y,1/2-z
1/2+x,1/2+y,z
1/2-x,1/2-y,1/2+z
1/2+x,1/2-y,-z
1/2-x,1/2+y,1/2-z
loop_
_atom_site_type_symbol
_atom_site_label
_atom_site_fract_x
_atom_site_fract_y
_atom_site_fract_z
Si Si1 0.245839 0.654787 0.300200
Si Si2 0.548166 0.581373 0.754106
Si Si3 0.898858 0.959562 0.094315
Si Si4 0.428916 0.670848 0.419480
Si Si5 0.827911 0.032541 0.594299
Si Si6 0.350564 0.940187 0.156957
Si Si7 0.617654 0.970391 0.835036
O O1 0.246023 0.961447 0.278671
O O2 0.288576 0.588203 0.354304
O O3 0.199284 0.555897 0.338899
O O4 0.500000 0.715142 0.750000
O O5 0.563387 0.475778 0.664053
O O6 0.545008 0.387965 0.833902
O O7 0.588494 0.762834 0.781896
O O8 0.880864 0.666828 0.113774
O O9 0.859279 0.170084 0.108834
O O10 0.915133 0.000000 0.000000
O O11 0.441373 0.500000 0.500000
O O12 0.375911 0.613482 0.399859
O O13 0.419404 0.979275 0.409387
O O14 0.840636 0.324825 0.622668
O O15 0.814775 0.000000 0.500000
O O16 0.364192 0.874872 0.253320
#
# Coordination Sequence:
#
# PCOD9318586 Si02
#       7
#     8   8   8   8   8   8   8
#     4  12  24  40  65  95 130 175 229 273 330 393
#     4  10  23  40  65  98 129 172 218 273 341 404
#     4  11  24  44  69  97 134 179 227 278 333 400
#     4  10  21  40  68  93 129 169 221 270 340 402
#     4  10  23  38  60  93 127 167 214 273 333 388
#     4  11  22  42  71  95 130 180 230 270 330 401
#     4  10  20  42  65  91 130 175 215 272 337 413
#
# _framework density 22.816006999999999
#
# number of rings (size 3 to 8) (size 9 to 14) (size 15 to 20)
#    0.000    1.429    2.857    2.143    2.000    7.429 
#    0.000    0.000    6.286    0.000    0.000    0.000 
#    0.000    0.000    0.000    0.000    0.000    0.000 
#
# Total GULP energy -155885.667791 kJ/mol
# GULP energy per Si atom -5567.345278 kJ/mol
# Density = 2.276408 g / cm^3
# Si number density = 22.816007 Si / 1000 Ang^3
#
#
#
# Elastic Constant Matrix: (Units=GPa)
#
#
# Indices 1 2 3 4 5 6 
#
# 1 64.5803 -49.9434 11.4605 0.0000 0.0000 0.0000
# 2 -49.9434 127.6413 36.7329 0.0000 0.0000 0.0000
# 3 11.4605 36.7329 169.9292 0.0000 0.0000 0.0000
# 4 0.0000 0.0000 0.0000 28.7664 0.0000 0.0000
# 5 0.0000 0.0000 0.0000 0.0000 3.8184 0.0000
# 6 0.0000 0.0000 0.0000 0.0000 0.0000 -8.3825
#
#
#
# Elastic Compliance Matrix: (Units=1/GPa)
#
#
# Indices 1 2 3 4 5 6 
#
# 1 0.024479 0.010720 -0.003968 0.000000 0.000000 0.000000
# 2 0.010720 0.013049 -0.003544 0.000000 0.000000 0.000000
# 3 -0.003968 -0.003544 0.006918 0.000000 0.000000 0.000000
# 4 0.000000 0.000000 0.000000 0.034763 0.000000 0.000000
# 5 0.000000 0.000000 0.000000 0.000000 0.261887 0.000000
# 6 0.000000 0.000000 0.000000 0.000000 0.000000 -0.119296
#
#
# Mechanical properties :
#
#
# Convention : Reuss Voigt Hill
#
# Bulk Modulus (GPa) = 19.66055 39.85008 29.75532
# Shear Modulus (GPa) = 21.52032 29.10052 25.31042
#
# Velocity S-wave (km/s) = 3.07451 3.57521 3.33427
# Velocity P-wave (km/s) = 4.60860 5.87763 5.28137
#
# Compressibility (1/GPa) = 0.05086327
#
# Stress axis : x y z
#
# Youngs Moduli (GPa) = 40.85067 76.63474 144.54054
#
# Poissons Ratio (x) = -0.82155 0.57358
# Poissons Ratio (y) = -0.43793 0.51221
# Poissons Ratio (z) = 0.16211 0.27157
#
# Static dielectric constant tensor:
#      x y z
#    x 1.836800 0.000000 0.000000 
#    y 0.000000 1.695810 0.000000 
#    z 0.000000 0.000000 1.931220 
# 
# From -- ./inp_files/22292.got.cif
#   From: 2010.05.17/outbox.cif.g08.bks.cpg/sg20_12_cif.got.tgz:22292.got - 2010.06.03 22:52:26.
