data_PCOD9318411
_publ_section_title
;
Structure prediction by ZEFSAII (Michael W. Deem and Ramdas Pophale) SiO2 
 PCOD9318411
Probable space group: C 2 2 21
;
_chemical_formula_sum "Si O2"
_cell_formula_units_Z 56
_cell_length_a 5.398706
_cell_length_b 14.267451
_cell_length_c 29.864218
_cell_angle_alpha 90.000000
_cell_angle_beta 90.000000
_cell_angle_gamma 90.000000
_cell_volume 2300.314486
_symmetry_space_group_name_H-M "C 2 2 21"
_symmetry_group_IT_number 20
_symmetry_cell_setting 'orthorhombic'
loop_
_space_group_symop_operation_xyz
x,y,z
-x,-y,1/2+z
x,-y,-z
-x,y,1/2-z
1/2+x,1/2+y,z
1/2-x,1/2-y,1/2+z
1/2+x,1/2-y,-z
1/2-x,1/2+y,1/2-z
loop_
_atom_site_type_symbol
_atom_site_label
_atom_site_fract_x
_atom_site_fract_y
_atom_site_fract_z
Si Si1 0.971397 0.500000 0.000000
Si Si2 0.500000 0.843639 0.250000
Si Si3 0.118609 0.285721 0.798537
Si Si4 0.701705 0.006573 0.092620
Si Si5 0.853934 0.108199 0.826474
Si Si6 0.206127 0.124130 0.109842
Si Si7 0.003692 0.080485 0.196826
Si Si8 0.746527 0.203786 0.480623
O O1 0.808438 0.406370 0.991585
O O2 0.148765 0.522827 0.958101
O O3 0.643363 0.776608 0.284150
O O4 0.314989 0.898898 0.281923
O O5 0.230824 0.381744 0.816778
O O6 0.000000 0.304287 0.750000
O O7 0.972170 0.210035 0.827444
O O8 0.456321 0.066314 0.103050
O O9 0.957193 0.065568 0.096588
O O10 0.722891 0.922710 0.128238
O O11 0.053128 0.026591 0.816351
O O12 0.219462 0.206788 0.073423
O O13 0.177807 0.138634 0.163475
O O14 0.000000 0.090282 0.250000
O O15 0.498387 0.258692 0.496386
#
# Coordination Sequence:
#
# PCOD9318411 Si02
#       8
#     4   4   8   8   8   8   8   8
#     4  10  24  50  78 106 148 190 234 306 364 438
#     4  10  20  40  64  88 138 172 228 310 322 416
#     4  10  22  42  61  99 137 177 244 297 341 418
#     4  10  23  44  74 104 143 186 239 293 368 428
#     4  10  24  40  68  97 138 186 237 295 357 426
#     4  10  24  45  70 111 145 179 246 310 336 447
#     4  11  23  42  71  97 136 196 237 286 372 424
#     4  11  24  47  79 107 144 188 239 299 374 434
#
# _framework density 24.344498000000002
#
# number of rings (size 3 to 8) (size 9 to 14) (size 15 to 20)
#    0.000    1.714    0.714    3.000    7.000    6.286 
#    2.571    5.714    3.143    0.000    0.000    0.000 
#    0.000    0.000    0.000    0.000    0.000    0.000 
#
# Total GULP energy -156421.605378 kJ/mol
# GULP energy per Si atom -5586.485906 kJ/mol
# Density = 2.428909 g / cm^3
# Si number density = 24.344498 Si / 1000 Ang^3
#
#
#
# Elastic Constant Matrix: (Units=GPa)
#
#
# Indices 1 2 3 4 5 6 
#
# 1 117.8133 29.2836 16.5682 0.0000 0.0000 0.0000
# 2 29.2836 106.9813 9.7690 0.0000 0.0000 0.0000
# 3 16.5682 9.7690 151.2561 0.0000 0.0000 0.0000
# 4 0.0000 0.0000 0.0000 8.3098 0.0000 0.0000
# 5 0.0000 0.0000 0.0000 0.0000 39.3984 0.0000
# 6 0.0000 0.0000 0.0000 0.0000 0.0000 25.3294
#
#
#
# Elastic Compliance Matrix: (Units=1/GPa)
#
#
# Indices 1 2 3 4 5 6 
#
# 1 0.009215 -0.002445 -0.000852 0.000000 0.000000 0.000000
# 2 -0.002445 0.010051 -0.000381 0.000000 0.000000 0.000000
# 3 -0.000852 -0.000381 0.006729 0.000000 0.000000 0.000000
# 4 0.000000 0.000000 0.000000 0.120339 0.000000 0.000000
# 5 0.000000 0.000000 0.000000 0.000000 0.025382 0.000000
# 6 0.000000 0.000000 0.000000 0.000000 0.000000 0.039480
#
#
# Mechanical properties :
#
#
# Convention : Reuss Voigt Hill
#
# Bulk Modulus (GPa) = 53.64596 54.14359 53.89477
# Shear Modulus (GPa) = 22.24537 35.96952 29.10744
#
# Velocity S-wave (km/s) = 3.02615 3.84802 3.46157
# Velocity P-wave (km/s) = 5.85612 6.48320 6.17762
#
# Compressibility (1/GPa) = 0.01864073
#
# Stress axis : x y z
#
# Youngs Moduli (GPa) = 108.51370 99.48814 148.60583
#
# Poissons Ratio (x) = 0.24322 0.12654
# Poissons Ratio (y) = 0.26529 0.05668
# Poissons Ratio (z) = 0.09240 0.03794
#
# Static dielectric constant tensor:
#      x y z
#    x 2.144290 0.000000 0.000000 
#    y 0.000000 1.944910 0.000000 
#    z 0.000000 0.000000 1.981040 
# 
# From -- ./inp_files/30767.got.cif
#   From: 2010.05.17/outbox.cif.g08.bks.cpg/sg20_16_cif.got.tgz:30767.got - 2010.06.03 22:52:26.
