data_PCOD9318614
_publ_section_title
;
Structure prediction by ZEFSAII (Michael W. Deem and Ramdas Pophale) SiO2 
 PCOD9318614
Probable space group: C 2 2 21
;
_chemical_formula_sum "Si O2"
_cell_formula_units_Z 64
_cell_length_a 15.404419
_cell_length_b 12.328084
_cell_length_c 17.070932
_cell_angle_alpha 90.000000
_cell_angle_beta 90.000000
_cell_angle_gamma 90.000000
_cell_volume 3241.888995
_symmetry_space_group_name_H-M "C 2 2 21"
_symmetry_group_IT_number 20
_symmetry_cell_setting 'orthorhombic'
loop_
_space_group_symop_operation_xyz
x,y,z
-x,-y,1/2+z
x,-y,-z
-x,y,1/2-z
1/2+x,1/2+y,z
1/2-x,1/2-y,1/2+z
1/2+x,1/2-y,-z
1/2-x,1/2+y,1/2-z
loop_
_atom_site_type_symbol
_atom_site_label
_atom_site_fract_x
_atom_site_fract_y
_atom_site_fract_z
Si Si1 0.035318 0.246213 0.339122
Si Si2 0.736031 0.779819 0.335556
Si Si3 0.013258 0.982363 0.844031
Si Si4 0.718722 0.774190 0.655571
Si Si5 0.481765 0.723959 0.843249
Si Si6 0.203422 0.991357 0.905166
Si Si7 0.873464 0.625551 0.591780
Si Si8 0.867440 0.380018 0.593922
O O1 0.132512 0.290158 0.341011
O O2 0.000000 0.241106 0.250000
O O3 0.962346 0.315818 0.382663
O O4 0.040538 0.122365 0.370068
O O5 0.762887 0.748959 0.247153
O O6 0.775325 0.892596 0.366668
O O7 0.779405 0.683143 0.384775
O O8 0.110445 0.956753 0.870640
O O9 0.000000 0.989541 0.750000
O O10 0.995125 0.102187 0.875459
O O11 0.618034 0.750606 0.640938
O O12 0.789497 0.696504 0.614480
O O13 0.734577 0.896508 0.626221
O O14 0.500000 0.722394 0.750000
O O15 0.551369 0.808836 0.876203
O O16 0.203412 0.000000 0.000000
O O17 0.868420 0.503206 0.625817
O O18 0.874564 0.616212 0.498901
#
# Coordination Sequence:
#
# PCOD9318614 Si02
#       8
#     8   8   8   8   8   8   8   8
#     4  11  23  42  69 101 130 174 227 282 339 411
#     4  12  25  43  73 102 137 180 234 285 343 421
#     4  10  20  42  68  98 136 176 230 281 346 416
#     4  12  25  43  73 102 137 180 234 285 343 421
#     4  11  23  42  69 101 130 174 227 282 339 411
#     4  12  26  46  71 104 146 185 233 298 352 405
#     4  11  26  46  66  96 141 179 222 283 346 409
#     4  11  26  46  66  96 141 179 222 283 346 409
#
# _framework density 19.741578000000001
#
# number of rings (size 3 to 8) (size 9 to 14) (size 15 to 20)
#    0.000    0.750    5.000    2.250    5.250    2.500 
#    0.000    0.000    0.000    0.000    0.000    0.000 
#    0.000    0.000    0.000    0.000    0.000    0.000 
#
# Total GULP energy -178692.698680 kJ/mol
# GULP energy per Si atom -5584.146834 kJ/mol
# Density = 1.969665 g / cm^3
# Si number density = 19.741578 Si / 1000 Ang^3
#
#
#
# Elastic Constant Matrix: (Units=GPa)
#
#
# Indices 1 2 3 4 5 6 
#
# 1 95.5217 -0.3154 13.8792 0.0000 0.0000 0.0000
# 2 -0.3154 111.1902 26.3056 0.0000 0.0000 0.0000
# 3 13.8792 26.3056 66.7417 0.0000 0.0000 0.0000
# 4 0.0000 0.0000 0.0000 -53.5341 0.0000 0.0000
# 5 0.0000 0.0000 0.0000 0.0000 27.1868 0.0000
# 6 0.0000 0.0000 0.0000 0.0000 0.0000 29.5156
#
#
#
# Elastic Compliance Matrix: (Units=1/GPa)
#
#
# Indices 1 2 3 4 5 6 
#
# 1 0.010834 0.000622 -0.002498 0.000000 0.000000 0.000000
# 2 0.000622 0.009954 -0.004053 0.000000 0.000000 0.000000
# 3 -0.002498 -0.004053 0.017100 0.000000 0.000000 0.000000
# 4 0.000000 0.000000 0.000000 -0.018680 0.000000 0.000000
# 5 0.000000 0.000000 0.000000 0.000000 0.036783 0.000000
# 6 0.000000 0.000000 0.000000 0.000000 0.000000 0.033880
#
#
# Mechanical properties :
#
#
# Convention : Reuss Voigt Hill
#
# Bulk Modulus (GPa) = 38.41705 39.24358 38.83032
# Shear Modulus (GPa) = 45.28762 16.20596 30.74679
#
# Velocity S-wave (km/s) = 4.79479 2.86825 3.95075
# Velocity P-wave (km/s) = 7.08206 5.55796 6.36579
#
# Compressibility (1/GPa) = 0.02603011
#
# Stress axis : x y z
#
# Youngs Moduli (GPa) = 92.30341 100.46074 58.47994
#
# Poissons Ratio (x) = -0.06246 0.14608
# Poissons Ratio (y) = -0.05739 0.23700
# Poissons Ratio (z) = 0.23057 0.40713
#
# Static dielectric constant tensor:
#      x y z
#    x 1.627030 0.000000 0.000000 
#    y 0.000000 1.726480 0.000000 
#    z 0.000000 0.000000 1.681440 
# 
# From -- ./inp_files/24981.got.cif
#   From: 2010.05.17/outbox.cif.g08.bks.cpg/sg20_13_cif.got.tgz:24981.got - 2010.06.03 22:52:26.
