data_PCOD9318665
_publ_section_title
;
Structure prediction by ZEFSAII (Michael W. Deem and Ramdas Pophale) SiO2 
 PCOD9318665
Probable space group: C 2 2 21
;
_chemical_formula_sum "Si O2"
_cell_formula_units_Z 64
_cell_length_a 11.449195
_cell_length_b 24.842064
_cell_length_c 9.840281
_cell_angle_alpha 90.000000
_cell_angle_beta 90.000000
_cell_angle_gamma 90.000000
_cell_volume 2798.788810
_symmetry_space_group_name_H-M "C 2 2 21"
_symmetry_group_IT_number 20
_symmetry_cell_setting 'orthorhombic'
loop_
_space_group_symop_operation_xyz
x,y,z
-x,-y,1/2+z
x,-y,-z
-x,y,1/2-z
1/2+x,1/2+y,z
1/2-x,1/2-y,1/2+z
1/2+x,1/2-y,-z
1/2-x,1/2+y,1/2-z
loop_
_atom_site_type_symbol
_atom_site_label
_atom_site_fract_x
_atom_site_fract_y
_atom_site_fract_z
Si Si1 0.242265 0.916397 0.842523
Si Si2 0.235386 0.564789 0.021170
Si Si3 0.489404 0.885790 0.914088
Si Si4 0.585686 0.481881 0.125158
Si Si5 0.394495 0.686200 0.325364
Si Si6 0.692652 0.260847 0.249460
Si Si7 0.509527 0.234069 0.462688
Si Si8 0.140533 0.120800 0.738450
O O1 0.235150 0.917395 0.676399
O O2 0.370215 0.918814 0.906877
O O3 0.174146 0.969397 0.880375
O O4 0.183949 0.860463 0.887972
O O5 0.099139 0.583755 0.020412
O O6 0.240147 0.500000 0.000000
O O7 0.313203 0.595521 0.905234
O O8 0.500000 0.872937 0.750000
O O9 0.477101 0.828926 0.990302
O O10 0.500000 0.484193 0.250000
O O11 0.650756 0.425799 0.149320
O O12 0.505226 0.500000 0.000000
O O13 0.500000 0.656429 0.250000
O O14 0.305979 0.723997 0.241979
O O15 0.464067 0.727136 0.420871
O O16 0.630285 0.254067 0.396315
O O17 0.596010 0.239469 0.145660
O O18 0.708853 0.324402 0.231559
O O19 0.000000 0.134941 0.750000
#
# Coordination Sequence:
#
# PCOD9318665 Si02
#       8
#     8   8   8   8   8   8   8   8
#     4  11  24  44  70 105 146 185 256 312 381 450
#     4  11  23  43  73 104 141 193 250 312 376 460
#     4  10  20  43  73 102 138 192 247 312 377 454
#     4  11  27  44  69 101 144 188 244 308 382 454
#     4  12  28  40  70 108 142 186 241 306 369 451
#     4  11  23  44  68  96 138 187 230 288 368 445
#     4  11  22  44  70  98 138 186 234 294 374 437
#     4  11  24  40  70 103 140 194 243 300 383 459
#
# _framework density 22.867035000000001
#
# number of rings (size 3 to 8) (size 9 to 14) (size 15 to 20)
#    0.000    1.000    5.000    1.875    8.750    0.500 
#    0.000    0.000    2.750    0.000    0.000    0.000 
#    0.000    0.000    0.000    0.000    0.000    0.000 
#
# Total GULP energy -178659.993452 kJ/mol
# GULP energy per Si atom -5583.124795 kJ/mol
# Density = 2.281499 g / cm^3
# Si number density = 22.867035 Si / 1000 Ang^3
#
#
#
# Elastic Constant Matrix: (Units=GPa)
#
#
# Indices 1 2 3 4 5 6 
#
# 1 102.8149 37.5938 23.0292 0.0000 0.0000 0.0000
# 2 37.5938 153.0794 9.6724 0.0000 0.0000 0.0000
# 3 23.0292 9.6724 60.2954 0.0000 0.0000 0.0000
# 4 0.0000 0.0000 0.0000 26.9828 0.0000 0.0000
# 5 0.0000 0.0000 0.0000 0.0000 20.0287 0.0000
# 6 0.0000 0.0000 0.0000 0.0000 0.0000 51.2506
#
#
#
# Elastic Compliance Matrix: (Units=1/GPa)
#
#
# Indices 1 2 3 4 5 6 
#
# 1 0.011569 -0.002588 -0.004004 0.000000 0.000000 0.000000
# 2 -0.002588 0.007178 -0.000163 0.000000 0.000000 0.000000
# 3 -0.004004 -0.000163 0.018140 0.000000 0.000000 0.000000
# 4 0.000000 0.000000 0.000000 0.037061 0.000000 0.000000
# 5 0.000000 0.000000 0.000000 0.000000 0.049928 0.000000
# 6 0.000000 0.000000 0.000000 0.000000 0.000000 0.019512
#
#
# Mechanical properties :
#
#
# Convention : Reuss Voigt Hill
#
# Bulk Modulus (GPa) = 42.77449 50.75339 46.76394
# Shear Modulus (GPa) = 30.35976 36.04537 33.20257
#
# Velocity S-wave (km/s) = 3.64767 3.97458 3.81462
# Velocity P-wave (km/s) = 6.04045 6.58074 6.31637
#
# Compressibility (1/GPa) = 0.02337842
#
# Stress axis : x y z
#
# Youngs Moduli (GPa) = 86.43515 139.30498 55.12593
#
# Poissons Ratio (x) = 0.36056 0.22070
# Poissons Ratio (y) = 0.22372 0.00898
# Poissons Ratio (z) = 0.34605 0.02270
#
# Static dielectric constant tensor:
#      x y z
#    x 1.853990 0.000000 0.000000 
#    y 0.000000 1.872190 0.000000 
#    z 0.000000 0.000000 2.454290 
# 
# From -- ./inp_files/14530.got.cif
#   From: 2010.05.17/outbox.cif.g08.bks.cpg/sg20_8_cif.got.tgz:14530.got - 2010.06.03 22:52:26.
