data_PCOD9318687
_publ_section_title
;
Structure prediction by ZEFSAII (Michael W. Deem and Ramdas Pophale) SiO2 
 PCOD9318687
Probable space group: C 2 2 21
;
_chemical_formula_sum "Si O2"
_cell_formula_units_Z 60
_cell_length_a 10.213187
_cell_length_b 13.615425
_cell_length_c 20.321872
_cell_angle_alpha 90.000000
_cell_angle_beta 90.000000
_cell_angle_gamma 90.000000
_cell_volume 2825.896149
_symmetry_space_group_name_H-M "C 2 2 21"
_symmetry_group_IT_number 20
_symmetry_cell_setting 'orthorhombic'
loop_
_space_group_symop_operation_xyz
x,y,z
-x,-y,1/2+z
x,-y,-z
-x,y,1/2-z
1/2+x,1/2+y,z
1/2-x,1/2-y,1/2+z
1/2+x,1/2-y,-z
1/2-x,1/2+y,1/2-z
loop_
_atom_site_type_symbol
_atom_site_label
_atom_site_fract_x
_atom_site_fract_y
_atom_site_fract_z
Si Si1 0.274708 0.075406 0.844166
Si Si2 0.276734 0.576352 0.456443
Si Si3 0.341766 0.084540 0.253785
Si Si4 0.625838 0.568782 0.360844
Si Si5 0.500604 0.779324 0.329818
Si Si6 0.495804 0.630220 0.676295
Si Si7 0.281808 0.238249 0.136502
Si Si8 0.465429 0.500000 0.000000
O O1 0.220990 0.988934 0.890610
O O2 0.299183 0.021049 0.775479
O O3 0.403828 0.137110 0.858025
O O4 0.152373 0.147120 0.844129
O O5 0.193519 0.500000 0.500000
O O6 0.222972 0.677272 0.430962
O O7 0.418043 0.584146 0.492991
O O8 0.500000 0.087819 0.250000
O O9 0.264283 0.088129 0.323295
O O10 0.294412 0.167485 0.201286
O O11 0.548533 0.671679 0.353622
O O12 0.543362 0.482893 0.324109
O O13 0.620387 0.525964 0.435839
O O14 0.500000 0.780932 0.250000
O O15 0.353684 0.794251 0.354052
O O16 0.500000 0.667737 0.750000
O O17 0.597190 0.689964 0.634032
#
# Coordination Sequence:
#
# PCOD9318687 Si02
#       8
#     8   8   8   8   8   8   8   4
#     4  11  23  38  65  98 131 166 220 271 342 389
#     4   9  19  44  66  86 126 179 219 268 330 406
#     4  11  24  41  64  97 135 176 214 283 343 400
#     4  12  23  41  70  89 134 178 230 268 341 398
#     4  12  22  38  62 101 131 172 214 277 328 405
#     4  12  22  38  62 101 131 172 214 277 328 405
#     4  11  23  38  65  98 131 166 220 271 342 389
#     4  10  20  44  70  86 122 178 240 262 322 416
#
# _framework density 21.232203999999999
#
# number of rings (size 3 to 8) (size 9 to 14) (size 15 to 20)
#    0.400    0.533    5.333    2.800    3.733    0.000 
#    2.400    0.000    5.867    0.000    0.000    0.000 
#    0.000    0.000    0.000    0.000    0.000    0.000 
#
# Total GULP energy -167035.778873 kJ/mol
# GULP energy per Si atom -5567.859296 kJ/mol
# Density = 2.118388 g / cm^3
# Si number density = 21.232204 Si / 1000 Ang^3
#
#
#
# Elastic Constant Matrix: (Units=GPa)
#
#
# Indices 1 2 3 4 5 6 
#
# 1 144.8517 19.4413 7.5205 0.0000 0.0000 0.0000
# 2 19.4413 46.3792 -13.1277 0.0000 0.0000 0.0000
# 3 7.5205 -13.1277 46.4114 0.0000 0.0000 0.0000
# 4 0.0000 0.0000 0.0000 5.8522 0.0000 0.0000
# 5 0.0000 0.0000 0.0000 0.0000 23.0891 0.0000
# 6 0.0000 0.0000 0.0000 0.0000 0.0000 17.7694
#
#
#
# Elastic Compliance Matrix: (Units=1/GPa)
#
#
# Indices 1 2 3 4 5 6 
#
# 1 0.007534 -0.003809 -0.002298 0.000000 0.000000 0.000000
# 2 -0.003809 0.025363 0.007791 0.000000 0.000000 0.000000
# 3 -0.002298 0.007791 0.024123 0.000000 0.000000 0.000000
# 4 0.000000 0.000000 0.000000 0.170875 0.000000 0.000000
# 5 0.000000 0.000000 0.000000 0.000000 0.043310 0.000000
# 6 0.000000 0.000000 0.000000 0.000000 0.000000 0.056277
#
#
# Mechanical properties :
#
#
# Convention : Reuss Voigt Hill
#
# Bulk Modulus (GPa) = 16.55931 29.47895 23.01913
# Shear Modulus (GPa) = 14.52462 24.26269 19.39366
#
# Velocity S-wave (km/s) = 2.61834 3.38410 3.02554
# Velocity P-wave (km/s) = 4.11789 5.40219 4.80316
#
# Compressibility (1/GPa) = 0.06038900
#
# Stress axis : x y z
#
# Youngs Moduli (GPa) = 132.72977 39.42716 41.45484
#
# Poissons Ratio (x) = 0.15016 0.09527
# Poissons Ratio (y) = 0.50552 -0.32299
# Poissons Ratio (z) = 0.30503 -0.30719
#
# Static dielectric constant tensor:
#      x y z
#    x 1.792500 0.000000 0.000000 
#    y 0.000000 1.823760 0.000000 
#    z 0.000000 0.000000 1.948950 
# 
# From -- ./inp_files/28859.got.cif
#   From: 2010.05.17/outbox.cif.g08.bks.cpg/sg20_15_cif.got.tgz:28859.got - 2010.06.03 22:52:26.
