data_PCOD9318020
_publ_section_title
;
Structure prediction by ZEFSAII (Michael W. Deem and Ramdas Pophale) SiO2 
 PCOD9318020
Probable space group: C 2 2 21
;
_chemical_formula_sum "Si O2"
_cell_formula_units_Z 48
_cell_length_a 31.473049
_cell_length_b 7.988918
_cell_length_c 8.652980
_cell_angle_alpha 90.000000
_cell_angle_beta 90.000000
_cell_angle_gamma 90.000000
_cell_volume 2175.667284
_symmetry_space_group_name_H-M "C 2 2 21"
_symmetry_group_IT_number 20
_symmetry_cell_setting 'orthorhombic'
loop_
_space_group_symop_operation_xyz
x,y,z
-x,-y,1/2+z
x,-y,-z
-x,y,1/2-z
1/2+x,1/2+y,z
1/2-x,1/2-y,1/2+z
1/2+x,1/2-y,-z
1/2-x,1/2+y,1/2-z
loop_
_atom_site_type_symbol
_atom_site_label
_atom_site_fract_x
_atom_site_fract_y
_atom_site_fract_z
Si Si1 0.591726 0.892600 0.281129
Si Si2 0.030770 0.000000 0.500000
Si Si3 0.669601 0.825016 0.091364
Si Si4 0.270936 0.005415 0.184299
Si Si5 0.686012 0.649177 0.784179
Si Si6 0.000000 0.754949 0.750000
Si Si7 0.102409 0.233497 0.618103
O O1 0.622247 0.812119 0.155163
O O2 0.542661 0.853203 0.252401
O O3 0.605564 0.806954 0.443567
O O4 0.598008 0.093323 0.286200
O O5 0.003291 0.126025 0.398838
O O6 0.062014 0.110293 0.609568
O O7 0.701519 0.859120 0.233754
O O8 0.678554 0.682715 0.966313
O O9 0.672638 0.000000 0.000000
O O10 0.222497 0.986834 0.240360
O O11 0.292393 0.178580 0.228843
O O12 0.272223 0.000000 0.000000
O O13 0.642724 0.635112 0.687267
#
# Coordination Sequence:
#
# PCOD9318020 Si02
#       7
#     8   4   8   8   8   4   8
#     4  10  20  42  70  92 124 175 223 264 321 412
#     4  10  24  46  64 106 138 168 208 280 346 392
#     4  10  20  37  61  91 127 160 222 271 316 383
#     4  11  22  41  60  90 129 169 220 271 325 385
#     4  11  23  41  62  96 125 174 222 272 324 387
#     4  10  24  44  68 102 130 170 220 270 338 398
#     4  10  21  43  67  92 130 174 218 261 338 398
#
# _framework density 22.062197000000001
#
# number of rings (size 3 to 8) (size 9 to 14) (size 15 to 20)
#    0.000    1.667    3.333    2.000    0.000    2.000 
#   25.500    0.000    0.000    0.000    0.000    0.000 
#    0.000    0.000    0.000    0.000    0.000    0.000 
#
# Total GULP energy -134152.470870 kJ/mol
# GULP energy per Si atom -5589.686286 kJ/mol
# Density = 2.201198 g / cm^3
# Si number density = 22.062197 Si / 1000 Ang^3
#
#
#
# Elastic Constant Matrix: (Units=GPa)
#
#
# Indices 1 2 3 4 5 6 
#
# 1 120.7607 8.5769 57.7936 0.0000 0.0000 0.0000
# 2 8.5769 61.5187 12.4816 0.0000 0.0000 0.0000
# 3 57.7936 12.4816 73.7591 0.0000 0.0000 0.0000
# 4 0.0000 0.0000 0.0000 3.1589 0.0000 0.0000
# 5 0.0000 0.0000 0.0000 0.0000 -244.9851 0.0000
# 6 0.0000 0.0000 0.0000 0.0000 0.0000 8.7606
#
#
#
# Elastic Compliance Matrix: (Units=1/GPa)
#
#
# Indices 1 2 3 4 5 6 
#
# 1 0.013253 0.000268 -0.010430 0.000000 0.000000 0.000000
# 2 0.000268 0.016839 -0.003060 0.000000 0.000000 0.000000
# 3 -0.010430 -0.003060 0.022248 0.000000 0.000000 0.000000
# 4 0.000000 0.000000 0.000000 0.316563 0.000000 0.000000
# 5 0.000000 0.000000 0.000000 0.000000 -0.004082 0.000000
# 6 0.000000 0.000000 0.000000 0.000000 0.000000 0.114147
#
#
# Mechanical properties :
#
#
# Convention : Reuss Voigt Hill
#
# Bulk Modulus (GPa) = 38.61446 45.97140 42.29293
# Shear Modulus (GPa) = 9.72680 -34.80069 -12.53695
#
# Velocity S-wave (km/s) = 2.10199 -3.97595 -2.38640
# Velocity P-wave (km/s) = 4.84063 0.44171 3.40856
#
# Compressibility (1/GPa) = 0.02589703
#
# Stress axis : x y z
#
# Youngs Moduli (GPa) = 75.45239 59.38734 44.94821
#
# Poissons Ratio (x) = -0.01594 0.46881
# Poissons Ratio (y) = -0.02025 0.13753
# Poissons Ratio (z) = 0.78697 0.18171
#
# Static dielectric constant tensor:
#      x y z
#    x 1.779510 0.000000 0.000000 
#    y 0.000000 2.086240 0.000000 
#    z 0.000000 0.000000 1.935540 
# 
# From -- ./inp_files/11504.got.cif
#   From: 2010.05.17/outbox.cif.g08.bks.cpg/sg20_6_cif.got.tgz:11504.got - 2010.06.03 22:52:26.
