data_PCOD9318509
_publ_section_title
;
Structure prediction by ZEFSAII (Michael W. Deem and Ramdas Pophale) SiO2 
 PCOD9318509
Probable space group: C 2 2 21
;
_chemical_formula_sum "Si O2"
_cell_formula_units_Z 60
_cell_length_a 21.011536
_cell_length_b 22.002077
_cell_length_c 5.262488
_cell_angle_alpha 90.000000
_cell_angle_beta 90.000000
_cell_angle_gamma 90.000000
_cell_volume 2432.834693
_symmetry_space_group_name_H-M "C 2 2 21"
_symmetry_group_IT_number 20
_symmetry_cell_setting 'orthorhombic'
loop_
_space_group_symop_operation_xyz
x,y,z
-x,-y,1/2+z
x,-y,-z
-x,y,1/2-z
1/2+x,1/2+y,z
1/2-x,1/2-y,1/2+z
1/2+x,1/2-y,-z
1/2-x,1/2+y,1/2-z
loop_
_atom_site_type_symbol
_atom_site_label
_atom_site_fract_x
_atom_site_fract_y
_atom_site_fract_z
Si Si1 0.062533 0.767309 0.669104
Si Si2 0.331688 0.759528 0.830577
Si Si3 0.567353 0.067167 0.695562
Si Si4 0.625160 0.356545 0.062137
Si Si5 0.500000 0.357246 0.250000
Si Si6 0.700445 0.940440 0.112343
Si Si7 0.254467 0.871576 0.879311
Si Si8 0.932106 0.649291 0.313017
O O1 0.125063 0.733081 0.581143
O O2 0.035630 0.812422 0.450479
O O3 0.000000 0.731175 0.750000
O O4 0.086776 0.810130 0.889036
O O5 0.335129 0.688515 0.755671
O O6 0.267817 0.798402 0.863727
O O7 0.378284 0.800087 0.657567
O O8 0.500000 0.033078 0.750000
O O9 0.632937 0.034677 0.774018
O O10 0.574487 0.100208 0.421146
O O11 0.564617 0.115856 0.921256
O O12 0.564102 0.393807 0.165839
O O13 0.679320 0.385359 0.885899
O O14 0.723469 0.901917 0.355680
O O15 0.707528 0.898275 0.862174
O O16 0.735424 0.000000 0.000000
O O17 0.000000 0.679059 0.250000
#
# Coordination Sequence:
#
# PCOD9318509 Si02
#       8
#     8   8   8   8   4   8   8   8
#     4   9  20  35  56  87 134 185 219 264 312 388
#     4  11  23  35  58  91 137 181 222 266 319 393
#     4  10  20  41  61  91 121 166 220 281 334 372
#     4  10  24  38  63  95 142 181 225 262 331 411
#     4   8  18  42  58  94 134 178 224 270 322 392
#     4  12  26  50  71  93 128 174 231 297 349 407
#     4  12  28  44  68  98 135 179 228 279 343 408
#     4  10  21  33  56  87 127 171 219 261 315 380
#
# _framework density 24.662590000000002
#
# number of rings (size 3 to 8) (size 9 to 14) (size 15 to 20)
#    0.000    1.600    2.667    0.400   14.933    0.533 
#    0.000    3.333    0.000    0.000    0.000    1.867 
#    0.000    0.000    0.000    0.000    0.000    0.000 
#
# Total GULP energy -167041.767854 kJ/mol
# GULP energy per Si atom -5568.058928 kJ/mol
# Density = 2.460646 g / cm^3
# Si number density = 24.662590 Si / 1000 Ang^3
#
#
#
# Elastic Constant Matrix: (Units=GPa)
#
#
# Indices 1 2 3 4 5 6 
#
# 1 129.1109 -6.5871 4.3826 0.0000 0.0000 0.0000
# 2 -6.5871 26.0306 15.5589 0.0000 0.0000 0.0000
# 3 4.3826 15.5589 137.0507 0.0000 0.0000 0.0000
# 4 0.0000 0.0000 0.0000 24.1537 0.0000 0.0000
# 5 0.0000 0.0000 0.0000 0.0000 31.9470 0.0000
# 6 0.0000 0.0000 0.0000 0.0000 0.0000 13.9594
#
#
#
# Elastic Compliance Matrix: (Units=1/GPa)
#
#
# Indices 1 2 3 4 5 6 
#
# 1 0.007880 0.002301 -0.000513 0.000000 0.000000 0.000000
# 2 0.002301 0.041885 -0.004829 0.000000 0.000000 0.000000
# 3 -0.000513 -0.004829 0.007861 0.000000 0.000000 0.000000
# 4 0.000000 0.000000 0.000000 0.041401 0.000000 0.000000
# 5 0.000000 0.000000 0.000000 0.000000 0.031302 0.000000
# 6 0.000000 0.000000 0.000000 0.000000 0.000000 0.071636
#
#
# Mechanical properties :
#
#
# Convention : Reuss Voigt Hill
#
# Bulk Modulus (GPa) = 19.40092 35.43344 27.41718
# Shear Modulus (GPa) = 22.19967 32.60123 27.40045
#
# Velocity S-wave (km/s) = 3.00348 3.63973 3.33680
# Velocity P-wave (km/s) = 4.46223 5.66233 5.09772
#
# Compressibility (1/GPa) = 0.05154395
#
# Stress axis : x y z
#
# Youngs Moduli (GPa) = 126.90225 23.87509 127.20787
#
# Poissons Ratio (x) = -0.05493 0.06528
# Poissons Ratio (y) = -0.29198 0.61423
# Poissons Ratio (z) = 0.06512 0.11528
#
# Static dielectric constant tensor:
#      x y z
#    x 2.095550 0.000000 0.000000 
#    y 0.000000 2.048920 0.000000 
#    z 0.000000 0.000000 1.921330 
# 
# From -- ./inp_files/3331.got.cif
#   From: 2010.05.17/outbox.cif.g08.bks.cpg/sg20_2_cif.got.tgz:3331.got - 2010.06.03 22:52:26.
