data_PCOD9318026
_publ_section_title
;
Structure prediction by ZEFSAII (Michael W. Deem and Ramdas Pophale) SiO2 
 PCOD9318026
Probable space group: C 2 2 21
;
_chemical_formula_sum "Si O2"
_cell_formula_units_Z 64
_cell_length_a 19.552033
_cell_length_b 9.223472
_cell_length_c 16.416489
_cell_angle_alpha 90.000000
_cell_angle_beta 90.000000
_cell_angle_gamma 90.000000
_cell_volume 2960.510701
_symmetry_space_group_name_H-M "C 2 2 21"
_symmetry_group_IT_number 20
_symmetry_cell_setting 'orthorhombic'
loop_
_space_group_symop_operation_xyz
x,y,z
-x,-y,1/2+z
x,-y,-z
-x,y,1/2-z
1/2+x,1/2+y,z
1/2-x,1/2-y,1/2+z
1/2+x,1/2-y,-z
1/2-x,1/2+y,1/2-z
loop_
_atom_site_type_symbol
_atom_site_label
_atom_site_fract_x
_atom_site_fract_y
_atom_site_fract_z
Si Si1 0.966780 0.746009 0.047601
Si Si2 0.411185 0.256312 0.215674
Si Si3 0.347175 0.967445 0.665309
Si Si4 0.702499 0.449685 0.369734
Si Si5 0.319975 0.278101 0.968713
Si Si6 0.922058 0.724430 0.586880
Si Si7 0.820830 0.802639 0.453419
Si Si8 0.058175 0.037739 0.867187
O O1 0.954501 0.689026 0.139817
O O2 0.996968 0.903901 0.074666
O O3 0.895205 0.737262 0.999650
O O4 0.024544 0.689264 0.986048
O O5 0.375445 0.123585 0.260296
O O6 0.354529 0.358665 0.175355
O O7 0.440642 0.363604 0.286116
O O8 0.332550 0.849362 0.594329
O O9 0.273300 0.039929 0.678404
O O10 0.402329 0.084981 0.637973
O O11 0.675731 0.609562 0.393856
O O12 0.712186 0.366914 0.455260
O O13 0.259815 0.163854 0.950025
O O14 0.852819 0.775390 0.541573
O O15 0.947088 0.864823 0.637643
O O16 0.870518 0.917402 0.410272
#
# Coordination Sequence:
#
# PCOD9318026 Si02
#       8
#     8   8   8   8   8   8   8   8
#     4  10  21  37  62  99 125 170 219 269 322 374
#     4  10  22  38  61  93 136 173 209 266 336 398
#     4  10  20  37  61  97 127 171 215 265 333 394
#     4   9  18  32  59  95 123 164 213 262 324 379
#     4   9  17  32  62  95 123 158 220 276 311 370
#     4  11  21  35  64  96 125 166 226 269 306 389
#     4   9  17  36  61  91 116 165 219 271 315 378
#     4  10  22  36  60  95 129 171 213 269 321 385
#
# _framework density 21.617891
#
# number of rings (size 3 to 8) (size 9 to 14) (size 15 to 20)
#    0.000    2.250    1.250    2.250    7.000    1.000 
#    0.000    0.000    0.000   24.000   68.250    0.000 
#    0.000    0.000    0.000    0.000    0.000    0.000 
#
# Total GULP energy -178373.191904 kJ/mol
# GULP energy per Si atom -5574.162247 kJ/mol
# Density = 2.156869 g / cm^3
# Si number density = 21.617891 Si / 1000 Ang^3
#
#
#
# Elastic Constant Matrix: (Units=GPa)
#
#
# Indices 1 2 3 4 5 6 
#
# 1 122.7310 16.9929 35.9246 0.0000 0.0000 0.0000
# 2 16.9929 20.9181 9.6034 0.0000 0.0000 0.0000
# 3 35.9246 9.6034 74.6966 0.0000 0.0000 0.0000
# 4 0.0000 0.0000 0.0000 19.6832 0.0000 0.0000
# 5 0.0000 0.0000 0.0000 0.0000 26.8216 0.0000
# 6 0.0000 0.0000 0.0000 0.0000 0.0000 1.3634
#
#
#
# Elastic Compliance Matrix: (Units=1/GPa)
#
#
# Indices 1 2 3 4 5 6 
#
# 1 0.010238 -0.006436 -0.004096 0.000000 0.000000 0.000000
# 2 -0.006436 0.054850 -0.003956 0.000000 0.000000 0.000000
# 3 -0.004096 -0.003956 0.015866 0.000000 0.000000 0.000000
# 4 0.000000 0.000000 0.000000 0.050805 0.000000 0.000000
# 5 0.000000 0.000000 0.000000 0.000000 0.037283 0.000000
# 6 0.000000 0.000000 0.000000 0.000000 0.000000 0.733468
#
#
# Mechanical properties :
#
#
# Convention : Reuss Voigt Hill
#
# Bulk Modulus (GPa) = 19.23946 38.15417 28.69681
# Shear Modulus (GPa) = 5.26973 19.96196 12.61585
#
# Velocity S-wave (km/s) = 1.56300 3.04205 2.41837
# Velocity P-wave (km/s) = 3.48947 5.47963 4.59362
#
# Compressibility (1/GPa) = 0.05197651
#
# Stress axis : x y z
#
# Youngs Moduli (GPa) = 97.67417 18.23143 63.02676
#
# Poissons Ratio (x) = 0.11734 0.25819
# Poissons Ratio (y) = 0.62866 0.24936
# Poissons Ratio (z) = 0.40012 0.07213
#
# Static dielectric constant tensor:
#      x y z
#    x 1.863530 0.000000 0.000000 
#    y 0.000000 1.819710 0.000000 
#    z 0.000000 0.000000 1.810580 
# 
# From -- ./inp_files/25517.got.cif
#   From: 2010.05.17/outbox.cif.g08.bks.cpg/sg20_13_cif.got.tgz:25517.got - 2010.06.03 22:52:26.
