data_PCOD9318520
_publ_section_title
;
Structure prediction by ZEFSAII (Michael W. Deem and Ramdas Pophale) SiO2 
 PCOD9318520
Probable space group: C 2 2 21
;
_chemical_formula_sum "Si O2"
_cell_formula_units_Z 48
_cell_length_a 8.574428
_cell_length_b 16.827690
_cell_length_c 13.827407
_cell_angle_alpha 90.000000
_cell_angle_beta 90.000000
_cell_angle_gamma 90.000000
_cell_volume 1995.126361
_symmetry_space_group_name_H-M "C 2 2 21"
_symmetry_group_IT_number 20
_symmetry_cell_setting 'orthorhombic'
loop_
_space_group_symop_operation_xyz
x,y,z
-x,-y,1/2+z
x,-y,-z
-x,y,1/2-z
1/2+x,1/2+y,z
1/2-x,1/2-y,1/2+z
1/2+x,1/2-y,-z
1/2-x,1/2+y,1/2-z
loop_
_atom_site_type_symbol
_atom_site_label
_atom_site_fract_x
_atom_site_fract_y
_atom_site_fract_z
Si Si1 0.255247 0.912909 0.690089
Si Si2 0.476469 0.580762 0.017037
Si Si3 0.212643 0.582741 0.850782
Si Si4 0.776316 0.787300 0.477249
Si Si5 0.810970 0.243305 0.744415
Si Si6 0.958825 0.634006 0.487948
O O1 0.100876 0.908777 0.622202
O O2 0.260990 0.836254 0.760530
O O3 0.396632 0.900786 0.612491
O O4 0.271331 0.005602 0.719169
O O5 0.343161 0.570960 0.934979
O O6 0.580923 0.654677 0.993291
O O7 0.572760 0.500000 0.000000
O O8 0.243781 0.666661 0.799638
O O9 0.054394 0.581206 0.915475
O O10 0.753398 0.772977 0.364190
O O11 0.833193 0.702639 0.513171
O O12 0.622720 0.823314 0.523250
O O13 0.000000 0.240353 0.750000
#
# Coordination Sequence:
#
# PCOD9318520 Si02
#       6
#     8   8   8   8   8   8
#     4   9  21  40  66  93 123 169 213 261 322 378
#     4   9  18  37  64  89 120 161 214 267 313 371
#     4  10  20  41  64  88 130 169 205 263 325 376
#     4  11  21  37  60  96 121 166 218 261 320 381
#     4  11  22  38  66  90 130 174 207 255 331 391
#     4  10  21  36  66  89 124 163 219 270 311 369
#
# _framework density 24.058626
#
# number of rings (size 3 to 8) (size 9 to 14) (size 15 to 20)
#    0.000    2.000    1.667    4.500    2.333    2.000 
#    3.000    1.667    7.333    0.000    0.000    0.000 
#    0.000    0.000    0.000    0.000    0.000    0.000 
#
# Total GULP energy -133971.398909 kJ/mol
# GULP energy per Si atom -5582.141621 kJ/mol
# Density = 2.400387 g / cm^3
# Si number density = 24.058626 Si / 1000 Ang^3
#
#
#
# Elastic Constant Matrix: (Units=GPa)
#
#
# Indices 1 2 3 4 5 6 
#
# 1 48.0992 6.6492 -5.4713 0.0000 0.0000 0.0000
# 2 6.6492 179.4128 45.1044 0.0000 0.0000 0.0000
# 3 -5.4713 45.1044 53.1462 0.0000 0.0000 0.0000
# 4 0.0000 0.0000 0.0000 40.8456 0.0000 0.0000
# 5 0.0000 0.0000 0.0000 0.0000 10.3121 0.0000
# 6 0.0000 0.0000 0.0000 0.0000 0.0000 21.2398
#
#
#
# Elastic Compliance Matrix: (Units=1/GPa)
#
#
# Indices 1 2 3 4 5 6 
#
# 1 0.021444 -0.001716 0.003664 0.000000 0.000000 0.000000
# 2 -0.001716 0.007223 -0.006307 0.000000 0.000000 0.000000
# 3 0.003664 -0.006307 0.024545 0.000000 0.000000 0.000000
# 4 0.000000 0.000000 0.000000 0.024482 0.000000 0.000000
# 5 0.000000 0.000000 0.000000 0.000000 0.096974 0.000000
# 6 0.000000 0.000000 0.000000 0.000000 0.000000 0.047081
#
#
# Mechanical properties :
#
#
# Convention : Reuss Voigt Hill
#
# Bulk Modulus (GPa) = 22.47415 41.46922 31.97169
# Shear Modulus (GPa) = 20.38329 30.10456 25.24392
#
# Velocity S-wave (km/s) = 2.91389 3.54121 3.24275
# Velocity P-wave (km/s) = 4.54782 5.83047 5.22863
#
# Compressibility (1/GPa) = 0.04449556
#
# Stress axis : x y z
#
# Youngs Moduli (GPa) = 46.63240 138.45072 40.74072
#
# Poissons Ratio (x) = 0.23756 -0.14927
# Poissons Ratio (y) = 0.08001 0.25693
# Poissons Ratio (z) = -0.17085 0.87314
#
# Static dielectric constant tensor:
#      x y z
#    x 1.913130 0.000000 0.000000 
#    y 0.000000 2.058560 0.000000 
#    z 0.000000 0.000000 2.025100 
# 
# From -- ./inp_files/18869.got.cif
#   From: 2010.05.17/outbox.cif.g08.bks.cpg/sg20_10_cif.got.tgz:18869.got - 2010.06.03 22:52:26.
