data_PCOD9318916
_publ_section_title
;
Structure prediction by ZEFSAII (Michael W. Deem and Ramdas Pophale) SiO2 
 PCOD9318916
Probable space group: C 2 2 21
;
_chemical_formula_sum "Si O2"
_cell_formula_units_Z 40
_cell_length_a 9.296976
_cell_length_b 10.221591
_cell_length_c 15.816465
_cell_angle_alpha 90.000000
_cell_angle_beta 90.000000
_cell_angle_gamma 90.000000
_cell_volume 1503.036869
_symmetry_space_group_name_H-M "C 2 2 21"
_symmetry_group_IT_number 20
_symmetry_cell_setting 'orthorhombic'
loop_
_space_group_symop_operation_xyz
x,y,z
-x,-y,1/2+z
x,-y,-z
-x,y,1/2-z
1/2+x,1/2+y,z
1/2-x,1/2-y,1/2+z
1/2+x,1/2-y,-z
1/2-x,1/2+y,1/2-z
loop_
_atom_site_type_symbol
_atom_site_label
_atom_site_fract_x
_atom_site_fract_y
_atom_site_fract_z
Si Si1 0.108363 0.888226 0.596450
Si Si2 0.853271 0.696090 0.273010
Si Si3 0.162848 0.037445 0.838734
Si Si4 0.939338 0.611423 0.937408
Si Si5 0.725957 0.889881 0.159546
O O1 0.220935 0.825297 0.662556
O O2 0.079268 0.763800 0.535274
O O3 0.187707 0.029872 0.587649
O O4 0.956529 0.932845 0.636476
O O5 0.000000 0.621153 0.250000
O O6 0.917645 0.825062 0.323085
O O7 0.782473 0.747827 0.185989
O O8 0.286771 0.055679 0.906726
O O9 0.244687 0.029198 0.747778
O O10 0.060625 0.617659 0.865093
O O11 0.995644 0.500000 0.000000
#
# Coordination Sequence:
#
# PCOD9318916 Si02
#       5
#     8   8   8   8   8
#     4  11  22  40  69  87 133 169 207 283 345 370
#     4   9  19  35  63 101 124 151 214 277 340 382
#     4   9  20  38  66  94 123 167 223 273 319 394
#     4  11  26  43  61  94 141 181 218 266 324 404
#     4  10  21  37  67  97 122 160 231 270 328 396
#
# _framework density 26.612788999999999
#
# number of rings (size 3 to 8) (size 9 to 14) (size 15 to 20)
#    1.200    0.800    2.000    1.200    5.600    3.200 
#    0.000    1.000    0.000    0.000    0.000    0.000 
#    0.000    0.000    0.000    0.000    0.000    0.000 
#
# Total GULP energy -111347.936385 kJ/mol
# GULP energy per Si atom -5567.396819 kJ/mol
# Density = 2.655222 g / cm^3
# Si number density = 26.612789 Si / 1000 Ang^3
#
#
#
# Elastic Constant Matrix: (Units=GPa)
#
#
# Indices 1 2 3 4 5 6 
#
# 1 182.6587 40.0650 5.0337 0.0000 0.0000 0.0000
# 2 40.0650 102.1914 13.6245 0.0000 0.0000 0.0000
# 3 5.0337 13.6245 28.5997 0.0000 0.0000 0.0000
# 4 0.0000 0.0000 0.0000 33.3637 0.0000 0.0000
# 5 0.0000 0.0000 0.0000 0.0000 7.7893 0.0000
# 6 0.0000 0.0000 0.0000 0.0000 0.0000 31.6526
#
#
#
# Elastic Compliance Matrix: (Units=1/GPa)
#
#
# Indices 1 2 3 4 5 6 
#
# 1 0.005990 -0.002358 0.000069 0.000000 0.000000 0.000000
# 2 -0.002358 0.011377 -0.005005 0.000000 0.000000 0.000000
# 3 0.000069 -0.005005 0.037338 0.000000 0.000000 0.000000
# 4 0.000000 0.000000 0.000000 0.029973 0.000000 0.000000
# 5 0.000000 0.000000 0.000000 0.000000 0.128381 0.000000
# 6 0.000000 0.000000 0.000000 0.000000 0.000000 0.031593
#
#
# Mechanical properties :
#
#
# Convention : Reuss Voigt Hill
#
# Bulk Modulus (GPa) = 24.92694 47.87737 36.40215
# Shear Modulus (GPa) = 18.34113 31.54287 24.94200
#
# Velocity S-wave (km/s) = 2.62808 3.44648 3.06472
# Velocity P-wave (km/s) = 4.31230 5.81954 5.12167
#
# Compressibility (1/GPa) = 0.04011724
#
# Stress axis : x y z
#
# Youngs Moduli (GPa) = 166.94730 87.89551 26.78268
#
# Poissons Ratio (x) = 0.20722 -0.00184
# Poissons Ratio (y) = 0.39359 0.13405
# Poissons Ratio (z) = -0.01150 0.43991
#
# Static dielectric constant tensor:
#      x y z
#    x 1.169870 0.000000 0.000000 
#    y 0.000000 2.769880 0.000000 
#    z 0.000000 0.000000 2.234190 
# 
# From -- ./inp_files/26487.got.cif
#   From: 2010.05.17/outbox.cif.g08.bks.cpg/sg20_14_cif.got.tgz:26487.got - 2010.06.03 22:52:26.
