data_PCOD9318263
_publ_section_title
;
Structure prediction by ZEFSAII (Michael W. Deem and Ramdas Pophale) SiO2 
 PCOD9318263
Probable space group: C 2 2 21
;
_chemical_formula_sum "Si O2"
_cell_formula_units_Z 40
_cell_length_a 16.132122
_cell_length_b 7.545576
_cell_length_c 15.343799
_cell_angle_alpha 90.000000
_cell_angle_beta 90.000000
_cell_angle_gamma 90.000000
_cell_volume 1867.741618
_symmetry_space_group_name_H-M "C 2 2 21"
_symmetry_group_IT_number 20
_symmetry_cell_setting 'orthorhombic'
loop_
_space_group_symop_operation_xyz
x,y,z
-x,-y,1/2+z
x,-y,-z
-x,y,1/2-z
1/2+x,1/2+y,z
1/2-x,1/2-y,1/2+z
1/2+x,1/2-y,-z
1/2-x,1/2+y,1/2-z
loop_
_atom_site_type_symbol
_atom_site_label
_atom_site_fract_x
_atom_site_fract_y
_atom_site_fract_z
Si Si1 0.782239 0.816338 0.530410
Si Si2 0.000000 0.190153 0.750000
Si Si3 0.920489 0.381072 0.582046
Si Si4 0.568894 0.636486 0.337107
Si Si5 0.339766 0.500000 0.000000
Si Si6 0.881617 0.718927 0.678259
O O1 0.858560 0.756188 0.466152
O O2 0.718535 0.655911 0.534688
O O3 0.821471 0.844315 0.625282
O O4 0.744339 0.000000 0.500000
O O5 0.024877 0.294586 0.839293
O O6 0.068716 0.048999 0.716795
O O7 0.957645 0.500000 0.500000
O O8 0.869629 0.527060 0.636811
O O9 0.602473 0.592148 0.429916
O O10 0.624978 0.770201 0.281517
O O11 0.476603 0.718590 0.340383
#
# Coordination Sequence:
#
# PCOD9318263 Si02
#       6
#     8   4   8   8   4   8
#     4  11  22  45  67  92 136 187 216 270 348 416
#     4  10  20  40  62 104 126 176 234 282 336 388
#     4  10  20  38  72  97 131 174 233 270 334 413
#     4  10  23  39  67  98 133 171 233 291 325 400
#     4  12  26  46  60 108 140 168 226 284 346 396
#     4   9  19  43  68  92 124 182 223 271 338 402
#
# _framework density 21.416239000000001
#
# number of rings (size 3 to 8) (size 9 to 14) (size 15 to 20)
#    0.000    2.000    3.000    3.600    7.000    0.000 
#   14.400    0.000    0.000    0.000    0.000    0.000 
#    0.000    0.000    0.000    0.000    0.000    0.000 
#
# Total GULP energy -111356.804783 kJ/mol
# GULP energy per Si atom -5567.840239 kJ/mol
# Density = 2.136749 g / cm^3
# Si number density = 21.416239 Si / 1000 Ang^3
#
#
#
# Elastic Constant Matrix: (Units=GPa)
#
#
# Indices 1 2 3 4 5 6 
#
# 1 16.1034 -7.7742 5.1316 0.0000 0.0000 0.0000
# 2 -7.7742 47.7437 -12.9561 0.0000 0.0000 0.0000
# 3 5.1316 -12.9561 94.8660 0.0000 0.0000 0.0000
# 4 0.0000 0.0000 0.0000 46.6770 0.0000 0.0000
# 5 0.0000 0.0000 0.0000 0.0000 -46.8422 0.0000
# 6 0.0000 0.0000 0.0000 0.0000 0.0000 8.2266
#
#
#
# Elastic Compliance Matrix: (Units=1/GPa)
#
#
# Indices 1 2 3 4 5 6 
#
# 1 0.067854 0.010440 -0.002245 0.000000 0.000000 0.000000
# 2 0.010440 0.023358 0.002625 0.000000 0.000000 0.000000
# 3 -0.002245 0.002625 0.011021 0.000000 0.000000 0.000000
# 4 0.000000 0.000000 0.000000 0.021424 0.000000 0.000000
# 5 0.000000 0.000000 0.000000 0.000000 -0.021348 0.000000
# 6 0.000000 0.000000 0.000000 0.000000 0.000000 0.121557
#
#
# Mechanical properties :
#
#
# Convention : Reuss Voigt Hill
#
# Bulk Modulus (GPa) = 8.07276 14.16841 11.12059
# Shear Modulus (GPa) = 20.53253 13.23306 16.88280
#
# Velocity S-wave (km/s) = 3.09971 2.48845 2.81075
# Velocity P-wave (km/s) = 4.07290 3.85832 3.96706
#
# Compressibility (1/GPa) = 0.12387333
#
# Stress axis : x y z
#
# Youngs Moduli (GPa) = 14.73753 42.81279 90.73473
#
# Poissons Ratio (x) = -0.44695 0.20367
# Poissons Ratio (y) = -0.15386 -0.23820
# Poissons Ratio (z) = 0.03308 -0.11240
#
# Static dielectric constant tensor:
#      x y z
#    x 1.783520 0.000000 0.000000 
#    y 0.000000 1.832560 0.000000 
#    z 0.000000 0.000000 1.869910 
# 
# From -- ./inp_files/21171.got.cif
#   From: 2010.05.17/outbox.cif.g08.bks.cpg/sg20_11_cif.got.tgz:21171.got - 2010.06.03 22:52:26.
