data_PCOD9318758
_publ_section_title
;
Structure prediction by ZEFSAII (Michael W. Deem and Ramdas Pophale) SiO2 
 PCOD9318758
Probable space group: C 2 2 21
;
_chemical_formula_sum "Si O2"
_cell_formula_units_Z 40
_cell_length_a 18.813071
_cell_length_b 9.061262
_cell_length_c 10.487088
_cell_angle_alpha 90.000000
_cell_angle_beta 90.000000
_cell_angle_gamma 90.000000
_cell_volume 1787.735625
_symmetry_space_group_name_H-M "C 2 2 21"
_symmetry_group_IT_number 20
_symmetry_cell_setting 'orthorhombic'
loop_
_space_group_symop_operation_xyz
x,y,z
-x,-y,1/2+z
x,-y,-z
-x,y,1/2-z
1/2+x,1/2+y,z
1/2-x,1/2-y,1/2+z
1/2+x,1/2-y,-z
1/2-x,1/2+y,1/2-z
loop_
_atom_site_type_symbol
_atom_site_label
_atom_site_fract_x
_atom_site_fract_y
_atom_site_fract_z
Si Si1 0.703419 0.455396 0.320348
Si Si2 0.382420 0.715842 0.634051
Si Si3 0.121932 0.190798 0.439018
Si Si4 0.669143 0.000000 0.000000
Si Si5 0.500000 0.109420 0.250000
Si Si6 0.510050 0.500000 0.000000
Si Si7 0.061929 0.500000 0.500000
O O1 0.686051 0.366246 0.192495
O O2 0.666922 0.618036 0.324044
O O3 0.662448 0.367624 0.434116
O O4 0.782357 0.473592 0.373650
O O5 0.367285 0.843223 0.530903
O O6 0.428083 0.796662 0.743094
O O7 0.437788 0.593698 0.587286
O O8 0.110312 0.363001 0.456481
O O9 0.044059 0.114986 0.434181
O O10 0.510038 0.024155 0.380259
#
# Coordination Sequence:
#
# PCOD9318758 Si02
#       7
#     8   8   8   4   4   4   4
#     4   9  21  46  64  85 135 182 228 279 335 415
#     4  12  22  44  66  94 138 176 225 293 347 421
#     4   9  19  39  65  97 128 173 222 265 347 413
#     4  10  26  44  64  96 133 173 244 284 338 412
#     4  12  24  40  66 106 142 170 218 288 356 408
#     4  10  21  34  65  95 129 170 212 274 356 406
#     4  12  21  38  67 107 144 177 222 284 350 422
#
# _framework density 22.374675
#
# number of rings (size 3 to 8) (size 9 to 14) (size 15 to 20)
#    0.000    2.000    4.000    1.800    0.000    3.200 
#    7.200    4.000    0.000    0.000    0.000    0.000 
#    0.000    0.000    0.000    0.000    0.000    0.000 
#
# Total GULP energy -111547.668557 kJ/mol
# GULP energy per Si atom -5577.383428 kJ/mol
# Density = 2.232375 g / cm^3
# Si number density = 22.374675 Si / 1000 Ang^3
#
#
#
# Elastic Constant Matrix: (Units=GPa)
#
#
# Indices 1 2 3 4 5 6 
#
# 1 33.5040 16.4974 -6.2159 0.0000 0.0000 0.0000
# 2 16.4974 140.6162 20.4452 0.0000 0.0000 0.0000
# 3 -6.2159 20.4452 53.8428 0.0000 0.0000 0.0000
# 4 0.0000 0.0000 0.0000 33.0630 0.0000 0.0000
# 5 0.0000 0.0000 0.0000 0.0000 -100.0867 0.0000
# 6 0.0000 0.0000 0.0000 0.0000 0.0000 6.2029
#
#
#
# Elastic Compliance Matrix: (Units=1/GPa)
#
#
# Indices 1 2 3 4 5 6 
#
# 1 0.033212 -0.004714 0.005624 0.000000 0.000000 0.000000
# 2 -0.004714 0.008196 -0.003657 0.000000 0.000000 0.000000
# 3 0.005624 -0.003657 0.020610 0.000000 0.000000 0.000000
# 4 0.000000 0.000000 0.000000 0.030245 0.000000 0.000000
# 5 0.000000 0.000000 0.000000 0.000000 -0.009991 0.000000
# 6 0.000000 0.000000 0.000000 0.000000 0.000000 0.161216
#
#
# Mechanical properties :
#
#
# Convention : Reuss Voigt Hill
#
# Bulk Modulus (GPa) = 17.69111 32.15736 24.92423
# Shear Modulus (GPa) = 18.66901 0.98492 9.82696
#
# Velocity S-wave (km/s) = 2.89170 0.66419 2.09798
# Velocity P-wave (km/s) = 4.36728 3.87190 4.12703
#
# Compressibility (1/GPa) = 0.05652557
#
# Stress axis : x y z
#
# Youngs Moduli (GPa) = 30.10963 122.00647 48.51935
#
# Poissons Ratio (x) = 0.57517 -0.27289
# Poissons Ratio (y) = 0.14194 0.17741
# Poissons Ratio (z) = -0.16934 0.44612
#
# Static dielectric constant tensor:
#      x y z
#    x 1.858540 0.000000 0.000000 
#    y 0.000000 2.813020 0.000000 
#    z 0.000000 0.000000 1.728920 
# 
# From -- ./inp_files/12964.got.cif
#   From: 2010.05.17/outbox.cif.g08.bks.cpg/sg20_7_cif.got.tgz:12964.got - 2010.06.03 22:52:26.
