data_PCOD9318865
_publ_section_title
;
Structure prediction by ZEFSAII (Michael W. Deem and Ramdas Pophale) SiO2 
 PCOD9318865
Probable space group: C 2 2 21
;
_chemical_formula_sum "Si O2"
_cell_formula_units_Z 64
_cell_length_a 19.027198
_cell_length_b 8.903600
_cell_length_c 20.458783
_cell_angle_alpha 90.000000
_cell_angle_beta 90.000000
_cell_angle_gamma 90.000000
_cell_volume 3465.933887
_symmetry_space_group_name_H-M "C 2 2 21"
_symmetry_group_IT_number 20
_symmetry_cell_setting 'orthorhombic'
loop_
_space_group_symop_operation_xyz
x,y,z
-x,-y,1/2+z
x,-y,-z
-x,y,1/2-z
1/2+x,1/2+y,z
1/2-x,1/2-y,1/2+z
1/2+x,1/2-y,-z
1/2-x,1/2+y,1/2-z
loop_
_atom_site_type_symbol
_atom_site_label
_atom_site_fract_x
_atom_site_fract_y
_atom_site_fract_z
Si Si1 0.454004 0.179082 0.076744
Si Si2 0.797669 0.679934 0.693271
Si Si3 0.954005 0.320918 0.076745
Si Si4 0.303854 0.679244 0.075530
Si Si5 0.451516 0.320361 0.687510
Si Si6 0.548484 0.679639 0.812491
Si Si7 0.702331 0.820067 0.806729
Si Si8 0.696147 0.320755 0.424471
O O1 0.509625 0.258603 0.123382
O O2 0.375618 0.236054 0.093551
O O3 0.458144 1.000000 0.084790
O O4 0.465482 0.214642 1.000000
O O5 0.875277 0.747395 0.695043
O O6 0.749999 0.750000 0.749999
O O7 0.800563 0.500000 0.700333
O O8 0.758790 0.715244 0.624820
O O9 0.875618 0.263945 0.093552
O O10 0.009626 0.241398 0.123382
O O11 0.241211 0.715243 0.124821
O O12 0.317281 0.499999 0.079992
O O13 0.286872 0.714548 0.000000
O O14 0.500000 0.282875 0.750000
O O15 0.444907 0.500000 0.684206
O O16 0.500000 0.717126 0.750000
O O17 0.624722 0.752607 0.804958
#
# Coordination Sequence:
#
# PCOD9318865 Si02
#       8
#     8   8   8   8   8   8   8   8
#     4  10  21  37  59  87 116 147 186 231 279 334
#     4  11  23  38  58  84 114 148 187 234 285 338
#     4  10  21  37  59  87 116 147 186 231 279 334
#     4   9  19  37  59  82 111 147 184 224 274 331
#     4  11  24  40  58  82 113 150 192 236 283 336
#     4  11  24  40  58  82 113 150 192 236 283 336
#     4  11  23  38  58  84 114 148 187 234 285 338
#     4   9  19  37  59  82 111 147 184 224 274 331
#
# _framework density 18.465441999999999
#
# number of rings (size 3 to 8) (size 9 to 14) (size 15 to 20)
#    0.000    1.750    0.000    3.750    0.000   12.500 
#    0.000    2.500    0.000    0.000    0.000    0.000 
#    0.000    0.000    0.000    0.000    0.000    0.000 
#
# Total GULP energy -178864.046393 kJ/mol
# GULP energy per Si atom -5589.501450 kJ/mol
# Density = 1.842341 g / cm^3
# Si number density = 18.465442 Si / 1000 Ang^3
#
#
#
# Elastic Constant Matrix: (Units=GPa)
#
#
# Indices 1 2 3 4 5 6 
#
# 1 198.3455 84.8241 107.5894 0.0000 0.0000 0.0000
# 2 84.8241 63.4964 63.8328 0.0000 0.0000 0.0000
# 3 107.5894 63.8328 100.5364 0.0000 0.0000 0.0000
# 4 0.0000 0.0000 0.0000 32.1974 0.0000 0.0000
# 5 0.0000 0.0000 0.0000 0.0000 39.7886 0.0000
# 6 0.0000 0.0000 0.0000 0.0000 0.0000 37.8290
#
#
#
# Elastic Compliance Matrix: (Units=1/GPa)
#
#
# Indices 1 2 3 4 5 6 
#
# 1 0.014018 -0.010079 -0.008602 0.000000 0.000000 0.000000
# 2 -0.010079 0.050786 -0.021459 0.000000 0.000000 0.000000
# 3 -0.008602 -0.021459 0.032778 0.000000 0.000000 0.000000
# 4 0.000000 0.000000 0.000000 0.031058 0.000000 0.000000
# 5 0.000000 0.000000 0.000000 0.000000 0.025133 0.000000
# 6 0.000000 0.000000 0.000000 0.000000 0.000000 0.026435
#
#
# Mechanical properties :
#
#
# Convention : Reuss Voigt Hill
#
# Bulk Modulus (GPa) = 57.80087 97.20788 77.50438
# Shear Modulus (GPa) = 18.77890 29.03847 23.90869
#
# Velocity S-wave (km/s) = 3.19247 3.96988 3.60221
# Velocity P-wave (km/s) = 6.70517 8.58899 7.70487
#
# Compressibility (1/GPa) = 0.01730078
#
# Stress axis : x y z
#
# Youngs Moduli (GPa) = 71.33576 19.69037 30.50865
#
# Poissons Ratio (x) = 0.19846 0.26245
# Poissons Ratio (y) = 0.71898 0.65470
# Poissons Ratio (z) = 0.61366 0.42254
#
# Static dielectric constant tensor:
#      x y z
#    x 1.589640 0.000000 0.000000 
#    y 0.000000 1.615980 0.000000 
#    z 0.000000 0.000000 1.634860 
# 
# From -- ./inp_files/27783.got.cif
#   From: 2010.05.17/outbox.cif.g08.bks.cpg/sg20_14_cif.got.tgz:27783.got - 2010.06.03 22:52:26.
