data_PCOD9318241
_publ_section_title
;
Structure prediction by ZEFSAII (Michael W. Deem and Ramdas Pophale) SiO2 
 PCOD9318241
Probable space group: C 2 2 21
;
_chemical_formula_sum "Si O2"
_cell_formula_units_Z 56
_cell_length_a 5.744818
_cell_length_b 30.775090
_cell_length_c 14.162308
_cell_angle_alpha 90.000000
_cell_angle_beta 90.000000
_cell_angle_gamma 90.000000
_cell_volume 2503.857688
_symmetry_space_group_name_H-M "C 2 2 21"
_symmetry_group_IT_number 20
_symmetry_cell_setting 'orthorhombic'
loop_
_space_group_symop_operation_xyz
x,y,z
-x,-y,1/2+z
x,-y,-z
-x,y,1/2-z
1/2+x,1/2+y,z
1/2-x,1/2-y,1/2+z
1/2+x,1/2-y,-z
1/2-x,1/2+y,1/2-z
loop_
_atom_site_type_symbol
_atom_site_label
_atom_site_fract_x
_atom_site_fract_y
_atom_site_fract_z
Si Si1 0.842096 0.836926 0.159634
Si Si2 0.238225 0.952181 0.518092
Si Si3 0.010266 0.418614 0.149305
Si Si4 0.634192 0.378378 0.020949
Si Si5 0.520586 0.881557 0.862922
Si Si6 0.141373 0.713988 0.099194
Si Si7 0.865065 0.748673 0.615696
O O1 0.711241 0.882701 0.160992
O O2 0.659010 0.798748 0.159747
O O3 0.000000 0.831772 0.250000
O O4 0.995477 0.837205 0.062943
O O5 0.427306 0.950510 0.434422
O O6 0.367279 0.928010 0.605732
O O7 0.037415 0.917833 0.497841
O O8 0.138348 0.000000 0.500000
O O9 0.791881 0.392285 0.110197
O O10 0.000000 0.441063 0.250000
O O11 0.789014 0.374541 0.927189
O O12 0.500000 0.880224 0.750000
O O13 0.660359 0.838497 0.895986
O O14 0.386386 0.730610 0.142365
O O15 0.880477 0.726339 0.138702
O O16 0.132951 0.736509 0.996131
#
# Coordination Sequence:
#
# PCOD9318241 Si02
#       7
#     8   8   8   8   8   8   8
#     4  11  22  37  66 104 140 181 232 294 373 430
#     4  10  24  44  69 103 137 174 233 298 373 447
#     4  10  20  38  66  99 138 176 221 281 364 447
#     4  10  22  41  70  98 140 183 229 298 365 443
#     4  11  26  47  73 100 139 197 250 297 370 452
#     4  10  23  43  68  98 138 194 247 302 356 423
#     4  10  23  39  69  99 142 191 245 305 360 415
#
# _framework density 22.365489
#
# number of rings (size 3 to 8) (size 9 to 14) (size 15 to 20)
#    0.000    1.714    1.429    2.571   10.000    4.000 
#    0.000    2.857    0.000    0.000    0.000    0.000 
#    0.000    0.000    0.000    0.000    0.000    0.000 
#
# Total GULP energy -156125.769242 kJ/mol
# GULP energy per Si atom -5575.920330 kJ/mol
# Density = 2.231458 g / cm^3
# Si number density = 22.365489 Si / 1000 Ang^3
#
#
#
# Elastic Constant Matrix: (Units=GPa)
#
#
# Indices 1 2 3 4 5 6 
#
# 1 112.8083 25.9158 49.1016 0.0000 0.0000 0.0000
# 2 25.9158 92.9332 22.2153 0.0000 0.0000 0.0000
# 3 49.1016 22.2153 124.7265 0.0000 0.0000 0.0000
# 4 0.0000 0.0000 0.0000 -3.1253 0.0000 0.0000
# 5 0.0000 0.0000 0.0000 0.0000 27.6101 0.0000
# 6 0.0000 0.0000 0.0000 0.0000 0.0000 22.6196
#
#
#
# Elastic Compliance Matrix: (Units=1/GPa)
#
#
# Indices 1 2 3 4 5 6 
#
# 1 0.011091 -0.002140 -0.003985 0.000000 0.000000 0.000000
# 2 -0.002140 0.011652 -0.001233 0.000000 0.000000 0.000000
# 3 -0.003985 -0.001233 0.009806 0.000000 0.000000 0.000000
# 4 0.000000 0.000000 0.000000 -0.319964 0.000000 0.000000
# 5 0.000000 0.000000 0.000000 0.000000 0.036219 0.000000
# 6 0.000000 0.000000 0.000000 0.000000 0.000000 0.044209
#
#
# Mechanical properties :
#
#
# Convention : Reuss Voigt Hill
#
# Bulk Modulus (GPa) = 56.07689 58.32591 57.20140
# Shear Modulus (GPa) = -26.83446 24.96990 -0.93228
#
# Velocity S-wave (km/s) = -3.46759 3.34495 -0.64633
# Velocity P-wave (km/s) = 3.01581 6.40730 5.00742
#
# Compressibility (1/GPa) = 0.01783266
#
# Stress axis : x y z
#
# Youngs Moduli (GPa) = 90.16486 85.82252 101.97948
#
# Poissons Ratio (x) = 0.18368 0.40638
# Poissons Ratio (y) = 0.19297 0.12572
# Poissons Ratio (z) = 0.35930 0.10580
#
# Static dielectric constant tensor:
#      x y z
#    x 1.898780 0.000000 0.000000 
#    y 0.000000 1.861250 0.000000 
#    z 0.000000 0.000000 1.910710 
# 
# From -- ./inp_files/17974.got.cif
#   From: 2010.05.17/outbox.cif.g08.bks.cpg/sg20_9_cif.got.tgz:17974.got - 2010.06.03 22:52:26.
