data_PCOD9318997
_publ_section_title
;
Structure prediction by ZEFSAII (Michael W. Deem and Ramdas Pophale) SiO2 
 PCOD9318997
Probable space group: C 2 2 21
;
_chemical_formula_sum "Si O2"
_cell_formula_units_Z 60
_cell_length_a 27.779170
_cell_length_b 6.562505
_cell_length_c 16.995656
_cell_angle_alpha 90.000000
_cell_angle_beta 90.000000
_cell_angle_gamma 90.000000
_cell_volume 3098.324099
_symmetry_space_group_name_H-M "C 2 2 21"
_symmetry_group_IT_number 20
_symmetry_cell_setting 'orthorhombic'
loop_
_space_group_symop_operation_xyz
x,y,z
-x,-y,1/2+z
x,-y,-z
-x,y,1/2-z
1/2+x,1/2+y,z
1/2-x,1/2-y,1/2+z
1/2+x,1/2-y,-z
1/2-x,1/2+y,1/2-z
loop_
_atom_site_type_symbol
_atom_site_label
_atom_site_fract_x
_atom_site_fract_y
_atom_site_fract_z
Si Si1 0.222475 0.773524 0.358088
Si Si2 0.018007 0.590643 0.081192
Si Si3 0.519764 0.500209 0.836109
Si Si4 0.586706 0.146462 0.803410
Si Si5 0.311483 0.073874 0.741874
Si Si6 0.166670 0.828850 0.605103
Si Si7 0.277681 0.000000 0.000000
Si Si8 0.937188 0.680517 0.875794
O O1 0.264367 0.885715 0.309717
O O2 0.194841 0.628911 0.295086
O O3 0.244702 0.629104 0.427166
O O4 0.186734 0.941427 0.396294
O O5 0.022512 0.827085 0.098648
O O6 0.049872 0.491546 0.149344
O O7 0.962617 0.515117 0.086166
O O8 0.037125 0.500000 0.000000
O O9 0.500000 0.572809 0.750000
O O10 0.569557 0.377424 0.822392
O O11 0.480124 0.341307 0.866697
O O12 0.641859 0.084214 0.814172
O O13 0.577142 0.113672 0.711566
O O14 0.320337 0.250894 0.806617
O O15 0.192603 0.673223 0.546174
O O16 0.109975 0.790439 0.590713
#
# Coordination Sequence:
#
# PCOD9318997 Si02
#       8
#     8   8   8   8   8   8   4   8
#     4  11  21  41  62  92 126 164 209 267 324 380
#     4  11  22  36  54  83 124 158 196 248 309 366
#     4   9  18  36  60  80 110 153 197 246 300 357
#     4   9  20  38  57  87 112 151 208 254 294 370
#     4  10  21  38  67  89 119 156 214 266 308 378
#     4  10  21  39  60  90 121 162 204 258 322 377
#     4  10  24  38  58  88 132 160 196 262 322 386
#     4   9  20  36  59  85 113 149 206 250 297 367
#
# _framework density 19.365307999999999
#
# number of rings (size 3 to 8) (size 9 to 14) (size 15 to 20)
#    0.000    2.133    1.333    2.400    0.933    8.533 
#    2.400    2.667    0.000    0.000    0.000    0.000 
#    0.000    0.000    0.000    0.000    0.000    0.000 
#
# Total GULP energy -167098.941416 kJ/mol
# GULP energy per Si atom -5569.964714 kJ/mol
# Density = 1.932123 g / cm^3
# Si number density = 19.365308 Si / 1000 Ang^3
#
#
#
# Elastic Constant Matrix: (Units=GPa)
#
#
# Indices 1 2 3 4 5 6 
#
# 1 84.9925 30.8728 7.8663 0.0000 0.0000 0.0000
# 2 30.8728 53.4882 13.3784 0.0000 0.0000 0.0000
# 3 7.8663 13.3784 28.3852 0.0000 0.0000 0.0000
# 4 0.0000 0.0000 0.0000 2.0459 0.0000 0.0000
# 5 0.0000 0.0000 0.0000 0.0000 3.4134 0.0000
# 6 0.0000 0.0000 0.0000 0.0000 0.0000 19.2221
#
#
#
# Elastic Compliance Matrix: (Units=1/GPa)
#
#
# Indices 1 2 3 4 5 6 
#
# 1 0.014887 -0.008571 -0.000086 0.000000 0.000000 0.000000
# 2 -0.008571 0.026129 -0.009940 0.000000 0.000000 0.000000
# 3 -0.000086 -0.009940 0.039938 0.000000 0.000000 0.000000
# 4 0.000000 0.000000 0.000000 0.488789 0.000000 0.000000
# 5 0.000000 0.000000 0.000000 0.000000 0.292960 0.000000
# 6 0.000000 0.000000 0.000000 0.000000 0.000000 0.052023
#
#
# Mechanical properties :
#
#
# Convention : Reuss Voigt Hill
#
# Bulk Modulus (GPa) = 22.85155 30.12232 26.48693
# Shear Modulus (GPa) = 5.17327 12.58618 8.87973
#
# Velocity S-wave (km/s) = 1.63622 2.55215 2.14367
# Velocity P-wave (km/s) = 3.92371 4.92678 4.45357
#
# Compressibility (1/GPa) = 0.04376071
#
# Stress axis : x y z
#
# Youngs Moduli (GPa) = 67.17226 38.27164 25.03869
#
# Poissons Ratio (x) = 0.32803 0.00215
# Poissons Ratio (y) = 0.57575 0.24888
# Poissons Ratio (z) = 0.00577 0.38041
#
# Static dielectric constant tensor:
#      x y z
#    x 1.704650 0.000000 0.000000 
#    y 0.000000 1.716530 0.000000 
#    z 0.000000 0.000000 1.676090 
# 
# From -- ./inp_files/25740.got.cif
#   From: 2010.05.17/outbox.cif.g08.bks.cpg/sg20_13_cif.got.tgz:25740.got - 2010.06.03 22:52:26.
