data_PCOD9318017
_publ_section_title
;
Structure prediction by ZEFSAII (Michael W. Deem and Ramdas Pophale) SiO2 
 PCOD9318017
Probable space group: C 2 2 21
;
_chemical_formula_sum "Si O2"
_cell_formula_units_Z 24
_cell_length_a 13.038294
_cell_length_b 5.793565
_cell_length_c 12.308383
_cell_angle_alpha 90.000000
_cell_angle_beta 90.000000
_cell_angle_gamma 90.000000
_cell_volume 929.753143
_symmetry_space_group_name_H-M "C 2 2 21"
_symmetry_group_IT_number 20
_symmetry_cell_setting 'orthorhombic'
loop_
_space_group_symop_operation_xyz
x,y,z
-x,-y,1/2+z
x,-y,-z
-x,y,1/2-z
1/2+x,1/2+y,z
1/2-x,1/2-y,1/2+z
1/2+x,1/2-y,-z
1/2-x,1/2+y,1/2-z
loop_
_atom_site_type_symbol
_atom_site_label
_atom_site_fract_x
_atom_site_fract_y
_atom_site_fract_z
Si Si1 0.390425 0.058366 0.249661
Si Si2 0.944368 0.763813 0.031279
Si Si3 0.261263 0.679269 0.593177
O O1 0.500000 0.922605 0.250000
O O2 0.418272 0.250909 0.159049
O O3 0.352578 0.162510 0.363258
O O4 0.291172 0.932648 0.200245
O O5 0.978103 0.500000 0.000000
O O6 0.838986 0.784839 0.962558
O O7 0.000292 0.000000 0.000000
O O8 0.292605 0.500000 0.500000
#
# Coordination Sequence:
#
# PCOD9318017 Si02
#       3
#     8   8   8
#     4  10  20  37  61  89 123 166 211 258 317 379
#     4   9  19  37  59  87 125 161 205 261 312 373
#     4   9  20  38  58  88 127 161 207 265 313 374
#
# _framework density 25.813303000000001
#
# number of rings (size 3 to 8) (size 9 to 14) (size 15 to 20)
#    0.000    3.333    0.000    2.000    0.000    1.333 
#    0.000   48.333    0.000    0.000    0.000    0.000 
#    0.000    0.000    0.000    0.000    0.000    0.000 
#
# Total GULP energy -66857.495656 kJ/mol
# GULP energy per Si atom -5571.457971 kJ/mol
# Density = 2.575455 g / cm^3
# Si number density = 25.813303 Si / 1000 Ang^3
#
#
#
# Elastic Constant Matrix: (Units=GPa)
#
#
# Indices 1 2 3 4 5 6 
#
# 1 163.7152 45.3263 32.5796 0.0000 0.0000 0.0000
# 2 45.3263 140.8045 36.2986 0.0000 0.0000 0.0000
# 3 32.5796 36.2986 118.2967 0.0000 0.0000 0.0000
# 4 0.0000 0.0000 0.0000 23.8477 0.0000 0.0000
# 5 0.0000 0.0000 0.0000 0.0000 34.7533 0.0000
# 6 0.0000 0.0000 0.0000 0.0000 0.0000 -8.7320
#
#
#
# Elastic Compliance Matrix: (Units=1/GPa)
#
#
# Indices 1 2 3 4 5 6 
#
# 1 0.006891 -0.001878 -0.001322 0.000000 0.000000 0.000000
# 2 -0.001878 0.008224 -0.002006 0.000000 0.000000 0.000000
# 3 -0.001322 -0.002006 0.009433 0.000000 0.000000 0.000000
# 4 0.000000 0.000000 0.000000 0.041933 0.000000 0.000000
# 5 0.000000 0.000000 0.000000 0.000000 0.028774 0.000000
# 6 0.000000 0.000000 0.000000 0.000000 0.000000 -0.114521
#
#
# Mechanical properties :
#
#
# Convention : Reuss Voigt Hill
#
# Bulk Modulus (GPa) = 70.73883 72.35840 71.54862
# Shear Modulus (GPa) = -1206.90145 30.54791 -588.17677
#
# Velocity S-wave (km/s) = -21.64637 3.44382 -15.11134
# Velocity P-wave (km/s) = 24.43952 6.62612 16.63407
#
# Compressibility (1/GPa) = 0.01413651
#
# Stress axis : x y z
#
# Youngs Moduli (GPa) = 145.11655 121.60041 106.01147
#
# Poissons Ratio (x) = 0.22831 0.14012
# Poissons Ratio (y) = 0.27246 0.21269
# Poissons Ratio (z) = 0.19180 0.24397
#
# Static dielectric constant tensor:
#      x y z
#    x 2.066280 0.000000 0.000000 
#    y 0.000000 2.174640 0.000000 
#    z 0.000000 0.000000 2.151430 
# 
# From -- ./inp_files/11770.got.cif
#   From: 2010.05.17/outbox.cif.g08.bks.cpg/sg20_6_cif.got.tgz:11770.got - 2010.06.03 22:52:26.
