data_PCOD9318010
_publ_section_title
;
Structure prediction by ZEFSAII (Michael W. Deem and Ramdas Pophale) SiO2 
 PCOD9318010
Probable space group: C 2 2 21
;
_chemical_formula_sum "Si O2"
_cell_formula_units_Z 44
_cell_length_a 17.497948
_cell_length_b 8.113106
_cell_length_c 14.620221
_cell_angle_alpha 90.000000
_cell_angle_beta 90.000000
_cell_angle_gamma 90.000000
_cell_volume 2075.526149
_symmetry_space_group_name_H-M "C 2 2 21"
_symmetry_group_IT_number 20
_symmetry_cell_setting 'orthorhombic'
loop_
_space_group_symop_operation_xyz
x,y,z
-x,-y,1/2+z
x,-y,-z
-x,y,1/2-z
1/2+x,1/2+y,z
1/2-x,1/2-y,1/2+z
1/2+x,1/2-y,-z
1/2-x,1/2+y,1/2-z
loop_
_atom_site_type_symbol
_atom_site_label
_atom_site_fract_x
_atom_site_fract_y
_atom_site_fract_z
Si Si1 0.601114 0.407928 0.130248
Si Si2 0.550245 0.754477 0.056683
Si Si3 0.165035 0.621026 0.812143
Si Si4 0.761348 0.434477 0.835389
Si Si5 0.913125 0.570212 0.868139
Si Si6 0.000000 0.306656 0.750000
O O1 0.560241 0.585393 0.115122
O O2 0.690302 0.447484 0.141196
O O3 0.567091 0.309692 0.214670
O O4 0.580750 0.299031 0.041630
O O5 0.605948 0.887261 0.105137
O O6 0.464422 0.823427 0.063761
O O7 0.208287 0.465750 0.768490
O O8 0.115014 0.674140 0.722000
O O9 0.227993 0.753128 0.841048
O O10 0.834053 0.483639 0.896107
O O11 0.966151 0.426273 0.827076
#
# Coordination Sequence:
#
# PCOD9318010 Si02
#       6
#     8   8   8   8   8   4
#     4  10  24  37  62  88 122 158 213 241 298 360
#     4  10  20  42  60  87 121 169 195 254 298 359
#     4   9  18  35  61  82 117 152 198 245 297 363
#     4   9  19  35  58  86 111 152 197 243 300 359
#     4  10  20  37  61  87 120 153 202 239 317 345
#     4  12  22  36  58  96 112 162 202 252 292 374
#
# _framework density 21.199442999999999
#
# number of rings (size 3 to 8) (size 9 to 14) (size 15 to 20)
#    1.091    1.091    1.818    1.091    5.091    0.727 
#    0.000    9.091    0.000    0.000    0.000    0.000 
#    0.000    0.000    0.000    0.000    0.000    0.000 
#
# Total GULP energy -122604.373537 kJ/mol
# GULP energy per Si atom -5572.926070 kJ/mol
# Density = 2.115119 g / cm^3
# Si number density = 21.199443 Si / 1000 Ang^3
#
#
#
# Elastic Constant Matrix: (Units=GPa)
#
#
# Indices 1 2 3 4 5 6 
#
# 1 123.5796 39.6582 -14.6232 0.0000 0.0000 0.0000
# 2 39.6582 56.4442 7.4323 0.0000 0.0000 0.0000
# 3 -14.6232 7.4323 22.0292 0.0000 0.0000 0.0000
# 4 0.0000 0.0000 0.0000 21.6621 0.0000 0.0000
# 5 0.0000 0.0000 0.0000 0.0000 10.1661 0.0000
# 6 0.0000 0.0000 0.0000 0.0000 0.0000 33.2972
#
#
#
# Elastic Compliance Matrix: (Units=1/GPa)
#
#
# Indices 1 2 3 4 5 6 
#
# 1 0.012986 -0.010736 0.012242 0.000000 0.000000 0.000000
# 2 -0.010736 0.027416 -0.016376 0.000000 0.000000 0.000000
# 3 0.012242 -0.016376 0.059046 0.000000 0.000000 0.000000
# 4 0.000000 0.000000 0.000000 0.046164 0.000000 0.000000
# 5 0.000000 0.000000 0.000000 0.000000 0.098366 0.000000
# 6 0.000000 0.000000 0.000000 0.000000 0.000000 0.030033
#
#
# Mechanical properties :
#
#
# Convention : Reuss Voigt Hill
#
# Bulk Modulus (GPa) = 14.34558 29.66528 22.00543
# Shear Modulus (GPa) = 15.29116 24.33080 19.81098
#
# Velocity S-wave (km/s) = 2.68862 3.39146 3.06028
# Velocity P-wave (km/s) = 4.05214 5.41847 4.78433
#
# Compressibility (1/GPa) = 0.06970787
#
# Stress axis : x y z
#
# Youngs Moduli (GPa) = 77.00647 36.47475 16.93594
#
# Poissons Ratio (x) = 0.39159 -0.20734
# Poissons Ratio (y) = 0.82674 0.27735
# Poissons Ratio (z) = -0.94274 0.59733
#
# Static dielectric constant tensor:
#      x y z
#    x 1.766290 0.000000 0.000000 
#    y 0.000000 1.779760 0.000000 
#    z 0.000000 0.000000 1.810650 
# 
# From -- ./inp_files/21200.got.cif
#   From: 2010.05.17/outbox.cif.g08.bks.cpg/sg20_11_cif.got.tgz:21200.got - 2010.06.03 22:52:26.
