data_PCOD9318364
_publ_section_title
;
Structure prediction by ZEFSAII (Michael W. Deem and Ramdas Pophale) SiO2 
 PCOD9318364
Probable space group: C 2 2 21
;
_chemical_formula_sum "Si O2"
_cell_formula_units_Z 52
_cell_length_a 8.007378
_cell_length_b 25.697502
_cell_length_c 12.250498
_cell_angle_alpha 90.000000
_cell_angle_beta 90.000000
_cell_angle_gamma 90.000000
_cell_volume 2520.780222
_symmetry_space_group_name_H-M "C 2 2 21"
_symmetry_group_IT_number 20
_symmetry_cell_setting 'orthorhombic'
loop_
_space_group_symop_operation_xyz
x,y,z
-x,-y,1/2+z
x,-y,-z
-x,y,1/2-z
1/2+x,1/2+y,z
1/2-x,1/2-y,1/2+z
1/2+x,1/2-y,-z
1/2-x,1/2+y,1/2-z
loop_
_atom_site_type_symbol
_atom_site_label
_atom_site_fract_x
_atom_site_fract_y
_atom_site_fract_z
Si Si1 0.321672 0.618801 0.577631
Si Si2 0.000000 0.271124 0.750000
Si Si3 0.699830 0.473129 0.239534
Si Si4 0.210088 0.413339 0.657424
Si Si5 0.183359 0.301382 0.264519
Si Si6 0.286472 0.387973 0.100753
Si Si7 0.637503 0.135145 0.129546
O O1 0.256891 0.569403 0.647000
O O2 0.307252 0.604436 0.450642
O O3 0.225628 0.670408 0.619496
O O4 0.515700 0.622892 0.612033
O O5 0.164077 0.236394 0.734643
O O6 0.048999 0.309288 0.850433
O O7 0.500000 0.478321 0.250000
O O8 0.762919 0.528580 0.200196
O O9 0.751597 0.445997 0.354014
O O10 0.243153 0.376268 0.761425
O O11 0.015984 0.405117 0.628781
O O12 0.189601 0.348636 0.178819
O O13 0.000000 0.277142 0.250000
O O14 0.238433 0.374605 0.978514
#
# Coordination Sequence:
#
# PCOD9318364 Si02
#       7
#     8   4   8   8   8   8   8
#     4  10  20  39  68  96 136 172 222 281 328 414
#     4  10  22  50  62  96 140 166 236 280 342 408
#     4   9  20  37  64  95 127 175 225 272 336 410
#     4  10  21  41  58  90 137 169 220 273 336 394
#     4  11  21  43  73 101 129 176 223 286 350 404
#     4  10  21  43  66  96 134 177 227 278 343 408
#     4  10  25  45  59  91 137 177 222 291 329 409
#
# _framework density 20.628533000000001
#
# number of rings (size 3 to 8) (size 9 to 14) (size 15 to 20)
#    0.000    2.154    1.538    2.308    2.154    0.615 
#   36.000    0.000    0.000    0.000    0.000    0.000 
#    0.000    0.000    0.000    0.000    0.000    0.000 
#
# Total GULP energy -145004.701918 kJ/mol
# GULP energy per Si atom -5577.103920 kJ/mol
# Density = 2.058158 g / cm^3
# Si number density = 20.628533 Si / 1000 Ang^3
#
#
#
# Elastic Constant Matrix: (Units=GPa)
#
#
# Indices 1 2 3 4 5 6 
#
# 1 83.2111 39.6675 19.8253 0.0000 0.0000 0.0000
# 2 39.6675 100.2946 27.5018 0.0000 0.0000 0.0000
# 3 19.8253 27.5018 114.0930 0.0000 0.0000 0.0000
# 4 0.0000 0.0000 0.0000-1020.3866 0.0000 0.0000
# 5 0.0000 0.0000 0.0000 0.0000 31.6313 0.0000
# 6 0.0000 0.0000 0.0000 0.0000 0.0000 -43.5841
#
#
#
# Elastic Compliance Matrix: (Units=1/GPa)
#
#
# Indices 1 2 3 4 5 6 
#
# 1 0.014977 -0.005579 -0.001258 0.000000 0.000000 0.000000
# 2 -0.005579 0.012754 -0.002105 0.000000 0.000000 0.000000
# 3 -0.001258 -0.002105 0.009491 0.000000 0.000000 0.000000
# 4 0.000000 0.000000 0.000000 -0.000980 0.000000 0.000000
# 5 0.000000 0.000000 0.000000 0.000000 0.031614 0.000000
# 6 0.000000 0.000000 0.000000 0.000000 0.000000 -0.022944
#
#
# Mechanical properties :
#
#
# Convention : Reuss Voigt Hill
#
# Bulk Modulus (GPa) = 51.70885 52.39865 52.05375
# Shear Modulus (GPa) = 72.21210 -192.42761 -60.10775
#
# Velocity S-wave (km/s) = 5.92300 -9.66875 -5.40383
# Velocity P-wave (km/s) = 8.47921 9.95943 3.69413
#
# Compressibility (1/GPa) = 0.01933905
#
# Stress axis : x y z
#
# Youngs Moduli (GPa) = 66.77084 78.40552 105.36592
#
# Poissons Ratio (x) = 0.43739 0.13252
# Poissons Ratio (y) = 0.37248 0.22180
# Poissons Ratio (z) = 0.08398 0.16505
#
# Static dielectric constant tensor:
#      x y z
#    x 2.931890 0.000000 0.000000 
#    y 0.000000 1.754520 0.000000 
#    z 0.000000 0.000000 1.816310 
# 
# From -- ./inp_files/13244.got.cif
#   From: 2010.05.17/outbox.cif.g08.bks.cpg/sg20_7_cif.got.tgz:13244.got - 2010.06.03 22:52:26.
