data_PCOD9318450
_publ_section_title
;
Structure prediction by ZEFSAII (Michael W. Deem and Ramdas Pophale) SiO2 
 PCOD9318450
Probable space group: C 2 2 21
;
_chemical_formula_sum "Si O2"
_cell_formula_units_Z 48
_cell_length_a 29.764180
_cell_length_b 8.498962
_cell_length_c 9.117849
_cell_angle_alpha 90.000000
_cell_angle_beta 90.000000
_cell_angle_gamma 90.000000
_cell_volume 2306.493342
_symmetry_space_group_name_H-M "C 2 2 21"
_symmetry_group_IT_number 20
_symmetry_cell_setting 'orthorhombic'
loop_
_space_group_symop_operation_xyz
x,y,z
-x,-y,1/2+z
x,-y,-z
-x,y,1/2-z
1/2+x,1/2+y,z
1/2-x,1/2-y,1/2+z
1/2+x,1/2-y,-z
1/2-x,1/2+y,1/2-z
loop_
_atom_site_type_symbol
_atom_site_label
_atom_site_fract_x
_atom_site_fract_y
_atom_site_fract_z
Si Si1 0.113892 0.183824 0.470057
Si Si2 0.450753 0.775689 0.294552
Si Si3 0.370019 0.733283 0.708687
Si Si4 0.783583 0.069685 0.642995
Si Si5 0.218086 0.850635 0.604837
Si Si6 0.607375 0.000000 0.000000
Si Si7 0.072251 0.000000 0.000000
O O1 0.079628 0.243520 0.348132
O O2 0.110360 0.265696 0.629834
O O3 0.165160 0.189314 0.409298
O O4 0.104727 0.000000 0.500000
O O5 0.500000 0.830604 0.250000
O O6 0.454674 0.618665 0.394923
O O7 0.424074 0.898353 0.394349
O O8 0.321322 0.658546 0.736089
O O9 0.399116 0.608402 0.613703
O O10 0.364895 0.884117 0.604659
O O11 0.746152 0.191212 0.589614
O O12 0.807147 0.000000 0.500000
O O13 0.768513 0.921985 0.737679
O O14 0.228330 0.000000 0.500000
#
# Coordination Sequence:
#
# PCOD9318450 Si02
#       7
#     8   8   8   8   8   4   4
#     4  11  22  44  68  95 130 177 222 278 333 393
#     4  11  25  44  71 101 136 171 222 278 342 408
#     4  11  22  43  68  95 137 177 226 270 333 400
#     4  12  24  39  65  96 134 179 227 285 324 399
#     4  11  24  43  61  95 135 177 229 278 339 389
#     4  10  28  44  64 104 134 180 214 278 348 400
#     4  10  20  40  68 100 130 170 224 272 326 404
#
# _framework density 20.810811999999999
#
# number of rings (size 3 to 8) (size 9 to 14) (size 15 to 20)
#    0.000    1.000    5.833    1.000    4.667    3.333 
#    0.000    3.333    0.000    0.000    0.000    0.000 
#    0.000    0.000    0.000    0.000    0.000    0.000 
#
# Total GULP energy -134034.543437 kJ/mol
# GULP energy per Si atom -5584.772643 kJ/mol
# Density = 2.076345 g / cm^3
# Si number density = 20.810812 Si / 1000 Ang^3
#
#
#
# Elastic Constant Matrix: (Units=GPa)
#
#
# Indices 1 2 3 4 5 6 
#
# 1 50.2146 -1.6847 22.3401 0.0000 0.0000 0.0000
# 2 -1.6847 46.7787 19.0580 0.0000 0.0000 0.0000
# 3 22.3401 19.0580 135.6064 0.0000 0.0000 0.0000
# 4 0.0000 0.0000 0.0000 31.5682 0.0000 0.0000
# 5 0.0000 0.0000 0.0000 0.0000 17.8094 0.0000
# 6 0.0000 0.0000 0.0000 0.0000 0.0000 4.8905
#
#
#
# Elastic Compliance Matrix: (Units=1/GPa)
#
#
# Indices 1 2 3 4 5 6 
#
# 1 0.021736 0.002378 -0.003915 0.000000 0.000000 0.000000
# 2 0.002378 0.022936 -0.003615 0.000000 0.000000 0.000000
# 3 -0.003915 -0.003615 0.008527 0.000000 0.000000 0.000000
# 4 0.000000 0.000000 0.000000 0.031677 0.000000 0.000000
# 5 0.000000 0.000000 0.000000 0.000000 0.056150 0.000000
# 6 0.000000 0.000000 0.000000 0.000000 0.000000 0.204480
#
#
# Mechanical properties :
#
#
# Convention : Reuss Voigt Hill
#
# Bulk Modulus (GPa) = 23.31300 34.66960 28.99130
# Shear Modulus (GPa) = 13.50954 23.71272 18.61113
#
# Velocity S-wave (km/s) = 2.55062 3.37922 2.99373
# Velocity P-wave (km/s) = 4.46104 5.64988 5.09029
#
# Compressibility (1/GPa) = 0.04289453
#
# Stress axis : x y z
#
# Youngs Moduli (GPa) = 46.00645 43.60017 117.27027
#
# Poissons Ratio (x) = -0.10367 0.45912
# Poissons Ratio (y) = -0.10940 0.42394
# Poissons Ratio (z) = 0.18012 0.15762
#
# Static dielectric constant tensor:
#      x y z
#    x 1.689670 0.000000 0.000000 
#    y 0.000000 1.743690 0.000000 
#    z 0.000000 0.000000 1.802640 
# 
# From -- ./inp_files/11515.got.cif
#   From: 2010.05.17/outbox.cif.g08.bks.cpg/sg20_6_cif.got.tgz:11515.got - 2010.06.03 22:52:26.
