data_PCOD9318467
_publ_section_title
;
Structure prediction by ZEFSAII (Michael W. Deem and Ramdas Pophale) SiO2 
 PCOD9318467
Probable space group: C 2 2 21
;
_chemical_formula_sum "Si O2"
_cell_formula_units_Z 28
_cell_length_a 24.192237
_cell_length_b 5.050634
_cell_length_c 10.466543
_cell_angle_alpha 90.000000
_cell_angle_beta 90.000000
_cell_angle_gamma 90.000000
_cell_volume 1278.866433
_symmetry_space_group_name_H-M "C 2 2 21"
_symmetry_group_IT_number 20
_symmetry_cell_setting 'orthorhombic'
loop_
_space_group_symop_operation_xyz
x,y,z
-x,-y,1/2+z
x,-y,-z
-x,y,1/2-z
1/2+x,1/2+y,z
1/2-x,1/2-y,1/2+z
1/2+x,1/2-y,-z
1/2-x,1/2+y,1/2-z
loop_
_atom_site_type_symbol
_atom_site_label
_atom_site_fract_x
_atom_site_fract_y
_atom_site_fract_z
Si Si1 0.790279 0.500000 0.000000
Si Si2 0.551002 0.494649 0.344406
Si Si3 0.726587 0.850271 0.173712
Si Si4 0.878155 0.511012 0.782193
O O1 0.752090 0.739033 0.043676
O O2 0.832686 0.428914 0.110565
O O3 0.540817 0.500000 0.500000
O O4 0.500000 0.429274 0.250000
O O5 0.573137 0.780582 0.300650
O O6 0.597956 0.278518 0.309937
O O7 0.738531 0.587126 0.261602
O O8 0.662400 0.937067 0.162927
#
# Coordination Sequence:
#
# PCOD9318467 Si02
#       4
#     4   8   8   8
#     4  10  20  40  68  96 136 180 226 266 338 432
#     4  12  25  46  73  99 131 181 240 294 348 410
#     4  10  22  36  63 103 134 170 226 274 326 422
#     4  11  22  41  70  99 134 182 224 278 355 414
#
# _framework density 21.894386999999998
#
# number of rings (size 3 to 8) (size 9 to 14) (size 15 to 20)
#    0.000    1.143    2.857    4.286    0.000    3.429 
#    2.571    0.000   12.571    0.000    0.000    0.000 
#    0.000    0.000    0.000    0.000    0.000    0.000 
#
# Total GULP energy -78070.916947 kJ/mol
# GULP energy per Si atom -5576.494068 kJ/mol
# Density = 2.184455 g / cm^3
# Si number density = 21.894387 Si / 1000 Ang^3
#
#
#
# Elastic Constant Matrix: (Units=GPa)
#
#
# Indices 1 2 3 4 5 6 
#
# 1 93.7657 5.6820 45.8986 0.0000 0.0000 0.0000
# 2 5.6820 119.0594 15.2744 0.0000 0.0000 0.0000
# 3 45.8986 15.2744 70.6114 0.0000 0.0000 0.0000
# 4 0.0000 0.0000 0.0000 23.6900 0.0000 0.0000
# 5 0.0000 0.0000 0.0000 0.0000 50.1427 0.0000
# 6 0.0000 0.0000 0.0000 0.0000 0.0000 13.0260
#
#
#
# Elastic Compliance Matrix: (Units=1/GPa)
#
#
# Indices 1 2 3 4 5 6 
#
# 1 0.015680 0.000575 -0.010317 0.000000 0.000000 0.000000
# 2 0.000575 0.008660 -0.002247 0.000000 0.000000 0.000000
# 3 -0.010317 -0.002247 0.021354 0.000000 0.000000 0.000000
# 4 0.000000 0.000000 0.000000 0.042212 0.000000 0.000000
# 5 0.000000 0.000000 0.000000 0.000000 0.019943 0.000000
# 6 0.000000 0.000000 0.000000 0.000000 0.000000 0.076770
#
#
# Mechanical properties :
#
#
# Convention : Reuss Voigt Hill
#
# Bulk Modulus (GPa) = 46.04720 46.34959 46.19840
# Shear Modulus (GPa) = 23.16581 31.81051 27.48816
#
# Velocity S-wave (km/s) = 3.25633 3.81584 3.54713
# Velocity P-wave (km/s) = 5.93426 6.37415 6.15813
#
# Compressibility (1/GPa) = 0.02171685
#
# Stress axis : x y z
#
# Youngs Moduli (GPa) = 63.77512 115.47323 46.82921
#
# Poissons Ratio (x) = -0.06642 0.48313
# Poissons Ratio (y) = -0.03669 0.10524
# Poissons Ratio (z) = 0.65795 0.25949
#
# Static dielectric constant tensor:
#      x y z
#    x 1.833140 0.000000 0.000000 
#    y 0.000000 1.776930 0.000000 
#    z 0.000000 0.000000 2.254230 
# 
# From -- ./inp_files/16043.got.cif
#   From: 2010.05.17/outbox.cif.g08.bks.cpg/sg20_9_cif.got.tgz:16043.got - 2010.06.03 22:52:26.
