data_PCOD9318996
_publ_section_title
;
Structure prediction by ZEFSAII (Michael W. Deem and Ramdas Pophale) SiO2 
 PCOD9318996
Probable space group: C 2 2 21
;
_chemical_formula_sum "Si O2"
_cell_formula_units_Z 64
_cell_length_a 12.164779
_cell_length_b 17.161347
_cell_length_c 14.399452
_cell_angle_alpha 90.000000
_cell_angle_beta 90.000000
_cell_angle_gamma 90.000000
_cell_volume 3006.087105
_symmetry_space_group_name_H-M "C 2 2 21"
_symmetry_group_IT_number 20
_symmetry_cell_setting 'orthorhombic'
loop_
_space_group_symop_operation_xyz
x,y,z
-x,-y,1/2+z
x,-y,-z
-x,y,1/2-z
1/2+x,1/2+y,z
1/2-x,1/2-y,1/2+z
1/2+x,1/2-y,-z
1/2-x,1/2+y,1/2-z
loop_
_atom_site_type_symbol
_atom_site_label
_atom_site_fract_x
_atom_site_fract_y
_atom_site_fract_z
Si Si1 0.325518 0.121714 0.750512
Si Si2 0.707085 0.589795 0.123564
Si Si3 0.811809 0.193140 0.027701
Si Si4 0.866252 0.376079 0.034396
Si Si5 0.881856 0.415694 0.452480
Si Si6 0.116538 0.058535 0.794492
Si Si7 0.492215 0.412944 0.485609
Si Si8 0.127222 0.199134 0.261786
O O1 0.345010 0.097926 0.858628
O O2 0.373373 0.078357 0.660315
O O3 0.193133 0.118546 0.740479
O O4 0.372005 0.208513 0.748599
O O5 0.689240 0.518605 0.193732
O O6 0.711164 0.665588 0.186330
O O7 0.800437 0.579795 0.046933
O O8 0.591684 0.597227 0.069628
O O9 0.822900 0.286802 0.022507
O O10 0.828805 0.176347 0.137164
O O11 0.704796 0.150103 0.987054
O O12 0.916098 0.151898 0.980430
O O13 0.996199 0.386284 0.021584
O O14 0.860994 0.500000 0.500000
O O15 0.000000 0.040337 0.750000
O O16 0.085252 0.088358 0.896045
O O17 0.541422 0.500000 0.500000
O O18 0.000000 0.172464 0.250000
#
# Coordination Sequence:
#
# PCOD9318996 Si02
#       8
#     8   8   8   8   8   8   8   8
#     4  11  24  44  69  97 137 181 231 276 347 422
#     4  11  23  41  68  99 134 174 233 277 335 412
#     4  11  24  42  71 102 142 177 235 287 343 412
#     4  11  26  46  72  97 137 193 232 276 344 427
#     4  12  28  45  68 104 145 184 232 293 358 415
#     4  11  24  39  67 103 134 174 224 290 346 399
#     4  10  21  38  66  99 137 176 217 285 346 397
#     4  11  22  41  70 104 134 182 231 283 342 415
#
# _framework density 21.290133999999998
#
# number of rings (size 3 to 8) (size 9 to 14) (size 15 to 20)
#    0.000    1.000    2.500    4.125    7.000    0.000 
#    0.000    0.625    0.000    0.000    0.000    0.000 
#    0.000    0.000    0.000    0.000    0.000    0.000 
#
# Total GULP energy -178707.196065 kJ/mol
# GULP energy per Si atom -5584.599877 kJ/mol
# Density = 2.124168 g / cm^3
# Si number density = 21.290134 Si / 1000 Ang^3
#
#
#
# Elastic Constant Matrix: (Units=GPa)
#
#
# Indices 1 2 3 4 5 6 
#
# 1 115.5111 32.2716 14.4068 0.0000 0.0000 0.0000
# 2 32.2716 55.1314 19.1488 0.0000 0.0000 0.0000
# 3 14.4068 19.1488 83.4454 0.0000 0.0000 0.0000
# 4 0.0000 0.0000 0.0000 31.4901 0.0000 0.0000
# 5 0.0000 0.0000 0.0000 0.0000 25.2784 0.0000
# 6 0.0000 0.0000 0.0000 0.0000 0.0000 20.3592
#
#
#
# Elastic Compliance Matrix: (Units=1/GPa)
#
#
# Indices 1 2 3 4 5 6 
#
# 1 0.010364 -0.005917 -0.000432 0.000000 0.000000 0.000000
# 2 -0.005917 0.023087 -0.004276 0.000000 0.000000 0.000000
# 3 -0.000432 -0.004276 0.013040 0.000000 0.000000 0.000000
# 4 0.000000 0.000000 0.000000 0.031756 0.000000 0.000000
# 5 0.000000 0.000000 0.000000 0.000000 0.039559 0.000000
# 6 0.000000 0.000000 0.000000 0.000000 0.000000 0.049118
#
#
# Mechanical properties :
#
#
# Convention : Reuss Voigt Hill
#
# Bulk Modulus (GPa) = 39.61745 42.86025 41.23885
# Shear Modulus (GPa) = 25.43392 27.97625 26.70508
#
# Velocity S-wave (km/s) = 3.46010 3.62891 3.54551
# Velocity P-wave (km/s) = 5.88318 6.14279 6.01439
#
# Compressibility (1/GPa) = 0.02524140
#
# Stress axis : x y z
#
# Youngs Moduli (GPa) = 96.48757 43.31398 76.68858
#
# Poissons Ratio (x) = 0.25628 0.03310
# Poissons Ratio (y) = 0.57089 0.32796
# Poissons Ratio (z) = 0.04164 0.18523
#
# Static dielectric constant tensor:
#      x y z
#    x 1.781120 0.000000 0.000000 
#    y 0.000000 1.851160 0.000000 
#    z 0.000000 0.000000 1.836310 
# 
# From -- ./inp_files/20265.got.cif
#   From: 2010.05.17/outbox.cif.g08.bks.cpg/sg20_11_cif.got.tgz:20265.got - 2010.06.03 22:52:26.
