data_PCOD9318033
_publ_section_title
;
Structure prediction by ZEFSAII (Michael W. Deem and Ramdas Pophale) SiO2 
 PCOD9318033
Probable space group: C 2 2 21
;
_chemical_formula_sum "Si O2"
_cell_formula_units_Z 40
_cell_length_a 13.179100
_cell_length_b 13.374068
_cell_length_c 10.341333
_cell_angle_alpha 90.000000
_cell_angle_beta 90.000000
_cell_angle_gamma 90.000000
_cell_volume 1822.744529
_symmetry_space_group_name_H-M "C 2 2 21"
_symmetry_group_IT_number 20
_symmetry_cell_setting 'orthorhombic'
loop_
_space_group_symop_operation_xyz
x,y,z
-x,-y,1/2+z
x,-y,-z
-x,y,1/2-z
1/2+x,1/2+y,z
1/2-x,1/2-y,1/2+z
1/2+x,1/2-y,-z
1/2-x,1/2+y,1/2-z
loop_
_atom_site_type_symbol
_atom_site_label
_atom_site_fract_x
_atom_site_fract_y
_atom_site_fract_z
Si Si1 0.600633 0.073429 0.311654
Si Si2 0.957184 0.699607 0.946279
Si Si3 0.159149 0.708489 0.079773
Si Si4 0.276220 0.879318 0.194941
Si Si5 0.155444 0.890780 0.463275
O O1 0.500000 0.022266 0.250000
O O2 0.579529 0.114595 0.453360
O O3 0.615712 0.167962 0.215699
O O4 0.691244 0.994541 0.317524
O O5 0.926169 0.806112 0.006738
O O6 0.078027 0.696944 0.965066
O O7 0.885230 0.679348 0.822400
O O8 0.206327 0.819036 0.092072
O O9 0.250377 0.632332 0.056494
O O10 0.207899 0.876361 0.323923
O O11 0.116438 0.000000 0.500000
#
# Coordination Sequence:
#
# PCOD9318033 Si02
#       5
#     8   8   8   8   8
#     4  10  20  37  62  89 120 160 207 261 317 367
#     4  10  23  40  60  90 128 163 213 257 319 380
#     4  10  22  40  62  89 126 167 203 265 316 375
#     4  11  22  37  64  93 125 161 212 266 315 378
#     4  11  22  38  63  90 124 167 212 258 318 380
#
# _framework density 21.944931
#
# number of rings (size 3 to 8) (size 9 to 14) (size 15 to 20)
#    0.000    1.600    4.000    0.600    2.800    0.000 
#    0.000    4.000    0.000    2.400    0.000    0.000 
#    0.000    0.000    0.000    0.000    0.000    0.000 
#
# Total GULP energy -111449.407609 kJ/mol
# GULP energy per Si atom -5572.470380 kJ/mol
# Density = 2.189498 g / cm^3
# Si number density = 21.944931 Si / 1000 Ang^3
#
#
#
# Elastic Constant Matrix: (Units=GPa)
#
#
# Indices 1 2 3 4 5 6 
#
# 1 42.1854 18.2833 -10.5341 0.0000 0.0000 0.0000
# 2 18.2833 121.6914 14.5469 0.0000 0.0000 0.0000
# 3 -10.5341 14.5469 70.6549 0.0000 0.0000 0.0000
# 4 0.0000 0.0000 0.0000 16.2551 0.0000 0.0000
# 5 0.0000 0.0000 0.0000 0.0000 18.5679 0.0000
# 6 0.0000 0.0000 0.0000 0.0000 0.0000 37.3013
#
#
#
# Elastic Compliance Matrix: (Units=1/GPa)
#
#
# Indices 1 2 3 4 5 6 
#
# 1 0.026961 -0.004646 0.004976 0.000000 0.000000 0.000000
# 2 -0.004646 0.009225 -0.002592 0.000000 0.000000 0.000000
# 3 0.004976 -0.002592 0.015429 0.000000 0.000000 0.000000
# 4 0.000000 0.000000 0.000000 0.061519 0.000000 0.000000
# 5 0.000000 0.000000 0.000000 0.000000 0.053856 0.000000
# 6 0.000000 0.000000 0.000000 0.000000 0.000000 0.026809
#
#
# Mechanical properties :
#
#
# Convention : Reuss Voigt Hill
#
# Bulk Modulus (GPa) = 21.23493 31.01377 26.12435
# Shear Modulus (GPa) = 23.36238 28.57392 25.96815
#
# Velocity S-wave (km/s) = 3.26635 3.61234 3.44369
# Velocity P-wave (km/s) = 4.89110 5.61800 5.26710
#
# Compressibility (1/GPa) = 0.04709221
#
# Stress axis : x y z
#
# Youngs Moduli (GPa) = 37.09084 108.39745 64.81360
#
# Poissons Ratio (x) = 0.50356 -0.32252
# Poissons Ratio (y) = 0.17231 0.16800
# Poissons Ratio (z) = -0.18457 0.28096
#
# Static dielectric constant tensor:
#      x y z
#    x 1.837660 0.000000 0.000000 
#    y 0.000000 1.801740 0.000000 
#    z 0.000000 0.000000 1.887190 
# 
# From -- ./inp_files/13851.got.cif
#   From: 2010.05.17/outbox.cif.g08.bks.cpg/sg20_7_cif.got.tgz:13851.got - 2010.06.03 22:52:26.
