data_PCOD9318059
_publ_section_title
;
Structure prediction by ZEFSAII (Michael W. Deem and Ramdas Pophale) SiO2 
 PCOD9318059
Probable space group: C 2 2 21
;
_chemical_formula_sum "Si O2"
_cell_formula_units_Z 64
_cell_length_a 18.040313
_cell_length_b 12.523265
_cell_length_c 14.374979
_cell_angle_alpha 90.000000
_cell_angle_beta 90.000000
_cell_angle_gamma 90.000000
_cell_volume 3247.647299
_symmetry_space_group_name_H-M "C 2 2 21"
_symmetry_group_IT_number 20
_symmetry_cell_setting 'orthorhombic'
loop_
_space_group_symop_operation_xyz
x,y,z
-x,-y,1/2+z
x,-y,-z
-x,y,1/2-z
1/2+x,1/2+y,z
1/2-x,1/2-y,1/2+z
1/2+x,1/2-y,-z
1/2-x,1/2+y,1/2-z
loop_
_atom_site_type_symbol
_atom_site_label
_atom_site_fract_x
_atom_site_fract_y
_atom_site_fract_z
Si Si1 0.324403 0.206284 0.613793
Si Si2 0.664818 0.671044 0.822252
Si Si3 0.522007 0.676431 0.142290
Si Si4 0.247680 0.346821 0.929724
Si Si5 0.171913 0.329180 0.654282
Si Si6 0.594015 0.703651 0.508643
Si Si7 0.484924 0.575560 0.639482
Si Si8 0.723834 0.017280 0.765986
O O1 0.399446 0.271238 0.620115
O O2 0.308768 0.146660 0.516223
O O3 0.253810 0.284240 0.629063
O O4 0.320321 0.117780 0.694157
O O5 0.726204 0.733501 0.882553
O O6 0.645507 0.754092 0.739806
O O7 0.591918 0.638031 0.878384
O O8 0.700836 0.566166 0.776278
O O9 0.500000 0.688567 0.250000
O O10 0.523602 0.549879 0.120619
O O11 0.459466 0.726653 0.076799
O O12 0.239962 0.436811 0.851281
O O13 0.330219 0.347884 0.970481
O O14 0.119177 0.305970 0.567996
O O15 0.180637 0.448652 0.689745
O O16 0.550590 0.625191 0.578755
O O17 0.500000 0.587115 0.750000
#
# Coordination Sequence:
#
# PCOD9318059 Si02
#       8
#     8   8   8   8   8   8   8   8
#     4  10  21  41  61  90 131 164 213 266 321 388
#     4  10  20  37  65  92 133 163 207 271 319 383
#     4  11  26  38  65  93 136 169 208 264 332 395
#     4  10  23  39  67  97 124 171 218 268 321 388
#     4   9  20  38  63  95 120 163 217 265 315 375
#     4  11  23  40  62  93 139 163 209 269 325 388
#     4  11  22  37  63 102 128 165 209 264 337 392
#     4  10  21  37  71  91 122 167 226 265 319 377
#
# _framework density 19.706575000000001
#
# number of rings (size 3 to 8) (size 9 to 14) (size 15 to 20)
#    0.000    1.750    1.250    2.250    8.750    3.000 
#    0.000    5.000   11.000    0.000    0.000    0.000 
#    0.000    0.000    0.000    0.000    0.000    0.000 
#
# Total GULP energy -178818.603498 kJ/mol
# GULP energy per Si atom -5588.081359 kJ/mol
# Density = 1.966172 g / cm^3
# Si number density = 19.706575 Si / 1000 Ang^3
#
#
#
# Elastic Constant Matrix: (Units=GPa)
#
#
# Indices 1 2 3 4 5 6 
#
# 1 124.0549 49.0425 47.0001 0.0000 0.0000 0.0000
# 2 49.0425 73.7782 35.8780 0.0000 0.0000 0.0000
# 3 47.0001 35.8780 85.8992 0.0000 0.0000 0.0000
# 4 0.0000 0.0000 0.0000 18.9482 0.0000 0.0000
# 5 0.0000 0.0000 0.0000 0.0000 41.3149 0.0000
# 6 0.0000 0.0000 0.0000 0.0000 0.0000 16.9332
#
#
#
# Elastic Compliance Matrix: (Units=1/GPa)
#
#
# Indices 1 2 3 4 5 6 
#
# 1 0.011958 -0.005982 -0.004044 0.000000 0.000000 0.000000
# 2 -0.005982 0.020002 -0.005081 0.000000 0.000000 0.000000
# 3 -0.004044 -0.005081 0.015977 0.000000 0.000000 0.000000
# 4 0.000000 0.000000 0.000000 0.052775 0.000000 0.000000
# 5 0.000000 0.000000 0.000000 0.000000 0.024204 0.000000
# 6 0.000000 0.000000 0.000000 0.000000 0.000000 0.059056
#
#
# Mechanical properties :
#
#
# Convention : Reuss Voigt Hill
#
# Bulk Modulus (GPa) = 56.42922 60.84149 58.63535
# Shear Modulus (GPa) = 22.71760 25.56005 24.13882
#
# Velocity S-wave (km/s) = 3.39896 3.60534 3.50367
# Velocity P-wave (km/s) = 6.64084 6.94781 6.79606
#
# Compressibility (1/GPa) = 0.01772132
#
# Stress axis : x y z
#
# Youngs Moduli (GPa) = 83.62517 49.99622 62.59150
#
# Poissons Ratio (x) = 0.29909 0.25314
# Poissons Ratio (y) = 0.50026 0.31803
# Poissons Ratio (z) = 0.33821 0.25403
#
# Static dielectric constant tensor:
#      x y z
#    x 1.673320 0.000000 0.000000 
#    y 0.000000 1.667130 0.000000 
#    z 0.000000 0.000000 1.744050 
# 
# From -- ./inp_files/21488.got.cif
#   From: 2010.05.17/outbox.cif.g08.bks.cpg/sg20_11_cif.got.tgz:21488.got - 2010.06.03 22:52:26.
