data_PCOD9318961
_publ_section_title
;
Structure prediction by ZEFSAII (Michael W. Deem and Ramdas Pophale) SiO2 
 PCOD9318961
Probable space group: C 2 2 21
;
_chemical_formula_sum "Si O2"
_cell_formula_units_Z 60
_cell_length_a 20.424672
_cell_length_b 7.847756
_cell_length_c 16.464461
_cell_angle_alpha 90.000000
_cell_angle_beta 90.000000
_cell_angle_gamma 90.000000
_cell_volume 2639.052927
_symmetry_space_group_name_H-M "C 2 2 21"
_symmetry_group_IT_number 20
_symmetry_cell_setting 'orthorhombic'
loop_
_space_group_symop_operation_xyz
x,y,z
-x,-y,1/2+z
x,-y,-z
-x,y,1/2-z
1/2+x,1/2+y,z
1/2-x,1/2-y,1/2+z
1/2+x,1/2-y,-z
1/2-x,1/2+y,1/2-z
loop_
_atom_site_type_symbol
_atom_site_label
_atom_site_fract_x
_atom_site_fract_y
_atom_site_fract_z
Si Si1 0.694330 0.412318 0.917515
Si Si2 0.789741 0.452806 0.355623
Si Si3 0.040017 0.838436 0.904369
Si Si4 0.000000 0.037503 0.750000
Si Si5 0.111695 0.279324 0.697575
Si Si6 0.430129 0.030584 0.339313
Si Si7 0.964596 0.679225 0.047418
Si Si8 0.742583 0.704748 0.794463
O O1 0.719521 0.215608 0.910213
O O2 0.614773 0.399959 0.918076
O O3 0.718935 0.544899 0.848476
O O4 0.716586 0.500000 0.000000
O O5 0.857731 0.545125 0.378338
O O6 0.797755 0.363203 0.266704
O O7 0.742932 0.617884 0.342238
O O8 0.047040 0.653737 0.863838
O O9 0.005481 0.943978 0.835173
O O10 0.995311 0.811229 0.983764
O O11 0.067826 0.136179 0.739559
O O12 0.079720 0.442089 0.743593
O O13 0.099273 0.281136 0.601628
O O14 0.184218 0.252020 0.730972
O O15 0.479337 0.157288 0.383757
O O16 0.956191 0.500000 0.000000
#
# Coordination Sequence:
#
# PCOD9318961 Si02
#       8
#     8   8   8   4   8   8   8   8
#     4  11  24  40  64 102 131 157 217 282 332 378
#     4  10  22  41  69  94 121 175 216 269 329 385
#     4  10  24  36  60  92 127 166 213 268 323 387
#     4  12  22  34  58  90 128 168 206 250 332 398
#     4  11  22  37  60  90 128 167 207 255 329 398
#     4   9  20  39  63  91 120 163 222 263 317 389
#     4  10  21  38  61  92 128 167 214 272 328 385
#     4  11  22  43  69  93 131 174 223 273 324 404
#
# _framework density 22.735429
#
# number of rings (size 3 to 8) (size 9 to 14) (size 15 to 20)
#    0.000    1.600    4.000    0.000    9.333    0.533 
#    0.000    0.667    0.000    1.600    0.000    0.000 
#    0.000    0.000    0.000    0.000    0.000    0.000 
#
# Total GULP energy -167318.616218 kJ/mol
# GULP energy per Si atom -5577.287207 kJ/mol
# Density = 2.268368 g / cm^3
# Si number density = 22.735429 Si / 1000 Ang^3
#
#
#
# Elastic Constant Matrix: (Units=GPa)
#
#
# Indices 1 2 3 4 5 6 
#
# 1 37.4157 4.1913 29.2424 0.0000 0.0000 0.0000
# 2 4.1913 79.6617 20.0748 0.0000 0.0000 0.0000
# 3 29.2424 20.0748 102.5805 0.0000 0.0000 0.0000
# 4 0.0000 0.0000 0.0000 51.1825 0.0000 0.0000
# 5 0.0000 0.0000 0.0000 0.0000 25.2087 0.0000
# 6 0.0000 0.0000 0.0000 0.0000 0.0000 18.6525
#
#
#
# Elastic Compliance Matrix: (Units=1/GPa)
#
#
# Indices 1 2 3 4 5 6 
#
# 1 0.034425 0.000696 -0.009950 0.000000 0.000000 0.000000
# 2 0.000696 0.013218 -0.002785 0.000000 0.000000 0.000000
# 3 -0.009950 -0.002785 0.013130 0.000000 0.000000 0.000000
# 4 0.000000 0.000000 0.000000 0.019538 0.000000 0.000000
# 5 0.000000 0.000000 0.000000 0.000000 0.039669 0.000000
# 6 0.000000 0.000000 0.000000 0.000000 0.000000 0.053612
#
#
# Mechanical properties :
#
#
# Convention : Reuss Voigt Hill
#
# Bulk Modulus (GPa) = 27.25131 36.29723 31.77427
# Shear Modulus (GPa) = 23.82071 30.08537 26.95304
#
# Velocity S-wave (km/s) = 3.24039 3.64164 3.44686
# Velocity P-wave (km/s) = 5.10024 5.80360 5.46325
#
# Compressibility (1/GPa) = 0.03669548
#
# Stress axis : x y z
#
# Youngs Moduli (GPa) = 29.04874 75.65246 76.16249
#
# Poissons Ratio (x) = -0.05266 0.75779
# Poissons Ratio (y) = -0.02022 0.21213
# Poissons Ratio (z) = 0.28902 0.21071
#
# Static dielectric constant tensor:
#      x y z
#    x 1.788480 0.000000 0.000000 
#    y 0.000000 1.931390 0.000000 
#    z 0.000000 0.000000 1.903530 
# 
# From -- ./inp_files/21999.got.cif
#   From: 2010.05.17/outbox.cif.g08.bks.cpg/sg20_11_cif.got.tgz:21999.got - 2010.06.03 22:52:26.
