data_PCOD9318245
_publ_section_title
;
Structure prediction by ZEFSAII (Michael W. Deem and Ramdas Pophale) SiO2 
 PCOD9318245
Probable space group: C 2 2 21
;
_chemical_formula_sum "Si O2"
_cell_formula_units_Z 64
_cell_length_a 28.958397
_cell_length_b 11.099245
_cell_length_c 9.055805
_cell_angle_alpha 90.000000
_cell_angle_beta 90.000000
_cell_angle_gamma 90.000000
_cell_volume 2910.683727
_symmetry_space_group_name_H-M "C 2 2 21"
_symmetry_group_IT_number 20
_symmetry_cell_setting 'orthorhombic'
loop_
_space_group_symop_operation_xyz
x,y,z
-x,-y,1/2+z
x,-y,-z
-x,y,1/2-z
1/2+x,1/2+y,z
1/2-x,1/2-y,1/2+z
1/2+x,1/2-y,-z
1/2-x,1/2+y,1/2-z
loop_
_atom_site_type_symbol
_atom_site_label
_atom_site_fract_x
_atom_site_fract_y
_atom_site_fract_z
Si Si1 0.160453 0.765377 0.408272
Si Si2 0.049990 0.194977 0.215247
Si Si3 0.093916 0.397611 0.391320
Si Si4 0.166404 0.798971 0.079443
Si Si5 0.910997 0.966224 0.152713
Si Si6 0.769639 0.378622 0.084203
Si Si7 0.169113 0.412685 0.141410
Si Si8 0.434733 0.378196 0.423679
O O1 0.124174 0.686293 0.499691
O O2 0.166987 0.727999 0.237095
O O3 0.136687 0.897603 0.391475
O O4 0.206637 0.736336 0.502128
O O5 0.057425 0.311990 0.312914
O O6 0.000000 0.142736 0.250000
O O7 0.088407 0.093666 0.259315
O O8 0.052529 0.222399 0.040824
O O9 0.075720 0.500000 0.500000
O O10 0.127885 0.441295 0.257937
O O11 0.214961 0.865699 0.074625
O O12 0.121235 0.881170 0.083010
O O13 0.160661 0.714588 0.938211
O O14 0.942873 0.876995 0.249922
O O15 0.934213 0.000000 0.000000
O O16 0.786848 0.395341 0.251682
O O17 0.784994 0.500000 0.000000
O O18 0.174305 0.500000 0.000000
O O19 0.452259 0.500000 0.500000
#
# Coordination Sequence:
#
# PCOD9318245 Si02
#       8
#     8   8   8   8   8   8   8   8
#     4  10  21  40  63  93 131 173 229 270 344 408
#     4  11  23  43  68 101 139 174 227 289 357 427
#     4  11  22  42  69  91 129 181 226 282 343 422
#     4  11  20  37  61  88 128 168 224 277 334 403
#     4  10  20  38  67  98 134 173 218 275 347 419
#     4  11  23  38  57  93 133 176 221 279 333 402
#     4  11  22  38  63  89 123 172 231 277 336 406
#     4   9  20  37  60  94 127 171 216 269 344 404
#
# _framework density 21.987960000000001
#
# number of rings (size 3 to 8) (size 9 to 14) (size 15 to 20)
#    0.000    1.500    2.500    4.125    0.000    1.500 
#    0.000    8.750    0.000    0.000    0.000    0.000 
#    0.000    0.000    0.000    0.000    0.000    0.000 
#
# Total GULP energy -178278.819669 kJ/mol
# GULP energy per Si atom -5571.213115 kJ/mol
# Density = 2.193791 g / cm^3
# Si number density = 21.987960 Si / 1000 Ang^3
#
#
#
# Elastic Constant Matrix: (Units=GPa)
#
#
# Indices 1 2 3 4 5 6 
#
# 1 75.6363 21.7890 15.9013 0.0000 0.0000 0.0000
# 2 21.7890 71.1269 41.4689 0.0000 0.0000 0.0000
# 3 15.9013 41.4689 183.6567 0.0000 0.0000 0.0000
# 4 0.0000 0.0000 0.0000 47.2215 0.0000 0.0000
# 5 0.0000 0.0000 0.0000 0.0000 12.1333 0.0000
# 6 0.0000 0.0000 0.0000 0.0000 0.0000 14.8128
#
#
#
# Elastic Compliance Matrix: (Units=1/GPa)
#
#
# Indices 1 2 3 4 5 6 
#
# 1 0.014514 -0.004277 -0.000291 0.000000 0.000000 0.000000
# 2 -0.004277 0.017451 -0.003570 0.000000 0.000000 0.000000
# 3 -0.000291 -0.003570 0.006276 0.000000 0.000000 0.000000
# 4 0.000000 0.000000 0.000000 0.021177 0.000000 0.000000
# 5 0.000000 0.000000 0.000000 0.000000 0.082418 0.000000
# 6 0.000000 0.000000 0.000000 0.000000 0.000000 0.067509
#
#
# Mechanical properties :
#
#
# Convention : Reuss Voigt Hill
#
# Bulk Modulus (GPa) = 45.52480 54.30424 49.91452
# Shear Modulus (GPa) = 21.46452 31.58425 26.52438
#
# Velocity S-wave (km/s) = 3.12780 3.79414 3.47697
# Velocity P-wave (km/s) = 5.81322 6.62910 6.23452
#
# Compressibility (1/GPa) = 0.02196605
#
# Stress axis : x y z
#
# Youngs Moduli (GPa) = 68.89741 57.30355 159.33096
#
# Poissons Ratio (x) = 0.24507 0.04637
# Poissons Ratio (y) = 0.29465 0.56882
# Poissons Ratio (z) = 0.02005 0.20458
#
# Static dielectric constant tensor:
#      x y z
#    x 1.804490 0.000000 0.000000 
#    y 0.000000 1.859320 0.000000 
#    z 0.000000 0.000000 1.907120 
# 
# From -- ./inp_files/11638.got.cif
#   From: 2010.05.17/outbox.cif.g08.bks.cpg/sg20_6_cif.got.tgz:11638.got - 2010.06.03 22:52:26.
