data_PCOD9318577
_publ_section_title
;
Structure prediction by ZEFSAII (Michael W. Deem and Ramdas Pophale) SiO2 
 PCOD9318577
Probable space group: C 2 2 21
;
_chemical_formula_sum "Si O2"
_cell_formula_units_Z 56
_cell_length_a 8.737577
_cell_length_b 20.428729
_cell_length_c 15.201267
_cell_angle_alpha 90.000000
_cell_angle_beta 90.000000
_cell_angle_gamma 90.000000
_cell_volume 2713.389565
_symmetry_space_group_name_H-M "C 2 2 21"
_symmetry_group_IT_number 20
_symmetry_cell_setting 'orthorhombic'
loop_
_space_group_symop_operation_xyz
x,y,z
-x,-y,1/2+z
x,-y,-z
-x,y,1/2-z
1/2+x,1/2+y,z
1/2-x,1/2-y,1/2+z
1/2+x,1/2-y,-z
1/2-x,1/2+y,1/2-z
loop_
_atom_site_type_symbol
_atom_site_label
_atom_site_fract_x
_atom_site_fract_y
_atom_site_fract_z
Si Si1 0.534026 0.000000 0.000000
Si Si2 0.145665 0.698502 0.686614
Si Si3 0.788721 0.571965 0.914324
Si Si4 0.977590 0.000000 0.500000
Si Si5 0.280591 0.603189 0.060623
Si Si6 0.818535 0.325990 0.738664
Si Si7 0.229093 0.670124 0.431012
Si Si8 0.451714 0.727434 0.009267
O O1 0.639508 0.937842 0.977295
O O2 0.427779 0.020841 0.917437
O O3 0.206354 0.626713 0.660628
O O4 0.268795 0.750292 0.723143
O O5 0.085925 0.731683 0.596836
O O6 0.000000 0.693482 0.750000
O O7 0.629646 0.535500 0.928557
O O8 0.810873 0.609740 0.007601
O O9 0.079739 0.947472 0.551521
O O10 0.242376 0.631295 0.156860
O O11 0.336714 0.666100 0.005161
O O12 0.738954 0.346639 0.830536
O O13 0.000000 0.334133 0.750000
O O14 0.376223 0.702507 0.478971
O O15 0.089610 0.722259 0.432387
#
# Coordination Sequence:
#
# PCOD9318577 Si02
#       8
#     4   8   8   4   8   8   8   8
#     4  10  22  40  62  88 122 172 214 258 290 376
#     4  10  21  40  62  92 127 158 196 259 324 377
#     4  10  22  39  66  89 124 166 214 250 314 371
#     4  10  20  42  64  92 120 174 220 260 292 386
#     4  10  22  40  64  90 124 164 218 257 314 367
#     4  11  24  38  63  96 130 159 202 268 330 378
#     4  11  22  38  65  95 129 157 207 261 321 395
#     4  10  22  36  64  96 121 160 202 254 326 378
#
# _framework density 20.638392
#
# number of rings (size 3 to 8) (size 9 to 14) (size 15 to 20)
#    0.000    1.714    2.857    0.857   10.000    0.000 
#    0.000    5.000    0.000    1.714    0.000    0.000 
#    0.000    0.000    0.000    0.000    0.000    0.000 
#
# Total GULP energy -156350.875842 kJ/mol
# GULP energy per Si atom -5583.959852 kJ/mol
# Density = 2.059142 g / cm^3
# Si number density = 20.638392 Si / 1000 Ang^3
#
#
#
# Elastic Constant Matrix: (Units=GPa)
#
#
# Indices 1 2 3 4 5 6 
#
# 1 103.9515 33.1738 8.1835 0.0000 0.0000 0.0000
# 2 33.1738 88.5514 15.1962 0.0000 0.0000 0.0000
# 3 8.1835 15.1962 55.2638 0.0000 0.0000 0.0000
# 4 0.0000 0.0000 0.0000 22.5729 0.0000 0.0000
# 5 0.0000 0.0000 0.0000 0.0000 19.9368 0.0000
# 6 0.0000 0.0000 0.0000 0.0000 0.0000 38.1648
#
#
#
# Elastic Compliance Matrix: (Units=1/GPa)
#
#
# Indices 1 2 3 4 5 6 
#
# 1 0.010940 -0.004010 -0.000517 0.000000 0.000000 0.000000
# 2 -0.004010 0.013322 -0.003069 0.000000 0.000000 0.000000
# 3 -0.000517 -0.003069 0.019016 0.000000 0.000000 0.000000
# 4 0.000000 0.000000 0.000000 0.044301 0.000000 0.000000
# 5 0.000000 0.000000 0.000000 0.000000 0.050158 0.000000
# 6 0.000000 0.000000 0.000000 0.000000 0.000000 0.026202
#
#
# Mechanical properties :
#
#
# Convention : Reuss Voigt Hill
#
# Bulk Modulus (GPa) = 35.60682 40.09707 37.85195
# Shear Modulus (GPa) = 26.52609 28.88246 27.70427
#
# Velocity S-wave (km/s) = 3.58897 3.74498 3.66781
# Velocity P-wave (km/s) = 5.87064 6.17822 6.02639
#
# Compressibility (1/GPa) = 0.02808451
#
# Stress axis : x y z
#
# Youngs Moduli (GPa) = 91.40590 75.06515 52.58820
#
# Poissons Ratio (x) = 0.30099 0.02721
# Poissons Ratio (y) = 0.36651 0.16141
# Poissons Ratio (z) = 0.04730 0.23041
#
# Static dielectric constant tensor:
#      x y z
#    x 1.783840 0.000000 0.000000 
#    y 0.000000 1.759740 0.000000 
#    z 0.000000 0.000000 1.729600 
# 
# From -- ./inp_files/19240.got.cif
#   From: 2010.05.17/outbox.cif.g08.bks.cpg/sg20_10_cif.got.tgz:19240.got - 2010.06.03 22:52:26.
