data_PCOD9318036
_publ_section_title
;
Structure prediction by ZEFSAII (Michael W. Deem and Ramdas Pophale) SiO2 
 PCOD9318036
Probable space group: C 2 2 21
;
_chemical_formula_sum "Si O2"
_cell_formula_units_Z 40
_cell_length_a 15.076152
_cell_length_b 8.322688
_cell_length_c 13.751079
_cell_angle_alpha 90.000000
_cell_angle_beta 90.000000
_cell_angle_gamma 90.000000
_cell_volume 1725.404390
_symmetry_space_group_name_H-M "C 2 2 21"
_symmetry_group_IT_number 20
_symmetry_cell_setting 'orthorhombic'
loop_
_space_group_symop_operation_xyz
x,y,z
-x,-y,1/2+z
x,-y,-z
-x,y,1/2-z
1/2+x,1/2+y,z
1/2-x,1/2-y,1/2+z
1/2+x,1/2-y,-z
1/2-x,1/2+y,1/2-z
loop_
_atom_site_type_symbol
_atom_site_label
_atom_site_fract_x
_atom_site_fract_y
_atom_site_fract_z
Si Si1 0.745338 0.172945 0.598696
Si Si2 0.649513 0.845665 0.059409
Si Si3 0.749044 0.004278 0.218074
Si Si4 0.955947 0.746706 0.959853
Si Si5 0.445799 0.423929 0.152956
O O1 0.809900 0.200782 0.505967
O O2 0.751672 0.015754 0.666099
O O3 0.768511 0.319398 0.673858
O O4 0.642443 0.187663 0.566876
O O5 0.681575 0.877411 0.168705
O O6 0.543657 0.852784 0.061347
O O7 0.685872 0.000000 0.000000
O O8 0.844106 0.950901 0.178537
O O9 0.973225 0.910865 0.899811
O O10 0.956113 0.785891 0.073940
O O11 0.500000 0.394582 0.250000
#
# Coordination Sequence:
#
# PCOD9318036 Si02
#       5
#     8   8   8   8   8
#     4  10  21  41  62  91 124 159 209 256 310 372
#     4  10  21  40  60  85 125 164 197 252 320 364
#     4  10  21  38  63  88 121 164 198 257 315 362
#     4  10  21  37  62  91 121 160 204 255 305 363
#     4  10  20  37  62  91 120 157 209 254 297 363
#
# _framework density 23.182970000000001
#
# number of rings (size 3 to 8) (size 9 to 14) (size 15 to 20)
#    0.000    2.000    2.000    1.200    5.600    0.000 
#    3.600    0.000    0.000    0.000    0.000    0.000 
#    0.000    0.000    0.000    0.000    0.000    0.000 
#
# Total GULP energy -111758.400008 kJ/mol
# GULP energy per Si atom -5587.920000 kJ/mol
# Density = 2.313020 g / cm^3
# Si number density = 23.182970 Si / 1000 Ang^3
#
#
#
# Elastic Constant Matrix: (Units=GPa)
#
#
# Indices 1 2 3 4 5 6 
#
# 1 65.1553 10.1121 8.5263 0.0000 0.0000 0.0000
# 2 10.1121 38.1054 25.8018 0.0000 0.0000 0.0000
# 3 8.5263 25.8018 100.5112 0.0000 0.0000 0.0000
# 4 0.0000 0.0000 0.0000 30.5234 0.0000 0.0000
# 5 0.0000 0.0000 0.0000 0.0000 -123.1685 0.0000
# 6 0.0000 0.0000 0.0000 0.0000 0.0000 17.6515
#
#
#
# Elastic Compliance Matrix: (Units=1/GPa)
#
#
# Indices 1 2 3 4 5 6 
#
# 1 0.016016 -0.004031 -0.000324 0.000000 0.000000 0.000000
# 2 -0.004031 0.032779 -0.008073 0.000000 0.000000 0.000000
# 3 -0.000324 -0.008073 0.012049 0.000000 0.000000 0.000000
# 4 0.000000 0.000000 0.000000 0.032762 0.000000 0.000000
# 5 0.000000 0.000000 0.000000 0.000000 -0.008119 0.000000
# 6 0.000000 0.000000 0.000000 0.000000 0.000000 0.056653
#
#
# Mechanical properties :
#
#
# Convention : Reuss Voigt Hill
#
# Bulk Modulus (GPa) = 27.78630 32.51690 30.15160
# Shear Modulus (GPa) = 27.93456 -4.37660 11.77898
#
# Velocity S-wave (km/s) = 3.47502 -1.37548 2.25653
# Velocity P-wave (km/s) = 5.30214 3.39618 4.45234
#
# Compressibility (1/GPa) = 0.03598896
#
# Stress axis : x y z
#
# Youngs Moduli (GPa) = 62.43786 30.50758 82.99528
#
# Poissons Ratio (x) = 0.12297 0.02688
# Poissons Ratio (y) = 0.25168 0.66998
# Poissons Ratio (z) = 0.02022 0.24627
#
# Static dielectric constant tensor:
#      x y z
#    x 1.833400 0.000000 0.000000 
#    y 0.000000 1.961230 0.000000 
#    z 0.000000 0.000000 1.866400 
# 
# From -- ./inp_files/13863.got.cif
#   From: 2010.05.17/outbox.cif.g08.bks.cpg/sg20_7_cif.got.tgz:13863.got - 2010.06.03 22:52:26.
