data_PCOD9318125
_publ_section_title
;
Structure prediction by ZEFSAII (Michael W. Deem and Ramdas Pophale) SiO2 
 PCOD9318125
Probable space group: C 2 2 21
;
_chemical_formula_sum "Si O2"
_cell_formula_units_Z 40
_cell_length_a 26.236603
_cell_length_b 8.604513
_cell_length_c 9.166360
_cell_angle_alpha 90.000000
_cell_angle_beta 90.000000
_cell_angle_gamma 90.000000
_cell_volume 2069.335025
_symmetry_space_group_name_H-M "C 2 2 21"
_symmetry_group_IT_number 20
_symmetry_cell_setting 'orthorhombic'
loop_
_space_group_symop_operation_xyz
x,y,z
-x,-y,1/2+z
x,-y,-z
-x,y,1/2-z
1/2+x,1/2+y,z
1/2-x,1/2-y,1/2+z
1/2+x,1/2-y,-z
1/2-x,1/2+y,1/2-z
loop_
_atom_site_type_symbol
_atom_site_label
_atom_site_fract_x
_atom_site_fract_y
_atom_site_fract_z
Si Si1 0.951695 0.093829 0.149459
Si Si2 0.360378 0.613680 0.749071
Si Si3 0.689293 0.171159 0.045220
Si Si4 0.367848 0.180003 0.961821
Si Si5 0.214225 0.174624 0.252685
O O1 0.919367 0.246570 0.105884
O O2 0.000000 0.125230 0.250000
O O3 0.911752 0.985065 0.236922
O O4 0.964467 0.000000 0.000000
O O5 0.355319 0.721205 0.607881
O O6 0.313924 0.491546 0.748842
O O7 0.357364 0.719391 0.893107
O O8 0.731411 0.158080 0.171971
O O9 0.715392 0.254715 0.908018
O O10 0.672134 0.000000 0.000000
O O11 0.321949 0.214821 0.850322
O O12 0.371924 0.000000 0.000000
#
# Coordination Sequence:
#
# PCOD9318125 Si02
#       5
#     8   8   8   8   8
#     4   9  20  39  64  85 110 148 188 231 284 343
#     4  10  22  40  58  82 115 152 192 229 279 342
#     4  12  23  35  55  85 117 153 193 236 278 326
#     4  10  20  38  60  85 115 147 187 238 283 328
#     4  11  22  36  56  81 116 158 192 228 277 339
#
# _framework density 19.329882999999999
#
# number of rings (size 3 to 8) (size 9 to 14) (size 15 to 20)
#    0.000    1.600    0.000    7.200    0.000    4.800 
#    0.000    4.000    0.000    6.000    0.000    0.000 
#    0.000    0.000    0.000    0.000    0.000    0.000 
#
# Total GULP energy -111862.284243 kJ/mol
# GULP energy per Si atom -5593.114212 kJ/mol
# Density = 1.928589 g / cm^3
# Si number density = 19.329883 Si / 1000 Ang^3
#
#
#
# Elastic Constant Matrix: (Units=GPa)
#
#
# Indices 1 2 3 4 5 6 
#
# 1 46.8896 32.3461 14.3458 0.0000 0.0000 0.0000
# 2 32.3461 144.0945 43.0866 0.0000 0.0000 0.0000
# 3 14.3458 43.0866 73.1639 0.0000 0.0000 0.0000
# 4 0.0000 0.0000 0.0000 26.5159 0.0000 0.0000
# 5 0.0000 0.0000 0.0000 0.0000 41.2738 0.0000
# 6 0.0000 0.0000 0.0000 0.0000 0.0000 7.2836
#
#
#
# Elastic Compliance Matrix: (Units=1/GPa)
#
#
# Indices 1 2 3 4 5 6 
#
# 1 0.025467 -0.005126 -0.001975 0.000000 0.000000 0.000000
# 2 -0.005126 0.009455 -0.004563 0.000000 0.000000 0.000000
# 3 -0.001975 -0.004563 0.016742 0.000000 0.000000 0.000000
# 4 0.000000 0.000000 0.000000 0.037713 0.000000 0.000000
# 5 0.000000 0.000000 0.000000 0.000000 0.024228 0.000000
# 6 0.000000 0.000000 0.000000 0.000000 0.000000 0.137294
#
#
# Mechanical properties :
#
#
# Convention : Reuss Voigt Hill
#
# Bulk Modulus (GPa) = 35.29001 49.30055 42.29528
# Shear Modulus (GPa) = 17.62589 26.63929 22.13259
#
# Velocity S-wave (km/s) = 3.02296 3.71636 3.38745
# Velocity P-wave (km/s) = 5.52093 6.63139 6.10148
#
# Compressibility (1/GPa) = 0.02833663
#
# Stress axis : x y z
#
# Youngs Moduli (GPa) = 39.26626 105.76353 59.72909
#
# Poissons Ratio (x) = 0.54219 0.11794
# Poissons Ratio (y) = 0.20129 0.27254
# Poissons Ratio (z) = 0.07753 0.48260
#
# Static dielectric constant tensor:
#      x y z
#    x 1.647560 0.000000 0.000000 
#    y 0.000000 1.677730 0.000000 
#    z 0.000000 0.000000 1.684610 
# 
# From -- ./inp_files/6073.got.cif
#   From: 2010.05.17/outbox.cif.g08.bks.cpg/sg20_4_cif.got.tgz:6073.got - 2010.06.03 22:52:26.
