data_PCOD9318752
_publ_section_title
;
Structure prediction by ZEFSAII (Michael W. Deem and Ramdas Pophale) SiO2 
 PCOD9318752
Probable space group: C 2 2 21
;
_chemical_formula_sum "Si O2"
_cell_formula_units_Z 48
_cell_length_a 8.876169
_cell_length_b 10.729903
_cell_length_c 21.212560
_cell_angle_alpha 90.000000
_cell_angle_beta 90.000000
_cell_angle_gamma 90.000000
_cell_volume 2020.293386
_symmetry_space_group_name_H-M "C 2 2 21"
_symmetry_group_IT_number 20
_symmetry_cell_setting 'orthorhombic'
loop_
_space_group_symop_operation_xyz
x,y,z
-x,-y,1/2+z
x,-y,-z
-x,y,1/2-z
1/2+x,1/2+y,z
1/2-x,1/2-y,1/2+z
1/2+x,1/2-y,-z
1/2-x,1/2+y,1/2-z
loop_
_atom_site_type_symbol
_atom_site_label
_atom_site_fract_x
_atom_site_fract_y
_atom_site_fract_z
Si Si1 0.313563 0.518064 0.861867
Si Si2 0.590796 0.172467 0.093393
Si Si3 0.636853 0.947075 0.438043
Si Si4 0.852175 0.293314 0.453466
Si Si5 0.156414 0.067252 0.143973
Si Si6 0.128437 0.249163 0.698386
O O1 0.215967 0.392879 0.863918
O O2 0.255914 0.596278 0.925033
O O3 0.484824 0.473427 0.852005
O O4 0.284093 0.618112 0.806275
O O5 0.474467 0.251341 0.134428
O O6 0.485198 0.057313 0.072291
O O7 0.661279 0.225960 0.028749
O O8 0.527395 0.830901 0.444518
O O9 0.718394 0.000000 0.500000
O O10 0.748040 0.948493 0.379510
O O11 0.831057 0.172459 0.410850
O O12 0.251536 0.138042 0.198108
O O13 0.000000 0.257183 0.750000
#
# Coordination Sequence:
#
# PCOD9318752 Si02
#       6
#     8   8   8   8   8   8
#     4  10  21  36  58  87 116 148 190 243 298 349
#     4   9  19  36  57  81 115 154 186 234 298 348
#     4   8  16  31  49  75 113 147 177 219 274 338
#     4   9  19  35  53  83 123 150 180 232 293 358
#     4  10  21  34  57  86 111 150 195 233 287 352
#     4  10  23  42  58  78 113 157 205 249 287 337
#
# _framework density 23.758925000000001
#
# number of rings (size 3 to 8) (size 9 to 14) (size 15 to 20)
#    0.000    2.667    0.000    1.500    0.000   12.000 
#    0.000    0.000    0.000    0.000    0.000    0.000 
#    0.000    0.000    0.000    0.000    0.000    0.000 
#
# Total GULP energy -133792.104147 kJ/mol
# GULP energy per Si atom -5574.671006 kJ/mol
# Density = 2.370485 g / cm^3
# Si number density = 23.758925 Si / 1000 Ang^3
#
#
#
# Elastic Constant Matrix: (Units=GPa)
#
#
# Indices 1 2 3 4 5 6 
#
# 1 88.8886 19.4936 -9.8448 0.0000 0.0000 0.0000
# 2 19.4936 57.2786 -0.7354 0.0000 0.0000 0.0000
# 3 -9.8448 -0.7354 16.1432 0.0000 0.0000 0.0000
# 4 0.0000 0.0000 0.0000 17.4509 0.0000 0.0000
# 5 0.0000 0.0000 0.0000 0.0000 22.8697 0.0000
# 6 0.0000 0.0000 0.0000 0.0000 0.0000 40.4630
#
#
#
# Elastic Compliance Matrix: (Units=1/GPa)
#
#
# Indices 1 2 3 4 5 6 
#
# 1 0.013064 -0.004346 0.007769 0.000000 0.000000 0.000000
# 2 -0.004346 0.018915 -0.001789 0.000000 0.000000 0.000000
# 3 0.007769 -0.001789 0.066602 0.000000 0.000000 0.000000
# 4 0.000000 0.000000 0.000000 0.057304 0.000000 0.000000
# 5 0.000000 0.000000 0.000000 0.000000 0.043726 0.000000
# 6 0.000000 0.000000 0.000000 0.000000 0.000000 0.024714
#
#
# Mechanical properties :
#
#
# Convention : Reuss Voigt Hill
#
# Bulk Modulus (GPa) = 9.81861 20.01523 14.91692
# Shear Modulus (GPa) = 19.60746 26.38319 22.99532
#
# Velocity S-wave (km/s) = 2.87586 3.33596 3.11442
# Velocity P-wave (km/s) = 3.89474 4.82502 4.38462
#
# Compressibility (1/GPa) = 0.10184741
#
# Stress axis : x y z
#
# Youngs Moduli (GPa) = 76.54869 52.86897 15.01466
#
# Poissons Ratio (x) = 0.22978 -0.11664
# Poissons Ratio (y) = 0.33269 0.02686
# Poissons Ratio (z) = -0.59468 0.09457
#
# Static dielectric constant tensor:
#      x y z
#    x 1.905410 0.000000 0.000000 
#    y 0.000000 1.945580 0.000000 
#    z 0.000000 0.000000 2.007360 
# 
# From -- ./inp_files/28725.got.cif
#   From: 2010.05.17/outbox.cif.g08.bks.cpg/sg20_15_cif.got.tgz:28725.got - 2010.06.03 22:52:26.
