data_PCOD9318310
_publ_section_title
;
Structure prediction by ZEFSAII (Michael W. Deem and Ramdas Pophale) SiO2 
 PCOD9318310
Probable space group: C 2 2 21
;
_chemical_formula_sum "Si O2"
_cell_formula_units_Z 56
_cell_length_a 9.465178
_cell_length_b 15.156599
_cell_length_c 20.469963
_cell_angle_alpha 90.000000
_cell_angle_beta 90.000000
_cell_angle_gamma 90.000000
_cell_volume 2936.618997
_symmetry_space_group_name_H-M "C 2 2 21"
_symmetry_group_IT_number 20
_symmetry_cell_setting 'orthorhombic'
loop_
_space_group_symop_operation_xyz
x,y,z
-x,-y,1/2+z
x,-y,-z
-x,y,1/2-z
1/2+x,1/2+y,z
1/2-x,1/2-y,1/2+z
1/2+x,1/2-y,-z
1/2-x,1/2+y,1/2-z
loop_
_atom_site_type_symbol
_atom_site_label
_atom_site_fract_x
_atom_site_fract_y
_atom_site_fract_z
Si Si1 0.108833 0.170798 0.449123
Si Si2 0.831737 0.500000 0.000000
Si Si3 0.333966 0.326829 0.463744
Si Si4 0.215799 0.368026 0.331674
Si Si5 0.658646 0.974150 0.767640
Si Si6 0.866964 0.185351 0.203587
Si Si7 0.456600 0.944696 0.398205
Si Si8 0.744379 0.500000 0.500000
O O1 0.234361 0.240468 0.464530
O O2 0.084052 0.177491 0.371668
O O3 0.978261 0.190142 0.497532
O O4 0.153378 0.069376 0.460076
O O5 0.741149 0.588470 0.996244
O O6 0.929990 0.492691 0.935498
O O7 0.335836 0.357278 0.387114
O O8 0.212038 0.454783 0.286315
O O9 0.212171 0.279161 0.290148
O O10 0.064453 0.371496 0.370955
O O11 0.500000 0.943177 0.750000
O O12 0.764364 0.894311 0.777557
O O13 0.630268 0.021179 0.836739
O O14 0.000000 0.185074 0.250000
O O15 0.341744 0.936530 0.455006
#
# Coordination Sequence:
#
# PCOD9318310 Si02
#       8
#     8   4   8   8   8   8   8   4
#     4  11  25  39  63  92 128 161 210 262 316 379
#     4   9  19  34  62  84 126 156 204 254 320 364
#     4  10  23  41  62  93 125 166 207 260 318 374
#     4   9  21  41  65  85 128 165 210 250 313 381
#     4  10  20  39  64  86 119 167 209 252 307 381
#     4  11  23  40  61  92 125 163 210 263 317 372
#     4   9  18  34  63  91 114 165 207 248 308 374
#     4  11  21  36  62  92 132 152 210 262 310 366
#
# _framework density 19.06955
#
# number of rings (size 3 to 8) (size 9 to 14) (size 15 to 20)
#    0.000    2.000    1.429    1.714    8.000    4.571 
#    0.000    0.714    0.000    0.000    0.000    0.000 
#    0.000    0.000    0.000    0.000    0.000    0.000 
#
# Total GULP energy -155927.368181 kJ/mol
# GULP energy per Si atom -5568.834578 kJ/mol
# Density = 1.902615 g / cm^3
# Si number density = 19.069550 Si / 1000 Ang^3
#
#
#
# Elastic Constant Matrix: (Units=GPa)
#
#
# Indices 1 2 3 4 5 6 
#
# 1 45.8821 18.6574 47.9809 0.0000 0.0000 0.0000
# 2 18.6574 103.0428 46.1436 0.0000 0.0000 0.0000
# 3 47.9809 46.1436 104.5881 0.0000 0.0000 0.0000
# 4 0.0000 0.0000 0.0000 31.4698 0.0000 0.0000
# 5 0.0000 0.0000 0.0000 0.0000 25.8944 0.0000
# 6 0.0000 0.0000 0.0000 0.0000 0.0000 8.7835
#
#
#
# Elastic Compliance Matrix: (Units=1/GPa)
#
#
# Indices 1 2 3 4 5 6 
#
# 1 0.042027 0.001277 -0.019844 0.000000 0.000000 0.000000
# 2 0.001277 0.012133 -0.005939 0.000000 0.000000 0.000000
# 3 -0.019844 -0.005939 0.021285 0.000000 0.000000 0.000000
# 4 0.000000 0.000000 0.000000 0.031776 0.000000 0.000000
# 5 0.000000 0.000000 0.000000 0.000000 0.038618 0.000000
# 6 0.000000 0.000000 0.000000 0.000000 0.000000 0.113850
#
#
# Mechanical properties :
#
#
# Convention : Reuss Voigt Hill
#
# Bulk Modulus (GPa) = 37.83057 53.23077 45.53067
# Shear Modulus (GPa) = 15.74740 22.61162 19.17951
#
# Velocity S-wave (km/s) = 2.87677 3.44720 3.17482
# Velocity P-wave (km/s) = 5.56019 6.61958 6.11288
#
# Compressibility (1/GPa) = 0.02643365
#
# Stress axis : x y z
#
# Youngs Moduli (GPa) = 23.79407 82.42030 46.98171
#
# Poissons Ratio (x) = -0.10521 0.93229
# Poissons Ratio (y) = -0.03037 0.27901
# Poissons Ratio (z) = 0.47216 0.48946
#
# Static dielectric constant tensor:
#      x y z
#    x 1.668140 0.000000 0.000000 
#    y 0.000000 1.660630 0.000000 
#    z 0.000000 0.000000 1.694920 
# 
# From -- ./inp_files/26763.got.cif
#   From: 2010.05.17/outbox.cif.g08.bks.cpg/sg20_14_cif.got.tgz:26763.got - 2010.06.03 22:52:26.
