data_PCOD9318640
_publ_section_title
;
Structure prediction by ZEFSAII (Michael W. Deem and Ramdas Pophale) SiO2 
 PCOD9318640
Probable space group: C 2 2 21
;
_chemical_formula_sum "Si O2"
_cell_formula_units_Z 48
_cell_length_a 13.156657
_cell_length_b 24.205701
_cell_length_c 6.275270
_cell_angle_alpha 90.000000
_cell_angle_beta 90.000000
_cell_angle_gamma 90.000000
_cell_volume 1998.460798
_symmetry_space_group_name_H-M "C 2 2 21"
_symmetry_group_IT_number 20
_symmetry_cell_setting 'orthorhombic'
loop_
_space_group_symop_operation_xyz
x,y,z
-x,-y,1/2+z
x,-y,-z
-x,y,1/2-z
1/2+x,1/2+y,z
1/2-x,1/2-y,1/2+z
1/2+x,1/2-y,-z
1/2-x,1/2+y,1/2-z
loop_
_atom_site_type_symbol
_atom_site_label
_atom_site_fract_x
_atom_site_fract_y
_atom_site_fract_z
Si Si1 0.077159 0.742619 0.496060
Si Si2 0.848142 0.000000 0.500000
Si Si3 0.000000 0.839802 0.250000
Si Si4 0.163825 0.000000 0.500000
Si Si5 0.000000 0.358221 0.750000
Si Si6 0.272676 0.709847 0.276475
Si Si7 0.211937 0.883054 0.121632
Si Si8 0.304156 0.891187 0.520769
O O1 0.024774 0.684964 0.441748
O O2 0.169950 0.742799 0.323090
O O3 0.133853 0.751441 0.717992
O O4 0.012909 0.797175 0.445779
O O5 0.887690 0.999071 0.242642
O O6 0.791145 0.058591 0.501877
O O7 0.898606 0.876089 0.265932
O O8 0.235007 0.945910 0.520733
O O9 0.903914 0.392656 0.666609
O O10 0.285584 0.669843 0.473996
O O11 0.253973 0.664363 0.094157
O O12 0.311614 0.882619 0.268073
#
# Coordination Sequence:
#
# PCOD9318640 Si02
#       8
#     8   4   4   4   4   8   8   8
#     4  10  22  39  64  94 135 177 236 288 346 423
#     4  10  22  42  72 102 132 188 228 290 357 431
#     4  11  22  42  58 100 130 176 230 295 338 432
#     4  10  20  42  76 102 138 180 234 286 367 429
#     4   9  22  44  70 100 138 174 242 291 354 430
#     4  11  21  42  65  93 130 191 231 280 361 420
#     4  11  23  42  68  98 139 182 236 288 366 425
#     4  10  21  43  70  97 136 180 230 292 359 424
#
# _framework density 24.018484000000001
#
# number of rings (size 3 to 8) (size 9 to 14) (size 15 to 20)
#    0.000    1.667    3.333    1.000    0.000    0.667 
#    3.000    8.333    0.000    0.000    0.000    0.000 
#    0.000    0.000    0.000    0.000    0.000    0.000 
#
# Total GULP energy -133665.019391 kJ/mol
# GULP energy per Si atom -5569.375808 kJ/mol
# Density = 2.396382 g / cm^3
# Si number density = 24.018484 Si / 1000 Ang^3
#
#
#
# Elastic Constant Matrix: (Units=GPa)
#
#
# Indices 1 2 3 4 5 6 
#
# 1 92.9110 43.7377 31.7671 0.0000 0.0000 0.0000
# 2 43.7377 128.8889 34.3932 0.0000 0.0000 0.0000
# 3 31.7671 34.3932 125.4084 0.0000 0.0000 0.0000
# 4 0.0000 0.0000 0.0000 49.8597 0.0000 0.0000
# 5 0.0000 0.0000 0.0000 0.0000 12.0299 0.0000
# 6 0.0000 0.0000 0.0000 0.0000 0.0000 3.2009
#
#
#
# Elastic Compliance Matrix: (Units=1/GPa)
#
#
# Indices 1 2 3 4 5 6 
#
# 1 0.013406 -0.003931 -0.002318 0.000000 0.000000 0.000000
# 2 -0.003931 0.009524 -0.001616 0.000000 0.000000 0.000000
# 3 -0.002318 -0.001616 0.009004 0.000000 0.000000 0.000000
# 4 0.000000 0.000000 0.000000 0.020056 0.000000 0.000000
# 5 0.000000 0.000000 0.000000 0.000000 0.083126 0.000000
# 6 0.000000 0.000000 0.000000 0.000000 0.000000 0.312415
#
#
# Mechanical properties :
#
#
# Convention : Reuss Voigt Hill
#
# Bulk Modulus (GPa) = 61.71144 63.00049 62.35597
# Shear Modulus (GPa) = 10.66868 28.83877 19.75373
#
# Velocity S-wave (km/s) = 2.10986 3.46886 2.87093
# Velocity P-wave (km/s) = 5.62889 6.50622 6.08339
#
# Compressibility (1/GPa) = 0.01620445
#
# Stress axis : x y z
#
# Youngs Moduli (GPa) = 74.59426 105.00055 111.05782
#
# Poissons Ratio (x) = 0.41273 0.25741
# Poissons Ratio (y) = 0.29321 0.17949
# Poissons Ratio (z) = 0.17290 0.16970
#
# Static dielectric constant tensor:
#      x y z
#    x 1.943670 0.000000 0.000000 
#    y 0.000000 1.860580 0.000000 
#    z 0.000000 0.000000 2.162130 
# 
# From -- ./inp_files/2116.got.cif
#   From: 2010.05.17/outbox.cif.g08.bks.cpg/sg20_2_cif.got.tgz:2116.got - 2010.06.03 22:52:26.
