data_PCOD9318488
_publ_section_title
;
Structure prediction by ZEFSAII (Michael W. Deem and Ramdas Pophale) SiO2 
 PCOD9318488
Probable space group: C 2 2 21
;
_chemical_formula_sum "Si O2"
_cell_formula_units_Z 24
_cell_length_a 6.866127
_cell_length_b 18.303032
_cell_length_c 7.816298
_cell_angle_alpha 90.000000
_cell_angle_beta 90.000000
_cell_angle_gamma 90.000000
_cell_volume 982.281534
_symmetry_space_group_name_H-M "C 2 2 21"
_symmetry_group_IT_number 20
_symmetry_cell_setting 'orthorhombic'
loop_
_space_group_symop_operation_xyz
x,y,z
-x,-y,1/2+z
x,-y,-z
-x,y,1/2-z
1/2+x,1/2+y,z
1/2-x,1/2-y,1/2+z
1/2+x,1/2-y,-z
1/2-x,1/2+y,1/2-z
loop_
_atom_site_type_symbol
_atom_site_label
_atom_site_fract_x
_atom_site_fract_y
_atom_site_fract_z
Si Si1 0.785683 0.000000 0.000000
Si Si2 0.220117 0.720349 0.819060
Si Si3 0.220441 0.136359 0.320960
Si Si4 0.500000 0.392772 0.250000
O O1 0.685689 0.057961 0.129359
O O2 0.919542 0.945738 0.106977
O O3 0.296644 0.803446 0.813347
O O4 0.332907 0.663651 0.696278
O O5 0.000000 0.721973 0.750000
O O6 0.259157 0.684711 0.004322
O O7 0.000000 0.120347 0.250000
#
# Coordination Sequence:
#
# PCOD9318488 Si02
#       4
#     4   8   8   4
#     4  10  20  40  70  98 142 194 236 288 372 426
#     4  10  24  41  67 103 143 184 244 299 355 431
#     4  10  22  42  70 105 143 189 242 295 358 435
#     4  10  22  40  70  94 142 194 238 294 360 434
#
# _framework density 24.432912000000002
#
# number of rings (size 3 to 8) (size 9 to 14) (size 15 to 20)
#    0.000    2.000    1.667    0.000   18.667    0.000 
#    0.000    6.667   14.667    0.000    0.000    0.000 
#    0.000    0.000    0.000    0.000    0.000    0.000 
#
# Total GULP energy -66818.699593 kJ/mol
# GULP energy per Si atom -5568.224966 kJ/mol
# Density = 2.437730 g / cm^3
# Si number density = 24.432912 Si / 1000 Ang^3
#
#
#
# Elastic Constant Matrix: (Units=GPa)
#
#
# Indices 1 2 3 4 5 6 
#
# 1 92.4063 32.5904 24.2190 0.0000 0.0000 0.0000
# 2 32.5904 245.9960 49.4420 0.0000 0.0000 0.0000
# 3 24.2190 49.4420 111.0742 0.0000 0.0000 0.0000
# 4 0.0000 0.0000 0.0000 65.0077 0.0000 0.0000
# 5 0.0000 0.0000 0.0000 0.0000 34.9933 0.0000
# 6 0.0000 0.0000 0.0000 0.0000 0.0000 8.0164
#
#
#
# Elastic Compliance Matrix: (Units=1/GPa)
#
#
# Indices 1 2 3 4 5 6 
#
# 1 0.011764 -0.001146 -0.002055 0.000000 0.000000 0.000000
# 2 -0.001146 0.004576 -0.001787 0.000000 0.000000 0.000000
# 3 -0.002055 -0.001787 0.010247 0.000000 0.000000 0.000000
# 4 0.000000 0.000000 0.000000 0.015383 0.000000 0.000000
# 5 0.000000 0.000000 0.000000 0.000000 0.028577 0.000000
# 6 0.000000 0.000000 0.000000 0.000000 0.000000 0.124745
#
#
# Mechanical properties :
#
#
# Convention : Reuss Voigt Hill
#
# Bulk Modulus (GPa) = 60.20004 73.55326 66.87665
# Shear Modulus (GPa) = 23.71868 44.48516 34.10192
#
# Velocity S-wave (km/s) = 3.11909 4.27160 3.74001
# Velocity P-wave (km/s) = 6.13711 7.38230 6.78831
#
# Compressibility (1/GPa) = 0.01661128
#
# Stress axis : x y z
#
# Youngs Moduli (GPa) = 85.00187 218.52846 97.59302
#
# Poissons Ratio (x) = 0.25033 0.20058
# Poissons Ratio (y) = 0.09737 0.17441
# Poissons Ratio (z) = 0.17470 0.39054
#
# Static dielectric constant tensor:
#      x y z
#    x 2.059820 0.000000 0.000000 
#    y 0.000000 1.969140 0.000000 
#    z 0.000000 0.000000 2.244600 
# 
# From -- ./inp_files/5609.got.cif
#   From: 2010.05.17/outbox.cif.g08.bks.cpg/sg20_3_cif.got.tgz:5609.got - 2010.06.03 22:52:26.
