data_PCOD9318323
_publ_section_title
;
Structure prediction by ZEFSAII (Michael W. Deem and Ramdas Pophale) SiO2 
 PCOD9318323
Probable space group: C 2 2 21
;
_chemical_formula_sum "Si O2"
_cell_formula_units_Z 40
_cell_length_a 24.247274
_cell_length_b 12.076083
_cell_length_c 6.131414
_cell_angle_alpha 90.000000
_cell_angle_beta 90.000000
_cell_angle_gamma 90.000000
_cell_volume 1795.352169
_symmetry_space_group_name_H-M "C 2 2 21"
_symmetry_group_IT_number 20
_symmetry_cell_setting 'orthorhombic'
loop_
_space_group_symop_operation_xyz
x,y,z
-x,-y,1/2+z
x,-y,-z
-x,y,1/2-z
1/2+x,1/2+y,z
1/2-x,1/2-y,1/2+z
1/2+x,1/2-y,-z
1/2-x,1/2+y,1/2-z
loop_
_atom_site_type_symbol
_atom_site_label
_atom_site_fract_x
_atom_site_fract_y
_atom_site_fract_z
Si Si1 0.079309 0.120358 0.974823
Si Si2 0.308582 0.679228 0.295170
Si Si3 0.122861 0.250248 0.594426
Si Si4 0.505665 0.825409 0.489570
Si Si5 0.198047 0.614621 0.119165
O O1 0.103353 0.145885 0.735797
O O2 0.135154 0.123538 0.118646
O O3 0.036464 0.220298 0.017474
O O4 0.052943 0.000000 0.000000
O O5 0.253325 0.608695 0.265349
O O6 0.295983 0.783855 0.449135
O O7 0.326786 0.720816 0.058689
O O8 0.068880 0.288951 0.473347
O O9 0.144525 0.348957 0.746553
O O10 0.500000 0.885900 0.250000
O O11 0.500000 0.864104 0.750000
O O12 0.189618 0.500000 0.000000
#
# Coordination Sequence:
#
# PCOD9318323 Si02
#       5
#     8   8   8   8   8
#     4  10  23  37  61 101 137 178 226 282 365 439
#     4  11  22  41  62  93 138 173 229 292 352 425
#     4  10  22  42  60  93 136 182 230 289 349 430
#     4  10  20  39  64  96 134 184 226 290 357 425
#     4  11  25  41  66  98 136 190 240 291 362 435
#
# _framework density 22.279751999999998
#
# number of rings (size 3 to 8) (size 9 to 14) (size 15 to 20)
#    0.000    1.600    4.000    0.000    2.800    3.200 
#    0.000    0.000    0.000    0.000  104.000    0.000 
#    0.000    0.000    0.000    0.000    0.000    0.000 
#
# Total GULP energy -111467.214140 kJ/mol
# GULP energy per Si atom -5573.360707 kJ/mol
# Density = 2.222904 g / cm^3
# Si number density = 22.279752 Si / 1000 Ang^3
#
#
#
# Elastic Constant Matrix: (Units=GPa)
#
#
# Indices 1 2 3 4 5 6 
#
# 1 113.7674 27.0440 25.1841 0.0000 0.0000 0.0000
# 2 27.0440 81.3441 20.7288 0.0000 0.0000 0.0000
# 3 25.1841 20.7288 106.2640 0.0000 0.0000 0.0000
# 4 0.0000 0.0000 0.0000 -28.9603 0.0000 0.0000
# 5 0.0000 0.0000 0.0000 0.0000 58.3055 0.0000
# 6 0.0000 0.0000 0.0000 0.0000 0.0000 176.6903
#
#
#
# Elastic Compliance Matrix: (Units=1/GPa)
#
#
# Indices 1 2 3 4 5 6 
#
# 1 0.009856 -0.002822 -0.001785 0.000000 0.000000 0.000000
# 2 -0.002822 0.013744 -0.002012 0.000000 0.000000 0.000000
# 3 -0.001785 -0.002012 0.010226 0.000000 0.000000 0.000000
# 4 0.000000 0.000000 0.000000 -0.034530 0.000000 0.000000
# 5 0.000000 0.000000 0.000000 0.000000 0.017151 0.000000
# 6 0.000000 0.000000 0.000000 0.000000 0.000000 0.005660
#
#
# Mechanical properties :
#
#
# Convention : Reuss Voigt Hill
#
# Bulk Modulus (GPa) = 48.57319 49.69882 49.13601
# Shear Modulus (GPa) = 118.45932 56.43499 87.44715
#
# Velocity S-wave (km/s) = 7.29962 5.03837 6.27175
# Velocity P-wave (km/s) = 9.63819 7.49680 8.63414
#
# Compressibility (1/GPa) = 0.02058749
#
# Stress axis : x y z
#
# Youngs Moduli (GPa) = 101.46259 72.75691 97.78807
#
# Poissons Ratio (x) = 0.20530 0.17459
# Poissons Ratio (y) = 0.28630 0.19678
# Poissons Ratio (z) = 0.18115 0.14641
#
# Static dielectric constant tensor:
#      x y z
#    x 1.834520 0.000000 0.000000 
#    y 0.000000 1.793980 0.000000 
#    z 0.000000 0.000000 1.944800 
# 
# From -- ./inp_files/4047.got.cif
#   From: 2010.05.17/outbox.cif.g08.bks.cpg/sg20_3_cif.got.tgz:4047.got - 2010.06.03 22:52:26.
