data_PCOD9318280
_publ_section_title
;
Structure prediction by ZEFSAII (Michael W. Deem and Ramdas Pophale) SiO2 
 PCOD9318280
Probable space group: C 2 2 21
;
_chemical_formula_sum "Si O2"
_cell_formula_units_Z 60
_cell_length_a 11.813341
_cell_length_b 25.653081
_cell_length_c 8.326613
_cell_angle_alpha 90.000000
_cell_angle_beta 90.000000
_cell_angle_gamma 90.000000
_cell_volume 2523.368359
_symmetry_space_group_name_H-M "C 2 2 21"
_symmetry_group_IT_number 20
_symmetry_cell_setting 'orthorhombic'
loop_
_space_group_symop_operation_xyz
x,y,z
-x,-y,1/2+z
x,-y,-z
-x,y,1/2-z
1/2+x,1/2+y,z
1/2-x,1/2-y,1/2+z
1/2+x,1/2-y,-z
1/2-x,1/2+y,1/2-z
loop_
_atom_site_type_symbol
_atom_site_label
_atom_site_fract_x
_atom_site_fract_y
_atom_site_fract_z
Si Si1 0.441591 0.500000 0.500000
Si Si2 0.228552 0.176713 0.613189
Si Si3 0.434665 0.595136 0.956882
Si Si4 0.978006 0.356251 0.436826
Si Si5 0.314535 0.587546 0.292384
Si Si6 0.910318 0.544040 0.373756
Si Si7 0.959059 0.752361 0.937162
Si Si8 0.144408 0.171946 0.950842
O O1 0.529783 0.462189 0.411480
O O2 0.365787 0.540248 0.398870
O O3 0.176452 0.118470 0.619862
O O4 0.353606 0.169486 0.551860
O O5 0.146331 0.212556 0.502649
O O6 0.221316 0.189406 0.801583
O O7 0.401639 0.598010 0.145855
O O8 0.541172 0.631367 0.914889
O O9 0.976058 0.408241 0.540074
O O10 0.057319 0.307843 0.484953
O O11 0.000000 0.369038 0.250000
O O12 0.197908 0.568094 0.215648
O O13 0.300801 0.639957 0.400563
O O14 0.874311 0.500000 0.500000
O O15 0.000000 0.519928 0.250000
O O16 0.070820 0.777398 0.013454
O O17 0.000000 0.754009 0.750000
#
# Coordination Sequence:
#
# PCOD9318280 Si02
#       8
#     4   8   8   8   8   8   8   8
#     4  10  22  34  66 104 140 166 242 288 362 446
#     4  11  23  43  70 106 152 196 230 302 376 434
#     4  10  20  39  61 101 142 183 226 291 363 439
#     4  11  27  50  76 110 144 192 258 313 373 464
#     4  11  24  43  69 104 138 195 232 306 377 444
#     4  12  30  53  75  98 140 199 262 327 378 453
#     4  10  22  42  71 107 152 194 237 297 371 452
#     4  10  21  38  69 104 152 184 227 281 370 456
#
# _framework density 23.777743000000001
#
# number of rings (size 3 to 8) (size 9 to 14) (size 15 to 20)
#    0.000    1.333    1.333    5.200    3.733    9.600 
#    0.000    0.000    0.000    0.000    0.000    0.000 
#    0.000    0.000    0.000    0.000    0.000    0.000 
#
# Total GULP energy -167523.682402 kJ/mol
# GULP energy per Si atom -5584.122747 kJ/mol
# Density = 2.372362 g / cm^3
# Si number density = 23.777743 Si / 1000 Ang^3
#
#
#
# Elastic Constant Matrix: (Units=GPa)
#
#
# Indices 1 2 3 4 5 6 
#
# 1 88.3441 14.4160 27.9916 0.0000 0.0000 0.0000
# 2 14.4160 103.1015 23.2982 0.0000 0.0000 0.0000
# 3 27.9916 23.2982 87.7425 0.0000 0.0000 0.0000
# 4 0.0000 0.0000 0.0000 26.8616 0.0000 0.0000
# 5 0.0000 0.0000 0.0000 0.0000 43.5284 0.0000
# 6 0.0000 0.0000 0.0000 0.0000 0.0000 20.2574
#
#
#
# Elastic Compliance Matrix: (Units=1/GPa)
#
#
# Indices 1 2 3 4 5 6 
#
# 1 0.012673 -0.000913 -0.003800 0.000000 0.000000 0.000000
# 2 -0.000913 0.010384 -0.002466 0.000000 0.000000 0.000000
# 3 -0.003800 -0.002466 0.013264 0.000000 0.000000 0.000000
# 4 0.000000 0.000000 0.000000 0.037228 0.000000 0.000000
# 5 0.000000 0.000000 0.000000 0.000000 0.022973 0.000000
# 6 0.000000 0.000000 0.000000 0.000000 0.000000 0.049365
#
#
# Mechanical properties :
#
#
# Convention : Reuss Voigt Hill
#
# Bulk Modulus (GPa) = 45.53341 45.62219 45.57780
# Shear Modulus (GPa) = 29.83893 32.36163 31.10028
#
# Velocity S-wave (km/s) = 3.54631 3.69318 3.62049
# Velocity P-wave (km/s) = 5.99663 6.11676 6.05699
#
# Compressibility (1/GPa) = 0.02196189
#
# Stress axis : x y z
#
# Youngs Moduli (GPa) = 78.91095 96.30104 75.39119
#
# Poissons Ratio (x) = 0.08794 0.28651
# Poissons Ratio (y) = 0.07206 0.18591
# Poissons Ratio (z) = 0.29989 0.23748
#
# Static dielectric constant tensor:
#      x y z
#    x 1.898450 0.000000 0.000000 
#    y 0.000000 1.911820 0.000000 
#    z 0.000000 0.000000 2.028360 
# 
# From -- ./inp_files/7556.got.cif
#   From: 2010.05.17/outbox.cif.g08.bks.cpg/sg20_4_cif.got.tgz:7556.got - 2010.06.03 22:52:26.
