data_PCOD9318417
_publ_section_title
;
Structure prediction by ZEFSAII (Michael W. Deem and Ramdas Pophale) SiO2 
 PCOD9318417
Probable space group: C 2 2 21
;
_chemical_formula_sum "Si O2"
_cell_formula_units_Z 64
_cell_length_a 23.504177
_cell_length_b 14.012640
_cell_length_c 8.433407
_cell_angle_alpha 90.000000
_cell_angle_beta 90.000000
_cell_angle_gamma 90.000000
_cell_volume 2777.589576
_symmetry_space_group_name_H-M "C 2 2 21"
_symmetry_group_IT_number 20
_symmetry_cell_setting 'orthorhombic'
loop_
_space_group_symop_operation_xyz
x,y,z
-x,-y,1/2+z
x,-y,-z
-x,y,1/2-z
1/2+x,1/2+y,z
1/2-x,1/2-y,1/2+z
1/2+x,1/2-y,-z
1/2-x,1/2+y,1/2-z
loop_
_atom_site_type_symbol
_atom_site_label
_atom_site_fract_x
_atom_site_fract_y
_atom_site_fract_z
Si Si1 0.692229 0.065334 0.152626
Si Si2 0.495743 0.603432 0.943814
Si Si3 0.831208 0.216643 0.295273
Si Si4 0.731608 0.317308 0.433847
Si Si5 0.192290 0.006942 0.274453
Si Si6 0.119715 0.859700 0.100135
Si Si7 0.124826 0.305443 0.640016
Si Si8 0.054249 0.722686 0.641678
O O1 0.640855 0.105034 0.252340
O O2 0.740749 0.020912 0.267130
O O3 0.725240 0.154140 0.073056
O O4 0.678144 0.000000 0.000000
O O5 0.500000 0.608286 0.750000
O O6 0.561213 0.620815 0.989466
O O7 0.475913 0.500000 0.000000
O O8 0.461118 0.679366 0.047524
O O9 0.775401 0.283033 0.296027
O O10 0.835789 0.181675 0.476384
O O11 0.889839 0.267395 0.250314
O O12 0.828508 0.115650 0.202578
O O13 0.701292 0.418929 0.396486
O O14 0.682277 0.237420 0.444565
O O15 0.145935 0.957148 0.164750
O O16 0.109357 0.781785 0.239695
O O17 0.077727 0.334406 0.511412
O O18 0.000000 0.695312 0.750000
#
# Coordination Sequence:
#
# PCOD9318417 Si02
#       8
#     8   8   8   8   8   8   8   8
#     4  10  20  40  64  97 142 188 240 299 358 431
#     4  12  25  43  61  90 135 187 250 293 344 420
#     4  12  22  41  67  96 147 186 238 304 351 432
#     4  10  22  38  65  99 142 188 237 289 367 419
#     4  10  22  37  61 100 141 187 230 282 361 425
#     4  11  23  39  62  92 136 191 238 297 351 416
#     4  11  22  40  65  98 137 191 244 297 359 428
#     4  12  27  42  66  97 139 197 248 292 355 428
#
# _framework density 23.041561000000002
#
# number of rings (size 3 to 8) (size 9 to 14) (size 15 to 20)
#    0.000    1.000    5.000    2.250    1.750    1.000 
#    2.250    0.000    0.000    0.000    0.000    0.000 
#   78.750    0.000    0.000    0.000    0.000    0.000 
#
# Total GULP energy -178335.028564 kJ/mol
# GULP energy per Si atom -5572.969643 kJ/mol
# Density = 2.298912 g / cm^3
# Si number density = 23.041561 Si / 1000 Ang^3
#
#
#
# Elastic Constant Matrix: (Units=GPa)
#
#
# Indices 1 2 3 4 5 6 
#
# 1 83.4348 19.1206 30.0450 0.0000 0.0000 0.0000
# 2 19.1206 40.6252 12.2217 0.0000 0.0000 0.0000
# 3 30.0450 12.2217 77.6536 0.0000 0.0000 0.0000
# 4 0.0000 0.0000 0.0000 29.1372 0.0000 0.0000
# 5 0.0000 0.0000 0.0000 0.0000 60.0970 0.0000
# 6 0.0000 0.0000 0.0000 0.0000 0.0000 26.3355
#
#
#
# Elastic Compliance Matrix: (Units=1/GPa)
#
#
# Indices 1 2 3 4 5 6 
#
# 1 0.015047 -0.005596 -0.004941 0.000000 0.000000 0.000000
# 2 -0.005596 0.027919 -0.002229 0.000000 0.000000 0.000000
# 3 -0.004941 -0.002229 0.015140 0.000000 0.000000 0.000000
# 4 0.000000 0.000000 0.000000 0.034320 0.000000 0.000000
# 5 0.000000 0.000000 0.000000 0.000000 0.016640 0.000000
# 6 0.000000 0.000000 0.000000 0.000000 0.000000 0.037972
#
#
# Mechanical properties :
#
#
# Convention : Reuss Voigt Hill
#
# Bulk Modulus (GPa) = 30.69837 36.05426 33.37632
# Shear Modulus (GPa) = 27.25853 32.46902 29.86377
#
# Velocity S-wave (km/s) = 3.44323 3.75794 3.60402
# Velocity P-wave (km/s) = 5.39998 5.87460 5.64228
#
# Compressibility (1/GPa) = 0.03257502
#
# Stress axis : x y z
#
# Youngs Moduli (GPa) = 66.45815 35.81730 66.04858
#
# Poissons Ratio (x) = 0.20042 0.32636
# Poissons Ratio (y) = 0.37187 0.14724
# Poissons Ratio (z) = 0.32838 0.07984
#
# Static dielectric constant tensor:
#      x y z
#    x 1.884280 0.000000 0.000000 
#    y 0.000000 1.892970 0.000000 
#    z 0.000000 0.000000 2.130350 
# 
# From -- ./inp_files/10805.got.cif
#   From: 2010.05.17/outbox.cif.g08.bks.cpg/sg20_6_cif.got.tgz:10805.got - 2010.06.03 22:52:26.
