data_PCOD9318830
_publ_section_title
;
Structure prediction by ZEFSAII (Michael W. Deem and Ramdas Pophale) SiO2 
 PCOD9318830
Probable space group: C 2 2 21
;
_chemical_formula_sum "Si O2"
_cell_formula_units_Z 40
_cell_length_a 10.874717
_cell_length_b 20.096503
_cell_length_c 8.592236
_cell_angle_alpha 90.000000
_cell_angle_beta 90.000000
_cell_angle_gamma 90.000000
_cell_volume 1877.779758
_symmetry_space_group_name_H-M "C 2 2 21"
_symmetry_group_IT_number 20
_symmetry_cell_setting 'orthorhombic'
loop_
_space_group_symop_operation_xyz
x,y,z
-x,-y,1/2+z
x,-y,-z
-x,y,1/2-z
1/2+x,1/2+y,z
1/2-x,1/2-y,1/2+z
1/2+x,1/2-y,-z
1/2-x,1/2+y,1/2-z
loop_
_atom_site_type_symbol
_atom_site_label
_atom_site_fract_x
_atom_site_fract_y
_atom_site_fract_z
Si Si1 0.624571 0.745446 0.014603
Si Si2 0.770344 0.671616 0.790022
Si Si3 0.000000 0.109171 0.750000
Si Si4 0.000000 0.334141 0.750000
Si Si5 0.560230 0.405644 0.914644
Si Si6 0.342436 0.072608 0.030748
O O1 0.751445 0.722529 0.932787
O O2 0.554798 0.786507 0.882666
O O3 0.656712 0.793241 0.155233
O O4 0.563605 0.675894 0.069015
O O5 0.629829 0.649879 0.746675
O O6 0.838962 0.609661 0.864858
O O7 0.995976 0.072545 0.582312
O O8 0.907287 0.382707 0.840027
O O9 0.500000 0.422619 0.750000
O O10 0.700032 0.430895 0.916823
O O11 0.395370 0.000000 0.000000
#
# Coordination Sequence:
#
# PCOD9318830 Si02
#       6
#     8   8   4   4   8   8
#     4  10  21  36  62  99 129 163 215 267 345 389
#     4  10  21  36  64  89 135 161 208 276 323 393
#     4   8  19  36  54  92 126 160 209 254 326 388
#     4  12  25  40  66  94 132 174 217 276 324 394
#     4  10  22  38  69  96 132 169 211 281 338 393
#     4  10  25  47  60  91 133 172 227 267 311 403
#
# _framework density 21.301753000000001
#
# number of rings (size 3 to 8) (size 9 to 14) (size 15 to 20)
#    0.000    2.400    0.000    4.800    8.400    1.600 
#    7.200    0.000    0.000    0.000    0.000    0.000 
#    0.000    0.000    0.000    0.000    0.000    0.000 
#
# Total GULP energy -111635.204615 kJ/mol
# GULP energy per Si atom -5581.760231 kJ/mol
# Density = 2.125327 g / cm^3
# Si number density = 21.301753 Si / 1000 Ang^3
#
#
#
# Elastic Constant Matrix: (Units=GPa)
#
#
# Indices 1 2 3 4 5 6 
#
# 1 30.4132 24.3165 25.3877 0.0000 0.0000 0.0000
# 2 24.3165 89.4578 42.9993 0.0000 0.0000 0.0000
# 3 25.3877 42.9993 146.9608 0.0000 0.0000 0.0000
# 4 0.0000 0.0000 0.0000 18.3775 0.0000 0.0000
# 5 0.0000 0.0000 0.0000 0.0000 41.2369 0.0000
# 6 0.0000 0.0000 0.0000 0.0000 0.0000 -0.6904
#
#
#
# Elastic Compliance Matrix: (Units=1/GPa)
#
#
# Indices 1 2 3 4 5 6 
#
# 1 0.044808 -0.009843 -0.004861 0.000000 0.000000 0.000000
# 2 -0.009843 0.015170 -0.002738 0.000000 0.000000 0.000000
# 3 -0.004861 -0.002738 0.008445 0.000000 0.000000 0.000000
# 4 0.000000 0.000000 0.000000 0.054414 0.000000 0.000000
# 5 0.000000 0.000000 0.000000 0.000000 0.024250 0.000000
# 6 0.000000 0.000000 0.000000 0.000000 0.000000 -1.448490
#
#
# Mechanical properties :
#
#
# Convention : Reuss Voigt Hill
#
# Bulk Modulus (GPa) = 29.81580 50.24875 40.03228
# Shear Modulus (GPa) = -3.98299 23.39336 9.70518
#
# Velocity S-wave (km/s) = -1.36889 3.31749 2.13681
# Velocity P-wave (km/s) = 3.39541 6.18987 4.99216
#
# Compressibility (1/GPa) = 0.03353926
#
# Stress axis : x y z
#
# Youngs Moduli (GPa) = 22.31741 65.91843 118.40803
#
# Poissons Ratio (x) = 0.64887 0.57553
# Poissons Ratio (y) = 0.21968 0.32422
# Poissons Ratio (z) = 0.10848 0.18050
#
# Static dielectric constant tensor:
#      x y z
#    x 1.780030 0.000000 0.000000 
#    y 0.000000 1.822160 0.000000 
#    z 0.000000 0.000000 1.783310 
# 
# From -- ./inp_files/7120.got.cif
#   From: 2010.05.17/outbox.cif.g08.bks.cpg/sg20_4_cif.got.tgz:7120.got - 2010.06.03 22:52:26.
