data_PCOD9318501
_publ_section_title
;
Structure prediction by ZEFSAII (Michael W. Deem and Ramdas Pophale) SiO2 
 PCOD9318501
Probable space group: C 2 2 21
;
_chemical_formula_sum "Si O2"
_cell_formula_units_Z 40
_cell_length_a 18.044480
_cell_length_b 6.581323
_cell_length_c 13.899795
_cell_angle_alpha 90.000000
_cell_angle_beta 90.000000
_cell_angle_gamma 90.000000
_cell_volume 1650.691717
_symmetry_space_group_name_H-M "C 2 2 21"
_symmetry_group_IT_number 20
_symmetry_cell_setting 'orthorhombic'
loop_
_space_group_symop_operation_xyz
x,y,z
-x,-y,1/2+z
x,-y,-z
-x,y,1/2-z
1/2+x,1/2+y,z
1/2-x,1/2-y,1/2+z
1/2+x,1/2-y,-z
1/2-x,1/2+y,1/2-z
loop_
_atom_site_type_symbol
_atom_site_label
_atom_site_fract_x
_atom_site_fract_y
_atom_site_fract_z
Si Si1 0.898288 0.824719 0.869222
Si Si2 0.340196 0.391727 0.266134
Si Si3 0.732244 0.118465 0.400094
Si Si4 0.732882 0.500000 0.500000
Si Si5 0.956804 0.500000 0.000000
Si Si6 0.038642 0.880498 0.086252
O O1 0.870745 0.883848 0.764497
O O2 0.827155 0.894426 0.930339
O O3 0.969994 0.971238 0.884580
O O4 0.917009 0.603316 0.907645
O O5 0.321035 0.241141 0.177239
O O6 0.272040 0.450358 0.334310
O O7 0.407150 0.312203 0.330114
O O8 0.774407 0.320378 0.443640
O O9 0.712021 0.000000 0.500000
O O10 0.002532 0.316985 0.957760
O O11 0.080046 0.000000 0.000000
#
# Coordination Sequence:
#
# PCOD9318501 Si02
#       6
#     8   8   8   4   4   8
#     4  10  21  42  73 106 143 182 243 308 379 445
#     4  11  26  49  72 107 153 199 256 314 377 453
#     4  11  28  50  71 107 150 205 259 316 371 446
#     4  10  22  44  75  98 145 192 240 306 376 446
#     4  10  20  40  79 108 137 196 234 296 402 442
#     4  10  21  46  69 110 150 186 237 320 378 447
#
# _framework density 24.232267
#
# number of rings (size 3 to 8) (size 9 to 14) (size 15 to 20)
#    0.000    1.600    3.000    1.200    7.000    0.000 
#   10.800    7.000    0.000    0.000    0.000    0.000 
#    0.000    0.000    0.000    0.000    0.000    0.000 
#
# Total GULP energy -111380.697753 kJ/mol
# GULP energy per Si atom -5569.034888 kJ/mol
# Density = 2.417711 g / cm^3
# Si number density = 24.232267 Si / 1000 Ang^3
#
#
#
# Elastic Constant Matrix: (Units=GPa)
#
#
# Indices 1 2 3 4 5 6 
#
# 1 62.8112 48.6706 50.6121 0.0000 0.0000 0.0000
# 2 48.6706 128.8089 52.9251 0.0000 0.0000 0.0000
# 3 50.6121 52.9251 133.5526 0.0000 0.0000 0.0000
# 4 0.0000 0.0000 0.0000 52.7046 0.0000 0.0000
# 5 0.0000 0.0000 0.0000 0.0000 36.0155 0.0000
# 6 0.0000 0.0000 0.0000 0.0000 0.0000 -1.3582
#
#
#
# Elastic Compliance Matrix: (Units=1/GPa)
#
#
# Indices 1 2 3 4 5 6 
#
# 1 0.027748 -0.007363 -0.007598 0.000000 0.000000 0.000000
# 2 -0.007363 0.011227 -0.001659 0.000000 0.000000 0.000000
# 3 -0.007598 -0.001659 0.011024 0.000000 0.000000 0.000000
# 4 0.000000 0.000000 0.000000 0.018974 0.000000 0.000000
# 5 0.000000 0.000000 0.000000 0.000000 0.027766 0.000000
# 6 0.000000 0.000000 0.000000 0.000000 0.000000 -0.736245
#
#
# Mechanical properties :
#
#
# Convention : Reuss Voigt Hill
#
# Bulk Modulus (GPa) = 59.66399 69.95427 64.80913
# Shear Modulus (GPa) = -8.32391 29.00337 10.33973
#
# Velocity S-wave (km/s) = -1.85540 3.46336 2.06790
# Velocity P-wave (km/s) = 4.48165 6.70254 5.70128
#
# Compressibility (1/GPa) = 0.01676053
#
# Stress axis : x y z
#
# Youngs Moduli (GPa) = 36.03837 89.07023 90.70778
#
# Poissons Ratio (x) = 0.65581 0.68919
# Poissons Ratio (y) = 0.26535 0.15047
# Poissons Ratio (z) = 0.27381 0.14775
#
# Static dielectric constant tensor:
#      x y z
#    x 2.021290 0.000000 0.000000 
#    y 0.000000 1.959750 0.000000 
#    z 0.000000 0.000000 2.871280 
# 
# From -- ./inp_files/21932.got.cif
#   From: 2010.05.17/outbox.cif.g08.bks.cpg/sg20_11_cif.got.tgz:21932.got - 2010.06.03 22:52:26.
