data_PCOD9318627
_publ_section_title
;
Structure prediction by ZEFSAII (Michael W. Deem and Ramdas Pophale) SiO2 
 PCOD9318627
Probable space group: C 2 2 21
;
_chemical_formula_sum "Si O2"
_cell_formula_units_Z 40
_cell_length_a 8.266755
_cell_length_b 15.652555
_cell_length_c 14.582683
_cell_angle_alpha 90.000000
_cell_angle_beta 90.000000
_cell_angle_gamma 90.000000
_cell_volume 1886.938477
_symmetry_space_group_name_H-M "C 2 2 21"
_symmetry_group_IT_number 20
_symmetry_cell_setting 'orthorhombic'
loop_
_space_group_symop_operation_xyz
x,y,z
-x,-y,1/2+z
x,-y,-z
-x,y,1/2-z
1/2+x,1/2+y,z
1/2-x,1/2-y,1/2+z
1/2+x,1/2-y,-z
1/2-x,1/2+y,1/2-z
loop_
_atom_site_type_symbol
_atom_site_label
_atom_site_fract_x
_atom_site_fract_y
_atom_site_fract_z
Si Si1 0.328672 0.763801 0.709696
Si Si2 0.000000 0.569692 0.750000
Si Si3 0.153221 0.172179 0.462831
Si Si4 0.657265 0.557076 0.810300
Si Si5 0.977596 0.000000 0.500000
Si Si6 0.874247 0.281092 0.374055
O O1 0.500000 0.790776 0.750000
O O2 0.283602 0.810958 0.616570
O O3 0.334604 0.660900 0.693343
O O4 0.190438 0.772726 0.787296
O O5 0.830601 0.524014 0.773118
O O6 0.955127 0.633075 0.665764
O O7 0.223426 0.196236 0.561767
O O8 0.002989 0.230757 0.433894
O O9 0.090594 0.076618 0.467117
O O10 0.500000 0.531907 0.750000
O O11 0.628324 0.529725 0.914134
#
# Coordination Sequence:
#
# PCOD9318627 Si02
#       6
#     8   4   8   8   4   8
#     4  10  20  42  70  98 125 172 232 282 317 390
#     4  10  20  42  70  96 124 176 230 290 310 400
#     4  12  23  39  69  98 134 172 221 278 338 402
#     4  10  21  43  69  96 132 177 222 274 342 388
#     4  12  26  40  64 102 142 178 204 272 356 416
#     4  11  21  40  69  98 123 171 232 274 324 387
#
# _framework density 21.198359
#
# number of rings (size 3 to 8) (size 9 to 14) (size 15 to 20)
#    0.000    1.200    4.000    6.000    0.000    1.600 
#    0.000    4.000   11.000    0.000    0.000    0.000 
#    0.000    0.000    0.000    0.000    0.000    0.000 
#
# Total GULP energy -111873.022027 kJ/mol
# GULP energy per Si atom -5593.651101 kJ/mol
# Density = 2.115011 g / cm^3
# Si number density = 21.198359 Si / 1000 Ang^3
#
#
#
# Elastic Constant Matrix: (Units=GPa)
#
#
# Indices 1 2 3 4 5 6 
#
# 1 127.4413 20.0558 51.1464 0.0000 0.0000 0.0000
# 2 20.0558 26.5418 25.7788 0.0000 0.0000 0.0000
# 3 51.1464 25.7788 115.9431 0.0000 0.0000 0.0000
# 4 0.0000 0.0000 0.0000 1.9200 0.0000 0.0000
# 5 0.0000 0.0000 0.0000 0.0000 63.4960 0.0000
# 6 0.0000 0.0000 0.0000 0.0000 0.0000 1.5196
#
#
#
# Elastic Compliance Matrix: (Units=1/GPa)
#
#
# Indices 1 2 3 4 5 6 
#
# 1 0.009876 -0.004121 -0.003440 0.000000 0.000000 0.000000
# 2 -0.004121 0.049773 -0.009249 0.000000 0.000000 0.000000
# 3 -0.003440 -0.009249 0.012199 0.000000 0.000000 0.000000
# 4 0.000000 0.000000 0.000000 0.520832 0.000000 0.000000
# 5 0.000000 0.000000 0.000000 0.000000 0.015749 0.000000
# 6 0.000000 0.000000 0.000000 0.000000 0.000000 0.658075
#
#
# Mechanical properties :
#
#
# Convention : Reuss Voigt Hill
#
# Bulk Modulus (GPa) = 26.15884 51.54309 38.85097
# Shear Modulus (GPa) = 3.80846 24.91681 14.36263
#
# Velocity S-wave (km/s) = 1.34182 3.43215 2.60577
# Velocity P-wave (km/s) = 3.84285 6.33037 5.23646
#
# Compressibility (1/GPa) = 0.03822800
#
# Stress axis : x y z
#
# Youngs Moduli (GPa) = 101.25518 20.09109 81.97460
#
# Poissons Ratio (x) = 0.08280 0.28202
# Poissons Ratio (y) = 0.41729 0.75815
# Poissons Ratio (z) = 0.34835 0.18581
#
# Static dielectric constant tensor:
#      x y z
#    x 1.799210 0.000000 0.000000 
#    y 0.000000 1.736180 0.000000 
#    z 0.000000 0.000000 1.760510 
# 
# From -- ./inp_files/18561.got.cif
#   From: 2010.05.17/outbox.cif.g08.bks.cpg/sg20_10_cif.got.tgz:18561.got - 2010.06.03 22:52:26.
