data_PCOD9318893
_publ_section_title
;
Structure prediction by ZEFSAII (Michael W. Deem and Ramdas Pophale) SiO2 
 PCOD9318893
Probable space group: C 2 2 21
;
_chemical_formula_sum "Si O2"
_cell_formula_units_Z 60
_cell_length_a 8.084286
_cell_length_b 11.964343
_cell_length_c 28.956578
_cell_angle_alpha 90.000000
_cell_angle_beta 90.000000
_cell_angle_gamma 90.000000
_cell_volume 2800.772034
_symmetry_space_group_name_H-M "C 2 2 21"
_symmetry_group_IT_number 20
_symmetry_cell_setting 'orthorhombic'
loop_
_space_group_symop_operation_xyz
x,y,z
-x,-y,1/2+z
x,-y,-z
-x,y,1/2-z
1/2+x,1/2+y,z
1/2-x,1/2-y,1/2+z
1/2+x,1/2-y,-z
1/2-x,1/2+y,1/2-z
loop_
_atom_site_type_symbol
_atom_site_label
_atom_site_fract_x
_atom_site_fract_y
_atom_site_fract_z
Si Si1 0.385346 0.425536 0.070061
Si Si2 0.508463 0.057259 0.346902
Si Si3 0.667395 0.380218 0.690082
Si Si4 0.058986 0.303954 0.940144
Si Si5 0.129009 0.336804 0.131761
Si Si6 0.577576 0.327799 0.587452
Si Si7 0.102075 0.500000 0.000000
Si Si8 0.682957 0.346872 0.793074
O O1 0.487546 0.319399 0.053442
O O2 0.302728 0.392963 0.118711
O O3 0.473339 0.545160 0.075782
O O4 0.226505 0.452033 0.038590
O O5 0.337777 0.054876 0.317671
O O6 0.491578 0.142198 0.390345
O O7 0.658426 0.094099 0.314875
O O8 0.511967 0.931209 0.365741
O O9 0.644989 0.321253 0.640466
O O10 0.696640 0.319215 0.739008
O O11 0.480004 0.424281 0.698097
O O12 0.259975 0.298901 0.941823
O O13 0.005496 0.396788 0.977524
O O14 0.150165 0.265316 0.177886
O O15 0.078008 0.253078 0.090142
#
# Coordination Sequence:
#
# PCOD9318893 Si02
#       8
#     8   8   8   8   8   8   4   8
#     4  11  21  42  66  85 126 164 204 261 326 388
#     4  11  20  40  67  91 123 179 212 260 331 386
#     4   9  19  39  57  90 137 158 218 273 300 379
#     4  10  21  41  66  90 125 162 209 260 330 393
#     4  11  21  39  65  91 123 168 215 261 320 388
#     4   9  21  39  60  88 123 164 207 257 311 376
#     4  10  22  40  60  98 126 154 204 278 324 382
#     4  10  21  37  62  92 131 167 217 266 315 381
#
# _framework density 21.422664000000001
#
# number of rings (size 3 to 8) (size 9 to 14) (size 15 to 20)
#    0.000    1.867    5.333    0.400    0.000    4.267 
#    9.600    0.000    5.867    0.000    0.000    0.000 
#    0.000    0.000    0.000    0.000    0.000    0.000 
#
# Total GULP energy -167059.037666 kJ/mol
# GULP energy per Si atom -5568.634589 kJ/mol
# Density = 2.137390 g / cm^3
# Si number density = 21.422664 Si / 1000 Ang^3
#
#
#
# Elastic Constant Matrix: (Units=GPa)
#
#
# Indices 1 2 3 4 5 6 
#
# 1 58.3529 25.4352 -3.9368 0.0000 0.0000 0.0000
# 2 25.4352 128.0441 5.1748 0.0000 0.0000 0.0000
# 3 -3.9368 5.1748 42.8681 0.0000 0.0000 0.0000
# 4 0.0000 0.0000 0.0000 25.0482 0.0000 0.0000
# 5 0.0000 0.0000 0.0000 0.0000 18.7909 0.0000
# 6 0.0000 0.0000 0.0000 0.0000 0.0000 23.8308
#
#
#
# Elastic Compliance Matrix: (Units=1/GPa)
#
#
# Indices 1 2 3 4 5 6 
#
# 1 0.018967 -0.003857 0.002207 0.000000 0.000000 0.000000
# 2 -0.003857 0.008632 -0.001396 0.000000 0.000000 0.000000
# 3 0.002207 -0.001396 0.023699 0.000000 0.000000 0.000000
# 4 0.000000 0.000000 0.000000 0.039923 0.000000 0.000000
# 5 0.000000 0.000000 0.000000 0.000000 0.053217 0.000000
# 6 0.000000 0.000000 0.000000 0.000000 0.000000 0.041962
#
#
# Mechanical properties :
#
#
# Convention : Reuss Voigt Hill
#
# Bulk Modulus (GPa) = 22.12057 31.40125 26.76091
# Shear Modulus (GPa) = 24.08927 27.04012 25.56470
#
# Velocity S-wave (km/s) = 3.35696 3.55663 3.45823
# Velocity P-wave (km/s) = 5.03724 5.61747 5.33524
#
# Compressibility (1/GPa) = 0.04520680
#
# Stress axis : x y z
#
# Youngs Moduli (GPa) = 52.72252 115.84270 42.19653
#
# Poissons Ratio (x) = 0.44680 -0.09315
# Poissons Ratio (y) = 0.20335 0.05892
# Poissons Ratio (z) = -0.11638 0.16175
#
# Static dielectric constant tensor:
#      x y z
#    x 1.808880 0.000000 0.000000 
#    y 0.000000 1.826470 0.000000 
#    z 0.000000 0.000000 1.847190 
# 
# From -- ./inp_files/31046.got.cif
#   From: 2010.05.17/outbox.cif.g08.bks.cpg/sg20_16_cif.got.tgz:31046.got - 2010.06.03 22:52:26.
