data_PCOD9318111
_publ_section_title
;
Structure prediction by ZEFSAII (Michael W. Deem and Ramdas Pophale) SiO2 
 PCOD9318111
Probable space group: C 2 2 21
;
_chemical_formula_sum "Si O2"
_cell_formula_units_Z 48
_cell_length_a 16.170232
_cell_length_b 9.195711
_cell_length_c 16.752439
_cell_angle_alpha 90.000000
_cell_angle_beta 90.000000
_cell_angle_gamma 90.000000
_cell_volume 2491.033741
_symmetry_space_group_name_H-M "C 2 2 21"
_symmetry_group_IT_number 20
_symmetry_cell_setting 'orthorhombic'
loop_
_space_group_symop_operation_xyz
x,y,z
-x,-y,1/2+z
x,-y,-z
-x,y,1/2-z
1/2+x,1/2+y,z
1/2-x,1/2-y,1/2+z
1/2+x,1/2-y,-z
1/2-x,1/2+y,1/2-z
loop_
_atom_site_type_symbol
_atom_site_label
_atom_site_fract_x
_atom_site_fract_y
_atom_site_fract_z
Si Si1 0.733764 0.704853 0.183585
Si Si2 0.675387 0.048902 0.589418
Si Si3 0.010418 0.310886 0.346511
Si Si4 0.350606 0.961571 0.408179
Si Si5 0.817649 0.776270 0.346859
Si Si6 0.065215 0.027027 0.181156
O O1 0.794964 0.588920 0.142376
O O2 0.775047 0.781890 0.259629
O O3 0.649002 0.616719 0.206108
O O4 0.706466 0.829873 0.122153
O O5 0.655145 0.000000 0.500000
O O6 0.599978 0.134196 0.629454
O O7 0.753404 0.157431 0.590104
O O8 0.000000 0.317267 0.250000
O O9 0.943431 0.412342 0.388488
O O10 0.985531 0.145580 0.370520
O O11 0.333579 0.108311 0.360511
O O12 0.339320 0.000000 0.500000
O O13 0.898387 0.877799 0.352582
O O14 0.000000 0.990282 0.250000
#
# Coordination Sequence:
#
# PCOD9318111 Si02
#       6
#     8   8   8   8   8   8
#     4  10  21  38  60  86 117 157 200 240 294 361
#     4  11  22  38  60  88 119 155 198 251 305 352
#     4  10  20  38  59  80 113 157 198 242 297 360
#     4  11  22  37  57  86 120 153 192 248 303 349
#     4  11  21  36  60  85 114 155 199 246 293 359
#     4   9  19  35  56  83 112 145 193 245 289 343
#
# _framework density 19.269109
#
# number of rings (size 3 to 8) (size 9 to 14) (size 15 to 20)
#    0.000    1.667    0.000    7.500    0.000    2.000 
#    0.000    0.000    0.000    4.000    0.000    1.167 
#    0.000    0.000    0.000    0.000    0.000    0.000 
#
# Total GULP energy -133931.290860 kJ/mol
# GULP energy per Si atom -5580.470453 kJ/mol
# Density = 1.922525 g / cm^3
# Si number density = 19.269109 Si / 1000 Ang^3
#
#
#
# Elastic Constant Matrix: (Units=GPa)
#
#
# Indices 1 2 3 4 5 6 
#
# 1 97.3081 44.0313 19.6509 0.0000 0.0000 0.0000
# 2 44.0313 93.8854 -4.9972 0.0000 0.0000 0.0000
# 3 19.6509 -4.9972 54.6065 0.0000 0.0000 0.0000
# 4 0.0000 0.0000 0.0000 -19.3072 0.0000 0.0000
# 5 0.0000 0.0000 0.0000 0.0000 2.8194 0.0000
# 6 0.0000 0.0000 0.0000 0.0000 0.0000 27.6171
#
#
#
# Elastic Compliance Matrix: (Units=1/GPa)
#
#
# Indices 1 2 3 4 5 6 
#
# 1 0.014759 -0.007240 -0.005974 0.000000 0.000000 0.000000
# 2 -0.007240 0.014255 0.003910 0.000000 0.000000 0.000000
# 3 -0.005974 0.003910 0.020820 0.000000 0.000000 0.000000
# 4 0.000000 0.000000 0.000000 -0.051794 0.000000 0.000000
# 5 0.000000 0.000000 0.000000 0.000000 0.354683 0.000000
# 6 0.000000 0.000000 0.000000 0.000000 0.000000 0.036209
#
#
# Mechanical properties :
#
#
# Convention : Reuss Voigt Hill
#
# Bulk Modulus (GPa) = 32.02384 40.35222 36.18803
# Shear Modulus (GPa) = 11.96318 14.70020 13.33169
#
# Velocity S-wave (km/s) = 2.49438 2.76504 2.63319
# Velocity P-wave (km/s) = 4.99513 5.58398 5.29774
#
# Compressibility (1/GPa) = 0.03122674
#
# Stress axis : x y z
#
# Youngs Moduli (GPa) = 67.75549 70.15194 48.02985
#
# Poissons Ratio (x) = 0.50788 0.28692
# Poissons Ratio (y) = 0.49053 -0.18779
# Poissons Ratio (z) = 0.40475 -0.27428
#
# Static dielectric constant tensor:
#      x y z
#    x 1.661620 0.000000 0.000000 
#    y 0.000000 1.686150 0.000000 
#    z 0.000000 0.000000 1.681670 
# 
# From -- ./inp_files/21280.got.cif
#   From: 2010.05.17/outbox.cif.g08.bks.cpg/sg20_11_cif.got.tgz:21280.got - 2010.06.03 22:52:26.
