data_PCOD9318315
_publ_section_title
;
Structure prediction by ZEFSAII (Michael W. Deem and Ramdas Pophale) SiO2 
 PCOD9318315
Probable space group: C 2 2 21
;
_chemical_formula_sum "Si O2"
_cell_formula_units_Z 56
_cell_length_a 12.333568
_cell_length_b 28.551118
_cell_length_c 6.652617
_cell_angle_alpha 90.000000
_cell_angle_beta 90.000000
_cell_angle_gamma 90.000000
_cell_volume 2342.633626
_symmetry_space_group_name_H-M "C 2 2 21"
_symmetry_group_IT_number 20
_symmetry_cell_setting 'orthorhombic'
loop_
_space_group_symop_operation_xyz
x,y,z
-x,-y,1/2+z
x,-y,-z
-x,y,1/2-z
1/2+x,1/2+y,z
1/2-x,1/2-y,1/2+z
1/2+x,1/2-y,-z
1/2-x,1/2+y,1/2-z
loop_
_atom_site_type_symbol
_atom_site_label
_atom_site_fract_x
_atom_site_fract_y
_atom_site_fract_z
Si Si1 0.160322 0.546357 0.108229
Si Si2 0.839209 0.627158 0.697921
Si Si3 0.257792 0.806054 0.610860
Si Si4 0.106795 0.119041 0.877723
Si Si5 0.893157 0.625443 0.138154
Si Si6 0.116758 0.219869 0.730450
Si Si7 0.118901 0.963565 0.824799
O O1 0.119922 0.569889 0.316290
O O2 0.288254 0.539256 0.155955
O O3 0.119096 0.500000 0.000000
O O4 0.127132 0.587481 0.956019
O O5 0.828059 0.675624 0.579429
O O6 0.718666 0.609304 0.761724
O O7 0.901375 0.633269 0.903163
O O8 0.288649 0.846244 0.773519
O O9 0.143728 0.799440 0.494280
O O10 0.294681 0.757389 0.704154
O O11 0.109918 0.175579 0.881414
O O12 0.000000 0.106517 0.750000
O O13 0.105896 0.087670 0.075167
O O14 0.000000 0.642856 0.250000
O O15 0.000000 0.243346 0.750000
O O16 0.000000 0.978455 0.750000
O O17 0.153168 0.000000 0.000000
#
# Coordination Sequence:
#
# PCOD9318315 Si02
#       7
#     8   8   8   8   8   8   8
#     4  11  24  41  66 101 134 182 231 295 361 417
#     4  10  22  44  68  95 139 179 234 289 351 424
#     4  10  24  42  73  98 140 185 236 287 355 425
#     4  10  20  39  64  91 138 180 226 295 347 416
#     4  11  25  48  72 102 138 188 236 295 356 429
#     4  10  23  44  66 104 142 179 236 293 348 419
#     4  12  23  38  65 100 140 187 241 291 356 438
#
# _framework density 23.904720000000001
#
# number of rings (size 3 to 8) (size 9 to 14) (size 15 to 20)
#    0.000    1.429    1.429    3.000    4.000    3.429 
#    5.143    0.000    0.000    0.000    0.000    0.000 
#    0.000    0.000    0.000    0.000    0.000    0.000 
#
# Total GULP energy -156359.951160 kJ/mol
# GULP energy per Si atom -5584.283970 kJ/mol
# Density = 2.385031 g / cm^3
# Si number density = 23.904720 Si / 1000 Ang^3
#
#
#
# Elastic Constant Matrix: (Units=GPa)
#
#
# Indices 1 2 3 4 5 6 
#
# 1 83.6566 -3.2498 14.7223 0.0000 0.0000 0.0000
# 2 -3.2498 112.0843 24.4007 0.0000 0.0000 0.0000
# 3 14.7223 24.4007 100.5888 0.0000 0.0000 0.0000
# 4 0.0000 0.0000 0.0000 47.4507 0.0000 0.0000
# 5 0.0000 0.0000 0.0000 0.0000 43.6504 0.0000
# 6 0.0000 0.0000 0.0000 0.0000 0.0000 14.3696
#
#
#
# Elastic Compliance Matrix: (Units=1/GPa)
#
#
# Indices 1 2 3 4 5 6 
#
# 1 0.012336 0.000793 -0.001998 0.000000 0.000000 0.000000
# 2 0.000793 0.009470 -0.002413 0.000000 0.000000 0.000000
# 3 -0.001998 -0.002413 0.010819 0.000000 0.000000 0.000000
# 4 0.000000 0.000000 0.000000 0.021075 0.000000 0.000000
# 5 0.000000 0.000000 0.000000 0.000000 0.022909 0.000000
# 6 0.000000 0.000000 0.000000 0.000000 0.000000 0.069591
#
#
# Mechanical properties :
#
#
# Convention : Reuss Voigt Hill
#
# Bulk Modulus (GPa) = 39.38785 40.89735 40.14260
# Shear Modulus (GPa) = 30.88320 38.45791 34.67056
#
# Velocity S-wave (km/s) = 3.59824 4.01534 3.81250
# Velocity P-wave (km/s) = 5.81170 6.21634 6.01742
#
# Compressibility (1/GPa) = 0.02538854
#
# Stress axis : x y z
#
# Youngs Moduli (GPa) = 81.06353 105.59438 92.42769
#
# Poissons Ratio (x) = -0.08369 0.18465
# Poissons Ratio (y) = -0.06425 0.22305
# Poissons Ratio (z) = 0.16195 0.25483
#
# Static dielectric constant tensor:
#      x y z
#    x 1.996960 0.000000 0.000000 
#    y 0.000000 1.901700 0.000000 
#    z 0.000000 0.000000 1.950850 
# 
# From -- ./inp_files/2250.got.cif
#   From: 2010.05.17/outbox.cif.g08.bks.cpg/sg20_2_cif.got.tgz:2250.got - 2010.06.03 22:52:26.
