data_PCOD9318877
_publ_section_title
;
Structure prediction by ZEFSAII (Michael W. Deem and Ramdas Pophale) SiO2 
 PCOD9318877
Probable space group: C 2 2 21
;
_chemical_formula_sum "Si O2"
_cell_formula_units_Z 64
_cell_length_a 11.694312
_cell_length_b 32.836960
_cell_length_c 7.528939
_cell_angle_alpha 90.000000
_cell_angle_beta 90.000000
_cell_angle_gamma 90.000000
_cell_volume 2891.155155
_symmetry_space_group_name_H-M "C 2 2 21"
_symmetry_group_IT_number 20
_symmetry_cell_setting 'orthorhombic'
loop_
_space_group_symop_operation_xyz
x,y,z
-x,-y,1/2+z
x,-y,-z
-x,y,1/2-z
1/2+x,1/2+y,z
1/2-x,1/2-y,1/2+z
1/2+x,1/2-y,-z
1/2-x,1/2+y,1/2-z
loop_
_atom_site_type_symbol
_atom_site_label
_atom_site_fract_x
_atom_site_fract_y
_atom_site_fract_z
Si Si1 0.120911 0.265006 0.718579
Si Si2 0.493733 0.917416 0.966039
Si Si3 0.375657 0.833864 0.072133
Si Si4 0.239626 0.544987 0.458170
Si Si5 0.861054 0.125550 0.463751
Si Si6 0.620838 0.624411 0.467565
Si Si7 0.262375 0.047900 0.465164
Si Si8 0.712122 0.803899 0.078868
O O1 0.099497 0.297977 0.565129
O O2 0.216437 0.233407 0.659704
O O3 0.000000 0.243188 0.750000
O O4 0.159755 0.288671 0.894675
O O5 0.500000 0.915224 0.750000
O O6 0.390184 0.947228 0.021537
O O7 0.615798 0.934031 0.030784
O O8 0.453285 0.873222 0.032254
O O9 0.376613 0.818161 0.272667
O O10 0.242421 0.846313 0.030266
O O11 0.279208 0.500000 0.500000
O O12 0.322495 0.580436 0.523445
O O13 0.234103 0.550409 0.247423
O O14 0.866501 0.126995 0.247844
O O15 0.990612 0.133440 0.520762
O O16 0.663681 0.579312 0.522785
O O17 0.705753 0.657993 0.542961
O O18 0.247975 0.000000 0.500000
#
# Coordination Sequence:
#
# PCOD9318877 Si02
#       8
#     8   8   8   8   8   8   8   8
#     4  12  28  49  74 103 148 182 232 303 357 429
#     4   9  19  37  64  91 130 183 229 286 356 413
#     4  11  23  44  72 101 139 182 238 287 358 423
#     4   9  18  34  58  88 125 173 231 282 347 413
#     4   9  20  40  67  91 130 188 227 291 350 418
#     4  10  22  40  65  96 136 185 237 283 359 423
#     4  10  21  37  60  92 140 182 229 297 347 418
#     4  12  27  48  70 109 139 182 238 289 357 435
#
# _framework density 22.136481
#
# number of rings (size 3 to 8) (size 9 to 14) (size 15 to 20)
#    0.000    1.750    2.500    1.500    3.500    3.000 
#    0.000    1.250    0.000    0.000    0.000    0.000 
#    0.000    0.000    0.000    0.000    0.000    0.000 
#
# Total GULP energy -178996.803794 kJ/mol
# GULP energy per Si atom -5593.650119 kJ/mol
# Density = 2.208610 g / cm^3
# Si number density = 22.136481 Si / 1000 Ang^3
#
#
#
# Elastic Constant Matrix: (Units=GPa)
#
#
# Indices 1 2 3 4 5 6 
#
# 1 103.4603 27.7618 19.9151 0.0000 0.0000 0.0000
# 2 27.7618 102.4963 19.8708 0.0000 0.0000 0.0000
# 3 19.9151 19.8708 85.5144 0.0000 0.0000 0.0000
# 4 0.0000 0.0000 0.0000 36.0827 0.0000 0.0000
# 5 0.0000 0.0000 0.0000 0.0000 0.2738 0.0000
# 6 0.0000 0.0000 0.0000 0.0000 0.0000 27.0851
#
#
#
# Elastic Compliance Matrix: (Units=1/GPa)
#
#
# Indices 1 2 3 4 5 6 
#
# 1 0.010712 -0.002532 -0.001906 0.000000 0.000000 0.000000
# 2 -0.002532 0.010815 -0.001923 0.000000 0.000000 0.000000
# 3 -0.001906 -0.001923 0.012585 0.000000 0.000000 0.000000
# 4 0.000000 0.000000 0.000000 0.027714 0.000000 0.000000
# 5 0.000000 0.000000 0.000000 0.000000 3.652888 0.000000
# 6 0.000000 0.000000 0.000000 0.000000 0.000000 0.036921
#
#
# Mechanical properties :
#
#
# Convention : Reuss Voigt Hill
#
# Bulk Modulus (GPa) = 46.75385 47.39629 47.07507
# Shear Modulus (GPa) = 1.32574 27.61653 14.47113
#
# Velocity S-wave (km/s) = 0.77472 3.53591 2.55958
# Velocity P-wave (km/s) = 4.68688 6.17476 5.48154
#
# Compressibility (1/GPa) = 0.02138861
#
# Stress axis : x y z
#
# Youngs Moduli (GPa) = 93.35447 92.46331 79.46063
#
# Poissons Ratio (x) = 0.23410 0.15148
# Poissons Ratio (y) = 0.23635 0.15284
# Poissons Ratio (z) = 0.17797 0.17785
#
# Static dielectric constant tensor:
#      x y z
#    x 1.806000 0.000000 0.000000 
#    y 0.000000 1.770220 0.000000 
#    z 0.000000 0.000000 1.831140 
# 
# From -- ./inp_files/7694.got.cif
#   From: 2010.05.17/outbox.cif.g08.bks.cpg/sg20_4_cif.got.tgz:7694.got - 2010.06.03 22:52:26.
