data_PCOD9318437
_publ_section_title
;
Structure prediction by ZEFSAII (Michael W. Deem and Ramdas Pophale) SiO2 
 PCOD9318437
Probable space group: C 2 2 21
;
_chemical_formula_sum "Si O2"
_cell_formula_units_Z 56
_cell_length_a 16.805809
_cell_length_b 7.732964
_cell_length_c 22.491309
_cell_angle_alpha 90.000000
_cell_angle_beta 90.000000
_cell_angle_gamma 90.000000
_cell_volume 2922.941639
_symmetry_space_group_name_H-M "C 2 2 21"
_symmetry_group_IT_number 20
_symmetry_cell_setting 'orthorhombic'
loop_
_space_group_symop_operation_xyz
x,y,z
-x,-y,1/2+z
x,-y,-z
-x,y,1/2-z
1/2+x,1/2+y,z
1/2-x,1/2-y,1/2+z
1/2+x,1/2-y,-z
1/2-x,1/2+y,1/2-z
loop_
_atom_site_type_symbol
_atom_site_label
_atom_site_fract_x
_atom_site_fract_y
_atom_site_fract_z
Si Si1 0.244142 0.926512 0.411084
Si Si2 0.560645 0.226824 0.304184
Si Si3 0.686121 0.037370 0.434202
Si Si4 0.383059 0.000000 0.500000
Si Si5 0.384113 0.500000 0.000000
Si Si6 0.688194 0.916682 0.310990
Si Si7 0.477234 0.192727 0.061796
Si Si8 0.189343 0.974696 0.712856
O O1 0.212015 0.730064 0.414666
O O2 0.324934 0.933049 0.448159
O O3 0.177007 0.038816 0.446052
O O4 0.247032 0.987291 0.343514
O O5 0.500000 0.213445 0.250000
O O6 0.517886 0.241371 0.368506
O O7 0.616224 0.394663 0.295424
O O8 0.618338 0.058697 0.304598
O O9 0.589916 0.041812 0.437829
O O10 0.717476 0.000000 0.500000
O O11 0.710691 0.913835 0.380768
O O12 0.441466 0.864096 0.531621
O O13 0.438038 0.655319 0.977145
O O14 0.665386 0.725552 0.289744
O O15 0.762289 0.981569 0.272097
#
# Coordination Sequence:
#
# PCOD9318437 Si02
#       8
#     8   8   8   4   4   8   8   8
#     4  10  22  39  64  93 130 168 226 263 324 396
#     4  11  25  46  65  98 134 171 221 278 335 402
#     4  10  20  40  66  92 127 174 220 262 329 409
#     4  11  24  36  60  99 124 174 206 279 320 382
#     4   9  18  38  64  83 120 172 202 253 330 392
#     4  11  24  40  72  97 128 178 221 279 329 396
#     4  10  21  40  60  92 132 160 211 268 333 387
#     4  12  22  44  70  98 131 175 227 274 336 395
#
# _framework density 19.15878
#
# number of rings (size 3 to 8) (size 9 to 14) (size 15 to 20)
#    0.000    1.429    6.429    0.000    8.000    0.571 
#    1.286    1.429    0.000    0.000    0.000    0.000 
#    0.000    0.000    0.000    0.000    0.000    0.000 
#
# Total GULP energy -156263.717632 kJ/mol
# GULP energy per Si atom -5580.847058 kJ/mol
# Density = 1.911517 g / cm^3
# Si number density = 19.158780 Si / 1000 Ang^3
#
#
#
# Elastic Constant Matrix: (Units=GPa)
#
#
# Indices 1 2 3 4 5 6 
#
# 1 98.0166 33.7182 45.0772 0.0000 0.0000 0.0000
# 2 33.7182 112.0548 36.7166 0.0000 0.0000 0.0000
# 3 45.0772 36.7166 138.8582 0.0000 0.0000 0.0000
# 4 0.0000 0.0000 0.0000 29.5061 0.0000 0.0000
# 5 0.0000 0.0000 0.0000 0.0000 23.2371 0.0000
# 6 0.0000 0.0000 0.0000 0.0000 0.0000 13.7533
#
#
#
# Elastic Compliance Matrix: (Units=1/GPa)
#
#
# Indices 1 2 3 4 5 6 
#
# 1 0.012700 -0.002705 -0.003408 0.000000 0.000000 0.000000
# 2 -0.002705 0.010347 -0.001858 0.000000 0.000000 0.000000
# 3 -0.003408 -0.001858 0.008799 0.000000 0.000000 0.000000
# 4 0.000000 0.000000 0.000000 0.033891 0.000000 0.000000
# 5 0.000000 0.000000 0.000000 0.000000 0.043035 0.000000
# 6 0.000000 0.000000 0.000000 0.000000 0.000000 0.072710
#
#
# Mechanical properties :
#
#
# Convention : Reuss Voigt Hill
#
# Bulk Modulus (GPa) = 62.87223 64.43929 63.65576
# Shear Modulus (GPa) = 24.66405 28.86046 26.76226
#
# Velocity S-wave (km/s) = 3.59186 3.88543 3.74152
# Velocity P-wave (km/s) = 7.07740 7.33731 7.20852
#
# Compressibility (1/GPa) = 0.01590527
#
# Stress axis : x y z
#
# Youngs Moduli (GPa) = 78.74024 96.64736 113.64925
#
# Poissons Ratio (x) = 0.26143 0.38726
# Poissons Ratio (y) = 0.21299 0.21114
# Poissons Ratio (z) = 0.26831 0.17955
#
# Static dielectric constant tensor:
#      x y z
#    x 1.647630 0.000000 0.000000 
#    y 0.000000 1.690170 0.000000 
#    z 0.000000 0.000000 1.707340 
# 
# From -- ./inp_files/27594.got.cif
#   From: 2010.05.17/outbox.cif.g08.bks.cpg/sg20_14_cif.got.tgz:27594.got - 2010.06.03 22:52:26.
