data_PCOD9318870
_publ_section_title
;
Structure prediction by ZEFSAII (Michael W. Deem and Ramdas Pophale) SiO2 
 PCOD9318870
Probable space group: C 2 2 21
;
_chemical_formula_sum "Si O2"
_cell_formula_units_Z 60
_cell_length_a 12.864930
_cell_length_b 8.627332
_cell_length_c 25.675860
_cell_angle_alpha 90.000000
_cell_angle_beta 90.000000
_cell_angle_gamma 90.000000
_cell_volume 2849.764273
_symmetry_space_group_name_H-M "C 2 2 21"
_symmetry_group_IT_number 20
_symmetry_cell_setting 'orthorhombic'
loop_
_space_group_symop_operation_xyz
x,y,z
-x,-y,1/2+z
x,-y,-z
-x,y,1/2-z
1/2+x,1/2+y,z
1/2-x,1/2-y,1/2+z
1/2+x,1/2-y,-z
1/2-x,1/2+y,1/2-z
loop_
_atom_site_type_symbol
_atom_site_label
_atom_site_fract_x
_atom_site_fract_y
_atom_site_fract_z
Si Si1 0.690518 0.703576 0.708009
Si Si2 0.428873 0.398643 0.048906
Si Si3 0.429540 0.701715 0.113484
Si Si4 0.000000 0.066740 0.750000
Si Si5 0.634513 0.404526 0.838214
Si Si6 0.127626 0.218685 0.903960
Si Si7 0.312375 0.826451 0.020181
Si Si8 0.242587 0.358736 0.816552
O O1 0.566492 0.670317 0.709203
O O2 0.755337 0.822367 0.672179
O O3 0.738834 0.535654 0.697895
O O4 0.710519 0.763766 0.766153
O O5 0.403757 0.528095 0.091637
O O6 0.513446 0.285483 0.073135
O O7 0.472437 0.500000 0.000000
O O8 0.338078 0.295429 0.025226
O O9 0.547105 0.701482 0.133683
O O10 0.401470 0.810646 0.064890
O O11 0.347161 0.718816 0.159888
O O12 0.079006 0.962341 0.784352
O O13 0.646487 0.554636 0.874575
O O14 0.208311 0.225623 0.950977
O O15 0.156204 0.345104 0.861291
O O16 0.304533 0.000000 0.000000
#
# Coordination Sequence:
#
# PCOD9318870 Si02
#       8
#     8   8   8   4   8   8   8   8
#     4  12  23  39  65  91 132 169 216 260 323 380
#     4   9  19  38  61  83 116 167 203 250 336 386
#     4   9  20  39  64  86 120 168 214 257 321 396
#     4  12  22  42  68  88 138 172 208 268 330 372
#     4  11  21  41  67  91 124 178 216 262 325 384
#     4  10  21  39  63  86 125 161 216 264 313 398
#     4  10  21  37  59  90 126 154 206 275 323 373
#     4  11  21  38  60  94 123 166 215 263 314 384
#
# _framework density 21.054372000000001
#
# number of rings (size 3 to 8) (size 9 to 14) (size 15 to 20)
#    0.000    1.600    4.000    0.400    0.000    2.133 
#    0.000    8.000    0.000    0.000    0.000    0.000 
#    0.000    0.000    0.000    0.000    0.000    0.000 
#
# Total GULP energy -167511.752330 kJ/mol
# GULP energy per Si atom -5583.725078 kJ/mol
# Density = 2.100645 g / cm^3
# Si number density = 21.054372 Si / 1000 Ang^3
#
#
#
# Elastic Constant Matrix: (Units=GPa)
#
#
# Indices 1 2 3 4 5 6 
#
# 1 25.3446 8.5564 -1.5304 0.0000 0.0000 0.0000
# 2 8.5564 36.8228 14.4590 0.0000 0.0000 0.0000
# 3 -1.5304 14.4590 53.0304 0.0000 0.0000 0.0000
# 4 0.0000 0.0000 0.0000 22.1051 0.0000 0.0000
# 5 0.0000 0.0000 0.0000 0.0000 36.0378 0.0000
# 6 0.0000 0.0000 0.0000 0.0000 0.0000 16.9354
#
#
#
# Elastic Compliance Matrix: (Units=1/GPa)
#
#
# Indices 1 2 3 4 5 6 
#
# 1 0.043761 -0.011943 0.004519 0.000000 0.000000 0.000000
# 2 -0.011943 0.033673 -0.009526 0.000000 0.000000 0.000000
# 3 0.004519 -0.009526 0.021585 0.000000 0.000000 0.000000
# 4 0.000000 0.000000 0.000000 0.045238 0.000000 0.000000
# 5 0.000000 0.000000 0.000000 0.000000 0.027749 0.000000
# 6 0.000000 0.000000 0.000000 0.000000 0.000000 0.059048
#
#
# Mechanical properties :
#
#
# Convention : Reuss Voigt Hill
#
# Bulk Modulus (GPa) = 15.35645 17.57422 16.46533
# Shear Modulus (GPa) = 17.44233 21.26319 19.35276
#
# Velocity S-wave (km/s) = 2.88139 3.18137 3.03509
# Velocity P-wave (km/s) = 4.28712 4.67547 4.48550
#
# Compressibility (1/GPa) = 0.06511923
#
# Stress axis : x y z
#
# Youngs Moduli (GPa) = 22.85139 29.69771 46.32902
#
# Poissons Ratio (x) = 0.35468 -0.20937
# Poissons Ratio (y) = 0.27292 0.44132
# Poissons Ratio (z) = -0.10327 0.28289
#
# Static dielectric constant tensor:
#      x y z
#    x 1.794770 0.000000 0.000000 
#    y 0.000000 1.740820 0.000000 
#    z 0.000000 0.000000 1.791120 
# 
# From -- ./inp_files/29329.got.cif
#   From: 2010.05.17/outbox.cif.g08.bks.cpg/sg20_15_cif.got.tgz:29329.got - 2010.06.03 22:52:26.
