data_PCOD9318744
_publ_section_title
;
Structure prediction by ZEFSAII (Michael W. Deem and Ramdas Pophale) SiO2 
 PCOD9318744
Probable space group: C 2 2 21
;
_chemical_formula_sum "Si O2"
_cell_formula_units_Z 64
_cell_length_a 11.598288
_cell_length_b 14.927733
_cell_length_c 14.898060
_cell_angle_alpha 90.000000
_cell_angle_beta 90.000000
_cell_angle_gamma 90.000000
_cell_volume 2579.392699
_symmetry_space_group_name_H-M "C 2 2 21"
_symmetry_group_IT_number 20
_symmetry_cell_setting 'orthorhombic'
loop_
_space_group_symop_operation_xyz
x,y,z
-x,-y,1/2+z
x,-y,-z
-x,y,1/2-z
1/2+x,1/2+y,z
1/2-x,1/2-y,1/2+z
1/2+x,1/2-y,-z
1/2-x,1/2+y,1/2-z
loop_
_atom_site_type_symbol
_atom_site_label
_atom_site_fract_x
_atom_site_fract_y
_atom_site_fract_z
Si Si1 0.976098 0.123512 0.419053
Si Si2 0.392582 0.748406 0.189605
Si Si3 0.030705 0.624180 0.410925
Si Si4 0.000215 0.570235 0.617659
Si Si5 0.651481 0.733307 0.841871
Si Si6 0.257244 0.268661 0.540626
Si Si7 0.751883 0.937212 0.088997
Si Si8 0.995891 0.933021 0.371878
O O1 0.871631 0.192528 0.413902
O O2 0.991256 0.096572 0.523146
O O3 0.090992 0.174921 0.388923
O O4 0.945543 0.032752 0.366698
O O5 0.500000 0.717347 0.250000
O O6 0.431748 0.848827 0.162848
O O7 0.260514 0.748847 0.222616
O O8 0.991560 0.599915 0.512672
O O9 0.057811 0.526668 0.370746
O O10 0.933831 0.682941 0.360012
O O11 0.144093 0.682867 0.423716
O O12 0.867066 0.552518 0.643228
O O13 0.574896 0.645598 0.824202
O O14 0.718659 0.713655 0.935428
O O15 0.248293 0.164793 0.557893
O O16 0.868627 0.948421 0.145153
O O17 0.753225 0.000000 0.000000
#
# Coordination Sequence:
#
# PCOD9318744 Si02
#       8
#     8   8   8   8   8   8   8   8
#     4  10  21  37  59  92 122 158 200 250 322 365
#     4  12  26  44  61  82 127 177 212 244 287 379
#     4  11  21  34  61  97 120 147 191 270 322 358
#     4  11  22  35  58  93 121 158 203 243 316 366
#     4  11  21  36  57  87 122 159 196 247 312 369
#     4  11  20  33  58  89 130 146 190 262 322 361
#     4  12  18  31  54  91 128 154 183 244 321 373
#     4  10  21  33  63  95 125 149 188 272 331 364
#
# _framework density 24.812042000000002
#
# number of rings (size 3 to 8) (size 9 to 14) (size 15 to 20)
#    0.000    1.000    7.500    1.500    3.500    1.000 
#    0.000    1.250    0.000    1.500    0.000    0.000 
#    0.000    0.000    0.000    0.000    0.000    0.000 
#
# Total GULP energy -179053.390589 kJ/mol
# GULP energy per Si atom -5595.418456 kJ/mol
# Density = 2.475557 g / cm^3
# Si number density = 24.812042 Si / 1000 Ang^3
#
#
#
# Elastic Constant Matrix: (Units=GPa)
#
#
# Indices 1 2 3 4 5 6 
#
# 1 106.4826 43.8893 9.6605 0.0000 0.0000 0.0000
# 2 43.8893 184.1151 20.1484 0.0000 0.0000 0.0000
# 3 9.6605 20.1484 52.4364 0.0000 0.0000 0.0000
# 4 0.0000 0.0000 0.0000 5.7060 0.0000 0.0000
# 5 0.0000 0.0000 0.0000 0.0000 13.7529 0.0000
# 6 0.0000 0.0000 0.0000 0.0000 0.0000 38.9194
#
#
#
# Elastic Compliance Matrix: (Units=1/GPa)
#
#
# Indices 1 2 3 4 5 6 
#
# 1 0.010466 -0.002384 -0.001012 0.000000 0.000000 0.000000
# 2 -0.002384 0.006213 -0.001948 0.000000 0.000000 0.000000
# 3 -0.001012 -0.001948 0.020006 0.000000 0.000000 0.000000
# 4 0.000000 0.000000 0.000000 0.175255 0.000000 0.000000
# 5 0.000000 0.000000 0.000000 0.000000 0.072712 0.000000
# 6 0.000000 0.000000 0.000000 0.000000 0.000000 0.025694
#
#
# Mechanical properties :
#
#
# Convention : Reuss Voigt Hill
#
# Bulk Modulus (GPa) = 38.46754 54.49228 46.47991
# Shear Modulus (GPa) = 15.16536 29.63140 22.39838
#
# Velocity S-wave (km/s) = 2.47495 3.45952 3.00779
# Velocity P-wave (km/s) = 4.86872 6.16177 5.55301
#
# Compressibility (1/GPa) = 0.02599594
#
# Stress axis : x y z
#
# Youngs Moduli (GPa) = 95.55058 160.95613 49.98571
#
# Poissons Ratio (x) = 0.38373 0.05059
# Poissons Ratio (y) = 0.22780 0.09737
# Poissons Ratio (z) = 0.09670 0.31355
#
# Static dielectric constant tensor:
#      x y z
#    x 1.992280 0.000000 0.000000 
#    y 0.000000 1.901790 0.000000 
#    z 0.000000 0.000000 2.139240 
# 
# From -- ./inp_files/24452.got.cif
#   From: 2010.05.17/outbox.cif.g08.bks.cpg/sg20_13_cif.got.tgz:24452.got - 2010.06.03 22:52:26.
