data_PCOD9318146
_publ_section_title
;
Structure prediction by ZEFSAII (Michael W. Deem and Ramdas Pophale) SiO2 
 PCOD9318146
Probable space group: C 2 2 21
;
_chemical_formula_sum "Si O2"
_cell_formula_units_Z 48
_cell_length_a 8.414288
_cell_length_b 14.589511
_cell_length_c 18.844113
_cell_angle_alpha 90.000000
_cell_angle_beta 90.000000
_cell_angle_gamma 90.000000
_cell_volume 2313.309857
_symmetry_space_group_name_H-M "C 2 2 21"
_symmetry_group_IT_number 20
_symmetry_cell_setting 'orthorhombic'
loop_
_space_group_symop_operation_xyz
x,y,z
-x,-y,1/2+z
x,-y,-z
-x,y,1/2-z
1/2+x,1/2+y,z
1/2-x,1/2-y,1/2+z
1/2+x,1/2-y,-z
1/2-x,1/2+y,1/2-z
loop_
_atom_site_type_symbol
_atom_site_label
_atom_site_fract_x
_atom_site_fract_y
_atom_site_fract_z
Si Si1 0.171328 0.336497 0.576391
Si Si2 0.582530 0.762065 0.820408
Si Si3 0.741096 0.456094 0.701826
Si Si4 0.767450 0.361414 0.078794
Si Si5 0.117987 0.031078 0.148020
Si Si6 0.059832 0.484773 0.075121
O O1 0.237399 0.313724 0.498460
O O2 0.320478 0.371225 0.620971
O O3 0.057080 0.269953 0.620276
O O4 0.060959 0.428385 0.572822
O O5 0.500000 0.722703 0.750000
O O6 0.663764 0.859205 0.799385
O O7 0.718484 0.703692 0.857563
O O8 0.562052 0.456016 0.672057
O O9 0.725292 0.490684 0.782328
O O10 0.835872 0.514744 0.644732
O O11 0.653839 0.451118 0.090600
O O12 0.946863 0.397600 0.080082
O O13 0.149433 0.500000 0.000000
#
# Coordination Sequence:
#
# PCOD9318146 Si02
#       6
#     8   8   8   8   8   8
#     4   9  19  39  61  84 118 164 192 243 314 363
#     4  11  22  40  64  87 124 166 201 252 317 373
#     4  10  21  36  60  87 120 162 200 244 310 373
#     4  10  22  37  61  88 119 155 207 256 301 362
#     4  10  20  38  61  89 121 158 209 251 297 366
#     4   8  17  36  60  85 114 155 204 245 298 359
#
# _framework density 20.749489000000001
#
# number of rings (size 3 to 8) (size 9 to 14) (size 15 to 20)
#    0.000    2.333    1.667    1.500    2.333    2.667 
#    0.000    8.333    3.667    0.000    0.000    0.000 
#    0.000    0.000    0.000    0.000    0.000    0.000 
#
# Total GULP energy -133706.891759 kJ/mol
# GULP energy per Si atom -5571.120490 kJ/mol
# Density = 2.070226 g / cm^3
# Si number density = 20.749489 Si / 1000 Ang^3
#
#
#
# Elastic Constant Matrix: (Units=GPa)
#
#
# Indices 1 2 3 4 5 6 
#
# 1 50.2801 5.1528 51.4308 0.0000 0.0000 0.0000
# 2 5.1528 18.1001 19.3696 0.0000 0.0000 0.0000
# 3 51.4308 19.3696 154.5712 0.0000 0.0000 0.0000
# 4 0.0000 0.0000 0.0000 16.6028 0.0000 0.0000
# 5 0.0000 0.0000 0.0000 0.0000 4.5758 0.0000
# 6 0.0000 0.0000 0.0000 0.0000 0.0000 8.4491
#
#
#
# Elastic Compliance Matrix: (Units=1/GPa)
#
#
# Indices 1 2 3 4 5 6 
#
# 1 0.030247 0.002494 -0.010377 0.000000 0.000000 0.000000
# 2 0.002494 0.064010 -0.008851 0.000000 0.000000 0.000000
# 3 -0.010377 -0.008851 0.011031 0.000000 0.000000 0.000000
# 4 0.000000 0.000000 0.000000 0.060231 0.000000 0.000000
# 5 0.000000 0.000000 0.000000 0.000000 0.218543 0.000000
# 6 0.000000 0.000000 0.000000 0.000000 0.000000 0.118355
#
#
# Mechanical properties :
#
#
# Convention : Reuss Voigt Hill
#
# Bulk Modulus (GPa) = 13.92357 41.65087 27.78722
# Shear Modulus (GPa) = 8.93134 15.72542 12.32838
#
# Velocity S-wave (km/s) = 2.07695 2.75593 2.44017
# Velocity P-wave (km/s) = 3.53221 5.49942 4.62170
#
# Compressibility (1/GPa) = 0.07182066
#
# Stress axis : x y z
#
# Youngs Moduli (GPa) = 33.06093 15.62253 90.65117
#
# Poissons Ratio (x) = -0.03896 0.94066
# Poissons Ratio (y) = -0.08244 0.80235
# Poissons Ratio (z) = 0.34306 0.13827
#
# Static dielectric constant tensor:
#      x y z
#    x 1.728970 0.000000 0.000000 
#    y 0.000000 1.783210 0.000000 
#    z 0.000000 0.000000 1.795980 
# 
# From -- ./inp_files/23622.got.cif
#   From: 2010.05.17/outbox.cif.g08.bks.cpg/sg20_12_cif.got.tgz:23622.got - 2010.06.03 22:52:26.
