data_PCOD9318054
_publ_section_title
;
Structure prediction by ZEFSAII (Michael W. Deem and Ramdas Pophale) SiO2 
 PCOD9318054
Probable space group: C 2 2 21
;
_chemical_formula_sum "Si O2"
_cell_formula_units_Z 28
_cell_length_a 30.807490
_cell_length_b 8.416558
_cell_length_c 5.140392
_cell_angle_alpha 90.000000
_cell_angle_beta 90.000000
_cell_angle_gamma 90.000000
_cell_volume 1332.867799
_symmetry_space_group_name_H-M "C 2 2 21"
_symmetry_group_IT_number 20
_symmetry_cell_setting 'orthorhombic'
loop_
_space_group_symop_operation_xyz
x,y,z
-x,-y,1/2+z
x,-y,-z
-x,y,1/2-z
1/2+x,1/2+y,z
1/2-x,1/2-y,1/2+z
1/2+x,1/2-y,-z
1/2-x,1/2+y,1/2-z
loop_
_atom_site_type_symbol
_atom_site_label
_atom_site_fract_x
_atom_site_fract_y
_atom_site_fract_z
Si Si1 0.227549 0.685771 0.418626
Si Si2 0.140254 0.605735 0.239774
Si Si3 0.530670 0.500000 0.500000
Si Si4 0.049157 0.331934 0.645900
O O1 0.228566 0.500000 0.500000
O O2 0.241209 0.781693 0.674525
O O3 0.178819 0.724278 0.316525
O O4 0.135077 0.500000 0.500000
O O5 0.091667 0.664019 0.170527
O O6 0.156284 0.500000 0.000000
O O7 0.500000 0.496382 0.750000
O O8 0.555989 0.666775 0.492452
O O9 0.048355 0.500000 0.500000
O O10 0.000000 0.320823 0.750000
#
# Coordination Sequence:
#
# PCOD9318054 Si02
#       4
#     8   8   4   8
#     4  11  22  41  65  92 127 167 210 266 326 381
#     4  10  21  38  63  91 123 161 207 258 313 373
#     4  10  22  38  56  86 126 166 208 264 306 358
#     4  10  20  37  64  91 124 169 211 252 314 383
#
# _framework density 21.007335000000001
#
# number of rings (size 3 to 8) (size 9 to 14) (size 15 to 20)
#    0.000    1.714    0.000    6.000    0.000    6.857 
#    5.143    0.000    3.143    0.000    0.000    0.000 
#    0.000    0.000    0.000    0.000    0.000    0.000 
#
# Total GULP energy -77946.238614 kJ/mol
# GULP energy per Si atom -5567.588472 kJ/mol
# Density = 2.095952 g / cm^3
# Si number density = 21.007335 Si / 1000 Ang^3
#
#
#
# Elastic Constant Matrix: (Units=GPa)
#
#
# Indices 1 2 3 4 5 6 
#
# 1 140.1155 25.3352 26.2018 0.0000 0.0000 0.0000
# 2 25.3352 120.1736 14.3017 0.0000 0.0000 0.0000
# 3 26.2018 14.3017 108.2502 0.0000 0.0000 0.0000
# 4 0.0000 0.0000 0.0000 39.2809 0.0000 0.0000
# 5 0.0000 0.0000 0.0000 0.0000 25.4334 0.0000
# 6 0.0000 0.0000 0.0000 0.0000 0.0000 55.6849
#
#
#
# Elastic Compliance Matrix: (Units=1/GPa)
#
#
# Indices 1 2 3 4 5 6 
#
# 1 0.007708 -0.001425 -0.001677 0.000000 0.000000 0.000000
# 2 -0.001425 0.008718 -0.000807 0.000000 0.000000 0.000000
# 3 -0.001677 -0.000807 0.009750 0.000000 0.000000 0.000000
# 4 0.000000 0.000000 0.000000 0.025458 0.000000 0.000000
# 5 0.000000 0.000000 0.000000 0.000000 0.039318 0.000000
# 6 0.000000 0.000000 0.000000 0.000000 0.000000 0.017958
#
#
# Mechanical properties :
#
#
# Convention : Reuss Voigt Hill
#
# Bulk Modulus (GPa) = 54.47415 55.57964 55.02689
# Shear Modulus (GPa) = 40.70023 44.25988 42.48006
#
# Velocity S-wave (km/s) = 4.40640 4.59505 4.50171
# Velocity P-wave (km/s) = 7.20248 7.39374 7.29874
#
# Compressibility (1/GPa) = 0.01835733
#
# Stress axis : x y z
#
# Youngs Moduli (GPa) = 129.72847 114.70751 102.55907
#
# Poissons Ratio (x) = 0.16351 0.17204
# Poissons Ratio (y) = 0.18492 0.08274
# Poissons Ratio (z) = 0.21762 0.09254
#
# Static dielectric constant tensor:
#      x y z
#    x 1.880930 0.000000 0.000000 
#    y 0.000000 1.801720 0.000000 
#    z 0.000000 0.000000 1.801850 
# 
# From -- ./inp_files/429.got.cif
#   From: 2010.05.17/outbox.cif.g08.bks.cpg/sg20_1_cif.got.tgz:429.got - 2010.06.03 22:52:26.
