data_PCOD9318135
_publ_section_title
;
Structure prediction by ZEFSAII (Michael W. Deem and Ramdas Pophale) SiO2 
 PCOD9318135
Probable space group: C 2 2 21
;
_chemical_formula_sum "Si O2"
_cell_formula_units_Z 32
_cell_length_a 22.361559
_cell_length_b 5.072916
_cell_length_c 11.345276
_cell_angle_alpha 90.000000
_cell_angle_beta 90.000000
_cell_angle_gamma 90.000000
_cell_volume 1286.988941
_symmetry_space_group_name_H-M "C 2 2 21"
_symmetry_group_IT_number 20
_symmetry_cell_setting 'orthorhombic'
loop_
_space_group_symop_operation_xyz
x,y,z
-x,-y,1/2+z
x,-y,-z
-x,y,1/2-z
1/2+x,1/2+y,z
1/2-x,1/2-y,1/2+z
1/2+x,1/2-y,-z
1/2-x,1/2+y,1/2-z
loop_
_atom_site_type_symbol
_atom_site_label
_atom_site_fract_x
_atom_site_fract_y
_atom_site_fract_z
Si Si1 0.891106 0.436343 0.333393
Si Si2 0.858595 0.256729 0.071956
Si Si3 0.738011 0.146121 0.173313
Si Si4 0.966536 0.041215 0.625602
O O1 0.880698 0.320078 0.202466
O O2 0.827035 0.557153 0.367643
O O3 0.939346 0.669110 0.349314
O O4 0.914628 0.176012 0.395883
O O5 0.786135 0.249468 0.080722
O O6 0.881609 0.500000 0.000000
O O7 0.874428 0.000000 0.000000
O O8 0.732282 0.387602 0.265814
O O9 0.000000 0.971989 0.750000
O O10 0.000564 0.000000 0.500000
#
# Coordination Sequence:
#
# PCOD9318135 Si02
#       4
#     8   8   8   8
#     4  11  24  45  70  99 138 182 233 289 353 424
#     4  11  22  37  63 104 146 188 228 275 343 422
#     4  10  20  38  60  93 141 186 226 275 332 412
#     4  12  28  50  74 102 134 180 240 305 368 426
#
# _framework density 24.864238
#
# number of rings (size 3 to 8) (size 9 to 14) (size 15 to 20)
#    0.000    1.000    0.000    9.000    0.000    6.000 
#    0.000    0.000    0.000    0.000    0.000    0.000 
#    0.000    0.000    0.000    0.000    0.000    0.000 
#
# Total GULP energy -89427.853101 kJ/mol
# GULP energy per Si atom -5589.240819 kJ/mol
# Density = 2.480765 g / cm^3
# Si number density = 24.864238 Si / 1000 Ang^3
#
#
#
# Elastic Constant Matrix: (Units=GPa)
#
#
# Indices 1 2 3 4 5 6 
#
# 1 67.6354 37.2515 64.0333 0.0000 0.0000 0.0000
# 2 37.2515 183.2699 28.9223 0.0000 0.0000 0.0000
# 3 64.0333 28.9223 129.9441 0.0000 0.0000 0.0000
# 4 0.0000 0.0000 0.0000 46.3036 0.0000 0.0000
# 5 0.0000 0.0000 0.0000 0.0000 19.8774 0.0000
# 6 0.0000 0.0000 0.0000 0.0000 0.0000 31.0540
#
#
#
# Elastic Compliance Matrix: (Units=1/GPa)
#
#
# Indices 1 2 3 4 5 6 
#
# 1 0.030221 -0.003931 -0.014017 0.000000 0.000000 0.000000
# 2 -0.003931 0.006166 0.000564 0.000000 0.000000 0.000000
# 3 -0.014017 0.000564 0.014477 0.000000 0.000000 0.000000
# 4 0.000000 0.000000 0.000000 0.021597 0.000000 0.000000
# 5 0.000000 0.000000 0.000000 0.000000 0.050308 0.000000
# 6 0.000000 0.000000 0.000000 0.000000 0.000000 0.032202
#
#
# Mechanical properties :
#
#
# Convention : Reuss Voigt Hill
#
# Bulk Modulus (GPa) = 62.12095 71.25152 66.68623
# Shear Modulus (GPa) = 25.62743 36.15651 30.89197
#
# Velocity S-wave (km/s) = 3.21393 3.81748 3.52863
# Velocity P-wave (km/s) = 6.22982 6.93897 6.59394
#
# Compressibility (1/GPa) = 0.01609763
#
# Stress axis : x y z
#
# Youngs Moduli (GPa) = 33.09002 162.17215 69.07370
#
# Poissons Ratio (x) = 0.63743 0.96822
# Poissons Ratio (y) = 0.13006 -0.03899
# Poissons Ratio (z) = 0.46383 -0.09153
#
# Static dielectric constant tensor:
#      x y z
#    x 1.992560 0.000000 0.000000 
#    y 0.000000 1.850870 0.000000 
#    z 0.000000 0.000000 1.988430 
# 
# From -- ./inp_files/16491.got.cif
#   From: 2010.05.17/outbox.cif.g08.bks.cpg/sg20_9_cif.got.tgz:16491.got - 2010.06.03 22:52:26.
