data_PCOD9318048
_publ_section_title
;
Structure prediction by ZEFSAII (Michael W. Deem and Ramdas Pophale) SiO2 
 PCOD9318048
Probable space group: C 2 2 21
;
_chemical_formula_sum "Si O2"
_cell_formula_units_Z 56
_cell_length_a 14.033139
_cell_length_b 15.268939
_cell_length_c 9.968968
_cell_angle_alpha 90.000000
_cell_angle_beta 90.000000
_cell_angle_gamma 90.000000
_cell_volume 2136.062172
_symmetry_space_group_name_H-M "C 2 2 21"
_symmetry_group_IT_number 20
_symmetry_cell_setting 'orthorhombic'
loop_
_space_group_symop_operation_xyz
x,y,z
-x,-y,1/2+z
x,-y,-z
-x,y,1/2-z
1/2+x,1/2+y,z
1/2-x,1/2-y,1/2+z
1/2+x,1/2-y,-z
1/2-x,1/2+y,1/2-z
loop_
_atom_site_type_symbol
_atom_site_label
_atom_site_fract_x
_atom_site_fract_y
_atom_site_fract_z
Si Si1 0.432847 0.036217 0.861119
Si Si2 0.892955 0.991757 0.786840
Si Si3 0.121493 0.853117 0.499718
Si Si4 0.228145 0.902751 0.110917
Si Si5 0.399496 0.859608 0.696351
Si Si6 0.081367 0.768814 0.968304
Si Si7 0.243791 0.260498 0.175733
O O1 0.500000 0.085798 0.750000
O O2 0.338036 0.079780 0.926828
O O3 0.399662 0.956942 0.759738
O O4 0.482159 0.000000 0.000000
O O5 0.000000 0.965187 0.750000
O O6 0.903197 0.080642 0.875855
O O7 0.827788 0.010124 0.657598
O O8 0.849578 0.918567 0.882493
O O9 0.205009 0.785626 0.464475
O O10 0.025481 0.800330 0.528279
O O11 0.150900 0.842771 0.035059
O O12 0.247323 0.849470 0.245451
O O13 0.500000 0.820602 0.750000
O O14 0.404747 0.824763 0.543458
O O15 0.310712 0.811245 0.760660
O O16 0.133618 0.762441 0.827335
#
# Coordination Sequence:
#
# PCOD9318048 Si02
#       7
#     8   8   8   8   8   8   8
#     4  11  26  47  70 100 135 181 234 292 339 403
#     4  10  20  37  63  94 126 167 216 280 349 399
#     4  10  21  38  61  93 129 167 219 281 340 412
#     4  10  23  41  67  93 134 173 229 284 336 420
#     4  10  21  40  68  88 122 180 224 267 335 416
#     4  11  21  40  67  93 131 182 222 275 348 424
#     4  10  22  39  62  97 127 173 224 275 341 406
#
# _framework density 26.216467000000002
#
# number of rings (size 3 to 8) (size 9 to 14) (size 15 to 20)
#    0.000    1.714    2.857    0.857    2.000    4.571 
#    7.714    0.000    0.000    0.000    0.000    0.000 
#    0.000    0.000    0.000    0.000    0.000    0.000 
#
# Total GULP energy -156366.297371 kJ/mol
# GULP energy per Si atom -5584.510620 kJ/mol
# Density = 2.615680 g / cm^3
# Si number density = 26.216467 Si / 1000 Ang^3
#
#
#
# Elastic Constant Matrix: (Units=GPa)
#
#
# Indices 1 2 3 4 5 6 
#
# 1 116.3186 23.1036 11.5466 0.0000 0.0000 0.0000
# 2 23.1036 58.2874 11.5220 0.0000 0.0000 0.0000
# 3 11.5466 11.5220 48.5823 0.0000 0.0000 0.0000
# 4 0.0000 0.0000 0.0000 35.9380 0.0000 0.0000
# 5 0.0000 0.0000 0.0000 0.0000 37.4232 0.0000
# 6 0.0000 0.0000 0.0000 0.0000 0.0000 34.8767
#
#
#
# Elastic Compliance Matrix: (Units=1/GPa)
#
#
# Indices 1 2 3 4 5 6 
#
# 1 0.009424 -0.003455 -0.001421 0.000000 0.000000 0.000000
# 2 -0.003455 0.019267 -0.003748 0.000000 0.000000 0.000000
# 3 -0.001421 -0.003748 0.021810 0.000000 0.000000 0.000000
# 4 0.000000 0.000000 0.000000 0.027826 0.000000 0.000000
# 5 0.000000 0.000000 0.000000 0.000000 0.026721 0.000000
# 6 0.000000 0.000000 0.000000 0.000000 0.000000 0.028672
#
#
# Mechanical properties :
#
#
# Convention : Reuss Voigt Hill
#
# Bulk Modulus (GPa) = 30.07153 35.05921 32.56537
# Shear Modulus (GPa) = 30.85419 33.44863 32.15141
#
# Velocity S-wave (km/s) = 3.43432 3.57580 3.50577
# Velocity P-wave (km/s) = 5.21742 5.51819 5.36991
#
# Compressibility (1/GPa) = 0.03325404
#
# Stress axis : x y z
#
# Youngs Moduli (GPa) = 106.10884 51.90309 45.85012
#
# Poissons Ratio (x) = 0.17931 0.06513
# Poissons Ratio (y) = 0.36658 0.17186
# Poissons Ratio (z) = 0.15073 0.19455
#
# Static dielectric constant tensor:
#      x y z
#    x 2.038600 0.000000 0.000000 
#    y 0.000000 2.085530 0.000000 
#    z 0.000000 0.000000 2.170260 
# 
# From -- ./inp_files/15117.got.cif
#   From: 2010.05.17/outbox.cif.g08.bks.cpg/sg20_8_cif.got.tgz:15117.got - 2010.06.03 22:52:26.
