data_PCOD9318096
_publ_section_title
;
Structure prediction by ZEFSAII (Michael W. Deem and Ramdas Pophale) SiO2 
 PCOD9318096
Probable space group: C 2 2 21
;
_chemical_formula_sum "Si O2"
_cell_formula_units_Z 52
_cell_length_a 23.685059
_cell_length_b 7.184114
_cell_length_c 12.751231
_cell_angle_alpha 90.000000
_cell_angle_beta 90.000000
_cell_angle_gamma 90.000000
_cell_volume 2169.700553
_symmetry_space_group_name_H-M "C 2 2 21"
_symmetry_group_IT_number 20
_symmetry_cell_setting 'orthorhombic'
loop_
_space_group_symop_operation_xyz
x,y,z
-x,-y,1/2+z
x,-y,-z
-x,y,1/2-z
1/2+x,1/2+y,z
1/2-x,1/2-y,1/2+z
1/2+x,1/2-y,-z
1/2-x,1/2+y,1/2-z
loop_
_atom_site_type_symbol
_atom_site_label
_atom_site_fract_x
_atom_site_fract_y
_atom_site_fract_z
Si Si1 0.606236 0.500000 0.000000
Si Si2 0.560382 0.177660 0.354137
Si Si3 0.312512 0.785730 0.908598
Si Si4 0.845580 0.500000 0.500000
Si Si5 0.444672 0.162877 0.386878
Si Si6 0.193186 0.178658 0.141855
Si Si7 0.433759 0.500000 0.000000
Si Si8 0.166822 0.152539 0.373999
O O1 0.568685 0.678343 0.973249
O O2 0.648117 0.469196 0.901830
O O3 0.624852 0.132682 0.384955
O O4 0.505217 0.054454 0.383334
O O5 0.560789 0.229470 0.232473
O O6 0.540514 0.359146 0.418479
O O7 0.258761 0.877533 0.854176
O O8 0.314279 0.566426 0.872428
O O9 0.304027 0.771093 0.034115
O O10 0.889673 0.538309 0.406328
O O11 0.809399 0.663401 0.551056
O O12 0.173906 0.230745 0.258561
O O13 0.395451 0.629278 0.076515
#
# Coordination Sequence:
#
# PCOD9318096 Si02
#       8
#     4   8   8   4   8   8   4   8
#     4  10  21  34  56  86 110 146 197 230 270 342
#     4   9  18  34  58  79 108 146 186 233 283 328
#     4   9  19  34  55  85 111 139 183 232 279 328
#     4  10  24  39  54  80 118 155 188 228 280 336
#     4  10  20  38  57  80 112 152 190 232 279 330
#     4  11  21  37  58  84 118 151 185 231 283 338
#     4   8  15  33  56  86 108 135 189 242 274 324
#     4   8  17  33  53  77 109 147 182 220 272 328
#
# _framework density 23.966441
#
# number of rings (size 3 to 8) (size 9 to 14) (size 15 to 20)
#    0.000    3.077    0.000    3.231    0.000    4.923 
#    0.000    6.923    0.000   12.923    0.000    0.000 
#    0.000    0.000    0.000    0.000    0.000    0.000 
#
# Total GULP energy -144757.920308 kJ/mol
# GULP energy per Si atom -5567.612320 kJ/mol
# Density = 2.391189 g / cm^3
# Si number density = 23.966441 Si / 1000 Ang^3
#
#
#
# Elastic Constant Matrix: (Units=GPa)
#
#
# Indices 1 2 3 4 5 6 
#
# 1 158.7718 5.8549 31.3058 0.0000 0.0000 0.0000
# 2 5.8549 28.3891 6.0418 0.0000 0.0000 0.0000
# 3 31.3058 6.0418 140.5396 0.0000 0.0000 0.0000
# 4 0.0000 0.0000 0.0000 27.1519 0.0000 0.0000
# 5 0.0000 0.0000 0.0000 0.0000 12.6781 0.0000
# 6 0.0000 0.0000 0.0000 0.0000 0.0000 -121.7934
#
#
#
# Elastic Compliance Matrix: (Units=1/GPa)
#
#
# Indices 1 2 3 4 5 6 
#
# 1 0.006619 -0.001061 -0.001429 0.000000 0.000000 0.000000
# 2 -0.001061 0.035720 -0.001299 0.000000 0.000000 0.000000
# 3 -0.001429 -0.001299 0.007490 0.000000 0.000000 0.000000
# 4 0.000000 0.000000 0.000000 0.036830 0.000000 0.000000
# 5 0.000000 0.000000 0.000000 0.000000 0.078876 0.000000
# 6 0.000000 0.000000 0.000000 0.000000 0.000000 -0.008211
#
#
# Mechanical properties :
#
#
# Convention : Reuss Voigt Hill
#
# Bulk Modulus (GPa) = 23.66829 46.01172 34.84001
# Shear Modulus (GPa) = 27.93510 2.57383 15.25447
#
# Velocity S-wave (km/s) = 3.41778 1.03743 2.52562
# Velocity P-wave (km/s) = 5.04698 4.54699 4.80349
#
# Compressibility (1/GPa) = 0.04225062
#
# Stress axis : x y z
#
# Youngs Moduli (GPa) = 151.07551 27.99541 133.51899
#
# Poissons Ratio (x) = 0.02970 0.19078
# Poissons Ratio (y) = 0.16030 0.17348
# Poissons Ratio (z) = 0.21586 0.03637
#
# Static dielectric constant tensor:
#      x y z
#    x 1.993990 0.000000 0.000000 
#    y 0.000000 2.036650 0.000000 
#    z 0.000000 0.000000 2.009830 
# 
# From -- ./inp_files/17058.got.cif
#   From: 2010.05.17/outbox.cif.g08.bks.cpg/sg20_9_cif.got.tgz:17058.got - 2010.06.03 22:52:26.
