data_PCOD9318722
_publ_section_title
;
Structure prediction by ZEFSAII (Michael W. Deem and Ramdas Pophale) SiO2 
 PCOD9318722
Probable space group: C 2 2 21
;
_chemical_formula_sum "Si O2"
_cell_formula_units_Z 32
_cell_length_a 6.785527
_cell_length_b 18.001311
_cell_length_c 11.859656
_cell_angle_alpha 90.000000
_cell_angle_beta 90.000000
_cell_angle_gamma 90.000000
_cell_volume 1448.637789
_symmetry_space_group_name_H-M "C 2 2 21"
_symmetry_group_IT_number 20
_symmetry_cell_setting 'orthorhombic'
loop_
_space_group_symop_operation_xyz
x,y,z
-x,-y,1/2+z
x,-y,-z
-x,y,1/2-z
1/2+x,1/2+y,z
1/2-x,1/2-y,1/2+z
1/2+x,1/2-y,-z
1/2-x,1/2+y,1/2-z
loop_
_atom_site_type_symbol
_atom_site_label
_atom_site_fract_x
_atom_site_fract_y
_atom_site_fract_z
Si Si1 0.288127 0.776496 0.052027
Si Si2 0.500000 0.306076 0.250000
Si Si3 0.877486 0.387466 0.351243
Si Si4 0.976703 0.140965 0.385568
Si Si5 0.142269 0.000000 0.500000
O O1 0.108334 0.770946 0.141969
O O2 0.471664 0.825465 0.099758
O O3 0.359081 0.691781 0.052750
O O4 0.216348 0.819586 0.939702
O O5 0.682438 0.351134 0.299789
O O6 0.790946 0.449113 0.430961
O O7 0.000000 0.424081 0.250000
O O8 0.007896 0.056381 0.426061
O O9 0.000000 0.148043 0.250000
#
# Coordination Sequence:
#
# PCOD9318722 Si02
#       5
#     8   4   8   8   4
#     4  11  25  48  75 107 148 198 264 328 374 459
#     4  10  20  46  78 100 140 200 256 322 378 460
#     4  10  23  44  74 102 144 200 253 314 389 453
#     4  12  28  46  76 114 152 200 262 313 393 464
#     4  12  26  46  64 114 152 200 246 314 388 468
#
# _framework density 22.089718000000001
#
# number of rings (size 3 to 8) (size 9 to 14) (size 15 to 20)
#    0.000    1.000    2.500    3.750    5.250    3.000 
#    2.250    0.000    0.000    0.000    0.000    0.000 
#    0.000    0.000    0.000    0.000    0.000    0.000 
#
# Total GULP energy -89269.738928 kJ/mol
# GULP energy per Si atom -5579.358683 kJ/mol
# Density = 2.203944 g / cm^3
# Si number density = 22.089718 Si / 1000 Ang^3
#
#
#
# Elastic Constant Matrix: (Units=GPa)
#
#
# Indices 1 2 3 4 5 6 
#
# 1 136.4767 36.5327 41.7287 0.0000 0.0000 0.0000
# 2 36.5327 124.6094 55.5118 0.0000 0.0000 0.0000
# 3 41.7287 55.5118 132.9617 0.0000 0.0000 0.0000
# 4 0.0000 0.0000 0.0000 17.1120 0.0000 0.0000
# 5 0.0000 0.0000 0.0000 0.0000 49.5636 0.0000
# 6 0.0000 0.0000 0.0000 0.0000 0.0000 20.1198
#
#
#
# Elastic Compliance Matrix: (Units=1/GPa)
#
#
# Indices 1 2 3 4 5 6 
#
# 1 0.008349 -0.001573 -0.001963 0.000000 0.000000 0.000000
# 2 -0.001573 0.010155 -0.003746 0.000000 0.000000 0.000000
# 3 -0.001963 -0.003746 0.009701 0.000000 0.000000 0.000000
# 4 0.000000 0.000000 0.000000 0.058439 0.000000 0.000000
# 5 0.000000 0.000000 0.000000 0.000000 0.020176 0.000000
# 6 0.000000 0.000000 0.000000 0.000000 0.000000 0.049702
#
#
# Mechanical properties :
#
#
# Convention : Reuss Voigt Hill
#
# Bulk Modulus (GPa) = 73.31427 73.51046 73.41236
# Shear Modulus (GPa) = 28.46836 34.71070 31.58953
#
# Velocity S-wave (km/s) = 3.59383 3.96833 3.78571
# Velocity P-wave (km/s) = 7.10508 7.37206 7.23980
#
# Compressibility (1/GPa) = 0.01363991
#
# Stress axis : x y z
#
# Youngs Moduli (GPa) = 119.77988 98.47297 103.08032
#
# Poissons Ratio (x) = 0.15489 0.20239
# Poissons Ratio (y) = 0.18841 0.38615
# Poissons Ratio (z) = 0.23518 0.36889
#
# Static dielectric constant tensor:
#      x y z
#    x 1.839880 0.000000 0.000000 
#    y 0.000000 1.831400 0.000000 
#    z 0.000000 0.000000 2.156920 
# 
# From -- ./inp_files/11954.got.cif
#   From: 2010.05.17/outbox.cif.g08.bks.cpg/sg20_6_cif.got.tgz:11954.got - 2010.06.03 22:52:26.
