data_PCOD9318746
_publ_section_title
;
Structure prediction by ZEFSAII (Michael W. Deem and Ramdas Pophale) SiO2 
 PCOD9318746
Probable space group: C 2 2 21
;
_chemical_formula_sum "Si O2"
_cell_formula_units_Z 64
_cell_length_a 13.406686
_cell_length_b 13.281063
_cell_length_c 19.994453
_cell_angle_alpha 90.000000
_cell_angle_beta 90.000000
_cell_angle_gamma 90.000000
_cell_volume 3560.113156
_symmetry_space_group_name_H-M "C 2 2 21"
_symmetry_group_IT_number 20
_symmetry_cell_setting 'orthorhombic'
loop_
_space_group_symop_operation_xyz
x,y,z
-x,-y,1/2+z
x,-y,-z
-x,y,1/2-z
1/2+x,1/2+y,z
1/2-x,1/2-y,1/2+z
1/2+x,1/2-y,-z
1/2-x,1/2+y,1/2-z
loop_
_atom_site_type_symbol
_atom_site_label
_atom_site_fract_x
_atom_site_fract_y
_atom_site_fract_z
Si Si1 0.800619 0.384692 0.287737
Si Si2 0.030650 0.878255 0.075472
Si Si3 0.199381 0.384693 0.787737
Si Si4 0.799199 0.121769 0.073455
Si Si5 0.030650 0.121745 0.075472
Si Si6 0.102866 0.818254 0.216165
Si Si7 0.700801 0.378231 0.426546
Si Si8 0.602866 0.681745 0.216165
O O1 0.835995 0.500000 0.286712
O O2 0.699558 0.375513 0.244255
O O3 0.766935 0.353849 0.362807
O O4 0.877272 0.298764 0.265841
O O5 0.091011 0.834144 0.137123
O O6 0.914345 0.846965 0.083144
O O7 0.034139 0.000000 0.079877
O O8 0.062356 0.850521 0.000000
O O9 0.233065 0.353849 0.862807
O O10 0.122728 0.298765 0.765841
O O11 0.300442 0.375513 0.744255
O O12 0.914345 0.153035 0.083144
O O13 0.801210 1.000000 0.071590
O O14 0.765331 0.157070 0.000000
O O15 0.091011 0.165856 0.137123
O O16 0.000000 0.853907 0.250000
O O17 0.500000 0.646092 0.250000
#
# Coordination Sequence:
#
# PCOD9318746 Si02
#       8
#     8   8   8   8   8   8   8   8
#     4  10  21  34  50  75 103 134 170 207 251 299
#     4   9  17  30  51  77 101 127 162 206 253 296
#     4  10  21  34  50  75 103 134 170 207 251 299
#     4   8  14  27  48  72  96 123 159 204 248 289
#     4   9  17  30  51  77 101 127 162 206 253 296
#     4  11  21  33  52  76 102 132 170 209 249 299
#     4   8  14  27  48  72  96 123 159 204 248 289
#     4  11  21  33  52  76 102 132 170 209 249 299
#
# _framework density 17.976956999999999
#
# number of rings (size 3 to 8) (size 9 to 14) (size 15 to 20)
#    0.000    2.500    2.500    2.250    0.000    2.500 
#    0.000    0.000    0.000    0.000    0.000    0.000 
#    0.000    0.000    0.000    0.000    0.000    0.000 
#
# Total GULP energy -178295.909480 kJ/mol
# GULP energy per Si atom -5571.747171 kJ/mol
# Density = 1.793604 g / cm^3
# Si number density = 17.976957 Si / 1000 Ang^3
#
#
#
# Elastic Constant Matrix: (Units=GPa)
#
#
# Indices 1 2 3 4 5 6 
#
# 1 27.0237 -0.4603 2.6197 0.0000 0.0000 0.0000
# 2 -0.4603 51.4470 -2.8535 0.0000 0.0000 0.0000
# 3 2.6197 -2.8535 62.4585 0.0000 0.0000 0.0000
# 4 0.0000 0.0000 0.0000 16.8226 0.0000 0.0000
# 5 0.0000 0.0000 0.0000 0.0000 9.9329 0.0000
# 6 0.0000 0.0000 0.0000 0.0000 0.0000 8.2828
#
#
#
# Elastic Compliance Matrix: (Units=1/GPa)
#
#
# Indices 1 2 3 4 5 6 
#
# 1 0.037159 0.000247 -0.001547 0.000000 0.000000 0.000000
# 2 0.000247 0.019489 0.000880 0.000000 0.000000 0.000000
# 3 -0.001547 0.000880 0.016116 0.000000 0.000000 0.000000
# 4 0.000000 0.000000 0.000000 0.059444 0.000000 0.000000
# 5 0.000000 0.000000 0.000000 0.000000 0.100675 0.000000
# 6 0.000000 0.000000 0.000000 0.000000 0.000000 0.120732
#
#
# Mechanical properties :
#
#
# Convention : Reuss Voigt Hill
#
# Bulk Modulus (GPa) = 13.90399 15.50455 14.70427
# Shear Modulus (GPa) = 13.21251 16.44922 14.83087
#
# Velocity S-wave (km/s) = 2.71397 3.02821 2.87539
# Velocity P-wave (km/s) = 4.19190 4.56838 4.38418
#
# Compressibility (1/GPa) = 0.07192181
#
# Stress axis : x y z
#
# Youngs Moduli (GPa) = 26.91154 51.31230 62.05116
#
# Poissons Ratio (x) = -0.01266 0.09601
# Poissons Ratio (y) = -0.00664 -0.05460
# Poissons Ratio (z) = 0.04164 -0.04515
#
# Static dielectric constant tensor:
#      x y z
#    x 1.602750 0.000000 0.000000 
#    y 0.000000 1.599950 0.000000 
#    z 0.000000 0.000000 1.654660 
# 
# From -- ./inp_files/25036.got.cif
#   From: 2010.05.17/outbox.cif.g08.bks.cpg/sg20_13_cif.got.tgz:25036.got - 2010.06.03 22:52:26.
