data_PCOD9318842
_publ_section_title
;
Structure prediction by ZEFSAII (Michael W. Deem and Ramdas Pophale) SiO2 
 PCOD9318842
Probable space group: C 2 2 21
;
_chemical_formula_sum "Si O2"
_cell_formula_units_Z 48
_cell_length_a 9.113917
_cell_length_b 17.655923
_cell_length_c 14.736831
_cell_angle_alpha 90.000000
_cell_angle_beta 90.000000
_cell_angle_gamma 90.000000
_cell_volume 2371.371513
_symmetry_space_group_name_H-M "C 2 2 21"
_symmetry_group_IT_number 20
_symmetry_cell_setting 'orthorhombic'
loop_
_space_group_symop_operation_xyz
x,y,z
-x,-y,1/2+z
x,-y,-z
-x,y,1/2-z
1/2+x,1/2+y,z
1/2-x,1/2-y,1/2+z
1/2+x,1/2-y,-z
1/2-x,1/2+y,1/2-z
loop_
_atom_site_type_symbol
_atom_site_label
_atom_site_fract_x
_atom_site_fract_y
_atom_site_fract_z
Si Si1 0.000000 0.237744 0.250000
Si Si2 0.859685 0.806992 0.014798
Si Si3 0.590051 0.351592 0.157839
Si Si4 0.028172 0.676042 0.932707
Si Si5 0.500000 0.065630 0.250000
Si Si6 0.231029 0.316961 0.823243
Si Si7 0.848264 0.463672 0.095366
O O1 0.983731 0.291313 0.164321
O O2 0.148124 0.189608 0.244024
O O3 0.698958 0.806866 0.057366
O O4 0.974732 0.852474 0.074931
O O5 0.825336 0.835558 0.913283
O O6 0.931348 0.723736 0.003894
O O7 0.500000 0.367603 0.250000
O O8 0.654983 0.265705 0.165646
O O9 0.721241 0.409572 0.136551
O O10 0.984495 0.589385 0.935132
O O11 0.388177 0.120264 0.303126
O O12 0.409586 0.017295 0.175346
O O13 0.796073 0.500000 0.000000
#
# Coordination Sequence:
#
# PCOD9318842 Si02
#       7
#     4   8   8   8   4   8   8
#     4  10  21  36  70  97 134 168 248 280 351 394
#     4  11  22  39  74 101 137 176 255 291 354 413
#     4  12  25  46  74 106 143 194 252 303 362 446
#     4  11  21  40  67 105 134 186 227 301 348 438
#     4  12  29  48  72 109 156 190 242 300 385 440
#     4  11  23  44  72 110 139 191 242 308 347 436
#     4  12  28  48  70 104 157 196 234 301 393 443
#
# _framework density 20.241451000000001
#
# number of rings (size 3 to 8) (size 9 to 14) (size 15 to 20)
#    0.000    0.667    5.833    2.500    2.333    2.667 
#    4.500    0.833    0.000    0.000    0.000    0.000 
#    0.000    0.000    0.000    0.000    0.000    0.000 
#
# Total GULP energy -134015.130857 kJ/mol
# GULP energy per Si atom -5583.963786 kJ/mol
# Density = 2.019538 g / cm^3
# Si number density = 20.241451 Si / 1000 Ang^3
#
#
#
# Elastic Constant Matrix: (Units=GPa)
#
#
# Indices 1 2 3 4 5 6 
#
# 1 148.1705 71.4752 41.6768 0.0000 0.0000 0.0000
# 2 71.4752 111.0999 55.4256 0.0000 0.0000 0.0000
# 3 41.6768 55.4256 103.5840 0.0000 0.0000 0.0000
# 4 0.0000 0.0000 0.0000 27.9629 0.0000 0.0000
# 5 0.0000 0.0000 0.0000 0.0000 43.8610 0.0000
# 6 0.0000 0.0000 0.0000 0.0000 0.0000 23.0667
#
#
#
# Elastic Compliance Matrix: (Units=1/GPa)
#
#
# Indices 1 2 3 4 5 6 
#
# 1 0.009832 -0.005936 -0.000779 0.000000 0.000000 0.000000
# 2 -0.005936 0.015863 -0.006099 0.000000 0.000000 0.000000
# 3 -0.000779 -0.006099 0.013231 0.000000 0.000000 0.000000
# 4 0.000000 0.000000 0.000000 0.035762 0.000000 0.000000
# 5 0.000000 0.000000 0.000000 0.000000 0.022799 0.000000
# 6 0.000000 0.000000 0.000000 0.000000 0.000000 0.043353
#
#
# Mechanical properties :
#
#
# Convention : Reuss Voigt Hill
#
# Bulk Modulus (GPa) = 75.21275 77.77883 76.49579
# Shear Modulus (GPa) = 29.25657 31.92991 30.59324
#
# Velocity S-wave (km/s) = 3.80594 3.97602 3.89191
# Velocity P-wave (km/s) = 7.52011 7.71928 7.62034
#
# Compressibility (1/GPa) = 0.01329562
#
# Stress axis : x y z
#
# Youngs Moduli (GPa) = 101.71042 63.04002 75.57865
#
# Poissons Ratio (x) = 0.37423 0.05890
# Poissons Ratio (y) = 0.60380 0.46099
# Poissons Ratio (z) = 0.07927 0.38451
#
# Static dielectric constant tensor:
#      x y z
#    x 1.757660 0.000000 0.000000 
#    y 0.000000 1.724890 0.000000 
#    z 0.000000 0.000000 1.902960 
# 
# From -- ./inp_files/18936.got.cif
#   From: 2010.05.17/outbox.cif.g08.bks.cpg/sg20_10_cif.got.tgz:18936.got - 2010.06.03 22:52:26.
