data_PCOD9318541
_publ_section_title
;
Structure prediction by ZEFSAII (Michael W. Deem and Ramdas Pophale) SiO2 
 PCOD9318541
Probable space group: C 2 2 21
;
_chemical_formula_sum "Si O2"
_cell_formula_units_Z 28
_cell_length_a 15.460577
_cell_length_b 5.099191
_cell_length_c 12.797486
_cell_angle_alpha 90.000000
_cell_angle_beta 90.000000
_cell_angle_gamma 90.000000
_cell_volume 1008.908174
_symmetry_space_group_name_H-M "C 2 2 21"
_symmetry_group_IT_number 20
_symmetry_cell_setting 'orthorhombic'
loop_
_space_group_symop_operation_xyz
x,y,z
-x,-y,1/2+z
x,-y,-z
-x,y,1/2-z
1/2+x,1/2+y,z
1/2-x,1/2-y,1/2+z
1/2+x,1/2-y,-z
1/2-x,1/2+y,1/2-z
loop_
_atom_site_type_symbol
_atom_site_label
_atom_site_fract_x
_atom_site_fract_y
_atom_site_fract_z
Si Si1 0.562070 0.822625 0.150078
Si Si2 0.008150 0.178096 0.622070
Si Si3 0.231008 0.965983 0.188088
Si Si4 0.848240 0.500000 0.000000
O O1 0.500000 0.872389 0.250000
O O2 0.502928 0.620859 0.086523
O O3 0.647037 0.648546 0.166782
O O4 0.568387 0.110799 0.101658
O O5 0.092790 0.314439 0.573791
O O6 0.000000 0.139143 0.750000
O O7 0.214978 0.693926 0.249722
O O8 0.283641 0.876413 0.085681
#
# Coordination Sequence:
#
# PCOD9318541 Si02
#       4
#     8   8   8   4
#     4  10  20  41  67  93 132 181 229 292 358 425
#     4  10  22  42  67  98 134 183 243 296 350 439
#     4  12  26  46  72 110 152 193 250 318 378 453
#     4  12  28  46  76 108 148 202 248 312 394 440
#
# _framework density 27.752772
#
# number of rings (size 3 to 8) (size 9 to 14) (size 15 to 20)
#    0.000    1.143    0.000    8.571    0.000    6.857 
#    0.000    0.000    0.000    0.000    0.000    0.000 
#    0.000    0.000    0.000    0.000    0.000    0.000 
#
# Total GULP energy -78071.568138 kJ/mol
# GULP energy per Si atom -5576.540581 kJ/mol
# Density = 2.768960 g / cm^3
# Si number density = 27.752772 Si / 1000 Ang^3
#
#
#
# Elastic Constant Matrix: (Units=GPa)
#
#
# Indices 1 2 3 4 5 6 
#
# 1 112.4887 -19.4288 35.8363 0.0000 0.0000 0.0000
# 2 -19.4288 186.5937 10.5570 0.0000 0.0000 0.0000
# 3 35.8363 10.5570 120.0589 0.0000 0.0000 0.0000
# 4 0.0000 0.0000 0.0000 42.6790 0.0000 0.0000
# 5 0.0000 0.0000 0.0000 0.0000 73.8251 0.0000
# 6 0.0000 0.0000 0.0000 0.0000 0.0000 20.1835
#
#
#
# Elastic Compliance Matrix: (Units=1/GPa)
#
#
# Indices 1 2 3 4 5 6 
#
# 1 0.010096 0.001228 -0.003122 0.000000 0.000000 0.000000
# 2 0.001228 0.005535 -0.000853 0.000000 0.000000 0.000000
# 3 -0.003122 -0.000853 0.009336 0.000000 0.000000 0.000000
# 4 0.000000 0.000000 0.000000 0.023431 0.000000 0.000000
# 5 0.000000 0.000000 0.000000 0.000000 0.013546 0.000000
# 6 0.000000 0.000000 0.000000 0.000000 0.000000 0.049546
#
#
# Mechanical properties :
#
#
# Convention : Reuss Voigt Hill
#
# Bulk Modulus (GPa) = 51.35111 52.56336 51.95724
# Shear Modulus (GPa) = 40.49413 53.48265 46.98839
#
# Velocity S-wave (km/s) = 3.82396 4.39465 4.11920
# Velocity P-wave (km/s) = 6.16767 6.68817 6.43318
#
# Compressibility (1/GPa) = 0.01947378
#
# Stress axis : x y z
#
# Youngs Moduli (GPa) = 99.04590 180.65661 107.11183
#
# Poissons Ratio (x) = -0.22182 0.33436
# Poissons Ratio (y) = -0.12162 0.09139
# Poissons Ratio (z) = 0.30918 0.15414
#
# Static dielectric constant tensor:
#      x y z
#    x 2.530940 0.000000 0.000000 
#    y 0.000000 2.186210 0.000000 
#    z 0.000000 0.000000 1.810740 
# 
# From -- ./inp_files/21001.got.cif
#   From: 2010.05.17/outbox.cif.g08.bks.cpg/sg20_11_cif.got.tgz:21001.got - 2010.06.03 22:52:26.
