data_PCOD9318454
_publ_section_title
;
Structure prediction by ZEFSAII (Michael W. Deem and Ramdas Pophale) SiO2 
 PCOD9318454
Probable space group: C 2 2 21
;
_chemical_formula_sum "Si O2"
_cell_formula_units_Z 56
_cell_length_a 14.954390
_cell_length_b 12.170698
_cell_length_c 14.317840
_cell_angle_alpha 90.000000
_cell_angle_beta 90.000000
_cell_angle_gamma 90.000000
_cell_volume 2605.923688
_symmetry_space_group_name_H-M "C 2 2 21"
_symmetry_group_IT_number 20
_symmetry_cell_setting 'orthorhombic'
loop_
_space_group_symop_operation_xyz
x,y,z
-x,-y,1/2+z
x,-y,-z
-x,y,1/2-z
1/2+x,1/2+y,z
1/2-x,1/2-y,1/2+z
1/2+x,1/2-y,-z
1/2-x,1/2+y,1/2-z
loop_
_atom_site_type_symbol
_atom_site_label
_atom_site_fract_x
_atom_site_fract_y
_atom_site_fract_z
Si Si1 0.328770 0.808604 0.613472
Si Si2 0.244026 0.126374 0.755390
Si Si3 0.304958 0.621657 0.954545
Si Si4 0.581838 0.520326 0.175504
Si Si5 0.455405 0.254084 0.648300
Si Si6 0.003950 0.837106 0.045926
Si Si7 0.408911 0.026826 0.699881
O O1 0.280931 0.739943 0.695634
O O2 0.256788 0.817194 0.530119
O O3 0.419649 0.746816 0.581194
O O4 0.359710 0.926875 0.649873
O O5 0.245022 0.124370 0.643736
O O6 0.165874 0.044968 0.786312
O O7 0.342548 0.080495 0.777326
O O8 0.401313 0.669751 0.923768
O O9 0.320161 0.500000 0.000000
O O10 0.500000 0.521387 0.250000
O O11 0.614568 0.645437 0.158206
O O12 0.542420 0.451576 0.088004
O O13 0.500000 0.248163 0.750000
O O14 0.508980 0.308988 0.563769
O O15 0.432197 0.128063 0.630220
O O16 0.500000 0.989328 0.750000
#
# Coordination Sequence:
#
# PCOD9318454 Si02
#       7
#     8   8   8   8   8   8   8
#     4  11  28  47  73 106 146 188 244 296 365 444
#     4  11  25  44  73 105 141 182 245 296 358 428
#     4  12  24  44  77 107 137 190 246 299 355 434
#     4  10  20  40  68 106 137 180 232 301 356 419
#     4  10  23  38  66  99 139 182 233 285 358 430
#     4  11  24  42  70 105 140 181 238 298 363 419
#     4  11  26  45  71 102 144 193 232 289 369 435
#
# _framework density 21.489501000000001
#
# number of rings (size 3 to 8) (size 9 to 14) (size 15 to 20)
#    0.000    1.143    2.857    2.143   10.000    0.000 
#    0.000    0.000    0.000    0.000    0.000    0.000 
#    0.000    0.000    0.000    0.000    0.000    0.000 
#
# Total GULP energy -156052.150656 kJ/mol
# GULP energy per Si atom -5573.291095 kJ/mol
# Density = 2.144059 g / cm^3
# Si number density = 21.489501 Si / 1000 Ang^3
#
#
#
# Elastic Constant Matrix: (Units=GPa)
#
#
# Indices 1 2 3 4 5 6 
#
# 1 124.0424 20.7529 20.0463 0.0000 0.0000 0.0000
# 2 20.7529 119.1720 21.7688 0.0000 0.0000 0.0000
# 3 20.0463 21.7688 85.1771 0.0000 0.0000 0.0000
# 4 0.0000 0.0000 0.0000 18.5916 0.0000 0.0000
# 5 0.0000 0.0000 0.0000 0.0000 20.9841 0.0000
# 6 0.0000 0.0000 0.0000 0.0000 0.0000 2.5557
#
#
#
# Elastic Compliance Matrix: (Units=1/GPa)
#
#
# Indices 1 2 3 4 5 6 
#
# 1 0.008534 -0.001174 -0.001708 0.000000 0.000000 0.000000
# 2 -0.001174 0.008964 -0.002015 0.000000 0.000000 0.000000
# 3 -0.001708 -0.002015 0.012657 0.000000 0.000000 0.000000
# 4 0.000000 0.000000 0.000000 0.053788 0.000000 0.000000
# 5 0.000000 0.000000 0.000000 0.000000 0.047655 0.000000
# 6 0.000000 0.000000 0.000000 0.000000 0.000000 0.391289
#
#
# Mechanical properties :
#
#
# Convention : Reuss Voigt Hill
#
# Bulk Modulus (GPa) = 49.11360 50.39194 49.75277
# Shear Modulus (GPa) = 9.26838 26.14783 17.70810
#
# Velocity S-wave (km/s) = 2.07903 3.49201 2.87372
# Velocity P-wave (km/s) = 5.35420 6.30550 5.84922
#
# Compressibility (1/GPa) = 0.02036096
#
# Stress axis : x y z
#
# Youngs Moduli (GPa) = 117.17432 111.56129 79.00648
#
# Poissons Ratio (x) = 0.13098 0.13498
# Poissons Ratio (y) = 0.13757 0.15916
# Poissons Ratio (z) = 0.20019 0.22474
#
# Static dielectric constant tensor:
#      x y z
#    x 1.835110 0.000000 0.000000 
#    y 0.000000 1.814900 0.000000 
#    z 0.000000 0.000000 1.828910 
# 
# From -- ./inp_files/20738.got.cif
#   From: 2010.05.17/outbox.cif.g08.bks.cpg/sg20_11_cif.got.tgz:20738.got - 2010.06.03 22:52:26.
