data_PCOD9318703
_publ_section_title
;
Structure prediction by ZEFSAII (Michael W. Deem and Ramdas Pophale) SiO2 
 PCOD9318703
Probable space group: C 2 2 21
;
_chemical_formula_sum "Si O2"
_cell_formula_units_Z 28
_cell_length_a 6.418744
_cell_length_b 21.841729
_cell_length_c 8.589854
_cell_angle_alpha 90.000000
_cell_angle_beta 90.000000
_cell_angle_gamma 90.000000
_cell_volume 1204.267183
_symmetry_space_group_name_H-M "C 2 2 21"
_symmetry_group_IT_number 20
_symmetry_cell_setting 'orthorhombic'
loop_
_space_group_symop_operation_xyz
x,y,z
-x,-y,1/2+z
x,-y,-z
-x,y,1/2-z
1/2+x,1/2+y,z
1/2-x,1/2-y,1/2+z
1/2+x,1/2-y,-z
1/2-x,1/2+y,1/2-z
loop_
_atom_site_type_symbol
_atom_site_label
_atom_site_fract_x
_atom_site_fract_y
_atom_site_fract_z
Si Si1 0.004633 0.000000 0.500000
Si Si2 0.779506 0.323831 0.033117
Si Si3 0.500000 0.274870 0.750000
Si Si4 0.000000 0.091666 0.750000
Si Si5 0.410543 0.060530 0.082395
O O1 0.106395 0.955513 0.372716
O O2 0.838531 0.954113 0.585180
O O3 0.641801 0.363061 0.152363
O O4 0.865849 0.266254 0.128321
O O5 0.657651 0.308861 0.871357
O O6 0.955852 0.374173 0.994511
O O7 0.500000 0.062896 0.250000
O O8 0.493904 0.000000 0.000000
#
# Coordination Sequence:
#
# PCOD9318703 Si02
#       5
#     4   8   4   4   8
#     4   8  20  38  58 102 134 168 218 270 344 420
#     4  11  26  46  71 101 137 187 235 291 345 415
#     4  12  28  49  72 100 141 188 246 288 342 412
#     4  10  20  45  66 104 137 184 226 282 354 422
#     4   9  21  41  64 101 133 171 218 282 352 410
#
# _framework density 23.250654999999998
#
# number of rings (size 3 to 8) (size 9 to 14) (size 15 to 20)
#    0.857    1.143    0.000    1.714    6.000    4.571 
#   12.857    0.000    0.000    0.000    0.000    0.000 
#    0.000    0.000    0.000    0.000    0.000    0.000 
#
# Total GULP energy -77973.883074 kJ/mol
# GULP energy per Si atom -5569.563077 kJ/mol
# Density = 2.319774 g / cm^3
# Si number density = 23.250655 Si / 1000 Ang^3
#
#
#
# Elastic Constant Matrix: (Units=GPa)
#
#
# Indices 1 2 3 4 5 6 
#
# 1 35.5725 27.4543 35.1439 0.0000 0.0000 0.0000
# 2 27.4543 124.6440 59.4299 0.0000 0.0000 0.0000
# 3 35.1439 59.4299 143.6104 0.0000 0.0000 0.0000
# 4 0.0000 0.0000 0.0000 76.7756 0.0000 0.0000
# 5 0.0000 0.0000 0.0000 0.0000 12.1186 0.0000
# 6 0.0000 0.0000 0.0000 0.0000 0.0000 -54.9693
#
#
#
# Elastic Compliance Matrix: (Units=1/GPa)
#
#
# Indices 1 2 3 4 5 6 
#
# 1 0.039516 -0.005099 -0.007560 0.000000 0.000000 0.000000
# 2 -0.005099 0.010653 -0.003161 0.000000 0.000000 0.000000
# 3 -0.007560 -0.003161 0.010121 0.000000 0.000000 0.000000
# 4 0.000000 0.000000 0.000000 0.013025 0.000000 0.000000
# 5 0.000000 0.000000 0.000000 0.000000 0.082518 0.000000
# 6 0.000000 0.000000 0.000000 0.000000 0.000000 -0.018192
#
#
# Mechanical properties :
#
#
# Convention : Reuss Voigt Hill
#
# Bulk Modulus (GPa) = 34.90335 60.87589 47.88962
# Shear Modulus (GPa) = 27.95929 18.90490 23.43209
#
# Velocity S-wave (km/s) = 3.47149 2.85457 3.17804
# Velocity P-wave (km/s) = 5.57788 6.09131 5.84024
#
# Compressibility (1/GPa) = 0.02865054
#
# Stress axis : x y z
#
# Youngs Moduli (GPa) = 25.30610 93.87020 98.80145
#
# Poissons Ratio (x) = 0.47867 0.74694
# Poissons Ratio (y) = 0.12904 0.31227
# Poissons Ratio (z) = 0.19132 0.29669
#
# Static dielectric constant tensor:
#      x y z
#    x 1.991160 0.000000 0.000000 
#    y 0.000000 1.930080 0.000000 
#    z 0.000000 0.000000 2.100010 
# 
# From -- ./inp_files/5743.got.cif
#   From: 2010.05.17/outbox.cif.g08.bks.cpg/sg20_3_cif.got.tgz:5743.got - 2010.06.03 22:52:26.
