data_PCOD9318867
_publ_section_title
;
Structure prediction by ZEFSAII (Michael W. Deem and Ramdas Pophale) SiO2 
 PCOD9318867
Probable space group: C 2 2 21
;
_chemical_formula_sum "Si O2"
_cell_formula_units_Z 40
_cell_length_a 14.344723
_cell_length_b 14.354936
_cell_length_c 8.520850
_cell_angle_alpha 90.000000
_cell_angle_beta 90.000000
_cell_angle_gamma 90.000000
_cell_volume 1754.592817
_symmetry_space_group_name_H-M "C 2 2 21"
_symmetry_group_IT_number 20
_symmetry_cell_setting 'orthorhombic'
loop_
_space_group_symop_operation_xyz
x,y,z
-x,-y,1/2+z
x,-y,-z
-x,y,1/2-z
1/2+x,1/2+y,z
1/2-x,1/2-y,1/2+z
1/2+x,1/2-y,-z
1/2-x,1/2+y,1/2-z
loop_
_atom_site_type_symbol
_atom_site_label
_atom_site_fract_x
_atom_site_fract_y
_atom_site_fract_z
Si Si1 0.347740 0.140555 0.876021
Si Si2 0.497946 0.228343 0.064341
Si Si3 0.183634 0.790501 0.891244
Si Si4 0.284030 0.488943 0.676952
Si Si5 0.924634 0.082829 0.886406
O O1 0.326350 0.203470 0.724436
O O2 0.319097 0.033146 0.839372
O O3 0.450709 0.152738 0.949714
O O4 0.273848 0.181615 0.004767
O O5 0.500000 0.202675 0.250000
O O6 0.428491 0.315963 0.041133
O O7 0.597292 0.270166 0.009064
O O8 0.185655 0.884095 0.782983
O O9 0.324096 0.500000 0.500000
O O10 0.329644 0.555930 0.803396
O O11 0.000000 0.085853 0.750000
O O12 0.950294 0.000000 0.000000
#
# Coordination Sequence:
#
# PCOD9318867 Si02
#       5
#     8   8   8   8   8
#     4  11  22  39  62  93 129 168 211 261 317 379
#     4  11  22  37  61  93 127 167 212 263 319 375
#     4  11  22  40  64  93 128 169 210 263 319 379
#     4  10  21  37  59  87 125 163 202 255 315 369
#     4  11  19  31  52  86 123 159 201 256 313 374
#
# _framework density 22.797312000000002
#
# number of rings (size 3 to 8) (size 9 to 14) (size 15 to 20)
#    0.000    1.200    0.000   10.800    0.000    0.000 
#    0.000    0.000    0.000   36.000    0.000    0.000 
#    0.000    0.000    0.000    0.000    0.000    0.000 
#
# Total GULP energy -111459.873178 kJ/mol
# GULP energy per Si atom -5572.993659 kJ/mol
# Density = 2.274542 g / cm^3
# Si number density = 22.797312 Si / 1000 Ang^3
#
#
#
# Elastic Constant Matrix: (Units=GPa)
#
#
# Indices 1 2 3 4 5 6 
#
# 1 64.0775 21.4659 -10.1179 0.0000 0.0000 0.0000
# 2 21.4659 61.8757 13.3560 0.0000 0.0000 0.0000
# 3 -10.1179 13.3560 43.1941 0.0000 0.0000 0.0000
# 4 0.0000 0.0000 0.0000 29.8895 0.0000 0.0000
# 5 0.0000 0.0000 0.0000 0.0000 25.5315 0.0000
# 6 0.0000 0.0000 0.0000 0.0000 0.0000 49.2102
#
#
#
# Elastic Compliance Matrix: (Units=1/GPa)
#
#
# Indices 1 2 3 4 5 6 
#
# 1 0.019519 -0.008313 0.007143 0.000000 0.000000 0.000000
# 2 -0.008313 0.020858 -0.008397 0.000000 0.000000 0.000000
# 3 0.007143 -0.008397 0.027421 0.000000 0.000000 0.000000
# 4 0.000000 0.000000 0.000000 0.033457 0.000000 0.000000
# 5 0.000000 0.000000 0.000000 0.000000 0.039167 0.000000
# 6 0.000000 0.000000 0.000000 0.000000 0.000000 0.020321
#
#
# Mechanical properties :
#
#
# Convention : Reuss Voigt Hill
#
# Bulk Modulus (GPa) = 20.54953 24.28393 22.41673
# Shear Modulus (GPa) = 25.49743 30.55578 28.02661
#
# Velocity S-wave (km/s) = 3.34794 3.66502 3.51006
# Velocity P-wave (km/s) = 4.89678 5.34649 5.12657
#
# Compressibility (1/GPa) = 0.04866291
#
# Stress axis : x y z
#
# Youngs Moduli (GPa) = 51.23251 47.94340 36.46864
#
# Poissons Ratio (x) = 0.39857 -0.26048
# Poissons Ratio (y) = 0.42591 0.30622
# Poissons Ratio (z) = -0.36594 0.40257
#
# Static dielectric constant tensor:
#      x y z
#    x 1.885620 0.000000 0.000000 
#    y 0.000000 2.062300 0.000000 
#    z 0.000000 0.000000 1.860660 
# 
# From -- ./inp_files/8105.got.cif
#   From: 2010.05.17/outbox.cif.g08.bks.cpg/sg20_5_cif.got.tgz:8105.got - 2010.06.03 22:52:26.
