data_PCOD9318408
_publ_section_title
;
Structure prediction by ZEFSAII (Michael W. Deem and Ramdas Pophale) SiO2 
 PCOD9318408
Probable space group: C 2 2 21
;
_chemical_formula_sum "Si O2"
_cell_formula_units_Z 40
_cell_length_a 8.828556
_cell_length_b 8.828550
_cell_length_c 23.040040
_cell_angle_alpha 90.000000
_cell_angle_beta 90.000000
_cell_angle_gamma 90.000000
_cell_volume 1795.817857
_symmetry_space_group_name_H-M "C 2 2 21"
_symmetry_group_IT_number 20
_symmetry_cell_setting 'orthorhombic'
loop_
_space_group_symop_operation_xyz
x,y,z
-x,-y,1/2+z
x,-y,-z
-x,y,1/2-z
1/2+x,1/2+y,z
1/2-x,1/2-y,1/2+z
1/2+x,1/2-y,-z
1/2-x,1/2+y,1/2-z
loop_
_atom_site_type_symbol
_atom_site_label
_atom_site_fract_x
_atom_site_fract_y
_atom_site_fract_z
Si Si1 0.828486 0.338403 0.728300
Si Si2 0.615952 0.168282 0.803453
Si Si3 0.331719 0.115952 0.053453
Si Si4 0.171812 0.328188 0.375000
Si Si5 0.838403 0.671515 0.478300
O O1 0.727948 0.301086 0.784791
O O2 0.804436 0.503866 0.699355
O O3 0.776973 0.219513 0.679087
O O4 0.000000 0.323884 0.750000
O O5 0.500000 0.160116 0.750000
O O6 0.503991 0.190309 0.857150
O O7 0.496134 0.195564 0.050645
O O8 0.309692 0.003991 0.107150
O O9 0.198914 0.227948 0.034792
O O10 0.339884 0.000000 0.000000
O O11 0.219513 0.223028 0.429087
O O12 0.823884 0.500000 0.500000
#
# Coordination Sequence:
#
# PCOD9318408 Si02
#       5
#     8   8   8   8   8
#     4  10  21  40  63  91 123 159 208 255 300 368
#     4   9  20  39  59  86 123 158 200 250 299 360
#     4   9  20  39  59  86 123 158 200 250 299 360
#     4  10  20  40  64  86 126 168 194 250 320 360
#     4  10  21  40  63  91 123 159 208 255 300 368
#
# _framework density 22.273973999999999
#
# number of rings (size 3 to 8) (size 9 to 14) (size 15 to 20)
#    0.000    2.400    0.000    1.200    0.000    4.800 
#    0.000   48.000    0.000    0.000    0.000    0.000 
#    0.000    0.000    0.000    0.000    0.000    0.000 
#
# Total GULP energy -111584.572345 kJ/mol
# GULP energy per Si atom -5579.228617 kJ/mol
# Density = 2.222328 g / cm^3
# Si number density = 22.273974 Si / 1000 Ang^3
#
#
#
# Elastic Constant Matrix: (Units=GPa)
#
#
# Indices 1 2 3 4 5 6 
#
# 1 72.2097 56.3609 44.8305 0.0000 0.0000 0.0000
# 2 56.3609 72.2089 44.8300 0.0000 0.0000 0.0000
# 3 44.8305 44.8300 106.3332 0.0000 0.0000 0.0000
# 4 0.0000 0.0000 0.0000 48.4010 0.0000 0.0000
# 5 0.0000 0.0000 0.0000 0.0000 48.4010 0.0000
# 6 0.0000 0.0000 0.0000 0.0000 0.0000 28.8077
#
#
#
# Elastic Compliance Matrix: (Units=1/GPa)
#
#
# Indices 1 2 3 4 5 6 
#
# 1 0.037057 -0.026040 -0.004645 0.000000 0.000000 0.000000
# 2 -0.026040 0.037057 -0.004645 0.000000 0.000000 0.000000
# 3 -0.004645 -0.004645 0.013321 0.000000 0.000000 0.000000
# 4 0.000000 0.000000 0.000000 0.020661 0.000000 0.000000
# 5 0.000000 0.000000 0.000000 0.000000 0.020661 0.000000
# 6 0.000000 0.000000 0.000000 0.000000 0.000000 0.034713
#
#
# Mechanical properties :
#
#
# Convention : Reuss Voigt Hill
#
# Bulk Modulus (GPa) = 59.60994 60.31051 59.96023
# Shear Modulus (GPa) = 20.85751 32.10399 26.48075
#
# Velocity S-wave (km/s) = 3.06340 3.80059 3.45173
# Velocity P-wave (km/s) = 6.27159 6.81137 6.54704
#
# Compressibility (1/GPa) = 0.01677573
#
# Stress axis : x y z
#
# Youngs Moduli (GPa) = 26.98527 26.98510 75.07007
#
# Poissons Ratio (x) = 0.70270 0.34869
# Poissons Ratio (y) = 0.70271 0.34867
# Poissons Ratio (z) = 0.12534 0.12534
#
# Static dielectric constant tensor:
#      x y z
#    x 1.863190 0.000000 0.000000 
#    y 0.000000 1.863190 0.000000 
#    z 0.000000 0.000000 1.894910 
# 
# From -- ./inp_files/28592.got.cif
#   From: 2010.05.17/outbox.cif.g08.bks.cpg/sg20_15_cif.got.tgz:28592.got - 2010.06.03 22:52:26.
