data_PCOD9318104
_publ_section_title
;
Structure prediction by ZEFSAII (Michael W. Deem and Ramdas Pophale) SiO2 
 PCOD9318104
Probable space group: C 2 2 21
;
_chemical_formula_sum "Si O2"
_cell_formula_units_Z 32
_cell_length_a 8.569846
_cell_length_b 11.209117
_cell_length_c 13.386617
_cell_angle_alpha 90.000000
_cell_angle_beta 90.000000
_cell_angle_gamma 90.000000
_cell_volume 1285.923870
_symmetry_space_group_name_H-M "C 2 2 21"
_symmetry_group_IT_number 20
_symmetry_cell_setting 'orthorhombic'
loop_
_space_group_symop_operation_xyz
x,y,z
-x,-y,1/2+z
x,-y,-z
-x,y,1/2-z
1/2+x,1/2+y,z
1/2-x,1/2-y,1/2+z
1/2+x,1/2-y,-z
1/2-x,1/2+y,1/2-z
loop_
_atom_site_type_symbol
_atom_site_label
_atom_site_fract_x
_atom_site_fract_y
_atom_site_fract_z
Si Si1 0.319568 0.256475 0.964383
Si Si2 0.326654 0.897970 0.710651
Si Si3 0.593162 0.412953 0.343702
Si Si4 0.887867 0.852900 0.607873
O O1 0.368871 0.334365 0.060979
O O2 0.226928 0.147269 0.012585
O O3 0.201038 0.326544 0.891959
O O4 0.483671 0.248422 0.906814
O O5 0.500000 0.905521 0.750000
O O6 0.216993 0.838033 0.794569
O O7 0.252462 0.028489 0.695176
O O8 0.500000 0.356902 0.250000
O O9 0.487947 0.527043 0.376743
#
# Coordination Sequence:
#
# PCOD9318104 Si02
#       4
#     8   8   8   8
#     4  11  21  39  64  90 123 169 215 258 326 390
#     4  10  20  38  58  86 129 166 207 267 318 373
#     4   9  21  42  63  88 127 165 204 265 326 375
#     4  10  21  37  60  90 121 160 210 262 312 378
#
# _framework density 24.884834999999999
#
# number of rings (size 3 to 8) (size 9 to 14) (size 15 to 20)
#    0.000    2.000    0.000    6.750    0.000    3.000 
#    0.000   23.750    0.000    0.000    0.000    0.000 
#    0.000    0.000    0.000    0.000    0.000    0.000 
#
# Total GULP energy -89599.783263 kJ/mol
# GULP energy per Si atom -5599.986454 kJ/mol
# Density = 2.482820 g / cm^3
# Si number density = 24.884835 Si / 1000 Ang^3
#
#
#
# Elastic Constant Matrix: (Units=GPa)
#
#
# Indices 1 2 3 4 5 6 
#
# 1 198.2026 57.1245 92.2541 0.0000 0.0000 0.0000
# 2 57.1245 56.2642 34.8400 0.0000 0.0000 0.0000
# 3 92.2541 34.8400 152.8519 0.0000 0.0000 0.0000
# 4 0.0000 0.0000 0.0000 46.8079 0.0000 0.0000
# 5 0.0000 0.0000 0.0000 0.0000 66.4819 0.0000
# 6 0.0000 0.0000 0.0000 0.0000 0.0000 25.9584
#
#
#
# Elastic Compliance Matrix: (Units=1/GPa)
#
#
# Indices 1 2 3 4 5 6 
#
# 1 0.008654 -0.006464 -0.003750 0.000000 0.000000 0.000000
# 2 -0.006464 0.025523 -0.001916 0.000000 0.000000 0.000000
# 3 -0.003750 -0.001916 0.009242 0.000000 0.000000 0.000000
# 4 0.000000 0.000000 0.000000 0.021364 0.000000 0.000000
# 5 0.000000 0.000000 0.000000 0.000000 0.015042 0.000000
# 6 0.000000 0.000000 0.000000 0.000000 0.000000 0.038523
#
#
# Mechanical properties :
#
#
# Convention : Reuss Voigt Hill
#
# Bulk Modulus (GPa) = 52.19478 86.19510 69.19494
# Shear Modulus (GPa) = 33.55865 42.72299 38.14082
#
# Velocity S-wave (km/s) = 3.67626 4.14796 3.91921
# Velocity P-wave (km/s) = 6.24819 7.59299 6.95318
#
# Compressibility (1/GPa) = 0.01915900
#
# Stress axis : x y z
#
# Youngs Moduli (GPa) = 115.55862 39.18073 108.20135
#
# Poissons Ratio (x) = 0.25327 0.40570
# Poissons Ratio (y) = 0.74699 0.20732
# Poissons Ratio (z) = 0.43329 0.07507
#
# Static dielectric constant tensor:
#      x y z
#    x 1.996980 0.000000 0.000000 
#    y 0.000000 1.985400 0.000000 
#    z 0.000000 0.000000 1.986300 
# 
# From -- ./inp_files/12491.got.cif
#   From: 2010.05.17/outbox.cif.g08.bks.cpg/sg20_7_cif.got.tgz:12491.got - 2010.06.03 22:52:26.
