data_PCOD9318500
_publ_section_title
;
Structure prediction by ZEFSAII (Michael W. Deem and Ramdas Pophale) SiO2 
 PCOD9318500
Probable space group: C 2 2 21
;
_chemical_formula_sum "Si O2"
_cell_formula_units_Z 56
_cell_length_a 27.471273
_cell_length_b 16.139928
_cell_length_c 5.703062
_cell_angle_alpha 90.000000
_cell_angle_beta 90.000000
_cell_angle_gamma 90.000000
_cell_volume 2528.648542
_symmetry_space_group_name_H-M "C 2 2 21"
_symmetry_group_IT_number 20
_symmetry_cell_setting 'orthorhombic'
loop_
_space_group_symop_operation_xyz
x,y,z
-x,-y,1/2+z
x,-y,-z
-x,y,1/2-z
1/2+x,1/2+y,z
1/2-x,1/2-y,1/2+z
1/2+x,1/2-y,-z
1/2-x,1/2+y,1/2-z
loop_
_atom_site_type_symbol
_atom_site_label
_atom_site_fract_x
_atom_site_fract_y
_atom_site_fract_z
Si Si1 0.760382 0.647550 0.350760
Si Si2 0.649223 0.048032 0.256397
Si Si3 0.048997 0.839918 0.374180
Si Si4 0.326551 0.287104 0.561360
Si Si5 0.500000 0.773118 0.250000
Si Si6 0.414593 0.809314 0.544735
Si Si7 0.628115 0.555006 0.804375
Si Si8 0.289433 0.500000 0.000000
O O1 0.798439 0.593107 0.199587
O O2 0.708579 0.677976 0.258494
O O3 0.790651 0.727797 0.416548
O O4 0.743944 0.579874 0.541682
O O5 0.608944 0.118255 0.198565
O O6 0.637926 0.000000 0.500000
O O7 0.651928 0.000000 0.000000
O O8 0.069331 0.767280 0.206579
O O9 0.090428 0.909493 0.386785
O O10 0.000000 0.873228 0.250000
O O11 0.033344 0.790545 0.603513
O O12 0.371660 0.226901 0.622448
O O13 0.347669 0.363614 0.417038
O O14 0.463415 0.828483 0.402477
O O15 0.672452 0.499231 0.712353
O O16 0.601474 0.500000 0.000000
#
# Coordination Sequence:
#
# PCOD9318500 Si02
#       8
#     8   8   8   8   4   8   8   4
#     4  11  23  40  64 100 140 189 241 284 349 420
#     4  11  26  44  70 104 149 192 239 297 369 432
#     4   9  21  41  66  96 128 173 230 289 359 431
#     4  10  22  41  63  96 138 179 232 287 338 421
#     4  10  20  40  78  96 136 172 244 294 364 430
#     4   9  22  42  69 104 130 184 234 296 354 433
#     4  11  23  40  62  94 135 175 226 286 351 416
#     4  12  24  36  60  94 134 186 228 280 346 402
#
# _framework density 22.146217
#
# number of rings (size 3 to 8) (size 9 to 14) (size 15 to 20)
#    0.000    1.714    2.143    0.857    6.000    3.429 
#    1.286    0.000    6.286    0.000    0.000    0.000 
#    0.000    0.000    0.000    0.000    0.000    0.000 
#
# Total GULP energy -156039.045568 kJ/mol
# GULP energy per Si atom -5572.823056 kJ/mol
# Density = 2.209581 g / cm^3
# Si number density = 22.146217 Si / 1000 Ang^3
#
#
#
# Elastic Constant Matrix: (Units=GPa)
#
#
# Indices 1 2 3 4 5 6 
#
# 1 103.7810 40.8236 32.4237 0.0000 0.0000 0.0000
# 2 40.8236 86.3798 20.7793 0.0000 0.0000 0.0000
# 3 32.4237 20.7793 53.0705 0.0000 0.0000 0.0000
# 4 0.0000 0.0000 0.0000 15.8504 0.0000 0.0000
# 5 0.0000 0.0000 0.0000 0.0000 23.6090 0.0000
# 6 0.0000 0.0000 0.0000 0.0000 0.0000 -21.1145
#
#
#
# Elastic Compliance Matrix: (Units=1/GPa)
#
#
# Indices 1 2 3 4 5 6 
#
# 1 0.013539 -0.004867 -0.006366 0.000000 0.000000 0.000000
# 2 -0.004867 0.014530 -0.002716 0.000000 0.000000 0.000000
# 3 -0.006366 -0.002716 0.023796 0.000000 0.000000 0.000000
# 4 0.000000 0.000000 0.000000 0.063090 0.000000 0.000000
# 5 0.000000 0.000000 0.000000 0.000000 0.042357 0.000000
# 6 0.000000 0.000000 0.000000 0.000000 0.000000 -0.047361
#
#
# Mechanical properties :
#
#
# Convention : Reuss Voigt Hill
#
# Bulk Modulus (GPa) = 41.72368 47.92049 44.82209
# Shear Modulus (GPa) = 34.28465 13.61596 23.95030
#
# Velocity S-wave (km/s) = 3.93886 2.48225 3.29213
# Velocity P-wave (km/s) = 6.29025 5.46815 5.89355
#
# Compressibility (1/GPa) = 0.02396721
#
# Stress axis : x y z
#
# Youngs Moduli (GPa) = 73.85946 68.82154 42.02469
#
# Poissons Ratio (x) = 0.33498 0.26753
# Poissons Ratio (y) = 0.35950 0.11412
# Poissons Ratio (z) = 0.47020 0.18689
#
# Static dielectric constant tensor:
#      x y z
#    x 1.831130 0.000000 0.000000 
#    y 0.000000 1.822040 0.000000 
#    z 0.000000 0.000000 1.914760 
# 
# From -- ./inp_files/4706.got.cif
#   From: 2010.05.17/outbox.cif.g08.bks.cpg/sg20_3_cif.got.tgz:4706.got - 2010.06.03 22:52:26.
