data_PCOD9318045
_publ_section_title
;
Structure prediction by ZEFSAII (Michael W. Deem and Ramdas Pophale) SiO2 
 PCOD9318045
Probable space group: C 2 2 21
;
_chemical_formula_sum "Si O2"
_cell_formula_units_Z 48
_cell_length_a 8.456874
_cell_length_b 15.459311
_cell_length_c 18.100120
_cell_angle_alpha 90.000000
_cell_angle_beta 90.000000
_cell_angle_gamma 90.000000
_cell_volume 2366.363448
_symmetry_space_group_name_H-M "C 2 2 21"
_symmetry_group_IT_number 20
_symmetry_cell_setting 'orthorhombic'
loop_
_space_group_symop_operation_xyz
x,y,z
-x,-y,1/2+z
x,-y,-z
-x,y,1/2-z
1/2+x,1/2+y,z
1/2-x,1/2-y,1/2+z
1/2+x,1/2-y,-z
1/2-x,1/2+y,1/2-z
loop_
_atom_site_type_symbol
_atom_site_label
_atom_site_fract_x
_atom_site_fract_y
_atom_site_fract_z
Si Si1 0.321800 0.444825 0.425440
Si Si2 0.534785 0.987185 0.663767
Si Si3 0.624084 0.768776 0.454828
Si Si4 0.088929 0.677283 0.828457
Si Si5 0.958404 0.158500 0.829137
Si Si6 0.420364 0.186680 0.407089
O O1 0.338759 0.500000 0.500000
O O2 0.214462 0.494453 0.363875
O O3 0.222930 0.357703 0.444478
O O4 0.484489 0.410169 0.390270
O O5 0.500000 0.968068 0.750000
O O6 0.468869 0.908086 0.616724
O O7 0.445594 0.077553 0.650263
O O8 0.492490 0.765394 0.391163
O O9 0.541630 0.774609 0.533193
O O10 0.748208 0.692477 0.443130
O O11 0.276434 0.686244 0.827663
O O12 0.000000 0.691444 0.750000
O O13 0.000000 0.119371 0.750000
O O14 0.065243 0.244731 0.840358
#
# Coordination Sequence:
#
# PCOD9318045 Si02
#       6
#     8   8   8   8   8   8
#     4  10  20  40  63  88 123 161 200 251 311 364
#     4  10  20  37  63  89 120 158 200 251 307 359
#     4  10  21  37  59  86 121 164 197 251 305 367
#     4  10  21  40  60  86 118 160 210 248 303 369
#     4  11  22  39  62  86 119 162 203 250 308 376
#     4  11  21  37  59  88 123 158 208 248 310 356
#
# _framework density 20.284289000000001
#
# number of rings (size 3 to 8) (size 9 to 14) (size 15 to 20)
#    0.000    1.667    1.667    5.500    0.000    0.000 
#    9.000    0.000    0.000    4.000    0.000    0.000 
#    0.000    0.000    0.000    0.000    0.000    0.000 
#
# Total GULP energy -133982.296649 kJ/mol
# GULP energy per Si atom -5582.595694 kJ/mol
# Density = 2.023812 g / cm^3
# Si number density = 20.284289 Si / 1000 Ang^3
#
#
#
# Elastic Constant Matrix: (Units=GPa)
#
#
# Indices 1 2 3 4 5 6 
#
# 1 92.1482 -6.6463 35.2180 0.0000 0.0000 0.0000
# 2 -6.6463 26.2871 14.4754 0.0000 0.0000 0.0000
# 3 35.2180 14.4754 85.1774 0.0000 0.0000 0.0000
# 4 0.0000 0.0000 0.0000 22.2595 0.0000 0.0000
# 5 0.0000 0.0000 0.0000 0.0000 35.6974 0.0000
# 6 0.0000 0.0000 0.0000 0.0000 0.0000 19.0884
#
#
#
# Elastic Compliance Matrix: (Units=1/GPa)
#
#
# Indices 1 2 3 4 5 6 
#
# 1 0.014106 0.007478 -0.007103 0.000000 0.000000 0.000000
# 2 0.007478 0.045933 -0.010898 0.000000 0.000000 0.000000
# 3 -0.007103 -0.010898 0.016529 0.000000 0.000000 0.000000
# 4 0.000000 0.000000 0.000000 0.044925 0.000000 0.000000
# 5 0.000000 0.000000 0.000000 0.000000 0.028013 0.000000
# 6 0.000000 0.000000 0.000000 0.000000 0.000000 0.052388
#
#
# Mechanical properties :
#
#
# Convention : Reuss Voigt Hill
#
# Bulk Modulus (GPa) = 18.01076 32.18965 25.10020
# Shear Modulus (GPa) = 20.70833 26.11342 23.41088
#
# Velocity S-wave (km/s) = 3.19863 3.59189 3.40095
# Velocity P-wave (km/s) = 4.74764 5.75377 5.27475
#
# Compressibility (1/GPa) = 0.05552237
#
# Stress axis : x y z
#
# Youngs Moduli (GPa) = 70.89044 21.77065 60.49877
#
# Poissons Ratio (x) = -0.16280 0.42974
# Poissons Ratio (y) = -0.53013 0.65932
# Poissons Ratio (z) = 0.50356 0.23726
#
# Static dielectric constant tensor:
#      x y z
#    x 1.723470 0.000000 0.000000 
#    y 0.000000 1.690490 0.000000 
#    z 0.000000 0.000000 1.770540 
# 
# From -- ./inp_files/18904.got.cif
#   From: 2010.05.17/outbox.cif.g08.bks.cpg/sg20_10_cif.got.tgz:18904.got - 2010.06.03 22:52:26.
