data_PCOD9318355
_publ_section_title
;
Structure prediction by ZEFSAII (Michael W. Deem and Ramdas Pophale) SiO2 
 PCOD9318355
Probable space group: C 2 2 21
;
_chemical_formula_sum "Si O2"
_cell_formula_units_Z 52
_cell_length_a 19.526038
_cell_length_b 5.393877
_cell_length_c 23.677521
_cell_angle_alpha 90.000000
_cell_angle_beta 90.000000
_cell_angle_gamma 90.000000
_cell_volume 2493.741308
_symmetry_space_group_name_H-M "C 2 2 21"
_symmetry_group_IT_number 20
_symmetry_cell_setting 'orthorhombic'
loop_
_space_group_symop_operation_xyz
x,y,z
-x,-y,1/2+z
x,-y,-z
-x,y,1/2-z
1/2+x,1/2+y,z
1/2-x,1/2-y,1/2+z
1/2+x,1/2-y,-z
1/2-x,1/2+y,1/2-z
loop_
_atom_site_type_symbol
_atom_site_label
_atom_site_fract_x
_atom_site_fract_y
_atom_site_fract_z
Si Si1 0.033721 0.005467 0.062937
Si Si2 0.106143 0.250953 0.171409
Si Si3 0.008078 0.368511 0.848148
Si Si4 0.000000 0.001654 0.750000
Si Si5 0.374439 0.515643 0.063273
Si Si6 0.133252 0.508606 0.629911
Si Si7 0.748409 0.855155 0.715452
O O1 0.023546 0.734091 0.089918
O O2 0.954916 0.093100 0.057659
O O3 0.075258 0.148452 0.112015
O O4 0.063805 0.000000 0.000000
O O5 0.080617 0.533549 0.173568
O O6 0.185295 0.196930 0.176740
O O7 0.064901 0.142069 0.225073
O O8 0.980937 0.164829 0.804443
O O9 0.944976 0.556755 0.849820
O O10 0.369442 0.244601 0.092255
O O11 0.342553 0.742983 0.098194
O O12 0.346175 0.500000 0.000000
O O13 0.183027 0.444232 0.680668
O O14 0.734169 0.591852 0.745331
#
# Coordination Sequence:
#
# PCOD9318355 Si02
#       7
#     8   8   8   4   8   8   8
#     4   9  20  38  63  98 132 165 216 283 339 388
#     4  11  23  40  64  96 128 176 222 278 335 405
#     4  10  21  36  64  91 130 166 221 271 331 395
#     4  10  22  36  62  94 126 166 222 278 328 388
#     4  10  20  39  67  97 128 168 219 276 327 386
#     4  11  22  41  62  95 129 172 215 267 326 403
#     4  12  29  45  66  92 139 180 220 271 346 404
#
# _framework density 20.852201999999998
#
# number of rings (size 3 to 8) (size 9 to 14) (size 15 to 20)
#    0.000    1.538    1.538    2.769    8.615    0.615 
#    0.000    1.538    0.000    0.000    0.000    0.000 
#    0.000    0.000    0.000    0.000    0.000    0.000 
#
# Total GULP energy -144989.843586 kJ/mol
# GULP energy per Si atom -5576.532446 kJ/mol
# Density = 2.080474 g / cm^3
# Si number density = 20.852202 Si / 1000 Ang^3
#
#
#
# Elastic Constant Matrix: (Units=GPa)
#
#
# Indices 1 2 3 4 5 6 
#
# 1 61.8709 3.5421 16.3173 0.0000 0.0000 0.0000
# 2 3.5421 70.0706 24.5245 0.0000 0.0000 0.0000
# 3 16.3173 24.5245 97.1793 0.0000 0.0000 0.0000
# 4 0.0000 0.0000 0.0000 24.9407 0.0000 0.0000
# 5 0.0000 0.0000 0.0000 0.0000 19.3160 0.0000
# 6 0.0000 0.0000 0.0000 0.0000 0.0000 22.0064
#
#
#
# Elastic Compliance Matrix: (Units=1/GPa)
#
#
# Indices 1 2 3 4 5 6 
#
# 1 0.016913 0.000152 -0.002878 0.000000 0.000000 0.000000
# 2 0.000152 0.015655 -0.003976 0.000000 0.000000 0.000000
# 3 -0.002878 -0.003976 0.011777 0.000000 0.000000 0.000000
# 4 0.000000 0.000000 0.000000 0.040095 0.000000 0.000000
# 5 0.000000 0.000000 0.000000 0.000000 0.051771 0.000000
# 6 0.000000 0.000000 0.000000 0.000000 0.000000 0.045441
#
#
# Mechanical properties :
#
#
# Convention : Reuss Voigt Hill
#
# Bulk Modulus (GPa) = 32.31974 35.32096 33.82035
# Shear Modulus (GPa) = 24.34621 25.56841 24.95731
#
# Velocity S-wave (km/s) = 3.42067 3.50547 3.46333
# Velocity P-wave (km/s) = 5.57982 5.77581 5.67866
#
# Compressibility (1/GPa) = 0.03094084
#
# Stress axis : x y z
#
# Youngs Moduli (GPa) = 59.12586 63.87592 84.91078
#
# Poissons Ratio (x) = -0.00974 0.24440
# Poissons Ratio (y) = -0.00901 0.33764
# Poissons Ratio (z) = 0.17018 0.25400
#
# Static dielectric constant tensor:
#      x y z
#    x 1.729250 0.000000 0.000000 
#    y 0.000000 1.863560 0.000000 
#    z 0.000000 0.000000 1.761060 
# 
# From -- ./inp_files/27904.got.cif
#   From: 2010.05.17/outbox.cif.g08.bks.cpg/sg20_14_cif.got.tgz:27904.got - 2010.06.03 22:52:26.
