data_PCOD9318082
_publ_section_title
;
Structure prediction by ZEFSAII (Michael W. Deem and Ramdas Pophale) SiO2 
 PCOD9318082
Probable space group: C 2 2 21
;
_chemical_formula_sum "Si O2"
_cell_formula_units_Z 40
_cell_length_a 6.956405
_cell_length_b 15.365056
_cell_length_c 16.910993
_cell_angle_alpha 90.000000
_cell_angle_beta 90.000000
_cell_angle_gamma 90.000000
_cell_volume 1807.540828
_symmetry_space_group_name_H-M "C 2 2 21"
_symmetry_group_IT_number 20
_symmetry_cell_setting 'orthorhombic'
loop_
_space_group_symop_operation_xyz
x,y,z
-x,-y,1/2+z
x,-y,-z
-x,y,1/2-z
1/2+x,1/2+y,z
1/2-x,1/2-y,1/2+z
1/2+x,1/2-y,-z
1/2-x,1/2+y,1/2-z
loop_
_atom_site_type_symbol
_atom_site_label
_atom_site_fract_x
_atom_site_fract_y
_atom_site_fract_z
Si Si1 0.141301 0.417835 0.082596
Si Si2 0.607673 0.353842 0.556676
Si Si3 0.914844 0.604195 0.336322
Si Si4 0.249662 0.839113 0.030699
Si Si5 0.940487 0.792641 0.157787
O O1 0.101252 0.508485 0.126092
O O2 0.240831 0.343658 0.139317
O O3 0.934658 0.394518 0.047799
O O4 0.281111 0.413272 0.006576
O O5 0.696202 0.364005 0.643766
O O6 0.668067 0.258293 0.526850
O O7 0.383018 0.365275 0.543106
O O8 0.000000 0.591674 0.250000
O O9 0.037017 0.689647 0.365369
O O10 0.102518 0.840139 0.104838
O O11 0.000000 0.797672 0.250000
#
# Coordination Sequence:
#
# PCOD9318082 Si02
#       5
#     8   8   8   8   8
#     4  11  22  40  72 100 135 189 235 290 360 433
#     4  10  20  41  65 100 136 177 235 302 352 428
#     4  10  23  43  68 102 147 181 239 296 362 441
#     4  10  20  37  71  95 131 181 233 284 362 422
#     4   9  22  42  64  95 140 179 228 293 352 425
#
# _framework density 22.129511999999998
#
# number of rings (size 3 to 8) (size 9 to 14) (size 15 to 20)
#    0.000    2.000    2.000    0.600    2.800    0.000 
#    0.000   18.000    0.000    0.000    0.000    0.000 
#    0.000    0.000    0.000    0.000    0.000    0.000 
#
# Total GULP energy -111390.376232 kJ/mol
# GULP energy per Si atom -5569.518812 kJ/mol
# Density = 2.207914 g / cm^3
# Si number density = 22.129512 Si / 1000 Ang^3
#
#
#
# Elastic Constant Matrix: (Units=GPa)
#
#
# Indices 1 2 3 4 5 6 
#
# 1 171.3965 37.2937 36.1837 0.0000 0.0000 0.0000
# 2 37.2937 102.8276 -1.1037 0.0000 0.0000 0.0000
# 3 36.1837 -1.1037 55.7002 0.0000 0.0000 0.0000
# 4 0.0000 0.0000 0.0000 36.0662 0.0000 0.0000
# 5 0.0000 0.0000 0.0000 0.0000 34.0191 0.0000
# 6 0.0000 0.0000 0.0000 0.0000 0.0000 0.2251
#
#
#
# Elastic Compliance Matrix: (Units=1/GPa)
#
#
# Indices 1 2 3 4 5 6 
#
# 1 0.007472 -0.002763 -0.004909 0.000000 0.000000 0.000000
# 2 -0.002763 0.010748 0.002008 0.000000 0.000000 0.000000
# 3 -0.004909 0.002008 0.021182 0.000000 0.000000 0.000000
# 4 0.000000 0.000000 0.000000 0.027727 0.000000 0.000000
# 5 0.000000 0.000000 0.000000 0.000000 0.029395 0.000000
# 6 0.000000 0.000000 0.000000 0.000000 0.000000 4.442303
#
#
# Mechanical properties :
#
#
# Convention : Reuss Voigt Hill
#
# Bulk Modulus (GPa) = 35.61890 52.74129 44.18010
# Shear Modulus (GPa) = 1.09661 31.23211 16.16436
#
# Velocity S-wave (km/s) = 0.70471 3.76085 2.70560
# Velocity P-wave (km/s) = 4.09790 6.53784 5.45601
#
# Compressibility (1/GPa) = 0.02807498
#
# Stress axis : x y z
#
# Youngs Moduli (GPa) = 133.83724 93.03627 47.21059
#
# Poissons Ratio (x) = 0.25702 0.23173
# Poissons Ratio (y) = 0.36973 -0.09478
# Poissons Ratio (z) = 0.65694 -0.18678
#
# Static dielectric constant tensor:
#      x y z
#    x 1.807180 0.000000 0.000000 
#    y 0.000000 1.900910 0.000000 
#    z 0.000000 0.000000 1.884770 
# 
# From -- ./inp_files/22621.got.cif
#   From: 2010.05.17/outbox.cif.g08.bks.cpg/sg20_12_cif.got.tgz:22621.got - 2010.06.03 22:52:26.
