data_PCOD9318676
_publ_section_title
;
Structure prediction by ZEFSAII (Michael W. Deem and Ramdas Pophale) SiO2 
 PCOD9318676
Probable space group: C 2 2 21
;
_chemical_formula_sum "Si O2"
_cell_formula_units_Z 52
_cell_length_a 7.904132
_cell_length_b 11.179578
_cell_length_c 27.788654
_cell_angle_alpha 90.000000
_cell_angle_beta 90.000000
_cell_angle_gamma 90.000000
_cell_volume 2455.540526
_symmetry_space_group_name_H-M "C 2 2 21"
_symmetry_group_IT_number 20
_symmetry_cell_setting 'orthorhombic'
loop_
_space_group_symop_operation_xyz
x,y,z
-x,-y,1/2+z
x,-y,-z
-x,y,1/2-z
1/2+x,1/2+y,z
1/2-x,1/2-y,1/2+z
1/2+x,1/2-y,-z
1/2-x,1/2+y,1/2-z
loop_
_atom_site_type_symbol
_atom_site_label
_atom_site_fract_x
_atom_site_fract_y
_atom_site_fract_z
Si Si1 0.795035 0.743665 0.692077
Si Si2 0.539303 0.523797 0.165305
Si Si3 0.783387 0.129257 0.496426
Si Si4 0.575649 0.876701 0.027638
Si Si5 0.349432 0.892234 0.888925
Si Si6 0.318956 0.037185 0.627293
Si Si7 0.000000 0.165150 0.750000
O O1 0.465488 0.579859 0.704571
O O2 0.675792 0.780897 0.646808
O O3 0.862145 0.615246 0.675007
O O4 0.669776 0.737846 0.737144
O O5 0.704154 0.517830 0.131279
O O6 0.366266 0.517263 0.135416
O O7 0.566150 0.652169 0.191697
O O8 0.627487 0.124383 0.533511
O O9 0.881332 0.253548 0.499708
O O10 0.695475 0.132321 0.443866
O O11 0.876025 0.000000 0.500000
O O12 0.665298 0.883389 0.079080
O O13 0.618923 0.000000 0.000000
O O14 0.536200 0.940357 0.881487
#
# Coordination Sequence:
#
# PCOD9318676 Si02
#       7
#     8   8   8   8   8   8   4
#     4   9  22  42  65  95 129 164 218 271 328 410
#     4   9  23  42  65  96 126 170 212 270 335 400
#     4  11  23  43  62  95 136 175 228 274 324 399
#     4  11  23  39  64  96 130 178 223 279 323 385
#     4  10  21  45  64  92 131 174 219 271 330 388
#     4  11  20  44  65  91 137 167 221 274 321 395
#     4  10  20  44  66  94 134 160 216 280 332 406
#
# _framework density 21.176599
#
# number of rings (size 3 to 8) (size 9 to 14) (size 15 to 20)
#    0.923    0.923    4.615    0.000    0.000    6.769 
#    8.308    0.000    0.000    0.000    0.000    0.000 
#    0.000    0.000    0.000    0.000    0.000    0.000 
#
# Total GULP energy -144887.546118 kJ/mol
# GULP energy per Si atom -5572.597928 kJ/mol
# Density = 2.112840 g / cm^3
# Si number density = 21.176599 Si / 1000 Ang^3
#
#
#
# Elastic Constant Matrix: (Units=GPa)
#
#
# Indices 1 2 3 4 5 6 
#
# 1 68.9438 22.2189 23.6873 0.0000 0.0000 0.0000
# 2 22.2189 99.2696 -3.4600 0.0000 0.0000 0.0000
# 3 23.6873 -3.4600 44.2088 0.0000 0.0000 0.0000
# 4 0.0000 0.0000 0.0000 24.2100 0.0000 0.0000
# 5 0.0000 0.0000 0.0000 0.0000 32.9041 0.0000
# 6 0.0000 0.0000 0.0000 0.0000 0.0000 37.5126
#
#
#
# Elastic Compliance Matrix: (Units=1/GPa)
#
#
# Indices 1 2 3 4 5 6 
#
# 1 0.019842 -0.004825 -0.011009 0.000000 0.000000 0.000000
# 2 -0.004825 0.011274 0.003468 0.000000 0.000000 0.000000
# 3 -0.011009 0.003468 0.028790 0.000000 0.000000 0.000000
# 4 0.000000 0.000000 0.000000 0.041305 0.000000 0.000000
# 5 0.000000 0.000000 0.000000 0.000000 0.030391 0.000000
# 6 0.000000 0.000000 0.000000 0.000000 0.000000 0.026658
#
#
# Mechanical properties :
#
#
# Convention : Reuss Voigt Hill
#
# Bulk Modulus (GPa) = 28.43031 33.03494 30.73263
# Shear Modulus (GPa) = 25.67822 30.25707 27.96765
#
# Velocity S-wave (km/s) = 3.48598 3.78404 3.63807
# Velocity P-wave (km/s) = 5.44585 5.89284 5.67375
#
# Compressibility (1/GPa) = 0.03517373
#
# Stress axis : x y z
#
# Youngs Moduli (GPa) = 50.39847 88.69691 34.73431
#
# Poissons Ratio (x) = 0.42795 0.38239
# Poissons Ratio (y) = 0.24316 -0.12044
# Poissons Ratio (z) = 0.55484 -0.30756
#
# Static dielectric constant tensor:
#      x y z
#    x 1.754520 0.000000 0.000000 
#    y 0.000000 1.826760 0.000000 
#    z 0.000000 0.000000 1.781950 
# 
# From -- ./inp_files/31015.got.cif
#   From: 2010.05.17/outbox.cif.g08.bks.cpg/sg20_16_cif.got.tgz:31015.got - 2010.06.03 22:52:26.
