data_PCOD9318298
_publ_section_title
;
Structure prediction by ZEFSAII (Michael W. Deem and Ramdas Pophale) SiO2 
 PCOD9318298
Probable space group: C 2 2 21
;
_chemical_formula_sum "Si O2"
_cell_formula_units_Z 60
_cell_length_a 22.695899
_cell_length_b 6.605310
_cell_length_c 17.620219
_cell_angle_alpha 90.000000
_cell_angle_beta 90.000000
_cell_angle_gamma 90.000000
_cell_volume 2641.507796
_symmetry_space_group_name_H-M "C 2 2 21"
_symmetry_group_IT_number 20
_symmetry_cell_setting 'orthorhombic'
loop_
_space_group_symop_operation_xyz
x,y,z
-x,-y,1/2+z
x,-y,-z
-x,y,1/2-z
1/2+x,1/2+y,z
1/2-x,1/2-y,1/2+z
1/2+x,1/2-y,-z
1/2-x,1/2+y,1/2-z
loop_
_atom_site_type_symbol
_atom_site_label
_atom_site_fract_x
_atom_site_fract_y
_atom_site_fract_z
Si Si1 0.660629 0.356355 0.261910
Si Si2 0.136790 0.316987 0.572502
Si Si3 0.090357 0.302745 0.377215
Si Si4 0.520978 0.946599 0.836118
Si Si5 0.223928 0.523378 0.160400
Si Si6 0.875801 0.747419 0.705176
Si Si7 0.272231 0.500000 0.000000
Si Si8 0.523064 0.595083 0.572130
O O1 0.634643 0.246505 0.336832
O O2 0.714382 0.487887 0.296812
O O3 0.687308 0.191635 0.205256
O O4 0.619987 0.509334 0.213182
O O5 0.136907 0.561969 0.574472
O O6 0.187516 0.178874 0.535855
O O7 0.074815 0.238823 0.539117
O O8 0.118669 0.306633 0.293842
O O9 0.063701 0.078882 0.389438
O O10 0.031416 0.433585 0.376250
O O11 0.500000 0.913360 0.750000
O O12 0.519880 0.729140 0.876836
O O13 0.575560 0.102856 0.834455
O O14 0.185951 0.318128 0.168695
O O15 0.235435 0.573812 0.072650
O O16 0.490792 0.500000 0.500000
#
# Coordination Sequence:
#
# PCOD9318298 Si02
#       8
#     8   8   8   8   8   8   4   8
#     4  11  21  38  68  97 132 176 238 283 347 399
#     4  10  20  39  63 101 134 176 222 286 349 412
#     4  10  21  39  66  99 131 176 226 280 346 406
#     4   9  23  40  63 103 136 170 225 279 339 416
#     4  11  23  41  65 100 135 181 237 292 341 413
#     4  11  21  40  69  99 130 181 226 295 330 405
#     4  10  24  44  62  98 152 176 228 296 354 408
#     4  11  22  40  64 103 143 174 214 283 349 419
#
# _framework density 22.714300000000001
#
# number of rings (size 3 to 8) (size 9 to 14) (size 15 to 20)
#    0.000    1.600    4.667    0.000    0.000    4.800 
#    0.000    3.333    0.000    0.000    0.000    0.000 
#    0.000    0.000    0.000    0.000    0.000    0.000 
#
# Total GULP energy -167327.527161 kJ/mol
# GULP energy per Si atom -5577.584239 kJ/mol
# Density = 2.266260 g / cm^3
# Si number density = 22.714300 Si / 1000 Ang^3
#
#
#
# Elastic Constant Matrix: (Units=GPa)
#
#
# Indices 1 2 3 4 5 6 
#
# 1 56.7977 20.7180 21.5084 0.0000 0.0000 0.0000
# 2 20.7180 132.0318 50.0012 0.0000 0.0000 0.0000
# 3 21.5084 50.0012 91.0983 0.0000 0.0000 0.0000
# 4 0.0000 0.0000 0.0000 35.6937 0.0000 0.0000
# 5 0.0000 0.0000 0.0000 0.0000 37.3717 0.0000
# 6 0.0000 0.0000 0.0000 0.0000 0.0000 40.9122
#
#
#
# Elastic Compliance Matrix: (Units=1/GPa)
#
#
# Indices 1 2 3 4 5 6 
#
# 1 0.019623 -0.001672 -0.003715 0.000000 0.000000 0.000000
# 2 -0.001672 0.009704 -0.004931 0.000000 0.000000 0.000000
# 3 -0.003715 -0.004931 0.014561 0.000000 0.000000 0.000000
# 4 0.000000 0.000000 0.000000 0.028016 0.000000 0.000000
# 5 0.000000 0.000000 0.000000 0.000000 0.026758 0.000000
# 6 0.000000 0.000000 0.000000 0.000000 0.000000 0.024443
#
#
# Mechanical properties :
#
#
# Convention : Reuss Voigt Hill
#
# Bulk Modulus (GPa) = 43.00987 51.59809 47.30398
# Shear Modulus (GPa) = 33.00488 35.30887 34.15688
#
# Velocity S-wave (km/s) = 3.81602 3.94696 3.88204
# Velocity P-wave (km/s) = 6.19615 6.59824 6.40035
#
# Compressibility (1/GPa) = 0.02325048
#
# Stress axis : x y z
#
# Youngs Moduli (GPa) = 50.96004 103.05172 68.67669
#
# Poissons Ratio (x) = 0.17233 0.25515
# Poissons Ratio (y) = 0.08522 0.33867
# Poissons Ratio (z) = 0.18933 0.50818
#
# Static dielectric constant tensor:
#      x y z
#    x 1.830130 0.000000 0.000000 
#    y 0.000000 1.962520 0.000000 
#    z 0.000000 0.000000 1.921110 
# 
# From -- ./inp_files/25696.got.cif
#   From: 2010.05.17/outbox.cif.g08.bks.cpg/sg20_13_cif.got.tgz:25696.got - 2010.06.03 22:52:26.
