data_PCOD9318329
_publ_section_title
;
Structure prediction by ZEFSAII (Michael W. Deem and Ramdas Pophale) SiO2 
 PCOD9318329
Probable space group: C 2 2 21
;
_chemical_formula_sum "Si O2"
_cell_formula_units_Z 44
_cell_length_a 11.963678
_cell_length_b 9.077722
_cell_length_c 21.080781
_cell_angle_alpha 90.000000
_cell_angle_beta 90.000000
_cell_angle_gamma 90.000000
_cell_volume 2289.434857
_symmetry_space_group_name_H-M "C 2 2 21"
_symmetry_group_IT_number 20
_symmetry_cell_setting 'orthorhombic'
loop_
_space_group_symop_operation_xyz
x,y,z
-x,-y,1/2+z
x,-y,-z
-x,y,1/2-z
1/2+x,1/2+y,z
1/2-x,1/2-y,1/2+z
1/2+x,1/2-y,-z
1/2-x,1/2+y,1/2-z
loop_
_atom_site_type_symbol
_atom_site_label
_atom_site_fract_x
_atom_site_fract_y
_atom_site_fract_z
Si Si1 0.700503 0.879841 0.683434
Si Si2 0.238683 0.961180 0.312214
Si Si3 0.979180 0.000000 0.000000
Si Si4 0.637920 0.693998 0.405335
Si Si5 0.994079 0.408874 0.322565
Si Si6 0.302498 0.452890 0.431181
O O1 0.756311 0.958005 0.744341
O O2 0.578048 0.952254 0.676415
O O3 0.770549 0.927523 0.621610
O O4 0.697059 0.705915 0.693161
O O5 0.367208 0.951414 0.335453
O O6 0.168387 0.057473 0.360770
O O7 0.065199 0.053208 0.945062
O O8 0.905072 0.869921 0.971674
O O9 0.542870 0.791137 0.371383
O O10 0.744982 0.800416 0.411723
O O11 0.000000 0.349670 0.250000
O O12 0.254340 0.500000 0.500000
#
# Coordination Sequence:
#
# PCOD9318329 Si02
#       6
#     8   8   4   8   8   8
#     4  10  20  39  65  90 120 161 193 248 306 353
#     4  11  22  38  66  92 123 152 199 249 302 360
#     4  10  24  38  60  86 122 156 212 240 294 354
#     4  11  23  39  61  90 117 161 201 247 297 356
#     4   9  20  39  59  88 121 150 196 245 305 357
#     4   9  22  43  60  81 127 158 197 249 292 349
#
# _framework density 19.218715
#
# number of rings (size 3 to 8) (size 9 to 14) (size 15 to 20)
#    0.545    1.455    0.000    4.364    2.545    1.455 
#    3.273   10.000    0.000    0.000    0.000    0.000 
#    0.000    0.000    0.000    0.000    0.000    0.000 
#
# Total GULP energy -122789.915050 kJ/mol
# GULP energy per Si atom -5581.359775 kJ/mol
# Density = 1.917497 g / cm^3
# Si number density = 19.218715 Si / 1000 Ang^3
#
#
#
# Elastic Constant Matrix: (Units=GPa)
#
#
# Indices 1 2 3 4 5 6 
#
# 1 38.9325 3.3619 8.1893 0.0000 0.0000 0.0000
# 2 3.3619 133.7343 42.9048 0.0000 0.0000 0.0000
# 3 8.1893 42.9048 49.4178 0.0000 0.0000 0.0000
# 4 0.0000 0.0000 0.0000 19.2224 0.0000 0.0000
# 5 0.0000 0.0000 0.0000 0.0000 41.4052 0.0000
# 6 0.0000 0.0000 0.0000 0.0000 0.0000 11.8203
#
#
#
# Elastic Compliance Matrix: (Units=1/GPa)
#
#
# Indices 1 2 3 4 5 6 
#
# 1 0.026717 0.001038 -0.005328 0.000000 0.000000 0.000000
# 2 0.001038 0.010405 -0.009205 0.000000 0.000000 0.000000
# 3 -0.005328 -0.009205 0.029111 0.000000 0.000000 0.000000
# 4 0.000000 0.000000 0.000000 0.052023 0.000000 0.000000
# 5 0.000000 0.000000 0.000000 0.000000 0.024152 0.000000
# 6 0.000000 0.000000 0.000000 0.000000 0.000000 0.084600
#
#
# Mechanical properties :
#
#
# Convention : Reuss Voigt Hill
#
# Bulk Modulus (GPa) = 25.48408 36.77740 31.13074
# Shear Modulus (GPa) = 18.72108 25.66483 22.19295
#
# Velocity S-wave (km/s) = 3.12445 3.65829 3.40186
# Velocity P-wave (km/s) = 5.12885 6.08456 5.62703
#
# Compressibility (1/GPa) = 0.03924018
#
# Stress axis : x y z
#
# Youngs Moduli (GPa) = 37.42983 96.11032 34.35151
#
# Poissons Ratio (x) = -0.09975 0.18304
# Poissons Ratio (y) = -0.03885 0.31622
# Poissons Ratio (z) = 0.19944 0.88473
#
# Static dielectric constant tensor:
#      x y z
#    x 1.666470 0.000000 0.000000 
#    y 0.000000 1.639050 0.000000 
#    z 0.000000 0.000000 1.672880 
# 
# From -- ./inp_files/29043.got.cif
#   From: 2010.05.17/outbox.cif.g08.bks.cpg/sg20_15_cif.got.tgz:29043.got - 2010.06.03 22:52:26.
