data_PCOD9318401
_publ_section_title
;
Structure prediction by ZEFSAII (Michael W. Deem and Ramdas Pophale) SiO2 
 PCOD9318401
Probable space group: C 2 2 21
;
_chemical_formula_sum "Si O2"
_cell_formula_units_Z 64
_cell_length_a 11.732622
_cell_length_b 9.899364
_cell_length_c 24.411146
_cell_angle_alpha 90.000000
_cell_angle_beta 90.000000
_cell_angle_gamma 90.000000
_cell_volume 2835.244656
_symmetry_space_group_name_H-M "C 2 2 21"
_symmetry_group_IT_number 20
_symmetry_cell_setting 'orthorhombic'
loop_
_space_group_symop_operation_xyz
x,y,z
-x,-y,1/2+z
x,-y,-z
-x,y,1/2-z
1/2+x,1/2+y,z
1/2-x,1/2-y,1/2+z
1/2+x,1/2-y,-z
1/2-x,1/2+y,1/2-z
loop_
_atom_site_type_symbol
_atom_site_label
_atom_site_fract_x
_atom_site_fract_y
_atom_site_fract_z
Si Si1 0.881457 0.202123 0.518313
Si Si2 0.546561 0.046011 0.086393
Si Si3 0.211472 0.952542 0.835502
Si Si4 0.470629 0.543561 0.415682
Si Si5 0.328170 0.870653 0.074528
Si Si6 0.113364 0.021471 0.730782
Si Si7 0.436837 0.186214 0.194085
Si Si8 0.288124 0.421582 0.875007
O O1 0.921734 0.349134 0.537551
O O2 0.938757 0.148201 0.463407
O O3 0.744739 0.167360 0.519790
O O4 0.925480 0.101439 0.565513
O O5 0.496636 0.127427 0.139562
O O6 0.673030 0.005444 0.106174
O O7 0.456725 0.928512 0.070446
O O8 0.092061 0.904119 0.861141
O O9 0.303747 0.852975 0.809768
O O10 0.271555 0.012765 0.888943
O O11 0.181169 0.054682 0.786339
O O12 0.603398 0.522704 0.407291
O O13 0.300877 0.736153 0.109672
O O14 0.065762 0.152254 0.699295
O O15 0.000000 0.943210 0.750000
O O16 0.191578 0.941958 0.688959
O O17 0.500000 0.137272 0.250000
#
# Coordination Sequence:
#
# PCOD9318401 Si02
#       8
#     8   8   8   8   8   8   8   8
#     4   9  20  41  70  85 125 165 213 266 312 389
#     4  10  21  42  63  94 126 164 212 266 327 389
#     4  10  21  39  60  90 119 165 215 256 317 393
#     4  10  20  40  63  93 120 164 211 257 327 380
#     4   9  22  41  65  91 127 165 211 268 322 391
#     4  11  22  35  61  86 122 167 210 256 320 392
#     4  10  22  37  61  88 119 163 208 260 322 388
#     4  11  22  38  63  91 131 161 205 272 322 384
#
# _framework density 22.573007
#
# number of rings (size 3 to 8) (size 9 to 14) (size 15 to 20)
#    0.000    2.000    1.250    1.500   10.500    1.000 
#   20.250    3.750    5.500    0.000    0.000    0.000 
#    0.000    0.000    0.000    0.000    0.000    0.000 
#
# Total GULP energy -178338.223443 kJ/mol
# GULP energy per Si atom -5573.069483 kJ/mol
# Density = 2.252163 g / cm^3
# Si number density = 22.573007 Si / 1000 Ang^3
#
#
#
# Elastic Constant Matrix: (Units=GPa)
#
#
# Indices 1 2 3 4 5 6 
#
# 1 160.7451 21.4686 45.6984 0.0000 0.0000 0.0000
# 2 21.4686 28.4372 9.0636 0.0000 0.0000 0.0000
# 3 45.6984 9.0636 98.1183 0.0000 0.0000 0.0000
# 4 0.0000 0.0000 0.0000 23.5167 0.0000 0.0000
# 5 0.0000 0.0000 0.0000 0.0000 26.5315 0.0000
# 6 0.0000 0.0000 0.0000 0.0000 0.0000 26.7981
#
#
#
# Elastic Compliance Matrix: (Units=1/GPa)
#
#
# Indices 1 2 3 4 5 6 
#
# 1 0.007771 -0.004856 -0.003171 0.000000 0.000000 0.000000
# 2 -0.004856 0.039267 -0.001366 0.000000 0.000000 0.000000
# 3 -0.003171 -0.001366 0.011795 0.000000 0.000000 0.000000
# 4 0.000000 0.000000 0.000000 0.042523 0.000000 0.000000
# 5 0.000000 0.000000 0.000000 0.000000 0.037691 0.000000
# 6 0.000000 0.000000 0.000000 0.000000 0.000000 0.037316
#
#
# Mechanical properties :
#
#
# Convention : Reuss Voigt Hill
#
# Bulk Modulus (GPa) = 24.97032 48.86241 36.91636
# Shear Modulus (GPa) = 23.98126 29.44061 26.71094
#
# Velocity S-wave (km/s) = 3.26296 3.61534 3.44366
# Velocity P-wave (km/s) = 5.02812 6.25468 5.67463
#
# Compressibility (1/GPa) = 0.04004755
#
# Stress axis : x y z
#
# Youngs Moduli (GPa) = 128.68339 25.46695 84.78394
#
# Poissons Ratio (x) = 0.12367 0.26883
# Poissons Ratio (y) = 0.62490 0.11577
# Poissons Ratio (z) = 0.40802 0.03478
#
# Static dielectric constant tensor:
#      x y z
#    x 2.001600 0.000000 0.000000 
#    y 0.000000 1.878480 0.000000 
#    z 0.000000 0.000000 1.856640 
# 
# From -- ./inp_files/29175.got.cif
#   From: 2010.05.17/outbox.cif.g08.bks.cpg/sg20_15_cif.got.tgz:29175.got - 2010.06.03 22:52:26.
