data_PCOD9318002
_publ_section_title
;
Structure prediction by ZEFSAII (Michael W. Deem and Ramdas Pophale) SiO2 
 PCOD9318002
Probable space group: C 2 2 21
;
_chemical_formula_sum "Si O2"
_cell_formula_units_Z 40
_cell_length_a 23.210992
_cell_length_b 8.845405
_cell_length_c 9.708206
_cell_angle_alpha 90.000000
_cell_angle_beta 90.000000
_cell_angle_gamma 90.000000
_cell_volume 1993.197838
_symmetry_space_group_name_H-M "C 2 2 21"
_symmetry_group_IT_number 20
_symmetry_cell_setting 'orthorhombic'
loop_
_space_group_symop_operation_xyz
x,y,z
-x,-y,1/2+z
x,-y,-z
-x,y,1/2-z
1/2+x,1/2+y,z
1/2-x,1/2-y,1/2+z
1/2+x,1/2-y,-z
1/2-x,1/2+y,1/2-z
loop_
_atom_site_type_symbol
_atom_site_label
_atom_site_fract_x
_atom_site_fract_y
_atom_site_fract_z
Si Si1 0.207214 0.896893 0.131161
Si Si2 0.485491 0.824183 0.970593
Si Si3 0.789170 0.884869 0.872735
Si Si4 0.418931 0.308658 0.288587
Si Si5 0.077991 0.101547 0.360426
O O1 0.252343 0.764333 0.101614
O O2 0.149326 0.817515 0.189858
O O3 0.231120 0.015150 0.243366
O O4 0.192372 0.000000 0.000000
O O5 0.545746 0.757231 0.916053
O O6 0.440497 0.785206 0.845552
O O7 0.463518 0.738359 0.105814
O O8 0.489239 0.000000 0.000000
O O9 0.856109 0.845295 0.845113
O O10 0.787278 0.000000 0.000000
O O11 0.435632 0.483747 0.260145
O O12 0.076081 0.000000 0.500000
#
# Coordination Sequence:
#
# PCOD9318002 Si02
#       5
#     8   8   8   8   8
#     4  11  23  39  62  90 122 160 201 254 306 355
#     4  10  20  37  60  86 114 152 203 258 304 354
#     4  10  21  39  60  88 120 158 204 245 299 369
#     4   9  21  39  54  82 120 155 198 248 307 371
#     4   8  17  36  59  78 109 155 194 231 291 371
#
# _framework density 20.068252999999999
#
# number of rings (size 3 to 8) (size 9 to 14) (size 15 to 20)
#    0.000    2.400    0.000    2.400    0.000    7.200 
#    0.000   20.000    0.000    0.000    0.000    0.000 
#    0.000    0.000    0.000    0.000    0.000    0.000 
#
# Total GULP energy -111638.670796 kJ/mol
# GULP energy per Si atom -5581.933540 kJ/mol
# Density = 2.002258 g / cm^3
# Si number density = 20.068253 Si / 1000 Ang^3
#
#
#
# Elastic Constant Matrix: (Units=GPa)
#
#
# Indices 1 2 3 4 5 6 
#
# 1 80.0144 59.6681 5.7800 0.0000 0.0000 0.0000
# 2 59.6681 136.7421 27.3617 0.0000 0.0000 0.0000
# 3 5.7800 27.3617 47.9323 0.0000 0.0000 0.0000
# 4 0.0000 0.0000 0.0000 36.2145 0.0000 0.0000
# 5 0.0000 0.0000 0.0000 0.0000 11.4333 0.0000
# 6 0.0000 0.0000 0.0000 0.0000 0.0000 24.4579
#
#
#
# Elastic Compliance Matrix: (Units=1/GPa)
#
#
# Indices 1 2 3 4 5 6 
#
# 1 0.018838 -0.008767 0.002733 0.000000 0.000000 0.000000
# 2 -0.008767 0.012336 -0.005985 0.000000 0.000000 0.000000
# 3 0.002733 -0.005985 0.023950 0.000000 0.000000 0.000000
# 4 0.000000 0.000000 0.000000 0.027613 0.000000 0.000000
# 5 0.000000 0.000000 0.000000 0.000000 0.087464 0.000000
# 6 0.000000 0.000000 0.000000 0.000000 0.000000 0.040887
#
#
# Mechanical properties :
#
#
# Convention : Reuss Voigt Hill
#
# Bulk Modulus (GPa) = 32.16876 50.03427 41.10152
# Shear Modulus (GPa) = 20.36769 25.87974 23.12371
#
# Velocity S-wave (km/s) = 3.18924 3.59498 3.39817
# Velocity P-wave (km/s) = 5.44299 6.49754 5.99350
#
# Compressibility (1/GPa) = 0.03108606
#
# Stress axis : x y z
#
# Youngs Moduli (GPa) = 53.08440 81.06331 41.75442
#
# Poissons Ratio (x) = 0.71067 -0.11411
# Poissons Ratio (y) = 0.46538 0.24989
# Poissons Ratio (z) = -0.14507 0.48514
#
# Static dielectric constant tensor:
#      x y z
#    x 1.720710 0.000000 0.000000 
#    y 0.000000 1.682670 0.000000 
#    z 0.000000 0.000000 1.774630 
# 
# From -- ./inp_files/6274.got.cif
#   From: 2010.05.17/outbox.cif.g08.bks.cpg/sg20_4_cif.got.tgz:6274.got - 2010.06.03 22:52:26.
