data_PCOD9318952
_publ_section_title
;
Structure prediction by ZEFSAII (Michael W. Deem and Ramdas Pophale) SiO2 
 PCOD9318952
Probable space group: C 2 2 21
;
_chemical_formula_sum "Si O2"
_cell_formula_units_Z 44
_cell_length_a 12.135089
_cell_length_b 7.097059
_cell_length_c 21.485194
_cell_angle_alpha 90.000000
_cell_angle_beta 90.000000
_cell_angle_gamma 90.000000
_cell_volume 1850.378872
_symmetry_space_group_name_H-M "C 2 2 21"
_symmetry_group_IT_number 20
_symmetry_cell_setting 'orthorhombic'
loop_
_space_group_symop_operation_xyz
x,y,z
-x,-y,1/2+z
x,-y,-z
-x,y,1/2-z
1/2+x,1/2+y,z
1/2-x,1/2-y,1/2+z
1/2+x,1/2-y,-z
1/2-x,1/2+y,1/2-z
loop_
_atom_site_type_symbol
_atom_site_label
_atom_site_fract_x
_atom_site_fract_y
_atom_site_fract_z
Si Si1 0.893953 0.758417 0.336176
Si Si2 0.153090 0.128082 0.355365
Si Si3 0.394678 0.193197 0.110291
Si Si4 0.671688 0.558637 0.068418
Si Si5 0.459555 0.717588 0.024080
Si Si6 0.500000 0.444546 0.750000
O O1 0.777709 0.655745 0.333231
O O2 0.913825 0.912418 0.282751
O O3 0.004537 0.635034 0.345060
O O4 0.888974 0.884429 0.399153
O O5 0.125313 0.239788 0.418975
O O6 0.128283 0.911229 0.372207
O O7 0.065815 0.172695 0.301270
O O8 0.273073 0.107895 0.112463
O O9 0.435224 0.170298 0.038816
O O10 0.581721 0.722544 0.054570
O O11 0.709940 0.500000 0.000000
O O12 0.449479 0.500000 0.000000
#
# Coordination Sequence:
#
# PCOD9318952 Si02
#       6
#     8   8   8   8   8   4
#     4  11  22  41  60  86 118 153 199 248 291 348
#     4  10  21  41  63  82 116 157 196 245 294 341
#     4  10  21  38  61  89 121 154 187 237 296 354
#     4  11  19  38  63  88 124 155 187 237 293 358
#     4   9  16  35  60  84 115 151 185 224 287 349
#     4  10  22  40  60  84 112 160 200 246 300 336
#
# _framework density 23.778915000000001
#
# number of rings (size 3 to 8) (size 9 to 14) (size 15 to 20)
#    0.000    1.818    7.273    1.091    0.000    2.909 
#    6.545    0.000    0.000    0.000    0.000    0.000 
#    0.000    0.000    0.000    0.000    0.000    0.000 
#
# Total GULP energy -122858.285018 kJ/mol
# GULP energy per Si atom -5584.467501 kJ/mol
# Density = 2.372479 g / cm^3
# Si number density = 23.778915 Si / 1000 Ang^3
#
#
#
# Elastic Constant Matrix: (Units=GPa)
#
#
# Indices 1 2 3 4 5 6 
#
# 1 159.7199 18.5228 10.8970 0.0000 0.0000 0.0000
# 2 18.5228 30.8361 5.8235 0.0000 0.0000 0.0000
# 3 10.8970 5.8235 80.7787 0.0000 0.0000 0.0000
# 4 0.0000 0.0000 0.0000 19.1598 0.0000 0.0000
# 5 0.0000 0.0000 0.0000 0.0000 36.1116 0.0000
# 6 0.0000 0.0000 0.0000 0.0000 0.0000 37.9593
#
#
#
# Elastic Compliance Matrix: (Units=1/GPa)
#
#
# Indices 1 2 3 4 5 6 
#
# 1 0.006761 -0.003943 -0.000628 0.000000 0.000000 0.000000
# 2 -0.003943 0.035176 -0.002004 0.000000 0.000000 0.000000
# 3 -0.000628 -0.002004 0.012609 0.000000 0.000000 0.000000
# 4 0.000000 0.000000 0.000000 0.052193 0.000000 0.000000
# 5 0.000000 0.000000 0.000000 0.000000 0.027692 0.000000
# 6 0.000000 0.000000 0.000000 0.000000 0.000000 0.026344
#
#
# Mechanical properties :
#
#
# Convention : Reuss Voigt Hill
#
# Bulk Modulus (GPa) = 24.15639 37.98012 31.06826
# Shear Modulus (GPa) = 26.63504 34.38558 30.51031
#
# Velocity S-wave (km/s) = 3.35044 3.80683 3.58590
# Velocity P-wave (km/s) = 5.01478 5.94386 5.49898
#
# Compressibility (1/GPa) = 0.04139691
#
# Stress axis : x y z
#
# Youngs Moduli (GPa) = 147.90642 28.42818 79.31047
#
# Poissons Ratio (x) = 0.11208 0.04979
# Poissons Ratio (y) = 0.58315 0.15894
# Poissons Ratio (z) = 0.09286 0.05697
#
# Static dielectric constant tensor:
#      x y z
#    x 1.934930 0.000000 0.000000 
#    y 0.000000 1.968910 0.000000 
#    z 0.000000 0.000000 1.923280 
# 
# From -- ./inp_files/29045.got.cif
#   From: 2010.05.17/outbox.cif.g08.bks.cpg/sg20_15_cif.got.tgz:29045.got - 2010.06.03 22:52:26.
