data_PCOD9318079
_publ_section_title
;
Structure prediction by ZEFSAII (Michael W. Deem and Ramdas Pophale) SiO2 
 PCOD9318079
Probable space group: C 2 2 21
;
_chemical_formula_sum "Si O2"
_cell_formula_units_Z 40
_cell_length_a 22.885334
_cell_length_b 8.320317
_cell_length_c 9.838096
_cell_angle_alpha 90.000000
_cell_angle_beta 90.000000
_cell_angle_gamma 90.000000
_cell_volume 1873.303671
_symmetry_space_group_name_H-M "C 2 2 21"
_symmetry_group_IT_number 20
_symmetry_cell_setting 'orthorhombic'
loop_
_space_group_symop_operation_xyz
x,y,z
-x,-y,1/2+z
x,-y,-z
-x,y,1/2-z
1/2+x,1/2+y,z
1/2-x,1/2-y,1/2+z
1/2+x,1/2-y,-z
1/2-x,1/2+y,1/2-z
loop_
_atom_site_type_symbol
_atom_site_label
_atom_site_fract_x
_atom_site_fract_y
_atom_site_fract_z
Si Si1 0.579496 0.500000 0.000000
Si Si2 0.480903 0.279480 0.897313
Si Si3 0.194854 0.341048 0.350463
Si Si4 0.122069 0.016273 0.294617
Si Si5 0.774921 0.149970 0.909692
Si Si6 0.098244 0.500000 0.500000
O O1 0.537638 0.652439 0.028252
O O2 0.615595 0.475675 0.136972
O O3 0.500000 0.207185 0.750000
O O4 0.440313 0.431708 0.854792
O O5 0.443984 0.153833 0.985957
O O6 0.160975 0.176113 0.313291
O O7 0.227939 0.303965 0.492862
O O8 0.239617 0.362064 0.228918
O O9 0.144007 0.472047 0.375361
O O10 0.156873 0.879518 0.374326
O O11 0.754453 0.000000 0.000000
#
# Coordination Sequence:
#
# PCOD9318079 Si02
#       6
#     4   8   8   8   8   4
#     4  10  20  37  70  88 118 171 218 260 306 378
#     4   9  20  41  61  92 125 164 211 265 311 374
#     4  10  23  39  65  92 130 167 201 261 317 377
#     4   9  21  39  62  90 125 158 214 262 305 377
#     4  10  23  40  62  94 126 166 210 253 308 385
#     4  10  22  39  64  88 132 165 202 266 328 360
#
# _framework density 21.352651999999999
#
# number of rings (size 3 to 8) (size 9 to 14) (size 15 to 20)
#    0.000    2.400    0.000    0.000   15.400    0.000 
#    3.600    0.000   15.400    0.000    0.000    0.000 
#    0.000    0.000    0.000    0.000    0.000    0.000 
#
# Total GULP energy -111600.934852 kJ/mol
# GULP energy per Si atom -5580.046743 kJ/mol
# Density = 2.130405 g / cm^3
# Si number density = 21.352652 Si / 1000 Ang^3
#
#
#
# Elastic Constant Matrix: (Units=GPa)
#
#
# Indices 1 2 3 4 5 6 
#
# 1 65.6426 17.4254 51.3837 0.0000 0.0000 0.0000
# 2 17.4254 65.2072 44.8911 0.0000 0.0000 0.0000
# 3 51.3837 44.8911 156.4320 0.0000 0.0000 0.0000
# 4 0.0000 0.0000 0.0000 29.6431 0.0000 0.0000
# 5 0.0000 0.0000 0.0000 0.0000 44.1491 0.0000
# 6 0.0000 0.0000 0.0000 0.0000 0.0000 21.2332
#
#
#
# Elastic Compliance Matrix: (Units=1/GPa)
#
#
# Indices 1 2 3 4 5 6 
#
# 1 0.020565 -0.001053 -0.006453 0.000000 0.000000 0.000000
# 2 -0.001053 0.019165 -0.005154 0.000000 0.000000 0.000000
# 3 -0.006453 -0.005154 0.009991 0.000000 0.000000 0.000000
# 4 0.000000 0.000000 0.000000 0.033735 0.000000 0.000000
# 5 0.000000 0.000000 0.000000 0.000000 0.022650 0.000000
# 6 0.000000 0.000000 0.000000 0.000000 0.000000 0.047096
#
#
# Mechanical properties :
#
#
# Convention : Reuss Voigt Hill
#
# Bulk Modulus (GPa) = 40.98125 57.18691 49.08408
# Shear Modulus (GPa) = 26.78728 30.57718 28.68223
#
# Velocity S-wave (km/s) = 3.54576 3.78829 3.66903
# Velocity P-wave (km/s) = 5.99979 6.78050 6.40205
#
# Compressibility (1/GPa) = 0.02440140
#
# Stress axis : x y z
#
# Youngs Moduli (GPa) = 48.62717 52.17760 100.08921
#
# Poissons Ratio (x) = 0.05496 0.64584
# Poissons Ratio (y) = 0.05122 0.51585
# Poissons Ratio (z) = 0.31378 0.26892
#
# Static dielectric constant tensor:
#      x y z
#    x 1.784610 0.000000 0.000000 
#    y 0.000000 1.829050 0.000000 
#    z 0.000000 0.000000 1.840390 
# 
# From -- ./inp_files/11007.got.cif
#   From: 2010.05.17/outbox.cif.g08.bks.cpg/sg20_6_cif.got.tgz:11007.got - 2010.06.03 22:52:26.
