data_PCOD9318435
_publ_section_title
;
Structure prediction by ZEFSAII (Michael W. Deem and Ramdas Pophale) SiO2 
 PCOD9318435
Probable space group: C 2 2 21
;
_chemical_formula_sum "Si O2"
_cell_formula_units_Z 56
_cell_length_a 14.126836
_cell_length_b 21.393387
_cell_length_c 7.601991
_cell_angle_alpha 90.000000
_cell_angle_beta 90.000000
_cell_angle_gamma 90.000000
_cell_volume 2297.480331
_symmetry_space_group_name_H-M "C 2 2 21"
_symmetry_group_IT_number 20
_symmetry_cell_setting 'orthorhombic'
loop_
_space_group_symop_operation_xyz
x,y,z
-x,-y,1/2+z
x,-y,-z
-x,y,1/2-z
1/2+x,1/2+y,z
1/2-x,1/2-y,1/2+z
1/2+x,1/2-y,-z
1/2-x,1/2+y,1/2-z
loop_
_atom_site_type_symbol
_atom_site_label
_atom_site_fract_x
_atom_site_fract_y
_atom_site_fract_z
Si Si1 0.083949 0.646350 0.885576
Si Si2 0.145588 0.223664 0.937700
Si Si3 0.040702 0.893992 0.951750
Si Si4 0.223690 0.936901 0.794416
Si Si5 0.400443 0.500000 0.000000
Si Si6 0.500000 0.126077 0.250000
Si Si7 0.612750 0.017883 0.798443
Si Si8 0.188345 0.313163 0.660618
O O1 0.139571 0.591138 0.783195
O O2 0.000000 0.661575 0.750000
O O3 0.125652 0.711970 0.953509
O O4 0.053082 0.609200 0.066092
O O5 0.166146 0.246580 0.743657
O O6 0.062296 0.174058 0.968622
O O7 0.245388 0.195921 0.996902
O O8 0.144835 0.926024 0.943620
O O9 0.000000 0.887353 0.750000
O O10 0.968036 0.941084 0.043586
O O11 0.251851 0.866326 0.732306
O O12 0.166483 0.977270 0.654693
O O13 0.322717 0.972630 0.820597
O O14 0.415372 0.160274 0.147962
O O15 0.500000 0.010029 0.750000
O O16 0.632787 0.000000 0.000000
#
# Coordination Sequence:
#
# PCOD9318435 Si02
#       8
#     8   8   8   8   4   4   8   8
#     4  10  23  40  64  94 131 171 224 278 330 418
#     4  10  21  41  62  94 128 173 220 266 349 396
#     4   9  20  41  64  92 123 173 219 280 341 404
#     4  10  21  40  66  90 129 177 216 279 343 407
#     4  10  20  40  66  92 122 164 236 260 338 408
#     4  10  22  40  62  92 134 172 214 276 342 394
#     4  11  23  39  61  97 126 175 220 273 340 404
#     4  10  23  40  64  95 130 173 222 275 337 416
#
# _framework density 24.37453
#
# number of rings (size 3 to 8) (size 9 to 14) (size 15 to 20)
#    0.000    2.000    0.714    2.143    6.000    0.000 
#    9.000    1.429    4.714    0.000    0.000    0.000 
#    0.000    0.000    0.000    0.000    0.000    0.000 
#
# Total GULP energy -155964.870098 kJ/mol
# GULP energy per Si atom -5570.173932 kJ/mol
# Density = 2.431905 g / cm^3
# Si number density = 24.374530 Si / 1000 Ang^3
#
#
#
# Elastic Constant Matrix: (Units=GPa)
#
#
# Indices 1 2 3 4 5 6 
#
# 1 112.2019 42.4876 1.2661 0.0000 0.0000 0.0000
# 2 42.4876 119.8258 1.3189 0.0000 0.0000 0.0000
# 3 1.2661 1.3189 41.4933 0.0000 0.0000 0.0000
# 4 0.0000 0.0000 0.0000 -115.5325 0.0000 0.0000
# 5 0.0000 0.0000 0.0000 0.0000 19.5041 0.0000
# 6 0.0000 0.0000 0.0000 0.0000 0.0000 -95.8149
#
#
#
# Elastic Compliance Matrix: (Units=1/GPa)
#
#
# Indices 1 2 3 4 5 6 
#
# 1 0.010296 -0.003649 -0.000198 0.000000 0.000000 0.000000
# 2 -0.003649 0.009641 -0.000195 0.000000 0.000000 0.000000
# 3 -0.000198 -0.000195 0.024113 0.000000 0.000000 0.000000
# 4 0.000000 0.000000 0.000000 -0.008656 0.000000 0.000000
# 5 0.000000 0.000000 0.000000 0.000000 0.051271 0.000000
# 6 0.000000 0.000000 0.000000 0.000000 0.000000 -0.010437
#
#
# Mechanical properties :
#
#
# Convention : Reuss Voigt Hill
#
# Bulk Modulus (GPa) = 27.80386 40.40735 34.10561
# Shear Modulus (GPa) = 51.92002 -23.13876 14.39063
#
# Velocity S-wave (km/s) = 4.62030 -3.08441 2.43244
# Velocity P-wave (km/s) = 6.31622 1.98214 4.68100
#
# Compressibility (1/GPa) = 0.03596623
#
# Stress axis : x y z
#
# Youngs Moduli (GPa) = 97.12140 103.71999 41.47223
#
# Poissons Ratio (x) = 0.37844 0.00822
# Poissons Ratio (y) = 0.35437 0.00809
# Poissons Ratio (z) = 0.01925 0.02024
#
# Static dielectric constant tensor:
#      x y z
#    x 2.312010 0.000000 0.000000 
#    y 0.000000 2.065480 0.000000 
#    z 0.000000 0.000000 2.008470 
# 
# From -- ./inp_files/8776.got.cif
#   From: 2010.05.17/outbox.cif.g08.bks.cpg/sg20_5_cif.got.tgz:8776.got - 2010.06.03 22:52:26.
