data_PCOD9318504
_publ_section_title
;
Structure prediction by ZEFSAII (Michael W. Deem and Ramdas Pophale) SiO2 
 PCOD9318504
Probable space group: C 2 2 21
;
_chemical_formula_sum "Si O2"
_cell_formula_units_Z 48
_cell_length_a 11.782495
_cell_length_b 8.513180
_cell_length_c 21.682421
_cell_angle_alpha 90.000000
_cell_angle_beta 90.000000
_cell_angle_gamma 90.000000
_cell_volume 2174.887779
_symmetry_space_group_name_H-M "C 2 2 21"
_symmetry_group_IT_number 20
_symmetry_cell_setting 'orthorhombic'
loop_
_space_group_symop_operation_xyz
x,y,z
-x,-y,1/2+z
x,-y,-z
-x,y,1/2-z
1/2+x,1/2+y,z
1/2-x,1/2-y,1/2+z
1/2+x,1/2-y,-z
1/2-x,1/2+y,1/2-z
loop_
_atom_site_type_symbol
_atom_site_label
_atom_site_fract_x
_atom_site_fract_y
_atom_site_fract_z
Si Si1 0.332005 0.297447 0.701026
Si Si2 0.506133 0.715187 0.897641
Si Si3 0.847967 0.521631 0.140857
Si Si4 0.266701 0.314027 0.900310
Si Si5 0.000000 0.431006 0.250000
Si Si6 0.103506 0.000000 0.500000
Si Si7 0.856753 0.944675 0.199364
O O1 0.274290 0.390694 0.644907
O O2 0.434836 0.175514 0.699182
O O3 0.226610 0.190611 0.723965
O O4 0.372087 0.428298 0.748358
O O5 0.427893 0.870731 0.900956
O O6 0.635237 0.768172 0.899666
O O7 0.473088 0.593898 0.951140
O O8 0.465567 0.631653 0.833701
O O9 0.831976 0.343267 0.120605
O O10 0.907147 0.520380 0.209016
O O11 0.316552 0.376253 0.964501
O O12 0.290489 0.458165 0.853764
#
# Coordination Sequence:
#
# PCOD9318504 Si02
#       7
#     8   8   8   8   4   4   8
#     4  11  21  37  59  90 134 173 208 249 298 380
#     4  10  25  43  69  93 127 171 213 275 332 377
#     4  11  25  40  63  98 132 171 217 254 317 391
#     4  11  23  45  68  94 128 165 218 278 321 392
#     4  12  22  36  62  90 136 174 204 252 308 372
#     4  10  26  46  68  96 124 158 226 282 334 384
#     4  10  20  41  58  94 131 168 214 256 307 380
#
# _framework density 22.070104000000001
#
# number of rings (size 3 to 8) (size 9 to 14) (size 15 to 20)
#    0.000    1.333    3.333    1.000    2.333    3.333 
#    0.000    0.000    0.000    0.000    0.000    0.000 
#    0.000    0.000    0.000    0.000    0.000    0.000 
#
# Total GULP energy -134111.985535 kJ/mol
# GULP energy per Si atom -5587.999397 kJ/mol
# Density = 2.201987 g / cm^3
# Si number density = 22.070104 Si / 1000 Ang^3
#
#
#
# Elastic Constant Matrix: (Units=GPa)
#
#
# Indices 1 2 3 4 5 6 
#
# 1 122.3605 44.4180 29.9540 0.0000 0.0000 0.0000
# 2 44.4180 119.3953 27.3044 0.0000 0.0000 0.0000
# 3 29.9540 27.3044 35.0981 0.0000 0.0000 0.0000
# 4 0.0000 0.0000 0.0000 34.1285 0.0000 0.0000
# 5 0.0000 0.0000 0.0000 0.0000 11.4073 0.0000
# 6 0.0000 0.0000 0.0000 0.0000 0.0000 32.8462
#
#
#
# Elastic Compliance Matrix: (Units=1/GPa)
#
#
# Indices 1 2 3 4 5 6 
#
# 1 0.010840 -0.002332 -0.007437 0.000000 0.000000 0.000000
# 2 -0.002332 0.010690 -0.006326 0.000000 0.000000 0.000000
# 3 -0.007437 -0.006326 0.039760 0.000000 0.000000 0.000000
# 4 0.000000 0.000000 0.000000 0.029301 0.000000 0.000000
# 5 0.000000 0.000000 0.000000 0.000000 0.087663 0.000000
# 6 0.000000 0.000000 0.000000 0.000000 0.000000 0.030445
#
#
# Mechanical properties :
#
#
# Convention : Reuss Voigt Hill
#
# Bulk Modulus (GPa) = 34.36460 53.35630 43.86045
# Shear Modulus (GPa) = 19.95311 27.35489 23.65400
#
# Velocity S-wave (km/s) = 3.01005 3.52441 3.27734
# Velocity P-wave (km/s) = 5.26165 6.38672 5.85129
#
# Compressibility (1/GPa) = 0.02909971
#
# Stress axis : x y z
#
# Youngs Moduli (GPa) = 92.25419 93.54780 25.15113
#
# Poissons Ratio (x) = 0.21814 0.18704
# Poissons Ratio (y) = 0.21513 0.15910
# Poissons Ratio (z) = 0.68608 0.59178
#
# Static dielectric constant tensor:
#      x y z
#    x 1.813600 0.000000 0.000000 
#    y 0.000000 1.823190 0.000000 
#    z 0.000000 0.000000 1.815190 
# 
# From -- ./inp_files/29114.got.cif
#   From: 2010.05.17/outbox.cif.g08.bks.cpg/sg20_15_cif.got.tgz:29114.got - 2010.06.03 22:52:26.
