data_PCOD9318057
_publ_section_title
;
Structure prediction by ZEFSAII (Michael W. Deem and Ramdas Pophale) SiO2 
 PCOD9318057
Probable space group: C 2 2 21
;
_chemical_formula_sum "Si O2"
_cell_formula_units_Z 36
_cell_length_a 14.471418
_cell_length_b 14.813147
_cell_length_c 8.978604
_cell_angle_alpha 90.000000
_cell_angle_beta 90.000000
_cell_angle_gamma 90.000000
_cell_volume 1924.718578
_symmetry_space_group_name_H-M "C 2 2 21"
_symmetry_group_IT_number 20
_symmetry_cell_setting 'orthorhombic'
loop_
_space_group_symop_operation_xyz
x,y,z
-x,-y,1/2+z
x,-y,-z
-x,y,1/2-z
1/2+x,1/2+y,z
1/2-x,1/2-y,1/2+z
1/2+x,1/2-y,-z
1/2-x,1/2+y,1/2-z
loop_
_atom_site_type_symbol
_atom_site_label
_atom_site_fract_x
_atom_site_fract_y
_atom_site_fract_z
Si Si1 0.579476 0.820697 0.854480
Si Si2 0.897963 0.757590 0.678865
Si Si3 0.250315 0.899785 0.820870
Si Si4 0.000000 0.492374 0.750000
Si Si5 0.816606 0.590282 0.838253
O O1 0.500000 0.776907 0.750000
O O2 0.674920 0.841450 0.770874
O O3 0.539102 0.922300 0.872985
O O4 0.592391 0.769205 0.006531
O O5 0.848732 0.853980 0.695032
O O6 0.828145 0.683816 0.751505
O O7 0.000000 0.754193 0.750000
O O8 0.255608 0.005959 0.777875
O O9 0.284528 0.894795 0.992725
O O10 0.080571 0.549786 0.678517
#
# Coordination Sequence:
#
# PCOD9318057 Si02
#       5
#     8   8   8   4   8
#     4   9  20  34  56  89 126 148 194 254 304 354
#     4  12  23  36  62  93 120 167 205 244 300 364
#     4  10  22  38  58  91 129 152 204 251 307 355
#     4   8  18  32  60  94 114 154 184 256 304 364
#     4  10  20  37  65  87 123 158 192 259 312 351
#
# _framework density 18.704032000000002
#
# number of rings (size 3 to 8) (size 9 to 14) (size 15 to 20)
#    0.667    1.333    1.111    2.667    3.111    3.556 
#    0.000    0.000    0.000   22.667    0.000    0.000 
#    0.000    0.000    0.000    0.000    0.000    0.000 
#
# Total GULP energy -100285.403549 kJ/mol
# GULP energy per Si atom -5571.411308 kJ/mol
# Density = 1.866146 g / cm^3
# Si number density = 18.704032 Si / 1000 Ang^3
#
#
#
# Elastic Constant Matrix: (Units=GPa)
#
#
# Indices 1 2 3 4 5 6 
#
# 1 67.2363 58.4656 26.4859 0.0000 0.0000 0.0000
# 2 58.4656 91.4283 29.1392 0.0000 0.0000 0.0000
# 3 26.4859 29.1392 61.8710 0.0000 0.0000 0.0000
# 4 0.0000 0.0000 0.0000 14.3674 0.0000 0.0000
# 5 0.0000 0.0000 0.0000 0.0000 8.3955 0.0000
# 6 0.0000 0.0000 0.0000 0.0000 0.0000 34.8884
#
#
#
# Elastic Compliance Matrix: (Units=1/GPa)
#
#
# Indices 1 2 3 4 5 6 
#
# 1 0.034871 -0.020640 -0.005207 0.000000 0.000000 0.000000
# 2 -0.020640 0.025085 -0.002979 0.000000 0.000000 0.000000
# 3 -0.005207 -0.002979 0.019795 0.000000 0.000000 0.000000
# 4 0.000000 0.000000 0.000000 0.069602 0.000000 0.000000
# 5 0.000000 0.000000 0.000000 0.000000 0.119112 0.000000
# 6 0.000000 0.000000 0.000000 0.000000 0.000000 0.028663
#
#
# Mechanical properties :
#
#
# Convention : Reuss Voigt Hill
#
# Bulk Modulus (GPa) = 45.24896 49.85744 47.55320
# Shear Modulus (GPa) = 13.80657 18.62658 16.21657
#
# Velocity S-wave (km/s) = 2.71986 3.15915 2.94770
# Velocity P-wave (km/s) = 5.84021 6.32620 6.08806
#
# Compressibility (1/GPa) = 0.02209995
#
# Stress axis : x y z
#
# Youngs Moduli (GPa) = 28.67675 39.86397 50.51840
#
# Poissons Ratio (x) = 0.82278 0.26306
# Poissons Ratio (y) = 0.59188 0.15049
# Poissons Ratio (z) = 0.14933 0.11875
#
# Static dielectric constant tensor:
#      x y z
#    x 1.652970 0.000000 0.000000 
#    y 0.000000 1.678700 0.000000 
#    z 0.000000 0.000000 1.664910 
# 
# From -- ./inp_files/8008.got.cif
#   From: 2010.05.17/outbox.cif.g08.bks.cpg/sg20_5_cif.got.tgz:8008.got - 2010.06.03 22:52:26.
