data_PCOD9318724
_publ_section_title
;
Structure prediction by ZEFSAII (Michael W. Deem and Ramdas Pophale) SiO2 
 PCOD9318724
Probable space group: C 2 2 21
;
_chemical_formula_sum "Si O2"
_cell_formula_units_Z 40
_cell_length_a 8.841621
_cell_length_b 15.206173
_cell_length_c 11.392850
_cell_angle_alpha 90.000000
_cell_angle_beta 90.000000
_cell_angle_gamma 90.000000
_cell_volume 1531.736994
_symmetry_space_group_name_H-M "C 2 2 21"
_symmetry_group_IT_number 20
_symmetry_cell_setting 'orthorhombic'
loop_
_space_group_symop_operation_xyz
x,y,z
-x,-y,1/2+z
x,-y,-z
-x,y,1/2-z
1/2+x,1/2+y,z
1/2-x,1/2-y,1/2+z
1/2+x,1/2-y,-z
1/2-x,1/2+y,1/2-z
loop_
_atom_site_type_symbol
_atom_site_label
_atom_site_fract_x
_atom_site_fract_y
_atom_site_fract_z
Si Si1 0.620053 0.768070 0.483016
Si Si2 0.757217 0.914563 0.080299
Si Si3 0.131591 0.262933 0.840070
Si Si4 0.284426 0.087252 0.168005
Si Si5 0.500000 0.501826 0.250000
Si Si6 0.500000 0.938210 0.250000
O O1 0.678030 0.669699 0.514170
O O2 0.705472 0.783100 0.358551
O O3 0.450196 0.762970 0.533519
O O4 0.681129 0.847568 0.562874
O O5 0.606737 0.892468 0.154555
O O6 0.887200 0.947000 0.169381
O O7 0.724806 0.000000 0.000000
O O8 0.171403 0.357457 0.784698
O O9 0.000000 0.229723 0.750000
O O10 0.110003 0.061180 0.171249
O O11 0.388134 0.001475 0.174658
#
# Coordination Sequence:
#
# PCOD9318724 Si02
#       6
#     8   8   8   8   4   4
#     4  11  23  41  72  95 132 185 233 286 337 414
#     4  11  26  43  67  99 139 177 226 289 351 415
#     4  10  23  43  68  97 136 170 237 290 333 403
#     4  10  21  42  69  91 134 181 225 278 344 416
#     4  10  24  42  68  98 138 178 218 290 360 402
#     4  10  20  48  64  96 140 178 214 290 352 420
#
# _framework density 26.114144
#
# number of rings (size 3 to 8) (size 9 to 14) (size 15 to 20)
#    0.000    1.600    3.000    2.400    9.800    0.800 
#    3.600    4.000    0.000    0.000    0.000    0.000 
#    0.000    0.000    0.000    0.000    0.000    0.000 
#
# Total GULP energy -111820.332812 kJ/mol
# GULP energy per Si atom -5591.016641 kJ/mol
# Density = 2.605471 g / cm^3
# Si number density = 26.114144 Si / 1000 Ang^3
#
#
#
# Elastic Constant Matrix: (Units=GPa)
#
#
# Indices 1 2 3 4 5 6 
#
# 1 126.2565 -12.6319 18.3798 0.0000 0.0000 0.0000
# 2 -12.6319 67.3943 23.5067 0.0000 0.0000 0.0000
# 3 18.3798 23.5067 77.1561 0.0000 0.0000 0.0000
# 4 0.0000 0.0000 0.0000 45.9181 0.0000 0.0000
# 5 0.0000 0.0000 0.0000 0.0000 58.6476 0.0000
# 6 0.0000 0.0000 0.0000 0.0000 0.0000 -1.7325
#
#
#
# Elastic Compliance Matrix: (Units=1/GPa)
#
#
# Indices 1 2 3 4 5 6 
#
# 1 0.008594 0.002601 -0.002840 0.000000 0.000000 0.000000
# 2 0.002601 0.017390 -0.005918 0.000000 0.000000 0.000000
# 3 -0.002840 -0.005918 0.015440 0.000000 0.000000 0.000000
# 4 0.000000 0.000000 0.000000 0.021778 0.000000 0.000000
# 5 0.000000 0.000000 0.000000 0.000000 0.017051 0.000000
# 6 0.000000 0.000000 0.000000 0.000000 0.000000 -0.577204
#
#
# Mechanical properties :
#
#
# Convention : Reuss Voigt Hill
#
# Bulk Modulus (GPa) = 34.35063 36.59067 35.47065
# Shear Modulus (GPa) = -10.52776 36.67013 13.07118
#
# Velocity S-wave (km/s) = -2.01002 3.75136 2.23970
# Velocity P-wave (km/s) = 2.79207 5.72764 4.50564
#
# Compressibility (1/GPa) = 0.02911155
#
# Stress axis : x y z
#
# Youngs Moduli (GPa) = 116.35969 57.50547 64.76642
#
# Poissons Ratio (x) = -0.14959 0.18392
# Poissons Ratio (y) = -0.30269 0.38327
# Poissons Ratio (z) = 0.33043 0.34030
#
# Static dielectric constant tensor:
#      x y z
#    x 2.126910 0.000000 0.000000 
#    y 0.000000 1.999330 0.000000 
#    z 0.000000 0.000000 2.146080 
# 
# From -- ./inp_files/12733.got.cif
#   From: 2010.05.17/outbox.cif.g08.bks.cpg/sg20_7_cif.got.tgz:12733.got - 2010.06.03 22:52:26.
