data_PCOD9318234
_publ_section_title
;
Structure prediction by ZEFSAII (Michael W. Deem and Ramdas Pophale) SiO2 
 PCOD9318234
Probable space group: C 2 2 21
;
_chemical_formula_sum "Si O2"
_cell_formula_units_Z 44
_cell_length_a 7.527011
_cell_length_b 12.569946
_cell_length_c 17.899967
_cell_angle_alpha 90.000000
_cell_angle_beta 90.000000
_cell_angle_gamma 90.000000
_cell_volume 1693.589658
_symmetry_space_group_name_H-M "C 2 2 21"
_symmetry_group_IT_number 20
_symmetry_cell_setting 'orthorhombic'
loop_
_space_group_symop_operation_xyz
x,y,z
-x,-y,1/2+z
x,-y,-z
-x,y,1/2-z
1/2+x,1/2+y,z
1/2-x,1/2-y,1/2+z
1/2+x,1/2-y,-z
1/2-x,1/2+y,1/2-z
loop_
_atom_site_type_symbol
_atom_site_label
_atom_site_fract_x
_atom_site_fract_y
_atom_site_fract_z
Si Si1 0.895731 0.000000 0.500000
Si Si2 0.389767 0.730515 0.526227
Si Si3 0.490400 0.765735 0.143810
Si Si4 0.120156 0.727464 0.326119
Si Si5 0.196295 0.919994 0.600914
Si Si6 0.453220 0.007468 0.835655
O O1 0.803363 0.887259 0.485354
O O2 0.030403 0.981951 0.568700
O O3 0.465934 0.751819 0.443858
O O4 0.518104 0.727856 0.599855
O O5 0.276522 0.836150 0.541845
O O6 0.317685 0.774138 0.317252
O O7 0.376674 0.660901 0.164350
O O8 0.382674 0.874542 0.152408
O O9 0.150573 0.602271 0.348069
O O10 0.000000 0.736833 0.250000
O O11 0.359754 0.993687 0.621799
O O12 0.500000 0.002256 0.750000
#
# Coordination Sequence:
#
# PCOD9318234 Si02
#       6
#     4   8   8   8   8   8
#     4  10  20  38  66  96 124 158 208 258 320 380
#     4  10  21  39  66  98 128 163 211 268 318 375
#     4  11  22  40  67  93 123 168 216 262 319 381
#     4  10  23  44  65  93 134 170 210 267 322 379
#     4  10  21  38  62  92 125 161 206 261 315 377
#     4  10  23  41  60  89 127 168 213 262 322 379
#
# _framework density 25.980319000000001
#
# number of rings (size 3 to 8) (size 9 to 14) (size 15 to 20)
#    0.000    1.818    0.000    4.364    0.000    9.455 
#    0.000    7.273    0.000    4.364    0.000    0.000 
#    0.000    0.000    0.000    0.000    0.000    0.000 
#
# Total GULP energy -122840.801640 kJ/mol
# GULP energy per Si atom -5583.672802 kJ/mol
# Density = 2.592119 g / cm^3
# Si number density = 25.980319 Si / 1000 Ang^3
#
#
#
# Elastic Constant Matrix: (Units=GPa)
#
#
# Indices 1 2 3 4 5 6 
#
# 1 22.5763 -20.8785 -10.9886 0.0000 0.0000 0.0000
# 2 -20.8785 157.1316 3.1341 0.0000 0.0000 0.0000
# 3 -10.9886 3.1341 92.8208 0.0000 0.0000 0.0000
# 4 0.0000 0.0000 0.0000 82.1346 0.0000 0.0000
# 5 0.0000 0.0000 0.0000 0.0000 33.4745 0.0000
# 6 0.0000 0.0000 0.0000 0.0000 0.0000 -146.8113
#
#
#
# Elastic Compliance Matrix: (Units=1/GPa)
#
#
# Indices 1 2 3 4 5 6 
#
# 1 0.053771 0.007023 0.006129 0.000000 0.000000 0.000000
# 2 0.007023 0.007286 0.000585 0.000000 0.000000 0.000000
# 3 0.006129 0.000585 0.011479 0.000000 0.000000 0.000000
# 4 0.000000 0.000000 0.000000 0.012175 0.000000 0.000000
# 5 0.000000 0.000000 0.000000 0.000000 0.029873 0.000000
# 6 0.000000 0.000000 0.000000 0.000000 0.000000 -0.006811
#
#
# Mechanical properties :
#
#
# Convention : Reuss Voigt Hill
#
# Bulk Modulus (GPa) = 9.99908 23.89589 16.94748
# Shear Modulus (GPa) = 43.99982 13.84367 28.92174
#
# Velocity S-wave (km/s) = 4.11978 2.31086 3.34011
# Velocity P-wave (km/s) = 5.14657 4.04200 4.62736
#
# Compressibility (1/GPa) = 0.10000919
#
# Stress axis : x y z
#
# Youngs Moduli (GPa) = 18.59721 137.25867 87.11398
#
# Poissons Ratio (x) = -0.96390 -0.53389
# Poissons Ratio (y) = -0.13060 -0.05099
# Poissons Ratio (z) = -0.11398 -0.08035
#
# Static dielectric constant tensor:
#      x y z
#    x 1.176080 0.000000 0.000000 
#    y 0.000000 2.029500 0.000000 
#    z 0.000000 0.000000 2.218210 
# 
# From -- ./inp_files/24171.got.cif
#   From: 2010.05.17/outbox.cif.g08.bks.cpg/sg20_13_cif.got.tgz:24171.got - 2010.06.03 22:52:26.
