data_PCOD9318139
_publ_section_title
;
Structure prediction by ZEFSAII (Michael W. Deem and Ramdas Pophale) SiO2 
 PCOD9318139
Probable space group: C 2 2 21
;
_chemical_formula_sum "Si O2"
_cell_formula_units_Z 56
_cell_length_a 9.255877
_cell_length_b 12.590879
_cell_length_c 20.350758
_cell_angle_alpha 90.000000
_cell_angle_beta 90.000000
_cell_angle_gamma 90.000000
_cell_volume 2371.669754
_symmetry_space_group_name_H-M "C 2 2 21"
_symmetry_group_IT_number 20
_symmetry_cell_setting 'orthorhombic'
loop_
_space_group_symop_operation_xyz
x,y,z
-x,-y,1/2+z
x,-y,-z
-x,y,1/2-z
1/2+x,1/2+y,z
1/2-x,1/2-y,1/2+z
1/2+x,1/2-y,-z
1/2-x,1/2+y,1/2-z
loop_
_atom_site_type_symbol
_atom_site_label
_atom_site_fract_x
_atom_site_fract_y
_atom_site_fract_z
Si Si1 0.610331 0.696063 0.908966
Si Si2 0.844598 0.094739 0.716720
Si Si3 0.821914 0.722434 0.024230
Si Si4 0.868846 0.433812 0.438196
Si Si5 0.578373 0.511703 0.422239
Si Si6 0.828781 0.113581 0.365221
Si Si7 0.608967 0.166460 0.809045
O O1 0.656868 0.699159 0.831782
O O2 0.489575 0.761014 0.953180
O O3 0.514059 0.589097 0.899641
O O4 0.756204 0.694949 0.952608
O O5 0.736955 0.100035 0.777602
O O6 0.000000 0.081245 0.750000
O O7 0.797866 0.989457 0.676890
O O8 0.733234 0.832299 0.040855
O O9 0.768011 0.627480 0.070674
O O10 0.932802 0.500000 0.500000
O O11 0.747255 0.514003 0.409774
O O12 0.952880 0.388512 0.375359
O O13 0.562108 0.500000 0.500000
O O14 0.493355 0.609332 0.392235
O O15 0.817984 0.221963 0.326522
O O16 0.500000 0.181746 0.750000
#
# Coordination Sequence:
#
# PCOD9318139 Si02
#       7
#     8   8   8   8   8   8   8
#     4  10  21  36  63  94 133 166 210 280 325 398
#     4  11  23  44  65  94 130 179 224 272 330 398
#     4  10  20  38  61 100 126 165 222 271 337 394
#     4   9  20  39  63  89 130 171 217 276 329 396
#     4   9  15  32  63  96 116 155 221 272 311 373
#     4  10  20  38  69  92 124 175 221 273 318 401
#     4  11  24  43  64  98 137 171 224 280 339 412
#
# _framework density 23.612057
#
# number of rings (size 3 to 8) (size 9 to 14) (size 15 to 20)
#    0.000    2.000    1.429    3.857    0.000    2.286 
#    5.143    0.714    0.000    0.000    0.000    0.000 
#    0.000    0.000    0.000    0.000    0.000    0.000 
#
# Total GULP energy -155879.768510 kJ/mol
# GULP energy per Si atom -5567.134590 kJ/mol
# Density = 2.355832 g / cm^3
# Si number density = 23.612057 Si / 1000 Ang^3
#
#
#
# Elastic Constant Matrix: (Units=GPa)
#
#
# Indices 1 2 3 4 5 6 
#
# 1 33.1507 1.6631 24.9564 0.0000 0.0000 0.0000
# 2 1.6631 48.8705 29.1434 0.0000 0.0000 0.0000
# 3 24.9564 29.1434 118.4306 0.0000 0.0000 0.0000
# 4 0.0000 0.0000 0.0000 44.3189 0.0000 0.0000
# 5 0.0000 0.0000 0.0000 0.0000 -14.7784 0.0000
# 6 0.0000 0.0000 0.0000 0.0000 0.0000 4.2968
#
#
#
# Elastic Compliance Matrix: (Units=1/GPa)
#
#
# Indices 1 2 3 4 5 6 
#
# 1 0.036482 0.003918 -0.008652 0.000000 0.000000 0.000000
# 2 0.003918 0.024402 -0.006830 0.000000 0.000000 0.000000
# 3 -0.008652 -0.006830 0.011948 0.000000 0.000000 0.000000
# 4 0.000000 0.000000 0.000000 0.022564 0.000000 0.000000
# 5 0.000000 0.000000 0.000000 0.000000 -0.067666 0.000000
# 6 0.000000 0.000000 0.000000 0.000000 0.000000 0.232734
#
#
# Mechanical properties :
#
#
# Convention : Reuss Voigt Hill
#
# Bulk Modulus (GPa) = 20.11946 34.66417 27.39181
# Shear Modulus (GPa) = 16.65780 16.41338 16.53559
#
# Velocity S-wave (km/s) = 2.65897 2.63939 2.64919
# Velocity P-wave (km/s) = 4.23865 4.89909 4.58079
#
# Compressibility (1/GPa) = 0.04970311
#
# Stress axis : x y z
#
# Youngs Moduli (GPa) = 27.41084 40.97989 83.69760
#
# Poissons Ratio (x) = -0.16056 0.72414
# Poissons Ratio (y) = -0.10739 0.57170
# Poissons Ratio (z) = 0.23715 0.27991
#
# Static dielectric constant tensor:
#      x y z
#    x 2.143690 0.000000 0.000000 
#    y 0.000000 2.003330 0.000000 
#    z 0.000000 0.000000 1.903280 
# 
# From -- ./inp_files/26730.got.cif
#   From: 2010.05.17/outbox.cif.g08.bks.cpg/sg20_14_cif.got.tgz:26730.got - 2010.06.03 22:52:26.
