data_PCOD9318611
_publ_section_title
;
Structure prediction by ZEFSAII (Michael W. Deem and Ramdas Pophale) SiO2 
 PCOD9318611
Probable space group: C 2 2 21
;
_chemical_formula_sum "Si O2"
_cell_formula_units_Z 60
_cell_length_a 17.345162
_cell_length_b 14.618581
_cell_length_c 11.213123
_cell_angle_alpha 90.000000
_cell_angle_beta 90.000000
_cell_angle_gamma 90.000000
_cell_volume 2843.218033
_symmetry_space_group_name_H-M "C 2 2 21"
_symmetry_group_IT_number 20
_symmetry_cell_setting 'orthorhombic'
loop_
_space_group_symop_operation_xyz
x,y,z
-x,-y,1/2+z
x,-y,-z
-x,y,1/2-z
1/2+x,1/2+y,z
1/2-x,1/2-y,1/2+z
1/2+x,1/2-y,-z
1/2-x,1/2+y,1/2-z
loop_
_atom_site_type_symbol
_atom_site_label
_atom_site_fract_x
_atom_site_fract_y
_atom_site_fract_z
Si Si1 0.866969 0.129214 0.882125
Si Si2 0.204464 0.448787 0.111457
Si Si3 0.506512 0.500000 0.500000
Si Si4 0.822429 0.785499 0.363244
Si Si5 0.341639 0.181047 0.990699
Si Si6 0.419959 0.165852 0.745989
Si Si7 0.228495 0.609733 0.290503
Si Si8 0.897360 0.842867 0.601624
O O1 0.785122 0.092990 0.931589
O O2 0.852267 0.146764 0.741308
O O3 0.872873 0.227722 0.944654
O O4 0.936269 0.061814 0.917569
O O5 0.147761 0.375279 0.166238
O O6 0.225431 0.518658 0.215494
O O7 0.167361 0.500000 0.000000
O O8 0.452049 0.429864 0.574337
O O9 0.741123 0.808077 0.425524
O O10 0.803714 0.690845 0.294684
O O11 0.880975 0.793744 0.473763
O O12 0.396428 0.163431 0.882306
O O13 0.326517 0.108208 0.094319
O O14 0.500000 0.112923 0.750000
O O15 0.430414 0.266779 0.690374
O O16 0.315037 0.628964 0.338609
#
# Coordination Sequence:
#
# PCOD9318611 Si02
#       8
#     8   8   4   8   8   8   8   8
#     4  11  23  42  65 101 141 184 237 283 348 437
#     4  12  24  43  71 103 130 182 247 294 339 426
#     4  12  28  42  62 108 156 190 220 306 372 438
#     4  10  20  43  70  95 132 183 241 280 339 427
#     4  10  20  42  68  97 130 187 236 284 350 418
#     4  12  25  45  70  96 139 183 231 296 362 417
#     4  10  22  40  75  99 132 181 240 297 334 425
#     4  11  25  44  67 105 143 186 227 287 370 425
#
# _framework density 21.102848000000002
#
# number of rings (size 3 to 8) (size 9 to 14) (size 15 to 20)
#    0.000    1.067    3.333    4.000    1.867    2.133 
#    4.800    0.000    2.933    0.000    0.000    0.000 
#    0.000    0.000    0.000    0.000    0.000    0.000 
#
# Total GULP energy -167534.039304 kJ/mol
# GULP energy per Si atom -5584.467977 kJ/mol
# Density = 2.105482 g / cm^3
# Si number density = 21.102848 Si / 1000 Ang^3
#
#
#
# Elastic Constant Matrix: (Units=GPa)
#
#
# Indices 1 2 3 4 5 6 
#
# 1 97.8790 40.7670 40.1327 0.0000 0.0000 0.0000
# 2 40.7670 66.6412 24.9999 0.0000 0.0000 0.0000
# 3 40.1327 24.9999 111.1624 0.0000 0.0000 0.0000
# 4 0.0000 0.0000 0.0000 24.8917 0.0000 0.0000
# 5 0.0000 0.0000 0.0000 0.0000 11.5824 0.0000
# 6 0.0000 0.0000 0.0000 0.0000 0.0000 -108.3825
#
#
#
# Elastic Compliance Matrix: (Units=1/GPa)
#
#
# Indices 1 2 3 4 5 6 
#
# 1 0.014952 -0.007778 -0.003649 0.000000 0.000000 0.000000
# 2 -0.007778 0.020435 -0.001788 0.000000 0.000000 0.000000
# 3 -0.003649 -0.001788 0.010715 0.000000 0.000000 0.000000
# 4 0.000000 0.000000 0.000000 0.040174 0.000000 0.000000
# 5 0.000000 0.000000 0.000000 0.000000 0.086338 0.000000
# 6 0.000000 0.000000 0.000000 0.000000 0.000000 -0.009227
#
#
# Mechanical properties :
#
#
# Convention : Reuss Voigt Hill
#
# Bulk Modulus (GPa) = 50.83120 54.16466 52.49793
# Shear Modulus (GPa) = 25.46159 -3.06280 11.19939
#
# Velocity S-wave (km/s) = 3.47731 -1.20603 2.30620
# Velocity P-wave (km/s) = 6.34522 4.87682 5.65885
#
# Compressibility (1/GPa) = 0.01967296
#
# Stress axis : x y z
#
# Youngs Moduli (GPa) = 66.87849 48.93683 93.32511
#
# Poissons Ratio (x) = 0.38064 0.34054
# Poissons Ratio (y) = 0.52019 0.16682
# Poissons Ratio (z) = 0.24404 0.08747
#
# Static dielectric constant tensor:
#      x y z
#    x 1.780360 0.000000 0.000000 
#    y 0.000000 1.777930 0.000000 
#    z 0.000000 0.000000 3.154840 
# 
# From -- ./inp_files/15877.got.cif
#   From: 2010.05.17/outbox.cif.g08.bks.cpg/sg20_8_cif.got.tgz:15877.got - 2010.06.03 22:52:26.
