data_PCOD9318777
_publ_section_title
;
Structure prediction by ZEFSAII (Michael W. Deem and Ramdas Pophale) SiO2 
 PCOD9318777
Probable space group: C 2 2 21
;
_chemical_formula_sum "Si O2"
_cell_formula_units_Z 40
_cell_length_a 23.741564
_cell_length_b 7.609983
_cell_length_c 9.376948
_cell_angle_alpha 90.000000
_cell_angle_beta 90.000000
_cell_angle_gamma 90.000000
_cell_volume 1694.160374
_symmetry_space_group_name_H-M "C 2 2 21"
_symmetry_group_IT_number 20
_symmetry_cell_setting 'orthorhombic'
loop_
_space_group_symop_operation_xyz
x,y,z
-x,-y,1/2+z
x,-y,-z
-x,y,1/2-z
1/2+x,1/2+y,z
1/2-x,1/2-y,1/2+z
1/2+x,1/2-y,-z
1/2-x,1/2+y,1/2-z
loop_
_atom_site_type_symbol
_atom_site_label
_atom_site_fract_x
_atom_site_fract_y
_atom_site_fract_z
Si Si1 0.352016 0.186383 0.929678
Si Si2 0.439946 0.171295 0.682760
Si Si3 0.840086 0.147974 0.780965
Si Si4 0.052759 0.749419 0.145144
Si Si5 0.752492 0.618206 0.361869
O O1 0.389257 0.221590 0.789947
O O2 0.285184 0.212343 0.903708
O O3 0.361501 0.321168 0.058913
O O4 0.366531 0.000000 0.000000
O O5 0.500000 0.211204 0.750000
O O6 0.447066 0.252498 0.525856
O O7 0.435119 0.958190 0.673881
O O8 0.895013 0.129982 0.688237
O O9 0.805946 0.320076 0.726337
O O10 0.793919 0.996261 0.779358
O O11 0.000000 0.791450 0.250000
O O12 0.768377 0.500000 0.500000
#
# Coordination Sequence:
#
# PCOD9318777 Si02
#       5
#     8   8   8   8   8
#     4  11  21  39  64  92 131 170 219 273 339 399
#     4  10  21  35  62  97 130 165 223 277 337 404
#     4  11  22  40  64  91 133 170 220 277 332 406
#     4  10  21  37  64  95 129 169 220 281 336 401
#     4  10  25  41  64 100 133 180 228 278 340 404
#
# _framework density 23.610513999999998
#
# number of rings (size 3 to 8) (size 9 to 14) (size 15 to 20)
#    0.000    1.600    2.000    2.400    5.600    1.600 
#    0.000    6.000    0.000    0.000    0.000    0.000 
#    0.000    0.000    0.000    0.000    0.000    0.000 
#
# Total GULP energy -111726.794333 kJ/mol
# GULP energy per Si atom -5586.339717 kJ/mol
# Density = 2.355677 g / cm^3
# Si number density = 23.610514 Si / 1000 Ang^3
#
#
#
# Elastic Constant Matrix: (Units=GPa)
#
#
# Indices 1 2 3 4 5 6 
#
# 1 91.7241 37.1406 84.8341 0.0000 0.0000 0.0000
# 2 37.1406 72.7944 38.3151 0.0000 0.0000 0.0000
# 3 84.8341 38.3151 179.3770 0.0000 0.0000 0.0000
# 4 0.0000 0.0000 0.0000 15.0666 0.0000 0.0000
# 5 0.0000 0.0000 0.0000 0.0000 45.7135 0.0000
# 6 0.0000 0.0000 0.0000 0.0000 0.0000 -36.9421
#
#
#
# Elastic Compliance Matrix: (Units=1/GPa)
#
#
# Indices 1 2 3 4 5 6 
#
# 1 0.021737 -0.006399 -0.008914 0.000000 0.000000 0.000000
# 2 -0.006399 0.017361 -0.000682 0.000000 0.000000 0.000000
# 3 -0.008914 -0.000682 0.009936 0.000000 0.000000 0.000000
# 4 0.000000 0.000000 0.000000 0.066372 0.000000 0.000000
# 5 0.000000 0.000000 0.000000 0.000000 0.021875 0.000000
# 6 0.000000 0.000000 0.000000 0.000000 0.000000 -0.027069
#
#
# Mechanical properties :
#
#
# Convention : Reuss Voigt Hill
#
# Bulk Modulus (GPa) = 58.66700 73.83058 66.24879
# Shear Modulus (GPa) = 33.81037 17.00797 25.40917
#
# Velocity S-wave (km/s) = 3.78829 2.68686 3.28408
# Velocity P-wave (km/s) = 6.63601 6.40029 6.51921
#
# Compressibility (1/GPa) = 0.01704536
#
# Stress axis : x y z
#
# Youngs Moduli (GPa) = 46.00374 57.59982 100.64317
#
# Poissons Ratio (x) = 0.36858 0.89709
# Poissons Ratio (y) = 0.29438 0.06864
# Poissons Ratio (z) = 0.41006 0.03928
#
# Static dielectric constant tensor:
#      x y z
#    x 1.850070 0.000000 0.000000 
#    y 0.000000 1.968470 0.000000 
#    z 0.000000 0.000000 1.972500 
# 
# From -- ./inp_files/10506.got.cif
#   From: 2010.05.17/outbox.cif.g08.bks.cpg/sg20_6_cif.got.tgz:10506.got - 2010.06.03 22:52:26.
