data_PCOD9318933
_publ_section_title
;
Structure prediction by ZEFSAII (Michael W. Deem and Ramdas Pophale) SiO2 
 PCOD9318933
Probable space group: C 2 2 21
;
_chemical_formula_sum "Si O2"
_cell_formula_units_Z 32
_cell_length_a 7.934595
_cell_length_b 36.980935
_cell_length_c 5.081628
_cell_angle_alpha 90.000000
_cell_angle_beta 90.000000
_cell_angle_gamma 90.000000
_cell_volume 1491.095711
_symmetry_space_group_name_H-M "C 2 2 21"
_symmetry_group_IT_number 20
_symmetry_cell_setting 'orthorhombic'
loop_
_space_group_symop_operation_xyz
x,y,z
-x,-y,1/2+z
x,-y,-z
-x,y,1/2-z
1/2+x,1/2+y,z
1/2-x,1/2-y,1/2+z
1/2+x,1/2-y,-z
1/2-x,1/2+y,1/2-z
loop_
_atom_site_type_symbol
_atom_site_label
_atom_site_fract_x
_atom_site_fract_y
_atom_site_fract_z
Si Si1 0.296281 0.850183 0.222371
Si Si2 0.814175 0.230634 0.631882
Si Si3 0.622214 0.460308 0.502281
Si Si4 0.201876 0.390551 0.782103
O O1 0.500000 0.850752 0.250000
O O2 0.240838 0.811037 0.127421
O O3 0.236401 0.859858 0.514812
O O4 0.236819 0.880149 0.009811
O O5 0.799090 0.248202 0.345614
O O6 0.000000 0.233554 0.750000
O O7 0.708012 0.500000 0.500000
O O8 0.500000 0.462282 0.750000
O O9 0.744506 0.427548 0.576789
O O10 0.500000 0.454924 0.250000
O O11 0.000000 0.390320 0.750000
#
# Coordination Sequence:
#
# PCOD9318933 Si02
#       4
#     8   8   8   8
#     4  10  21  38  60  87 120 155 196 248 301 353
#     4  12  25  42  64  91 122 160 203 248 301 358
#     4  10  21  38  59  85 119 158 198 244 297 352
#     4  10  21  38  60  87 118 155 198 246 298 351
#
# _framework density 21.460726999999999
#
# number of rings (size 3 to 8) (size 9 to 14) (size 15 to 20)
#    0.000    1.500    0.000    5.250    0.000    5.000 
#    0.000    7.500    0.000    0.000    0.000    0.000 
#    0.000    0.000    0.000    0.000    0.000    0.000 
#
# Total GULP energy -89337.370598 kJ/mol
# GULP energy per Si atom -5583.585662 kJ/mol
# Density = 2.141188 g / cm^3
# Si number density = 21.460727 Si / 1000 Ang^3
#
#
#
# Elastic Constant Matrix: (Units=GPa)
#
#
# Indices 1 2 3 4 5 6 
#
# 1 23.9824 11.3345 28.0839 0.0000 0.0000 0.0000
# 2 11.3345 124.8984 37.4703 0.0000 0.0000 0.0000
# 3 28.0839 37.4703 121.2400 0.0000 0.0000 0.0000
# 4 0.0000 0.0000 0.0000 36.9287 0.0000 0.0000
# 5 0.0000 0.0000 0.0000 0.0000 20.1501 0.0000
# 6 0.0000 0.0000 0.0000 0.0000 0.0000 64.1699
#
#
#
# Elastic Compliance Matrix: (Units=1/GPa)
#
#
# Indices 1 2 3 4 5 6 
#
# 1 0.057422 -0.001345 -0.012885 0.000000 0.000000 0.000000
# 2 -0.001345 0.008856 -0.002425 0.000000 0.000000 0.000000
# 3 -0.012885 -0.002425 0.011982 0.000000 0.000000 0.000000
# 4 0.000000 0.000000 0.000000 0.027079 0.000000 0.000000
# 5 0.000000 0.000000 0.000000 0.000000 0.049628 0.000000
# 6 0.000000 0.000000 0.000000 0.000000 0.000000 0.015584
#
#
# Mechanical properties :
#
#
# Convention : Reuss Voigt Hill
#
# Bulk Modulus (GPa) = 22.24769 47.09980 34.67375
# Shear Modulus (GPa) = 22.84704 37.13189 29.98946
#
# Velocity S-wave (km/s) = 3.26636 4.16411 3.74225
# Velocity P-wave (km/s) = 4.96132 6.71672 5.90462
#
# Compressibility (1/GPa) = 0.04494848
#
# Stress axis : x y z
#
# Youngs Moduli (GPa) = 17.41485 112.91461 83.45518
#
# Poissons Ratio (x) = 0.15191 1.07536
# Poissons Ratio (y) = 0.02343 0.20242
# Poissons Ratio (z) = 0.22440 0.27387
#
# Static dielectric constant tensor:
#      x y z
#    x 1.773600 0.000000 0.000000 
#    y 0.000000 1.840560 0.000000 
#    z 0.000000 0.000000 1.741120 
# 
# From -- ./inp_files/572.got.cif
#   From: 2010.05.17/outbox.cif.g08.bks.cpg/sg20_1_cif.got.tgz:572.got - 2010.06.03 22:52:26.
