data_PCOD9318808
_publ_section_title
;
Structure prediction by ZEFSAII (Michael W. Deem and Ramdas Pophale) SiO2 
 PCOD9318808
Probable space group: C 2 2 21
;
_chemical_formula_sum "Si O2"
_cell_formula_units_Z 52
_cell_length_a 20.975090
_cell_length_b 15.133852
_cell_length_c 7.774190
_cell_angle_alpha 90.000000
_cell_angle_beta 90.000000
_cell_angle_gamma 90.000000
_cell_volume 2467.791511
_symmetry_space_group_name_H-M "C 2 2 21"
_symmetry_group_IT_number 20
_symmetry_cell_setting 'orthorhombic'
loop_
_space_group_symop_operation_xyz
x,y,z
-x,-y,1/2+z
x,-y,-z
-x,y,1/2-z
1/2+x,1/2+y,z
1/2-x,1/2-y,1/2+z
1/2+x,1/2-y,-z
1/2-x,1/2+y,1/2-z
loop_
_atom_site_type_symbol
_atom_site_label
_atom_site_fract_x
_atom_site_fract_y
_atom_site_fract_z
Si Si1 0.119170 0.172314 0.113804
Si Si2 0.314321 0.044728 0.782973
Si Si3 0.694748 0.500000 0.000000
Si Si4 0.153972 0.362445 0.628505
Si Si5 0.093002 0.000000 0.500000
Si Si6 0.296218 0.172788 0.482592
Si Si7 0.500000 0.398611 0.750000
Si Si8 0.650448 0.684309 0.517476
O O1 0.150752 0.253391 0.015436
O O2 0.042872 0.159236 0.119781
O O3 0.136691 0.185917 0.314296
O O4 0.151764 0.084440 0.038887
O O5 0.314884 0.088812 0.598267
O O6 0.363399 0.962799 0.809884
O O7 0.326673 0.117633 0.931668
O O8 0.243516 0.013059 0.839874
O O9 0.117596 0.268554 0.610412
O O10 0.204908 0.344839 0.779866
O O11 0.048596 0.039856 0.352379
O O12 0.131965 0.084583 0.570284
O O13 0.225770 0.198460 0.542335
#
# Coordination Sequence:
#
# PCOD9318808 Si02
#       8
#     8   8   4   8   4   8   4   8
#     4  11  24  39  62  85 132 175 224 270 313 391
#     4  10  21  37  54  90 135 169 197 263 326 407
#     4  10  21  36  58  88 122 177 210 262 328 386
#     4  10  22  35  54  84 132 167 207 246 328 400
#     4  10  25  40  68  86 134 175 222 272 314 386
#     4  12  22  34  61  93 126 172 210 269 333 396
#     4  10  24  46  58  90 124 188 226 258 308 376
#     4  11  22  37  55  94 127 168 208 270 335 379
#
# _framework density 21.071472
#
# number of rings (size 3 to 8) (size 9 to 14) (size 15 to 20)
#    0.000    1.538    1.538    5.538    8.615    1.231 
#    0.000    0.000    0.000    0.000    0.000    9.692 
#    0.000    0.000    0.000    0.000    0.000    0.000 
#
# Total GULP energy -144849.781339 kJ/mol
# GULP energy per Si atom -5571.145436 kJ/mol
# Density = 2.102351 g / cm^3
# Si number density = 21.071472 Si / 1000 Ang^3
#
#
#
# Elastic Constant Matrix: (Units=GPa)
#
#
# Indices 1 2 3 4 5 6 
#
# 1 44.4121 42.9452 11.0460 0.0000 0.0000 0.0000
# 2 42.9452 176.6268 46.6421 0.0000 0.0000 0.0000
# 3 11.0460 46.6421 75.0164 0.0000 0.0000 0.0000
# 4 0.0000 0.0000 0.0000 43.1877 0.0000 0.0000
# 5 0.0000 0.0000 0.0000 0.0000 19.9055 0.0000
# 6 0.0000 0.0000 0.0000 0.0000 0.0000 15.3053
#
#
#
# Elastic Compliance Matrix: (Units=1/GPa)
#
#
# Indices 1 2 3 4 5 6 
#
# 1 0.029439 -0.007194 0.000138 0.000000 0.000000 0.000000
# 2 -0.007194 0.008532 -0.004245 0.000000 0.000000 0.000000
# 3 0.000138 -0.004245 0.015950 0.000000 0.000000 0.000000
# 4 0.000000 0.000000 0.000000 0.023155 0.000000 0.000000
# 5 0.000000 0.000000 0.000000 0.000000 0.050237 0.000000
# 6 0.000000 0.000000 0.000000 0.000000 0.000000 0.065337
#
#
# Mechanical properties :
#
#
# Convention : Reuss Voigt Hill
#
# Bulk Modulus (GPa) = 31.93108 55.25798 43.59453
# Shear Modulus (GPa) = 22.15416 28.70784 25.43100
#
# Velocity S-wave (km/s) = 3.24602 3.69508 3.47780
# Velocity P-wave (km/s) = 5.40698 6.66977 6.07130
#
# Compressibility (1/GPa) = 0.03131745
#
# Stress axis : x y z
#
# Youngs Moduli (GPa) = 33.96899 117.20613 62.69703
#
# Poissons Ratio (x) = 0.84321 -0.00867
# Poissons Ratio (y) = 0.24438 0.26618
# Poissons Ratio (z) = -0.00470 0.49760
#
# Static dielectric constant tensor:
#      x y z
#    x 1.764830 0.000000 0.000000 
#    y 0.000000 1.897590 0.000000 
#    z 0.000000 0.000000 1.787390 
# 
# From -- ./inp_files/10163.got.cif
#   From: 2010.05.17/outbox.cif.g08.bks.cpg/sg20_6_cif.got.tgz:10163.got - 2010.06.03 22:52:26.
