data_PCOD9318693
_publ_section_title
;
Structure prediction by ZEFSAII (Michael W. Deem and Ramdas Pophale) SiO2 
 PCOD9318693
Probable space group: C 2 2 21
;
_chemical_formula_sum "Si O2"
_cell_formula_units_Z 36
_cell_length_a 10.750093
_cell_length_b 15.193720
_cell_length_c 10.059652
_cell_angle_alpha 90.000000
_cell_angle_beta 90.000000
_cell_angle_gamma 90.000000
_cell_volume 1643.082224
_symmetry_space_group_name_H-M "C 2 2 21"
_symmetry_group_IT_number 20
_symmetry_cell_setting 'orthorhombic'
loop_
_space_group_symop_operation_xyz
x,y,z
-x,-y,1/2+z
x,-y,-z
-x,y,1/2-z
1/2+x,1/2+y,z
1/2-x,1/2-y,1/2+z
1/2+x,1/2-y,-z
1/2-x,1/2+y,1/2-z
loop_
_atom_site_type_symbol
_atom_site_label
_atom_site_fract_x
_atom_site_fract_y
_atom_site_fract_z
Si Si1 0.171434 0.000000 0.000000
Si Si2 0.569642 0.832954 0.627772
Si Si3 0.178068 0.775219 0.739339
Si Si4 0.000703 0.828257 0.966438
Si Si5 0.382266 0.915770 0.151413
O O1 0.078762 0.916629 0.988723
O O2 0.267878 0.016449 0.876668
O O3 0.500000 0.875887 0.750000
O O4 0.703748 0.813020 0.686938
O O5 0.513306 0.737172 0.589564
O O6 0.566295 0.890987 0.495488
O O7 0.131452 0.833338 0.612661
O O8 0.187315 0.674895 0.692937
O O9 0.077667 0.775216 0.856471
O O10 0.500000 0.931048 0.250000
#
# Coordination Sequence:
#
# PCOD9318693 Si02
#       5
#     4   8   8   8   8
#     4  12  24  44  68 112 150 182 240 322 382 410
#     4  11  22  39  74 104 132 193 248 287 352 449
#     4  10  20  44  71  95 137 187 245 285 347 454
#     4  10  22  42  68 102 143 181 237 304 363 421
#     4  11  23  43  71  98 149 190 238 302 359 433
#
# _framework density 21.910042000000001
#
# number of rings (size 3 to 8) (size 9 to 14) (size 15 to 20)
#    0.000    1.333    6.667    1.333    3.111    0.889 
#   12.000    0.000    0.000    0.000    0.000    0.000 
#    0.000    0.000    0.000    0.000    0.000    0.000 
#
# Total GULP energy -100332.277159 kJ/mol
# GULP energy per Si atom -5574.015398 kJ/mol
# Density = 2.186017 g / cm^3
# Si number density = 21.910042 Si / 1000 Ang^3
#
#
#
# Elastic Constant Matrix: (Units=GPa)
#
#
# Indices 1 2 3 4 5 6 
#
# 1 87.1755 54.5045 38.6880 0.0000 0.0000 0.0000
# 2 54.5045 143.5171 45.7927 0.0000 0.0000 0.0000
# 3 38.6880 45.7927 127.1632 0.0000 0.0000 0.0000
# 4 0.0000 0.0000 0.0000 17.1742 0.0000 0.0000
# 5 0.0000 0.0000 0.0000 0.0000 40.9597 0.0000
# 6 0.0000 0.0000 0.0000 0.0000 0.0000 34.9897
#
#
#
# Elastic Compliance Matrix: (Units=1/GPa)
#
#
# Indices 1 2 3 4 5 6 
#
# 1 0.016014 -0.005115 -0.003030 0.000000 0.000000 0.000000
# 2 -0.005115 0.009506 -0.001867 0.000000 0.000000 0.000000
# 3 -0.003030 -0.001867 0.009458 0.000000 0.000000 0.000000
# 4 0.000000 0.000000 0.000000 0.058227 0.000000 0.000000
# 5 0.000000 0.000000 0.000000 0.000000 0.024414 0.000000
# 6 0.000000 0.000000 0.000000 0.000000 0.000000 0.028580
#
#
# Mechanical properties :
#
#
# Convention : Reuss Voigt Hill
#
# Bulk Modulus (GPa) = 66.87216 70.64735 68.75975
# Shear Modulus (GPa) = 29.20427 33.21608 31.21017
#
# Velocity S-wave (km/s) = 3.65487 3.89783 3.77831
# Velocity P-wave (km/s) = 6.95689 7.25064 7.10528
#
# Compressibility (1/GPa) = 0.01495391
#
# Stress axis : x y z
#
# Youngs Moduli (GPa) = 62.44615 105.19616 105.72895
#
# Poissons Ratio (x) = 0.53806 0.32037
# Poissons Ratio (y) = 0.31940 0.19741
# Poissons Ratio (z) = 0.18922 0.19641
#
# Static dielectric constant tensor:
#      x y z
#    x 2.475700 0.000000 0.000000 
#    y 0.000000 1.856360 0.000000 
#    z 0.000000 0.000000 1.806300 
# 
# From -- ./inp_files/13662.got.cif
#   From: 2010.05.17/outbox.cif.g08.bks.cpg/sg20_7_cif.got.tgz:13662.got - 2010.06.03 22:52:26.
