data_PCOD9318114
_publ_section_title
;
Structure prediction by ZEFSAII (Michael W. Deem and Ramdas Pophale) SiO2 
 PCOD9318114
Probable space group: C 2 2 21
;
_chemical_formula_sum "Si O2"
_cell_formula_units_Z 52
_cell_length_a 8.266216
_cell_length_b 11.783686
_cell_length_c 29.371011
_cell_angle_alpha 90.000000
_cell_angle_beta 90.000000
_cell_angle_gamma 90.000000
_cell_volume 2860.927199
_symmetry_space_group_name_H-M "C 2 2 21"
_symmetry_group_IT_number 20
_symmetry_cell_setting 'orthorhombic'
loop_
_space_group_symop_operation_xyz
x,y,z
-x,-y,1/2+z
x,-y,-z
-x,y,1/2-z
1/2+x,1/2+y,z
1/2-x,1/2-y,1/2+z
1/2+x,1/2-y,-z
1/2-x,1/2+y,1/2-z
loop_
_atom_site_type_symbol
_atom_site_label
_atom_site_fract_x
_atom_site_fract_y
_atom_site_fract_z
Si Si1 0.922021 0.292594 0.872088
Si Si2 0.182195 0.521533 0.102491
Si Si3 0.415200 0.388727 0.974766
Si Si4 0.899468 0.921727 0.179687
Si Si5 0.823160 0.703199 0.552090
Si Si6 0.000000 0.093430 0.250000
Si Si7 0.171243 0.296508 0.726042
O O1 0.987762 0.170457 0.853112
O O2 0.795579 0.262314 0.911344
O O3 0.837655 0.340138 0.826222
O O4 0.054847 0.379412 0.889204
O O5 0.325453 0.568166 0.070466
O O6 0.261258 0.479006 0.149399
O O7 0.111453 0.410904 0.076662
O O8 0.543075 0.292153 0.963250
O O9 0.486924 0.500000 0.000000
O O10 0.281267 0.338290 0.009084
O O11 0.825140 0.839668 0.218583
O O12 0.002645 0.015078 0.205154
O O13 0.832294 0.162208 0.249408
O O14 0.000000 0.324695 0.750000
#
# Coordination Sequence:
#
# PCOD9318114 Si02
#       7
#     8   8   8   8   8   4   8
#     4   9  20  40  56  85 123 142 203 255 283 370
#     4  10  20  38  59  81 118 155 191 250 302 350
#     4  10  22  37  60  83 120 158 192 247 301 354
#     4   9  21  38  56  86 118 149 199 253 295 363
#     4  10  21  38  56  89 116 152 204 240 299 364
#     4  12  22  40  68  80 124 168 192 254 320 356
#     4  10  22  43  58  91 122 155 206 254 302 374
#
# _framework density 18.175927000000001
#
# number of rings (size 3 to 8) (size 9 to 14) (size 15 to 20)
#    0.923    1.231    0.769    1.846    2.154    1.231 
#    6.923    0.000    0.000    0.000    0.000    0.000 
#    0.000    0.000    0.000    0.000    0.000    0.000 
#
# Total GULP energy -144780.260347 kJ/mol
# GULP energy per Si atom -5568.471552 kJ/mol
# Density = 1.813456 g / cm^3
# Si number density = 18.175927 Si / 1000 Ang^3
#
#
#
# Elastic Constant Matrix: (Units=GPa)
#
#
# Indices 1 2 3 4 5 6 
#
# 1 64.3892 44.4249 17.3589 0.0000 0.0000 0.0000
# 2 44.4249 88.1462 16.7523 0.0000 0.0000 0.0000
# 3 17.3589 16.7523 32.8442 0.0000 0.0000 0.0000
# 4 0.0000 0.0000 0.0000 14.9448 0.0000 0.0000
# 5 0.0000 0.0000 0.0000 0.0000 16.8728 0.0000
# 6 0.0000 0.0000 0.0000 0.0000 0.0000 41.3088
#
#
#
# Elastic Compliance Matrix: (Units=1/GPa)
#
#
# Indices 1 2 3 4 5 6 
#
# 1 0.025433 -0.011365 -0.007645 0.000000 0.000000 0.000000
# 2 -0.011365 0.017641 -0.002991 0.000000 0.000000 0.000000
# 3 -0.007645 -0.002991 0.036013 0.000000 0.000000 0.000000
# 4 0.000000 0.000000 0.000000 0.066913 0.000000 0.000000
# 5 0.000000 0.000000 0.000000 0.000000 0.059267 0.000000
# 6 0.000000 0.000000 0.000000 0.000000 0.000000 0.024208
#
#
# Mechanical properties :
#
#
# Convention : Reuss Voigt Hill
#
# Bulk Modulus (GPa) = 28.50268 38.05020 33.27644
# Shear Modulus (GPa) = 17.53327 21.74819 19.64073
#
# Velocity S-wave (km/s) = 3.10924 3.46285 3.29080
# Velocity P-wave (km/s) = 5.34840 6.08016 5.72598
#
# Compressibility (1/GPa) = 0.03508442
#
# Stress axis : x y z
#
# Youngs Moduli (GPa) = 39.31933 56.68569 27.76765
#
# Poissons Ratio (x) = 0.64423 0.21229
# Poissons Ratio (y) = 0.44686 0.08306
# Poissons Ratio (z) = 0.30060 0.16956
#
# Static dielectric constant tensor:
#      x y z
#    x 1.585100 0.000000 0.000000 
#    y 0.000000 1.641250 0.000000 
#    z 0.000000 0.000000 1.642770 
# 
# From -- ./inp_files/31014.got.cif
#   From: 2010.05.17/outbox.cif.g08.bks.cpg/sg20_16_cif.got.tgz:31014.got - 2010.06.03 22:52:26.
