data_PCOD9318151
_publ_section_title
;
Structure prediction by ZEFSAII (Michael W. Deem and Ramdas Pophale) SiO2 
 PCOD9318151
Probable space group: C 2 2 21
;
_chemical_formula_sum "Si O2"
_cell_formula_units_Z 40
_cell_length_a 17.784062
_cell_length_b 11.781446
_cell_length_c 7.905012
_cell_angle_alpha 90.000000
_cell_angle_beta 90.000000
_cell_angle_gamma 90.000000
_cell_volume 1656.273656
_symmetry_space_group_name_H-M "C 2 2 21"
_symmetry_group_IT_number 20
_symmetry_cell_setting 'orthorhombic'
loop_
_space_group_symop_operation_xyz
x,y,z
-x,-y,1/2+z
x,-y,-z
-x,y,1/2-z
1/2+x,1/2+y,z
1/2-x,1/2-y,1/2+z
1/2+x,1/2-y,-z
1/2-x,1/2+y,1/2-z
loop_
_atom_site_type_symbol
_atom_site_label
_atom_site_fract_x
_atom_site_fract_y
_atom_site_fract_z
Si Si1 0.340478 0.373707 0.831913
Si Si2 0.197134 0.000000 0.000000
Si Si3 0.830585 0.378306 0.166962
Si Si4 0.494466 0.375904 0.050162
Si Si5 0.509602 0.874857 0.448346
Si Si6 0.791338 0.500000 0.500000
O O1 0.342051 0.456571 0.671162
O O2 0.332598 0.247863 0.762271
O O3 0.267179 0.402468 0.942366
O O4 0.414411 0.378379 0.949975
O O5 0.254252 0.096574 0.932535
O O6 0.899534 0.380361 0.033264
O O7 0.833920 0.461520 0.329442
O O8 0.500000 0.379708 0.250000
O O9 0.526749 0.500000 0.000000
O O10 0.522490 0.245570 0.014057
O O11 0.500000 0.866787 0.250000
O O12 0.481503 0.000000 0.500000
#
# Coordination Sequence:
#
# PCOD9318151 Si02
#       6
#     8   4   8   8   8   4
#     4  10  21  40  65  97 132 176 224 282 349 408
#     4  10  20  40  65  97 134 178 218 292 338 424
#     4  10  21  38  62  95 134 175 227 281 341 410
#     4  11  24  48  69  98 136 179 233 290 350 422
#     4  11  24  44  66  98 139 184 237 288 350 413
#     4  10  20  38  61  97 128 174 216 280 344 414
#
# _framework density 24.150597000000001
#
# number of rings (size 3 to 8) (size 9 to 14) (size 15 to 20)
#    0.000    1.600    2.000    2.400    1.400    0.000 
#    9.000    0.000    0.000    0.000    0.000    0.000 
#    0.000    0.000    0.000    0.000    0.000    0.000 
#
# Total GULP energy -111531.469184 kJ/mol
# GULP energy per Si atom -5576.573459 kJ/mol
# Density = 2.409563 g / cm^3
# Si number density = 24.150597 Si / 1000 Ang^3
#
#
#
# Elastic Constant Matrix: (Units=GPa)
#
#
# Indices 1 2 3 4 5 6 
#
# 1 78.9001 13.4326 22.3922 0.0000 0.0000 0.0000
# 2 13.4326 170.7336 38.9264 0.0000 0.0000 0.0000
# 3 22.3922 38.9264 155.7164 0.0000 0.0000 0.0000
# 4 0.0000 0.0000 0.0000 45.3174 0.0000 0.0000
# 5 0.0000 0.0000 0.0000 0.0000 133.9146 0.0000
# 6 0.0000 0.0000 0.0000 0.0000 0.0000 -436.4519
#
#
#
# Elastic Compliance Matrix: (Units=1/GPa)
#
#
# Indices 1 2 3 4 5 6 
#
# 1 0.013280 -0.000646 -0.001748 0.000000 0.000000 0.000000
# 2 -0.000646 0.006243 -0.001468 0.000000 0.000000 0.000000
# 3 -0.001748 -0.001468 0.007040 0.000000 0.000000 0.000000
# 4 0.000000 0.000000 0.000000 0.022067 0.000000 0.000000
# 5 0.000000 0.000000 0.000000 0.000000 0.007467 0.000000
# 6 0.000000 0.000000 0.000000 0.000000 0.000000 -0.002291
#
#
# Mechanical properties :
#
#
# Convention : Reuss Voigt Hill
#
# Bulk Modulus (GPa) = 53.08123 61.65028 57.36576
# Shear Modulus (GPa) = 73.73571 -29.40407 22.16582
#
# Velocity S-wave (km/s) = 5.53154 -3.49310 3.03284
# Velocity P-wave (km/s) = 7.92617 3.05187 6.00575
#
# Compressibility (1/GPa) = 0.01883905
#
# Stress axis : x y z
#
# Youngs Moduli (GPa) = 75.29884 160.19158 142.04150
#
# Poissons Ratio (x) = 0.10353 0.24831
# Poissons Ratio (y) = 0.04866 0.20846
# Poissons Ratio (z) = 0.13164 0.23510
#
# Static dielectric constant tensor:
#      x y z
#    x 2.105530 0.000000 0.000000 
#    y 0.000000 1.170550 0.000000 
#    z 0.000000 0.000000 1.866430 
# 
# From -- ./inp_files/10006.got.cif
#   From: 2010.05.17/outbox.cif.g08.bks.cpg/sg20_6_cif.got.tgz:10006.got - 2010.06.03 22:52:26.
