data_PCOD9318138
_publ_section_title
;
Structure prediction by ZEFSAII (Michael W. Deem and Ramdas Pophale) SiO2 
 PCOD9318138
Probable space group: C 2 2 21
;
_chemical_formula_sum "Si O2"
_cell_formula_units_Z 60
_cell_length_a 12.210189
_cell_length_b 7.908000
_cell_length_c 27.801123
_cell_angle_alpha 90.000000
_cell_angle_beta 90.000000
_cell_angle_gamma 90.000000
_cell_volume 2684.425689
_symmetry_space_group_name_H-M "C 2 2 21"
_symmetry_group_IT_number 20
_symmetry_cell_setting 'orthorhombic'
loop_
_space_group_symop_operation_xyz
x,y,z
-x,-y,1/2+z
x,-y,-z
-x,y,1/2-z
1/2+x,1/2+y,z
1/2-x,1/2-y,1/2+z
1/2+x,1/2-y,-z
1/2-x,1/2+y,1/2-z
loop_
_atom_site_type_symbol
_atom_site_label
_atom_site_fract_x
_atom_site_fract_y
_atom_site_fract_z
Si Si1 0.928786 0.957800 0.651258
Si Si2 0.730726 0.761335 0.610843
Si Si3 0.783910 0.752241 0.311858
Si Si4 0.462539 0.943155 0.944506
Si Si5 0.500000 0.413604 0.750000
Si Si6 0.204280 0.570098 0.053424
Si Si7 0.212845 0.101311 0.709667
Si Si8 0.610718 0.263163 0.606211
O O1 0.888610 0.141565 0.669705
O O2 0.831046 0.889604 0.618065
O O3 0.943956 0.844158 0.700576
O O4 0.038825 0.925774 0.621075
O O5 0.774393 0.587165 0.588657
O O6 0.693332 0.726189 0.665541
O O7 0.635819 0.833326 0.576882
O O8 0.750090 0.813826 0.258993
O O9 0.792535 0.550131 0.307324
O O10 0.684341 0.786324 0.348173
O O11 0.582043 0.858483 0.939965
O O12 0.464403 0.112620 0.912144
O O13 0.446864 0.000000 0.000000
O O14 0.597219 0.518611 0.724941
O O15 0.301022 0.698330 0.065044
O O16 0.211455 0.500000 0.000000
#
# Coordination Sequence:
#
# PCOD9318138 Si02
#       8
#     8   8   8   8   4   8   8   8
#     4  11  23  40  70  97 139 188 230 283 352 418
#     4  12  23  44  69 102 142 183 240 289 350 431
#     4  11  23  42  69 101 143 187 229 285 349 417
#     4  11  26  47  72 102 139 183 238 297 357 428
#     4  10  20  38  60  98 140 180 224 290 326 414
#     4  11  25  46  70 100 139 180 234 296 355 420
#     4  11  23  41  67  99 144 186 238 288 347 422
#     4  12  23  46  70 101 141 186 226 294 356 410
#
# _framework density 22.351150000000001
#
# number of rings (size 3 to 8) (size 9 to 14) (size 15 to 20)
#    0.000    0.800    5.333    2.400    0.000    3.200 
#    0.000    0.667    0.000    0.000    0.000    0.000 
#    0.000    0.000    0.000    0.000    0.000    0.000 
#
# Total GULP energy -167577.241652 kJ/mol
# GULP energy per Si atom -5585.908055 kJ/mol
# Density = 2.230028 g / cm^3
# Si number density = 22.351150 Si / 1000 Ang^3
#
#
#
# Elastic Constant Matrix: (Units=GPa)
#
#
# Indices 1 2 3 4 5 6 
#
# 1 99.5333 5.8426 13.5301 0.0000 0.0000 0.0000
# 2 5.8426 38.8061 -4.5599 0.0000 0.0000 0.0000
# 3 13.5301 -4.5599 97.9184 0.0000 0.0000 0.0000
# 4 0.0000 0.0000 0.0000 35.1423 0.0000 0.0000
# 5 0.0000 0.0000 0.0000 0.000020552.0399 0.0000
# 6 0.0000 0.0000 0.0000 0.0000 0.0000 18.5254
#
#
#
# Elastic Compliance Matrix: (Units=1/GPa)
#
#
# Indices 1 2 3 4 5 6 
#
# 1 0.010354 -0.001737 -0.001512 0.000000 0.000000 0.000000
# 2 -0.001737 0.026202 0.001460 0.000000 0.000000 0.000000
# 3 -0.001512 0.001460 0.010489 0.000000 0.000000 0.000000
# 4 0.000000 0.000000 0.000000 0.028456 0.000000 0.000000
# 5 0.000000 0.000000 0.000000 0.000000 0.000049 0.000000
# 6 0.000000 0.000000 0.000000 0.000000 0.000000 0.053980
#
#
# Mechanical properties :
#
#
# Convention : Reuss Voigt Hill
#
# Bulk Modulus (GPa) = 23.00444 29.54262 26.27353
# Shear Modulus (GPa) = 33.87622 4135.90453 2084.89038
#
# Velocity S-wave (km/s) = 3.89734 43.06319 30.57473
# Velocity P-wave (km/s) = 5.52874 49.85811 35.47110
#
# Compressibility (1/GPa) = 0.04346987
#
# Stress axis : x y z
#
# Youngs Moduli (GPa) = 96.57822 38.16481 95.33393
#
# Poissons Ratio (x) = 0.06628 0.14411
# Poissons Ratio (y) = 0.16771 -0.13920
# Poissons Ratio (z) = 0.14599 -0.05573
#
# Static dielectric constant tensor:
#      x y z
#    x 1.850500 0.000000 0.000000 
#    y 0.000000 -2.951140 0.000000 
#    z 0.000000 0.000000 1.833120 
# 
# From -- ./inp_files/30328.got.cif
#   From: 2010.05.17/outbox.cif.g08.bks.cpg/sg20_16_cif.got.tgz:30328.got - 2010.06.03 22:52:26.
