data_PCOD9318331
_publ_section_title
;
Structure prediction by ZEFSAII (Michael W. Deem and Ramdas Pophale) SiO2 
 PCOD9318331
Probable space group: C 2 2 21
;
_chemical_formula_sum "Si O2"
_cell_formula_units_Z 48
_cell_length_a 9.106465
_cell_length_b 18.578223
_cell_length_c 15.071202
_cell_angle_alpha 90.000000
_cell_angle_beta 90.000000
_cell_angle_gamma 90.000000
_cell_volume 2549.775155
_symmetry_space_group_name_H-M "C 2 2 21"
_symmetry_group_IT_number 20
_symmetry_cell_setting 'orthorhombic'
loop_
_space_group_symop_operation_xyz
x,y,z
-x,-y,1/2+z
x,-y,-z
-x,y,1/2-z
1/2+x,1/2+y,z
1/2-x,1/2-y,1/2+z
1/2+x,1/2-y,-z
1/2-x,1/2+y,1/2-z
loop_
_atom_site_type_symbol
_atom_site_label
_atom_site_fract_x
_atom_site_fract_y
_atom_site_fract_z
Si Si1 0.019215 0.082519 0.492494
Si Si2 0.675615 0.033107 0.753011
Si Si3 0.643077 0.818875 0.688692
Si Si4 0.877119 0.155310 0.826946
Si Si5 0.195309 0.452342 0.573538
Si Si6 0.858011 0.903847 0.807277
O O1 0.057641 0.121820 0.583208
O O2 0.091718 0.117150 0.405199
O O3 0.846056 0.075519 0.470942
O O4 0.071878 0.000000 0.500000
O O5 0.500000 0.034383 0.750000
O O6 0.745346 0.106394 0.788891
O O7 0.726850 0.006934 0.655047
O O8 0.741459 0.968787 0.812678
O O9 0.500000 0.820138 0.750000
O O10 0.664718 0.738104 0.655182
O O11 0.623574 0.881435 0.615485
O O12 0.780252 0.842596 0.749453
O O13 0.000000 0.153933 0.750000
O O14 0.112937 0.500000 0.500000
O O15 0.000000 0.928758 0.750000
#
# Coordination Sequence:
#
# PCOD9318331 Si02
#       6
#     8   8   8   8   8   8
#     4  11  20  36  69  96 113 161 222 261 302 381
#     4  11  22  40  62  92 132 164 209 267 325 373
#     4  10  23  43  60  89 133 172 204 261 332 369
#     4  11  23  43  64  90 131 173 215 260 317 388
#     4  10  20  39  65  91 119 163 216 261 312 373
#     4  11  19  39  66  89 125 169 216 257 309 381
#
# _framework density 18.825188000000001
#
# number of rings (size 3 to 8) (size 9 to 14) (size 15 to 20)
#    0.000    1.333    5.000    4.500    0.000    0.667 
#   15.000    0.000    0.000    0.000    0.000    0.000 
#    0.000    0.000    0.000    0.000    0.000    0.000 
#
# Total GULP energy -133883.756423 kJ/mol
# GULP energy per Si atom -5578.489851 kJ/mol
# Density = 1.878234 g / cm^3
# Si number density = 18.825188 Si / 1000 Ang^3
#
#
#
# Elastic Constant Matrix: (Units=GPa)
#
#
# Indices 1 2 3 4 5 6 
#
# 1 96.6338 37.5597 24.0639 0.0000 0.0000 0.0000
# 2 37.5597 149.6222 64.3669 0.0000 0.0000 0.0000
# 3 24.0639 64.3669 113.4881 0.0000 0.0000 0.0000
# 4 0.0000 0.0000 0.0000 26.8771 0.0000 0.0000
# 5 0.0000 0.0000 0.0000 0.0000 18.7719 0.0000
# 6 0.0000 0.0000 0.0000 0.0000 0.0000 20.6129
#
#
#
# Elastic Compliance Matrix: (Units=1/GPa)
#
#
# Indices 1 2 3 4 5 6 
#
# 1 0.011564 -0.002444 -0.001066 0.000000 0.000000 0.000000
# 2 -0.002444 0.009357 -0.004789 0.000000 0.000000 0.000000
# 3 -0.001066 -0.004789 0.011754 0.000000 0.000000 0.000000
# 4 0.000000 0.000000 0.000000 0.037206 0.000000 0.000000
# 5 0.000000 0.000000 0.000000 0.000000 0.053271 0.000000
# 6 0.000000 0.000000 0.000000 0.000000 0.000000 0.048513
#
#
# Mechanical properties :
#
#
# Convention : Reuss Voigt Hill
#
# Bulk Modulus (GPa) = 62.20111 67.96948 65.08529
# Shear Modulus (GPa) = 25.82351 28.83596 27.32973
#
# Velocity S-wave (km/s) = 3.70774 3.91804 3.81434
# Velocity P-wave (km/s) = 7.17237 7.52675 7.35170
#
# Compressibility (1/GPa) = 0.01607688
#
# Stress axis : x y z
#
# Youngs Moduli (GPa) = 86.47669 106.86880 85.08097
#
# Poissons Ratio (x) = 0.26124 0.09066
# Poissons Ratio (y) = 0.21139 0.40744
# Poissons Ratio (z) = 0.09215 0.51178
#
# Static dielectric constant tensor:
#      x y z
#    x 1.671920 0.000000 0.000000 
#    y 0.000000 1.660080 0.000000 
#    z 0.000000 0.000000 1.680450 
# 
# From -- ./inp_files/18844.got.cif
#   From: 2010.05.17/outbox.cif.g08.bks.cpg/sg20_10_cif.got.tgz:18844.got - 2010.06.03 22:52:26.
