data_PCOD9318734
_publ_section_title
;
Structure prediction by ZEFSAII (Michael W. Deem and Ramdas Pophale) SiO2 
 PCOD9318734
Probable space group: C 2 2 21
;
_chemical_formula_sum "Si O2"
_cell_formula_units_Z 28
_cell_length_a 14.213737
_cell_length_b 10.933730
_cell_length_c 7.326127
_cell_angle_alpha 90.000000
_cell_angle_beta 90.000000
_cell_angle_gamma 90.000000
_cell_volume 1138.547263
_symmetry_space_group_name_H-M "C 2 2 21"
_symmetry_group_IT_number 20
_symmetry_cell_setting 'orthorhombic'
loop_
_space_group_symop_operation_xyz
x,y,z
-x,-y,1/2+z
x,-y,-z
-x,y,1/2-z
1/2+x,1/2+y,z
1/2-x,1/2-y,1/2+z
1/2+x,1/2-y,-z
1/2-x,1/2+y,1/2-z
loop_
_atom_site_type_symbol
_atom_site_label
_atom_site_fract_x
_atom_site_fract_y
_atom_site_fract_z
Si Si1 0.352032 0.184005 0.099132
Si Si2 0.452420 0.769119 0.519226
Si Si3 0.665216 0.644768 0.268370
Si Si4 0.500000 0.454715 0.250000
O O1 0.453754 0.147935 0.011523
O O2 0.388110 0.206305 0.305846
O O3 0.257001 0.111827 0.148288
O O4 0.317925 0.295883 0.968020
O O5 0.390667 0.751744 0.341614
O O6 0.491172 0.634571 0.575357
O O7 0.594595 0.531859 0.268607
#
# Coordination Sequence:
#
# PCOD9318734 Si02
#       4
#     8   8   8   4
#     4  10  21  32  52  79 114 150 183 228 290 341
#     4  10  22  38  53  84 115 145 192 236 290 334
#     4  12  19  34  53  81 115 145 186 235 287 341
#     4  10  22  34  60  84 112 144 184 248 286 322
#
# _framework density 24.592742999999999
#
# number of rings (size 3 to 8) (size 9 to 14) (size 15 to 20)
#    0.000    1.714    5.714    0.857    4.000    0.000 
#    0.000    0.000    0.000    0.000    0.000   48.000 
#    0.000    0.000    0.000    0.000    0.000    0.000 
#
# Total GULP energy -77959.835058 kJ/mol
# GULP energy per Si atom -5568.559647 kJ/mol
# Density = 2.453677 g / cm^3
# Si number density = 24.592743 Si / 1000 Ang^3
#
#
#
# Elastic Constant Matrix: (Units=GPa)
#
#
# Indices 1 2 3 4 5 6 
#
# 1 190.2677 39.5029 33.0947 0.0000 0.0000 0.0000
# 2 39.5029 41.6981 9.6885 0.0000 0.0000 0.0000
# 3 33.0947 9.6885 108.0856 0.0000 0.0000 0.0000
# 4 0.0000 0.0000 0.0000 10.5255 0.0000 0.0000
# 5 0.0000 0.0000 0.0000 0.0000 41.3151 0.0000
# 6 0.0000 0.0000 0.0000 0.0000 0.0000 16.1595
#
#
#
# Elastic Compliance Matrix: (Units=1/GPa)
#
#
# Indices 1 2 3 4 5 6 
#
# 1 0.006782 -0.006069 -0.001533 0.000000 0.000000 0.000000
# 2 -0.006069 0.029923 -0.000824 0.000000 0.000000 0.000000
# 3 -0.001533 -0.000824 0.009795 0.000000 0.000000 0.000000
# 4 0.000000 0.000000 0.000000 0.095007 0.000000 0.000000
# 5 0.000000 0.000000 0.000000 0.000000 0.024204 0.000000
# 6 0.000000 0.000000 0.000000 0.000000 0.000000 0.061883
#
#
# Mechanical properties :
#
#
# Convention : Reuss Voigt Hill
#
# Bulk Modulus (GPa) = 33.72800 56.06929 44.89864
# Shear Modulus (GPa) = 19.65952 30.78436 25.22194
#
# Velocity S-wave (km/s) = 2.83044 3.54187 3.20595
# Velocity P-wave (km/s) = 4.94229 6.29087 5.65691
#
# Compressibility (1/GPa) = 0.02964896
#
# Stress axis : x y z
#
# Youngs Moduli (GPa) = 147.43982 33.41901 102.09218
#
# Poissons Ratio (x) = 0.20283 0.15647
# Poissons Ratio (y) = 0.89485 0.08411
# Poissons Ratio (z) = 0.22598 0.02753
#
# Static dielectric constant tensor:
#      x y z
#    x 2.015390 0.000000 0.000000 
#    y 0.000000 2.019020 0.000000 
#    z 0.000000 0.000000 1.996410 
# 
# From -- ./inp_files/6935.got.cif
#   From: 2010.05.17/outbox.cif.g08.bks.cpg/sg20_4_cif.got.tgz:6935.got - 2010.06.03 22:52:26.
