data_PCOD9318773
_publ_section_title
;
Structure prediction by ZEFSAII (Michael W. Deem and Ramdas Pophale) SiO2 
 PCOD9318773
Probable space group: C 2 2 21
;
_chemical_formula_sum "Si O2"
_cell_formula_units_Z 60
_cell_length_a 19.245466
_cell_length_b 5.941164
_cell_length_c 22.881871
_cell_angle_alpha 90.000000
_cell_angle_beta 90.000000
_cell_angle_gamma 90.000000
_cell_volume 2616.323879
_symmetry_space_group_name_H-M "C 2 2 21"
_symmetry_group_IT_number 20
_symmetry_cell_setting 'orthorhombic'
loop_
_space_group_symop_operation_xyz
x,y,z
-x,-y,1/2+z
x,-y,-z
-x,y,1/2-z
1/2+x,1/2+y,z
1/2-x,1/2-y,1/2+z
1/2+x,1/2-y,-z
1/2-x,1/2+y,1/2-z
loop_
_atom_site_type_symbol
_atom_site_label
_atom_site_fract_x
_atom_site_fract_y
_atom_site_fract_z
Si Si1 0.427531 0.949906 0.754722
Si Si2 0.097164 0.887897 0.161234
Si Si3 0.516888 0.500000 0.500000
Si Si4 0.835352 0.795335 0.860319
Si Si5 0.193779 0.786516 0.770959
Si Si6 0.922432 0.617463 0.442731
Si Si7 0.173022 0.295640 0.647561
Si Si8 0.483953 0.729947 0.112298
O O1 0.500000 0.086837 0.750000
O O2 0.444541 0.762185 0.706422
O O3 0.396675 0.829559 0.812927
O O4 0.362503 0.085638 0.726995
O O5 0.123611 0.734817 0.107009
O O6 0.155784 0.004563 0.199008
O O7 0.044858 0.071276 0.134919
O O8 0.468767 0.311876 0.471040
O O9 0.552094 0.372418 0.553412
O O10 0.795733 0.805748 0.798325
O O11 0.818892 0.541117 0.885026
O O12 0.917949 0.766775 0.845510
O O13 0.827253 0.051897 0.884787
O O14 0.264095 0.771551 0.806762
O O15 0.889028 0.500000 0.500000
O O16 0.976296 0.453025 0.409070
#
# Coordination Sequence:
#
# PCOD9318773 Si02
#       8
#     8   8   4   8   8   8   8   8
#     4  11  24  37  60  88 129 171 225 275 319 382
#     4  11  22  34  59  89 130 164 218 269 335 390
#     4   8  18  36  60  82 132 154 206 258 362 392
#     4  11  23  38  63  85 125 169 222 261 316 384
#     4  11  25  38  58  86 131 182 219 263 321 402
#     4   9  19  37  58  90 129 165 210 278 342 408
#     4  11  25  43  60  86 134 182 225 260 322 395
#     4  10  21  35  59  96 122 162 206 278 336 398
#
# _framework density 22.932942000000001
#
# number of rings (size 3 to 8) (size 9 to 14) (size 15 to 20)
#    0.000    1.600    1.333    3.200   13.067    0.000 
#    0.000    0.000    0.000    0.000    1.733    1.867 
#    0.000    0.000    0.000    0.000    0.000    0.000 
#
# Total GULP energy -167060.149787 kJ/mol
# GULP energy per Si atom -5568.671660 kJ/mol
# Density = 2.288075 g / cm^3
# Si number density = 22.932942 Si / 1000 Ang^3
#
#
#
# Elastic Constant Matrix: (Units=GPa)
#
#
# Indices 1 2 3 4 5 6 
#
# 1 54.5292 7.9588 -16.3810 0.0000 0.0000 0.0000
# 2 7.9588 163.6853 19.4744 0.0000 0.0000 0.0000
# 3 -16.3810 19.4744 31.5138 0.0000 0.0000 0.0000
# 4 0.0000 0.0000 0.0000 29.6120 0.0000 0.0000
# 5 0.0000 0.0000 0.0000 0.0000 9.2370 0.0000
# 6 0.0000 0.0000 0.0000 0.0000 0.0000 23.7529
#
#
#
# Elastic Compliance Matrix: (Units=1/GPa)
#
#
# Indices 1 2 3 4 5 6 
#
# 1 0.022801 -0.002719 0.013532 0.000000 0.000000 0.000000
# 2 -0.002719 0.006918 -0.005688 0.000000 0.000000 0.000000
# 3 0.013532 -0.005688 0.042281 0.000000 0.000000 0.000000
# 4 0.000000 0.000000 0.000000 0.033770 0.000000 0.000000
# 5 0.000000 0.000000 0.000000 0.000000 0.108260 0.000000
# 6 0.000000 0.000000 0.000000 0.000000 0.000000 0.042100
#
#
# Mechanical properties :
#
#
# Convention : Reuss Voigt Hill
#
# Bulk Modulus (GPa) = 12.15804 30.20364 21.18084
# Shear Modulus (GPa) = 18.29512 28.43214 23.36363
#
# Velocity S-wave (km/s) = 2.82754 3.52489 3.19530
# Velocity P-wave (km/s) = 3.99663 5.45578 4.78218
#
# Compressibility (1/GPa) = 0.08225009
#
# Stress axis : x y z
#
# Youngs Moduli (GPa) = 43.85836 144.54550 23.65113
#
# Poissons Ratio (x) = 0.39296 -0.32004
# Poissons Ratio (y) = 0.11923 0.13454
# Poissons Ratio (z) = -0.59349 0.82223
#
# Static dielectric constant tensor:
#      x y z
#    x 1.869370 0.000000 0.000000 
#    y 0.000000 2.013920 0.000000 
#    z 0.000000 0.000000 0.919570 
# 
# From -- ./inp_files/30520.got.cif
#   From: 2010.05.17/outbox.cif.g08.bks.cpg/sg20_16_cif.got.tgz:30520.got - 2010.06.03 22:52:26.
