data_PCOD9318163
_publ_section_title
;
Structure prediction by ZEFSAII (Michael W. Deem and Ramdas Pophale) SiO2 
 PCOD9318163
Probable space group: C 2 2 21
;
_chemical_formula_sum "Si O2"
_cell_formula_units_Z 64
_cell_length_a 9.193315
_cell_length_b 22.851397
_cell_length_c 14.709343
_cell_angle_alpha 90.000000
_cell_angle_beta 90.000000
_cell_angle_gamma 90.000000
_cell_volume 3090.140113
_symmetry_space_group_name_H-M "C 2 2 21"
_symmetry_group_IT_number 20
_symmetry_cell_setting 'orthorhombic'
loop_
_space_group_symop_operation_xyz
x,y,z
-x,-y,1/2+z
x,-y,-z
-x,y,1/2-z
1/2+x,1/2+y,z
1/2-x,1/2-y,1/2+z
1/2+x,1/2-y,-z
1/2-x,1/2+y,1/2-z
loop_
_atom_site_type_symbol
_atom_site_label
_atom_site_fract_x
_atom_site_fract_y
_atom_site_fract_z
Si Si1 0.666341 0.803891 0.223726
Si Si2 0.348257 0.673688 0.214278
Si Si3 0.153469 0.973188 0.235753
Si Si4 0.251345 0.903259 0.412541
Si Si5 0.993150 0.865483 0.956666
Si Si6 0.310649 0.633933 0.613618
Si Si7 0.939984 0.569051 0.996244
Si Si8 0.268402 0.086625 0.161024
O O1 0.500000 0.821061 0.250000
O O2 0.670513 0.733704 0.229676
O O3 0.719107 0.839217 0.134752
O O4 0.766739 0.822928 0.307095
O O5 0.500000 0.648238 0.250000
O O6 0.390290 0.674917 0.107730
O O7 0.231489 0.628187 0.251045
O O8 0.216572 0.945165 0.327196
O O9 0.117397 0.921013 0.165524
O O10 0.000000 0.004873 0.250000
O O11 0.260619 0.020090 0.193516
O O12 0.122140 0.903835 0.486312
O O13 0.397991 0.922739 0.461645
O O14 0.122848 0.899140 0.901315
O O15 0.087766 0.836860 0.037816
O O16 0.167814 0.605182 0.569169
O O17 0.905252 0.594393 0.095649
O O18 0.902783 0.500000 0.000000
#
# Coordination Sequence:
#
# PCOD9318163 Si02
#       8
#     8   8   8   8   8   8   8   8
#     4  10  20  40  66  87 126 165 208 248 325 374
#     4   9  20  42  62  89 121 168 204 257 314 378
#     4  11  20  36  64  92 124 166 208 255 322 367
#     4  11  24  39  63  96 123 163 214 261 305 383
#     4  10  21  41  62  92 125 150 221 261 303 363
#     4  10  20  38  62  92 120 164 204 262 303 376
#     4  11  22  39  59  93 125 162 205 250 313 379
#     4  10  22  41  64  85 128 167 204 251 328 374
#
# _framework density 20.711034999999999
#
# number of rings (size 3 to 8) (size 9 to 14) (size 15 to 20)
#    0.000    1.750    3.750    1.125    0.000    2.000 
#   11.250    1.875    2.750    0.000    0.000    0.000 
#    0.000    0.000    0.000    0.000    0.000    0.000 
#
# Total GULP energy -178209.008824 kJ/mol
# GULP energy per Si atom -5569.031526 kJ/mol
# Density = 2.066390 g / cm^3
# Si number density = 20.711035 Si / 1000 Ang^3
#
#
#
# Elastic Constant Matrix: (Units=GPa)
#
#
# Indices 1 2 3 4 5 6 
#
# 1 70.2024 3.1903 29.5791 0.0000 0.0000 0.0000
# 2 3.1903 41.7477 13.3365 0.0000 0.0000 0.0000
# 3 29.5791 13.3365 73.5782 0.0000 0.0000 0.0000
# 4 0.0000 0.0000 0.0000 12.8449 0.0000 0.0000
# 5 0.0000 0.0000 0.0000 0.0000 31.7320 0.0000
# 6 0.0000 0.0000 0.0000 0.0000 0.0000 11.5499
#
#
#
# Elastic Compliance Matrix: (Units=1/GPa)
#
#
# Indices 1 2 3 4 5 6 
#
# 1 0.017185 0.000949 -0.007080 0.000000 0.000000 0.000000
# 2 0.000949 0.025478 -0.004999 0.000000 0.000000 0.000000
# 3 -0.007080 -0.004999 0.017344 0.000000 0.000000 0.000000
# 4 0.000000 0.000000 0.000000 0.077852 0.000000 0.000000
# 5 0.000000 0.000000 0.000000 0.000000 0.031514 0.000000
# 6 0.000000 0.000000 0.000000 0.000000 0.000000 0.086581
#
#
# Mechanical properties :
#
#
# Convention : Reuss Voigt Hill
#
# Bulk Modulus (GPa) = 26.49429 30.86000 28.67714
# Shear Modulus (GPa) = 17.19416 20.52019 18.85718
#
# Velocity S-wave (km/s) = 2.88443 3.15109 3.02071
# Velocity P-wave (km/s) = 4.89013 5.30771 5.10319
#
# Compressibility (1/GPa) = 0.03774398
#
# Stress axis : x y z
#
# Youngs Moduli (GPa) = 58.19152 39.24948 57.65847
#
# Poissons Ratio (x) = -0.03723 0.40824
# Poissons Ratio (y) = -0.05520 0.28826
# Poissons Ratio (z) = 0.41201 0.19622
#
# Static dielectric constant tensor:
#      x y z
#    x 1.790390 0.000000 0.000000 
#    y 0.000000 1.743340 0.000000 
#    z 0.000000 0.000000 1.822660 
# 
# From -- ./inp_files/19377.got.cif
#   From: 2010.05.17/outbox.cif.g08.bks.cpg/sg20_10_cif.got.tgz:19377.got - 2010.06.03 22:52:26.
