data_PCOD9318546
_publ_section_title
;
Structure prediction by ZEFSAII (Michael W. Deem and Ramdas Pophale) SiO2 
 PCOD9318546
Probable space group: C 2 2 21
;
_chemical_formula_sum "Si O2"
_cell_formula_units_Z 60
_cell_length_a 22.736283
_cell_length_b 12.524861
_cell_length_c 10.624599
_cell_angle_alpha 90.000000
_cell_angle_beta 90.000000
_cell_angle_gamma 90.000000
_cell_volume 3025.554140
_symmetry_space_group_name_H-M "C 2 2 21"
_symmetry_group_IT_number 20
_symmetry_cell_setting 'orthorhombic'
loop_
_space_group_symop_operation_xyz
x,y,z
-x,-y,1/2+z
x,-y,-z
-x,y,1/2-z
1/2+x,1/2+y,z
1/2-x,1/2-y,1/2+z
1/2+x,1/2-y,-z
1/2-x,1/2+y,1/2-z
loop_
_atom_site_type_symbol
_atom_site_label
_atom_site_fract_x
_atom_site_fract_y
_atom_site_fract_z
Si Si1 0.701601 0.165441 0.978883
Si Si2 0.442762 0.918949 0.683846
Si Si3 0.120888 0.084039 0.328931
Si Si4 0.500000 0.677912 0.250000
Si Si5 0.427500 0.848186 0.411046
Si Si6 0.677171 0.132249 0.270594
Si Si7 0.794516 0.095488 0.407288
Si Si8 0.329483 0.641049 0.909206
O O1 0.693884 0.130297 0.122854
O O2 0.643325 0.145457 0.896010
O O3 0.709638 0.292983 0.980480
O O4 0.760122 0.115024 0.920789
O O5 0.500000 0.877209 0.750000
O O6 0.432264 0.846220 0.561803
O O7 0.386720 0.920357 0.774642
O O8 0.452447 0.039370 0.636586
O O9 0.051884 0.108751 0.313384
O O10 0.157721 0.109822 0.203199
O O11 0.146366 0.151082 0.447667
O O12 0.135283 0.959639 0.354722
O O13 0.463334 0.754312 0.345059
O O14 0.730361 0.078474 0.345694
O O15 0.668270 0.252077 0.325836
O O16 0.810448 0.000000 0.500000
#
# Coordination Sequence:
#
# PCOD9318546 Si02
#       8
#     8   8   8   4   8   8   8   8
#     4  10  20  41  68  92 130 164 207 270 334 388
#     4  10  22  40  61  94 124 164 214 262 333 391
#     4  11  24  43  65  93 130 176 219 268 319 396
#     4  12  24  46  64  94 136 178 230 262 324 396
#     4  10  22  40  66  91 126 176 208 263 327 393
#     4  10  22  41  63  97 126 164 208 275 336 389
#     4  11  22  40  62  98 125 163 213 270 325 387
#     4  10  23  42  67  95 126 164 217 269 329 385
#
# _framework density 19.831078000000002
#
# number of rings (size 3 to 8) (size 9 to 14) (size 15 to 20)
#    0.000    1.600    3.333    0.800    3.733    1.067 
#   10.800    0.000    0.000    0.000    0.000    0.000 
#    0.000    0.000    0.000    0.000    0.000    0.000 
#
# Total GULP energy -167422.690610 kJ/mol
# GULP energy per Si atom -5580.756354 kJ/mol
# Density = 1.978594 g / cm^3
# Si number density = 19.831078 Si / 1000 Ang^3
#
#
#
# Elastic Constant Matrix: (Units=GPa)
#
#
# Indices 1 2 3 4 5 6 
#
# 1 152.4582 15.1408 37.0499 0.0000 0.0000 0.0000
# 2 15.1408 58.3087 13.2268 0.0000 0.0000 0.0000
# 3 37.0499 13.2268 43.0290 0.0000 0.0000 0.0000
# 4 0.0000 0.0000 0.0000 20.0078 0.0000 0.0000
# 5 0.0000 0.0000 0.0000 0.0000 30.5924 0.0000
# 6 0.0000 0.0000 0.0000 0.0000 0.0000 28.6216
#
#
#
# Elastic Compliance Matrix: (Units=1/GPa)
#
#
# Indices 1 2 3 4 5 6 
#
# 1 0.008313 -0.000575 -0.006981 0.000000 0.000000 0.000000
# 2 -0.000575 0.018475 -0.005184 0.000000 0.000000 0.000000
# 3 -0.006981 -0.005184 0.030845 0.000000 0.000000 0.000000
# 4 0.000000 0.000000 0.000000 0.049981 0.000000 0.000000
# 5 0.000000 0.000000 0.000000 0.000000 0.032688 0.000000
# 6 0.000000 0.000000 0.000000 0.000000 0.000000 0.034939
#
#
# Mechanical properties :
#
#
# Convention : Reuss Voigt Hill
#
# Bulk Modulus (GPa) = 31.10160 42.73677 36.91919
# Shear Modulus (GPa) = 23.64766 28.40291 26.02529
#
# Velocity S-wave (km/s) = 3.45694 3.78860 3.62657
# Velocity P-wave (km/s) = 5.62594 6.38241 6.01608
#
# Compressibility (1/GPa) = 0.03215269
#
# Stress axis : x y z
#
# Youngs Moduli (GPa) = 120.29708 54.12613 32.42057
#
# Poissons Ratio (x) = 0.03112 0.22633
# Poissons Ratio (y) = 0.06917 0.16807
# Poissons Ratio (z) = 0.83978 0.28060
#
# Static dielectric constant tensor:
#      x y z
#    x 1.716100 0.000000 0.000000 
#    y 0.000000 1.696960 0.000000 
#    z 0.000000 0.000000 1.706470 
# 
# From -- ./inp_files/16387.got.cif
#   From: 2010.05.17/outbox.cif.g08.bks.cpg/sg20_9_cif.got.tgz:16387.got - 2010.06.03 22:52:26.
