data_PCOD9318791
_publ_section_title
;
Structure prediction by ZEFSAII (Michael W. Deem and Ramdas Pophale) SiO2 
 PCOD9318791
Probable space group: C 2 2 21
;
_chemical_formula_sum "Si O2"
_cell_formula_units_Z 48
_cell_length_a 5.420663
_cell_length_b 13.230955
_cell_length_c 29.210428
_cell_angle_alpha 90.000000
_cell_angle_beta 90.000000
_cell_angle_gamma 90.000000
_cell_volume 2094.987910
_symmetry_space_group_name_H-M "C 2 2 21"
_symmetry_group_IT_number 20
_symmetry_cell_setting 'orthorhombic'
loop_
_space_group_symop_operation_xyz
x,y,z
-x,-y,1/2+z
x,-y,-z
-x,y,1/2-z
1/2+x,1/2+y,z
1/2-x,1/2-y,1/2+z
1/2+x,1/2-y,-z
1/2-x,1/2+y,1/2-z
loop_
_atom_site_type_symbol
_atom_site_label
_atom_site_fract_x
_atom_site_fract_y
_atom_site_fract_z
Si Si1 0.500012 0.611901 0.480250
Si Si2 0.000011 0.674589 0.476282
Si Si3 0.999998 0.385715 0.082611
Si Si4 0.500006 0.298409 0.651885
Si Si5 0.500007 0.714852 0.695647
Si Si6 0.499997 0.532343 0.873748
O O1 0.500015 0.500000 0.500000
O O2 0.500012 0.704503 0.517733
O O3 0.251293 0.439828 0.401564
O O4 0.752761 0.634362 0.454311
O O5 0.000007 0.628785 0.527861
O O6 0.247260 0.634360 0.454312
O O7 0.999999 0.278509 0.108764
O O8 0.251292 0.439828 0.098434
O O9 0.249007 0.271380 0.679261
O O10 0.500004 0.416038 0.640048
O O11 0.751011 0.271380 0.679259
O O12 0.500000 0.703980 0.750000
O O13 0.500008 0.606595 0.670073
#
# Coordination Sequence:
#
# PCOD9318791 Si02
#       6
#     8   8   8   8   8   8
#     4  10  21  38  56  80 112 142 179 224 268 318
#     4  10  21  36  56  82 110 142 181 222 266 320
#     4  10  21  36  56  82 110 142 181 222 266 320
#     4  10  21  38  56  80 112 142 179 224 268 318
#     4  10  21  36  56  82 110 142 181 222 266 320
#     4  10  21  38  56  80 112 142 179 224 268 318
#
# _framework density 22.911826000000001
#
# number of rings (size 3 to 8) (size 9 to 14) (size 15 to 20)
#    0.000    2.000    0.000    3.000    0.000    4.000 
#    0.000    0.000    0.000    0.000    0.000    0.000 
#    0.000    0.000    0.000    0.000    0.000    0.000 
#
# Total GULP energy -134455.290977 kJ/mol
# GULP energy per Si atom -5602.303791 kJ/mol
# Density = 2.285968 g / cm^3
# Si number density = 22.911826 Si / 1000 Ang^3
#
#
#
# Elastic Constant Matrix: (Units=GPa)
#
#
# Indices 1 2 3 4 5 6 
#
# 1 255.5073 95.3172 62.8729 0.0000 0.0000 0.0000
# 2 95.3172 235.6662 72.5463 0.0000 0.0000 0.0000
# 3 62.8729 72.5463 145.2988 0.0000 0.0000 0.0000
# 4 0.0000 0.0000 0.0000 27.4791 0.0000 0.0000
# 5 0.0000 0.0000 0.0000 0.0000 24.2055 0.0000
# 6 0.0000 0.0000 0.0000 0.0000 0.0000 2.2582
#
#
#
# Elastic Compliance Matrix: (Units=1/GPa)
#
#
# Indices 1 2 3 4 5 6 
#
# 1 0.004812 -0.001542 -0.001312 0.000000 0.000000 0.000000
# 2 -0.001542 0.005508 -0.002083 0.000000 0.000000 0.000000
# 3 -0.001312 -0.002083 0.008490 0.000000 0.000000 0.000000
# 4 0.000000 0.000000 0.000000 0.036391 0.000000 0.000000
# 5 0.000000 0.000000 0.000000 0.000000 0.041313 0.000000
# 6 0.000000 0.000000 0.000000 0.000000 0.000000 0.442840
#
#
# Mechanical properties :
#
#
# Convention : Reuss Voigt Hill
#
# Bulk Modulus (GPa) = 111.91020 121.99390 116.95205
# Shear Modulus (GPa) = 9.05456 37.83760 23.44608
#
# Velocity S-wave (km/s) = 1.99010 4.06821 3.20240
# Velocity P-wave (km/s) = 7.36414 8.68491 8.05165
#
# Compressibility (1/GPa) = 0.00893574
#
# Stress axis : x y z
#
# Youngs Moduli (GPa) = 207.81210 181.54515 117.78418
#
# Poissons Ratio (x) = 0.28000 0.15455
# Poissons Ratio (y) = 0.32052 0.24533
# Poissons Ratio (z) = 0.27268 0.37813
#
# Static dielectric constant tensor:
#      x y z
#    x 1.964610 0.000000 0.000000 
#    y 0.000000 1.853230 0.000000 
#    z 0.000000 0.000000 1.811330 
# 
# From -- ./inp_files/30077.got.cif
#   From: 2010.05.17/outbox.cif.g08.bks.cpg/sg20_16_cif.got.tgz:30077.got - 2010.06.03 22:52:26.
