data_PCOD9318826
_publ_section_title
;
Structure prediction by ZEFSAII (Michael W. Deem and Ramdas Pophale) SiO2 
 PCOD9318826
Probable space group: C 2 2 21
;
_chemical_formula_sum "Si O2"
_cell_formula_units_Z 36
_cell_length_a 25.626739
_cell_length_b 6.142087
_cell_length_c 10.683837
_cell_angle_alpha 90.000000
_cell_angle_beta 90.000000
_cell_angle_gamma 90.000000
_cell_volume 1681.653684
_symmetry_space_group_name_H-M "C 2 2 21"
_symmetry_group_IT_number 20
_symmetry_cell_setting 'orthorhombic'
loop_
_space_group_symop_operation_xyz
x,y,z
-x,-y,1/2+z
x,-y,-z
-x,y,1/2-z
1/2+x,1/2+y,z
1/2-x,1/2-y,1/2+z
1/2+x,1/2-y,-z
1/2-x,1/2+y,1/2-z
loop_
_atom_site_type_symbol
_atom_site_label
_atom_site_fract_x
_atom_site_fract_y
_atom_site_fract_z
Si Si1 0.239378 0.373523 0.627779
Si Si2 0.319118 0.500000 0.000000
Si Si3 0.500218 0.000000 0.500000
Si Si4 0.928619 0.124066 0.382240
Si Si5 0.662997 0.777992 0.279005
Si Si6 0.000000 0.234122 0.750000
O O1 0.251426 0.500000 0.500000
O O2 0.290625 0.352344 0.709820
O O3 0.190785 0.493602 0.693719
O O4 0.218492 0.142574 0.585242
O O5 0.350148 0.662769 0.089150
O O6 0.469379 0.203835 0.560759
O O7 0.520549 0.119000 0.369100
O O8 0.887309 0.264537 0.305641
O O9 0.902972 0.000000 0.500000
O O10 0.955637 0.933354 0.300550
#
# Coordination Sequence:
#
# PCOD9318826 Si02
#       6
#     8   4   4   8   8   4
#     4  10  21  36  62  86 127 169 210 261 318 375
#     4  10  22  39  54  90 130 168 220 263 330 382
#     4  10  22  45  70 104 136 174 226 277 354 408
#     4  10  23  42  71 101 130 173 225 270 336 402
#     4  11  21  40  61  93 129 171 215 267 320 391
#     4  10  22  46  72 104 138 168 222 288 342 422
#
# _framework density 21.407501
#
# number of rings (size 3 to 8) (size 9 to 14) (size 15 to 20)
#    0.000    1.778    2.222    1.333    0.000    4.444 
#   10.000    0.000    2.444    0.000    0.000    0.000 
#    0.000    0.000    0.000    0.000    0.000    0.000 
#
# Total GULP energy -100297.992348 kJ/mol
# GULP energy per Si atom -5572.110686 kJ/mol
# Density = 2.135878 g / cm^3
# Si number density = 21.407501 Si / 1000 Ang^3
#
#
#
# Elastic Constant Matrix: (Units=GPa)
#
#
# Indices 1 2 3 4 5 6 
#
# 1 33.6808 14.4129 39.0955 0.0000 0.0000 0.0000
# 2 14.4129 89.6895 42.9917 0.0000 0.0000 0.0000
# 3 39.0955 42.9917 124.6097 0.0000 0.0000 0.0000
# 4 0.0000 0.0000 0.0000 58.4304 0.0000 0.0000
# 5 0.0000 0.0000 0.0000 0.0000 29.4548 0.0000
# 6 0.0000 0.0000 0.0000 0.0000 0.0000 -254.6262
#
#
#
# Elastic Compliance Matrix: (Units=1/GPa)
#
#
# Indices 1 2 3 4 5 6 
#
# 1 0.046722 -0.000577 -0.014460 0.000000 0.000000 0.000000
# 2 -0.000577 0.013366 -0.004430 0.000000 0.000000 0.000000
# 3 -0.014460 -0.004430 0.014090 0.000000 0.000000 0.000000
# 4 0.000000 0.000000 0.000000 0.017114 0.000000 0.000000
# 5 0.000000 0.000000 0.000000 0.000000 0.033950 0.000000
# 6 0.000000 0.000000 0.000000 0.000000 0.000000 -0.003927
#
#
# Mechanical properties :
#
#
# Convention : Reuss Voigt Hill
#
# Bulk Modulus (GPa) = 28.37379 48.99781 38.68580
# Shear Modulus (GPa) = 29.07031 -23.24956 2.91038
#
# Velocity S-wave (km/s) = 3.68903 -3.29910 1.16725
# Velocity P-wave (km/s) = 5.60609 2.90272 4.46397
#
# Compressibility (1/GPa) = 0.03524380
#
# Stress axis : x y z
#
# Youngs Moduli (GPa) = 21.40342 74.81701 70.97153
#
# Poissons Ratio (x) = 0.04317 1.02621
# Poissons Ratio (y) = 0.01235 0.31443
# Poissons Ratio (z) = 0.30948 0.33146
#
# Static dielectric constant tensor:
#      x y z
#    x 1.749050 0.000000 0.000000 
#    y 0.000000 1.791910 0.000000 
#    z 0.000000 0.000000 3.609210 
# 
# From -- ./inp_files/16555.got.cif
#   From: 2010.05.17/outbox.cif.g08.bks.cpg/sg20_9_cif.got.tgz:16555.got - 2010.06.03 22:52:26.
