data_PCOD9318518
_publ_section_title
;
Structure prediction by ZEFSAII (Michael W. Deem and Ramdas Pophale) SiO2 
 PCOD9318518
Probable space group: C 2 2 21
;
_chemical_formula_sum "Si O2"
_cell_formula_units_Z 40
_cell_length_a 11.748524
_cell_length_b 8.463378
_cell_length_c 16.063890
_cell_angle_alpha 90.000000
_cell_angle_beta 90.000000
_cell_angle_gamma 90.000000
_cell_volume 1597.267916
_symmetry_space_group_name_H-M "C 2 2 21"
_symmetry_group_IT_number 20
_symmetry_cell_setting 'orthorhombic'
loop_
_space_group_symop_operation_xyz
x,y,z
-x,-y,1/2+z
x,-y,-z
-x,y,1/2-z
1/2+x,1/2+y,z
1/2-x,1/2-y,1/2+z
1/2+x,1/2-y,-z
1/2-x,1/2+y,1/2-z
loop_
_atom_site_type_symbol
_atom_site_label
_atom_site_fract_x
_atom_site_fract_y
_atom_site_fract_z
Si Si1 0.705250 0.625231 0.268727
Si Si2 0.369646 0.054175 0.837341
Si Si3 0.449686 0.254391 0.977879
Si Si4 0.462079 0.446510 0.130198
Si Si5 0.586995 0.855037 0.882744
O O1 0.651392 0.799973 0.273648
O O2 0.777858 0.577266 0.188423
O O3 0.610379 0.498689 0.291904
O O4 0.790951 0.607564 0.347505
O O5 0.366736 0.139462 0.927576
O O6 0.493641 0.389002 0.914887
O O7 0.492437 0.969831 0.842185
O O8 0.396816 0.345413 0.057469
O O9 0.555519 0.163372 0.020111
O O10 0.561550 0.323733 0.147630
#
# Coordination Sequence:
#
# PCOD9318518 Si02
#       5
#     8   8   8   8   8
#     4  11  23  40  66  89 130 176 213 256 344 379
#     4  11  22  40  60  99 127 165 217 272 306 388
#     4   8  18  40  64  87 134 158 204 283 312 357
#     4   8  18  40  64  92 128 162 210 278 308 380
#     4  10  20  41  64  87 125 169 208 264 323 383
#
# _framework density 25.042763000000001
#
# number of rings (size 3 to 8) (size 9 to 14) (size 15 to 20)
#    1.200    1.200    0.000    2.400    0.000    0.000 
#   14.400   20.000    0.000    0.000    0.000    0.000 
#    0.000    0.000    0.000    0.000    0.000    0.000 
#
# Total GULP energy -111549.186846 kJ/mol
# GULP energy per Si atom -5577.459342 kJ/mol
# Density = 2.498576 g / cm^3
# Si number density = 25.042763 Si / 1000 Ang^3
#
#
#
# Elastic Constant Matrix: (Units=GPa)
#
#
# Indices 1 2 3 4 5 6 
#
# 1 62.9626 13.2685 28.5054 0.0000 0.0000 0.0000
# 2 13.2685 108.3858 52.6185 0.0000 0.0000 0.0000
# 3 28.5054 52.6185 82.6974 0.0000 0.0000 0.0000
# 4 0.0000 0.0000 0.0000 57.8209 0.0000 0.0000
# 5 0.0000 0.0000 0.0000 0.0000 36.5047 0.0000
# 6 0.0000 0.0000 0.0000 0.0000 0.0000 40.2602
#
#
#
# Elastic Compliance Matrix: (Units=1/GPa)
#
#
# Indices 1 2 3 4 5 6 
#
# 1 0.018932 0.001231 -0.007309 0.000000 0.000000 0.000000
# 2 0.001231 0.013430 -0.008969 0.000000 0.000000 0.000000
# 3 -0.007309 -0.008969 0.020319 0.000000 0.000000 0.000000
# 4 0.000000 0.000000 0.000000 0.017295 0.000000 0.000000
# 5 0.000000 0.000000 0.000000 0.000000 0.027394 0.000000
# 6 0.000000 0.000000 0.000000 0.000000 0.000000 0.024838
#
#
# Mechanical properties :
#
#
# Convention : Reuss Voigt Hill
#
# Bulk Modulus (GPa) = 44.27622 49.20341 46.73981
# Shear Modulus (GPa) = 31.28296 37.56072 34.42184
#
# Velocity S-wave (km/s) = 3.53821 3.87701 3.71148
# Velocity P-wave (km/s) = 5.86605 6.30333 6.08862
#
# Compressibility (1/GPa) = 0.02258549
#
# Stress axis : x y z
#
# Youngs Moduli (GPa) = 52.82047 74.45975 49.21596
#
# Poissons Ratio (x) = -0.09163 0.35971
# Poissons Ratio (y) = -0.06500 0.44144
# Poissons Ratio (z) = 0.38605 0.66786
#
# Static dielectric constant tensor:
#      x y z
#    x 1.923290 0.000000 0.000000 
#    y 0.000000 1.996510 0.000000 
#    z 0.000000 0.000000 2.025510 
# 
# From -- ./inp_files/24695.got.cif
#   From: 2010.05.17/outbox.cif.g08.bks.cpg/sg20_13_cif.got.tgz:24695.got - 2010.06.03 22:52:26.
