data_PCOD9318187
_publ_section_title
;
Structure prediction by ZEFSAII (Michael W. Deem and Ramdas Pophale) SiO2 
 PCOD9318187
Probable space group: C 2 2 21
;
_chemical_formula_sum "Si O2"
_cell_formula_units_Z 40
_cell_length_a 13.266361
_cell_length_b 7.799434
_cell_length_c 15.830773
_cell_angle_alpha 90.000000
_cell_angle_beta 90.000000
_cell_angle_gamma 90.000000
_cell_volume 1638.011777
_symmetry_space_group_name_H-M "C 2 2 21"
_symmetry_group_IT_number 20
_symmetry_cell_setting 'orthorhombic'
loop_
_space_group_symop_operation_xyz
x,y,z
-x,-y,1/2+z
x,-y,-z
-x,y,1/2-z
1/2+x,1/2+y,z
1/2-x,1/2-y,1/2+z
1/2+x,1/2-y,-z
1/2-x,1/2+y,1/2-z
loop_
_atom_site_type_symbol
_atom_site_label
_atom_site_fract_x
_atom_site_fract_y
_atom_site_fract_z
Si Si1 0.191424 0.688922 0.539930
Si Si2 0.622277 0.621137 0.242343
Si Si3 0.896915 0.104883 0.585259
Si Si4 0.121081 0.821221 0.367631
Si Si5 0.395235 0.040527 0.798190
O O1 0.206792 0.500000 0.500000
O O2 0.303200 0.733195 0.572931
O O3 0.160295 0.807954 0.462992
O O4 0.108319 0.646437 0.612143
O O5 0.500000 0.635628 0.250000
O O6 0.641954 0.528560 0.154845
O O7 0.649823 0.494101 0.318883
O O8 0.661795 0.815101 0.243814
O O9 0.999064 0.184121 0.621656
O O10 0.921742 0.000000 0.500000
O O11 0.146989 0.647153 0.316895
O O12 0.500000 0.012901 0.750000
#
# Coordination Sequence:
#
# PCOD9318187 Si02
#       5
#     8   8   8   8   8
#     4   9  21  40  61  94 134 170 212 280 331 390
#     4   9  20  37  64  94 119 171 218 262 326 401
#     4  10  21  40  66  96 134 175 225 275 342 400
#     4  10  21  40  70  87 130 178 213 273 331 400
#     4  10  20  38  63  91 127 162 219 268 330 389
#
# _framework density 24.419846
#
# number of rings (size 3 to 8) (size 9 to 14) (size 15 to 20)
#    0.000    2.400    0.000    1.800    8.400    0.000 
#   14.400    0.000    8.800    4.800    0.000    0.000 
#    0.000    0.000    0.000    0.000    0.000    0.000 
#
# Total GULP energy -111680.939391 kJ/mol
# GULP energy per Si atom -5584.046970 kJ/mol
# Density = 2.436427 g / cm^3
# Si number density = 24.419846 Si / 1000 Ang^3
#
#
#
# Elastic Constant Matrix: (Units=GPa)
#
#
# Indices 1 2 3 4 5 6 
#
# 1 120.3077 37.4169 32.6141 0.0000 0.0000 0.0000
# 2 37.4169 133.2250 22.6931 0.0000 0.0000 0.0000
# 3 32.6141 22.6931 58.6934 0.0000 0.0000 0.0000
# 4 0.0000 0.0000 0.0000 38.3152 0.0000 0.0000
# 5 0.0000 0.0000 0.0000 0.0000 9.3372 0.0000
# 6 0.0000 0.0000 0.0000 0.0000 0.0000 23.5285
#
#
#
# Elastic Compliance Matrix: (Units=1/GPa)
#
#
# Indices 1 2 3 4 5 6 
#
# 1 0.010284 -0.002050 -0.004922 0.000000 0.000000 0.000000
# 2 -0.002050 0.008444 -0.002126 0.000000 0.000000 0.000000
# 3 -0.004922 -0.002126 0.020594 0.000000 0.000000 0.000000
# 4 0.000000 0.000000 0.000000 0.026099 0.000000 0.000000
# 5 0.000000 0.000000 0.000000 0.000000 0.107098 0.000000
# 6 0.000000 0.000000 0.000000 0.000000 0.000000 0.042502
#
#
# Mechanical properties :
#
#
# Convention : Reuss Voigt Hill
#
# Bulk Modulus (GPa) = 47.33195 55.29716 51.31456
# Shear Modulus (GPa) = 20.81090 28.86964 24.84027
#
# Velocity S-wave (km/s) = 2.92243 3.44207 3.19284
# Velocity P-wave (km/s) = 5.55087 6.20409 5.88655
#
# Compressibility (1/GPa) = 0.02112738
#
# Stress axis : x y z
#
# Youngs Moduli (GPa) = 97.24022 118.42864 48.55676
#
# Poissons Ratio (x) = 0.24277 0.23899
# Poissons Ratio (y) = 0.19933 0.10322
# Poissons Ratio (z) = 0.47860 0.25174
#
# Static dielectric constant tensor:
#      x y z
#    x 2.017140 0.000000 0.000000 
#    y 0.000000 1.923090 0.000000 
#    z 0.000000 0.000000 1.966690 
# 
# From -- ./inp_files/20492.got.cif
#   From: 2010.05.17/outbox.cif.g08.bks.cpg/sg20_11_cif.got.tgz:20492.got - 2010.06.03 22:52:26.
