data_PCOD9318799
_publ_section_title
;
Structure prediction by ZEFSAII (Michael W. Deem and Ramdas Pophale) SiO2 
 PCOD9318799
Probable space group: C 2 2 21
;
_chemical_formula_sum "Si O2"
_cell_formula_units_Z 48
_cell_length_a 5.030697
_cell_length_b 21.745586
_cell_length_c 22.606000
_cell_angle_alpha 90.000000
_cell_angle_beta 90.000000
_cell_angle_gamma 90.000000
_cell_volume 2472.993639
_symmetry_space_group_name_H-M "C 2 2 21"
_symmetry_group_IT_number 20
_symmetry_cell_setting 'orthorhombic'
loop_
_space_group_symop_operation_xyz
x,y,z
-x,-y,1/2+z
x,-y,-z
-x,y,1/2-z
1/2+x,1/2+y,z
1/2-x,1/2-y,1/2+z
1/2+x,1/2-y,-z
1/2-x,1/2+y,1/2-z
loop_
_atom_site_type_symbol
_atom_site_label
_atom_site_fract_x
_atom_site_fract_y
_atom_site_fract_z
Si Si1 0.500000 0.580381 0.250000
Si Si2 0.958115 0.695672 0.941549
Si Si3 0.347122 0.461158 0.308601
Si Si4 0.189234 0.312769 0.806260
Si Si5 0.324092 0.891693 0.342845
Si Si6 0.955258 0.723385 0.073235
Si Si7 0.500000 0.204626 0.750000
O O1 0.337564 0.533339 0.292308
O O2 0.643318 0.625948 0.295477
O O3 0.058874 0.640394 0.901323
O O4 0.155158 0.752217 0.925500
O O5 0.657286 0.718171 0.930217
O O6 0.992533 0.686848 0.011978
O O7 0.500000 0.437177 0.250000
O O8 0.555311 0.430413 0.354430
O O9 0.054919 0.436980 0.319601
O O10 0.035013 0.311428 0.867542
O O11 0.354480 0.250074 0.795946
O O12 0.000000 0.312159 0.750000
O O13 0.316829 0.837823 0.292355
#
# Coordination Sequence:
#
# PCOD9318799 Si02
#       7
#     4   8   8   8   8   8   4
#     4   9  24  40  52  84 110 157 196 236 290 339
#     4  10  21  36  57  84 123 155 185 226 285 360
#     4  10  22  36  56  81 108 154 189 233 291 327
#     4  11  23  34  59  83 116 155 185 241 281 354
#     4  12  20  34  59  86 117 146 185 243 282 345
#     4  10  21  38  55  85 123 157 184 222 289 358
#     4  11  20  30  50  90 118 135 182 228 300 331
#
# _framework density 19.409675
#
# number of rings (size 3 to 8) (size 9 to 14) (size 15 to 20)
#    0.500    1.000    3.333    2.000    7.000    0.000 
#    0.000    0.000    0.000    1.000    0.000    0.000 
#    0.000    0.000    0.000    0.000    0.000    0.000 
#
# Total GULP energy -133741.311563 kJ/mol
# GULP energy per Si atom -5572.554648 kJ/mol
# Density = 1.936550 g / cm^3
# Si number density = 19.409675 Si / 1000 Ang^3
#
#
#
# Elastic Constant Matrix: (Units=GPa)
#
#
# Indices 1 2 3 4 5 6 
#
# 1 48.3882 16.0813 -10.5316 0.0000 0.0000 0.0000
# 2 16.0813 94.8962 22.3323 0.0000 0.0000 0.0000
# 3 -10.5316 22.3323 101.4049 0.0000 0.0000 0.0000
# 4 0.0000 0.0000 0.0000 29.2379 0.0000 0.0000
# 5 0.0000 0.0000 0.0000 0.0000 25.5769 0.0000
# 6 0.0000 0.0000 0.0000 0.0000 0.0000 4.2004
#
#
#
# Elastic Compliance Matrix: (Units=1/GPa)
#
#
# Indices 1 2 3 4 5 6 
#
# 1 0.022972 -0.004698 0.003420 0.000000 0.000000 0.000000
# 2 -0.004698 0.012075 -0.003147 0.000000 0.000000 0.000000
# 3 0.003420 -0.003147 0.010910 0.000000 0.000000 0.000000
# 4 0.000000 0.000000 0.000000 0.034202 0.000000 0.000000
# 5 0.000000 0.000000 0.000000 0.000000 0.039098 0.000000
# 6 0.000000 0.000000 0.000000 0.000000 0.000000 0.238075
#
#
# Mechanical properties :
#
#
# Convention : Reuss Voigt Hill
#
# Bulk Modulus (GPa) = 26.94892 33.38371 30.16632
# Shear Modulus (GPa) = 13.20832 26.25685 19.73258
#
# Velocity S-wave (km/s) = 2.61147 3.68199 3.19193
# Velocity P-wave (km/s) = 4.79661 5.94247 5.40002
#
# Compressibility (1/GPa) = 0.03710724
#
# Stress axis : x y z
#
# Youngs Moduli (GPa) = 43.53143 82.81895 91.66109
#
# Poissons Ratio (x) = 0.38907 -0.31351
# Poissons Ratio (y) = 0.20450 0.28846
# Poissons Ratio (z) = -0.14889 0.26064
#
# Static dielectric constant tensor:
#      x y z
#    x 1.690120 0.000000 0.000000 
#    y 0.000000 1.751330 0.000000 
#    z 0.000000 0.000000 1.687500 
# 
# From -- ./inp_files/26077.got.cif
#   From: 2010.05.17/outbox.cif.g08.bks.cpg/sg20_14_cif.got.tgz:26077.got - 2010.06.03 22:52:26.
