data_PCOD9318999
_publ_section_title
;
Structure prediction by ZEFSAII (Michael W. Deem and Ramdas Pophale) SiO2 
 PCOD9318999
Probable space group: C 2 2 21
;
_chemical_formula_sum "Si O2"
_cell_formula_units_Z 44
_cell_length_a 13.479629
_cell_length_b 9.051797
_cell_length_c 16.837644
_cell_angle_alpha 90.000000
_cell_angle_beta 90.000000
_cell_angle_gamma 90.000000
_cell_volume 2054.442865
_symmetry_space_group_name_H-M "C 2 2 21"
_symmetry_group_IT_number 20
_symmetry_cell_setting 'orthorhombic'
loop_
_space_group_symop_operation_xyz
x,y,z
-x,-y,1/2+z
x,-y,-z
-x,y,1/2-z
1/2+x,1/2+y,z
1/2-x,1/2-y,1/2+z
1/2+x,1/2-y,-z
1/2-x,1/2+y,1/2-z
loop_
_atom_site_type_symbol
_atom_site_label
_atom_site_fract_x
_atom_site_fract_y
_atom_site_fract_z
Si Si1 0.385551 0.316782 0.860267
Si Si2 0.367267 0.343163 0.146742
Si Si3 0.756548 0.320895 0.508440
Si Si4 0.950391 0.650316 0.545654
Si Si5 0.346968 0.113179 0.714565
Si Si6 0.000000 0.642730 0.250000
O O1 0.406135 0.490063 0.862084
O O2 0.458071 0.238549 0.921927
O O3 0.384903 0.239483 0.774931
O O4 0.281065 0.291921 0.903501
O O5 0.317567 0.281358 0.064661
O O6 0.271912 0.367156 0.206033
O O7 0.457912 0.245605 0.179355
O O8 0.763414 0.500000 0.500000
O O9 0.868082 0.261253 0.503610
O O10 0.978062 0.500000 0.500000
O O11 0.887986 0.623234 0.625843
O O12 0.403030 0.963043 0.740498
#
# Coordination Sequence:
#
# PCOD9318999 Si02
#       6
#     8   8   8   8   8   4
#     4  11  21  41  71  96 137 180 230 290 357 425
#     4  10  24  41  66  97 139 178 230 293 349 428
#     4   8  19  40  61  93 129 174 217 284 353 405
#     4  10  21  38  68  94 130 176 229 283 353 415
#     4  11  23  44  66 100 134 181 235 288 352 426
#     4  12  24  40  68 100 136 182 234 280 358 412
#
# _framework density 21.416999000000001
#
# number of rings (size 3 to 8) (size 9 to 14) (size 15 to 20)
#    0.000    1.818    1.818    2.182    5.091    0.000 
#    0.000    0.000    4.000    0.000    0.000    0.000 
#    0.000    0.000    0.000    0.000    0.000    0.000 
#
# Total GULP energy -122518.353717 kJ/mol
# GULP energy per Si atom -5569.016078 kJ/mol
# Density = 2.136825 g / cm^3
# Si number density = 21.416999 Si / 1000 Ang^3
#
#
#
# Elastic Constant Matrix: (Units=GPa)
#
#
# Indices 1 2 3 4 5 6 
#
# 1 20.9824 10.0164 8.2968 0.0000 0.0000 0.0000
# 2 10.0164 47.8874 13.8445 0.0000 0.0000 0.0000
# 3 8.2968 13.8445 55.1276 0.0000 0.0000 0.0000
# 4 0.0000 0.0000 0.0000 17.9543 0.0000 0.0000
# 5 0.0000 0.0000 0.0000 0.0000 -11.2055 0.0000
# 6 0.0000 0.0000 0.0000 0.0000 0.0000 11.9288
#
#
#
# Elastic Compliance Matrix: (Units=1/GPa)
#
#
# Indices 1 2 3 4 5 6 
#
# 1 0.054595 -0.009752 -0.005768 0.000000 0.000000 0.000000
# 2 -0.009752 0.024259 -0.004625 0.000000 0.000000 0.000000
# 3 -0.005768 -0.004625 0.020169 0.000000 0.000000 0.000000
# 4 0.000000 0.000000 0.000000 0.055697 0.000000 0.000000
# 5 0.000000 0.000000 0.000000 0.000000 -0.089242 0.000000
# 6 0.000000 0.000000 0.000000 0.000000 0.000000 0.083831
#
#
# Mechanical properties :
#
#
# Convention : Reuss Voigt Hill
#
# Bulk Modulus (GPa) = 17.02565 20.92364 18.97465
# Shear Modulus (GPa) = 23.90333 9.85816 16.88074
#
# Velocity S-wave (km/s) = 3.34442 2.14778 2.81052
# Velocity P-wave (km/s) = 4.78334 3.99267 4.40578
#
# Compressibility (1/GPa) = 0.05873490
#
# Stress axis : x y z
#
# Youngs Moduli (GPa) = 18.31670 41.22170 49.58060
#
# Poissons Ratio (x) = 0.40199 0.28596
# Poissons Ratio (y) = 0.17862 0.22929
# Poissons Ratio (z) = 0.10564 0.19063
#
# Static dielectric constant tensor:
#      x y z
#    x 1.911670 0.000000 0.000000 
#    y 0.000000 1.832850 0.000000 
#    z 0.000000 0.000000 1.877230 
# 
# From -- ./inp_files/23390.got.cif
#   From: 2010.05.17/outbox.cif.g08.bks.cpg/sg20_12_cif.got.tgz:23390.got - 2010.06.03 22:52:26.
