data_PCOD9318457
_publ_section_title
;
Structure prediction by ZEFSAII (Michael W. Deem and Ramdas Pophale) SiO2 
 PCOD9318457
Probable space group: C 2 2 21
;
_chemical_formula_sum "Si O2"
_cell_formula_units_Z 60
_cell_length_a 11.337891
_cell_length_b 9.111420
_cell_length_c 28.179165
_cell_angle_alpha 90.000000
_cell_angle_beta 90.000000
_cell_angle_gamma 90.000000
_cell_volume 2911.028543
_symmetry_space_group_name_H-M "C 2 2 21"
_symmetry_group_IT_number 20
_symmetry_cell_setting 'orthorhombic'
loop_
_space_group_symop_operation_xyz
x,y,z
-x,-y,1/2+z
x,-y,-z
-x,y,1/2-z
1/2+x,1/2+y,z
1/2-x,1/2-y,1/2+z
1/2+x,1/2-y,-z
1/2-x,1/2+y,1/2-z
loop_
_atom_site_type_symbol
_atom_site_label
_atom_site_fract_x
_atom_site_fract_y
_atom_site_fract_z
Si Si1 0.134914 0.661343 0.263345
Si Si2 0.688532 0.375821 0.627354
Si Si3 0.082851 0.484628 0.083480
Si Si4 0.822191 0.994912 0.219596
Si Si5 0.000000 0.781216 0.750000
Si Si6 0.893312 0.275936 0.501796
Si Si7 0.859694 0.847077 0.978872
Si Si8 0.101019 0.411518 0.335320
O O1 0.183464 0.825412 0.268598
O O2 0.194572 0.568293 0.221621
O O3 0.147195 0.557384 0.309416
O O4 0.000000 0.680864 0.250000
O O5 0.808316 0.458642 0.614506
O O6 0.625712 0.473479 0.667632
O O7 0.623432 0.362017 0.577346
O O8 0.696169 0.210681 0.648270
O O9 0.108691 0.342621 0.051350
O O10 0.975557 0.455360 0.119012
O O11 0.070337 0.608516 0.042964
O O12 0.893028 0.102415 0.255092
O O13 0.973917 0.677435 0.795030
O O14 0.754468 0.238636 0.513005
O O15 0.011604 0.177454 0.501271
O O16 0.812841 0.000000 0.000000
#
# Coordination Sequence:
#
# PCOD9318457 Si02
#       8
#     8   8   8   8   4   8   8   8
#     4  12  25  43  66  96 133 180 225 282 338 399
#     4  10  21  38  68  94 127 176 225 274 341 408
#     4  10  20  40  68  91 128 180 215 277 339 403
#     4  11  24  43  67  95 135 177 227 279 337 407
#     4  10  22  42  66  96 132 176 216 280 334 400
#     4  10  21  41  68  95 135 173 227 280 346 406
#     4  11  21  43  66  96 133 178 221 285 349 409
#     4  11  22  39  65  96 133 174 229 276 336 403
#
# _framework density 20.611270999999999
#
# number of rings (size 3 to 8) (size 9 to 14) (size 15 to 20)
#    0.000    1.333    5.333    2.400    1.867    1.067 
#    2.400    0.000    2.933    0.000    0.000    0.000 
#    0.000    0.000    0.000    0.000    0.000    0.000 
#
# Total GULP energy -167051.192000 kJ/mol
# GULP energy per Si atom -5568.373067 kJ/mol
# Density = 2.056436 g / cm^3
# Si number density = 20.611271 Si / 1000 Ang^3
#
#
#
# Elastic Constant Matrix: (Units=GPa)
#
#
# Indices 1 2 3 4 5 6 
#
# 1 70.0601 35.1703 20.3949 0.0000 0.0000 0.0000
# 2 35.1703 115.0375 28.1292 0.0000 0.0000 0.0000
# 3 20.3949 28.1292 96.6150 0.0000 0.0000 0.0000
# 4 0.0000 0.0000 0.0000 11.8066 0.0000 0.0000
# 5 0.0000 0.0000 0.0000 0.0000 26.7734 0.0000
# 6 0.0000 0.0000 0.0000 0.0000 0.0000 34.1158
#
#
#
# Elastic Compliance Matrix: (Units=1/GPa)
#
#
# Indices 1 2 3 4 5 6 
#
# 1 0.017314 -0.004737 -0.002276 0.000000 0.000000 0.000000
# 2 -0.004737 0.010655 -0.002102 0.000000 0.000000 0.000000
# 3 -0.002276 -0.002102 0.011443 0.000000 0.000000 0.000000
# 4 0.000000 0.000000 0.000000 0.084698 0.000000 0.000000
# 5 0.000000 0.000000 0.000000 0.000000 0.037351 0.000000
# 6 0.000000 0.000000 0.000000 0.000000 0.000000 0.029312
#
#
# Mechanical properties :
#
#
# Convention : Reuss Voigt Hill
#
# Bulk Modulus (GPa) = 47.20989 49.90014 48.55502
# Shear Modulus (GPa) = 23.14143 27.74038 25.44091
#
# Velocity S-wave (km/s) = 3.35439 3.67261 3.51710
# Velocity P-wave (km/s) = 6.16094 6.49975 6.33261
#
# Compressibility (1/GPa) = 0.02118200
#
# Stress axis : x y z
#
# Youngs Moduli (GPa) = 57.75721 93.85209 87.39105
#
# Poissons Ratio (x) = 0.44457 0.19888
# Poissons Ratio (y) = 0.27359 0.18372
# Poissons Ratio (z) = 0.13144 0.19730
#
# Static dielectric constant tensor:
#      x y z
#    x 1.834420 0.000000 0.000000 
#    y 0.000000 1.746680 0.000000 
#    z 0.000000 0.000000 1.764810 
# 
# From -- ./inp_files/30327.got.cif
#   From: 2010.05.17/outbox.cif.g08.bks.cpg/sg20_16_cif.got.tgz:30327.got - 2010.06.03 22:52:26.
