data_PCOD9318589
_publ_section_title
;
Structure prediction by ZEFSAII (Michael W. Deem and Ramdas Pophale) SiO2 
 PCOD9318589
Probable space group: C 2 2 21
;
_chemical_formula_sum "Si O2"
_cell_formula_units_Z 32
_cell_length_a 12.347256
_cell_length_b 7.238868
_cell_length_c 15.384153
_cell_angle_alpha 90.000000
_cell_angle_beta 90.000000
_cell_angle_gamma 90.000000
_cell_volume 1375.038000
_symmetry_space_group_name_H-M "C 2 2 21"
_symmetry_group_IT_number 20
_symmetry_cell_setting 'orthorhombic'
loop_
_space_group_symop_operation_xyz
x,y,z
-x,-y,1/2+z
x,-y,-z
-x,y,1/2-z
1/2+x,1/2+y,z
1/2-x,1/2-y,1/2+z
1/2+x,1/2-y,-z
1/2-x,1/2+y,1/2-z
loop_
_atom_site_type_symbol
_atom_site_label
_atom_site_fract_x
_atom_site_fract_y
_atom_site_fract_z
Si Si1 0.297507 0.542132 0.635049
Si Si2 0.369849 0.760103 0.909214
Si Si3 0.220676 0.531344 0.176682
Si Si4 0.481947 0.500000 0.500000
Si Si5 0.000000 0.411676 0.750000
O O1 0.194718 0.450560 0.587938
O O2 0.289676 0.469717 0.733969
O O3 0.287557 0.762894 0.639198
O O4 0.404025 0.485008 0.583029
O O5 0.278104 0.608278 0.887943
O O6 0.443103 0.679305 0.985531
O O7 0.446023 0.786467 0.824507
O O8 0.098773 0.477956 0.206157
#
# Coordination Sequence:
#
# PCOD9318589 Si02
#       5
#     8   8   8   4   4
#     4  11  24  45  72 104 137 181 242 287 344 426
#     4  11  24  44  67  98 140 181 225 294 347 415
#     4  11  21  46  72  99 135 184 240 286 339 425
#     4  12  26  46  68 102 154 180 226 306 364 398
#     4  10  20  42  66 100 130 168 238 280 326 420
#
# _framework density 23.272085000000001
#
# number of rings (size 3 to 8) (size 9 to 14) (size 15 to 20)
#    0.000    1.000    7.500    0.000    3.500    0.000 
#    9.000    5.000    0.000    0.000    0.000    0.000 
#    0.000    0.000    0.000    0.000    0.000    0.000 
#
# Total GULP energy -89489.338101 kJ/mol
# GULP energy per Si atom -5593.083631 kJ/mol
# Density = 2.321912 g / cm^3
# Si number density = 23.272085 Si / 1000 Ang^3
#
#
#
# Elastic Constant Matrix: (Units=GPa)
#
#
# Indices 1 2 3 4 5 6 
#
# 1 138.0319 28.2579 34.4363 0.0000 0.0000 0.0000
# 2 28.2579 44.7201 15.2441 0.0000 0.0000 0.0000
# 3 34.4363 15.2441 57.0534 0.0000 0.0000 0.0000
# 4 0.0000 0.0000 0.0000 33.7596 0.0000 0.0000
# 5 0.0000 0.0000 0.0000 0.0000 51.7964 0.0000
# 6 0.0000 0.0000 0.0000 0.0000 0.0000 45.7254
#
#
#
# Elastic Compliance Matrix: (Units=1/GPa)
#
#
# Indices 1 2 3 4 5 6 
#
# 1 0.009233 -0.004329 -0.004416 0.000000 0.000000 0.000000
# 2 -0.004329 0.026631 -0.004503 0.000000 0.000000 0.000000
# 3 -0.004416 -0.004503 0.021396 0.000000 0.000000 0.000000
# 4 0.000000 0.000000 0.000000 0.029621 0.000000 0.000000
# 5 0.000000 0.000000 0.000000 0.000000 0.019306 0.000000
# 6 0.000000 0.000000 0.000000 0.000000 0.000000 0.021870
#
#
# Mechanical properties :
#
#
# Convention : Reuss Voigt Hill
#
# Bulk Modulus (GPa) = 32.50468 43.96466 38.23467
# Shear Modulus (GPa) = 30.33845 37.04742 33.69294
#
# Velocity S-wave (km/s) = 3.61451 3.99422 3.80910
# Velocity P-wave (km/s) = 5.60510 6.34069 5.98421
#
# Compressibility (1/GPa) = 0.03076480
#
# Stress axis : x y z
#
# Youngs Moduli (GPa) = 108.31229 37.54964 46.73765
#
# Poissons Ratio (x) = 0.16254 0.20640
# Poissons Ratio (y) = 0.46884 0.21046
# Poissons Ratio (z) = 0.47831 0.16909
#
# Static dielectric constant tensor:
#      x y z
#    x 1.889880 0.000000 0.000000 
#    y 0.000000 1.852100 0.000000 
#    z 0.000000 0.000000 1.852630 
# 
# From -- ./inp_files/19500.got.cif
#   From: 2010.05.17/outbox.cif.g08.bks.cpg/sg20_10_cif.got.tgz:19500.got - 2010.06.03 22:52:26.
