data_PCOD9318613
_publ_section_title
;
Structure prediction by ZEFSAII (Michael W. Deem and Ramdas Pophale) SiO2 
 PCOD9318613
Probable space group: C 2 2 21
;
_chemical_formula_sum "Si O2"
_cell_formula_units_Z 40
_cell_length_a 17.129358
_cell_length_b 14.146027
_cell_length_c 7.485700
_cell_angle_alpha 90.000000
_cell_angle_beta 90.000000
_cell_angle_gamma 90.000000
_cell_volume 1813.877639
_symmetry_space_group_name_H-M "C 2 2 21"
_symmetry_group_IT_number 20
_symmetry_cell_setting 'orthorhombic'
loop_
_space_group_symop_operation_xyz
x,y,z
-x,-y,1/2+z
x,-y,-z
-x,y,1/2-z
1/2+x,1/2+y,z
1/2-x,1/2-y,1/2+z
1/2+x,1/2-y,-z
1/2-x,1/2+y,1/2-z
loop_
_atom_site_type_symbol
_atom_site_label
_atom_site_fract_x
_atom_site_fract_y
_atom_site_fract_z
Si Si1 0.500000 0.172805 0.750000
Si Si2 0.934987 0.625425 0.106442
Si Si3 0.777052 0.379252 0.725569
Si Si4 0.175322 0.000000 0.500000
Si Si5 0.915226 0.845472 0.207445
Si Si6 0.651446 0.260244 0.942581
O O1 0.535311 0.110201 0.591707
O O2 0.572286 0.232672 0.835531
O O3 0.849043 0.591317 0.151444
O O4 0.926984 0.740289 0.128221
O O5 0.000000 0.597400 0.250000
O O6 0.727661 0.467935 0.664610
O O7 0.718688 0.304892 0.819842
O O8 0.814471 0.330443 0.548710
O O9 0.126417 0.910806 0.434955
O O10 0.870741 0.830939 0.395025
O O11 0.000000 0.886148 0.250000
#
# Coordination Sequence:
#
# PCOD9318613 Si02
#       6
#     4   8   8   4   8   8
#     4  12  18  36  76 102 118 168 216 290 324 356
#     4  10  20  42  68  98 125 165 230 277 309 381
#     4  11  23  41  62 100 134 172 217 275 322 393
#     4  12  26  38  64  92 146 182 202 264 350 386
#     4  10  21  42  60  97 136 170 216 264 325 402
#     4  11  22  39  72  94 131 168 231 271 317 385
#
# _framework density 22.052202999999999
#
# number of rings (size 3 to 8) (size 9 to 14) (size 15 to 20)
#    0.000    1.200    6.000    4.800    0.000    2.400 
#    1.800    0.000    2.200    0.000    0.000    0.000 
#    0.000    0.000    0.000    0.000    0.000    0.000 
#
# Total GULP energy -111885.737166 kJ/mol
# GULP energy per Si atom -5594.286858 kJ/mol
# Density = 2.200201 g / cm^3
# Si number density = 22.052203 Si / 1000 Ang^3
#
#
#
# Elastic Constant Matrix: (Units=GPa)
#
#
# Indices 1 2 3 4 5 6 
#
# 1 129.4872 20.9868 39.6811 0.0000 0.0000 0.0000
# 2 20.9868 45.6344 19.3417 0.0000 0.0000 0.0000
# 3 39.6811 19.3417 111.7643 0.0000 0.0000 0.0000
# 4 0.0000 0.0000 0.0000 8.9928 0.0000 0.0000
# 5 0.0000 0.0000 0.0000 0.0000 59.2871 0.0000
# 6 0.0000 0.0000 0.0000 0.0000 0.0000 -16.3955
#
#
#
# Elastic Compliance Matrix: (Units=1/GPa)
#
#
# Indices 1 2 3 4 5 6 
#
# 1 0.009035 -0.003017 -0.002686 0.000000 0.000000 0.000000
# 2 -0.003017 0.024655 -0.003196 0.000000 0.000000 0.000000
# 3 -0.002686 -0.003196 0.010454 0.000000 0.000000 0.000000
# 4 0.000000 0.000000 0.000000 0.111200 0.000000 0.000000
# 5 0.000000 0.000000 0.000000 0.000000 0.016867 0.000000
# 6 0.000000 0.000000 0.000000 0.000000 0.000000 -0.060992
#
#
# Mechanical properties :
#
#
# Convention : Reuss Voigt Hill
#
# Bulk Modulus (GPa) = 37.95400 49.65613 43.80506
# Shear Modulus (GPa) = 36.28522 24.16862 30.22692
#
# Velocity S-wave (km/s) = 4.06078 3.31414 3.70631
# Velocity P-wave (km/s) = 6.26378 6.10009 6.18248
#
# Compressibility (1/GPa) = 0.02634768
#
# Stress axis : x y z
#
# Youngs Moduli (GPa) = 110.68419 40.55954 95.65745
#
# Poissons Ratio (x) = 0.12236 0.25690
# Poissons Ratio (y) = 0.33390 0.30569
# Poissons Ratio (z) = 0.29726 0.12962
#
# Static dielectric constant tensor:
#      x y z
#    x 1.806840 0.000000 0.000000 
#    y 0.000000 1.803110 0.000000 
#    z 0.000000 0.000000 1.820640 
# 
# From -- ./inp_files/8152.got.cif
#   From: 2010.05.17/outbox.cif.g08.bks.cpg/sg20_5_cif.got.tgz:8152.got - 2010.06.03 22:52:26.
