data_PCOD9318032
_publ_section_title
;
Structure prediction by ZEFSAII (Michael W. Deem and Ramdas Pophale) SiO2 
 PCOD9318032
Probable space group: C 2 2 21
;
_chemical_formula_sum "Si O2"
_cell_formula_units_Z 64
_cell_length_a 13.014489
_cell_length_b 9.179370
_cell_length_c 24.521831
_cell_angle_alpha 90.000000
_cell_angle_beta 90.000000
_cell_angle_gamma 90.000000
_cell_volume 2929.495879
_symmetry_space_group_name_H-M "C 2 2 21"
_symmetry_group_IT_number 20
_symmetry_cell_setting 'orthorhombic'
loop_
_space_group_symop_operation_xyz
x,y,z
-x,-y,1/2+z
x,-y,-z
-x,y,1/2-z
1/2+x,1/2+y,z
1/2-x,1/2-y,1/2+z
1/2+x,1/2-y,-z
1/2-x,1/2+y,1/2-z
loop_
_atom_site_type_symbol
_atom_site_label
_atom_site_fract_x
_atom_site_fract_y
_atom_site_fract_z
Si Si1 0.175281 0.790446 0.369224
Si Si2 0.118571 0.408974 0.179635
Si Si3 0.282632 0.653895 0.682064
Si Si4 0.667172 0.113153 0.274916
Si Si5 0.651369 0.566126 0.440912
Si Si6 0.088211 0.418638 0.556301
Si Si7 0.127302 0.673085 0.092772
Si Si8 0.427950 0.202478 0.871915
O O1 0.277963 0.822409 0.335219
O O2 0.110852 0.695176 0.325180
O O3 0.176715 0.690024 0.423057
O O4 0.142523 0.944365 0.393552
O O5 0.115637 0.486391 0.238215
O O6 0.119147 0.540728 0.136034
O O7 0.024955 0.303290 0.166885
O O8 0.314461 0.756367 0.732193
O O9 0.259442 0.487038 0.699206
O O10 0.356304 0.682973 0.629978
O O11 0.175217 0.724890 0.662112
O O12 0.632833 0.500000 0.500000
O O13 0.766906 0.636498 0.439554
O O14 0.570697 0.686800 0.422000
O O15 0.106227 0.500000 0.500000
O O16 0.083740 0.546092 0.600531
O O17 0.977925 0.334976 0.558390
#
# Coordination Sequence:
#
# PCOD9318032 Si02
#       8
#     8   8   8   8   8   8   8   8
#     4  11  22  39  59  89 124 157 206 260 301 370
#     4   9  20  39  60  84 121 161 196 246 309 368
#     4  10  20  37  62  87 119 160 202 248 308 369
#     4  11  20  38  62  85 123 161 200 249 308 371
#     4  10  20  39  63  89 123 165 204 261 316 362
#     4  11  21  38  62  91 120 162 212 259 305 360
#     4   8  19  37  61  86 119 159 208 246 299 376
#     4  10  21  39  61  87 119 165 208 245 302 380
#
# _framework density 21.846762999999999
#
# number of rings (size 3 to 8) (size 9 to 14) (size 15 to 20)
#    0.000    2.000    2.500    1.875    0.000    0.500 
#    4.500    0.625    2.750    0.000    0.000    0.000 
#    0.000    0.000    0.000    0.000    0.000    0.000 
#
# Total GULP energy -178318.576489 kJ/mol
# GULP energy per Si atom -5572.455515 kJ/mol
# Density = 2.179704 g / cm^3
# Si number density = 21.846763 Si / 1000 Ang^3
#
#
#
# Elastic Constant Matrix: (Units=GPa)
#
#
# Indices 1 2 3 4 5 6 
#
# 1 41.5278 8.2418 18.0471 0.0000 0.0000 0.0000
# 2 8.2418 84.6481 5.1280 0.0000 0.0000 0.0000
# 3 18.0471 5.1280 59.5841 0.0000 0.0000 0.0000
# 4 0.0000 0.0000 0.0000 37.0121 0.0000 0.0000
# 5 0.0000 0.0000 0.0000 0.0000 22.8791 0.0000
# 6 0.0000 0.0000 0.0000 0.0000 0.0000 3.0149
#
#
#
# Elastic Compliance Matrix: (Units=1/GPa)
#
#
# Indices 1 2 3 4 5 6 
#
# 1 0.028145 -0.002236 -0.008332 0.000000 0.000000 0.000000
# 2 -0.002236 0.012053 -0.000360 0.000000 0.000000 0.000000
# 3 -0.008332 -0.000360 0.019338 0.000000 0.000000 0.000000
# 4 0.000000 0.000000 0.000000 0.027018 0.000000 0.000000
# 5 0.000000 0.000000 0.000000 0.000000 0.043708 0.000000
# 6 0.000000 0.000000 0.000000 0.000000 0.000000 0.331690
#
#
# Mechanical properties :
#
#
# Convention : Reuss Voigt Hill
#
# Bulk Modulus (GPa) = 26.53952 27.62155 27.08054
# Shear Modulus (GPa) = 10.07317 22.87073 16.47195
#
# Velocity S-wave (km/s) = 2.14961 3.23905 2.74884
# Velocity P-wave (km/s) = 4.28200 5.16327 4.74315
#
# Compressibility (1/GPa) = 0.03767965
#
# Stress axis : x y z
#
# Youngs Moduli (GPa) = 35.53027 82.96615 51.71234
#
# Poissons Ratio (x) = 0.18548 0.43088
# Poissons Ratio (y) = 0.07943 0.01863
# Poissons Ratio (z) = 0.29605 0.02988
#
# Static dielectric constant tensor:
#      x y z
#    x 1.861860 0.000000 0.000000 
#    y 0.000000 1.819980 0.000000 
#    z 0.000000 0.000000 1.865860 
# 
# From -- ./inp_files/29348.got.cif
#   From: 2010.05.17/outbox.cif.g08.bks.cpg/sg20_15_cif.got.tgz:29348.got - 2010.06.03 22:52:26.
