data_PCOD9318795
_publ_section_title
;
Structure prediction by ZEFSAII (Michael W. Deem and Ramdas Pophale) SiO2 
 PCOD9318795
Probable space group: C 2 2 21
;
_chemical_formula_sum "Si O2"
_cell_formula_units_Z 56
_cell_length_a 13.944779
_cell_length_b 32.793603
_cell_length_c 5.183707
_cell_angle_alpha 90.000000
_cell_angle_beta 90.000000
_cell_angle_gamma 90.000000
_cell_volume 2370.506860
_symmetry_space_group_name_H-M "C 2 2 21"
_symmetry_group_IT_number 20
_symmetry_cell_setting 'orthorhombic'
loop_
_space_group_symop_operation_xyz
x,y,z
-x,-y,1/2+z
x,-y,-z
-x,y,1/2-z
1/2+x,1/2+y,z
1/2-x,1/2-y,1/2+z
1/2+x,1/2-y,-z
1/2-x,1/2+y,1/2-z
loop_
_atom_site_type_symbol
_atom_site_label
_atom_site_fract_x
_atom_site_fract_y
_atom_site_fract_z
Si Si1 0.066335 0.127330 0.001139
Si Si2 0.650925 0.713701 0.921083
Si Si3 0.188492 0.543830 0.043537
Si Si4 0.602047 0.157289 0.335834
Si Si5 0.890027 0.626029 0.662561
Si Si6 0.625870 0.758816 0.423063
Si Si7 0.184244 0.044656 0.956366
O O1 0.000000 0.128702 0.750000
O O2 0.134324 0.166965 0.990903
O O3 0.120418 0.084131 0.003130
O O4 0.000000 0.130625 0.250000
O O5 0.602626 0.742092 0.140931
O O6 0.613224 0.724003 0.636833
O O7 0.762318 0.726885 0.923348
O O8 0.229844 0.545836 0.331831
O O9 0.139752 0.500000 0.000000
O O10 0.125613 0.582293 0.963108
O O11 0.275004 0.545233 0.834613
O O12 0.500000 0.138177 0.250000
O O13 0.657007 0.132254 0.556046
O O14 0.578559 0.200480 0.464392
O O15 0.650057 0.157679 0.052698
O O16 0.000000 0.632394 0.750000
O O17 0.137138 0.000000 0.000000
#
# Coordination Sequence:
#
# PCOD9318795 Si02
#       7
#     8   8   8   8   8   8   8
#     4  12  26  43  64  97 129 165 209 260 333 386
#     4  10  23  39  59  88 123 156 212 256 301 374
#     4  10  21  39  63  91 122 163 212 255 311 375
#     4  10  21  36  57  87 119 160 205 244 302 360
#     4  10  21  36  56  90 127 158 204 255 301 365
#     4  10  21  40  60  88 121 164 207 253 305 359
#     4  10  23  43  66  95 123 162 214 261 315 385
#
# _framework density 23.623640999999999
#
# number of rings (size 3 to 8) (size 9 to 14) (size 15 to 20)
#    0.000    1.714    0.000    3.429    4.000    2.286 
#    0.000    4.286    0.000    0.000    0.000    0.000 
#    0.000    0.000    0.000    0.000    0.000    0.000 
#
# Total GULP energy -156491.979439 kJ/mol
# GULP energy per Si atom -5588.999266 kJ/mol
# Density = 2.356987 g / cm^3
# Si number density = 23.623641 Si / 1000 Ang^3
#
#
#
# Elastic Constant Matrix: (Units=GPa)
#
#
# Indices 1 2 3 4 5 6 
#
# 1 32.2893 20.2526 10.6758 0.0000 0.0000 0.0000
# 2 20.2526 165.3710 31.4698 0.0000 0.0000 0.0000
# 3 10.6758 31.4698 159.3624 0.0000 0.0000 0.0000
# 4 0.0000 0.0000 0.0000 40.0336 0.0000 0.0000
# 5 0.0000 0.0000 0.0000 0.0000 24.0204 0.0000
# 6 0.0000 0.0000 0.0000 0.0000 0.0000 36.2993
#
#
#
# Elastic Compliance Matrix: (Units=1/GPa)
#
#
# Indices 1 2 3 4 5 6 
#
# 1 0.033892 -0.003864 -0.001507 0.000000 0.000000 0.000000
# 2 -0.003864 0.006724 -0.001069 0.000000 0.000000 0.000000
# 3 -0.001507 -0.001069 0.006587 0.000000 0.000000 0.000000
# 4 0.000000 0.000000 0.000000 0.024979 0.000000 0.000000
# 5 0.000000 0.000000 0.000000 0.000000 0.041631 0.000000
# 6 0.000000 0.000000 0.000000 0.000000 0.000000 0.027549
#
#
# Mechanical properties :
#
#
# Convention : Reuss Voigt Hill
#
# Bulk Modulus (GPa) = 29.13561 53.53546 41.33553
# Shear Modulus (GPa) = 30.17818 39.71230 34.94524
#
# Velocity S-wave (km/s) = 3.57803 4.10450 3.85027
# Velocity P-wave (km/s) = 5.42492 6.72113 6.10751
#
# Compressibility (1/GPa) = 0.03432227
#
# Stress axis : x y z
#
# Youngs Moduli (GPa) = 29.50562 148.72959 151.81263
#
# Poissons Ratio (x) = 0.57466 0.22885
# Poissons Ratio (y) = 0.11400 0.16227
# Poissons Ratio (z) = 0.04448 0.15898
#
# Static dielectric constant tensor:
#      x y z
#    x 1.966690 0.000000 0.000000 
#    y 0.000000 1.899370 0.000000 
#    z 0.000000 0.000000 2.032530 
# 
# From -- ./inp_files/2236.got.cif
#   From: 2010.05.17/outbox.cif.g08.bks.cpg/sg20_2_cif.got.tgz:2236.got - 2010.06.03 22:52:26.
