data_PCOD9318084
_publ_section_title
;
Structure prediction by ZEFSAII (Michael W. Deem and Ramdas Pophale) SiO2 
 PCOD9318084
Probable space group: C 2 2 21
;
_chemical_formula_sum "Si O2"
_cell_formula_units_Z 60
_cell_length_a 27.809176
_cell_length_b 17.163432
_cell_length_c 6.783547
_cell_angle_alpha 90.000000
_cell_angle_beta 90.000000
_cell_angle_gamma 90.000000
_cell_volume 3237.793097
_symmetry_space_group_name_H-M "C 2 2 21"
_symmetry_group_IT_number 20
_symmetry_cell_setting 'orthorhombic'
loop_
_space_group_symop_operation_xyz
x,y,z
-x,-y,1/2+z
x,-y,-z
-x,y,1/2-z
1/2+x,1/2+y,z
1/2-x,1/2-y,1/2+z
1/2+x,1/2-y,-z
1/2-x,1/2+y,1/2-z
loop_
_atom_site_type_symbol
_atom_site_label
_atom_site_fract_x
_atom_site_fract_y
_atom_site_fract_z
Si Si1 0.353458 0.213423 0.292754
Si Si2 0.315061 0.411252 0.927003
Si Si3 0.193430 0.315056 0.398290
Si Si4 0.000000 0.835079 0.750000
Si Si5 0.298661 0.679503 0.426141
Si Si6 0.792101 0.408647 0.458985
Si Si7 0.921338 0.907245 0.041385
Si Si8 0.047993 0.214093 0.862616
O O1 0.328290 0.290926 0.385779
O O2 0.326241 0.141954 0.399614
O O3 0.408920 0.225694 0.338480
O O4 0.345859 0.200516 0.062263
O O5 0.312705 0.398906 0.690037
O O6 0.314791 0.500000 0.000000
O O7 0.263604 0.380011 0.009987
O O8 0.366796 0.379132 0.995758
O O9 0.243577 0.320479 0.513023
O O10 0.193949 0.244683 0.242386
O O11 0.190937 0.390848 0.262177
O O12 0.966136 0.793206 0.590439
O O13 0.037945 0.879504 0.611214
O O14 0.793626 0.500000 0.500000
O O15 0.936214 0.867728 0.251851
O O16 0.920286 0.000000 0.000000
O O17 0.000000 0.239345 0.750000
#
# Coordination Sequence:
#
# PCOD9318084 Si02
#       8
#     8   8   8   4   8   8   8   8
#     4  11  22  37  63  87 115 161 203 253 313 369
#     4  10  20  38  53  82 129 163 203 252 303 370
#     4  11  20  33  59  85 118 156 203 253 293 367
#     4  10  22  40  58  84 116 152 204 256 306 352
#     4  11  19  33  54  86 114 157 203 244 294 360
#     4  10  23  39  56  87 126 161 199 247 312 387
#     4  10  22  36  58  81 116 162 200 251 303 357
#     4  10  23  39  59  87 114 149 203 260 302 365
#
# _framework density 18.531141000000002
#
# number of rings (size 3 to 8) (size 9 to 14) (size 15 to 20)
#    0.000    1.600    2.667    2.400    4.667    3.733 
#    0.000    0.000    0.000    0.000    5.200    0.000 
#    0.000    0.000    0.000    0.000    0.000    0.000 
#
# Total GULP energy -167224.781812 kJ/mol
# GULP energy per Si atom -5574.159394 kJ/mol
# Density = 1.848896 g / cm^3
# Si number density = 18.531141 Si / 1000 Ang^3
#
#
#
# Elastic Constant Matrix: (Units=GPa)
#
#
# Indices 1 2 3 4 5 6 
#
# 1 127.0402 38.2456 36.6011 0.0000 0.0000 0.0000
# 2 38.2456 69.7027 40.1484 0.0000 0.0000 0.0000
# 3 36.6011 40.1484 120.6098 0.0000 0.0000 0.0000
# 4 0.0000 0.0000 0.0000 26.7475 0.0000 0.0000
# 5 0.0000 0.0000 0.0000 0.0000 22.5492 0.0000
# 6 0.0000 0.0000 0.0000 0.0000 0.0000 25.1212
#
#
#
# Elastic Compliance Matrix: (Units=1/GPa)
#
#
# Indices 1 2 3 4 5 6 
#
# 1 0.009627 -0.004453 -0.001439 0.000000 0.000000 0.000000
# 2 -0.004453 0.019810 -0.005243 0.000000 0.000000 0.000000
# 3 -0.001439 -0.005243 0.010473 0.000000 0.000000 0.000000
# 4 0.000000 0.000000 0.000000 0.037387 0.000000 0.000000
# 5 0.000000 0.000000 0.000000 0.000000 0.044348 0.000000
# 6 0.000000 0.000000 0.000000 0.000000 0.000000 0.039807
#
#
# Mechanical properties :
#
#
# Convention : Reuss Voigt Hill
#
# Bulk Modulus (GPa) = 56.69085 60.81588 58.75336
# Shear Modulus (GPa) = 26.37110 28.37408 27.37259
#
# Velocity S-wave (km/s) = 3.77645 3.91724 3.84749
# Velocity P-wave (km/s) = 7.04798 7.30405 7.17716
#
# Compressibility (1/GPa) = 0.01763953
#
# Stress axis : x y z
#
# Youngs Moduli (GPa) = 103.87686 50.47944 95.48241
#
# Poissons Ratio (x) = 0.22480 0.13740
# Poissons Ratio (y) = 0.46260 0.50060
# Poissons Ratio (z) = 0.14948 0.26466
#
# Static dielectric constant tensor:
#      x y z
#    x 1.643550 0.000000 0.000000 
#    y 0.000000 1.689970 0.000000 
#    z 0.000000 0.000000 1.700900 
# 
# From -- ./inp_files/4344.got.cif
#   From: 2010.05.17/outbox.cif.g08.bks.cpg/sg20_3_cif.got.tgz:4344.got - 2010.06.03 22:52:26.
