data_PCOD9318373
_publ_section_title
;
Structure prediction by ZEFSAII (Michael W. Deem and Ramdas Pophale) SiO2 
 PCOD9318373
Probable space group: C 2 2 21
;
_chemical_formula_sum "Si O2"
_cell_formula_units_Z 36
_cell_length_a 24.858904
_cell_length_b 10.395182
_cell_length_c 7.421658
_cell_angle_alpha 90.000000
_cell_angle_beta 90.000000
_cell_angle_gamma 90.000000
_cell_volume 1917.851657
_symmetry_space_group_name_H-M "C 2 2 21"
_symmetry_group_IT_number 20
_symmetry_cell_setting 'orthorhombic'
loop_
_space_group_symop_operation_xyz
x,y,z
-x,-y,1/2+z
x,-y,-z
-x,y,1/2-z
1/2+x,1/2+y,z
1/2-x,1/2-y,1/2+z
1/2+x,1/2-y,-z
1/2-x,1/2+y,1/2-z
loop_
_atom_site_type_symbol
_atom_site_label
_atom_site_fract_x
_atom_site_fract_y
_atom_site_fract_z
Si Si1 0.150620 0.083308 0.281813
Si Si2 0.500000 0.180392 0.250000
Si Si3 0.894078 0.818223 0.152540
Si Si4 0.248604 0.000000 0.500000
Si Si5 0.571092 0.000000 0.000000
Si Si6 0.657014 0.801186 0.998325
O O1 0.132041 0.169048 0.454389
O O2 0.207981 0.020417 0.333809
O O3 0.155829 0.169874 0.107961
O O4 0.109727 0.963888 0.271096
O O5 0.454912 0.266564 0.151388
O O6 0.466738 0.086366 0.378029
O O7 0.860597 0.729216 0.292514
O O8 0.286901 0.123875 0.511871
O O9 0.612419 0.103115 0.914846
#
# Coordination Sequence:
#
# PCOD9318373 Si02
#       6
#     8   4   8   4   4   8
#     4  10  22  39  59  88 116 151 193 232 289 349
#     4  10  20  40  60  82 118 150 192 240 288 344
#     4   9  21  40  56  88 118 144 195 239 276 349
#     4   9  22  36  60  90 114 150 198 227 286 350
#     4   9  22  36  60  88 112 152 196 231 288 352
#     4  10  20  41  58  85 122 148 187 245 281 336
#
# _framework density 18.771004999999999
#
# number of rings (size 3 to 8) (size 9 to 14) (size 15 to 20)
#    0.000    2.667    0.000    0.667    9.333    0.000 
#   16.000    0.000    0.000    0.000    0.000    0.000 
#    0.000    0.000    0.000    0.000    0.000    0.000 
#
# Total GULP energy -100276.071303 kJ/mol
# GULP energy per Si atom -5570.892850 kJ/mol
# Density = 1.872828 g / cm^3
# Si number density = 18.771005 Si / 1000 Ang^3
#
#
#
# Elastic Constant Matrix: (Units=GPa)
#
#
# Indices 1 2 3 4 5 6 
#
# 1 111.0766 35.0788 19.2492 0.0000 0.0000 0.0000
# 2 35.0788 75.8587 11.4945 0.0000 0.0000 0.0000
# 3 19.2492 11.4945 40.4966 0.0000 0.0000 0.0000
# 4 0.0000 0.0000 0.0000 30.8280 0.0000 0.0000
# 5 0.0000 0.0000 0.0000 0.0000 6.3263 0.0000
# 6 0.0000 0.0000 0.0000 0.0000 0.0000 389.3149
#
#
#
# Elastic Compliance Matrix: (Units=1/GPa)
#
#
# Indices 1 2 3 4 5 6 
#
# 1 0.011130 -0.004541 -0.004002 0.000000 0.000000 0.000000
# 2 -0.004541 0.015627 -0.002277 0.000000 0.000000 0.000000
# 3 -0.004002 -0.002277 0.027242 0.000000 0.000000 0.000000
# 4 0.000000 0.000000 0.000000 0.032438 0.000000 0.000000
# 5 0.000000 0.000000 0.000000 0.000000 0.158070 0.000000
# 6 0.000000 0.000000 0.000000 0.000000 0.000000 0.002569
#
#
# Mechanical properties :
#
#
# Convention : Reuss Voigt Hill
#
# Bulk Modulus (GPa) = 30.90226 39.89745 35.39985
# Shear Modulus (GPa) = 17.88901 96.06783 56.97842
#
# Velocity S-wave (km/s) = 3.09044 7.16170 5.51547
# Velocity P-wave (km/s) = 5.40675 9.47035 7.71105
#
# Compressibility (1/GPa) = 0.03236010
#
# Stress axis : x y z
#
# Youngs Moduli (GPa) = 89.84562 63.99136 36.70808
#
# Poissons Ratio (x) = 0.29055 0.14690
# Poissons Ratio (y) = 0.40794 0.08360
# Poissons Ratio (z) = 0.35954 0.14573
#
# Static dielectric constant tensor:
#      x y z
#    x 1.670370 0.000000 0.000000 
#    y 0.000000 1.678600 0.000000 
#    z 0.000000 0.000000 1.318040 
# 
# From -- ./inp_files/10944.got.cif
#   From: 2010.05.17/outbox.cif.g08.bks.cpg/sg20_6_cif.got.tgz:10944.got - 2010.06.03 22:52:26.
