data_PCOD9318431
_publ_section_title
;
Structure prediction by ZEFSAII (Michael W. Deem and Ramdas Pophale) SiO2 
 PCOD9318431
Probable space group: C 2 2 21
;
_chemical_formula_sum "Si O2"
_cell_formula_units_Z 48
_cell_length_a 9.005015
_cell_length_b 17.725352
_cell_length_c 13.329667
_cell_angle_alpha 90.000000
_cell_angle_beta 90.000000
_cell_angle_gamma 90.000000
_cell_volume 2127.642266
_symmetry_space_group_name_H-M "C 2 2 21"
_symmetry_group_IT_number 20
_symmetry_cell_setting 'orthorhombic'
loop_
_space_group_symop_operation_xyz
x,y,z
-x,-y,1/2+z
x,-y,-z
-x,y,1/2-z
1/2+x,1/2+y,z
1/2-x,1/2-y,1/2+z
1/2+x,1/2-y,-z
1/2-x,1/2+y,1/2-z
loop_
_atom_site_type_symbol
_atom_site_label
_atom_site_fract_x
_atom_site_fract_y
_atom_site_fract_z
Si Si1 0.179698 0.588652 0.473232
Si Si2 0.500000 0.697521 0.750000
Si Si3 0.000000 0.699875 0.750000
Si Si4 0.250637 0.233229 0.898823
Si Si5 0.180409 0.559657 0.252904
Si Si6 0.742629 0.593045 0.670536
Si Si7 0.325853 0.115439 0.465470
O O1 0.203839 0.500000 0.500000
O O2 0.247376 0.650607 0.548959
O O3 0.225568 0.599026 0.356527
O O4 0.002529 0.604016 0.473718
O O5 0.612663 0.741534 0.821538
O O6 0.599248 0.643057 0.683237
O O7 0.098882 0.741717 0.666378
O O8 0.117029 0.645738 0.805100
O O9 0.226091 0.298114 0.979965
O O10 0.248672 0.476211 0.246656
O O11 0.222605 0.596989 0.147589
O O12 0.000000 0.552256 0.250000
O O13 0.758506 0.568411 0.556418
#
# Coordination Sequence:
#
# PCOD9318431 Si02
#       7
#     8   4   4   8   8   8   8
#     4  11  22  43  73  99 130 185 240 275 329 415
#     4  10  26  38  66  92 146 172 222 276 354 394
#     4  10  20  40  66  88 128 176 234 264 338 404
#     4  11  25  42  67 104 136 184 222 286 342 410
#     4  10  21  39  69  99 130 170 239 284 324 403
#     4  11  20  42  65  96 127 179 226 281 335 403
#     4  11  24  37  69  99 137 171 228 288 332 398
#
# _framework density 22.560182999999999
#
# number of rings (size 3 to 8) (size 9 to 14) (size 15 to 20)
#    0.000    1.333    2.500    4.500    5.833    1.333 
#    0.000    5.833    0.000    0.000    0.000    0.000 
#    0.000    0.000    0.000    0.000    0.000    0.000 
#
# Total GULP energy -134107.721462 kJ/mol
# GULP energy per Si atom -5587.821728 kJ/mol
# Density = 2.250883 g / cm^3
# Si number density = 22.560183 Si / 1000 Ang^3
#
#
#
# Elastic Constant Matrix: (Units=GPa)
#
#
# Indices 1 2 3 4 5 6 
#
# 1 62.8711 5.1795 14.8173 0.0000 0.0000 0.0000
# 2 5.1795 59.1437 8.0352 0.0000 0.0000 0.0000
# 3 14.8173 8.0352 119.7435 0.0000 0.0000 0.0000
# 4 0.0000 0.0000 0.0000 22.5380 0.0000 0.0000
# 5 0.0000 0.0000 0.0000 0.0000 15.2274 0.0000
# 6 0.0000 0.0000 0.0000 0.0000 0.0000 5.8285
#
#
#
# Elastic Compliance Matrix: (Units=1/GPa)
#
#
# Indices 1 2 3 4 5 6 
#
# 1 0.016464 -0.001176 -0.001958 0.000000 0.000000 0.000000
# 2 -0.001176 0.017147 -0.001005 0.000000 0.000000 0.000000
# 3 -0.001958 -0.001005 0.008661 0.000000 0.000000 0.000000
# 4 0.000000 0.000000 0.000000 0.044370 0.000000 0.000000
# 5 0.000000 0.000000 0.000000 0.000000 0.065671 0.000000
# 6 0.000000 0.000000 0.000000 0.000000 0.000000 0.171571
#
#
# Mechanical properties :
#
#
# Convention : Reuss Voigt Hill
#
# Bulk Modulus (GPa) = 29.41712 33.09136 31.25424
# Shear Modulus (GPa) = 14.55628 22.96720 18.76174
#
# Velocity S-wave (km/s) = 2.54287 3.19414 2.88693
# Velocity P-wave (km/s) = 4.65718 5.32008 4.99963
#
# Compressibility (1/GPa) = 0.03399381
#
# Stress axis : x y z
#
# Youngs Moduli (GPa) = 60.73874 58.31758 115.46057
#
# Poissons Ratio (x) = 0.06857 0.22612
# Poissons Ratio (y) = 0.07141 0.11606
# Poissons Ratio (z) = 0.11895 0.05862
#
# Static dielectric constant tensor:
#      x y z
#    x 1.882780 0.000000 0.000000 
#    y 0.000000 1.871200 0.000000 
#    z 0.000000 0.000000 1.868660 
# 
# From -- ./inp_files/19080.got.cif
#   From: 2010.05.17/outbox.cif.g08.bks.cpg/sg20_10_cif.got.tgz:19080.got - 2010.06.03 22:52:26.
