data_PCOD9318336
_publ_section_title
;
Structure prediction by ZEFSAII (Michael W. Deem and Ramdas Pophale) SiO2 
 PCOD9318336
Probable space group: C 2 2 21
;
_chemical_formula_sum "Si O2"
_cell_formula_units_Z 60
_cell_length_a 11.790138
_cell_length_b 21.328634
_cell_length_c 10.686657
_cell_angle_alpha 90.000000
_cell_angle_beta 90.000000
_cell_angle_gamma 90.000000
_cell_volume 2687.347328
_symmetry_space_group_name_H-M "C 2 2 21"
_symmetry_group_IT_number 20
_symmetry_cell_setting 'orthorhombic'
loop_
_space_group_symop_operation_xyz
x,y,z
-x,-y,1/2+z
x,-y,-z
-x,y,1/2-z
1/2+x,1/2+y,z
1/2-x,1/2-y,1/2+z
1/2+x,1/2-y,-z
1/2-x,1/2+y,1/2-z
loop_
_atom_site_type_symbol
_atom_site_label
_atom_site_fract_x
_atom_site_fract_y
_atom_site_fract_z
Si Si1 0.994041 0.553399 0.100257
Si Si2 0.599693 0.710438 0.053689
Si Si3 0.700549 0.878326 0.466276
Si Si4 0.268317 0.887000 0.547995
Si Si5 0.651694 0.500000 0.000000
Si Si6 0.476052 0.407936 0.889868
Si Si7 0.617224 0.784675 0.807419
Si Si8 0.793590 0.310041 0.291925
O O1 0.000000 0.538940 0.250000
O O2 0.120146 0.572111 0.061796
O O3 0.961898 0.500000 0.000000
O O4 0.902308 0.606082 0.059701
O O5 0.507560 0.656019 0.039268
O O6 0.617170 0.755403 0.172275
O O7 0.717412 0.672658 0.031088
O O8 0.581434 0.757922 0.941421
O O9 0.771605 0.943259 0.447442
O O10 0.670757 0.849435 0.330707
O O11 0.152167 0.923057 0.575222
O O12 0.287276 0.835665 0.658249
O O13 0.272389 0.853758 0.412657
O O14 0.564819 0.463964 0.909467
O O15 0.500000 0.387484 0.750000
O O16 0.500000 0.808529 0.750000
O O17 0.676913 0.727248 0.736729
#
# Coordination Sequence:
#
# PCOD9318336 Si02
#       8
#     8   8   8   8   4   8   8   8
#     4  12  30  49  78 102 147 192 246 314 375 470
#     4   9  21  41  66 105 134 189 231 296 355 438
#     4  10  23  46  75 104 144 191 248 295 386 446
#     4  11  26  41  66 110 139 191 241 308 375 435
#     4  10  24  44  72  96 128 192 234 292 360 440
#     4  11  24  42  67  96 142 180 243 298 364 436
#     4  10  20  39  65  96 142 190 231 289 363 431
#     4  10  22  42  73 104 148 180 247 301 359 453
#
# _framework density 22.326848999999999
#
# number of rings (size 3 to 8) (size 9 to 14) (size 15 to 20)
#    0.000    1.600    0.667    2.000   10.267    1.067 
#   14.400    1.333    0.000    0.000    0.000    0.000 
#    0.000    0.000    0.000    0.000    0.000    0.000 
#
# Total GULP energy -167462.285463 kJ/mol
# GULP energy per Si atom -5582.076182 kJ/mol
# Density = 2.227603 g / cm^3
# Si number density = 22.326849 Si / 1000 Ang^3
#
#
#
# Elastic Constant Matrix: (Units=GPa)
#
#
# Indices 1 2 3 4 5 6 
#
# 1 118.8305 28.9165 45.8633 0.0000 0.0000 0.0000
# 2 28.9165 89.8353 46.7796 0.0000 0.0000 0.0000
# 3 45.8633 46.7796 117.5038 0.0000 0.0000 0.0000
# 4 0.0000 0.0000 0.0000 20.8360 0.0000 0.0000
# 5 0.0000 0.0000 0.0000 0.0000 -6.8125 0.0000
# 6 0.0000 0.0000 0.0000 0.0000 0.0000 34.7422
#
#
#
# Elastic Compliance Matrix: (Units=1/GPa)
#
#
# Indices 1 2 3 4 5 6 
#
# 1 0.010067 -0.001507 -0.003329 0.000000 0.000000 0.000000
# 2 -0.001507 0.014268 -0.005092 0.000000 0.000000 0.000000
# 3 -0.003329 -0.005092 0.011837 0.000000 0.000000 0.000000
# 4 0.000000 0.000000 0.000000 0.047994 0.000000 0.000000
# 5 0.000000 0.000000 0.000000 0.000000 -0.146789 0.000000
# 6 0.000000 0.000000 0.000000 0.000000 0.000000 0.028783
#
#
# Mechanical properties :
#
#
# Convention : Reuss Voigt Hill
#
# Bulk Modulus (GPa) = 61.29114 63.25428 62.27271
# Shear Modulus (GPa) = -585.20338 23.39380 -280.90479
#
# Velocity S-wave (km/s) = -16.20730 3.24047 -11.22889
# Velocity P-wave (km/s) = 17.96452 6.51102 11.83914
#
# Compressibility (1/GPa) = 0.01631557
#
# Stress axis : x y z
#
# Youngs Moduli (GPa) = 99.33439 70.08637 84.47968
#
# Poissons Ratio (x) = 0.10560 0.28127
# Poissons Ratio (y) = 0.14966 0.43019
# Poissons Ratio (z) = 0.33073 0.35690
#
# Static dielectric constant tensor:
#      x y z
#    x 1.815580 0.000000 0.000000 
#    y 0.000000 6.088110 0.000000 
#    z 0.000000 0.000000 1.851650 
# 
# From -- ./inp_files/14390.got.cif
#   From: 2010.05.17/outbox.cif.g08.bks.cpg/sg20_8_cif.got.tgz:14390.got - 2010.06.03 22:52:26.
