data_PCOD9318482
_publ_section_title
;
Structure prediction by ZEFSAII (Michael W. Deem and Ramdas Pophale) SiO2 
 PCOD9318482
Probable space group: C 2 2 21
;
_chemical_formula_sum "Si O2"
_cell_formula_units_Z 48
_cell_length_a 8.501902
_cell_length_b 16.586816
_cell_length_c 16.600481
_cell_angle_alpha 90.000000
_cell_angle_beta 90.000000
_cell_angle_gamma 90.000000
_cell_volume 2340.991267
_symmetry_space_group_name_H-M "C 2 2 21"
_symmetry_group_IT_number 20
_symmetry_cell_setting 'orthorhombic'
loop_
_space_group_symop_operation_xyz
x,y,z
-x,-y,1/2+z
x,-y,-z
-x,y,1/2-z
1/2+x,1/2+y,z
1/2-x,1/2-y,1/2+z
1/2+x,1/2-y,-z
1/2-x,1/2+y,1/2-z
loop_
_atom_site_type_symbol
_atom_site_label
_atom_site_fract_x
_atom_site_fract_y
_atom_site_fract_z
Si Si1 0.568298 0.500000 0.500000
Si Si2 0.500000 0.825246 0.750000
Si Si3 0.000000 0.945281 0.250000
Si Si4 0.000000 0.215098 0.250000
Si Si5 0.499279 0.070610 0.391048
Si Si6 0.766930 0.193663 0.800056
Si Si7 0.373572 0.580184 0.369558
Si Si8 0.141640 0.406105 0.065563
O O1 0.460842 0.563337 0.453095
O O2 0.688781 0.551492 0.553827
O O3 0.580942 0.883991 0.815298
O O4 0.393215 0.765399 0.802691
O O5 0.139288 0.886386 0.277831
O O6 0.074784 0.003379 0.183454
O O7 0.145713 0.274130 0.266870
O O8 0.058647 0.157251 0.178169
O O9 0.686317 0.082143 0.381674
O O10 0.433241 0.103460 0.476432
O O11 0.461049 0.975405 0.390930
O O12 0.669805 0.172272 0.880559
#
# Coordination Sequence:
#
# PCOD9318482 Si02
#       8
#     4   4   4   4   8   8   8   8
#     4  10  20  40  70  90 126 170 238 264 324 386
#     4  11  24  44  70  95 140 180 220 281 348 402
#     4  10  24  40  70  94 132 178 226 276 326 394
#     4  11  26  40  66  97 134 166 222 267 352 390
#     4  10  23  42  70  96 133 179 231 271 341 399
#     4  11  24  45  59 102 134 175 218 277 343 398
#     4  11  22  43  67  99 126 178 224 277 322 409
#     4  10  24  42  68  99 130 182 225 281 328 401
#
# _framework density 20.504134000000001
#
# number of rings (size 3 to 8) (size 9 to 14) (size 15 to 20)
#    0.000    1.667    3.333    1.000    9.333    0.000 
#    3.000    0.000    0.000    0.000    0.000    0.000 
#    0.000    0.000    0.000    0.000    0.000    0.000 
#
# Total GULP energy -133847.404589 kJ/mol
# GULP energy per Si atom -5576.975191 kJ/mol
# Density = 2.045747 g / cm^3
# Si number density = 20.504134 Si / 1000 Ang^3
#
#
#
# Elastic Constant Matrix: (Units=GPa)
#
#
# Indices 1 2 3 4 5 6 
#
# 1 97.0290 40.9763 36.0752 0.0000 0.0000 0.0000
# 2 40.9763 110.7874 64.4570 0.0000 0.0000 0.0000
# 3 36.0752 64.4570 83.3157 0.0000 0.0000 0.0000
# 4 0.0000 0.0000 0.0000 29.4217 0.0000 0.0000
# 5 0.0000 0.0000 0.0000 0.0000 31.8223 0.0000
# 6 0.0000 0.0000 0.0000 0.0000 0.0000 37.1497
#
#
#
# Elastic Compliance Matrix: (Units=1/GPa)
#
#
# Indices 1 2 3 4 5 6 
#
# 1 0.012722 -0.002729 -0.003397 0.000000 0.000000 0.000000
# 2 -0.002729 0.017000 -0.011971 0.000000 0.000000 0.000000
# 3 -0.003397 -0.011971 0.022735 0.000000 0.000000 0.000000
# 4 0.000000 0.000000 0.000000 0.033988 0.000000 0.000000
# 5 0.000000 0.000000 0.000000 0.000000 0.031424 0.000000
# 6 0.000000 0.000000 0.000000 0.000000 0.000000 0.026918
#
#
# Mechanical properties :
#
#
# Convention : Reuss Voigt Hill
#
# Bulk Modulus (GPa) = 61.48890 63.79436 62.64163
# Shear Modulus (GPa) = 26.82377 29.65366 28.23871
#
# Velocity S-wave (km/s) = 3.62085 3.80706 3.71512
# Velocity P-wave (km/s) = 6.89452 7.10671 7.00142
#
# Compressibility (1/GPa) = 0.01626310
#
# Stress axis : x y z
#
# Youngs Moduli (GPa) = 78.60596 58.82309 43.98580
#
# Poissons Ratio (x) = 0.16051 0.14944
# Poissons Ratio (y) = 0.21449 0.52654
# Poissons Ratio (z) = 0.26705 0.70415
#
# Static dielectric constant tensor:
#      x y z
#    x 1.776810 0.000000 0.000000 
#    y 0.000000 1.727520 0.000000 
#    z 0.000000 0.000000 1.807160 
# 
# From -- ./inp_files/23543.got.cif
#   From: 2010.05.17/outbox.cif.g08.bks.cpg/sg20_12_cif.got.tgz:23543.got - 2010.06.03 22:52:26.
