data_PCOD9318120
_publ_section_title
;
Structure prediction by ZEFSAII (Michael W. Deem and Ramdas Pophale) SiO2 
 PCOD9318120
Probable space group: C 2 2 21
;
_chemical_formula_sum "Si O2"
_cell_formula_units_Z 20
_cell_length_a 8.677147
_cell_length_b 11.060141
_cell_length_c 7.489156
_cell_angle_alpha 90.000000
_cell_angle_beta 90.000000
_cell_angle_gamma 90.000000
_cell_volume 718.737816
_symmetry_space_group_name_H-M "C 2 2 21"
_symmetry_group_IT_number 20
_symmetry_cell_setting 'orthorhombic'
loop_
_space_group_symop_operation_xyz
x,y,z
-x,-y,1/2+z
x,-y,-z
-x,y,1/2-z
1/2+x,1/2+y,z
1/2-x,1/2-y,1/2+z
1/2+x,1/2-y,-z
1/2-x,1/2+y,1/2-z
loop_
_atom_site_type_symbol
_atom_site_label
_atom_site_fract_x
_atom_site_fract_y
_atom_site_fract_z
Si Si1 0.026037 0.286694 0.494998
Si Si2 0.000000 0.066621 0.750000
Si Si3 0.748232 0.866803 0.808003
O O1 0.983412 0.155941 0.581901
O O2 0.135398 0.247788 0.331416
O O3 0.142857 0.349036 0.635235
O O4 0.868843 0.361418 0.523374
O O5 0.146938 0.983009 0.718299
#
# Coordination Sequence:
#
# PCOD9318120 Si02
#       3
#     8   4   8
#     4  10  23  39  61  91 122 162 202 251 305 364
#     4  10  20  38  60  82 118 162 200 246 300 352
#     4  10  20  39  61  86 122 158 202 250 302 362
#
# _framework density 27.826561000000002
#
# number of rings (size 3 to 8) (size 9 to 14) (size 15 to 20)
#    0.000    2.400    0.000    3.600    0.000    3.200 
#    0.000   48.000    0.000    0.000    0.000    0.000 
#    0.000    0.000    0.000    0.000    0.000    0.000 
#
# Total GULP energy -55999.897607 kJ/mol
# GULP energy per Si atom -5599.989761 kJ/mol
# Density = 2.776323 g / cm^3
# Si number density = 27.826561 Si / 1000 Ang^3
#
#
#
# Elastic Constant Matrix: (Units=GPa)
#
#
# Indices 1 2 3 4 5 6 
#
# 1 236.7446 90.8047 20.0519 0.0000 0.0000 0.0000
# 2 90.8047 162.5798 22.5954 0.0000 0.0000 0.0000
# 3 20.0519 22.5954 34.2355 0.0000 0.0000 0.0000
# 4 0.0000 0.0000 0.0000 32.2669 0.0000 0.0000
# 5 0.0000 0.0000 0.0000 0.0000 55.0399 0.0000
# 6 0.0000 0.0000 0.0000 0.0000 0.0000 74.8163
#
#
#
# Elastic Compliance Matrix: (Units=1/GPa)
#
#
# Indices 1 2 3 4 5 6 
#
# 1 0.005427 -0.002851 -0.001297 0.000000 0.000000 0.000000
# 2 -0.002851 0.008270 -0.003788 0.000000 0.000000 0.000000
# 3 -0.001297 -0.003788 0.032469 0.000000 0.000000 0.000000
# 4 0.000000 0.000000 0.000000 0.030992 0.000000 0.000000
# 5 0.000000 0.000000 0.000000 0.000000 0.018169 0.000000
# 6 0.000000 0.000000 0.000000 0.000000 0.000000 0.013366
#
#
# Mechanical properties :
#
#
# Convention : Reuss Voigt Hill
#
# Bulk Modulus (GPa) = 33.01008 77.82932 55.41970
# Shear Modulus (GPa) = 37.12969 52.43181 44.78075
#
# Velocity S-wave (km/s) = 3.65680 4.34549 4.01594
# Velocity P-wave (km/s) = 5.45144 7.29437 6.43918
#
# Compressibility (1/GPa) = 0.03029378
#
# Stress axis : x y z
#
# Youngs Moduli (GPa) = 184.25178 120.92384 30.79829
#
# Poissons Ratio (x) = 0.34476 0.03995
# Poissons Ratio (y) = 0.52531 0.11667
# Poissons Ratio (z) = 0.23900 0.45807
#
# Static dielectric constant tensor:
#      x y z
#    x 2.159850 0.000000 0.000000 
#    y 0.000000 2.110210 0.000000 
#    z 0.000000 0.000000 2.503030 
# 
# From -- ./inp_files/5395.got.cif
#   From: 2010.05.17/outbox.cif.g08.bks.cpg/sg20_3_cif.got.tgz:5395.got - 2010.06.03 22:52:26.
