data_PCOD9318277
_publ_section_title
;
Structure prediction by ZEFSAII (Michael W. Deem and Ramdas Pophale) SiO2 
 PCOD9318277
Probable space group: C 2 2 21
;
_chemical_formula_sum "Si O2"
_cell_formula_units_Z 52
_cell_length_a 28.262551
_cell_length_b 8.219238
_cell_length_c 10.654675
_cell_angle_alpha 90.000000
_cell_angle_beta 90.000000
_cell_angle_gamma 90.000000
_cell_volume 2475.045130
_symmetry_space_group_name_H-M "C 2 2 21"
_symmetry_group_IT_number 20
_symmetry_cell_setting 'orthorhombic'
loop_
_space_group_symop_operation_xyz
x,y,z
-x,-y,1/2+z
x,-y,-z
-x,y,1/2-z
1/2+x,1/2+y,z
1/2-x,1/2-y,1/2+z
1/2+x,1/2-y,-z
1/2-x,1/2+y,1/2-z
loop_
_atom_site_type_symbol
_atom_site_label
_atom_site_fract_x
_atom_site_fract_y
_atom_site_fract_z
Si Si1 0.620672 0.211056 0.826165
Si Si2 0.983912 0.367357 0.389686
Si Si3 0.817582 0.500000 0.500000
Si Si4 0.163841 0.163100 0.580699
Si Si5 0.197386 0.040492 0.201213
Si Si6 0.757457 0.271485 0.087331
Si Si7 0.416811 0.185146 0.953291
O O1 0.567080 0.215151 0.876522
O O2 0.648775 0.058607 0.886050
O O3 0.653229 0.365802 0.859263
O O4 0.613402 0.199845 0.675396
O O5 0.979015 0.500000 0.500000
O O6 0.000000 0.432448 0.250000
O O7 0.029560 0.260350 0.427438
O O8 0.783202 0.350118 0.535440
O O9 0.176158 0.108505 0.718368
O O10 0.201501 0.282096 0.517085
O O11 0.110905 0.219662 0.559846
O O12 0.170273 0.000000 0.500000
O O13 0.236388 0.944547 0.123951
O O14 0.221192 0.177244 0.290940
O O15 0.418808 0.000000 0.000000
#
# Coordination Sequence:
#
# PCOD9318277 Si02
#       7
#     8   8   4   8   8   8   8
#     4  11  22  41  64  92 130 167 214 272 329 396
#     4   9  19  39  67  97 130 170 221 276 339 403
#     4  12  24  40  62  88 128 172 206 272 322 384
#     4  10  20  39  59  90 126 161 216 267 314 379
#     4  11  23  40  64  88 128 172 218 264 329 382
#     4  11  23  40  59  89 129 169 214 265 317 387
#     4  10  21  37  67  97 121 168 216 266 325 385
#
# _framework density 21.009720000000002
#
# number of rings (size 3 to 8) (size 9 to 14) (size 15 to 20)
#    0.000    1.538    6.154    0.923    2.154    0.615 
#    0.000    0.000    3.385    0.000    0.000    0.000 
#    0.000    0.000    0.000    0.000    0.000    0.000 
#
# Total GULP energy -145110.597279 kJ/mol
# GULP energy per Si atom -5581.176818 kJ/mol
# Density = 2.096190 g / cm^3
# Si number density = 21.009720 Si / 1000 Ang^3
#
#
#
# Elastic Constant Matrix: (Units=GPa)
#
#
# Indices 1 2 3 4 5 6 
#
# 1 157.5866 46.4762 41.2172 0.0000 0.0000 0.0000
# 2 46.4762 49.5470 26.3990 0.0000 0.0000 0.0000
# 3 41.2172 26.3990 56.8294 0.0000 0.0000 0.0000
# 4 0.0000 0.0000 0.0000 26.5929 0.0000 0.0000
# 5 0.0000 0.0000 0.0000 0.0000 25.2207 0.0000
# 6 0.0000 0.0000 0.0000 0.0000 0.0000 -7.7673
#
#
#
# Elastic Compliance Matrix: (Units=1/GPa)
#
#
# Indices 1 2 3 4 5 6 
#
# 1 0.009289 -0.006809 -0.003574 0.000000 0.000000 0.000000
# 2 -0.006809 0.031812 -0.009840 0.000000 0.000000 0.000000
# 3 -0.003574 -0.009840 0.024759 0.000000 0.000000 0.000000
# 4 0.000000 0.000000 0.000000 0.037604 0.000000 0.000000
# 5 0.000000 0.000000 0.000000 0.000000 0.039650 0.000000
# 6 0.000000 0.000000 0.000000 0.000000 0.000000 -0.128744
#
#
# Mechanical properties :
#
#
# Convention : Reuss Voigt Hill
#
# Bulk Modulus (GPa) = 39.34561 54.68308 47.01435
# Shear Modulus (GPa) = 79.00657 18.80062 48.90359
#
# Velocity S-wave (km/s) = 6.13893 2.99466 4.82982
# Velocity P-wave (km/s) = 8.30762 6.16776 7.31635
#
# Compressibility (1/GPa) = 0.02541579
#
# Stress axis : x y z
#
# Youngs Moduli (GPa) = 107.65958 31.43455 40.38867
#
# Poissons Ratio (x) = 0.21403 0.14435
# Poissons Ratio (y) = 0.73302 0.39741
# Poissons Ratio (z) = 0.38477 0.30930
#
# Static dielectric constant tensor:
#      x y z
#    x 1.785660 0.000000 0.000000 
#    y 0.000000 1.751450 0.000000 
#    z 0.000000 0.000000 1.898760 
# 
# From -- ./inp_files/17003.got.cif
#   From: 2010.05.17/outbox.cif.g08.bks.cpg/sg20_9_cif.got.tgz:17003.got - 2010.06.03 22:52:26.
