data_PCOD9318244
_publ_section_title
;
Structure prediction by ZEFSAII (Michael W. Deem and Ramdas Pophale) SiO2 
 PCOD9318244
Probable space group: C 2 2 21
;
_chemical_formula_sum "Si O2"
_cell_formula_units_Z 52
_cell_length_a 13.187029
_cell_length_b 11.281533
_cell_length_c 13.564475
_cell_angle_alpha 90.000000
_cell_angle_beta 90.000000
_cell_angle_gamma 90.000000
_cell_volume 2017.985628
_symmetry_space_group_name_H-M "C 2 2 21"
_symmetry_group_IT_number 20
_symmetry_cell_setting 'orthorhombic'
loop_
_space_group_symop_operation_xyz
x,y,z
-x,-y,1/2+z
x,-y,-z
-x,y,1/2-z
1/2+x,1/2+y,z
1/2-x,1/2-y,1/2+z
1/2+x,1/2-y,-z
1/2-x,1/2+y,1/2-z
loop_
_atom_site_type_symbol
_atom_site_label
_atom_site_fract_x
_atom_site_fract_y
_atom_site_fract_z
Si Si1 0.858635 0.608697 0.075503
Si Si2 0.500000 0.129141 0.250000
Si Si3 0.694721 0.250254 0.149236
Si Si4 0.582023 0.469732 0.116535
Si Si5 0.658647 0.117910 0.946367
Si Si6 0.619180 0.380366 0.433709
Si Si7 0.346066 0.306300 0.691822
O O1 0.889486 0.741362 0.033263
O O2 0.752651 0.644112 0.129429
O O3 0.945157 0.570823 0.154999
O O4 0.847750 0.500000 0.000000
O O5 0.598986 0.195946 0.207374
O O6 0.684833 0.200692 0.039408
O O7 0.799162 0.218076 0.202066
O O8 0.676262 0.389270 0.146564
O O9 0.578589 0.412639 0.821709
O O10 0.591684 0.500000 0.000000
O O11 0.479279 0.396118 0.132299
O O12 0.767866 0.098626 0.892670
O O13 0.604129 0.193739 0.863504
O O14 0.620414 0.000000 0.000000
O O15 0.612055 0.500000 0.500000
#
# Coordination Sequence:
#
# PCOD9318244 Si02
#       7
#     8   4   8   8   8   8   8
#     4  10  20  38  67  96 132 180 234 286 352 427
#     4  10  22  42  60 100 130 186 222 292 354 428
#     4  11  23  40  66  98 138 175 243 283 354 431
#     4  11  20  40  67  96 133 187 235 289 351 430
#     4  10  22  42  64 100 139 178 230 297 353 421
#     4   9  20  39  66  94 134 183 229 282 353 419
#     4  10  23  38  65 100 131 186 232 288 356 424
#
# _framework density 25.768270999999999
#
# number of rings (size 3 to 8) (size 9 to 14) (size 15 to 20)
#    0.000    1.846    3.077    0.462    4.308    0.615 
#    0.000    0.000    0.000    0.923    0.000    0.000 
#    0.000    0.000    0.000    0.000    0.000    0.000 
#
# Total GULP energy -145120.874538 kJ/mol
# GULP energy per Si atom -5581.572098 kJ/mol
# Density = 2.570962 g / cm^3
# Si number density = 25.768271 Si / 1000 Ang^3
#
#
#
# Elastic Constant Matrix: (Units=GPa)
#
#
# Indices 1 2 3 4 5 6 
#
# 1 58.5680 13.5677 23.5514 0.0000 0.0000 0.0000
# 2 13.5677 82.5072 -8.8751 0.0000 0.0000 0.0000
# 3 23.5514 -8.8751 77.9964 0.0000 0.0000 0.0000
# 4 0.0000 0.0000 0.0000 23.1833 0.0000 0.0000
# 5 0.0000 0.0000 0.0000 0.0000 32.2779 0.0000
# 6 0.0000 0.0000 0.0000 0.0000 0.0000 28.2648
#
#
#
# Elastic Compliance Matrix: (Units=1/GPa)
#
#
# Indices 1 2 3 4 5 6 
#
# 1 0.020739 -0.004135 -0.006733 0.000000 0.000000 0.000000
# 2 -0.004135 0.013095 0.002739 0.000000 0.000000 0.000000
# 3 -0.006733 0.002739 0.015166 0.000000 0.000000 0.000000
# 4 0.000000 0.000000 0.000000 0.043135 0.000000 0.000000
# 5 0.000000 0.000000 0.000000 0.000000 0.030981 0.000000
# 6 0.000000 0.000000 0.000000 0.000000 0.000000 0.035380
#
#
# Mechanical properties :
#
#
# Convention : Reuss Voigt Hill
#
# Bulk Modulus (GPa) = 30.54204 30.61773 30.57989
# Shear Modulus (GPa) = 26.92993 29.46703 28.19848
#
# Velocity S-wave (km/s) = 3.23628 3.38529 3.31162
# Velocity P-wave (km/s) = 5.08360 5.21421 5.14932
#
# Compressibility (1/GPa) = 0.03274176
#
# Stress axis : x y z
#
# Youngs Moduli (GPa) = 48.21736 76.36709 65.93806
#
# Poissons Ratio (x) = 0.31575 0.44395
# Poissons Ratio (y) = 0.19936 -0.18057
# Poissons Ratio (z) = 0.32464 -0.20913
#
# Static dielectric constant tensor:
#      x y z
#    x 2.100820 0.000000 0.000000 
#    y 0.000000 2.101010 0.000000 
#    z 0.000000 0.000000 2.024240 
# 
# From -- ./inp_files/21418.got.cif
#   From: 2010.05.17/outbox.cif.g08.bks.cpg/sg20_11_cif.got.tgz:21418.got - 2010.06.03 22:52:26.
