data_PCOD9318152
_publ_section_title
;
Structure prediction by ZEFSAII (Michael W. Deem and Ramdas Pophale) SiO2 
 PCOD9318152
Probable space group: C 2 2 21
;
_chemical_formula_sum "Si O2"
_cell_formula_units_Z 48
_cell_length_a 5.325504
_cell_length_b 21.657045
_cell_length_c 18.691352
_cell_angle_alpha 90.000000
_cell_angle_beta 90.000000
_cell_angle_gamma 90.000000
_cell_volume 2155.761097
_symmetry_space_group_name_H-M "C 2 2 21"
_symmetry_group_IT_number 20
_symmetry_cell_setting 'orthorhombic'
loop_
_space_group_symop_operation_xyz
x,y,z
-x,-y,1/2+z
x,-y,-z
-x,y,1/2-z
1/2+x,1/2+y,z
1/2-x,1/2-y,1/2+z
1/2+x,1/2-y,-z
1/2-x,1/2+y,1/2-z
loop_
_atom_site_type_symbol
_atom_site_label
_atom_site_fract_x
_atom_site_fract_y
_atom_site_fract_z
Si Si1 0.027230 0.000000 0.000000
Si Si2 0.500000 0.553522 0.750000
Si Si3 0.000000 0.712507 0.250000
Si Si4 0.208129 0.620827 0.632857
Si Si5 0.876113 0.360704 0.607443
Si Si6 0.336970 0.994007 0.368132
Si Si7 0.500000 0.209013 0.750000
Si Si8 0.643756 0.363894 0.977914
O O1 0.859161 0.018828 0.932177
O O2 0.169227 0.938778 0.976890
O O3 0.418202 0.598025 0.686907
O O4 0.285019 0.513861 0.789049
O O5 0.094432 0.672065 0.183235
O O6 0.247489 0.752759 0.265712
O O7 0.045096 0.667543 0.679678
O O8 0.326184 0.650221 0.561902
O O9 0.049670 0.557646 0.620533
O O10 0.900341 0.434227 0.621664
O O11 0.616186 0.349913 0.563487
O O12 0.112788 0.338262 0.561297
#
# Coordination Sequence:
#
# PCOD9318152 Si02
#       8
#     4   4   4   8   8   8   4   8
#     4  10  20  38  62 102 152 182 214 270 368 442
#     4  12  23  37  64 106 151 181 238 282 358 426
#     4  12  29  53  72 103 140 193 260 306 354 434
#     4  12  24  43  71 107 146 179 244 298 367 434
#     4  11  27  45  74 103 148 192 237 290 364 431
#     4  11  23  39  66 107 145 187 224 290 359 445
#     4  12  28  48  78  99 141 194 248 322 370 394
#     4  11  23  43  70 106 143 191 228 293 359 445
#
# _framework density 22.265917000000002
#
# number of rings (size 3 to 8) (size 9 to 14) (size 15 to 20)
#    0.000    0.667    3.333    4.500    4.667    1.333 
#    0.000    3.333    0.000    0.000    0.000    0.000 
#    0.000    0.000    0.000    0.000    0.000    0.000 
#
# Total GULP energy -134154.545760 kJ/mol
# GULP energy per Si atom -5589.772740 kJ/mol
# Density = 2.221524 g / cm^3
# Si number density = 22.265917 Si / 1000 Ang^3
#
#
#
# Elastic Constant Matrix: (Units=GPa)
#
#
# Indices 1 2 3 4 5 6 
#
# 1 139.4029 51.9135 79.3387 0.0000 0.0000 0.0000
# 2 51.9135 54.3565 47.0794 0.0000 0.0000 0.0000
# 3 79.3387 47.0794 192.7294 0.0000 0.0000 0.0000
# 4 0.0000 0.0000 0.0000 -4.9580 0.0000 0.0000
# 5 0.0000 0.0000 0.0000 0.0000 47.2525 0.0000
# 6 0.0000 0.0000 0.0000 0.0000 0.0000 8.9544
#
#
#
# Elastic Compliance Matrix: (Units=1/GPa)
#
#
# Indices 1 2 3 4 5 6 
#
# 1 0.012188 -0.009252 -0.002757 0.000000 0.000000 0.000000
# 2 -0.009252 0.030358 -0.003607 0.000000 0.000000 0.000000
# 3 -0.002757 -0.003607 0.007205 0.000000 0.000000 0.000000
# 4 0.000000 0.000000 0.000000 -0.201694 0.000000 0.000000
# 5 0.000000 0.000000 0.000000 0.000000 0.021163 0.000000
# 6 0.000000 0.000000 0.000000 0.000000 0.000000 0.111677
#
#
# Mechanical properties :
#
#
# Convention : Reuss Voigt Hill
#
# Bulk Modulus (GPa) = 54.00255 82.57246 68.28750
# Shear Modulus (GPa) = 273.19302 24.12692 148.65997
#
# Velocity S-wave (km/s) = 11.08882 3.29535 8.17989
# Velocity P-wave (km/s) = 13.72062 7.18640 10.95216
#
# Compressibility (1/GPa) = 0.01851765
#
# Stress axis : x y z
#
# Youngs Moduli (GPa) = 82.04606 32.94069 138.79738
#
# Poissons Ratio (x) = 0.30478 0.38270
# Poissons Ratio (y) = 0.75912 0.50062
# Poissons Ratio (z) = 0.22622 0.11881
#
# Static dielectric constant tensor:
#      x y z
#    x 1.883100 0.000000 0.000000 
#    y 0.000000 1.829610 0.000000 
#    z 0.000000 0.000000 1.867500 
# 
# From -- ./inp_files/22848.got.cif
#   From: 2010.05.17/outbox.cif.g08.bks.cpg/sg20_12_cif.got.tgz:22848.got - 2010.06.03 22:52:26.
