data_PCOD9318989
_publ_section_title
;
Structure prediction by ZEFSAII (Michael W. Deem and Ramdas Pophale) SiO2 
 PCOD9318989
Probable space group: C 2 2 21
;
_chemical_formula_sum "Si O2"
_cell_formula_units_Z 40
_cell_length_a 11.097227
_cell_length_b 36.690770
_cell_length_c 5.058279
_cell_angle_alpha 90.000000
_cell_angle_beta 90.000000
_cell_angle_gamma 90.000000
_cell_volume 2059.558233
_symmetry_space_group_name_H-M "C 2 2 21"
_symmetry_group_IT_number 20
_symmetry_cell_setting 'orthorhombic'
loop_
_space_group_symop_operation_xyz
x,y,z
-x,-y,1/2+z
x,-y,-z
-x,y,1/2-z
1/2+x,1/2+y,z
1/2-x,1/2-y,1/2+z
1/2+x,1/2-y,-z
1/2-x,1/2+y,1/2-z
loop_
_atom_site_type_symbol
_atom_site_label
_atom_site_fract_x
_atom_site_fract_y
_atom_site_fract_z
Si Si1 0.635940 0.650840 0.644703
Si Si2 0.412797 0.541253 0.499256
Si Si3 0.261942 0.610681 0.365303
Si Si4 0.259969 0.773747 0.367850
Si Si5 0.500000 0.131937 0.250000
Si Si6 0.500000 0.815405 0.250000
O O1 0.500000 0.646672 0.750000
O O2 0.663955 0.626724 0.385303
O O3 0.668836 0.692699 0.584995
O O4 0.719855 0.637730 0.886948
O O5 0.362795 0.500000 0.500000
O O6 0.500000 0.543621 0.250000
O O7 0.314237 0.572361 0.464002
O O8 0.500000 0.547010 0.750000
O O9 0.122571 0.609434 0.284039
O O10 0.286488 0.753922 0.644411
O O11 0.382279 0.790427 0.249239
O O12 0.488037 0.158463 0.499156
#
# Coordination Sequence:
#
# PCOD9318989 Si02
#       6
#     8   8   8   8   4   4
#     4  12  25  41  62  92 122 156 209 264 314 364
#     4  10  21  38  64  97 129 163 202 253 316 371
#     4  12  22  41  64  93 124 165 208 254 304 370
#     4  12  26  42  61  87 118 163 206 264 317 368
#     4  12  22  42  64  91 124 170 216 252 298 379
#     4  12  24  46  62  85 126 168 216 258 312 385
#
# _framework density 19.421638000000002
#
# number of rings (size 3 to 8) (size 9 to 14) (size 15 to 20)
#    0.000    0.400    4.000    6.000    2.800    0.000 
#    0.000    0.000    0.000    7.200    0.000    0.000 
#    0.000    0.000    0.000    0.000    0.000    0.000 
#
# Total GULP energy -111899.689508 kJ/mol
# GULP energy per Si atom -5594.984475 kJ/mol
# Density = 1.937743 g / cm^3
# Si number density = 19.421638 Si / 1000 Ang^3
#
#
#
# Elastic Constant Matrix: (Units=GPa)
#
#
# Indices 1 2 3 4 5 6 
#
# 1 97.9591 58.0772 16.3275 0.0000 0.0000 0.0000
# 2 58.0772 126.2362 42.9500 0.0000 0.0000 0.0000
# 3 16.3275 42.9500 136.8013 0.0000 0.0000 0.0000
# 4 0.0000 0.0000 0.0000 33.3352 0.0000 0.0000
# 5 0.0000 0.0000 0.0000 0.0000 27.3682 0.0000
# 6 0.0000 0.0000 0.0000 0.0000 0.0000 35.6853
#
#
#
# Elastic Compliance Matrix: (Units=1/GPa)
#
#
# Indices 1 2 3 4 5 6 
#
# 1 0.014056 -0.006601 0.000395 0.000000 0.000000 0.000000
# 2 -0.006601 0.011969 -0.002970 0.000000 0.000000 0.000000
# 3 0.000395 -0.002970 0.008195 0.000000 0.000000 0.000000
# 4 0.000000 0.000000 0.000000 0.029998 0.000000 0.000000
# 5 0.000000 0.000000 0.000000 0.000000 0.036539 0.000000
# 6 0.000000 0.000000 0.000000 0.000000 0.000000 0.028023
#
#
# Mechanical properties :
#
#
# Convention : Reuss Voigt Hill
#
# Bulk Modulus (GPa) = 63.01993 66.18957 64.60475
# Shear Modulus (GPa) = 32.80364 35.52053 34.16208
#
# Velocity S-wave (km/s) = 4.11423 4.28122 4.19856
# Velocity P-wave (km/s) = 7.42213 7.65459 7.53926
#
# Compressibility (1/GPa) = 0.01586800
#
# Stress axis : x y z
#
# Youngs Moduli (GPa) = 71.14325 83.54843 122.02283
#
# Poissons Ratio (x) = 0.55151 -0.04818
# Poissons Ratio (y) = 0.46963 0.36240
# Poissons Ratio (z) = -0.02809 0.24814
#
# Static dielectric constant tensor:
#      x y z
#    x 1.677900 0.000000 0.000000 
#    y 0.000000 1.704710 0.000000 
#    z 0.000000 0.000000 1.660850 
# 
# From -- ./inp_files/1428.got.cif
#   From: 2010.05.17/outbox.cif.g08.bks.cpg/sg20_1_cif.got.tgz:1428.got - 2010.06.03 22:52:26.
