data_PCOD9318853
_publ_section_title
;
Structure prediction by ZEFSAII (Michael W. Deem and Ramdas Pophale) SiO2 
 PCOD9318853
Probable space group: C 2 2 21
;
_chemical_formula_sum "Si O2"
_cell_formula_units_Z 32
_cell_length_a 5.076454
_cell_length_b 36.755600
_cell_length_c 7.764386
_cell_angle_alpha 90.000000
_cell_angle_beta 90.000000
_cell_angle_gamma 90.000000
_cell_volume 1448.742130
_symmetry_space_group_name_H-M "C 2 2 21"
_symmetry_group_IT_number 20
_symmetry_cell_setting 'orthorhombic'
loop_
_space_group_symop_operation_xyz
x,y,z
-x,-y,1/2+z
x,-y,-z
-x,y,1/2-z
1/2+x,1/2+y,z
1/2-x,1/2-y,1/2+z
1/2+x,1/2-y,-z
1/2-x,1/2+y,1/2-z
loop_
_atom_site_type_symbol
_atom_site_label
_atom_site_fract_x
_atom_site_fract_y
_atom_site_fract_z
Si Si1 0.539321 0.419842 0.044250
Si Si2 0.640612 0.731252 0.064320
Si Si3 0.965554 0.540736 0.543276
Si Si4 0.251014 0.651504 0.374428
O O1 0.500000 0.421148 0.250000
O O2 0.249325 0.430159 0.977343
O O3 0.744003 0.450011 0.976543
O O4 0.679218 0.382072 0.997219
O O5 0.500000 0.732731 0.250000
O O6 0.751062 0.690607 0.032088
O O7 0.396845 0.743104 0.944340
O O8 0.881742 0.500000 0.500000
O O9 0.000000 0.543555 0.750000
O O10 0.500000 0.653052 0.250000
O O11 0.000000 0.647225 0.250000
#
# Coordination Sequence:
#
# PCOD9318853 Si02
#       4
#     8   8   8   8
#     4  10  22  39  59  86 120 157 202 250 302 364
#     4  11  23  41  63  91 125 162 205 254 307 367
#     4  10  21  37  57  84 118 156 200 251 301 359
#     4  11  23  41  62  89 122 157 200 253 303 360
#
# _framework density 22.088125000000002
#
# number of rings (size 3 to 8) (size 9 to 14) (size 15 to 20)
#    0.000    1.500    0.000    6.000    0.000    5.000 
#    0.000    2.500    0.000    0.000    0.000    0.000 
#    0.000    0.000    0.000    0.000    0.000    0.000 
#
# Total GULP energy -89294.013878 kJ/mol
# GULP energy per Si atom -5580.875867 kJ/mol
# Density = 2.203785 g / cm^3
# Si number density = 22.088125 Si / 1000 Ang^3
#
#
#
# Elastic Constant Matrix: (Units=GPa)
#
#
# Indices 1 2 3 4 5 6 
#
# 1 183.7541 58.3877 33.0105 0.0000 0.0000 0.0000
# 2 58.3877 127.2739 16.4928 0.0000 0.0000 0.0000
# 3 33.0105 16.4928 21.6026 0.0000 0.0000 0.0000
# 4 0.0000 0.0000 0.0000 30.4775 0.0000 0.0000
# 5 0.0000 0.0000 0.0000 0.0000 25.6559 0.0000
# 6 0.0000 0.0000 0.0000 0.0000 0.0000 39.2213
#
#
#
# Elastic Compliance Matrix: (Units=1/GPa)
#
#
# Indices 1 2 3 4 5 6 
#
# 1 0.008084 -0.002339 -0.010566 0.000000 0.000000 0.000000
# 2 -0.002339 0.009397 -0.003600 0.000000 0.000000 0.000000
# 3 -0.010566 -0.003600 0.065185 0.000000 0.000000 0.000000
# 4 0.000000 0.000000 0.000000 0.032811 0.000000 0.000000
# 5 0.000000 0.000000 0.000000 0.000000 0.038977 0.000000
# 6 0.000000 0.000000 0.000000 0.000000 0.000000 0.025496
#
#
# Mechanical properties :
#
#
# Convention : Reuss Voigt Hill
#
# Bulk Modulus (GPa) = 20.13896 60.93473 40.53684
# Shear Modulus (GPa) = 21.78536 34.05359 27.91947
#
# Velocity S-wave (km/s) = 3.14394 3.93073 3.55914
# Velocity P-wave (km/s) = 4.72403 6.94606 5.93988
#
# Compressibility (1/GPa) = 0.04965499
#
# Stress axis : x y z
#
# Youngs Moduli (GPa) = 123.70864 106.42135 15.34092
#
# Poissons Ratio (x) = 0.24893 0.16210
# Poissons Ratio (y) = 0.28937 0.05522
# Poissons Ratio (z) = 1.30716 0.38307
#
# Static dielectric constant tensor:
#      x y z
#    x 1.783700 0.000000 0.000000 
#    y 0.000000 1.893290 0.000000 
#    z 0.000000 0.000000 1.809840 
# 
# From -- ./inp_files/5243.got.cif
#   From: 2010.05.17/outbox.cif.g08.bks.cpg/sg20_3_cif.got.tgz:5243.got - 2010.06.03 22:52:26.
