data_PCOD9318739
_publ_section_title
;
Structure prediction by ZEFSAII (Michael W. Deem and Ramdas Pophale) SiO2 
 PCOD9318739
Probable space group: C 2 2 21
;
_chemical_formula_sum "Si O2"
_cell_formula_units_Z 40
_cell_length_a 27.117733
_cell_length_b 12.140740
_cell_length_c 6.353360
_cell_angle_alpha 90.000000
_cell_angle_beta 90.000000
_cell_angle_gamma 90.000000
_cell_volume 2091.712556
_symmetry_space_group_name_H-M "C 2 2 21"
_symmetry_group_IT_number 20
_symmetry_cell_setting 'orthorhombic'
loop_
_space_group_symop_operation_xyz
x,y,z
-x,-y,1/2+z
x,-y,-z
-x,y,1/2-z
1/2+x,1/2+y,z
1/2-x,1/2-y,1/2+z
1/2+x,1/2-y,-z
1/2-x,1/2+y,1/2-z
loop_
_atom_site_type_symbol
_atom_site_label
_atom_site_fract_x
_atom_site_fract_y
_atom_site_fract_z
Si Si1 0.372444 0.299497 0.715497
Si Si2 0.643324 0.500000 0.500000
Si Si3 0.802984 0.334273 0.961498
Si Si4 0.945588 0.392843 0.340377
Si Si5 0.622282 0.000000 0.500000
Si Si6 0.200263 0.864523 0.153068
O O1 0.333851 0.225086 0.851258
O O2 0.416386 0.223085 0.616619
O O3 0.341163 0.348491 0.523515
O O4 0.385552 0.399918 0.879453
O O5 0.678961 0.449116 0.322456
O O6 0.840849 0.423296 0.869905
O O7 0.753022 0.385117 0.049660
O O8 0.791519 0.247668 0.781948
O O9 0.947225 0.500000 0.500000
O O10 0.912954 0.434317 0.148917
O O11 0.000000 0.370905 0.250000
#
# Coordination Sequence:
#
# PCOD9318739 Si02
#       6
#     8   4   8   8   4   8
#     4  10  22  40  59  88 124 167 211 259 318 386
#     4  10  24  38  60  83 127 176 218 260 304 372
#     4  10  21  33  55  85 125 162 202 253 303 375
#     4  11  22  42  68  94 121 155 200 270 340 387
#     4  10  22  36  54  89 123 152 202 242 310 386
#     4  11  20  37  56  86 124 169 215 253 310 369
#
# _framework density 19.123085
#
# number of rings (size 3 to 8) (size 9 to 14) (size 15 to 20)
#    0.000    1.600    3.000    1.800    2.800    0.000 
#    7.200    0.000    4.400    0.000    0.000    0.000 
#    0.000    0.000    0.000    0.000    0.000    0.000 
#
# Total GULP energy -111355.261072 kJ/mol
# GULP energy per Si atom -5567.763054 kJ/mol
# Density = 1.907956 g / cm^3
# Si number density = 19.123085 Si / 1000 Ang^3
#
#
#
# Elastic Constant Matrix: (Units=GPa)
#
#
# Indices 1 2 3 4 5 6 
#
# 1 129.2375 53.1691 36.6537 0.0000 0.0000 0.0000
# 2 53.1691 95.2921 27.6972 0.0000 0.0000 0.0000
# 3 36.6537 27.6972 66.2752 0.0000 0.0000 0.0000
# 4 0.0000 0.0000 0.0000 -5.8172 0.0000 0.0000
# 5 0.0000 0.0000 0.0000 0.0000 15.5194 0.0000
# 6 0.0000 0.0000 0.0000 0.0000 0.0000 19.3211
#
#
#
# Elastic Compliance Matrix: (Units=1/GPa)
#
#
# Indices 1 2 3 4 5 6 
#
# 1 0.010887 -0.004922 -0.003964 0.000000 0.000000 0.000000
# 2 -0.004922 0.014171 -0.003200 0.000000 0.000000 0.000000
# 3 -0.003964 -0.003200 0.018618 0.000000 0.000000 0.000000
# 4 0.000000 0.000000 0.000000 -0.171903 0.000000 0.000000
# 5 0.000000 0.000000 0.000000 0.000000 0.064435 0.000000
# 6 0.000000 0.000000 0.000000 0.000000 0.000000 0.051757
#
#
# Mechanical properties :
#
#
# Convention : Reuss Voigt Hill
#
# Bulk Modulus (GPa) = 51.27276 58.42721 54.84998
# Shear Modulus (GPa) = 268.26430 17.35697 142.81064
#
# Velocity S-wave (km/s) = 11.85696 3.01598 8.65112
# Velocity P-wave (km/s) = 14.63968 6.53818 11.33728
#
# Compressibility (1/GPa) = 0.01950354
#
# Stress axis : x y z
#
# Youngs Moduli (GPa) = 91.85237 70.56890 53.71122
#
# Poissons Ratio (x) = 0.34737 0.21291
# Poissons Ratio (y) = 0.45213 0.17186
# Poissons Ratio (z) = 0.36410 0.22580
#
# Static dielectric constant tensor:
#      x y z
#    x 1.617330 0.000000 0.000000 
#    y 0.000000 1.780760 0.000000 
#    z 0.000000 0.000000 1.624800 
# 
# From -- ./inp_files/3648.got.cif
#   From: 2010.05.17/outbox.cif.g08.bks.cpg/sg20_2_cif.got.tgz:3648.got - 2010.06.03 22:52:26.
