data_PCOD9318720
_publ_section_title
;
Structure prediction by ZEFSAII (Michael W. Deem and Ramdas Pophale) SiO2 
 PCOD9318720
Probable space group: C 2 2 21
;
_chemical_formula_sum "Si O2"
_cell_formula_units_Z 56
_cell_length_a 15.258947
_cell_length_b 10.842675
_cell_length_c 14.785312
_cell_angle_alpha 90.000000
_cell_angle_beta 90.000000
_cell_angle_gamma 90.000000
_cell_volume 2446.197389
_symmetry_space_group_name_H-M "C 2 2 21"
_symmetry_group_IT_number 20
_symmetry_cell_setting 'orthorhombic'
loop_
_space_group_symop_operation_xyz
x,y,z
-x,-y,1/2+z
x,-y,-z
-x,y,1/2-z
1/2+x,1/2+y,z
1/2-x,1/2-y,1/2+z
1/2+x,1/2-y,-z
1/2-x,1/2+y,1/2-z
loop_
_atom_site_type_symbol
_atom_site_label
_atom_site_fract_x
_atom_site_fract_y
_atom_site_fract_z
Si Si1 0.959736 0.223182 0.092571
Si Si2 0.692605 0.126738 0.044261
Si Si3 0.157113 0.781773 0.876399
Si Si4 0.786918 0.728316 0.811913
Si Si5 0.500000 0.756064 0.750000
Si Si6 0.016864 0.384113 0.565850
Si Si7 0.369612 0.426854 0.354302
Si Si8 0.489519 0.500000 0.500000
O O1 0.887829 0.270601 0.160289
O O2 0.056723 0.267736 0.120254
O O3 0.942305 0.274261 0.992978
O O4 0.959690 0.075697 0.076238
O O5 0.743721 0.156575 0.135780
O O6 0.589382 0.113935 0.065515
O O7 0.700410 0.235853 0.969666
O O8 0.723336 0.000000 0.000000
O O9 0.214785 0.730082 0.795246
O O10 0.139255 0.925118 0.850874
O O11 0.729454 0.618141 0.850808
O O12 0.535556 0.846314 0.669926
O O13 0.575513 0.660763 0.785907
O O14 0.042298 0.500000 0.500000
O O15 0.423753 0.408695 0.447430
#
# Coordination Sequence:
#
# PCOD9318720 Si02
#       8
#     8   8   8   8   4   8   8   4
#     4  10  22  42  67 101 142 186 231 300 369 442
#     4  10  23  47  71  97 147 189 230 300 371 439
#     4  10  25  45  70 102 149 189 241 304 377 437
#     4  12  24  41  68 108 136 186 245 297 364 421
#     4  12  22  44  78 102 136 200 258 294 380 448
#     4  10  22  47  67  98 137 188 238 295 375 442
#     4  11  24  43  72 103 143 186 247 312 356 442
#     4  10  20  46  76  94 144 192 236 300 374 432
#
# _framework density 22.892675000000001
#
# number of rings (size 3 to 8) (size 9 to 14) (size 15 to 20)
#    0.000    1.429    2.857    2.143    7.000    1.143 
#   14.143    0.000    0.000    0.000    0.000    0.000 
#    0.000    0.000    0.000    0.000    0.000    0.000 
#
# Total GULP energy -156042.587373 kJ/mol
# GULP energy per Si atom -5572.949549 kJ/mol
# Density = 2.284057 g / cm^3
# Si number density = 22.892675 Si / 1000 Ang^3
#
#
#
# Elastic Constant Matrix: (Units=GPa)
#
#
# Indices 1 2 3 4 5 6 
#
# 1 51.1917 13.4705 10.5597 0.0000 0.0000 0.0000
# 2 13.4705 83.0714 33.2948 0.0000 0.0000 0.0000
# 3 10.5597 33.2948 124.1664 0.0000 0.0000 0.0000
# 4 0.0000 0.0000 0.0000 29.9113 0.0000 0.0000
# 5 0.0000 0.0000 0.0000 0.0000 26.9275 0.0000
# 6 0.0000 0.0000 0.0000 0.0000 0.0000 9.0974
#
#
#
# Elastic Compliance Matrix: (Units=1/GPa)
#
#
# Indices 1 2 3 4 5 6 
#
# 1 0.020506 -0.002942 -0.000955 0.000000 0.000000 0.000000
# 2 -0.002942 0.013910 -0.003480 0.000000 0.000000 0.000000
# 3 -0.000955 -0.003480 0.009068 0.000000 0.000000 0.000000
# 4 0.000000 0.000000 0.000000 0.033432 0.000000 0.000000
# 5 0.000000 0.000000 0.000000 0.000000 0.037137 0.000000
# 6 0.000000 0.000000 0.000000 0.000000 0.000000 0.109921
#
#
# Mechanical properties :
#
#
# Convention : Reuss Voigt Hill
#
# Bulk Modulus (GPa) = 34.80749 41.45328 38.13039
# Shear Modulus (GPa) = 20.13665 26.59423 23.36544
#
# Velocity S-wave (km/s) = 2.96904 3.41206 3.19823
# Velocity P-wave (km/s) = 5.19531 5.80257 5.50732
#
# Compressibility (1/GPa) = 0.02872945
#
# Stress axis : x y z
#
# Youngs Moduli (GPa) = 48.76708 71.89304 110.27849
#
# Poissons Ratio (x) = 0.21154 0.10531
# Poissons Ratio (y) = 0.14349 0.38372
# Poissons Ratio (z) = 0.04657 0.25016
#
# Static dielectric constant tensor:
#      x y z
#    x 1.870590 0.000000 0.000000 
#    y 0.000000 2.006050 0.000000 
#    z 0.000000 0.000000 1.885960 
# 
# From -- ./inp_files/20784.got.cif
#   From: 2010.05.17/outbox.cif.g08.bks.cpg/sg20_11_cif.got.tgz:20784.got - 2010.06.03 22:52:26.
