data_PCOD9318631
_publ_section_title
;
Structure prediction by ZEFSAII (Michael W. Deem and Ramdas Pophale) SiO2 
 PCOD9318631
Probable space group: C 2 2 21
;
_chemical_formula_sum "Si O2"
_cell_formula_units_Z 44
_cell_length_a 12.626583
_cell_length_b 13.891807
_cell_length_c 9.806581
_cell_angle_alpha 90.000000
_cell_angle_beta 90.000000
_cell_angle_gamma 90.000000
_cell_volume 1720.133677
_symmetry_space_group_name_H-M "C 2 2 21"
_symmetry_group_IT_number 20
_symmetry_cell_setting 'orthorhombic'
loop_
_space_group_symop_operation_xyz
x,y,z
-x,-y,1/2+z
x,-y,-z
-x,y,1/2-z
1/2+x,1/2+y,z
1/2-x,1/2-y,1/2+z
1/2+x,1/2-y,-z
1/2-x,1/2+y,1/2-z
loop_
_atom_site_type_symbol
_atom_site_label
_atom_site_fract_x
_atom_site_fract_y
_atom_site_fract_z
Si Si1 0.000000 0.917446 0.750000
Si Si2 0.291530 0.011604 0.359607
Si Si3 0.070602 0.297431 0.620749
Si Si4 0.788965 0.800034 0.756765
Si Si5 0.900863 0.387415 0.153780
Si Si6 0.941669 0.927835 0.092469
O O1 0.896070 0.854362 0.712645
O O2 0.966601 0.945150 0.920726
O O3 0.261528 0.122911 0.358488
O O4 0.354397 0.000000 0.500000
O O5 0.346058 0.981227 0.218722
O O6 0.184367 0.946849 0.373655
O O7 0.196065 0.289036 0.648745
O O8 0.060900 0.373068 0.498983
O O9 0.036039 0.187581 0.589121
O O10 0.000000 0.327600 0.750000
O O11 0.818700 0.699365 0.821350
O O12 0.000000 0.368304 0.250000
O O13 0.000000 0.954697 0.250000
#
# Coordination Sequence:
#
# PCOD9318631 Si02
#       6
#     4   8   8   8   8   8
#     4  10  20  44  70 110 144 196 252 332 388 466
#     4  10  23  46  75 104 152 203 252 324 388 467
#     4  12  27  47  76 116 160 204 263 330 401 484
#     4  11  25  46  76 110 151 198 266 323 393 472
#     4  12  27  48  77 113 154 210 265 323 409 478
#     4  10  20  42  72 107 148 197 254 318 399 451
#
# _framework density 25.579407
#
# number of rings (size 3 to 8) (size 9 to 14) (size 15 to 20)
#    0.000    1.091    3.636    3.273    2.545    1.455 
#    6.545    0.000    0.000    0.000    0.000    0.000 
#    0.000    0.000    0.000    0.000    0.000    0.000 
#
# Total GULP energy -122848.175017 kJ/mol
# GULP energy per Si atom -5584.007955 kJ/mol
# Density = 2.552119 g / cm^3
# Si number density = 25.579407 Si / 1000 Ang^3
#
#
#
# Elastic Constant Matrix: (Units=GPa)
#
#
# Indices 1 2 3 4 5 6 
#
# 1 111.7822 36.1127 76.6028 0.0000 0.0000 0.0000
# 2 36.1127 86.4898 37.9023 0.0000 0.0000 0.0000
# 3 76.6028 37.9023 186.8510 0.0000 0.0000 0.0000
# 4 0.0000 0.0000 0.0000 40.6390 0.0000 0.0000
# 5 0.0000 0.0000 0.0000 0.0000 29.2948 0.0000
# 6 0.0000 0.0000 0.0000 0.0000 0.0000 9.6722
#
#
#
# Elastic Compliance Matrix: (Units=1/GPa)
#
#
# Indices 1 2 3 4 5 6 
#
# 1 0.013332 -0.003481 -0.004760 0.000000 0.000000 0.000000
# 2 -0.003481 0.013599 -0.001331 0.000000 0.000000 0.000000
# 3 -0.004760 -0.001331 0.007573 0.000000 0.000000 0.000000
# 4 0.000000 0.000000 0.000000 0.024607 0.000000 0.000000
# 5 0.000000 0.000000 0.000000 0.000000 0.034136 0.000000
# 6 0.000000 0.000000 0.000000 0.000000 0.000000 0.103389
#
#
# Mechanical properties :
#
#
# Convention : Reuss Voigt Hill
#
# Bulk Modulus (GPa) = 65.10257 76.26205 70.68231
# Shear Modulus (GPa) = 22.63462 31.55489 27.09475
#
# Velocity S-wave (km/s) = 2.97791 3.51608 3.25813
# Velocity P-wave (km/s) = 6.10986 6.80899 6.46888
#
# Compressibility (1/GPa) = 0.01536038
#
# Stress axis : x y z
#
# Youngs Moduli (GPa) = 75.00604 73.53515 132.04345
#
# Poissons Ratio (x) = 0.25597 0.62849
# Poissons Ratio (y) = 0.26109 0.17581
# Poissons Ratio (z) = 0.35701 0.09791
#
# Static dielectric constant tensor:
#      x y z
#    x 1.986190 0.000000 0.000000 
#    y 0.000000 2.011040 0.000000 
#    z 0.000000 0.000000 2.183200 
# 
# From -- ./inp_files/24181.got.cif
#   From: 2010.05.17/outbox.cif.g08.bks.cpg/sg20_13_cif.got.tgz:24181.got - 2010.06.03 22:52:26.
