data_PCOD9318533
_publ_section_title
;
Structure prediction by ZEFSAII (Michael W. Deem and Ramdas Pophale) SiO2 
 PCOD9318533
Probable space group: C 2 2 21
;
_chemical_formula_sum "Si O2"
_cell_formula_units_Z 36
_cell_length_a 7.142180
_cell_length_b 11.837753
_cell_length_c 19.331596
_cell_angle_alpha 90.000000
_cell_angle_beta 90.000000
_cell_angle_gamma 90.000000
_cell_volume 1634.435459
_symmetry_space_group_name_H-M "C 2 2 21"
_symmetry_group_IT_number 20
_symmetry_cell_setting 'orthorhombic'
loop_
_space_group_symop_operation_xyz
x,y,z
-x,-y,1/2+z
x,-y,-z
-x,y,1/2-z
1/2+x,1/2+y,z
1/2-x,1/2-y,1/2+z
1/2+x,1/2-y,-z
1/2-x,1/2+y,1/2-z
loop_
_atom_site_type_symbol
_atom_site_label
_atom_site_fract_x
_atom_site_fract_y
_atom_site_fract_z
Si Si1 0.272749 0.286879 0.247745
Si Si2 0.500000 0.593071 0.250000
Si Si3 0.738896 0.021292 0.648537
Si Si4 0.062424 0.881143 0.021089
Si Si5 0.796628 0.714520 0.102335
O O1 0.500000 0.285433 0.250000
O O2 0.188047 0.386591 0.294042
O O3 0.224485 0.288307 0.166488
O O4 0.174451 0.171282 0.271559
O O5 0.566422 0.522891 0.183676
O O6 0.776203 0.080557 0.575263
O O7 0.628466 0.904554 0.634880
O O8 0.941964 0.790221 0.061491
O O9 0.142085 0.825269 0.952028
O O10 0.966087 0.000000 0.000000
#
# Coordination Sequence:
#
# PCOD9318533 Si02
#       5
#     8   4   8   8   8
#     4  11  21  42  68 100 134 172 222 281 333 391
#     4  10  22  38  64  98 126 174 226 274 338 396
#     4  10  20  41  66  86 137 168 214 286 328 386
#     4  10  21  40  63  87 129 174 212 269 334 393
#     4  10  22  40  66  94 127 177 214 268 339 392
#
# _framework density 22.025952
#
# number of rings (size 3 to 8) (size 9 to 14) (size 15 to 20)
#    0.000    1.778    3.333    0.000    0.000    5.333 
#    8.000    7.778    4.889    0.000    0.000    0.000 
#    0.000    0.000    0.000    0.000    0.000    0.000 
#
# Total GULP energy -100357.435094 kJ/mol
# GULP energy per Si atom -5575.413061 kJ/mol
# Density = 2.197582 g / cm^3
# Si number density = 22.025952 Si / 1000 Ang^3
#
#
#
# Elastic Constant Matrix: (Units=GPa)
#
#
# Indices 1 2 3 4 5 6 
#
# 1 51.1414 34.5504 14.4747 0.0000 0.0000 0.0000
# 2 34.5504 79.4529 55.9840 0.0000 0.0000 0.0000
# 3 14.4747 55.9840 153.4824 0.0000 0.0000 0.0000
# 4 0.0000 0.0000 0.0000 58.8449 0.0000 0.0000
# 5 0.0000 0.0000 0.0000 0.0000 25.9602 0.0000
# 6 0.0000 0.0000 0.0000 0.0000 0.0000 29.0085
#
#
#
# Elastic Compliance Matrix: (Units=1/GPa)
#
#
# Indices 1 2 3 4 5 6 
#
# 1 0.028359 -0.014061 0.002455 0.000000 0.000000 0.000000
# 2 -0.014061 0.023912 -0.007396 0.000000 0.000000 0.000000
# 3 0.002455 -0.007396 0.008982 0.000000 0.000000 0.000000
# 4 0.000000 0.000000 0.000000 0.016994 0.000000 0.000000
# 5 0.000000 0.000000 0.000000 0.000000 0.038520 0.000000
# 6 0.000000 0.000000 0.000000 0.000000 0.000000 0.034473
#
#
# Mechanical properties :
#
#
# Convention : Reuss Voigt Hill
#
# Bulk Modulus (GPa) = 43.01691 54.89942 48.95817
# Shear Modulus (GPa) = 25.38150 34.70058 30.04104
#
# Velocity S-wave (km/s) = 3.39830 3.97349 3.69710
# Velocity P-wave (km/s) = 5.91358 6.78458 6.36400
#
# Compressibility (1/GPa) = 0.02324667
#
# Stress axis : x y z
#
# Youngs Moduli (GPa) = 35.26267 41.81984 111.33772
#
# Poissons Ratio (x) = 0.58804 -0.27328
# Poissons Ratio (y) = 0.49584 0.82346
# Poissons Ratio (z) = -0.08655 0.30930
#
# Static dielectric constant tensor:
#      x y z
#    x 1.814290 0.000000 0.000000 
#    y 0.000000 1.881310 0.000000 
#    z 0.000000 0.000000 1.833260 
# 
# From -- ./inp_files/26431.got.cif
#   From: 2010.05.17/outbox.cif.g08.bks.cpg/sg20_14_cif.got.tgz:26431.got - 2010.06.03 22:52:26.
