data_PCOD9318982
_publ_section_title
;
Structure prediction by ZEFSAII (Michael W. Deem and Ramdas Pophale) SiO2 
 PCOD9318982
Probable space group: C 2 2 21
;
_chemical_formula_sum "Si O2"
_cell_formula_units_Z 40
_cell_length_a 5.199752
_cell_length_b 12.585846
_cell_length_c 26.319778
_cell_angle_alpha 90.000000
_cell_angle_beta 90.000000
_cell_angle_gamma 90.000000
_cell_volume 1722.452546
_symmetry_space_group_name_H-M "C 2 2 21"
_symmetry_group_IT_number 20
_symmetry_cell_setting 'orthorhombic'
loop_
_space_group_symop_operation_xyz
x,y,z
-x,-y,1/2+z
x,-y,-z
-x,y,1/2-z
1/2+x,1/2+y,z
1/2-x,1/2-y,1/2+z
1/2+x,1/2-y,-z
1/2-x,1/2+y,1/2-z
loop_
_atom_site_type_symbol
_atom_site_label
_atom_site_fract_x
_atom_site_fract_y
_atom_site_fract_z
Si Si1 0.448103 0.757138 0.636765
Si Si2 0.829505 0.505603 0.382590
Si Si3 0.065906 0.328680 0.191062
Si Si4 0.032985 0.912288 0.962381
Si Si5 0.233959 0.674693 0.950435
O O1 0.179287 0.720601 0.661160
O O2 0.517831 0.689722 0.586362
O O3 0.680673 0.737008 0.675870
O O4 0.455510 0.880280 0.621759
O O5 0.557398 0.537260 0.409342
O O6 0.931262 0.412325 0.419834
O O7 0.855981 0.446377 0.328965
O O8 0.000000 0.328209 0.250000
O O9 0.149936 0.795902 0.955889
O O10 0.783069 0.878034 0.995591
O O11 0.157627 0.000000 0.000000
#
# Coordination Sequence:
#
# PCOD9318982 Si02
#       5
#     8   8   8   8   8
#     4  11  24  44  69  96 133 177 223 282 346 407
#     4  10  22  41  66  97 133 176 223 276 336 399
#     4  11  26  46  69 100 134 173 229 291 350 415
#     4  10  21  38  64 101 140 187 227 271 333 404
#     4  10  22  39  63  98 139 177 227 276 328 403
#
# _framework density 23.222701000000001
#
# number of rings (size 3 to 8) (size 9 to 14) (size 15 to 20)
#    0.000    1.600    0.000    4.200    0.000   11.200 
#    0.000    0.000    0.000    0.000    0.000    0.000 
#    0.000    0.000    0.000    0.000    0.000    0.000 
#
# Total GULP energy -111551.829003 kJ/mol
# GULP energy per Si atom -5577.591450 kJ/mol
# Density = 2.316985 g / cm^3
# Si number density = 23.222701 Si / 1000 Ang^3
#
#
#
# Elastic Constant Matrix: (Units=GPa)
#
#
# Indices 1 2 3 4 5 6 
#
# 1 82.6899 43.7642 36.4085 0.0000 0.0000 0.0000
# 2 43.7642 219.3710 43.2329 0.0000 0.0000 0.0000
# 3 36.4085 43.2329 68.4835 0.0000 0.0000 0.0000
# 4 0.0000 0.0000 0.0000 25.5772 0.0000 0.0000
# 5 0.0000 0.0000 0.0000 0.0000 32.5458 0.0000
# 6 0.0000 0.0000 0.0000 0.0000 0.0000 41.2223
#
#
#
# Elastic Compliance Matrix: (Units=1/GPa)
#
#
# Indices 1 2 3 4 5 6 
#
# 1 0.016370 -0.001771 -0.007585 0.000000 0.000000 0.000000
# 2 -0.001771 0.005398 -0.002466 0.000000 0.000000 0.000000
# 3 -0.007585 -0.002466 0.020191 0.000000 0.000000 0.000000
# 4 0.000000 0.000000 0.000000 0.039097 0.000000 0.000000
# 5 0.000000 0.000000 0.000000 0.000000 0.030726 0.000000
# 6 0.000000 0.000000 0.000000 0.000000 0.000000 0.024259
#
#
# Mechanical properties :
#
#
# Convention : Reuss Voigt Hill
#
# Bulk Modulus (GPa) = 54.59930 68.59508 61.59719
# Shear Modulus (GPa) = 30.15847 36.34500 33.25174
#
# Velocity S-wave (km/s) = 3.60761 3.96038 3.78810
# Velocity P-wave (km/s) = 6.39651 7.10738 6.76129
#
# Compressibility (1/GPa) = 0.01831525
#
# Stress axis : x y z
#
# Youngs Moduli (GPa) = 61.08572 185.26060 49.52611
#
# Poissons Ratio (x) = 0.32810 0.37566
# Poissons Ratio (y) = 0.10818 0.12213
# Poissons Ratio (z) = 0.46334 0.45686
#
# Static dielectric constant tensor:
#      x y z
#    x 1.963200 0.000000 0.000000 
#    y 0.000000 1.860950 0.000000 
#    z 0.000000 0.000000 1.901710 
# 
# From -- ./inp_files/29704.got.cif
#   From: 2010.05.17/outbox.cif.g08.bks.cpg/sg20_15_cif.got.tgz:29704.got - 2010.06.03 22:52:26.
