data_PCOD9318980
_publ_section_title
;
Structure prediction by ZEFSAII (Michael W. Deem and Ramdas Pophale) SiO2 
 PCOD9318980
Probable space group: C 2 2 21
;
_chemical_formula_sum "Si O2"
_cell_formula_units_Z 48
_cell_length_a 27.401813
_cell_length_b 8.882215
_cell_length_c 9.266098
_cell_angle_alpha 90.000000
_cell_angle_beta 90.000000
_cell_angle_gamma 90.000000
_cell_volume 2255.264422
_symmetry_space_group_name_H-M "C 2 2 21"
_symmetry_group_IT_number 20
_symmetry_cell_setting 'orthorhombic'
loop_
_space_group_symop_operation_xyz
x,y,z
-x,-y,1/2+z
x,-y,-z
-x,y,1/2-z
1/2+x,1/2+y,z
1/2-x,1/2-y,1/2+z
1/2+x,1/2-y,-z
1/2-x,1/2+y,1/2-z
loop_
_atom_site_type_symbol
_atom_site_label
_atom_site_fract_x
_atom_site_fract_y
_atom_site_fract_z
Si Si1 0.895148 0.817826 0.517708
Si Si2 0.494266 0.844927 0.422799
Si Si3 0.853928 0.860245 0.232928
Si Si4 0.538644 0.375107 0.383530
Si Si5 0.808078 0.824021 0.693956
Si Si6 0.725705 0.317637 0.494036
O O1 0.948903 0.763038 0.544033
O O2 0.869687 0.761805 0.370206
O O3 0.861059 0.765298 0.648093
O O4 0.895409 0.000000 0.500000
O O5 0.500000 0.855277 0.250000
O O6 0.538129 0.775501 0.518905
O O7 0.482146 0.000000 0.500000
O O8 0.906855 0.911475 0.172464
O O9 0.821605 0.791151 0.106555
O O10 0.819925 0.998320 0.287918
O O11 0.524385 0.500000 0.500000
O O12 0.500000 0.367635 0.250000
O O13 0.770209 0.774797 0.572289
O O14 0.787017 0.768917 0.844690
O O15 0.735142 0.500000 0.500000
#
# Coordination Sequence:
#
# PCOD9318980 Si02
#       6
#     8   8   8   8   8   8
#     4  10  22  42  68 101 132 177 233 292 346 407
#     4  12  28  45  68  97 146 189 230 290 362 433
#     4  10  22  40  69  99 138 172 235 294 345 417
#     4  12  24  41  72 107 139 185 243 294 351 420
#     4  10  21  38  63  99 132 178 226 287 341 417
#     4  10  21  39  65  96 135 181 221 289 358 416
#
# _framework density 21.283535000000001
#
# number of rings (size 3 to 8) (size 9 to 14) (size 15 to 20)
#    0.000    1.333    1.667    4.000    9.333    2.000 
#    0.000    0.000    0.000    1.000    0.000    0.000 
#    0.000    0.000    0.000    0.000    0.000    0.000 
#
# Total GULP energy -133921.324233 kJ/mol
# GULP energy per Si atom -5580.055176 kJ/mol
# Density = 2.123509 g / cm^3
# Si number density = 21.283535 Si / 1000 Ang^3
#
#
#
# Elastic Constant Matrix: (Units=GPa)
#
#
# Indices 1 2 3 4 5 6 
#
# 1 116.4340 39.0356 48.8283 0.0000 0.0000 0.0000
# 2 39.0356 30.3863 38.2415 0.0000 0.0000 0.0000
# 3 48.8283 38.2415 153.5743 0.0000 0.0000 0.0000
# 4 0.0000 0.0000 0.0000 31.9906 0.0000 0.0000
# 5 0.0000 0.0000 0.0000 0.0000 -9.8162 0.0000
# 6 0.0000 0.0000 0.0000 0.0000 0.0000 21.1536
#
#
#
# Elastic Compliance Matrix: (Units=1/GPa)
#
#
# Indices 1 2 3 4 5 6 
#
# 1 0.015086 -0.019434 0.000043 0.000000 0.000000 0.000000
# 2 -0.019434 0.072965 -0.011990 0.000000 0.000000 0.000000
# 3 0.000043 -0.011990 0.009484 0.000000 0.000000 0.000000
# 4 0.000000 0.000000 0.000000 0.031259 0.000000 0.000000
# 5 0.000000 0.000000 0.000000 0.000000 -0.101873 0.000000
# 6 0.000000 0.000000 0.000000 0.000000 0.000000 0.047273
#
#
# Mechanical properties :
#
#
# Convention : Reuss Voigt Hill
#
# Bulk Modulus (GPa) = 28.75883 61.40061 45.07972
# Shear Modulus (GPa) = 33.65927 20.28490 26.97208
#
# Velocity S-wave (km/s) = 3.98108 3.09055 3.56374
# Velocity P-wave (km/s) = 5.88843 6.45343 6.17740
#
# Compressibility (1/GPa) = 0.03477193
#
# Stress axis : x y z
#
# Youngs Moduli (GPa) = 66.28632 13.70523 105.44569
#
# Poissons Ratio (x) = 0.26635 -0.00450
# Poissons Ratio (y) = 1.28821 1.26429
# Poissons Ratio (z) = -0.00283 0.16433
#
# Static dielectric constant tensor:
#      x y z
#    x 1.755300 0.000000 0.000000 
#    y 0.000000 2.006410 0.000000 
#    z 0.000000 0.000000 1.833490 
# 
# From -- ./inp_files/11469.got.cif
#   From: 2010.05.17/outbox.cif.g08.bks.cpg/sg20_6_cif.got.tgz:11469.got - 2010.06.03 22:52:26.
