data_PCOD9318256
_publ_section_title
;
Structure prediction by ZEFSAII (Michael W. Deem and Ramdas Pophale) SiO2 
 PCOD9318256
Probable space group: C 2 2 21
;
_chemical_formula_sum "Si O2"
_cell_formula_units_Z 60
_cell_length_a 9.694160
_cell_length_b 12.876196
_cell_length_c 22.710450
_cell_angle_alpha 90.000000
_cell_angle_beta 90.000000
_cell_angle_gamma 90.000000
_cell_volume 2834.807035
_symmetry_space_group_name_H-M "C 2 2 21"
_symmetry_group_IT_number 20
_symmetry_cell_setting 'orthorhombic'
loop_
_space_group_symop_operation_xyz
x,y,z
-x,-y,1/2+z
x,-y,-z
-x,y,1/2-z
1/2+x,1/2+y,z
1/2-x,1/2-y,1/2+z
1/2+x,1/2-y,-z
1/2-x,1/2+y,1/2-z
loop_
_atom_site_type_symbol
_atom_site_label
_atom_site_fract_x
_atom_site_fract_y
_atom_site_fract_z
Si Si1 0.132891 0.960327 0.718079
Si Si2 0.530404 0.032871 0.416438
Si Si3 0.096920 0.672440 0.519723
Si Si4 0.213739 0.033143 0.408814
Si Si5 0.390375 0.302958 0.445943
Si Si6 0.885347 0.166149 0.850473
Si Si7 0.123765 0.378456 0.704806
Si Si8 0.990262 0.000000 0.500000
O O1 0.175515 0.916598 0.654029
O O2 0.260542 0.942776 0.760966
O O3 0.000000 0.914095 0.750000
O O4 0.097153 0.079641 0.700303
O O5 0.621803 0.105295 0.459437
O O6 0.368844 0.058964 0.426853
O O7 0.566477 0.055203 0.349532
O O8 0.548851 0.914133 0.434318
O O9 0.231679 0.726094 0.546674
O O10 0.978331 0.747852 0.496899
O O11 0.199802 0.906459 0.396839
O O12 0.096180 0.055619 0.455659
O O13 0.475551 0.296357 0.384722
O O14 0.397769 0.424751 0.461444
O O15 0.822352 0.269876 0.822882
O O16 0.000000 0.354071 0.750000
#
# Coordination Sequence:
#
# PCOD9318256 Si02
#       8
#     8   8   8   8   8   8   8   4
#     4  10  23  41  65  98 130 176 224 282 334 394
#     4  11  23  42  67  97 138 171 230 276 343 401
#     4  11  26  40  68 100 136 175 225 278 344 415
#     4   9  21  41  64  97 130 182 210 288 342 387
#     4  11  24  42  64 103 131 176 219 278 347 400
#     4   9  22  43  67  92 138 172 226 277 337 403
#     4  12  22  42  71  95 131 184 229 275 342 401
#     4  10  20  38  70  84 140 168 230 266 342 410
#
# _framework density 21.165459999999999
#
# number of rings (size 3 to 8) (size 9 to 14) (size 15 to 20)
#    0.800    0.800    2.667    2.000    7.467    1.067 
#    0.000    2.000    0.000    0.000    0.000    0.000 
#    0.000    0.000    0.000    0.000    0.000    0.000 
#
# Total GULP energy -167253.150769 kJ/mol
# GULP energy per Si atom -5575.105026 kJ/mol
# Density = 2.111729 g / cm^3
# Si number density = 21.165460 Si / 1000 Ang^3
#
#
#
# Elastic Constant Matrix: (Units=GPa)
#
#
# Indices 1 2 3 4 5 6 
#
# 1 81.4679 10.6571 10.5543 0.0000 0.0000 0.0000
# 2 10.6571 50.3390 24.6093 0.0000 0.0000 0.0000
# 3 10.5543 24.6093 77.0004 0.0000 0.0000 0.0000
# 4 0.0000 0.0000 0.0000 27.3980 0.0000 0.0000
# 5 0.0000 0.0000 0.0000 0.0000 31.7582 0.0000
# 6 0.0000 0.0000 0.0000 0.0000 0.0000 24.4006
#
#
#
# Elastic Compliance Matrix: (Units=1/GPa)
#
#
# Indices 1 2 3 4 5 6 
#
# 1 0.012695 -0.002177 -0.001044 0.000000 0.000000 0.000000
# 2 -0.002177 0.023917 -0.007346 0.000000 0.000000 0.000000
# 3 -0.001044 -0.007346 0.015478 0.000000 0.000000 0.000000
# 4 0.000000 0.000000 0.000000 0.036499 0.000000 0.000000
# 5 0.000000 0.000000 0.000000 0.000000 0.031488 0.000000
# 6 0.000000 0.000000 0.000000 0.000000 0.000000 0.040983
#
#
# Mechanical properties :
#
#
# Convention : Reuss Voigt Hill
#
# Bulk Modulus (GPa) = 32.30386 33.38319 32.84352
# Shear Modulus (GPa) = 25.97245 27.57713 26.77479
#
# Velocity S-wave (km/s) = 3.50682 3.61353 3.56057
# Velocity P-wave (km/s) = 5.62963 5.76341 5.69691
#
# Compressibility (1/GPa) = 0.03095605
#
# Stress axis : x y z
#
# Youngs Moduli (GPa) = 78.77206 41.81087 64.60904
#
# Poissons Ratio (x) = 0.09103 0.06747
# Poissons Ratio (y) = 0.17149 0.47459
# Poissons Ratio (z) = 0.08226 0.30712
#
# Static dielectric constant tensor:
#      x y z
#    x 1.757590 0.000000 0.000000 
#    y 0.000000 1.826350 0.000000 
#    z 0.000000 0.000000 1.767020 
# 
# From -- ./inp_files/28856.got.cif
#   From: 2010.05.17/outbox.cif.g08.bks.cpg/sg20_15_cif.got.tgz:28856.got - 2010.06.03 22:52:26.
