data_PCOD9318780
_publ_section_title
;
Structure prediction by ZEFSAII (Michael W. Deem and Ramdas Pophale) SiO2 
 PCOD9318780
Probable space group: C 2 2 21
;
_chemical_formula_sum "Si O2"
_cell_formula_units_Z 60
_cell_length_a 18.846174
_cell_length_b 11.569843
_cell_length_c 14.489082
_cell_angle_alpha 90.000000
_cell_angle_beta 90.000000
_cell_angle_gamma 90.000000
_cell_volume 3159.304838
_symmetry_space_group_name_H-M "C 2 2 21"
_symmetry_group_IT_number 20
_symmetry_cell_setting 'orthorhombic'
loop_
_space_group_symop_operation_xyz
x,y,z
-x,-y,1/2+z
x,-y,-z
-x,y,1/2-z
1/2+x,1/2+y,z
1/2-x,1/2-y,1/2+z
1/2+x,1/2-y,-z
1/2-x,1/2+y,1/2-z
loop_
_atom_site_type_symbol
_atom_site_label
_atom_site_fract_x
_atom_site_fract_y
_atom_site_fract_z
Si Si1 0.878339 0.909224 0.800040
Si Si2 0.751915 0.681497 0.573541
Si Si3 0.733210 0.908583 0.878382
Si Si4 0.475816 0.370165 0.978661
Si Si5 0.076207 0.483998 0.888873
Si Si6 0.594146 0.247206 0.866957
Si Si7 0.500000 0.839741 0.750000
Si Si8 0.108115 0.822919 0.334669
O O1 0.793894 0.883093 0.803874
O O2 0.912184 0.834160 0.718823
O O3 0.917175 0.878202 0.896756
O O4 0.886914 0.047759 0.792629
O O5 0.747912 0.676333 0.463002
O O6 0.754230 0.543840 0.596135
O O7 0.824424 0.743861 0.599925
O O8 0.684322 0.722534 0.631057
O O9 0.648709 0.913739 0.865688
O O10 0.539695 0.290419 0.944632
O O11 0.502025 0.500000 0.000000
O O12 0.438323 0.329984 0.071963
O O13 0.078926 0.612749 0.846356
O O14 0.012581 0.417091 0.840431
O O15 0.073070 0.500000 0.000000
O O16 0.432554 0.759053 0.765515
#
# Coordination Sequence:
#
# PCOD9318780 Si02
#       8
#     8   8   8   8   8   8   4   8
#     4  10  21  35  64  94 120 153 205 260 301 362
#     4   9  17  36  61  83 112 164 207 244 298 365
#     4   9  16  37  62  84 113 160 210 243 293 369
#     4  10  21  37  62  87 121 160 197 245 315 368
#     4  11  23  44  64  86 122 170 212 246 304 383
#     4  11  22  36  64  93 119 154 207 262 297 359
#     4  12  28  38  62  92 128 164 206 260 312 366
#     4  10  22  40  58  90 125 163 205 252 310 365
#
# _framework density 18.991520999999999
#
# number of rings (size 3 to 8) (size 9 to 14) (size 15 to 20)
#    0.000    1.867    4.000    1.200    7.467    0.000 
#    0.000    0.000    0.000    2.400    0.000    0.000 
#    0.000    0.000    0.000    0.000    0.000    0.000 
#
# Total GULP energy -167233.284449 kJ/mol
# GULP energy per Si atom -5574.442815 kJ/mol
# Density = 1.894830 g / cm^3
# Si number density = 18.991521 Si / 1000 Ang^3
#
#
#
# Elastic Constant Matrix: (Units=GPa)
#
#
# Indices 1 2 3 4 5 6 
#
# 1 74.9931 47.7149 19.9413 0.0000 0.0000 0.0000
# 2 47.7149 65.3323 38.2363 0.0000 0.0000 0.0000
# 3 19.9413 38.2363 58.0555 0.0000 0.0000 0.0000
# 4 0.0000 0.0000 0.0000 18.6257 0.0000 0.0000
# 5 0.0000 0.0000 0.0000 0.0000 18.6760 0.0000
# 6 0.0000 0.0000 0.0000 0.0000 0.0000 27.2920
#
#
#
# Elastic Compliance Matrix: (Units=1/GPa)
#
#
# Indices 1 2 3 4 5 6 
#
# 1 0.026070 -0.022455 0.005834 0.000000 0.000000 0.000000
# 2 -0.022455 0.044247 -0.021429 0.000000 0.000000 0.000000
# 3 0.005834 -0.021429 0.029335 0.000000 0.000000 0.000000
# 4 0.000000 0.000000 0.000000 0.053689 0.000000 0.000000
# 5 0.000000 0.000000 0.000000 0.000000 0.053545 0.000000
# 6 0.000000 0.000000 0.000000 0.000000 0.000000 0.036641
#
#
# Mechanical properties :
#
#
# Convention : Reuss Voigt Hill
#
# Bulk Modulus (GPa) = 42.45759 45.57398 44.01578
# Shear Modulus (GPa) = 15.26826 19.08464 17.17645
#
# Velocity S-wave (km/s) = 2.83848 3.17346 3.01063
# Velocity P-wave (km/s) = 5.75736 6.12184 5.94240
#
# Compressibility (1/GPa) = 0.02355291
#
# Stress axis : x y z
#
# Youngs Moduli (GPa) = 38.35821 22.60018 34.08951
#
# Poissons Ratio (x) = 0.50748 -0.19888
# Poissons Ratio (y) = 0.86132 0.73051
# Poissons Ratio (z) = -0.22379 0.48430
#
# Static dielectric constant tensor:
#      x y z
#    x 1.711470 0.000000 0.000000 
#    y 0.000000 1.637870 0.000000 
#    z 0.000000 0.000000 1.666530 
# 
# From -- ./inp_files/21452.got.cif
#   From: 2010.05.17/outbox.cif.g08.bks.cpg/sg20_11_cif.got.tgz:21452.got - 2010.06.03 22:52:26.
