data_PCOD9318374
_publ_section_title
;
Structure prediction by ZEFSAII (Michael W. Deem and Ramdas Pophale) SiO2 
 PCOD9318374
Probable space group: C 2 2 21
;
_chemical_formula_sum "Si O2"
_cell_formula_units_Z 44
_cell_length_a 10.563435
_cell_length_b 8.852795
_cell_length_c 21.854909
_cell_angle_alpha 90.000000
_cell_angle_beta 90.000000
_cell_angle_gamma 90.000000
_cell_volume 2043.782021
_symmetry_space_group_name_H-M "C 2 2 21"
_symmetry_group_IT_number 20
_symmetry_cell_setting 'orthorhombic'
loop_
_space_group_symop_operation_xyz
x,y,z
-x,-y,1/2+z
x,-y,-z
-x,y,1/2-z
1/2+x,1/2+y,z
1/2-x,1/2-y,1/2+z
1/2+x,1/2-y,-z
1/2-x,1/2+y,1/2-z
loop_
_atom_site_type_symbol
_atom_site_label
_atom_site_fract_x
_atom_site_fract_y
_atom_site_fract_z
Si Si1 0.304142 0.500000 0.500000
Si Si2 0.862578 0.132112 0.691794
Si Si3 0.974577 0.052431 0.918888
Si Si4 0.000000 0.388666 0.750000
Si Si5 0.924335 0.365566 0.153227
Si Si6 0.000000 0.880368 0.750000
Si Si7 0.389176 0.258776 0.967836
O O1 0.396666 0.526944 0.442827
O O2 0.225559 0.349523 0.486729
O O3 0.983472 0.118116 0.645739
O O4 0.728559 0.134605 0.658443
O O5 0.881273 0.987220 0.734864
O O6 0.884319 0.279849 0.732240
O O7 0.872020 0.918358 0.930057
O O8 0.947318 0.184120 0.968095
O O9 0.027541 0.490934 0.690894
O O10 0.961261 0.344984 0.082387
O O11 0.975186 0.224161 0.191892
#
# Coordination Sequence:
#
# PCOD9318374 Si02
#       7
#     4   8   8   4   8   4   8
#     4  10  20  40  60  84 118 154 190 246 300 340
#     4  11  21  41  62  86 122 156 199 248 298 354
#     4  10  23  40  60  90 118 157 201 243 303 355
#     4  10  26  38  60  94 118 154 206 246 292 362
#     4  11  21  41  61  86 120 156 200 247 300 353
#     4  10  22  38  64  84 116 164 196 246 296 354
#     4  10  21  38  62  86 118 156 196 242 296 353
#
# _framework density 21.528715999999999
#
# number of rings (size 3 to 8) (size 9 to 14) (size 15 to 20)
#    0.000    1.818    3.636    1.091    2.545    0.000 
#    0.000   14.545    0.000    0.000    0.000    0.000 
#    0.000    0.000    0.000    0.000    0.000    0.000 
#
# Total GULP energy -122547.531122 kJ/mol
# GULP energy per Si atom -5570.342324 kJ/mol
# Density = 2.147972 g / cm^3
# Si number density = 21.528716 Si / 1000 Ang^3
#
#
#
# Elastic Constant Matrix: (Units=GPa)
#
#
# Indices 1 2 3 4 5 6 
#
# 1 50.5532 39.5393 1.5487 0.0000 0.0000 0.0000
# 2 39.5393 117.7539 21.4413 0.0000 0.0000 0.0000
# 3 1.5487 21.4413 62.1781 0.0000 0.0000 0.0000
# 4 0.0000 0.0000 0.0000 34.1923 0.0000 0.0000
# 5 0.0000 0.0000 0.0000 0.0000 29.6735 0.0000
# 6 0.0000 0.0000 0.0000 0.0000 0.0000 28.5600
#
#
#
# Elastic Compliance Matrix: (Units=1/GPa)
#
#
# Indices 1 2 3 4 5 6 
#
# 1 0.027227 -0.009623 0.002640 0.000000 0.000000 0.000000
# 2 -0.009623 0.012462 -0.004058 0.000000 0.000000 0.000000
# 3 0.002640 -0.004058 0.017416 0.000000 0.000000 0.000000
# 4 0.000000 0.000000 0.000000 0.029246 0.000000 0.000000
# 5 0.000000 0.000000 0.000000 0.000000 0.033700 0.000000
# 6 0.000000 0.000000 0.000000 0.000000 0.000000 0.035014
#
#
# Mechanical properties :
#
#
# Convention : Reuss Voigt Hill
#
# Bulk Modulus (GPa) = 28.55160 39.50487 34.02823
# Shear Modulus (GPa) = 26.48002 29.68221 28.08112
#
# Velocity S-wave (km/s) = 3.51092 3.71715 3.61551
# Velocity P-wave (km/s) = 5.45218 6.06734 5.76797
#
# Compressibility (1/GPa) = 0.03502431
#
# Stress axis : x y z
#
# Youngs Moduli (GPa) = 36.72873 80.24191 57.41737
#
# Poissons Ratio (x) = 0.77216 -0.15159
# Poissons Ratio (y) = 0.35344 0.23299
# Poissons Ratio (z) = -0.09697 0.32560
#
# Static dielectric constant tensor:
#      x y z
#    x 1.776670 0.000000 0.000000 
#    y 0.000000 1.824960 0.000000 
#    z 0.000000 0.000000 1.849070 
# 
# From -- ./inp_files/28681.got.cif
#   From: 2010.05.17/outbox.cif.g08.bks.cpg/sg20_15_cif.got.tgz:28681.got - 2010.06.03 22:52:26.
