data_PCOD9318907
_publ_section_title
;
Structure prediction by ZEFSAII (Michael W. Deem and Ramdas Pophale) SiO2 
 PCOD9318907
Probable space group: C 2 2 21
;
_chemical_formula_sum "Si O2"
_cell_formula_units_Z 64
_cell_length_a 19.724221
_cell_length_b 27.371492
_cell_length_c 5.349345
_cell_angle_alpha 90.000000
_cell_angle_beta 90.000000
_cell_angle_gamma 90.000000
_cell_volume 2888.011639
_symmetry_space_group_name_H-M "C 2 2 21"
_symmetry_group_IT_number 20
_symmetry_cell_setting 'orthorhombic'
loop_
_space_group_symop_operation_xyz
x,y,z
-x,-y,1/2+z
x,-y,-z
-x,y,1/2-z
1/2+x,1/2+y,z
1/2-x,1/2-y,1/2+z
1/2+x,1/2-y,-z
1/2-x,1/2+y,1/2-z
loop_
_atom_site_type_symbol
_atom_site_label
_atom_site_fract_x
_atom_site_fract_y
_atom_site_fract_z
Si Si1 0.692798 0.320719 0.047083
Si Si2 0.930703 0.389755 0.687185
Si Si3 0.704063 0.789184 0.105701
Si Si4 0.930333 0.327461 0.182316
Si Si5 0.034767 0.841823 0.001679
Si Si6 0.326306 0.555711 0.986841
Si Si7 0.214081 0.379593 0.788061
Si Si8 0.416563 0.444448 0.512245
O O1 0.706964 0.268438 0.919689
O O2 0.614463 0.331413 0.015481
O O3 0.739134 0.364538 0.944311
O O4 0.721559 0.308231 0.318240
O O5 0.930174 0.369895 0.400209
O O6 0.855234 0.409876 0.743107
O O7 0.000000 0.419159 0.750000
O O8 0.936473 0.347989 0.903182
O O9 0.640964 0.800112 0.289464
O O10 0.688771 0.826265 0.881210
O O11 0.000000 0.299185 0.250000
O O12 0.000000 0.823718 0.750000
O O13 0.029961 0.900947 0.001778
O O14 0.000000 0.821952 0.250000
O O15 0.263868 0.592102 0.025164
O O16 0.376027 0.561482 0.226590
O O17 0.301420 0.500000 0.000000
O O18 0.366890 0.561804 0.727857
O O19 0.443703 0.500000 0.500000
#
# Coordination Sequence:
#
# PCOD9318907 Si02
#       8
#     8   8   8   8   8   8   8   8
#     4  12  24  40  63  88 124 165 221 268 315 392
#     4   9  18  32  53  86 115 147 193 242 300 362
#     4  11  23  38  61  91 117 164 210 264 312 373
#     4   9  18  34  54  80 115 147 190 244 301 356
#     4  12  28  45  64  92 132 178 214 269 339 386
#     4  10  21  37  64  99 127 161 208 269 327 381
#     4  11  21  37  63  88 123 166 205 267 320 379
#     4  10  21  41  67  93 124 163 217 272 320 384
#
# _framework density 22.160575999999999
#
# number of rings (size 3 to 8) (size 9 to 14) (size 15 to 20)
#    0.000    1.500    3.750    1.500    1.750    1.000 
#    0.000    5.000    0.000    0.000    0.000    9.625 
#    0.000    0.000    0.000    0.000    0.000    0.000 
#
# Total GULP energy -178394.377001 kJ/mol
# GULP energy per Si atom -5574.824281 kJ/mol
# Density = 2.211014 g / cm^3
# Si number density = 22.160576 Si / 1000 Ang^3
#
#
#
# Elastic Constant Matrix: (Units=GPa)
#
#
# Indices 1 2 3 4 5 6 
#
# 1 117.4198 -0.2406 40.3679 0.0000 0.0000 0.0000
# 2 -0.2406 46.8706 17.8716 0.0000 0.0000 0.0000
# 3 40.3679 17.8716 124.5910 0.0000 0.0000 0.0000
# 4 0.0000 0.0000 0.0000 16.6982 0.0000 0.0000
# 5 0.0000 0.0000 0.0000 0.0000 40.8239 0.0000
# 6 0.0000 0.0000 0.0000 0.0000 0.0000 8.1240
#
#
#
# Elastic Compliance Matrix: (Units=1/GPa)
#
#
# Indices 1 2 3 4 5 6 
#
# 1 0.009660 0.001315 -0.003318 0.000000 0.000000 0.000000
# 2 0.001315 0.022749 -0.003689 0.000000 0.000000 0.000000
# 3 -0.003318 -0.003689 0.009631 0.000000 0.000000 0.000000
# 4 0.000000 0.000000 0.000000 0.059887 0.000000 0.000000
# 5 0.000000 0.000000 0.000000 0.000000 0.024495 0.000000
# 6 0.000000 0.000000 0.000000 0.000000 0.000000 0.123091
#
#
# Mechanical properties :
#
#
# Convention : Reuss Voigt Hill
#
# Bulk Modulus (GPa) = 32.62224 44.98660 38.80442
# Shear Modulus (GPa) = 18.44225 28.52140 23.48182
#
# Velocity S-wave (km/s) = 2.88793 3.59142 3.25871
# Velocity P-wave (km/s) = 5.08655 6.12716 5.63094
#
# Compressibility (1/GPa) = 0.03065393
#
# Stress axis : x y z
#
# Youngs Moduli (GPa) = 103.51956 43.95841 103.83518
#
# Poissons Ratio (x) = -0.05780 0.34458
# Poissons Ratio (y) = -0.13612 0.38307
# Poissons Ratio (z) = 0.34353 0.16217
#
# Static dielectric constant tensor:
#      x y z
#    x 1.892650 0.000000 0.000000 
#    y 0.000000 1.817520 0.000000 
#    z 0.000000 0.000000 1.907180 
# 
# From -- ./inp_files/2913.got.cif
#   From: 2010.05.17/outbox.cif.g08.bks.cpg/sg20_2_cif.got.tgz:2913.got - 2010.06.03 22:52:26.
