data_PCOD9318670
_publ_section_title
;
Structure prediction by ZEFSAII (Michael W. Deem and Ramdas Pophale) SiO2 
 PCOD9318670
Probable space group: C 2 2 21
;
_chemical_formula_sum "Si O2"
_cell_formula_units_Z 32
_cell_length_a 11.506685
_cell_length_b 14.760872
_cell_length_c 7.538590
_cell_angle_alpha 90.000000
_cell_angle_beta 90.000000
_cell_angle_gamma 90.000000
_cell_volume 1280.419745
_symmetry_space_group_name_H-M "C 2 2 21"
_symmetry_group_IT_number 20
_symmetry_cell_setting 'orthorhombic'
loop_
_space_group_symop_operation_xyz
x,y,z
-x,-y,1/2+z
x,-y,-z
-x,y,1/2-z
1/2+x,1/2+y,z
1/2-x,1/2-y,1/2+z
1/2+x,1/2-y,-z
1/2-x,1/2+y,1/2-z
loop_
_atom_site_type_symbol
_atom_site_label
_atom_site_fract_x
_atom_site_fract_y
_atom_site_fract_z
Si Si1 0.276944 0.887753 0.168090
Si Si2 0.336636 0.687355 0.166579
Si Si3 0.363248 0.922195 0.764165
Si Si4 0.464417 0.604371 0.503940
O O1 0.323470 0.790438 0.224876
O O2 0.322111 0.975037 0.271914
O O3 0.327554 0.900527 0.967825
O O4 0.136752 0.888677 0.150104
O O5 0.209453 0.645916 0.141037
O O6 0.392862 0.628910 0.325145
O O7 0.426019 0.671461 0.006245
O O8 0.500000 0.913891 0.750000
O O9 0.504074 0.500000 0.500000
#
# Coordination Sequence:
#
# PCOD9318670 Si02
#       4
#     8   8   8   8
#     4  10  21  43  64  91 131 165 214 271 314 378
#     4  10  22  39  67  93 120 173 213 256 326 373
#     4  10  22  43  63  94 132 167 208 268 326 377
#     4  10  20  44  61  87 132 164 213 271 306 371
#
# _framework density 24.991803000000001
#
# number of rings (size 3 to 8) (size 9 to 14) (size 15 to 20)
#    0.000    2.000    5.000    0.000    7.000    0.000 
#   13.500    0.000    0.000    0.000    0.000    0.000 
#    0.000    0.000    0.000    0.000    0.000    0.000 
#
# Total GULP energy -89522.802526 kJ/mol
# GULP energy per Si atom -5595.175158 kJ/mol
# Density = 2.493492 g / cm^3
# Si number density = 24.991803 Si / 1000 Ang^3
#
#
#
# Elastic Constant Matrix: (Units=GPa)
#
#
# Indices 1 2 3 4 5 6 
#
# 1 176.2782 38.8134 10.6259 0.0000 0.0000 0.0000
# 2 38.8134 162.3854 4.0649 0.0000 0.0000 0.0000
# 3 10.6259 4.0649 60.6959 0.0000 0.0000 0.0000
# 4 0.0000 0.0000 0.0000 19.6571 0.0000 0.0000
# 5 0.0000 0.0000 0.0000 0.0000 -4.1978 0.0000
# 6 0.0000 0.0000 0.0000 0.0000 0.0000 12.0025
#
#
#
# Elastic Compliance Matrix: (Units=1/GPa)
#
#
# Indices 1 2 3 4 5 6 
#
# 1 0.006044 -0.001420 -0.000963 0.000000 0.000000 0.000000
# 2 -0.001420 0.006502 -0.000187 0.000000 0.000000 0.000000
# 3 -0.000963 -0.000187 0.016657 0.000000 0.000000 0.000000
# 4 0.000000 0.000000 0.000000 0.050872 0.000000 0.000000
# 5 0.000000 0.000000 0.000000 0.000000 -0.238219 0.000000
# 6 0.000000 0.000000 0.000000 0.000000 0.000000 0.083316
#
#
# Mechanical properties :
#
#
# Convention : Reuss Voigt Hill
#
# Bulk Modulus (GPa) = 41.55870 56.26309 48.91089
# Shear Modulus (GPa) = -81.07974 28.54939 -26.26518
#
# Velocity S-wave (km/s) = -5.70201 3.38353 -3.24536
# Velocity P-wave (km/s) = 5.16581 6.15028 2.36012
#
# Compressibility (1/GPa) = 0.02406235
#
# Stress axis : x y z
#
# Youngs Moduli (GPa) = 165.46285 153.78978 60.03607
#
# Poissons Ratio (x) = 0.21845 0.05781
# Poissons Ratio (y) = 0.23503 0.01121
# Poissons Ratio (z) = 0.15933 0.02873
#
# Static dielectric constant tensor:
#      x y z
#    x 1.991960 0.000000 0.000000 
#    y 0.000000 1.906280 0.000000 
#    z 0.000000 0.000000 2.124380 
# 
# From -- ./inp_files/6763.got.cif
#   From: 2010.05.17/outbox.cif.g08.bks.cpg/sg20_4_cif.got.tgz:6763.got - 2010.06.03 22:52:26.
