data_PCOD9318239
_publ_section_title
;
Structure prediction by ZEFSAII (Michael W. Deem and Ramdas Pophale) SiO2 
 PCOD9318239
Probable space group: C 2 2 21
;
_chemical_formula_sum "Si O2"
_cell_formula_units_Z 28
_cell_length_a 32.408995
_cell_length_b 8.067177
_cell_length_c 4.969535
_cell_angle_alpha 90.000000
_cell_angle_beta 90.000000
_cell_angle_gamma 90.000000
_cell_volume 1299.280448
_symmetry_space_group_name_H-M "C 2 2 21"
_symmetry_group_IT_number 20
_symmetry_cell_setting 'orthorhombic'
loop_
_space_group_symop_operation_xyz
x,y,z
-x,-y,1/2+z
x,-y,-z
-x,y,1/2-z
1/2+x,1/2+y,z
1/2-x,1/2-y,1/2+z
1/2+x,1/2-y,-z
1/2-x,1/2+y,1/2-z
loop_
_atom_site_type_symbol
_atom_site_label
_atom_site_fract_x
_atom_site_fract_y
_atom_site_fract_z
Si Si1 0.588439 0.689170 0.395993
Si Si2 0.726761 0.315752 0.119265
Si Si3 0.000000 0.120225 0.250000
Si Si4 0.864002 0.314615 0.610366
O O1 0.590319 0.500000 0.500000
O O2 0.540630 0.721761 0.327258
O O3 0.606678 0.802263 0.631344
O O4 0.615646 0.710281 0.130512
O O5 0.745707 0.201095 0.884763
O O6 0.726871 0.500000 0.000000
O O7 0.680529 0.258350 0.184035
O O8 0.989063 0.000000 0.500000
O O9 0.859595 0.500000 0.500000
#
# Coordination Sequence:
#
# PCOD9318239 Si02
#       4
#     8   8   4   8
#     4  11  22  41  67  94 124 167 217 265 314 378
#     4  12  25  44  67  95 129 170 214 264 317 377
#     4  10  20  38  66  98 126 162 214 268 316 376
#     4  12  25  42  63  95 132 170 211 262 320 379
#
# _framework density 21.550387000000001
#
# number of rings (size 3 to 8) (size 9 to 14) (size 15 to 20)
#    0.000    0.571    0.000   11.143    0.000    0.000 
#    0.000    2.857    0.000    1.714    0.000    0.000 
#    0.000    0.000    0.000    0.000    0.000    0.000 
#
# Total GULP energy -78445.740397 kJ/mol
# GULP energy per Si atom -5603.267171 kJ/mol
# Density = 2.150134 g / cm^3
# Si number density = 21.550387 Si / 1000 Ang^3
#
#
#
# Elastic Constant Matrix: (Units=GPa)
#
#
# Indices 1 2 3 4 5 6 
#
# 1 140.3687 26.7286 37.7104 0.0000 0.0000 0.0000
# 2 26.7286 65.1865 -2.6183 0.0000 0.0000 0.0000
# 3 37.7104 -2.6183 118.9435 0.0000 0.0000 0.0000
# 4 0.0000 0.0000 0.0000 24.5852 0.0000 0.0000
# 5 0.0000 0.0000 0.0000 0.0000 18.2706 0.0000
# 6 0.0000 0.0000 0.0000 0.0000 0.0000 24.8523
#
#
#
# Elastic Compliance Matrix: (Units=1/GPa)
#
#
# Indices 1 2 3 4 5 6 
#
# 1 0.008565 -0.003624 -0.002795 0.000000 0.000000 0.000000
# 2 -0.003624 0.016888 0.001521 0.000000 0.000000 0.000000
# 3 -0.002795 0.001521 0.009327 0.000000 0.000000 0.000000
# 4 0.000000 0.000000 0.000000 0.040675 0.000000 0.000000
# 5 0.000000 0.000000 0.000000 0.000000 0.054733 0.000000
# 6 0.000000 0.000000 0.000000 0.000000 0.000000 0.040238
#
#
# Mechanical properties :
#
#
# Convention : Reuss Voigt Hill
#
# Bulk Modulus (GPa) = 40.02816 49.79335 44.91076
# Shear Modulus (GPa) = 26.51811 31.05349 28.78580
#
# Velocity S-wave (km/s) = 3.51168 3.80013 3.65875
# Velocity P-wave (km/s) = 5.92090 6.51232 6.22364
#
# Compressibility (1/GPa) = 0.02498241
#
# Stress axis : x y z
#
# Youngs Moduli (GPa) = 116.75158 59.21452 107.21471
#
# Poissons Ratio (x) = 0.21461 0.29970
# Poissons Ratio (y) = 0.42314 -0.16305
# Poissons Ratio (z) = 0.32636 -0.09005
#
# Static dielectric constant tensor:
#      x y z
#    x 1.753400 0.000000 0.000000 
#    y 0.000000 1.775330 0.000000 
#    z 0.000000 0.000000 1.832600 
# 
# From -- ./inp_files/448.got.cif
#   From: 2010.05.17/outbox.cif.g08.bks.cpg/sg20_1_cif.got.tgz:448.got - 2010.06.03 22:52:26.
