data_PCOD9318953
_publ_section_title
;
Structure prediction by ZEFSAII (Michael W. Deem and Ramdas Pophale) SiO2 
 PCOD9318953
Probable space group: C 2 2 21
;
_chemical_formula_sum "Si O2"
_cell_formula_units_Z 56
_cell_length_a 19.940116
_cell_length_b 11.339638
_cell_length_c 12.150671
_cell_angle_alpha 90.000000
_cell_angle_beta 90.000000
_cell_angle_gamma 90.000000
_cell_volume 2747.433142
_symmetry_space_group_name_H-M "C 2 2 21"
_symmetry_group_IT_number 20
_symmetry_cell_setting 'orthorhombic'
loop_
_space_group_symop_operation_xyz
x,y,z
-x,-y,1/2+z
x,-y,-z
-x,y,1/2-z
1/2+x,1/2+y,z
1/2-x,1/2-y,1/2+z
1/2+x,1/2-y,-z
1/2-x,1/2+y,1/2-z
loop_
_atom_site_type_symbol
_atom_site_label
_atom_site_fract_x
_atom_site_fract_y
_atom_site_fract_z
Si Si1 0.523563 0.250941 0.472976
Si Si2 0.916078 0.000000 0.000000
Si Si3 0.380158 0.928595 0.885111
Si Si4 0.305214 0.000000 0.500000
Si Si5 0.305226 0.395384 0.841261
Si Si6 0.607699 0.818757 0.311361
Si Si7 0.769558 0.096842 0.404545
Si Si8 0.114925 0.281947 0.069972
O O1 0.541347 0.388018 0.460797
O O2 0.560666 0.166742 0.384913
O O3 0.557334 0.211339 0.589638
O O4 0.444523 0.233462 0.483616
O O5 0.868083 0.956634 0.901224
O O6 0.307898 0.864838 0.885915
O O7 0.383001 0.040144 0.803816
O O8 0.384888 0.000000 0.000000
O O9 0.258047 0.928037 0.584032
O O10 0.352381 0.909171 0.438373
O O11 0.324010 0.255638 0.836847
O O12 0.293786 0.440633 0.717381
O O13 0.585914 0.768947 0.193379
O O14 0.823089 0.193323 0.442054
O O15 0.767868 0.000000 0.500000
#
# Coordination Sequence:
#
# PCOD9318953 Si02
#       8
#     8   4   8   4   8   8   8   8
#     4  10  21  38  61  89 123 170 208 252 311 384
#     4   9  20  38  66  88 125 164 208 250 309 386
#     4   9  19  34  62  85 115 156 205 252 302 373
#     4  11  24  36  60  94 131 156 200 264 321 364
#     4   9  20  39  63  92 119 160 204 260 316 375
#     4   9  19  39  63  87 116 165 214 247 310 379
#     4  10  22  39  64  91 120 158 209 262 313 372
#     4  11  24  37  59  92 125 163 204 264 313 374
#
# _framework density 20.382663000000001
#
# number of rings (size 3 to 8) (size 9 to 14) (size 15 to 20)
#    0.000    2.286    0.000    1.286   14.000    0.000 
#    0.000    1.429    0.000    3.429    0.000    0.000 
#    0.000    0.000    0.000    0.000    0.000    0.000 
#
# Total GULP energy -156137.959126 kJ/mol
# GULP energy per Si atom -5576.355683 kJ/mol
# Density = 2.033627 g / cm^3
# Si number density = 20.382663 Si / 1000 Ang^3
#
#
#
# Elastic Constant Matrix: (Units=GPa)
#
#
# Indices 1 2 3 4 5 6 
#
# 1 90.6306 51.7135 4.9121 0.0000 0.0000 0.0000
# 2 51.7135 109.5937 18.4887 0.0000 0.0000 0.0000
# 3 4.9121 18.4887 54.7771 0.0000 0.0000 0.0000
# 4 0.0000 0.0000 0.0000 19.7024 0.0000 0.0000
# 5 0.0000 0.0000 0.0000 0.0000 13.7817 0.0000
# 6 0.0000 0.0000 0.0000 0.0000 0.0000 70.3361
#
#
#
# Elastic Compliance Matrix: (Units=1/GPa)
#
#
# Indices 1 2 3 4 5 6 
#
# 1 0.015164 -0.007344 0.001119 0.000000 0.000000 0.000000
# 2 -0.007344 0.013232 -0.003808 0.000000 0.000000 0.000000
# 3 0.001119 -0.003808 0.019441 0.000000 0.000000 0.000000
# 4 0.000000 0.000000 0.000000 0.050755 0.000000 0.000000
# 5 0.000000 0.000000 0.000000 0.000000 0.072560 0.000000
# 6 0.000000 0.000000 0.000000 0.000000 0.000000 0.014217
#
#
# Mechanical properties :
#
#
# Convention : Reuss Voigt Hill
#
# Bulk Modulus (GPa) = 36.00843 45.02555 40.51699
# Shear Modulus (GPa) = 23.28923 32.75651 28.02287
#
# Velocity S-wave (km/s) = 3.38390 4.01319 3.71190
# Velocity P-wave (km/s) = 5.74215 6.60396 6.18808
#
# Compressibility (1/GPa) = 0.02777127
#
# Stress axis : x y z
#
# Youngs Moduli (GPa) = 65.94742 75.57248 51.43859
#
# Poissons Ratio (x) = 0.55500 -0.05756
# Poissons Ratio (y) = 0.48431 0.19586
# Poissons Ratio (z) = -0.07379 0.28776
#
# Static dielectric constant tensor:
#      x y z
#    x 1.733570 0.000000 0.000000 
#    y 0.000000 1.730560 0.000000 
#    z 0.000000 0.000000 1.769770 
# 
# From -- ./inp_files/16355.got.cif
#   From: 2010.05.17/outbox.cif.g08.bks.cpg/sg20_9_cif.got.tgz:16355.got - 2010.06.03 22:52:26.
