data_PCOD9318801
_publ_section_title
;
Structure prediction by ZEFSAII (Michael W. Deem and Ramdas Pophale) SiO2 
 PCOD9318801
Probable space group: C 2 2 21
;
_chemical_formula_sum "Si O2"
_cell_formula_units_Z 32
_cell_length_a 7.246399
_cell_length_b 22.878678
_cell_length_c 7.040602
_cell_angle_alpha 90.000000
_cell_angle_beta 90.000000
_cell_angle_gamma 90.000000
_cell_volume 1167.247531
_symmetry_space_group_name_H-M "C 2 2 21"
_symmetry_group_IT_number 20
_symmetry_cell_setting 'orthorhombic'
loop_
_space_group_symop_operation_xyz
x,y,z
-x,-y,1/2+z
x,-y,-z
-x,y,1/2-z
1/2+x,1/2+y,z
1/2-x,1/2-y,1/2+z
1/2+x,1/2-y,-z
1/2-x,1/2+y,1/2-z
loop_
_atom_site_type_symbol
_atom_site_label
_atom_site_fract_x
_atom_site_fract_y
_atom_site_fract_z
Si Si1 0.724160 0.828806 0.291288
Si Si2 0.672396 0.296587 0.619538
Si Si3 0.277746 0.952798 0.254906
Si Si4 0.786027 0.576495 0.302357
O O1 0.500000 0.833629 0.250000
O O2 0.761451 0.768293 0.400464
O O3 0.776288 0.894182 0.360661
O O4 0.832526 0.817567 0.095972
O O5 0.500000 0.283695 0.750000
O O6 0.747062 0.354877 0.724140
O O7 0.500000 0.956867 0.250000
O O8 0.244008 0.937073 0.475954
O O9 0.205778 0.017471 0.204680
O O10 0.000000 0.573792 0.250000
#
# Coordination Sequence:
#
# PCOD9318801 Si02
#       4
#     8   8   8   8
#     4   9  19  36  58  83 115 154 196 239 285 344
#     4  10  21  36  57  86 119 151 189 241 296 345
#     4   8  15  30  52  77 104 142 195 238 268 326
#     4   9  17  30  54  80 107 145 191 238 282 335
#
# _framework density 27.414921
#
# number of rings (size 3 to 8) (size 9 to 14) (size 15 to 20)
#    0.000    3.000    0.000    0.000    0.000   10.000 
#    0.000    0.000    0.000   49.500    0.000    0.000 
#    0.000    0.000    0.000    0.000    0.000    0.000 
#
# Total GULP energy -89148.791432 kJ/mol
# GULP energy per Si atom -5571.799465 kJ/mol
# Density = 2.735252 g / cm^3
# Si number density = 27.414921 Si / 1000 Ang^3
#
#
#
# Elastic Constant Matrix: (Units=GPa)
#
#
# Indices 1 2 3 4 5 6 
#
# 1 77.1307 19.0653 14.0374 0.0000 0.0000 0.0000
# 2 19.0653 408.8182 41.8427 0.0000 0.0000 0.0000
# 3 14.0374 41.8427 73.3352 0.0000 0.0000 0.0000
# 4 0.0000 0.0000 0.0000 46.2606 0.0000 0.0000
# 5 0.0000 0.0000 0.0000 0.0000 20.1089 0.0000
# 6 0.0000 0.0000 0.0000 0.0000 0.0000 35.6884
#
#
#
# Elastic Compliance Matrix: (Units=1/GPa)
#
#
# Indices 1 2 3 4 5 6 
#
# 1 0.013491 -0.000387 -0.002361 0.000000 0.000000 0.000000
# 2 -0.000387 0.002609 -0.001414 0.000000 0.000000 0.000000
# 3 -0.002361 -0.001414 0.014895 0.000000 0.000000 0.000000
# 4 0.000000 0.000000 0.000000 0.021617 0.000000 0.000000
# 5 0.000000 0.000000 0.000000 0.000000 0.049729 0.000000
# 6 0.000000 0.000000 0.000000 0.000000 0.000000 0.028020
#
#
# Mechanical properties :
#
#
# Convention : Reuss Voigt Hill
#
# Bulk Modulus (GPa) = 44.11450 78.79722 61.45586
# Shear Modulus (GPa) = 34.18972 52.70083 43.44527
#
# Velocity S-wave (km/s) = 3.53529 4.38921 3.98519
# Velocity P-wave (km/s) = 5.72632 7.38185 6.60615
#
# Compressibility (1/GPa) = 0.02266828
#
# Stress axis : x y z
#
# Youngs Moduli (GPa) = 74.12623 383.30205 67.13664
#
# Poissons Ratio (x) = 0.14851 0.15852
# Poissons Ratio (y) = 0.02872 0.09496
# Poissons Ratio (z) = 0.17503 0.54214
#
# Static dielectric constant tensor:
#      x y z
#    x 2.221400 0.000000 0.000000 
#    y 0.000000 2.331110 0.000000 
#    z 0.000000 0.000000 2.173080 
# 
# From -- ./inp_files/6003.got.cif
#   From: 2010.05.17/outbox.cif.g08.bks.cpg/sg20_4_cif.got.tgz:6003.got - 2010.06.03 22:52:26.
