data_PCOD9318326
_publ_section_title
;
Structure prediction by ZEFSAII (Michael W. Deem and Ramdas Pophale) SiO2 
 PCOD9318326
Probable space group: C 2 2 21
;
_chemical_formula_sum "Si O2"
_cell_formula_units_Z 40
_cell_length_a 8.148610
_cell_length_b 20.975095
_cell_length_c 10.625287
_cell_angle_alpha 90.000000
_cell_angle_beta 90.000000
_cell_angle_gamma 90.000000
_cell_volume 1816.051410
_symmetry_space_group_name_H-M "C 2 2 21"
_symmetry_group_IT_number 20
_symmetry_cell_setting 'orthorhombic'
loop_
_space_group_symop_operation_xyz
x,y,z
-x,-y,1/2+z
x,-y,-z
-x,y,1/2-z
1/2+x,1/2+y,z
1/2-x,1/2-y,1/2+z
1/2+x,1/2-y,-z
1/2-x,1/2+y,1/2-z
loop_
_atom_site_type_symbol
_atom_site_label
_atom_site_fract_x
_atom_site_fract_y
_atom_site_fract_z
Si Si1 0.631593 0.738700 0.352179
Si Si2 0.683706 0.860129 0.705513
Si Si3 0.599937 0.682625 0.964144
Si Si4 0.457607 0.547419 0.608949
Si Si5 0.101223 0.495182 0.365283
O O1 0.500000 0.760720 0.250000
O O2 0.696446 0.668440 0.312131
O O3 0.532386 0.731701 0.481163
O O4 0.785697 0.784940 0.360912
O O5 0.500000 0.839918 0.750000
O O6 0.774921 0.835190 0.579112
O O7 0.665388 0.935964 0.683708
O O8 0.502834 0.620449 0.918490
O O9 0.518910 0.500000 0.500000
O O10 0.500000 0.527105 0.750000
O O11 0.259972 0.546001 0.603957
O O12 0.009493 0.500000 0.500000
O O13 0.000000 0.467269 0.250000
#
# Coordination Sequence:
#
# PCOD9318326 Si02
#       5
#     8   8   8   8   8
#     4  10  24  39  67  94 127 177 217 276 336 392
#     4  10  20  39  65  89 129 174 217 271 330 398
#     4  11  22  43  62  99 131 169 225 275 329 399
#     4  11  25  42  67  96 136 171 218 276 327 397
#     4  10  21  41  64  98 133 172 217 269 329 398
#
# _framework density 22.025808999999999
#
# number of rings (size 3 to 8) (size 9 to 14) (size 15 to 20)
#    0.000    1.600    4.000    1.200    2.800    5.600 
#    3.600    0.000    0.000    0.000    0.000    0.000 
#    0.000    0.000    0.000    0.000    0.000    0.000 
#
# Total GULP energy -111549.579784 kJ/mol
# GULP energy per Si atom -5577.478989 kJ/mol
# Density = 2.197568 g / cm^3
# Si number density = 22.025809 Si / 1000 Ang^3
#
#
#
# Elastic Constant Matrix: (Units=GPa)
#
#
# Indices 1 2 3 4 5 6 
#
# 1 37.6373 -1.0607 13.1684 0.0000 0.0000 0.0000
# 2 -1.0607 64.7258 14.8345 0.0000 0.0000 0.0000
# 3 13.1684 14.8345 116.2409 0.0000 0.0000 0.0000
# 4 0.0000 0.0000 0.0000 10.8869 0.0000 0.0000
# 5 0.0000 0.0000 0.0000 0.0000 42.7019 0.0000
# 6 0.0000 0.0000 0.0000 0.0000 0.0000 73.1539
#
#
#
# Elastic Compliance Matrix: (Units=1/GPa)
#
#
# Indices 1 2 3 4 5 6 
#
# 1 0.027758 0.001211 -0.003299 0.000000 0.000000 0.000000
# 2 0.001211 0.015968 -0.002175 0.000000 0.000000 0.000000
# 3 -0.003299 -0.002175 0.009254 0.000000 0.000000 0.000000
# 4 0.000000 0.000000 0.000000 0.091853 0.000000 0.000000
# 5 0.000000 0.000000 0.000000 0.000000 0.023418 0.000000
# 6 0.000000 0.000000 0.000000 0.000000 0.000000 0.013670
#
#
# Mechanical properties :
#
#
# Convention : Reuss Voigt Hill
#
# Bulk Modulus (GPa) = 22.49524 30.27648 26.38586
# Shear Modulus (GPa) = 24.35870 38.12599 31.24234
#
# Velocity S-wave (km/s) = 3.32914 4.16501 3.77031
# Velocity P-wave (km/s) = 5.00129 6.07499 5.56409
#
# Compressibility (1/GPa) = 0.04445385
#
# Stress axis : x y z
#
# Youngs Moduli (GPa) = 36.02588 62.62472 108.05976
#
# Poissons Ratio (x) = -0.07584 0.35650
# Poissons Ratio (y) = -0.04363 0.23503
# Poissons Ratio (z) = 0.11885 0.13621
#
# Static dielectric constant tensor:
#      x y z
#    x 1.799330 0.000000 0.000000 
#    y 0.000000 1.801160 0.000000 
#    z 0.000000 0.000000 1.762420 
# 
# From -- ./inp_files/12898.got.cif
#   From: 2010.05.17/outbox.cif.g08.bks.cpg/sg20_7_cif.got.tgz:12898.got - 2010.06.03 22:52:26.
