data_PCOD9318085
_publ_section_title
;
Structure prediction by ZEFSAII (Michael W. Deem and Ramdas Pophale) SiO2 
 PCOD9318085
Probable space group: C 2 2 21
;
_chemical_formula_sum "Si O2"
_cell_formula_units_Z 60
_cell_length_a 5.588727
_cell_length_b 24.649485
_cell_length_c 18.700259
_cell_angle_alpha 90.000000
_cell_angle_beta 90.000000
_cell_angle_gamma 90.000000
_cell_volume 2576.133512
_symmetry_space_group_name_H-M "C 2 2 21"
_symmetry_group_IT_number 20
_symmetry_cell_setting 'orthorhombic'
loop_
_space_group_symop_operation_xyz
x,y,z
-x,-y,1/2+z
x,-y,-z
-x,y,1/2-z
1/2+x,1/2+y,z
1/2-x,1/2-y,1/2+z
1/2+x,1/2-y,-z
1/2-x,1/2+y,1/2-z
loop_
_atom_site_type_symbol
_atom_site_label
_atom_site_fract_x
_atom_site_fract_y
_atom_site_fract_z
Si Si1 0.664424 0.636272 0.050720
Si Si2 0.024422 0.907495 0.095675
Si Si3 0.404115 0.500000 0.000000
Si Si4 0.726725 0.754281 0.896870
Si Si5 0.010258 0.568736 0.835104
Si Si6 0.321928 0.640193 0.183128
Si Si7 0.450744 0.946372 0.606977
Si Si8 0.236882 0.736339 0.936600
O O1 0.483384 0.629274 0.114643
O O2 0.754353 0.697672 0.059995
O O3 0.855987 0.589411 0.064655
O O4 0.545705 0.629517 0.974115
O O5 0.268258 0.901141 0.139689
O O6 0.764367 0.907761 0.134256
O O7 0.045049 0.967308 0.059460
O O8 0.240933 0.540907 0.044849
O O9 0.720930 0.800002 0.835301
O O10 0.478543 0.721579 0.894628
O O11 0.984896 0.724373 0.897860
O O12 0.731685 0.778881 0.979064
O O13 0.996206 0.505959 0.861766
O O14 0.000000 0.569288 0.750000
O O15 0.500000 0.638987 0.250000
O O16 0.129766 0.592453 0.173091
#
# Coordination Sequence:
#
# PCOD9318085 Si02
#       8
#     8   8   4   8   8   8   8   8
#     4  11  21  37  60  91 117 160 209 261 300 374
#     4  11  22  39  61  83 116 157 210 261 309 355
#     4  10  20  38  54  82 112 164 200 262 294 352
#     4   9  18  37  53  87 114 155 190 234 299 371
#     4  11  26  40  59  83 118 163 206 261 317 375
#     4  11  24  36  56  87 132 165 201 253 315 375
#     4  11  22  36  56  81 126 158 215 253 313 365
#     4   9  18  33  63  81 116 145 194 248 295 355
#
# _framework density 23.290717999999998
#
# number of rings (size 3 to 8) (size 9 to 14) (size 15 to 20)
#    0.000    1.600    2.667    2.800    3.733    0.533 
#    0.000    0.000    0.000    0.800    0.000   11.200 
#    0.000    0.000    0.000    0.000    0.000    0.000 
#
# Total GULP energy -167425.930670 kJ/mol
# GULP energy per Si atom -5580.864356 kJ/mol
# Density = 2.323771 g / cm^3
# Si number density = 23.290718 Si / 1000 Ang^3
#
#
#
# Elastic Constant Matrix: (Units=GPa)
#
#
# Indices 1 2 3 4 5 6 
#
# 1 166.0208 32.4124 57.7214 0.0000 0.0000 0.0000
# 2 32.4124 62.6341 27.9461 0.0000 0.0000 0.0000
# 3 57.7214 27.9461 127.3283 0.0000 0.0000 0.0000
# 4 0.0000 0.0000 0.0000 17.9252 0.0000 0.0000
# 5 0.0000 0.0000 0.0000 0.0000 34.8388 0.0000
# 6 0.0000 0.0000 0.0000 0.0000 0.0000 -24.9315
#
#
#
# Elastic Compliance Matrix: (Units=1/GPa)
#
#
# Indices 1 2 3 4 5 6 
#
# 1 0.007521 -0.002628 -0.002833 0.000000 0.000000 0.000000
# 2 -0.002628 0.018617 -0.002895 0.000000 0.000000 0.000000
# 3 -0.002833 -0.002895 0.009773 0.000000 0.000000 0.000000
# 4 0.000000 0.000000 0.000000 0.055788 0.000000 0.000000
# 5 0.000000 0.000000 0.000000 0.000000 0.028704 0.000000
# 6 0.000000 0.000000 0.000000 0.000000 0.000000 -0.040110
#
#
# Mechanical properties :
#
#
# Convention : Reuss Voigt Hill
#
# Bulk Modulus (GPa) = 52.08205 65.79367 58.93786
# Shear Modulus (GPa) = 48.35364 21.42672 34.89018
#
# Velocity S-wave (km/s) = 4.56136 3.03639 3.87464
# Velocity P-wave (km/s) = 7.08178 6.37205 6.73627
#
# Compressibility (1/GPa) = 0.01920047
#
# Stress axis : x y z
#
# Youngs Moduli (GPa) = 132.95487 53.71319 102.32046
#
# Poissons Ratio (x) = 0.14117 0.28985
# Poissons Ratio (y) = 0.34944 0.29619
# Poissons Ratio (z) = 0.37663 0.15548
#
# Static dielectric constant tensor:
#      x y z
#    x 2.099260 0.000000 0.000000 
#    y 0.000000 2.033100 0.000000 
#    z 0.000000 0.000000 1.823870 
# 
# From -- ./inp_files/22928.got.cif
#   From: 2010.05.17/outbox.cif.g08.bks.cpg/sg20_12_cif.got.tgz:22928.got - 2010.06.03 22:52:26.
