data_PCOD9318971
_publ_section_title
;
Structure prediction by ZEFSAII (Michael W. Deem and Ramdas Pophale) SiO2 
 PCOD9318971
Probable space group: C 2 2 21
;
_chemical_formula_sum "Si O2"
_cell_formula_units_Z 44
_cell_length_a 27.328268
_cell_length_b 8.708443
_cell_length_c 9.505061
_cell_angle_alpha 90.000000
_cell_angle_beta 90.000000
_cell_angle_gamma 90.000000
_cell_volume 2262.077760
_symmetry_space_group_name_H-M "C 2 2 21"
_symmetry_group_IT_number 20
_symmetry_cell_setting 'orthorhombic'
loop_
_space_group_symop_operation_xyz
x,y,z
-x,-y,1/2+z
x,-y,-z
-x,y,1/2-z
1/2+x,1/2+y,z
1/2-x,1/2-y,1/2+z
1/2+x,1/2-y,-z
1/2-x,1/2+y,1/2-z
loop_
_atom_site_type_symbol
_atom_site_label
_atom_site_fract_x
_atom_site_fract_y
_atom_site_fract_z
Si Si1 0.278333 0.500000 0.500000
Si Si2 0.413848 0.179187 0.526870
Si Si3 0.643926 0.363476 0.210868
Si Si4 0.817013 0.329402 0.967419
Si Si5 0.488262 0.656892 0.085553
Si Si6 0.384903 0.320358 0.822702
O O1 0.312355 0.550930 0.628124
O O2 0.241138 0.639247 0.464466
O O3 0.388699 0.278495 0.404798
O O4 0.471031 0.223956 0.533563
O O5 0.390513 0.230916 0.675760
O O6 0.406915 0.000000 0.500000
O O7 0.664474 0.243618 0.323523
O O8 0.614624 0.498852 0.288596
O O9 0.837767 0.500000 0.000000
O O10 0.836230 0.223374 0.093467
O O11 0.500000 0.627627 0.250000
O O12 0.432529 0.715295 0.082800
O O13 0.493340 0.500000 0.000000
#
# Coordination Sequence:
#
# PCOD9318971 Si02
#       6
#     4   8   8   8   8   8
#     4  10  26  40  66  98 128 174 228 272 344 396
#     4  11  23  40  66  94 133 173 215 274 339 397
#     4  12  22  45  68  93 133 176 225 272 335 412
#     4  10  25  41  63  98 128 165 222 273 336 375
#     4  10  21  38  62  95 126 167 220 263 326 406
#     4  11  22  43  66  96 131 174 220 273 329 400
#
# _framework density 19.451143999999999
#
# number of rings (size 3 to 8) (size 9 to 14) (size 15 to 20)
#    0.545    0.727    1.818    4.909    2.545    0.727 
#    0.000   10.000    0.000    0.000    0.000    0.000 
#    0.000    0.000    0.000    0.000    0.000    0.000 
#
# Total GULP energy -122869.687399 kJ/mol
# GULP energy per Si atom -5584.985791 kJ/mol
# Density = 1.940687 g / cm^3
# Si number density = 19.451144 Si / 1000 Ang^3
#
#
#
# Elastic Constant Matrix: (Units=GPa)
#
#
# Indices 1 2 3 4 5 6 
#
# 1 107.9461 36.9815 42.9158 0.0000 0.0000 0.0000
# 2 36.9815 89.5509 40.5076 0.0000 0.0000 0.0000
# 3 42.9158 40.5076 81.4989 0.0000 0.0000 0.0000
# 4 0.0000 0.0000 0.0000 43.7322 0.0000 0.0000
# 5 0.0000 0.0000 0.0000 0.0000 26.8848 0.0000
# 6 0.0000 0.0000 0.0000 0.0000 0.0000 12.4244
#
#
#
# Elastic Compliance Matrix: (Units=1/GPa)
#
#
# Indices 1 2 3 4 5 6 
#
# 1 0.012222 -0.002756 -0.005066 0.000000 0.000000 0.000000
# 2 -0.002756 0.015027 -0.006018 0.000000 0.000000 0.000000
# 3 -0.005066 -0.006018 0.017929 0.000000 0.000000 0.000000
# 4 0.000000 0.000000 0.000000 0.022866 0.000000 0.000000
# 5 0.000000 0.000000 0.000000 0.000000 0.037196 0.000000
# 6 0.000000 0.000000 0.000000 0.000000 0.000000 0.080487
#
#
# Mechanical properties :
#
#
# Convention : Reuss Voigt Hill
#
# Bulk Modulus (GPa) = 57.14762 57.75618 57.45190
# Shear Modulus (GPa) = 22.80611 27.18102 24.99357
#
# Velocity S-wave (km/s) = 3.42787 3.74224 3.58850
# Velocity P-wave (km/s) = 6.71646 6.95916 6.83889
#
# Compressibility (1/GPa) = 0.01749854
#
# Stress axis : x y z
#
# Youngs Moduli (GPa) = 81.81879 66.54725 55.77568
#
# Poissons Ratio (x) = 0.18338 0.28258
# Poissons Ratio (y) = 0.22546 0.33565
# Poissons Ratio (z) = 0.41452 0.40047
#
# Static dielectric constant tensor:
#      x y z
#    x 1.699000 0.000000 0.000000 
#    y 0.000000 1.656440 0.000000 
#    z 0.000000 0.000000 1.674420 
# 
# From -- ./inp_files/11360.got.cif
#   From: 2010.05.17/outbox.cif.g08.bks.cpg/sg20_6_cif.got.tgz:11360.got - 2010.06.03 22:52:26.
