data_PCOD9318226
_publ_section_title
;
Structure prediction by ZEFSAII (Michael W. Deem and Ramdas Pophale) SiO2 
 PCOD9318226
Probable space group: C 2 2 21
;
_chemical_formula_sum "Si O2"
_cell_formula_units_Z 48
_cell_length_a 12.406917
_cell_length_b 14.092009
_cell_length_c 12.890123
_cell_angle_alpha 90.000000
_cell_angle_beta 90.000000
_cell_angle_gamma 90.000000
_cell_volume 2253.688301
_symmetry_space_group_name_H-M "C 2 2 21"
_symmetry_group_IT_number 20
_symmetry_cell_setting 'orthorhombic'
loop_
_space_group_symop_operation_xyz
x,y,z
-x,-y,1/2+z
x,-y,-z
-x,y,1/2-z
1/2+x,1/2+y,z
1/2-x,1/2-y,1/2+z
1/2+x,1/2-y,-z
1/2-x,1/2+y,1/2-z
loop_
_atom_site_type_symbol
_atom_site_label
_atom_site_fract_x
_atom_site_fract_y
_atom_site_fract_z
Si Si1 0.500000 0.159857 0.250000
Si Si2 0.264254 0.500000 0.500000
Si Si3 0.089031 0.201860 0.576676
Si Si4 0.896541 0.653863 0.898936
Si Si5 0.095460 0.507952 0.879156
Si Si6 0.933259 0.043655 0.656752
Si Si7 0.250052 0.641898 0.781416
O O1 0.439056 0.226043 0.169485
O O2 0.437231 0.090178 0.327222
O O3 0.187572 0.413921 0.463180
O O4 0.348962 0.480454 0.593006
O O5 0.073002 0.257799 0.470624
O O6 0.213183 0.181268 0.607308
O O7 0.016281 0.106705 0.587696
O O8 0.835357 0.689606 0.795566
O O9 0.997134 0.584653 0.874033
O O10 0.193356 0.544021 0.810457
O O11 0.121930 0.500000 0.000000
O O12 0.856252 0.120047 0.714546
O O13 0.000000 0.995996 0.750000
#
# Coordination Sequence:
#
# PCOD9318226 Si02
#       7
#     4   4   8   8   8   8   8
#     4  12  20  38  64  90 116 166 206 258 304 378
#     4  10  20  38  66  84 116 168 208 244 314 370
#     4  11  22  40  65  88 125 167 208 249 323 370
#     4  11  21  38  64  94 120 161 212 262 309 369
#     4  12  23  37  62  95 125 157 210 261 311 367
#     4   9  20  41  58  86 123 169 200 255 309 376
#     4  10  22  40  59  90 130 162 195 268 309 372
#
# _framework density 21.298421000000001
#
# number of rings (size 3 to 8) (size 9 to 14) (size 15 to 20)
#    0.000    1.333    6.667    0.000    2.333    4.000 
#    6.000    1.667    0.000    0.000    0.000    0.000 
#    0.000    0.000    0.000    0.000    0.000    0.000 
#
# Total GULP energy -133740.047546 kJ/mol
# GULP energy per Si atom -5572.501981 kJ/mol
# Density = 2.124995 g / cm^3
# Si number density = 21.298421 Si / 1000 Ang^3
#
#
#
# Elastic Constant Matrix: (Units=GPa)
#
#
# Indices 1 2 3 4 5 6 
#
# 1 55.7404 13.3686 9.8343 0.0000 0.0000 0.0000
# 2 13.3686 29.4708 -3.5969 0.0000 0.0000 0.0000
# 3 9.8343 -3.5969 56.7536 0.0000 0.0000 0.0000
# 4 0.0000 0.0000 0.0000 -66.3806 0.0000 0.0000
# 5 0.0000 0.0000 0.0000 0.0000 37.0984 0.0000
# 6 0.0000 0.0000 0.0000 0.0000 0.0000 18.5477
#
#
#
# Elastic Compliance Matrix: (Units=1/GPa)
#
#
# Indices 1 2 3 4 5 6 
#
# 1 0.021123 -0.010107 -0.004301 0.000000 0.000000 0.000000
# 2 -0.010107 0.039032 0.004225 0.000000 0.000000 0.000000
# 3 -0.004301 0.004225 0.018633 0.000000 0.000000 0.000000
# 4 0.000000 0.000000 0.000000 -0.015065 0.000000 0.000000
# 5 0.000000 0.000000 0.000000 0.000000 0.026955 0.000000
# 6 0.000000 0.000000 0.000000 0.000000 0.000000 0.053915
#
#
# Mechanical properties :
#
#
# Convention : Reuss Voigt Hill
#
# Bulk Modulus (GPa) = 17.11644 20.13075 18.62359
# Shear Modulus (GPa) = 27.11009 6.01037 16.56023
#
# Velocity S-wave (km/s) = 3.57160 1.68170 2.79145
# Velocity P-wave (km/s) = 5.00623 3.63910 4.37638
#
# Compressibility (1/GPa) = 0.05842337
#
# Stress axis : x y z
#
# Youngs Moduli (GPa) = 47.34169 25.61988 53.66815
#
# Poissons Ratio (x) = 0.25893 0.23081
# Poissons Ratio (y) = 0.47847 -0.22675
# Poissons Ratio (z) = 0.20360 -0.10824
#
# Static dielectric constant tensor:
#      x y z
#    x 1.878250 0.000000 0.000000 
#    y 0.000000 1.755190 0.000000 
#    z 0.000000 0.000000 1.845080 
# 
# From -- ./inp_files/20008.got.cif
#   From: 2010.05.17/outbox.cif.g08.bks.cpg/sg20_11_cif.got.tgz:20008.got - 2010.06.03 22:52:26.
