data_PCOD9318950
_publ_section_title
;
Structure prediction by ZEFSAII (Michael W. Deem and Ramdas Pophale) SiO2 
 PCOD9318950
Probable space group: C 2 2 21
;
_chemical_formula_sum "Si O2"
_cell_formula_units_Z 40
_cell_length_a 11.893927
_cell_length_b 13.480324
_cell_length_c 12.849092
_cell_angle_alpha 90.000000
_cell_angle_beta 90.000000
_cell_angle_gamma 90.000000
_cell_volume 2060.146183
_symmetry_space_group_name_H-M "C 2 2 21"
_symmetry_group_IT_number 20
_symmetry_cell_setting 'orthorhombic'
loop_
_space_group_symop_operation_xyz
x,y,z
-x,-y,1/2+z
x,-y,-z
-x,y,1/2-z
1/2+x,1/2+y,z
1/2-x,1/2-y,1/2+z
1/2+x,1/2-y,-z
1/2-x,1/2+y,1/2-z
loop_
_atom_site_type_symbol
_atom_site_label
_atom_site_fract_x
_atom_site_fract_y
_atom_site_fract_z
Si Si1 0.237886 0.094743 0.436498
Si Si2 0.121748 0.364364 0.299701
Si Si3 0.721571 0.257299 0.891576
Si Si4 0.480478 0.672860 0.127030
Si Si5 0.131395 0.586411 0.281638
O O1 0.259980 0.186899 0.511259
O O2 0.104000 0.092107 0.416666
O O3 0.298609 0.099076 0.325491
O O4 0.278873 0.000000 0.500000
O O5 0.197007 0.312285 0.210414
O O6 0.088650 0.277746 0.380749
O O7 0.158425 0.475699 0.326542
O O8 0.000000 0.383670 0.250000
O O9 0.605607 0.315991 0.914897
O O10 0.821686 0.331081 0.860611
O O11 0.500000 0.656400 0.250000
O O12 0.000000 0.597918 0.250000
#
# Coordination Sequence:
#
# PCOD9318950 Si02
#       5
#     8   8   8   8   8
#     4  12  23  38  64  91 117 160 209 243 300 370
#     4   8  16  36  61  81 114 159 188 235 307 348
#     4  10  21  38  61  88 123 157 196 255 298 355
#     4   9  19  41  62  81 123 164 190 242 317 353
#     4  11  22  39  60  94 122 156 205 255 298 352
#
# _framework density 19.416098000000002
#
# number of rings (size 3 to 8) (size 9 to 14) (size 15 to 20)
#    0.000    2.400    6.000    0.000    2.800    0.000 
#    0.000    6.000    0.000    0.000    0.000    0.000 
#    0.000    0.000    0.000    0.000    0.000    0.000 
#
# Total GULP energy -111346.182015 kJ/mol
# GULP energy per Si atom -5567.309101 kJ/mol
# Density = 1.937191 g / cm^3
# Si number density = 19.416098 Si / 1000 Ang^3
#
#
#
# Elastic Constant Matrix: (Units=GPa)
#
#
# Indices 1 2 3 4 5 6 
#
# 1 80.1508 6.2554 8.1092 0.0000 0.0000 0.0000
# 2 6.2554 57.4098 7.2157 0.0000 0.0000 0.0000
# 3 8.1092 7.2157 28.4310 0.0000 0.0000 0.0000
# 4 0.0000 0.0000 0.0000 18.3134 0.0000 0.0000
# 5 0.0000 0.0000 0.0000 0.0000 8.1341 0.0000
# 6 0.0000 0.0000 0.0000 0.0000 0.0000 4.2379
#
#
#
# Elastic Compliance Matrix: (Units=1/GPa)
#
#
# Indices 1 2 3 4 5 6 
#
# 1 0.012900 -0.000974 -0.003432 0.000000 0.000000 0.000000
# 2 -0.000974 0.018066 -0.004307 0.000000 0.000000 0.000000
# 3 -0.003432 -0.004307 0.037245 0.000000 0.000000 0.000000
# 4 0.000000 0.000000 0.000000 0.054605 0.000000 0.000000
# 5 0.000000 0.000000 0.000000 0.000000 0.122939 0.000000
# 6 0.000000 0.000000 0.000000 0.000000 0.000000 0.235967
#
#
# Mechanical properties :
#
#
# Convention : Reuss Voigt Hill
#
# Bulk Modulus (GPa) = 19.69133 23.23914 21.46523
# Shear Modulus (GPa) = 9.68847 15.76449 12.72648
#
# Velocity S-wave (km/s) = 2.23624 2.85253 2.56297
# Velocity P-wave (km/s) = 4.10261 4.77956 4.45397
#
# Compressibility (1/GPa) = 0.05078376
#
# Stress axis : x y z
#
# Youngs Moduli (GPa) = 77.52083 55.35213 26.84931
#
# Poissons Ratio (x) = 0.05392 0.09215
# Poissons Ratio (y) = 0.07552 0.11565
# Poissons Ratio (z) = 0.26606 0.23842
#
# Static dielectric constant tensor:
#      x y z
#    x 1.711320 0.000000 0.000000 
#    y 0.000000 1.812820 0.000000 
#    z 0.000000 0.000000 1.700030 
# 
# From -- ./inp_files/19687.got.cif
#   From: 2010.05.17/outbox.cif.g08.bks.cpg/sg20_10_cif.got.tgz:19687.got - 2010.06.03 22:52:26.
