data_PCOD9318195
_publ_section_title
;
Structure prediction by ZEFSAII (Michael W. Deem and Ramdas Pophale) SiO2 
 PCOD9318195
Probable space group: C 2 2 21
;
_chemical_formula_sum "Si O2"
_cell_formula_units_Z 64
_cell_length_a 9.388906
_cell_length_b 22.471503
_cell_length_c 14.922858
_cell_angle_alpha 90.000000
_cell_angle_beta 90.000000
_cell_angle_gamma 90.000000
_cell_volume 3148.466803
_symmetry_space_group_name_H-M "C 2 2 21"
_symmetry_group_IT_number 20
_symmetry_cell_setting 'orthorhombic'
loop_
_space_group_symop_operation_xyz
x,y,z
-x,-y,1/2+z
x,-y,-z
-x,y,1/2-z
1/2+x,1/2+y,z
1/2-x,1/2-y,1/2+z
1/2+x,1/2-y,-z
1/2-x,1/2+y,1/2-z
loop_
_atom_site_type_symbol
_atom_site_label
_atom_site_fract_x
_atom_site_fract_y
_atom_site_fract_z
Si Si1 0.581434 0.656657 0.657669
Si Si2 0.335769 0.223547 0.740191
Si Si3 0.473118 0.142642 0.353949
Si Si4 0.285484 0.324224 0.596732
Si Si5 0.354071 0.980001 0.713981
Si Si6 0.345901 0.256994 0.414605
Si Si7 0.116849 0.031454 0.592012
Si Si8 0.599188 0.562703 0.167095
O O1 0.500000 0.639125 0.750000
O O2 0.738270 0.677739 0.684857
O O3 0.493175 0.711644 0.616978
O O4 0.582922 0.600813 0.592040
O O5 0.500000 0.208125 0.750000
O O6 0.317228 0.285625 0.686027
O O7 0.269116 0.226995 0.839121
O O8 0.500000 0.162871 0.250000
O O9 0.625238 0.150642 0.400393
O O10 0.408092 0.076968 0.343628
O O11 0.368229 0.186671 0.405775
O O12 0.308341 0.282605 0.511133
O O13 0.384544 0.382560 0.599691
O O14 0.500000 0.008290 0.750000
O O15 0.248882 0.021479 0.658922
O O16 0.253649 0.954178 0.793083
O O17 0.980423 0.994485 0.627532
O O18 0.156058 0.000000 0.500000
O O19 0.500000 0.582464 0.250000
#
# Coordination Sequence:
#
# PCOD9318195 Si02
#       8
#     8   8   8   8   8   8   8   8
#     4  10  21  44  63  81 128 174 205 245 316 384
#     4  11  24  39  60  95 127 165 213 255 309 387
#     4  11  19  41  64  90 129 167 204 267 325 375
#     4  12  22  37  65  95 129 163 211 268 317 372
#     4  10  20  39  68  86 120 165 210 261 320 370
#     4  11  23  39  63  91 125 178 204 247 326 386
#     4  11  24  41  63  95 124 160 212 267 312 375
#     4  10  20  38  63  94 119 162 214 259 310 372
#
# _framework density 20.327355000000001
#
# number of rings (size 3 to 8) (size 9 to 14) (size 15 to 20)
#    0.000    1.250    5.000    2.625    1.750    2.500 
#    0.000    0.625    0.000    0.000    0.000    0.000 
#    0.000    0.000    0.000    0.000    0.000    0.000 
#
# Total GULP energy -178757.333615 kJ/mol
# GULP energy per Si atom -5586.166675 kJ/mol
# Density = 2.028109 g / cm^3
# Si number density = 20.327355 Si / 1000 Ang^3
#
#
#
# Elastic Constant Matrix: (Units=GPa)
#
#
# Indices 1 2 3 4 5 6 
#
# 1 118.2799 16.6033 10.7289 0.0000 0.0000 0.0000
# 2 16.6033 51.3870 -12.8520 0.0000 0.0000 0.0000
# 3 10.7289 -12.8520 43.5111 0.0000 0.0000 0.0000
# 4 0.0000 0.0000 0.0000 16.3152 0.0000 0.0000
# 5 0.0000 0.0000 0.0000 0.0000 18.5044 0.0000
# 6 0.0000 0.0000 0.0000 0.0000 0.0000 21.5158
#
#
#
# Elastic Compliance Matrix: (Units=1/GPa)
#
#
# Indices 1 2 3 4 5 6 
#
# 1 0.009309 -0.003868 -0.003438 0.000000 0.000000 0.000000
# 2 -0.003868 0.022619 0.007635 0.000000 0.000000 0.000000
# 3 -0.003438 0.007635 0.026085 0.000000 0.000000 0.000000
# 4 0.000000 0.000000 0.000000 0.061292 0.000000 0.000000
# 5 0.000000 0.000000 0.000000 0.000000 0.054041 0.000000
# 6 0.000000 0.000000 0.000000 0.000000 0.000000 0.046477
#
#
# Mechanical properties :
#
#
# Convention : Reuss Voigt Hill
#
# Bulk Modulus (GPa) = 17.04372 26.90426 21.97399
# Shear Modulus (GPa) = 20.94468 24.51361 22.72914
#
# Velocity S-wave (km/s) = 3.21342 3.47643 3.34751
# Velocity P-wave (km/s) = 4.70860 5.42018 5.07687
#
# Compressibility (1/GPa) = 0.05867265
#
# Stress axis : x y z
#
# Youngs Moduli (GPa) = 107.41967 44.20998 38.33550
#
# Poissons Ratio (x) = 0.17099 0.13179
# Poissons Ratio (y) = 0.41547 -0.29269
# Poissons Ratio (z) = 0.36930 -0.33754
#
# Static dielectric constant tensor:
#      x y z
#    x 1.726490 0.000000 0.000000 
#    y 0.000000 1.711880 0.000000 
#    z 0.000000 0.000000 1.721710 
# 
# From -- ./inp_files/19375.got.cif
#   From: 2010.05.17/outbox.cif.g08.bks.cpg/sg20_10_cif.got.tgz:19375.got - 2010.06.03 22:52:26.
