data_PCOD9318779
_publ_section_title
;
Structure prediction by ZEFSAII (Michael W. Deem and Ramdas Pophale) SiO2 
 PCOD9318779
Probable space group: C 2 2 21
;
_chemical_formula_sum "Si O2"
_cell_formula_units_Z 52
_cell_length_a 5.491006
_cell_length_b 19.749070
_cell_length_c 21.050918
_cell_angle_alpha 90.000000
_cell_angle_beta 90.000000
_cell_angle_gamma 90.000000
_cell_volume 2282.809162
_symmetry_space_group_name_H-M "C 2 2 21"
_symmetry_group_IT_number 20
_symmetry_cell_setting 'orthorhombic'
loop_
_space_group_symop_operation_xyz
x,y,z
-x,-y,1/2+z
x,-y,-z
-x,y,1/2-z
1/2+x,1/2+y,z
1/2-x,1/2-y,1/2+z
1/2+x,1/2-y,-z
1/2-x,1/2+y,1/2-z
loop_
_atom_site_type_symbol
_atom_site_label
_atom_site_fract_x
_atom_site_fract_y
_atom_site_fract_z
Si Si1 0.146590 0.011147 0.077348
Si Si2 0.143539 0.358611 0.985936
Si Si3 0.850683 0.175407 0.807236
Si Si4 0.994892 0.847588 0.882341
Si Si5 0.862321 0.241195 0.928576
Si Si6 0.000000 0.787485 0.750000
Si Si7 0.129972 0.440939 0.104844
O O1 0.373337 0.978126 0.115552
O O2 0.885449 0.981700 0.101636
O O3 0.164950 0.090843 0.094818
O O4 0.142860 0.000000 0.000000
O O5 0.248276 0.369113 0.917057
O O6 0.960461 0.298084 0.975163
O O7 0.355118 0.325046 0.028530
O O8 0.074480 0.418088 0.031641
O O9 0.993069 0.215546 0.864116
O O10 0.710223 0.235569 0.771064
O O11 0.682135 0.121926 0.846592
O O12 0.000000 0.141129 0.750000
O O13 0.111094 0.775797 0.904610
O O14 0.948904 0.836169 0.808973
#
# Coordination Sequence:
#
# PCOD9318779 Si02
#       7
#     8   8   8   8   8   4   8
#     4  12  25  47  69 105 144 190 237 298 354 432
#     4  11  20  37  64 102 134 176 227 297 349 425
#     4  10  23  44  70  99 140 185 237 300 355 431
#     4  11  23  41  67  95 142 185 234 288 355 423
#     4  10  21  35  64 101 133 174 229 291 365 415
#     4  10  24  46  68 104 136 190 236 298 364 428
#     4  11  27  43  73 102 140 188 240 288 361 420
#
# _framework density 22.778950999999999
#
# number of rings (size 3 to 8) (size 9 to 14) (size 15 to 20)
#    0.000    1.231    3.077    2.308    4.308    0.000 
#    1.385    0.000    0.000    0.000    0.000    0.000 
#    0.000    0.000    0.000    0.000    0.000    0.000 
#
# Total GULP energy -144789.667860 kJ/mol
# GULP energy per Si atom -5568.833379 kJ/mol
# Density = 2.272710 g / cm^3
# Si number density = 22.778951 Si / 1000 Ang^3
#
#
#
# Elastic Constant Matrix: (Units=GPa)
#
#
# Indices 1 2 3 4 5 6 
#
# 1 48.8287 9.7474 12.0407 0.0000 0.0000 0.0000
# 2 9.7474 88.2188 25.1384 0.0000 0.0000 0.0000
# 3 12.0407 25.1384 136.7241 0.0000 0.0000 0.0000
# 4 0.0000 0.0000 0.0000 25.1525 0.0000 0.0000
# 5 0.0000 0.0000 0.0000 0.0000 17.6133 0.0000
# 6 0.0000 0.0000 0.0000 0.0000 0.0000 6.9888
#
#
#
# Elastic Compliance Matrix: (Units=1/GPa)
#
#
# Indices 1 2 3 4 5 6 
#
# 1 0.021236 -0.001914 -0.001518 0.000000 0.000000 0.000000
# 2 -0.001914 0.012135 -0.002063 0.000000 0.000000 0.000000
# 3 -0.001518 -0.002063 0.007827 0.000000 0.000000 0.000000
# 4 0.000000 0.000000 0.000000 0.039757 0.000000 0.000000
# 5 0.000000 0.000000 0.000000 0.000000 0.056775 0.000000
# 6 0.000000 0.000000 0.000000 0.000000 0.000000 0.143085
#
#
# Mechanical properties :
#
#
# Convention : Reuss Voigt Hill
#
# Bulk Modulus (GPa) = 33.10325 40.84716 36.97521
# Shear Modulus (GPa) = 16.56316 25.07392 20.81854
#
# Velocity S-wave (km/s) = 2.69945 3.32135 3.02642
# Velocity P-wave (km/s) = 4.92747 5.71659 5.33664
#
# Compressibility (1/GPa) = 0.03020851
#
# Stress axis : x y z
#
# Youngs Moduli (GPa) = 47.08939 82.40863 127.76387
#
# Poissons Ratio (x) = 0.15771 0.19399
# Poissons Ratio (y) = 0.09012 0.26352
# Poissons Ratio (z) = 0.07150 0.16997
#
# Static dielectric constant tensor:
#      x y z
#    x 2.015000 0.000000 0.000000 
#    y 0.000000 1.984050 0.000000 
#    z 0.000000 0.000000 1.938970 
# 
# From -- ./inp_files/26097.got.cif
#   From: 2010.05.17/outbox.cif.g08.bks.cpg/sg20_14_cif.got.tgz:26097.got - 2010.06.03 22:52:26.
