data_PCOD9318475
_publ_section_title
;
Structure prediction by ZEFSAII (Michael W. Deem and Ramdas Pophale) SiO2 
 PCOD9318475
Probable space group: C 2 2 21
;
_chemical_formula_sum "Si O2"
_cell_formula_units_Z 48
_cell_length_a 12.534234
_cell_length_b 11.176417
_cell_length_c 15.443648
_cell_angle_alpha 90.000000
_cell_angle_beta 90.000000
_cell_angle_gamma 90.000000
_cell_volume 2163.467073
_symmetry_space_group_name_H-M "C 2 2 21"
_symmetry_group_IT_number 20
_symmetry_cell_setting 'orthorhombic'
loop_
_space_group_symop_operation_xyz
x,y,z
-x,-y,1/2+z
x,-y,-z
-x,y,1/2-z
1/2+x,1/2+y,z
1/2-x,1/2-y,1/2+z
1/2+x,1/2-y,-z
1/2-x,1/2+y,1/2-z
loop_
_atom_site_type_symbol
_atom_site_label
_atom_site_fract_x
_atom_site_fract_y
_atom_site_fract_z
Si Si1 0.070790 0.263161 0.128497
Si Si2 0.483157 0.025248 0.397169
Si Si3 0.725415 0.961087 0.399973
Si Si4 0.878398 0.940511 0.745455
Si Si5 0.684350 0.786013 0.949846
Si Si6 0.614466 0.412610 0.567769
O O1 0.114019 0.197098 0.213270
O O2 0.063212 0.404394 0.144301
O O3 0.961782 0.194071 0.100863
O O4 0.135541 0.242481 0.040093
O O5 0.609404 0.017373 0.374530
O O6 0.482402 0.000000 0.500000
O O7 0.407063 0.143180 0.393955
O O8 0.751849 0.819394 0.401698
O O9 0.741686 0.000000 0.500000
O O10 0.810203 0.005519 0.330769
O O11 0.839767 0.963712 0.842013
O O12 0.000000 0.986736 0.750000
O O13 0.780190 0.870837 0.980323
O O14 0.555946 0.500000 0.500000
#
# Coordination Sequence:
#
# PCOD9318475 Si02
#       6
#     8   8   8   8   8   8
#     4  10  20  40  69  95 133 177 228 289 350 423
#     4   9  20  39  67 103 135 175 233 282 350 426
#     4  11  21  43  71 101 141 186 231 294 357 415
#     4  10  24  41  66  99 133 187 234 282 361 425
#     4  11  22  41  71 102 135 185 233 287 357 422
#     4  11  24  44  64  98 137 185 236 294 355 413
#
# _framework density 22.186610000000002
#
# number of rings (size 3 to 8) (size 9 to 14) (size 15 to 20)
#    0.000    1.667    3.333    1.500    4.667    0.000 
#    6.000    2.500    0.000    0.000    0.000    0.000 
#    0.000    0.000    0.000    0.000    0.000    0.000 
#
# Total GULP energy -133609.366704 kJ/mol
# GULP energy per Si atom -5567.056946 kJ/mol
# Density = 2.213611 g / cm^3
# Si number density = 22.186610 Si / 1000 Ang^3
#
#
#
# Elastic Constant Matrix: (Units=GPa)
#
#
# Indices 1 2 3 4 5 6 
#
# 1 74.4965 22.9790 23.2646 0.0000 0.0000 0.0000
# 2 22.9790 89.4731 28.3899 0.0000 0.0000 0.0000
# 3 23.2646 28.3899 89.8282 0.0000 0.0000 0.0000
# 4 0.0000 0.0000 0.0000 19.5824 0.0000 0.0000
# 5 0.0000 0.0000 0.0000 0.0000 -497.9840 0.0000
# 6 0.0000 0.0000 0.0000 0.0000 0.0000 19.2936
#
#
#
# Elastic Compliance Matrix: (Units=1/GPa)
#
#
# Indices 1 2 3 4 5 6 
#
# 1 0.015282 -0.002966 -0.003020 0.000000 0.000000 0.000000
# 2 -0.002966 0.012998 -0.003340 0.000000 0.000000 0.000000
# 3 -0.003020 -0.003340 0.012970 0.000000 0.000000 0.000000
# 4 0.000000 0.000000 0.000000 0.051066 0.000000 0.000000
# 5 0.000000 0.000000 0.000000 0.000000 -0.002008 0.000000
# 6 0.000000 0.000000 0.000000 0.000000 0.000000 0.051831
#
#
# Mechanical properties :
#
#
# Convention : Reuss Voigt Hill
#
# Bulk Modulus (GPa) = 44.25361 44.78499 44.51930
# Shear Modulus (GPa) = 29.70464 -79.87732 -25.08634
#
# Velocity S-wave (km/s) = 3.66301 -6.00672 -3.36623
# Velocity P-wave (km/s) = 6.15463 5.27997 2.23623
#
# Compressibility (1/GPa) = 0.02259703
#
# Stress axis : x y z
#
# Youngs Moduli (GPa) = 65.43789 76.93431 77.10042
#
# Poissons Ratio (x) = 0.22822 0.23287
# Poissons Ratio (y) = 0.19411 0.25750
# Poissons Ratio (z) = 0.19764 0.25694
#
# Static dielectric constant tensor:
#      x y z
#    x 1.914690 0.000000 0.000000 
#    y 0.000000 1.947640 0.000000 
#    z 0.000000 0.000000 1.859990 
# 
# From -- ./inp_files/24263.got.cif
#   From: 2010.05.17/outbox.cif.g08.bks.cpg/sg20_13_cif.got.tgz:24263.got - 2010.06.03 22:52:26.
