data_PCOD9318521
_publ_section_title
;
Structure prediction by ZEFSAII (Michael W. Deem and Ramdas Pophale) SiO2 
 PCOD9318521
Probable space group: C 2 2 21
;
_chemical_formula_sum "Si O2"
_cell_formula_units_Z 56
_cell_length_a 29.628655
_cell_length_b 5.189743
_cell_length_c 15.727727
_cell_angle_alpha 90.000000
_cell_angle_beta 90.000000
_cell_angle_gamma 90.000000
_cell_volume 2418.375592
_symmetry_space_group_name_H-M "C 2 2 21"
_symmetry_group_IT_number 20
_symmetry_cell_setting 'orthorhombic'
loop_
_space_group_symop_operation_xyz
x,y,z
-x,-y,1/2+z
x,-y,-z
-x,y,1/2-z
1/2+x,1/2+y,z
1/2-x,1/2-y,1/2+z
1/2+x,1/2-y,-z
1/2-x,1/2+y,1/2-z
loop_
_atom_site_type_symbol
_atom_site_label
_atom_site_fract_x
_atom_site_fract_y
_atom_site_fract_z
Si Si1 0.419170 0.107836 0.416729
Si Si2 0.674294 0.618267 0.912577
Si Si3 0.751092 0.319821 0.693199
Si Si4 0.658629 0.906226 0.364724
Si Si5 0.630275 0.243566 0.804437
Si Si6 0.895738 0.888800 0.087340
Si Si7 0.550854 0.383319 0.249357
O O1 0.378191 0.308371 0.428701
O O2 0.445889 0.189705 0.331611
O O3 0.444498 0.000000 0.500000
O O4 0.388397 0.871357 0.389852
O O5 0.707173 0.832390 0.873331
O O6 0.670768 0.422196 0.833203
O O7 0.692171 0.500000 0.000000
O O8 0.741918 0.606442 0.730756
O O9 0.710177 0.184936 0.640157
O O10 0.645029 0.962188 0.265878
O O11 0.632118 0.642544 0.385058
O O12 0.640026 0.150817 0.416906
O O13 0.587928 0.402001 0.769767
O O14 0.932947 0.797101 0.156552
O O15 0.916736 0.000000 0.000000
O O16 0.500000 0.481723 0.250000
#
# Coordination Sequence:
#
# PCOD9318521 Si02
#       7
#     8   8   8   8   8   8   8
#     4  11  21  40  70  97 130 175 223 276 348 425
#     4  11  23  37  61  96 133 171 219 284 343 405
#     4  12  25  40  65  97 132 178 231 281 335 397
#     4  11  22  43  68  93 130 183 230 275 330 405
#     4  10  20  41  64  89 129 175 216 273 342 414
#     4  11  24  45  69  95 133 182 230 273 337 409
#     4  10  24  43  66  98 135 170 221 285 348 415
#
# _framework density 23.156039
#
# number of rings (size 3 to 8) (size 9 to 14) (size 15 to 20)
#    0.000    1.143    4.286    2.143    2.000    1.714 
#    2.571    0.714    0.000    0.000    0.000    0.000 
#    0.000    0.000    0.000    0.000    0.000    0.000 
#
# Total GULP energy -155925.172692 kJ/mol
# GULP energy per Si atom -5568.756168 kJ/mol
# Density = 2.310334 g / cm^3
# Si number density = 23.156039 Si / 1000 Ang^3
#
#
#
# Elastic Constant Matrix: (Units=GPa)
#
#
# Indices 1 2 3 4 5 6 
#
# 1 59.5099 2.0628 33.2929 0.0000 0.0000 0.0000
# 2 2.0628 90.6994 23.8918 0.0000 0.0000 0.0000
# 3 33.2929 23.8918 118.8594 0.0000 0.0000 0.0000
# 4 0.0000 0.0000 0.0000 40.2079 0.0000 0.0000
# 5 0.0000 0.0000 0.0000 0.0000 5.9322 0.0000
# 6 0.0000 0.0000 0.0000 0.0000 0.0000 -148.0919
#
#
#
# Elastic Compliance Matrix: (Units=1/GPa)
#
#
# Indices 1 2 3 4 5 6 
#
# 1 0.020026 0.001079 -0.005826 0.000000 0.000000 0.000000
# 2 0.001079 0.011700 -0.002654 0.000000 0.000000 0.000000
# 3 -0.005826 -0.002654 0.010579 0.000000 0.000000 0.000000
# 4 0.000000 0.000000 0.000000 0.024871 0.000000 0.000000
# 5 0.000000 0.000000 0.000000 0.000000 0.168572 0.000000
# 6 0.000000 0.000000 0.000000 0.000000 0.000000 -0.006753
#
#
# Mechanical properties :
#
#
# Convention : Reuss Voigt Hill
#
# Bulk Modulus (GPa) = 36.36024 43.06263 39.71144
# Shear Modulus (GPa) = 19.76555 -6.40231 6.68162
#
# Velocity S-wave (km/s) = 2.92478 -1.66459 1.70051
# Velocity P-wave (km/s) = 5.20981 3.86557 4.58720
#
# Compressibility (1/GPa) = 0.02750257
#
# Stress axis : x y z
#
# Youngs Moduli (GPa) = 49.93493 85.46989 94.52891
#
# Poissons Ratio (x) = -0.09225 0.55075
# Poissons Ratio (y) = -0.05389 0.25089
# Poissons Ratio (z) = 0.29094 0.22685
#
# Static dielectric constant tensor:
#      x y z
#    x 1.859820 0.000000 0.000000 
#    y 0.000000 1.993830 0.000000 
#    z 0.000000 0.000000 2.722040 
# 
# From -- ./inp_files/22274.got.cif
#   From: 2010.05.17/outbox.cif.g08.bks.cpg/sg20_12_cif.got.tgz:22274.got - 2010.06.03 22:52:26.
