data_PCOD9318719
_publ_section_title
;
Structure prediction by ZEFSAII (Michael W. Deem and Ramdas Pophale) SiO2 
 PCOD9318719
Probable space group: C 2 2 21
;
_chemical_formula_sum "Si O2"
_cell_formula_units_Z 36
_cell_length_a 7.156648
_cell_length_b 17.860784
_cell_length_c 11.325188
_cell_angle_alpha 90.000000
_cell_angle_beta 90.000000
_cell_angle_gamma 90.000000
_cell_volume 1447.623403
_symmetry_space_group_name_H-M "C 2 2 21"
_symmetry_group_IT_number 20
_symmetry_cell_setting 'orthorhombic'
loop_
_space_group_symop_operation_xyz
x,y,z
-x,-y,1/2+z
x,-y,-z
-x,y,1/2-z
1/2+x,1/2+y,z
1/2-x,1/2-y,1/2+z
1/2+x,1/2-y,-z
1/2-x,1/2+y,1/2-z
loop_
_atom_site_type_symbol
_atom_site_label
_atom_site_fract_x
_atom_site_fract_y
_atom_site_fract_z
Si Si1 0.577702 0.000000 0.500000
Si Si2 0.331465 0.585983 0.629991
Si Si3 0.312382 0.355148 0.011670
Si Si4 0.682052 0.958413 0.803309
Si Si5 0.447956 0.214659 0.873533
O O1 0.722761 0.932001 0.493244
O O2 0.438573 0.010317 0.608354
O O3 0.289535 0.512900 0.711937
O O4 0.222279 0.660496 0.665686
O O5 0.455554 0.603692 0.899577
O O6 0.292932 0.405970 0.893359
O O7 0.395662 0.276317 0.969202
O O8 0.116495 0.333625 0.071369
O O9 0.500000 0.914538 0.750000
O O10 0.500000 0.253552 0.750000
#
# Coordination Sequence:
#
# PCOD9318719 Si02
#       5
#     4   8   8   8   8
#     4  10  20  46  74 108 164 198 258 336 396 474
#     4  11  25  50  78 117 158 215 269 331 415 486
#     4  12  27  52  84 117 163 217 273 341 413 498
#     4  10  24  48  78 114 164 205 265 346 404 484
#     4  12  27  52  80 114 162 218 271 335 415 496
#
# _framework density 24.868345999999999
#
# number of rings (size 3 to 8) (size 9 to 14) (size 15 to 20)
#    0.000    0.889    4.444    2.000    0.000    7.111 
#    8.000    0.000    0.000    0.000    0.000    0.000 
#    0.000    0.000    0.000    0.000    0.000    0.000 
#
# Total GULP energy -100472.298390 kJ/mol
# GULP energy per Si atom -5581.794355 kJ/mol
# Density = 2.481174 g / cm^3
# Si number density = 24.868346 Si / 1000 Ang^3
#
#
#
# Elastic Constant Matrix: (Units=GPa)
#
#
# Indices 1 2 3 4 5 6 
#
# 1 174.8343 59.3518 53.6092 0.0000 0.0000 0.0000
# 2 59.3518 93.0976 32.8687 0.0000 0.0000 0.0000
# 3 53.6092 32.8687 102.5059 0.0000 0.0000 0.0000
# 4 0.0000 0.0000 0.0000 57.8286 0.0000 0.0000
# 5 0.0000 0.0000 0.0000 0.0000 44.3856 0.0000
# 6 0.0000 0.0000 0.0000 0.0000 0.0000 48.2602
#
#
#
# Elastic Compliance Matrix: (Units=1/GPa)
#
#
# Indices 1 2 3 4 5 6 
#
# 1 0.007983 -0.004077 -0.002868 0.000000 0.000000 0.000000
# 2 -0.004077 0.014195 -0.002419 0.000000 0.000000 0.000000
# 3 -0.002868 -0.002419 0.012031 0.000000 0.000000 0.000000
# 4 0.000000 0.000000 0.000000 0.017292 0.000000 0.000000
# 5 0.000000 0.000000 0.000000 0.000000 0.022530 0.000000
# 6 0.000000 0.000000 0.000000 0.000000 0.000000 0.020721
#
#
# Mechanical properties :
#
#
# Convention : Reuss Voigt Hill
#
# Bulk Modulus (GPa) = 64.59629 73.56637 69.08133
# Shear Modulus (GPa) = 42.14412 45.06877 43.60644
#
# Velocity S-wave (km/s) = 4.12113 4.26172 4.19201
# Velocity P-wave (km/s) = 6.97686 7.33914 7.16029
#
# Compressibility (1/GPa) = 0.01548076
#
# Stress axis : x y z
#
# Youngs Moduli (GPa) = 125.26566 70.44883 83.11774
#
# Poissons Ratio (x) = 0.28721 0.23836
# Poissons Ratio (y) = 0.51069 0.20110
# Poissons Ratio (z) = 0.35923 0.17044
#
# Static dielectric constant tensor:
#      x y z
#    x 2.013260 0.000000 0.000000 
#    y 0.000000 1.937880 0.000000 
#    z 0.000000 0.000000 2.190330 
# 
# From -- ./inp_files/13992.got.cif
#   From: 2010.05.17/outbox.cif.g08.bks.cpg/sg20_7_cif.got.tgz:13992.got - 2010.06.03 22:52:26.
