data_PCOD9318639
_publ_section_title
;
Structure prediction by ZEFSAII (Michael W. Deem and Ramdas Pophale) SiO2 
 PCOD9318639
Probable space group: C 2 2 21
;
_chemical_formula_sum "Si O2"
_cell_formula_units_Z 52
_cell_length_a 17.741899
_cell_length_b 7.217029
_cell_length_c 16.441315
_cell_angle_alpha 90.000000
_cell_angle_beta 90.000000
_cell_angle_gamma 90.000000
_cell_volume 2105.208443
_symmetry_space_group_name_H-M "C 2 2 21"
_symmetry_group_IT_number 20
_symmetry_cell_setting 'orthorhombic'
loop_
_space_group_symop_operation_xyz
x,y,z
-x,-y,1/2+z
x,-y,-z
-x,y,1/2-z
1/2+x,1/2+y,z
1/2-x,1/2-y,1/2+z
1/2+x,1/2-y,-z
1/2-x,1/2+y,1/2-z
loop_
_atom_site_type_symbol
_atom_site_label
_atom_site_fract_x
_atom_site_fract_y
_atom_site_fract_z
Si Si1 0.124277 0.717823 0.355719
Si Si2 0.500000 0.188562 0.250000
Si Si3 0.113881 0.043982 0.845276
Si Si4 0.341141 0.143137 0.903071
Si Si5 0.248685 0.430952 0.237833
Si Si6 0.301262 0.135803 0.426873
Si Si7 0.528872 0.576303 0.411980
O O1 0.152835 0.574881 0.423038
O O2 0.197412 0.773972 0.303645
O O3 0.082486 0.909350 0.377749
O O4 0.056891 0.598144 0.312995
O O5 0.439883 0.316512 0.295875
O O6 0.183023 0.974235 0.791135
O O7 0.147647 0.181301 0.913767
O O8 0.052339 0.893919 0.870695
O O9 0.308320 0.133527 0.808891
O O10 0.280694 0.278766 0.944841
O O11 0.420053 0.244905 0.911226
O O12 0.208713 0.529995 0.160581
O O13 0.324359 0.000000 0.500000
O O14 0.509712 0.500000 0.500000
#
# Coordination Sequence:
#
# PCOD9318639 Si02
#       7
#     8   4   8   8   8   8   8
#     4  10  21  38  66  99 138 180 228 295 349 426
#     4   8  16  38  62  92 128 172 216 280 346 402
#     4   9  21  42  71  95 142 188 229 300 359 421
#     4  11  22  40  70 107 134 189 242 291 359 435
#     4  10  20  42  75 106 141 185 247 299 355 434
#     4  11  23  45  74 103 150 189 242 306 367 432
#     4  11  24  46  68  99 149 189 239 300 373 432
#
# _framework density 24.700641999999998
#
# number of rings (size 3 to 8) (size 9 to 14) (size 15 to 20)
#    0.000    1.846    1.538    3.231    0.000    0.615 
#    8.308    6.154    0.000    0.000    0.000    0.000 
#    0.000    0.000    0.000    0.000    0.000    0.000 
#
# Total GULP energy -144969.786596 kJ/mol
# GULP energy per Si atom -5575.761023 kJ/mol
# Density = 2.464442 g / cm^3
# Si number density = 24.700642 Si / 1000 Ang^3
#
#
#
# Elastic Constant Matrix: (Units=GPa)
#
#
# Indices 1 2 3 4 5 6 
#
# 1 118.4222 8.0421 11.6237 0.0000 0.0000 0.0000
# 2 8.0421 48.4578 -9.9917 0.0000 0.0000 0.0000
# 3 11.6237 -9.9917 50.1080 0.0000 0.0000 0.0000
# 4 0.0000 0.0000 0.0000 38.6029 0.0000 0.0000
# 5 0.0000 0.0000 0.0000 0.0000 25.6875 0.0000
# 6 0.0000 0.0000 0.0000 0.0000 0.0000 33.8995
#
#
#
# Elastic Compliance Matrix: (Units=1/GPa)
#
#
# Indices 1 2 3 4 5 6 
#
# 1 0.008817 -0.001966 -0.002437 0.000000 0.000000 0.000000
# 2 -0.001966 0.021960 0.004835 0.000000 0.000000 0.000000
# 3 -0.002437 0.004835 0.021486 0.000000 0.000000 0.000000
# 4 0.000000 0.000000 0.000000 0.025905 0.000000 0.000000
# 5 0.000000 0.000000 0.000000 0.000000 0.038929 0.000000
# 6 0.000000 0.000000 0.000000 0.000000 0.000000 0.029499
#
#
# Mechanical properties :
#
#
# Convention : Reuss Voigt Hill
#
# Bulk Modulus (GPa) = 18.82301 26.25959 22.54130
# Shear Modulus (GPa) = 30.59193 33.45892 32.02542
#
# Velocity S-wave (km/s) = 3.52306 3.68445 3.60466
# Velocity P-wave (km/s) = 4.91795 5.36232 5.14494
#
# Compressibility (1/GPa) = 0.05312648
#
# Stress axis : x y z
#
# Youngs Moduli (GPa) = 113.41605 45.53799 46.54118
#
# Poissons Ratio (x) = 0.08952 0.11344
# Poissons Ratio (y) = 0.22296 -0.22502
# Poissons Ratio (z) = 0.27643 -0.22017
#
# Static dielectric constant tensor:
#      x y z
#    x 1.938650 0.000000 0.000000 
#    y 0.000000 2.125410 0.000000 
#    z 0.000000 0.000000 2.228310 
# 
# From -- ./inp_files/25239.got.cif
#   From: 2010.05.17/outbox.cif.g08.bks.cpg/sg20_13_cif.got.tgz:25239.got - 2010.06.03 22:52:26.
