data_PCOD9318112
_publ_section_title
;
Structure prediction by ZEFSAII (Michael W. Deem and Ramdas Pophale) SiO2 
 PCOD9318112
Probable space group: C 2 2 21
;
_chemical_formula_sum "Si O2"
_cell_formula_units_Z 48
_cell_length_a 28.755614
_cell_length_b 10.106036
_cell_length_c 7.816132
_cell_angle_alpha 90.000000
_cell_angle_beta 90.000000
_cell_angle_gamma 90.000000
_cell_volume 2271.409152
_symmetry_space_group_name_H-M "C 2 2 21"
_symmetry_group_IT_number 20
_symmetry_cell_setting 'orthorhombic'
loop_
_space_group_symop_operation_xyz
x,y,z
-x,-y,1/2+z
x,-y,-z
-x,y,1/2-z
1/2+x,1/2+y,z
1/2-x,1/2-y,1/2+z
1/2+x,1/2-y,-z
1/2-x,1/2+y,1/2-z
loop_
_atom_site_type_symbol
_atom_site_label
_atom_site_fract_x
_atom_site_fract_y
_atom_site_fract_z
Si Si1 0.313617 0.079284 0.225234
Si Si2 0.928376 0.000000 0.500000
Si Si3 0.423318 0.341260 0.997948
Si Si4 0.707533 0.538389 0.300177
Si Si5 0.660963 0.194700 0.648455
Si Si6 0.500000 0.611815 0.250000
Si Si7 0.135841 0.818429 0.165859
O O1 0.260830 0.031273 0.243818
O O2 0.332790 0.189087 0.355014
O O3 0.342876 0.945231 0.240088
O O4 0.319995 0.150780 0.040477
O O5 0.961145 0.021011 0.337901
O O6 0.895474 0.127069 0.514113
O O7 0.387564 0.267852 0.874419
O O8 0.473917 0.317545 0.910538
O O9 0.416803 0.500000 0.000000
O O10 0.402617 0.296616 0.182274
O O11 0.704599 0.500000 0.500000
O O12 0.693796 0.691765 0.276546
O O13 0.671837 0.436814 0.212402
#
# Coordination Sequence:
#
# PCOD9318112 Si02
#       7
#     8   4   8   8   8   4   8
#     4  10  23  36  57  87 119 166 211 243 297 361
#     4  12  22  36  64  92 126 150 204 262 312 372
#     4  11  18  39  62  86 119 150 196 248 322 363
#     4  12  20  37  57  83 123 167 210 251 287 349
#     4  10  20  38  59  80 119 166 198 254 304 362
#     4  12  22  36  64  98 114 148 198 264 316 374
#     4  11  22  41  60  90 127 163 203 254 304 359
#
# _framework density 21.132256999999999
#
# number of rings (size 3 to 8) (size 9 to 14) (size 15 to 20)
#    0.000    1.000    7.500    1.000    0.000    2.667 
#    3.000    0.000    0.000    9.000    0.000    0.000 
#    0.000    0.000    0.000    0.000    0.000    0.000 
#
# Total GULP energy -133878.275256 kJ/mol
# GULP energy per Si atom -5578.261469 kJ/mol
# Density = 2.108416 g / cm^3
# Si number density = 21.132257 Si / 1000 Ang^3
#
#
#
# Elastic Constant Matrix: (Units=GPa)
#
#
# Indices 1 2 3 4 5 6 
#
# 1 113.3068 31.4693 30.4854 0.0000 0.0000 0.0000
# 2 31.4693 118.9053 24.1837 0.0000 0.0000 0.0000
# 3 30.4854 24.1837 54.0922 0.0000 0.0000 0.0000
# 4 0.0000 0.0000 0.0000 14.6723 0.0000 0.0000
# 5 0.0000 0.0000 0.0000 0.0000 32.3132 0.0000
# 6 0.0000 0.0000 0.0000 0.0000 0.0000 -924.2553
#
#
#
# Elastic Compliance Matrix: (Units=1/GPa)
#
#
# Indices 1 2 3 4 5 6 
#
# 1 0.010732 -0.001771 -0.005256 0.000000 0.000000 0.000000
# 2 -0.001771 0.009544 -0.003269 0.000000 0.000000 0.000000
# 3 -0.005256 -0.003269 0.022911 0.000000 0.000000 0.000000
# 4 0.000000 0.000000 0.000000 0.068156 0.000000 0.000000
# 5 0.000000 0.000000 0.000000 0.000000 0.030947 0.000000
# 6 0.000000 0.000000 0.000000 0.000000 0.000000 -0.001082
#
#
# Mechanical properties :
#
#
# Convention : Reuss Voigt Hill
#
# Bulk Modulus (GPa) = 44.25993 50.95344 47.60668
# Shear Modulus (GPa) = 29.52810 -162.10957 -66.29074
#
# Velocity S-wave (km/s) = 3.74210 -8.76804 -5.60692
# Velocity P-wave (km/s) = 6.29768 8.85102 4.39771
#
# Compressibility (1/GPa) = 0.02259380
#
# Stress axis : x y z
#
# Youngs Moduli (GPa) = 93.18153 104.78231 43.64780
#
# Poissons Ratio (x) = 0.18559 0.22943
# Poissons Ratio (y) = 0.16504 0.14267
# Poissons Ratio (z) = 0.48979 0.34249
#
# Static dielectric constant tensor:
#      x y z
#    x 1.783160 0.000000 0.000000 
#    y 0.000000 1.734570 0.000000 
#    z 0.000000 0.000000 2.178860 
# 
# From -- ./inp_files/11050.got.cif
#   From: 2010.05.17/outbox.cif.g08.bks.cpg/sg20_6_cif.got.tgz:11050.got - 2010.06.03 22:52:26.
