data_PCOD9318841
_publ_section_title
;
Structure prediction by ZEFSAII (Michael W. Deem and Ramdas Pophale) SiO2 
 PCOD9318841
Probable space group: C 2 2 21
;
_chemical_formula_sum "Si O2"
_cell_formula_units_Z 64
_cell_length_a 23.317077
_cell_length_b 15.475371
_cell_length_c 7.979491
_cell_angle_alpha 90.000000
_cell_angle_beta 90.000000
_cell_angle_gamma 90.000000
_cell_volume 2879.322862
_symmetry_space_group_name_H-M "C 2 2 21"
_symmetry_group_IT_number 20
_symmetry_cell_setting 'orthorhombic'
loop_
_space_group_symop_operation_xyz
x,y,z
-x,-y,1/2+z
x,-y,-z
-x,y,1/2-z
1/2+x,1/2+y,z
1/2-x,1/2-y,1/2+z
1/2+x,1/2-y,-z
1/2-x,1/2+y,1/2-z
loop_
_atom_site_type_symbol
_atom_site_label
_atom_site_fract_x
_atom_site_fract_y
_atom_site_fract_z
Si Si1 0.636056 0.209504 0.755505
Si Si2 0.191181 0.525675 0.811836
Si Si3 0.221089 0.774343 0.007037
Si Si4 0.421894 0.258335 0.089137
Si Si5 0.179289 0.340087 0.710555
Si Si6 0.937521 0.929005 0.297799
Si Si7 0.311090 0.450119 0.332529
Si Si8 0.967330 0.791627 0.574377
O O1 0.657663 0.111055 0.753194
O O2 0.611531 0.247884 0.584981
O O3 0.584596 0.228474 0.884214
O O4 0.688022 0.263171 0.833045
O O5 0.177585 0.442456 0.699774
O O6 0.260285 0.538214 0.800085
O O7 0.174664 0.500000 0.000000
O O8 0.211195 0.689016 0.117633
O O9 0.192143 0.849336 0.117579
O O10 0.283716 0.801683 0.944487
O O11 0.384424 0.198986 0.210140
O O12 0.424878 0.354538 0.161215
O O13 0.487819 0.241547 0.044629
O O14 0.876738 0.978606 0.297116
O O15 0.946734 0.877297 0.473863
O O16 0.000000 0.968391 0.250000
O O17 0.293050 0.500000 0.500000
O O18 0.000000 0.812856 0.750000
#
# Coordination Sequence:
#
# PCOD9318841 Si02
#       8
#     8   8   8   8   8   8   8   8
#     4  11  22  40  66  97 129 174 223 263 339 397
#     4  12  27  42  62  94 141 169 214 288 334 397
#     4  12  23  39  67  90 127 173 223 261 331 407
#     4  10  21  36  69  95 129 169 226 273 320 398
#     4  12  23  40  63  97 126 175 214 273 330 395
#     4  10  21  42  67  97 133 174 226 278 328 396
#     4  12  24  44  64  95 134 172 215 276 338 391
#     4   9  19  39  68  99 128 170 226 279 316 392
#
# _framework density 22.227447000000002
#
# number of rings (size 3 to 8) (size 9 to 14) (size 15 to 20)
#    0.000    1.000    5.000    2.250    0.000    1.000 
#    0.000    1.250    8.250    0.000    0.000    0.000 
#    0.000    0.000    0.000    0.000    0.000    0.000 
#
# Total GULP energy -178723.145326 kJ/mol
# GULP energy per Si atom -5585.098291 kJ/mol
# Density = 2.217686 g / cm^3
# Si number density = 22.227447 Si / 1000 Ang^3
#
#
#
# Elastic Constant Matrix: (Units=GPa)
#
#
# Indices 1 2 3 4 5 6 
#
# 1 97.1594 0.2486 7.2058 0.0000 0.0000 0.0000
# 2 0.2486 31.2436 2.0345 0.0000 0.0000 0.0000
# 3 7.2058 2.0345 79.1452 0.0000 0.0000 0.0000
# 4 0.0000 0.0000 0.0000 10.0689 0.0000 0.0000
# 5 0.0000 0.0000 0.0000 0.0000 39.2048 0.0000
# 6 0.0000 0.0000 0.0000 0.0000 0.0000 21.1684
#
#
#
# Elastic Compliance Matrix: (Units=1/GPa)
#
#
# Indices 1 2 3 4 5 6 
#
# 1 0.010362 -0.000021 -0.000943 0.000000 0.000000 0.000000
# 2 -0.000021 0.032060 -0.000822 0.000000 0.000000 0.000000
# 3 -0.000943 -0.000822 0.012742 0.000000 0.000000 0.000000
# 4 0.000000 0.000000 0.000000 0.099316 0.000000 0.000000
# 5 0.000000 0.000000 0.000000 0.000000 0.025507 0.000000
# 6 0.000000 0.000000 0.000000 0.000000 0.000000 0.047240
#
#
# Mechanical properties :
#
#
# Convention : Reuss Voigt Hill
#
# Bulk Modulus (GPa) = 19.38276 25.16955 22.27615
# Shear Modulus (GPa) = 20.16148 27.29238 23.72693
#
# Velocity S-wave (km/s) = 3.01500 3.50790 3.27075
# Velocity P-wave (km/s) = 4.56721 5.26833 4.93025
#
# Compressibility (1/GPa) = 0.05159225
#
# Stress axis : x y z
#
# Youngs Moduli (GPa) = 96.50317 31.19129 78.48069
#
# Poissons Ratio (x) = 0.00066 0.07400
# Poissons Ratio (y) = 0.00203 0.06453
# Poissons Ratio (z) = 0.09099 0.02565
#
# Static dielectric constant tensor:
#      x y z
#    x 1.870680 0.000000 0.000000 
#    y 0.000000 1.844090 0.000000 
#    z 0.000000 0.000000 1.930340 
# 
# From -- ./inp_files/10811.got.cif
#   From: 2010.05.17/outbox.cif.g08.bks.cpg/sg20_6_cif.got.tgz:10811.got - 2010.06.03 22:52:26.
