data_PCOD9318891
_publ_section_title
;
Structure prediction by ZEFSAII (Michael W. Deem and Ramdas Pophale) SiO2 
 PCOD9318891
Probable space group: C 2 2 21
;
_chemical_formula_sum "Si O2"
_cell_formula_units_Z 56
_cell_length_a 11.829852
_cell_length_b 20.056862
_cell_length_c 12.443351
_cell_angle_alpha 90.000000
_cell_angle_beta 90.000000
_cell_angle_gamma 90.000000
_cell_volume 2952.430271
_symmetry_space_group_name_H-M "C 2 2 21"
_symmetry_group_IT_number 20
_symmetry_cell_setting 'orthorhombic'
loop_
_space_group_symop_operation_xyz
x,y,z
-x,-y,1/2+z
x,-y,-z
-x,y,1/2-z
1/2+x,1/2+y,z
1/2-x,1/2-y,1/2+z
1/2+x,1/2-y,-z
1/2-x,1/2+y,1/2-z
loop_
_atom_site_type_symbol
_atom_site_label
_atom_site_fract_x
_atom_site_fract_y
_atom_site_fract_z
Si Si1 0.989972 0.627296 0.617872
Si Si2 0.760111 0.815219 0.088119
Si Si3 0.202488 0.039200 0.161014
Si Si4 0.420946 0.271425 0.904340
Si Si5 0.400713 0.000000 0.000000
Si Si6 0.496452 0.500000 0.500000
Si Si7 0.385130 0.428877 0.184489
Si Si8 0.155822 0.810791 0.828927
O O1 0.862711 0.649433 0.584530
O O2 0.000000 0.620889 0.750000
O O3 0.063437 0.691813 0.580438
O O4 0.028826 0.560237 0.555737
O O5 0.824072 0.858747 0.176789
O O6 0.745650 0.738650 0.120903
O O7 0.834698 0.809445 0.981269
O O8 0.197544 0.115562 0.194528
O O9 0.188501 0.985817 0.256605
O O10 0.314428 0.026234 0.091832
O O11 0.090245 0.030625 0.086776
O O12 0.544769 0.306187 0.904947
O O13 0.379390 0.278752 0.783109
O O14 0.577474 0.548738 0.565879
O O15 0.500000 0.422362 0.250000
#
# Coordination Sequence:
#
# PCOD9318891 Si02
#       8
#     8   8   8   8   4   4   8   8
#     4  11  22  46  65  92 127 175 211 261 328 386
#     4  11  22  40  64  93 121 167 210 257 315 377
#     4  10  21  37  62  91 123 168 207 258 317 373
#     4  10  21  39  68  87 121 165 215 260 317 379
#     4  11  24  41  66  88 130 171 214 251 314 402
#     4   9  20  35  58  92 124 157 208 259 316 374
#     4  10  22  37  60  93 130 158 201 264 317 371
#     4  10  21  39  62  91 122 163 209 260 309 380
#
# _framework density 18.967424000000001
#
# number of rings (size 3 to 8) (size 9 to 14) (size 15 to 20)
#    0.000    1.714    2.857    2.571    8.000    0.571 
#   10.286    0.000    0.000    0.000    0.000    0.000 
#    0.000    0.000    0.000    0.000    0.000    0.000 
#
# Total GULP energy -156079.799375 kJ/mol
# GULP energy per Si atom -5574.278549 kJ/mol
# Density = 1.892425 g / cm^3
# Si number density = 18.967424 Si / 1000 Ang^3
#
#
#
# Elastic Constant Matrix: (Units=GPa)
#
#
# Indices 1 2 3 4 5 6 
#
# 1 69.7373 54.6313 38.2661 0.0000 0.0000 0.0000
# 2 54.6313 78.5423 39.3996 0.0000 0.0000 0.0000
# 3 38.2661 39.3996 70.2880 0.0000 0.0000 0.0000
# 4 0.0000 0.0000 0.0000 31.6948 0.0000 0.0000
# 5 0.0000 0.0000 0.0000 0.0000 14.9469 0.0000
# 6 0.0000 0.0000 0.0000 0.0000 0.0000 0.7227
#
#
#
# Elastic Compliance Matrix: (Units=1/GPa)
#
#
# Indices 1 2 3 4 5 6 
#
# 1 0.034010 -0.019989 -0.007311 0.000000 0.000000 0.000000
# 2 -0.019989 0.029461 -0.005632 0.000000 0.000000 0.000000
# 3 -0.007311 -0.005632 0.021364 0.000000 0.000000 0.000000
# 4 0.000000 0.000000 0.000000 0.031551 0.000000 0.000000
# 5 0.000000 0.000000 0.000000 0.000000 0.066904 0.000000
# 6 0.000000 0.000000 0.000000 0.000000 0.000000 1.383635
#
#
# Mechanical properties :
#
#
# Convention : Reuss Voigt Hill
#
# Bulk Modulus (GPa) = 52.70983 53.68461 53.19722
# Shear Modulus (GPa) = 3.05043 15.22425 9.13734
#
# Velocity S-wave (km/s) = 1.26954 2.83619 2.19724
# Velocity P-wave (km/s) = 5.47713 6.25222 5.87747
#
# Compressibility (1/GPa) = 0.01897179
#
# Stress axis : x y z
#
# Youngs Moduli (GPa) = 29.40294 33.94367 46.80690
#
# Poissons Ratio (x) = 0.67849 0.34221
# Poissons Ratio (y) = 0.58773 0.26360
# Poissons Ratio (z) = 0.21497 0.19116
#
# Static dielectric constant tensor:
#      x y z
#    x 1.681010 0.000000 0.000000 
#    y 0.000000 1.679740 0.000000 
#    z 0.000000 0.000000 1.689200 
# 
# From -- ./inp_files/14344.got.cif
#   From: 2010.05.17/outbox.cif.g08.bks.cpg/sg20_8_cif.got.tgz:14344.got - 2010.06.03 22:52:26.
