data_PCOD9318536
_publ_section_title
;
Structure prediction by ZEFSAII (Michael W. Deem and Ramdas Pophale) SiO2 
 PCOD9318536
Probable space group: C 2 2 21
;
_chemical_formula_sum "Si O2"
_cell_formula_units_Z 52
_cell_length_a 9.089647
_cell_length_b 17.827448
_cell_length_c 16.231835
_cell_angle_alpha 90.000000
_cell_angle_beta 90.000000
_cell_angle_gamma 90.000000
_cell_volume 2630.291099
_symmetry_space_group_name_H-M "C 2 2 21"
_symmetry_group_IT_number 20
_symmetry_cell_setting 'orthorhombic'
loop_
_space_group_symop_operation_xyz
x,y,z
-x,-y,1/2+z
x,-y,-z
-x,y,1/2-z
1/2+x,1/2+y,z
1/2-x,1/2-y,1/2+z
1/2+x,1/2-y,-z
1/2-x,1/2+y,1/2-z
loop_
_atom_site_type_symbol
_atom_site_label
_atom_site_fract_x
_atom_site_fract_y
_atom_site_fract_z
Si Si1 0.019496 0.728119 0.651728
Si Si2 0.570119 0.624037 0.444619
Si Si3 0.836117 0.000000 0.500000
Si Si4 0.286431 0.655539 0.888307
Si Si5 0.000000 0.492649 0.250000
Si Si6 0.668454 0.987835 0.907503
Si Si7 0.765285 0.595804 0.852898
Si Si8 0.000000 0.854985 0.250000
O O1 0.035089 0.812466 0.620911
O O2 0.159966 0.676142 0.628707
O O3 0.000000 0.725063 0.750000
O O4 0.872193 0.694108 0.611028
O O5 0.440504 0.564495 0.461120
O O6 0.616430 0.664513 0.529991
O O7 0.709960 0.575700 0.417106
O O8 0.742244 0.957595 0.431341
O O9 0.249922 0.566314 0.885106
O O10 0.379325 0.683278 0.809173
O O11 0.938494 0.532366 0.331935
O O12 0.870859 0.440886 0.214677
O O13 0.603574 0.000000 0.000000
O O14 0.602496 0.601120 0.814731
#
# Coordination Sequence:
#
# PCOD9318536 Si02
#       8
#     8   8   4   8   4   8   8   4
#     4  12  25  46  68 102 139 182 226 293 355 410
#     4  11  25  43  69 101 143 174 230 289 352 404
#     4  12  26  42  66 106 136 178 238 280 342 426
#     4  11  21  42  72  96 134 182 230 276 349 414
#     4  12  22  40  71  99 132 184 230 282 350 406
#     4  10  20  41  66  96 135 179 224 284 339 414
#     4  12  24  41  70 102 133 182 235 284 340 428
#     4  12  18  38  73  95 132 184 232 266 338 434
#
# _framework density 19.769676
#
# number of rings (size 3 to 8) (size 9 to 14) (size 15 to 20)
#    0.000    0.615    9.231    0.000    3.231    1.231 
#    1.385    0.769   10.154    0.000    0.000    0.000 
#    0.000    0.000    0.000    0.000    0.000    0.000 
#
# Total GULP energy -145122.789394 kJ/mol
# GULP energy per Si atom -5581.645746 kJ/mol
# Density = 1.972468 g / cm^3
# Si number density = 19.769676 Si / 1000 Ang^3
#
#
#
# Elastic Constant Matrix: (Units=GPa)
#
#
# Indices 1 2 3 4 5 6 
#
# 1 85.3384 32.0892 36.6386 0.0000 0.0000 0.0000
# 2 32.0892 92.4375 46.8911 0.0000 0.0000 0.0000
# 3 36.6386 46.8911 111.4085 0.0000 0.0000 0.0000
# 4 0.0000 0.0000 0.0000 31.4796 0.0000 0.0000
# 5 0.0000 0.0000 0.0000 0.0000 46.5456 0.0000
# 6 0.0000 0.0000 0.0000 0.0000 0.0000 22.5560
#
#
#
# Elastic Compliance Matrix: (Units=1/GPa)
#
#
# Indices 1 2 3 4 5 6 
#
# 1 0.014395 -0.003300 -0.003345 0.000000 0.000000 0.000000
# 2 -0.003300 0.014512 -0.005022 0.000000 0.000000 0.000000
# 3 -0.003345 -0.005022 0.012190 0.000000 0.000000 0.000000
# 4 0.000000 0.000000 0.000000 0.031767 0.000000 0.000000
# 5 0.000000 0.000000 0.000000 0.000000 0.021484 0.000000
# 6 0.000000 0.000000 0.000000 0.000000 0.000000 0.044334
#
#
# Mechanical properties :
#
#
# Convention : Reuss Voigt Hill
#
# Bulk Modulus (GPa) = 56.30290 57.82469 57.06379
# Shear Modulus (GPa) = 29.77296 31.68728 30.73012
#
# Velocity S-wave (km/s) = 3.88492 4.00787 3.94687
# Velocity P-wave (km/s) = 6.97601 7.12250 7.04964
#
# Compressibility (1/GPa) = 0.01776108
#
# Stress axis : x y z
#
# Youngs Moduli (GPa) = 69.46761 68.91051 82.03486
#
# Poissons Ratio (x) = 0.22743 0.27441
# Poissons Ratio (y) = 0.22927 0.41201
# Poissons Ratio (z) = 0.23237 0.34610
#
# Static dielectric constant tensor:
#      x y z
#    x 1.712900 0.000000 0.000000 
#    y 0.000000 1.664840 0.000000 
#    z 0.000000 0.000000 1.731080 
# 
# From -- ./inp_files/23736.got.cif
#   From: 2010.05.17/outbox.cif.g08.bks.cpg/sg20_12_cif.got.tgz:23736.got - 2010.06.03 22:52:26.
