data_PCOD9318959
_publ_section_title
;
Structure prediction by ZEFSAII (Michael W. Deem and Ramdas Pophale) SiO2 
 PCOD9318959
Probable space group: C 2 2 21
;
_chemical_formula_sum "Si O2"
_cell_formula_units_Z 52
_cell_length_a 12.261402
_cell_length_b 14.040485
_cell_length_c 16.940121
_cell_angle_alpha 90.000000
_cell_angle_beta 90.000000
_cell_angle_gamma 90.000000
_cell_volume 2916.343994
_symmetry_space_group_name_H-M "C 2 2 21"
_symmetry_group_IT_number 20
_symmetry_cell_setting 'orthorhombic'
loop_
_space_group_symop_operation_xyz
x,y,z
-x,-y,1/2+z
x,-y,-z
-x,y,1/2-z
1/2+x,1/2+y,z
1/2-x,1/2-y,1/2+z
1/2+x,1/2-y,-z
1/2-x,1/2+y,1/2-z
loop_
_atom_site_type_symbol
_atom_site_label
_atom_site_fract_x
_atom_site_fract_y
_atom_site_fract_z
Si Si1 0.469598 0.000000 0.000000
Si Si2 0.366202 0.064108 0.635736
Si Si3 0.630165 0.710652 0.121966
Si Si4 0.880247 0.664012 0.103128
Si Si5 0.036566 0.151580 0.509539
Si Si6 0.000000 0.090131 0.250000
Si Si7 0.623553 0.489472 0.610626
Si Si8 0.000000 0.567068 0.250000
O O1 0.548526 0.958732 0.066720
O O2 0.397908 0.080826 0.039840
O O3 0.369783 0.177767 0.643502
O O4 0.244761 0.031692 0.611074
O O5 0.409329 0.002296 0.710112
O O6 0.753989 0.676527 0.121654
O O7 0.564076 0.654430 0.188085
O O8 0.570326 0.685288 0.038688
O O9 0.921375 0.760038 0.060618
O O10 0.947439 0.632197 0.181087
O O11 0.116232 0.107678 0.441236
O O12 0.037654 0.062731 0.570334
O O13 0.084448 0.029362 0.301149
#
# Coordination Sequence:
#
# PCOD9318959 Si02
#       8
#     4   8   8   8   8   4   8   4
#     4  10  22  36  62  86 120 144 198 248 298 338
#     4  11  20  39  61  85 116 160 198 242 296 352
#     4  11  22  39  65  88 119 155 200 245 293 347
#     4  11  22  40  60  90 120 155 194 249 296 346
#     4  10  21  38  61  91 113 151 204 242 289 353
#     4  10  23  39  58  88 126 154 200 242 292 354
#     4  10  21  38  64  84 121 160 200 240 300 356
#     4  10  25  37  58  86 126 152 202 240 296 354
#
# _framework density 17.830545000000001
#
# number of rings (size 3 to 8) (size 9 to 14) (size 15 to 20)
#    0.000    1.538    3.077    2.308    0.000    3.077 
#    0.000    0.000    0.000    0.000    0.000    0.000 
#    0.000    0.000    0.000    0.000    0.000    0.000 
#
# Total GULP energy -144978.141665 kJ/mol
# GULP energy per Si atom -5576.082372 kJ/mol
# Density = 1.778996 g / cm^3
# Si number density = 17.830545 Si / 1000 Ang^3
#
#
#
# Elastic Constant Matrix: (Units=GPa)
#
#
# Indices 1 2 3 4 5 6 
#
# 1 93.1104 50.3763 35.2780 0.0000 0.0000 0.0000
# 2 50.3763 112.9540 50.4428 0.0000 0.0000 0.0000
# 3 35.2780 50.4428 95.3862 0.0000 0.0000 0.0000
# 4 0.0000 0.0000 0.0000 32.3725 0.0000 0.0000
# 5 0.0000 0.0000 0.0000 0.0000 8.8015 0.0000
# 6 0.0000 0.0000 0.0000 0.0000 0.0000 31.7785
#
#
#
# Elastic Compliance Matrix: (Units=1/GPa)
#
#
# Indices 1 2 3 4 5 6 
#
# 1 0.014620 -0.005375 -0.002565 0.000000 0.000000 0.000000
# 2 -0.005375 0.013566 -0.005186 0.000000 0.000000 0.000000
# 3 -0.002565 -0.005186 0.014175 0.000000 0.000000 0.000000
# 4 0.000000 0.000000 0.000000 0.030890 0.000000 0.000000
# 5 0.000000 0.000000 0.000000 0.000000 0.113618 0.000000
# 6 0.000000 0.000000 0.000000 0.000000 0.000000 0.031468
#
#
# Mechanical properties :
#
#
# Convention : Reuss Voigt Hill
#
# Bulk Modulus (GPa) = 62.07651 63.73834 62.90742
# Shear Modulus (GPa) = 20.00332 25.61406 22.80869
#
# Velocity S-wave (km/s) = 3.35305 3.79427 3.58046
# Velocity P-wave (km/s) = 7.06264 7.41752 7.24225
#
# Compressibility (1/GPa) = 0.01610915
#
# Stress axis : x y z
#
# Youngs Moduli (GPa) = 68.40096 73.71108 70.54712
#
# Poissons Ratio (x) = 0.39619 0.18092
# Poissons Ratio (y) = 0.36765 0.36589
# Poissons Ratio (z) = 0.17542 0.38230
#
# Static dielectric constant tensor:
#      x y z
#    x 1.577130 0.000000 0.000000 
#    y 0.000000 1.627550 0.000000 
#    z 0.000000 0.000000 1.618540 
# 
# From -- ./inp_files/24390.got.cif
#   From: 2010.05.17/outbox.cif.g08.bks.cpg/sg20_13_cif.got.tgz:24390.got - 2010.06.03 22:52:26.
