data_PCOD9318623
_publ_section_title
;
Structure prediction by ZEFSAII (Michael W. Deem and Ramdas Pophale) SiO2 
 PCOD9318623
Probable space group: C 2 2 21
;
_chemical_formula_sum "Si O2"
_cell_formula_units_Z 36
_cell_length_a 21.266542
_cell_length_b 10.783541
_cell_length_c 6.525763
_cell_angle_alpha 90.000000
_cell_angle_beta 90.000000
_cell_angle_gamma 90.000000
_cell_volume 1496.544273
_symmetry_space_group_name_H-M "C 2 2 21"
_symmetry_group_IT_number 20
_symmetry_cell_setting 'orthorhombic'
loop_
_space_group_symop_operation_xyz
x,y,z
-x,-y,1/2+z
x,-y,-z
-x,y,1/2-z
1/2+x,1/2+y,z
1/2-x,1/2-y,1/2+z
1/2+x,1/2-y,-z
1/2-x,1/2+y,1/2-z
loop_
_atom_site_type_symbol
_atom_site_label
_atom_site_fract_x
_atom_site_fract_y
_atom_site_fract_z
Si Si1 0.085391 0.376551 0.114995
Si Si2 0.321896 0.363563 0.973462
Si Si3 0.306832 0.188717 0.314304
Si Si4 0.564842 0.604447 0.158340
Si Si5 0.638550 0.000000 0.500000
O O1 0.051055 0.245321 0.080309
O O2 0.096260 0.413740 0.351484
O O3 0.060009 0.500000 0.000000
O O4 0.152965 0.347936 0.011369
O O5 0.265298 0.288423 0.868568
O O6 0.382448 0.375340 0.831602
O O7 0.294416 0.500000 0.000000
O O8 0.335174 0.306022 0.194643
O O9 0.318585 0.079398 0.151867
O O10 0.500000 0.554747 0.250000
O O11 0.587242 0.500000 0.000000
#
# Coordination Sequence:
#
# PCOD9318623 Si02
#       5
#     8   8   8   8   4
#     4  10  22  46  73 107 142 184 238 313 378 451
#     4  12  25  41  70 103 143 195 241 296 375 449
#     4  11  24  40  69 107 146 178 232 309 380 451
#     4  12  27  50  70 101 148 201 256 308 361 443
#     4  10  20  42  70 104 142 176 226 306 380 442
#
# _framework density 24.055420000000002
#
# number of rings (size 3 to 8) (size 9 to 14) (size 15 to 20)
#    0.000    0.889    2.222    5.333    4.667    0.000 
#    2.000    0.000    0.000    0.000    0.000    0.000 
#    0.000    0.000    0.000    0.000    0.000    0.000 
#
# Total GULP energy -100704.360439 kJ/mol
# GULP energy per Si atom -5594.686691 kJ/mol
# Density = 2.400067 g / cm^3
# Si number density = 24.055420 Si / 1000 Ang^3
#
#
#
# Elastic Constant Matrix: (Units=GPa)
#
#
# Indices 1 2 3 4 5 6 
#
# 1 75.7438 -1.0126 29.0931 0.0000 0.0000 0.0000
# 2 -1.0126 130.6271 53.7424 0.0000 0.0000 0.0000
# 3 29.0931 53.7424 114.2143 0.0000 0.0000 0.0000
# 4 0.0000 0.0000 0.0000 62.0644 0.0000 0.0000
# 5 0.0000 0.0000 0.0000 0.0000 26.2144 0.0000
# 6 0.0000 0.0000 0.0000 0.0000 0.0000 21.4017
#
#
#
# Elastic Compliance Matrix: (Units=1/GPa)
#
#
# Indices 1 2 3 4 5 6 
#
# 1 0.015087 0.002106 -0.004834 0.000000 0.000000 0.000000
# 2 0.002106 0.009787 -0.005142 0.000000 0.000000 0.000000
# 3 -0.004834 -0.005142 0.012406 0.000000 0.000000 0.000000
# 4 0.000000 0.000000 0.000000 0.016112 0.000000 0.000000
# 5 0.000000 0.000000 0.000000 0.000000 0.038147 0.000000
# 6 0.000000 0.000000 0.000000 0.000000 0.000000 0.046725
#
#
# Mechanical properties :
#
#
# Convention : Reuss Voigt Hill
#
# Bulk Modulus (GPa) = 46.42338 53.80344 50.11341
# Shear Modulus (GPa) = 31.02028 37.85357 34.43693
#
# Velocity S-wave (km/s) = 3.59490 3.97116 3.78771
# Velocity P-wave (km/s) = 6.04744 6.59104 6.32508
#
# Compressibility (1/GPa) = 0.02154087
#
# Stress axis : x y z
#
# Youngs Moduli (GPa) = 66.28107 102.17591 80.60548
#
# Poissons Ratio (x) = -0.21515 0.38964
# Poissons Ratio (y) = -0.13957 0.41444
# Poissons Ratio (z) = 0.32040 0.52535
#
# Static dielectric constant tensor:
#      x y z
#    x 1.888380 0.000000 0.000000 
#    y 0.000000 2.016860 0.000000 
#    z 0.000000 0.000000 1.947200 
# 
# From -- ./inp_files/3559.got.cif
#   From: 2010.05.17/outbox.cif.g08.bks.cpg/sg20_2_cif.got.tgz:3559.got - 2010.06.03 22:52:26.
