data_PCOD9318600
_publ_section_title
;
Structure prediction by ZEFSAII (Michael W. Deem and Ramdas Pophale) SiO2 
 PCOD9318600
Probable space group: C 2 2 21
;
_chemical_formula_sum "Si O2"
_cell_formula_units_Z 40
_cell_length_a 11.581276
_cell_length_b 9.201154
_cell_length_c 14.335744
_cell_angle_alpha 90.000000
_cell_angle_beta 90.000000
_cell_angle_gamma 90.000000
_cell_volume 1527.632707
_symmetry_space_group_name_H-M "C 2 2 21"
_symmetry_group_IT_number 20
_symmetry_cell_setting 'orthorhombic'
loop_
_space_group_symop_operation_xyz
x,y,z
-x,-y,1/2+z
x,-y,-z
-x,y,1/2-z
1/2+x,1/2+y,z
1/2-x,1/2-y,1/2+z
1/2+x,1/2-y,-z
1/2-x,1/2+y,1/2-z
loop_
_atom_site_type_symbol
_atom_site_label
_atom_site_fract_x
_atom_site_fract_y
_atom_site_fract_z
Si Si1 0.000000 0.288080 0.750000
Si Si2 0.357108 0.768880 0.446945
Si Si3 0.656520 0.606143 0.659700
Si Si4 0.456123 0.040539 0.877573
Si Si5 0.749792 0.500000 0.000000
Si Si6 0.669917 0.710628 0.260050
O O1 0.970086 0.168355 0.832840
O O2 0.032943 0.421147 0.825388
O O3 0.240175 0.860969 0.426875
O O4 0.467747 0.870374 0.452563
O O5 0.325409 0.642084 0.516910
O O6 0.375678 0.690670 0.345545
O O7 0.668919 0.440512 0.687733
O O8 0.704117 0.719372 0.740595
O O9 0.401507 0.164748 0.811274
O O10 0.340041 0.966953 0.917263
#
# Coordination Sequence:
#
# PCOD9318600 Si02
#       6
#     4   8   8   8   4   8
#     4  12  20  40  72 100 134 190 242 288 348 432
#     4  10  23  44  67  96 138 182 229 290 359 416
#     4  10  21  35  68 104 131 173 240 292 342 416
#     4  12  23  47  72  95 145 189 238 296 363 426
#     4  12  26  50  62 108 150 186 226 316 368 418
#     4  10  20  42  68 102 129 179 239 295 334 432
#
# _framework density 26.184304000000001
#
# number of rings (size 3 to 8) (size 9 to 14) (size 15 to 20)
#    1.200    0.000    4.000    3.600    2.800    0.000 
#   14.400    0.000    0.000    0.000    0.000    0.000 
#    0.000    0.000    0.000    0.000    0.000    0.000 
#
# Total GULP energy -111343.556059 kJ/mol
# GULP energy per Si atom -5567.177803 kJ/mol
# Density = 2.612471 g / cm^3
# Si number density = 26.184304 Si / 1000 Ang^3
#
#
#
# Elastic Constant Matrix: (Units=GPa)
#
#
# Indices 1 2 3 4 5 6 
#
# 1 -114.7241 -35.8630 93.9384 0.0000 0.0000 0.0000
# 2 -35.8630 149.4048 44.0281 0.0000 0.0000 0.0000
# 3 93.9384 44.0281 5.3056 0.0000 0.0000 0.0000
# 4 0.0000 0.0000 0.0000 46.9536 0.0000 0.0000
# 5 0.0000 0.0000 0.0000 0.0000 9.5201 0.0000
# 6 0.0000 0.0000 0.0000 0.0000 0.0000 35.2201
#
#
#
# Elastic Compliance Matrix: (Units=1/GPa)
#
#
# Indices 1 2 3 4 5 6 
#
# 1 0.000769 -0.002903 0.010476 0.000000 0.000000 0.000000
# 2 -0.002903 0.006329 -0.001129 0.000000 0.000000 0.000000
# 3 0.010476 -0.001129 0.012363 0.000000 0.000000 0.000000
# 4 0.000000 0.000000 0.000000 0.021298 0.000000 0.000000
# 5 0.000000 0.000000 0.000000 0.000000 0.105041 0.000000
# 6 0.000000 0.000000 0.000000 0.000000 0.000000 0.028393
#
#
# Mechanical properties :
#
#
# Convention : Reuss Voigt Hill
#
# Bulk Modulus (GPa) = 30.91154 27.13261 29.02207
# Shear Modulus (GPa) = 29.05518 14.19762 21.62640
#
# Velocity S-wave (km/s) = 3.33474 2.33108 2.87702
# Velocity P-wave (km/s) = 5.16317 4.19880 4.70576
#
# Compressibility (1/GPa) = 0.03235038
#
# Stress axis : x y z
#
# Youngs Moduli (GPa) = 1300.79829 158.00086 80.88564
#
# Poissons Ratio (x) = 0.45862 -0.84736
# Poissons Ratio (y) = 3.77575 0.09129
# Poissons Ratio (z) = -13.62716 0.17833
#
# Static dielectric constant tensor:
#      x y z
#    x 0.932510 0.000000 0.000000 
#    y 0.000000 1.961030 0.000000 
#    z 0.000000 0.000000 2.169630 
# 
# From -- ./inp_files/24706.got.cif
#   From: 2010.05.17/outbox.cif.g08.bks.cpg/sg20_13_cif.got.tgz:24706.got - 2010.06.03 22:52:26.
