data_PCOD9318836
_publ_section_title
;
Structure prediction by ZEFSAII (Michael W. Deem and Ramdas Pophale) SiO2 
 PCOD9318836
Probable space group: C 2 2 21
;
_chemical_formula_sum "Si O2"
_cell_formula_units_Z 48
_cell_length_a 15.691100
_cell_length_b 28.172987
_cell_length_c 5.304829
_cell_angle_alpha 90.000000
_cell_angle_beta 90.000000
_cell_angle_gamma 90.000000
_cell_volume 2345.080061
_symmetry_space_group_name_H-M "C 2 2 21"
_symmetry_group_IT_number 20
_symmetry_cell_setting 'orthorhombic'
loop_
_space_group_symop_operation_xyz
x,y,z
-x,-y,1/2+z
x,-y,-z
-x,y,1/2-z
1/2+x,1/2+y,z
1/2-x,1/2-y,1/2+z
1/2+x,1/2-y,-z
1/2-x,1/2+y,1/2-z
loop_
_atom_site_type_symbol
_atom_site_label
_atom_site_fract_x
_atom_site_fract_y
_atom_site_fract_z
Si Si1 0.163206 0.415605 0.977922
Si Si2 0.209440 0.687295 0.160344
Si Si3 0.241214 0.054129 0.973763
Si Si4 0.152453 0.855007 0.007897
Si Si5 0.000000 0.188840 0.250000
Si Si6 0.873672 0.772497 0.112770
Si Si7 0.500000 0.031477 0.250000
O O1 0.174778 0.358317 0.992498
O O2 0.225579 0.431901 0.752000
O O3 0.073623 0.435541 0.872899
O O4 0.190317 0.438152 0.246697
O O5 0.257904 0.664702 0.401058
O O6 0.136869 0.723945 0.237167
O O7 0.284143 0.719113 0.034798
O O8 0.166882 0.091448 0.911635
O O9 0.215380 0.000000 0.000000
O O10 0.123492 0.819570 0.221726
O O11 0.078949 0.845868 0.806536
O O12 0.041799 0.224451 0.449981
O O13 0.527326 0.000000 0.500000
#
# Coordination Sequence:
#
# PCOD9318836 Si02
#       7
#     8   8   8   8   4   8   4
#     4  11  23  41  62  97 130 169 218 273 328 396
#     4  10  21  36  64  90 123 167 219 272 320 389
#     4  11  22  40  69  96 123 165 225 274 323 394
#     4  10  21  39  62  88 124 165 213 269 332 395
#     4  10  24  38  61  90 128 173 214 272 342 402
#     4  11  19  40  61  92 124 173 219 268 337 398
#     4  12  24  42  63  90 134 179 212 270 350 398
#
# _framework density 20.468385999999999
#
# number of rings (size 3 to 8) (size 9 to 14) (size 15 to 20)
#    0.000    1.333    3.333    3.500    0.000    0.000 
#    3.000    0.833    3.667    0.000    0.000    0.000 
#    0.000    0.000    0.000    0.000    0.000    0.000 
#
# Total GULP energy -133786.136190 kJ/mol
# GULP energy per Si atom -5574.422341 kJ/mol
# Density = 2.042180 g / cm^3
# Si number density = 20.468386 Si / 1000 Ang^3
#
#
#
# Elastic Constant Matrix: (Units=GPa)
#
#
# Indices 1 2 3 4 5 6 
#
# 1 61.3231 37.3217 4.6066 0.0000 0.0000 0.0000
# 2 37.3217 156.1906 31.8675 0.0000 0.0000 0.0000
# 3 4.6066 31.8675 69.9747 0.0000 0.0000 0.0000
# 4 0.0000 0.0000 0.0000 17.8953 0.0000 0.0000
# 5 0.0000 0.0000 0.0000 0.0000 36.9244 0.0000
# 6 0.0000 0.0000 0.0000 0.0000 0.0000 20.1728
#
#
#
# Elastic Compliance Matrix: (Units=1/GPa)
#
#
# Indices 1 2 3 4 5 6 
#
# 1 0.019134 -0.004757 0.000907 0.000000 0.000000 0.000000
# 2 -0.004757 0.008241 -0.003440 0.000000 0.000000 0.000000
# 3 0.000907 -0.003440 0.015798 0.000000 0.000000 0.000000
# 4 0.000000 0.000000 0.000000 0.055880 0.000000 0.000000
# 5 0.000000 0.000000 0.000000 0.000000 0.027082 0.000000
# 6 0.000000 0.000000 0.000000 0.000000 0.000000 0.049572
#
#
# Mechanical properties :
#
#
# Convention : Reuss Voigt Hill
#
# Bulk Modulus (GPa) = 34.97417 48.34222 41.65820
# Shear Modulus (GPa) = 25.02266 29.24466 27.13366
#
# Velocity S-wave (km/s) = 3.50022 3.78401 3.64488
# Velocity P-wave (km/s) = 5.78441 6.53918 6.17334
#
# Compressibility (1/GPa) = 0.02859253
#
# Stress axis : x y z
#
# Youngs Moduli (GPa) = 52.26247 121.34469 63.30016
#
# Poissons Ratio (x) = 0.57725 -0.05740
# Poissons Ratio (y) = 0.24862 0.21775
# Poissons Ratio (z) = -0.04739 0.41741
#
# Static dielectric constant tensor:
#      x y z
#    x 1.777200 0.000000 0.000000 
#    y 0.000000 1.742800 0.000000 
#    z 0.000000 0.000000 1.894160 
# 
# From -- ./inp_files/2061.got.cif
#   From: 2010.05.17/outbox.cif.g08.bks.cpg/sg20_2_cif.got.tgz:2061.got - 2010.06.03 22:52:26.
