data_PCOD9318810
_publ_section_title
;
Structure prediction by ZEFSAII (Michael W. Deem and Ramdas Pophale) SiO2 
 PCOD9318810
Probable space group: C 2 2 21
;
_chemical_formula_sum "Si O2"
_cell_formula_units_Z 44
_cell_length_a 33.710488
_cell_length_b 7.565309
_cell_length_c 7.713895
_cell_angle_alpha 90.000000
_cell_angle_beta 90.000000
_cell_angle_gamma 90.000000
_cell_volume 1967.276634
_symmetry_space_group_name_H-M "C 2 2 21"
_symmetry_group_IT_number 20
_symmetry_cell_setting 'orthorhombic'
loop_
_space_group_symop_operation_xyz
x,y,z
-x,-y,1/2+z
x,-y,-z
-x,y,1/2-z
1/2+x,1/2+y,z
1/2-x,1/2-y,1/2+z
1/2+x,1/2-y,-z
1/2-x,1/2+y,1/2-z
loop_
_atom_site_type_symbol
_atom_site_label
_atom_site_fract_x
_atom_site_fract_y
_atom_site_fract_z
Si Si1 0.544446 0.162618 0.238409
Si Si2 0.789075 0.129950 0.163483
Si Si3 0.397919 0.000000 0.000000
Si Si4 0.042353 0.052814 0.202480
Si Si5 0.239395 0.500000 0.500000
Si Si6 0.601198 0.000000 0.000000
Si Si7 0.373167 0.269317 0.772875
O O1 0.500000 0.095610 0.250000
O O2 0.542813 0.363360 0.301580
O O3 0.572293 0.037200 0.346748
O O4 0.569108 0.147872 0.061693
O O5 0.782398 0.330603 0.090747
O O6 0.834754 0.110488 0.227912
O O7 0.763391 0.083261 0.334967
O O8 0.781307 0.000000 0.000000
O O9 0.373415 0.172297 0.958715
O O10 0.084101 0.140163 0.249631
O O11 0.000000 0.142567 0.250000
O O12 0.040258 0.000000 0.000000
O O13 0.628715 0.890301 0.132074
#
# Coordination Sequence:
#
# PCOD9318810 Si02
#       7
#     8   8   4   8   4   4   8
#     4  10  21  36  59  85 125 179 240 299 359 411
#     4  12  28  51  85 119 163 201 254 317 396 483
#     4  10  24  40  60  92 130 176 232 298 348 438
#     4  11  25  41  63  93 137 190 245 302 359 431
#     4  12  27  54  84 125 156 204 254 321 396 486
#     4  10  21  42  60  91 136 178 242 301 356 442
#     4  11  26  44  69 101 140 189 243 296 376 442
#
# _framework density 22.365942
#
# number of rings (size 3 to 8) (size 9 to 14) (size 15 to 20)
#    0.000    1.091    3.636    1.091    8.909    4.364 
#    3.273    0.000    0.000    0.000    0.000    0.000 
#    0.000    0.000    0.000    0.000    0.000    0.000 
#
# Total GULP energy -122560.642723 kJ/mol
# GULP energy per Si atom -5570.938306 kJ/mol
# Density = 2.231504 g / cm^3
# Si number density = 22.365942 Si / 1000 Ang^3
#
#
#
# Elastic Constant Matrix: (Units=GPa)
#
#
# Indices 1 2 3 4 5 6 
#
# 1 117.4656 29.3740 41.0001 0.0000 0.0000 0.0000
# 2 29.3740 84.4189 12.8571 0.0000 0.0000 0.0000
# 3 41.0001 12.8571 71.2132 0.0000 0.0000 0.0000
# 4 0.0000 0.0000 0.0000 30.6439 0.0000 0.0000
# 5 0.0000 0.0000 0.0000 0.0000 13.1478 0.0000
# 6 0.0000 0.0000 0.0000 0.0000 0.0000 35.8551
#
#
#
# Elastic Compliance Matrix: (Units=1/GPa)
#
#
# Indices 1 2 3 4 5 6 
#
# 1 0.011366 -0.003042 -0.005995 0.000000 0.000000 0.000000
# 2 -0.003042 0.012995 -0.000595 0.000000 0.000000 0.000000
# 3 -0.005995 -0.000595 0.017601 0.000000 0.000000 0.000000
# 4 0.000000 0.000000 0.000000 0.032633 0.000000 0.000000
# 5 0.000000 0.000000 0.000000 0.000000 0.076059 0.000000
# 6 0.000000 0.000000 0.000000 0.000000 0.000000 0.027890
#
#
# Mechanical properties :
#
#
# Convention : Reuss Voigt Hill
#
# Bulk Modulus (GPa) = 44.05447 48.84001 46.44724
# Shear Modulus (GPa) = 24.34595 28.58711 26.46653
#
# Velocity S-wave (km/s) = 3.30286 3.57901 3.44370
# Velocity P-wave (km/s) = 5.85535 6.24205 6.05179
#
# Compressibility (1/GPa) = 0.02269917
#
# Stress axis : x y z
#
# Youngs Moduli (GPa) = 87.98009 76.95423 56.81455
#
# Poissons Ratio (x) = 0.23409 0.34059
# Poissons Ratio (y) = 0.26763 0.03379
# Poissons Ratio (z) = 0.52742 0.04577
#
# Static dielectric constant tensor:
#      x y z
#    x 1.522840 0.000000 0.000000 
#    y 0.000000 2.194660 0.000000 
#    z 0.000000 0.000000 1.767440 
# 
# From -- ./inp_files/11415.got.cif
#   From: 2010.05.17/outbox.cif.g08.bks.cpg/sg20_6_cif.got.tgz:11415.got - 2010.06.03 22:52:26.
