data_PCOD9318161
_publ_section_title
;
Structure prediction by ZEFSAII (Michael W. Deem and Ramdas Pophale) SiO2 
 PCOD9318161
Probable space group: C 2 2 21
;
_chemical_formula_sum "Si O2"
_cell_formula_units_Z 64
_cell_length_a 11.175082
_cell_length_b 27.886771
_cell_length_c 11.160490
_cell_angle_alpha 90.000000
_cell_angle_beta 90.000000
_cell_angle_gamma 90.000000
_cell_volume 3478.021094
_symmetry_space_group_name_H-M "C 2 2 21"
_symmetry_group_IT_number 20
_symmetry_cell_setting 'orthorhombic'
loop_
_space_group_symop_operation_xyz
x,y,z
-x,-y,1/2+z
x,-y,-z
-x,y,1/2-z
1/2+x,1/2+y,z
1/2-x,1/2-y,1/2+z
1/2+x,1/2-y,-z
1/2-x,1/2+y,1/2-z
loop_
_atom_site_type_symbol
_atom_site_label
_atom_site_fract_x
_atom_site_fract_y
_atom_site_fract_z
Si Si1 0.425044 0.305525 0.417698
Si Si2 0.549199 0.206340 0.468421
Si Si3 0.405016 0.845289 0.349387
Si Si4 0.801476 0.265442 0.197939
Si Si5 0.226067 0.828814 0.839970
Si Si6 0.642697 0.620548 0.577075
Si Si7 0.080873 0.012058 0.632751
Si Si8 0.866067 0.910889 0.807065
O O1 0.476257 0.251722 0.424056
O O2 0.319405 0.296755 0.320971
O O3 0.360354 0.320161 0.544087
O O4 0.532024 0.343364 0.391845
O O5 0.471638 0.164219 0.526660
O O6 0.631374 0.228570 0.573323
O O7 0.639372 0.183348 0.375823
O O8 0.500000 0.865953 0.250000
O O9 0.375066 0.792416 0.299948
O O10 0.274937 0.866955 0.374333
O O11 0.798512 0.210684 0.237632
O O12 0.210890 0.881880 0.788862
O O13 0.623559 0.566297 0.621575
O O14 0.639569 0.617388 0.432373
O O15 0.000000 0.012171 0.750000
O O16 0.026798 0.000000 0.500000
O O17 0.165765 0.966058 0.660286
O O18 0.000000 0.910207 0.750000
#
# Coordination Sequence:
#
# PCOD9318161 Si02
#       8
#     8   8   8   8   8   8   8   8
#     4  11  22  34  55  90 119 157 215 238 303 373
#     4  10  22  36  50  78 121 159 204 242 279 360
#     4  10  22  40  53  76 119 165 199 238 296 355
#     4  10  22  35  53  78 120 162 197 243 286 356
#     4  11  21  35  57  83 119 162 200 245 301 371
#     4  11  22  36  64  87 117 158 203 253 311 375
#     4   9  21  40  62  95 125 151 198 270 332 387
#     4  10  20  38  62  89 118 151 194 256 326 375
#
# _framework density 18.401268999999999
#
# number of rings (size 3 to 8) (size 9 to 14) (size 15 to 20)
#    0.000    1.750    2.500    1.500    5.250    1.500 
#    0.000    0.000    0.000    4.500    0.000    0.000 
#    0.000    0.000    0.000    0.000    0.000    0.000 
#
# Total GULP energy -178193.763437 kJ/mol
# GULP energy per Si atom -5568.555107 kJ/mol
# Density = 1.835939 g / cm^3
# Si number density = 18.401269 Si / 1000 Ang^3
#
#
#
# Elastic Constant Matrix: (Units=GPa)
#
#
# Indices 1 2 3 4 5 6 
#
# 1 83.5881 32.9678 23.1999 0.0000 0.0000 0.0000
# 2 32.9678 75.9548 39.0335 0.0000 0.0000 0.0000
# 3 23.1999 39.0335 54.4317 0.0000 0.0000 0.0000
# 4 0.0000 0.0000 0.0000 20.5126 0.0000 0.0000
# 5 0.0000 0.0000 0.0000 0.0000 -21.8672 0.0000
# 6 0.0000 0.0000 0.0000 0.0000 0.0000 16.0004
#
#
#
# Elastic Compliance Matrix: (Units=1/GPa)
#
#
# Indices 1 2 3 4 5 6 
#
# 1 0.014676 -0.004997 -0.002672 0.000000 0.000000 0.000000
# 2 -0.004997 0.022551 -0.014041 0.000000 0.000000 0.000000
# 3 -0.002672 -0.014041 0.029580 0.000000 0.000000 0.000000
# 4 0.000000 0.000000 0.000000 0.048751 0.000000 0.000000
# 5 0.000000 0.000000 0.000000 0.000000 -0.045731 0.000000
# 6 0.000000 0.000000 0.000000 0.000000 0.000000 0.062499
#
#
# Mechanical properties :
#
#
# Convention : Reuss Voigt Hill
#
# Bulk Modulus (GPa) = 42.76108 44.93078 43.84593
# Shear Modulus (GPa) = 27.24199 10.84738 19.04469
#
# Velocity S-wave (km/s) = 3.85182 2.43058 3.22058
# Velocity P-wave (km/s) = 6.56282 5.68746 6.14076
#
# Compressibility (1/GPa) = 0.02338575
#
# Stress axis : x y z
#
# Youngs Moduli (GPa) = 68.13940 44.34478 33.80699
#
# Poissons Ratio (x) = 0.22159 0.09032
# Poissons Ratio (y) = 0.34049 0.47470
# Poissons Ratio (z) = 0.18205 0.62267
#
# Static dielectric constant tensor:
#      x y z
#    x 1.687390 0.000000 0.000000 
#    y 0.000000 1.625300 0.000000 
#    z 0.000000 0.000000 1.707830 
# 
# From -- ./inp_files/14549.got.cif
#   From: 2010.05.17/outbox.cif.g08.bks.cpg/sg20_8_cif.got.tgz:14549.got - 2010.06.03 22:52:26.
