data_PCOD9318087
_publ_section_title
;
Structure prediction by ZEFSAII (Michael W. Deem and Ramdas Pophale) SiO2 
 PCOD9318087
Probable space group: C 2 2 21
;
_chemical_formula_sum "Si O2"
_cell_formula_units_Z 52
_cell_length_a 20.157234
_cell_length_b 13.572105
_cell_length_c 7.834970
_cell_angle_alpha 90.000000
_cell_angle_beta 90.000000
_cell_angle_gamma 90.000000
_cell_volume 2143.460508
_symmetry_space_group_name_H-M "C 2 2 21"
_symmetry_group_IT_number 20
_symmetry_cell_setting 'orthorhombic'
loop_
_space_group_symop_operation_xyz
x,y,z
-x,-y,1/2+z
x,-y,-z
-x,y,1/2-z
1/2+x,1/2+y,z
1/2-x,1/2-y,1/2+z
1/2+x,1/2-y,-z
1/2-x,1/2+y,1/2-z
loop_
_atom_site_type_symbol
_atom_site_label
_atom_site_fract_x
_atom_site_fract_y
_atom_site_fract_z
Si Si1 0.201632 0.864541 0.676851
Si Si2 0.674455 0.247753 0.030877
Si Si3 0.436319 0.687484 0.049482
Si Si4 0.500000 0.474823 0.750000
Si Si5 0.000000 0.652873 0.750000
Si Si6 0.854765 0.950899 0.313853
Si Si7 0.073317 0.654759 0.260252
Si Si8 0.438068 0.000000 0.000000
O O1 0.265137 0.821920 0.583967
O O2 0.136674 0.854849 0.560618
O O3 0.199093 0.979928 0.721703
O O4 0.187624 0.798036 0.847335
O O5 0.668832 0.340507 0.159392
O O6 0.608587 0.185345 0.084822
O O7 0.490118 0.602611 0.090960
O O8 0.443004 0.766929 0.205155
O O9 0.439861 0.749468 0.877771
O O10 0.569065 0.533881 0.750500
O O11 0.015545 0.577863 0.598139
O O12 0.859231 0.000000 0.500000
O O13 0.107022 0.567753 0.372501
O O14 0.000000 0.612161 0.250000
#
# Coordination Sequence:
#
# PCOD9318087 Si02
#       8
#     8   8   8   4   4   8   8   4
#     4  10  22  45  65  91 131 172 222 267 330 394
#     4  11  24  42  66  94 128 176 220 272 328 398
#     4   9  20  36  61  89 128 165 204 265 326 384
#     4   9  18  34  63  96 128 164 199 262 337 390
#     4   9  18  32  57  82 120 158 201 254 317 368
#     4   9  21  38  63  95 128 166 210 263 329 393
#     4  11  24  38  63  96 129 168 218 271 329 395
#     4  10  20  38  54  88 126 158 214 264 316 382
#
# _framework density 24.259837000000001
#
# number of rings (size 3 to 8) (size 9 to 14) (size 15 to 20)
#    0.000    2.154    0.769    0.923   11.846    0.000 
#    9.692    6.154    0.000    0.000    0.000    0.000 
#    0.000    0.000    0.000    0.000    0.000    0.000 
#
# Total GULP energy -144972.801277 kJ/mol
# GULP energy per Si atom -5575.876972 kJ/mol
# Density = 2.420462 g / cm^3
# Si number density = 24.259837 Si / 1000 Ang^3
#
#
#
# Elastic Constant Matrix: (Units=GPa)
#
#
# Indices 1 2 3 4 5 6 
#
# 1 75.4331 24.0966 -13.9831 0.0000 0.0000 0.0000
# 2 24.0966 105.3007 -13.9674 0.0000 0.0000 0.0000
# 3 -13.9831 -13.9674 52.5330 0.0000 0.0000 0.0000
# 4 0.0000 0.0000 0.0000 37.2848 0.0000 0.0000
# 5 0.0000 0.0000 0.0000 0.0000 27.4784 0.0000
# 6 0.0000 0.0000 0.0000 0.0000 0.0000 29.6006
#
#
#
# Elastic Compliance Matrix: (Units=1/GPa)
#
#
# Indices 1 2 3 4 5 6 
#
# 1 0.014788 -0.002967 0.003147 0.000000 0.000000 0.000000
# 2 -0.002967 0.010439 0.001986 0.000000 0.000000 0.000000
# 3 0.003147 0.001986 0.020401 0.000000 0.000000 0.000000
# 4 0.000000 0.000000 0.000000 0.026821 0.000000 0.000000
# 5 0.000000 0.000000 0.000000 0.000000 0.036392 0.000000
# 6 0.000000 0.000000 0.000000 0.000000 0.000000 0.033783
#
#
# Mechanical properties :
#
#
# Convention : Reuss Voigt Hill
#
# Bulk Modulus (GPa) = 20.01530 25.06210 22.53870
# Shear Modulus (GPa) = 32.26968 34.68083 33.47525
#
# Velocity S-wave (km/s) = 3.65110 3.78505 3.71868
# Velocity P-wave (km/s) = 5.10317 5.42727 5.26772
#
# Compressibility (1/GPa) = 0.04996178
#
# Stress axis : x y z
#
# Youngs Moduli (GPa) = 67.62301 95.79582 49.01620
#
# Poissons Ratio (x) = 0.28418 -0.15428
# Poissons Ratio (y) = 0.20060 -0.09734
# Poissons Ratio (z) = -0.21284 -0.19024
#
# Static dielectric constant tensor:
#      x y z
#    x 1.882360 0.000000 0.000000 
#    y 0.000000 1.944370 0.000000 
#    z 0.000000 0.000000 2.101170 
# 
# From -- ./inp_files/10160.got.cif
#   From: 2010.05.17/outbox.cif.g08.bks.cpg/sg20_6_cif.got.tgz:10160.got - 2010.06.03 22:52:26.
