data_PCOD9318341
_publ_section_title
;
Structure prediction by ZEFSAII (Michael W. Deem and Ramdas Pophale) SiO2 
 PCOD9318341
Probable space group: C 2 2 21
;
_chemical_formula_sum "Si O2"
_cell_formula_units_Z 40
_cell_length_a 9.038847
_cell_length_b 23.953625
_cell_length_c 8.241160
_cell_angle_alpha 90.000000
_cell_angle_beta 90.000000
_cell_angle_gamma 90.000000
_cell_volume 1784.319523
_symmetry_space_group_name_H-M "C 2 2 21"
_symmetry_group_IT_number 20
_symmetry_cell_setting 'orthorhombic'
loop_
_space_group_symop_operation_xyz
x,y,z
-x,-y,1/2+z
x,-y,-z
-x,y,1/2-z
1/2+x,1/2+y,z
1/2-x,1/2-y,1/2+z
1/2+x,1/2-y,-z
1/2-x,1/2+y,1/2-z
loop_
_atom_site_type_symbol
_atom_site_label
_atom_site_fract_x
_atom_site_fract_y
_atom_site_fract_z
Si Si1 0.660718 0.974642 0.180509
Si Si2 0.324385 0.236756 0.720313
Si Si3 0.329106 0.426309 0.712080
Si Si4 0.150956 0.634714 0.998215
Si Si5 0.309274 0.164393 0.036251
O O1 0.500000 0.987587 0.250000
O O2 0.775229 0.009856 0.286746
O O3 0.670971 0.908681 0.151743
O O4 0.671826 0.000000 0.000000
O O5 0.500000 0.249851 0.750000
O O6 0.303209 0.195034 0.567790
O O7 0.231892 0.291844 0.679425
O O8 0.280409 0.200088 0.875197
O O9 0.500000 0.423753 0.750000
O O10 0.238240 0.393579 0.853886
O O11 0.290844 0.390379 0.554226
O O12 0.977554 0.642378 0.039407
#
# Coordination Sequence:
#
# PCOD9318341 Si02
#       5
#     8   8   8   8   8
#     4  10  20  39  66  92 122 165 218 270 325 394
#     4  10  22  39  63  96 132 168 216 272 326 389
#     4  11  23  40  62  91 128 168 216 275 334 388
#     4  10  22  43  64  92 129 171 218 268 325 395
#     4  11  21  39  67  95 128 172 218 267 329 396
#
# _framework density 22.41751
#
# number of rings (size 3 to 8) (size 9 to 14) (size 15 to 20)
#    0.000    1.600    0.000    6.600    0.000    3.200 
#    0.000   20.000    0.000    0.000    0.000    0.000 
#    0.000    0.000    0.000    0.000    0.000    0.000 
#
# Total GULP energy -111771.863637 kJ/mol
# GULP energy per Si atom -5588.593182 kJ/mol
# Density = 2.236649 g / cm^3
# Si number density = 22.417510 Si / 1000 Ang^3
#
#
#
# Elastic Constant Matrix: (Units=GPa)
#
#
# Indices 1 2 3 4 5 6 
#
# 1 78.8450 68.1876 8.2884 0.0000 0.0000 0.0000
# 2 68.1876 160.8080 22.4965 0.0000 0.0000 0.0000
# 3 8.2884 22.4965 59.5421 0.0000 0.0000 0.0000
# 4 0.0000 0.0000 0.0000 17.0934 0.0000 0.0000
# 5 0.0000 0.0000 0.0000 0.0000 22.4133 0.0000
# 6 0.0000 0.0000 0.0000 0.0000 0.0000 40.5504
#
#
#
# Elastic Compliance Matrix: (Units=1/GPa)
#
#
# Indices 1 2 3 4 5 6 
#
# 1 0.020039 -0.008559 0.000444 0.000000 0.000000 0.000000
# 2 -0.008559 0.010222 -0.002671 0.000000 0.000000 0.000000
# 3 0.000444 -0.002671 0.017742 0.000000 0.000000 0.000000
# 4 0.000000 0.000000 0.000000 0.058502 0.000000 0.000000
# 5 0.000000 0.000000 0.000000 0.000000 0.044616 0.000000
# 6 0.000000 0.000000 0.000000 0.000000 0.000000 0.024661
#
#
# Mechanical properties :
#
#
# Convention : Reuss Voigt Hill
#
# Bulk Modulus (GPa) = 37.83338 55.23778 46.53558
# Shear Modulus (GPa) = 24.25273 29.35958 26.80615
#
# Velocity S-wave (km/s) = 3.29274 3.62286 3.46174
# Velocity P-wave (km/s) = 5.60085 6.49570 6.06480
#
# Compressibility (1/GPa) = 0.02643168
#
# Stress axis : x y z
#
# Youngs Moduli (GPa) = 49.90357 97.83244 56.36355
#
# Poissons Ratio (x) = 0.83737 -0.02505
# Poissons Ratio (y) = 0.42713 0.15052
# Poissons Ratio (z) = -0.02218 0.26126
#
# Static dielectric constant tensor:
#      x y z
#    x 1.753020 0.000000 0.000000 
#    y 0.000000 1.858030 0.000000 
#    z 0.000000 0.000000 1.890200 
# 
# From -- ./inp_files/6041.got.cif
#   From: 2010.05.17/outbox.cif.g08.bks.cpg/sg20_4_cif.got.tgz:6041.got - 2010.06.03 22:52:26.
