data_PCOD9318673
_publ_section_title
;
Structure prediction by ZEFSAII (Michael W. Deem and Ramdas Pophale) SiO2 
 PCOD9318673
Probable space group: C 2 2 21
;
_chemical_formula_sum "Si O2"
_cell_formula_units_Z 36
_cell_length_a 12.525354
_cell_length_b 7.817286
_cell_length_c 16.059729
_cell_angle_alpha 90.000000
_cell_angle_beta 90.000000
_cell_angle_gamma 90.000000
_cell_volume 1572.476713
_symmetry_space_group_name_H-M "C 2 2 21"
_symmetry_group_IT_number 20
_symmetry_cell_setting 'orthorhombic'
loop_
_space_group_symop_operation_xyz
x,y,z
-x,-y,1/2+z
x,-y,-z
-x,y,1/2-z
1/2+x,1/2+y,z
1/2-x,1/2-y,1/2+z
1/2+x,1/2-y,-z
1/2-x,1/2+y,1/2-z
loop_
_atom_site_type_symbol
_atom_site_label
_atom_site_fract_x
_atom_site_fract_y
_atom_site_fract_z
Si Si1 0.256982 0.165228 0.185174
Si Si2 0.998926 0.000000 0.000000
Si Si3 0.341970 0.814763 0.470894
Si Si4 0.522655 0.668744 0.662552
Si Si5 0.219715 0.775452 0.137243
O O1 0.383207 0.198924 0.178224
O O2 0.227960 0.186892 0.282483
O O3 0.232392 0.977519 0.151780
O O4 0.202082 0.301605 0.122919
O O5 0.072289 0.162656 0.023574
O O6 0.943008 0.052991 0.914830
O O7 0.252721 0.771872 0.542330
O O8 0.382228 0.000000 0.500000
O O9 0.500000 0.573380 0.750000
O O10 0.408621 0.754038 0.642099
#
# Coordination Sequence:
#
# PCOD9318673 Si02
#       5
#     8   4   8   8   8
#     4  11  20  38  66  93 128 176 218 267 335 390
#     4  10  20  44  62  86 140 164 210 290 312 380
#     4  11  21  38  65  92 127 177 212 262 340 379
#     4   9  20  37  64  88 128 170 212 268 323 384
#     4  10  21  41  63  94 132 171 217 276 325 389
#
# _framework density 22.893822
#
# number of rings (size 3 to 8) (size 9 to 14) (size 15 to 20)
#    0.000    1.778    4.444    1.333    1.556    0.000 
#    0.000    8.889    0.000    0.000    0.000    0.000 
#    0.000    0.000    0.000    0.000    0.000    0.000 
#
# Total GULP energy -100405.965799 kJ/mol
# GULP energy per Si atom -5578.109211 kJ/mol
# Density = 2.284171 g / cm^3
# Si number density = 22.893822 Si / 1000 Ang^3
#
#
#
# Elastic Constant Matrix: (Units=GPa)
#
#
# Indices 1 2 3 4 5 6 
#
# 1 46.0198 8.7870 -12.6890 0.0000 0.0000 0.0000
# 2 8.7870 103.4292 2.6797 0.0000 0.0000 0.0000
# 3 -12.6890 2.6797 162.7277 0.0000 0.0000 0.0000
# 4 0.0000 0.0000 0.0000 36.8472 0.0000 0.0000
# 5 0.0000 0.0000 0.0000 0.0000 20.5141 0.0000
# 6 0.0000 0.0000 0.0000 0.0000 0.0000 5.7235
#
#
#
# Elastic Compliance Matrix: (Units=1/GPa)
#
#
# Indices 1 2 3 4 5 6 
#
# 1 0.022600 -0.001967 0.001795 0.000000 0.000000 0.000000
# 2 -0.001967 0.009844 -0.000315 0.000000 0.000000 0.000000
# 3 0.001795 -0.000315 0.006290 0.000000 0.000000 0.000000
# 4 0.000000 0.000000 0.000000 0.027139 0.000000 0.000000
# 5 0.000000 0.000000 0.000000 0.000000 0.048747 0.000000
# 6 0.000000 0.000000 0.000000 0.000000 0.000000 0.174718
#
#
# Mechanical properties :
#
#
# Convention : Reuss Voigt Hill
#
# Bulk Modulus (GPa) = 26.48333 34.41467 30.44900
# Shear Modulus (GPa) = 16.50715 33.51023 25.00869
#
# Velocity S-wave (km/s) = 2.68811 3.83001 3.30870
# Velocity P-wave (km/s) = 4.60734 5.88418 5.28447
#
# Compressibility (1/GPa) = 0.03775960
#
# Stress axis : x y z
#
# Youngs Moduli (GPa) = 44.24754 101.58795 158.97310
#
# Poissons Ratio (x) = 0.19977 -0.28530
# Poissons Ratio (y) = 0.08701 0.05015
# Poissons Ratio (z) = -0.07941 0.03205
#
# Static dielectric constant tensor:
#      x y z
#    x 1.869990 0.000000 0.000000 
#    y 0.000000 2.045540 0.000000 
#    z 0.000000 0.000000 1.995930 
# 
# From -- ./inp_files/24670.got.cif
#   From: 2010.05.17/outbox.cif.g08.bks.cpg/sg20_13_cif.got.tgz:24670.got - 2010.06.03 22:52:26.
