data_PCOD9318062
_publ_section_title
;
Structure prediction by ZEFSAII (Michael W. Deem and Ramdas Pophale) SiO2 
 PCOD9318062
Probable space group: C 2 2 21
;
_chemical_formula_sum "Si O2"
_cell_formula_units_Z 32
_cell_length_a 4.823007
_cell_length_b 17.707412
_cell_length_c 14.072713
_cell_angle_alpha 90.000000
_cell_angle_beta 90.000000
_cell_angle_gamma 90.000000
_cell_volume 1201.851515
_symmetry_space_group_name_H-M "C 2 2 21"
_symmetry_group_IT_number 20
_symmetry_cell_setting 'orthorhombic'
loop_
_space_group_symop_operation_xyz
x,y,z
-x,-y,1/2+z
x,-y,-z
-x,y,1/2-z
1/2+x,1/2+y,z
1/2-x,1/2-y,1/2+z
1/2+x,1/2-y,-z
1/2-x,1/2+y,1/2-z
loop_
_atom_site_type_symbol
_atom_site_label
_atom_site_fract_x
_atom_site_fract_y
_atom_site_fract_z
Si Si1 0.923240 0.097314 0.615693
Si Si2 0.361491 0.227034 0.349823
Si Si3 0.433663 0.001050 0.614623
Si Si4 0.309874 0.638322 0.406899
O O1 0.133317 0.030477 0.646312
O O2 0.941642 0.102108 0.500800
O O3 0.916416 0.183707 0.647663
O O4 0.622592 0.070114 0.643910
O O5 0.500000 0.203118 0.250000
O O6 0.563437 0.196150 0.433067
O O7 0.939414 0.186856 0.140336
O O8 0.430173 0.000000 0.500000
O O9 0.617216 0.927387 0.641341
#
# Coordination Sequence:
#
# PCOD9318062 Si02
#       4
#     8   8   8   8
#     4  11  21  39  66  95 124 164 215 270 327 387
#     4  12  25  41  61  93 133 175 220 269 324 396
#     4  10  20  37  65  96 124 156 211 274 326 383
#     4  11  22  41  66  94 128 171 218 273 334 394
#
# _framework density 26.625585000000001
#
# number of rings (size 3 to 8) (size 9 to 14) (size 15 to 20)
#    0.000    1.000    0.000   10.500    0.000    0.000 
#    0.000    5.000    0.000    3.000    0.000    0.000 
#    0.000    0.000    0.000    0.000    0.000    0.000 
#
# Total GULP energy -89210.691678 kJ/mol
# GULP energy per Si atom -5575.668230 kJ/mol
# Density = 2.656498 g / cm^3
# Si number density = 26.625585 Si / 1000 Ang^3
#
#
#
# Elastic Constant Matrix: (Units=GPa)
#
#
# Indices 1 2 3 4 5 6 
#
# 1 187.3323 59.1393 28.8179 0.0000 0.0000 0.0000
# 2 59.1393 177.4523 35.3565 0.0000 0.0000 0.0000
# 3 28.8179 35.3565 86.2093 0.0000 0.0000 0.0000
# 4 0.0000 0.0000 0.0000 -6.8139 0.0000 0.0000
# 5 0.0000 0.0000 0.0000 0.0000 16.9784 0.0000
# 6 0.0000 0.0000 0.0000 0.0000 0.0000 44.8306
#
#
#
# Elastic Compliance Matrix: (Units=1/GPa)
#
#
# Indices 1 2 3 4 5 6 
#
# 1 0.006099 -0.001771 -0.001312 0.000000 0.000000 0.000000
# 2 -0.001771 0.006651 -0.002136 0.000000 0.000000 0.000000
# 3 -0.001312 -0.002136 0.012914 0.000000 0.000000 0.000000
# 4 0.000000 0.000000 0.000000 -0.146760 0.000000 0.000000
# 5 0.000000 0.000000 0.000000 0.000000 0.058898 0.000000
# 6 0.000000 0.000000 0.000000 0.000000 0.000000 0.022306
#
#
# Mechanical properties :
#
#
# Convention : Reuss Voigt Hill
#
# Bulk Modulus (GPa) = 65.67729 77.51350 71.59540
# Shear Modulus (GPa) = -205.11294 32.84437 -86.13429
#
# Velocity S-wave (km/s) = -8.78654 3.51602 -5.69389
# Velocity P-wave (km/s) = 8.84405 6.75713 4.03474
#
# Compressibility (1/GPa) = 0.01522596
#
# Stress axis : x y z
#
# Youngs Moduli (GPa) = 163.95748 150.35059 77.43350
#
# Poissons Ratio (x) = 0.26630 0.10163
# Poissons Ratio (y) = 0.29040 0.16538
# Poissons Ratio (z) = 0.21518 0.32111
#
# Static dielectric constant tensor:
#      x y z
#    x 2.112720 0.000000 0.000000 
#    y 0.000000 2.139980 0.000000 
#    z 0.000000 0.000000 2.284040 
# 
# From -- ./inp_files/22494.got.cif
#   From: 2010.05.17/outbox.cif.g08.bks.cpg/sg20_12_cif.got.tgz:22494.got - 2010.06.03 22:52:26.
