data_PCOD9318675
_publ_section_title
;
Structure prediction by ZEFSAII (Michael W. Deem and Ramdas Pophale) SiO2 
 PCOD9318675
Probable space group: C 2 2 21
;
_chemical_formula_sum "Si O2"
_cell_formula_units_Z 56
_cell_length_a 8.676980
_cell_length_b 23.025401
_cell_length_c 13.791898
_cell_angle_alpha 90.000000
_cell_angle_beta 90.000000
_cell_angle_gamma 90.000000
_cell_volume 2755.496321
_symmetry_space_group_name_H-M "C 2 2 21"
_symmetry_group_IT_number 20
_symmetry_cell_setting 'orthorhombic'
loop_
_space_group_symop_operation_xyz
x,y,z
-x,-y,1/2+z
x,-y,-z
-x,y,1/2-z
1/2+x,1/2+y,z
1/2-x,1/2-y,1/2+z
1/2+x,1/2-y,-z
1/2-x,1/2+y,1/2-z
loop_
_atom_site_type_symbol
_atom_site_label
_atom_site_fract_x
_atom_site_fract_y
_atom_site_fract_z
Si Si1 0.272761 0.087843 0.012912
Si Si2 0.176226 0.766243 0.714334
Si Si3 0.303072 0.813196 0.526028
Si Si4 0.028119 0.500000 0.000000
Si Si5 0.655836 0.209017 0.405808
Si Si6 0.017815 0.000000 0.000000
Si Si7 0.173627 0.371203 0.294622
Si Si8 0.765340 0.073670 0.896778
O O1 0.422391 0.051040 0.041804
O O2 0.293305 0.097598 0.896639
O O3 0.263555 0.150196 0.059986
O O4 0.130435 0.048253 0.043487
O O5 0.202510 0.806655 0.622225
O O6 0.305728 0.782470 0.793216
O O7 0.197902 0.697755 0.689699
O O8 0.000000 0.772046 0.750000
O O9 0.479459 0.798804 0.557424
O O10 0.238906 0.763578 0.455266
O O11 0.277254 0.873921 0.471101
O O12 0.129895 0.527221 0.914623
O O13 0.913973 0.962757 0.072659
O O14 0.275331 0.398318 0.208872
O O15 0.000000 0.377264 0.250000
#
# Coordination Sequence:
#
# PCOD9318675 Si02
#       8
#     8   8   8   4   8   4   8   8
#     4  11  23  44  71  97 139 175 230 277 343 403
#     4  11  25  41  66 107 140 178 233 282 352 413
#     4  12  24  42  69 101 141 180 222 286 350 407
#     4  10  20  44  66  90 124 186 226 270 324 414
#     4  12  24  42  69 101 141 180 222 286 350 407
#     4  10  28  44  66  98 132 182 226 282 340 394
#     4  11  20  40  71 104 125 173 234 275 325 416
#     4  11  23  44  71  97 139 175 230 277 343 403
#
# _framework density 20.323018999999999
#
# number of rings (size 3 to 8) (size 9 to 14) (size 15 to 20)
#    0.000    0.857    5.714    1.286    4.000    0.571 
#    2.571    8.571    0.000    0.000    0.000    0.000 
#    0.000    0.000    0.000    0.000    0.000    0.000 
#
# Total GULP energy -156377.423483 kJ/mol
# GULP energy per Si atom -5584.907982 kJ/mol
# Density = 2.027676 g / cm^3
# Si number density = 20.323019 Si / 1000 Ang^3
#
#
#
# Elastic Constant Matrix: (Units=GPa)
#
#
# Indices 1 2 3 4 5 6 
#
# 1 80.4288 46.7447 -1.4871 0.0000 0.0000 0.0000
# 2 46.7447 122.6942 51.3151 0.0000 0.0000 0.0000
# 3 -1.4871 51.3151 53.5397 0.0000 0.0000 0.0000
# 4 0.0000 0.0000 0.0000 -9.9423 0.0000 0.0000
# 5 0.0000 0.0000 0.0000 0.0000 28.3083 0.0000
# 6 0.0000 0.0000 0.0000 0.0000 0.0000 15.5194
#
#
#
# Elastic Compliance Matrix: (Units=1/GPa)
#
#
# Indices 1 2 3 4 5 6 
#
# 1 0.020482 -0.013421 0.013433 0.000000 0.000000 0.000000
# 2 -0.013421 0.022398 -0.021840 0.000000 0.000000 0.000000
# 3 0.013433 -0.021840 0.039984 0.000000 0.000000 0.000000
# 4 0.000000 0.000000 0.000000 -0.100581 0.000000 0.000000
# 5 0.000000 0.000000 0.000000 0.000000 0.035325 0.000000
# 6 0.000000 0.000000 0.000000 0.000000 0.000000 0.064436
#
#
# Mechanical properties :
#
#
# Convention : Reuss Voigt Hill
#
# Bulk Modulus (GPa) = 25.50640 49.97868 37.74254
# Shear Modulus (GPa) = 36.03073 17.44975 26.74024
#
# Velocity S-wave (km/s) = 4.21515 2.93340 3.63128
# Velocity P-wave (km/s) = 6.02227 6.00988 6.01608
#
# Compressibility (1/GPa) = 0.03920585
#
# Stress axis : x y z
#
# Youngs Moduli (GPa) = 48.82296 44.64675 25.01031
#
# Poissons Ratio (x) = 0.59922 -0.33595
# Poissons Ratio (y) = 0.65527 0.54623
# Poissons Ratio (z) = -0.65582 0.97509
#
# Static dielectric constant tensor:
#      x y z
#    x 1.795310 0.000000 0.000000 
#    y 0.000000 1.668700 0.000000 
#    z 0.000000 0.000000 1.712680 
# 
# From -- ./inp_files/19255.got.cif
#   From: 2010.05.17/outbox.cif.g08.bks.cpg/sg20_10_cif.got.tgz:19255.got - 2010.06.03 22:52:26.
