data_PCOD9318691
_publ_section_title
;
Structure prediction by ZEFSAII (Michael W. Deem and Ramdas Pophale) SiO2 
 PCOD9318691
Probable space group: C 2 2 21
;
_chemical_formula_sum "Si O2"
_cell_formula_units_Z 44
_cell_length_a 9.376044
_cell_length_b 16.392373
_cell_length_c 14.667589
_cell_angle_alpha 90.000000
_cell_angle_beta 90.000000
_cell_angle_gamma 90.000000
_cell_volume 2254.344046
_symmetry_space_group_name_H-M "C 2 2 21"
_symmetry_group_IT_number 20
_symmetry_cell_setting 'orthorhombic'
loop_
_space_group_symop_operation_xyz
x,y,z
-x,-y,1/2+z
x,-y,-z
-x,y,1/2-z
1/2+x,1/2+y,z
1/2-x,1/2-y,1/2+z
1/2+x,1/2-y,-z
1/2-x,1/2+y,1/2-z
loop_
_atom_site_type_symbol
_atom_site_label
_atom_site_fract_x
_atom_site_fract_y
_atom_site_fract_z
Si Si1 0.905440 0.581388 0.442197
Si Si2 0.129553 0.077797 0.176610
Si Si3 0.836270 0.473594 0.278941
Si Si4 0.001412 0.000000 0.000000
Si Si5 0.304041 0.362198 0.086335
Si Si6 0.109588 0.307412 0.663779
O O1 0.939763 0.500000 0.500000
O O2 0.824897 0.545437 0.354390
O O3 0.805185 0.639883 0.501582
O O4 0.041604 0.628050 0.406150
O O5 0.233505 0.156445 0.185531
O O6 0.000000 0.081832 0.250000
O O7 0.229384 0.000465 0.201133
O O8 0.079008 0.058019 0.073928
O O9 0.786858 0.391553 0.326798
O O10 0.000000 0.470577 0.250000
O O11 0.908259 0.063401 0.940209
O O12 0.378925 0.279168 0.113984
O O13 0.000000 0.303745 0.750000
#
# Coordination Sequence:
#
# PCOD9318691 Si02
#       6
#     8   8   8   4   8   8
#     4  10  20  44  71  90 133 186 229 277 349 414
#     4  12  24  43  69 102 139 180 232 283 346 418
#     4  11  20  44  73  92 130 187 229 275 346 423
#     4  12  26  40  72  98 138 186 226 288 350 414
#     4  11  25  44  66 103 138 179 228 293 348 408
#     4  12  27  44  68 104 143 186 228 296 349 414
#
# _framework density 19.517873000000002
#
# number of rings (size 3 to 8) (size 9 to 14) (size 15 to 20)
#    0.000    0.727    8.182    0.000    6.364    0.727 
#    0.000    3.636    0.000    0.000    0.000    0.000 
#    0.000    0.000    0.000    0.000    0.000    0.000 
#
# Total GULP energy -122756.770336 kJ/mol
# GULP energy per Si atom -5579.853197 kJ/mol
# Density = 1.947345 g / cm^3
# Si number density = 19.517873 Si / 1000 Ang^3
#
#
#
# Elastic Constant Matrix: (Units=GPa)
#
#
# Indices 1 2 3 4 5 6 
#
# 1 112.4489 44.5275 45.2224 0.0000 0.0000 0.0000
# 2 44.5275 84.1902 39.5734 0.0000 0.0000 0.0000
# 3 45.2224 39.5734 87.8573 0.0000 0.0000 0.0000
# 4 0.0000 0.0000 0.0000 19.8781 0.0000 0.0000
# 5 0.0000 0.0000 0.0000 0.0000 41.6671 0.0000
# 6 0.0000 0.0000 0.0000 0.0000 0.0000 29.5214
#
#
#
# Elastic Compliance Matrix: (Units=1/GPa)
#
#
# Indices 1 2 3 4 5 6 
#
# 1 0.012441 -0.004529 -0.004364 0.000000 0.000000 0.000000
# 2 -0.004529 0.016717 -0.005199 0.000000 0.000000 0.000000
# 3 -0.004364 -0.005199 0.015970 0.000000 0.000000 0.000000
# 4 0.000000 0.000000 0.000000 0.050307 0.000000 0.000000
# 5 0.000000 0.000000 0.000000 0.000000 0.024000 0.000000
# 6 0.000000 0.000000 0.000000 0.000000 0.000000 0.033874
#
#
# Mechanical properties :
#
#
# Convention : Reuss Voigt Hill
#
# Bulk Modulus (GPa) = 59.01370 60.34923 59.68146
# Shear Modulus (GPa) = 26.71812 28.55820 27.63816
#
# Velocity S-wave (km/s) = 3.70389 3.82931 3.76712
# Velocity P-wave (km/s) = 6.97087 7.10905 7.04030
#
# Compressibility (1/GPa) = 0.01694522
#
# Stress axis : x y z
#
# Youngs Moduli (GPa) = 80.37777 59.82041 62.61784
#
# Poissons Ratio (x) = 0.27092 0.27326
# Poissons Ratio (y) = 0.36402 0.32552
# Poissons Ratio (z) = 0.35076 0.31098
#
# Static dielectric constant tensor:
#      x y z
#    x 1.709790 0.000000 0.000000 
#    y 0.000000 1.668270 0.000000 
#    z 0.000000 0.000000 1.745980 
# 
# From -- ./inp_files/18783.got.cif
#   From: 2010.05.17/outbox.cif.g08.bks.cpg/sg20_10_cif.got.tgz:18783.got - 2010.06.03 22:52:26.
