data_PCOD9318444
_publ_section_title
;
Structure prediction by ZEFSAII (Michael W. Deem and Ramdas Pophale) SiO2 
 PCOD9318444
Probable space group: C 2 2 21
;
_chemical_formula_sum "Si O2"
_cell_formula_units_Z 64
_cell_length_a 27.797033
_cell_length_b 11.498481
_cell_length_c 8.476771
_cell_angle_alpha 90.000000
_cell_angle_beta 90.000000
_cell_angle_gamma 90.000000
_cell_volume 2709.376536
_symmetry_space_group_name_H-M "C 2 2 21"
_symmetry_group_IT_number 20
_symmetry_cell_setting 'orthorhombic'
loop_
_space_group_symop_operation_xyz
x,y,z
-x,-y,1/2+z
x,-y,-z
-x,y,1/2-z
1/2+x,1/2+y,z
1/2-x,1/2-y,1/2+z
1/2+x,1/2-y,-z
1/2-x,1/2+y,1/2-z
loop_
_atom_site_type_symbol
_atom_site_label
_atom_site_fract_x
_atom_site_fract_y
_atom_site_fract_z
Si Si1 0.390418 0.132873 0.887508
Si Si2 0.838237 0.013217 0.686259
Si Si3 0.043120 0.763374 0.862488
Si Si4 0.093265 0.207582 0.826876
Si Si5 0.476238 0.147743 0.112499
Si Si6 0.192570 0.796363 0.618271
Si Si7 0.151376 0.447326 0.837413
Si Si8 0.755866 0.607619 0.670475
O O1 0.417585 0.205477 0.750089
O O2 0.346700 0.209556 0.956174
O O3 0.369946 0.018106 0.807643
O O4 0.430883 0.113291 0.013737
O O5 0.879694 0.098505 0.746299
O O6 0.786696 0.072420 0.713693
O O7 0.843709 0.000000 0.500000
O O8 0.835094 0.898389 0.790983
O O9 0.000000 0.814235 0.750000
O O10 0.072812 0.829245 0.000039
O O11 0.015146 0.674496 0.978439
O O12 0.048600 0.250645 0.720428
O O13 0.132608 0.314043 0.839607
O O14 0.500000 0.069668 0.250000
O O15 0.217571 0.717802 0.752746
O O16 0.229188 0.849869 0.489950
O O17 0.206466 0.498616 0.836588
O O18 0.130996 0.500000 0.000000
#
# Coordination Sequence:
#
# PCOD9318444 Si02
#       8
#     8   8   8   8   8   8   8   8
#     4  10  20  40  66  99 132 181 228 275 351 414
#     4  12  26  42  69 100 137 187 235 287 344 416
#     4   9  18  38  68  96 132 172 225 283 343 415
#     4  11  23  42  66  98 137 184 228 284 347 411
#     4   9  20  39  66  99 139 174 219 285 345 416
#     4  11  24  45  70 100 137 183 236 288 344 413
#     4  11  23  40  66  94 135 184 226 283 347 410
#     4  11  26  45  69 100 139 181 235 293 343 403
#
# _framework density 23.621670999999999
#
# number of rings (size 3 to 8) (size 9 to 14) (size 15 to 20)
#    0.000    1.500    1.250    3.375    5.250    0.500 
#    4.500    9.375    0.000   28.500    0.000    0.000 
#    0.000    0.000    0.000    0.000    0.000    0.000 
#
# Total GULP energy -178613.554147 kJ/mol
# GULP energy per Si atom -5581.673567 kJ/mol
# Density = 2.356791 g / cm^3
# Si number density = 23.621671 Si / 1000 Ang^3
#
#
#
# Elastic Constant Matrix: (Units=GPa)
#
#
# Indices 1 2 3 4 5 6 
#
# 1 133.0947 44.4079 48.4775 0.0000 0.0000 0.0000
# 2 44.4079 90.0619 19.7432 0.0000 0.0000 0.0000
# 3 48.4775 19.7432 107.9852 0.0000 0.0000 0.0000
# 4 0.0000 0.0000 0.0000 24.3504 0.0000 0.0000
# 5 0.0000 0.0000 0.0000 0.0000 52.9067 0.0000
# 6 0.0000 0.0000 0.0000 0.0000 0.0000 -397.6483
#
#
#
# Elastic Compliance Matrix: (Units=1/GPa)
#
#
# Indices 1 2 3 4 5 6 
#
# 1 0.010339 -0.004251 -0.003864 0.000000 0.000000 0.000000
# 2 -0.004251 0.013315 -0.000526 0.000000 0.000000 0.000000
# 3 -0.003864 -0.000526 0.011092 0.000000 0.000000 0.000000
# 4 0.000000 0.000000 0.000000 0.041067 0.000000 0.000000
# 5 0.000000 0.000000 0.000000 0.000000 0.018901 0.000000
# 6 0.000000 0.000000 0.000000 0.000000 0.000000 -0.002515
#
#
# Mechanical properties :
#
#
# Convention : Reuss Voigt Hill
#
# Bulk Modulus (GPa) = 57.26405 61.82212 59.54308
# Shear Modulus (GPa) = 43.36400 -49.51069 -3.07335
#
# Velocity S-wave (km/s) = 4.28924 -4.58316 -1.14188
# Velocity P-wave (km/s) = 6.98748 1.33362 4.85007
#
# Compressibility (1/GPa) = 0.01746296
#
# Stress axis : x y z
#
# Youngs Moduli (GPa) = 96.71774 75.10393 90.15880
#
# Poissons Ratio (x) = 0.31927 0.34841
# Poissons Ratio (y) = 0.41115 0.04742
# Poissons Ratio (z) = 0.37376 0.03950
#
# Static dielectric constant tensor:
#      x y z
#    x 2.014640 0.000000 0.000000 
#    y 0.000000 1.946120 0.000000 
#    z 0.000000 0.000000 2.889220 
# 
# From -- ./inp_files/11632.got.cif
#   From: 2010.05.17/outbox.cif.g08.bks.cpg/sg20_6_cif.got.tgz:11632.got - 2010.06.03 22:52:26.
