data_PCOD9318913
_publ_section_title
;
Structure prediction by ZEFSAII (Michael W. Deem and Ramdas Pophale) SiO2 
 PCOD9318913
Probable space group: C 2 2 21
;
_chemical_formula_sum "Si O2"
_cell_formula_units_Z 56
_cell_length_a 14.724164
_cell_length_b 15.699005
_cell_length_c 10.367341
_cell_angle_alpha 90.000000
_cell_angle_beta 90.000000
_cell_angle_gamma 90.000000
_cell_volume 2396.459850
_symmetry_space_group_name_H-M "C 2 2 21"
_symmetry_group_IT_number 20
_symmetry_cell_setting 'orthorhombic'
loop_
_space_group_symop_operation_xyz
x,y,z
-x,-y,1/2+z
x,-y,-z
-x,y,1/2-z
1/2+x,1/2+y,z
1/2-x,1/2-y,1/2+z
1/2+x,1/2-y,-z
1/2-x,1/2+y,1/2-z
loop_
_atom_site_type_symbol
_atom_site_label
_atom_site_fract_x
_atom_site_fract_y
_atom_site_fract_z
Si Si1 0.364290 0.423917 0.870560
Si Si2 0.348016 0.923087 0.912554
Si Si3 0.000000 0.517959 0.750000
Si Si4 0.000000 0.194450 0.250000
Si Si5 0.081817 0.892908 0.350989
Si Si6 0.277382 0.247018 0.193880
Si Si7 0.803445 0.679489 0.451130
Si Si8 0.014265 0.342233 0.047411
O O1 0.410765 0.363527 0.765536
O O2 0.362398 0.520346 0.821114
O O3 0.266186 0.396991 0.924855
O O4 0.431071 0.408210 0.995232
O O5 0.286907 0.852437 0.843668
O O6 0.418073 0.965640 0.812149
O O7 0.414610 0.867122 0.001427
O O8 0.307851 0.000000 0.000000
O O9 0.041016 0.579735 0.859354
O O10 0.007566 0.256298 0.127851
O O11 0.134018 0.804087 0.335830
O O12 0.000000 0.892569 0.250000
O O13 0.267604 0.248857 0.348025
O O14 0.205869 0.289246 0.097895
O O15 0.910221 0.663116 0.435610
#
# Coordination Sequence:
#
# PCOD9318913 Si02
#       8
#     8   8   4   4   8   8   8   8
#     4  10  22  42  62  95 133 167 217 274 329 388
#     4  10  21  41  63  93 123 167 223 269 316 391
#     4   9  20  38  59 100 120 164 223 268 320 393
#     4  11  20  38  69  94 132 172 225 270 320 403
#     4  10  22  42  66  94 121 168 221 278 315 389
#     4  11  25  43  65  95 135 170 223 267 336 393
#     4  11  24  43  65  97 135 175 211 272 344 398
#     4  10  21  37  66  96 128 170 217 272 335 394
#
# _framework density 23.367802999999999
#
# number of rings (size 3 to 8) (size 9 to 14) (size 15 to 20)
#    0.000    1.714    0.714    3.429    5.000    2.286 
#   28.286    0.000    0.000    0.000    0.000    0.000 
#    0.000    0.000    0.000    0.000    0.000    0.000 
#
# Total GULP energy -156338.772530 kJ/mol
# GULP energy per Si atom -5583.527590 kJ/mol
# Density = 2.331462 g / cm^3
# Si number density = 23.367803 Si / 1000 Ang^3
#
#
#
# Elastic Constant Matrix: (Units=GPa)
#
#
# Indices 1 2 3 4 5 6 
#
# 1 56.4298 23.6553 1.6606 0.0000 0.0000 0.0000
# 2 23.6553 121.9038 7.6457 0.0000 0.0000 0.0000
# 3 1.6606 7.6457 62.9083 0.0000 0.0000 0.0000
# 4 0.0000 0.0000 0.0000 41.3228 0.0000 0.0000
# 5 0.0000 0.0000 0.0000 0.0000 33.9070 0.0000
# 6 0.0000 0.0000 0.0000 0.0000 0.0000 10.0779
#
#
#
# Elastic Compliance Matrix: (Units=1/GPa)
#
#
# Indices 1 2 3 4 5 6 
#
# 1 0.019291 -0.003740 -0.000055 0.000000 0.000000 0.000000
# 2 -0.003740 0.008991 -0.000994 0.000000 0.000000 0.000000
# 3 -0.000055 -0.000994 0.016018 0.000000 0.000000 0.000000
# 4 0.000000 0.000000 0.000000 0.024200 0.000000 0.000000
# 5 0.000000 0.000000 0.000000 0.000000 0.029492 0.000000
# 6 0.000000 0.000000 0.000000 0.000000 0.000000 0.099227
#
#
# Mechanical properties :
#
#
# Convention : Reuss Voigt Hill
#
# Bulk Modulus (GPa) = 28.79939 34.12945 31.46442
# Shear Modulus (GPa) = 22.89687 30.94690 26.92188
#
# Velocity S-wave (km/s) = 3.13365 3.64309 3.39793
# Velocity P-wave (km/s) = 5.04422 5.68623 5.37482
#
# Compressibility (1/GPa) = 0.03472296
#
# Stress axis : x y z
#
# Youngs Moduli (GPa) = 51.83896 111.21919 62.42818
#
# Poissons Ratio (x) = 0.41595 0.00341
# Poissons Ratio (y) = 0.19387 0.06206
# Poissons Ratio (z) = 0.00284 0.11056
#
# Static dielectric constant tensor:
#      x y z
#    x 1.927100 0.000000 0.000000 
#    y 0.000000 1.884510 0.000000 
#    z 0.000000 0.000000 1.972450 
# 
# From -- ./inp_files/15166.got.cif
#   From: 2010.05.17/outbox.cif.g08.bks.cpg/sg20_8_cif.got.tgz:15166.got - 2010.06.03 22:52:26.
