data_PCOD9318353
_publ_section_title
;
Structure prediction by ZEFSAII (Michael W. Deem and Ramdas Pophale) SiO2 
 PCOD9318353
Probable space group: C 2 2 21
;
_chemical_formula_sum "Si O2"
_cell_formula_units_Z 60
_cell_length_a 5.250377
_cell_length_b 19.171774
_cell_length_c 24.300952
_cell_angle_alpha 90.000000
_cell_angle_beta 90.000000
_cell_angle_gamma 90.000000
_cell_volume 2446.110530
_symmetry_space_group_name_H-M "C 2 2 21"
_symmetry_group_IT_number 20
_symmetry_cell_setting 'orthorhombic'
loop_
_space_group_symop_operation_xyz
x,y,z
-x,-y,1/2+z
x,-y,-z
-x,y,1/2-z
1/2+x,1/2+y,z
1/2-x,1/2-y,1/2+z
1/2+x,1/2-y,-z
1/2-x,1/2+y,1/2-z
loop_
_atom_site_type_symbol
_atom_site_label
_atom_site_fract_x
_atom_site_fract_y
_atom_site_fract_z
Si Si1 0.497722 0.623270 0.817227
Si Si2 0.449049 0.769728 0.032911
Si Si3 0.880526 0.724892 0.187774
Si Si4 0.829014 0.406029 0.663561
Si Si5 0.532689 0.625584 0.071547
Si Si6 0.497552 0.953220 0.183324
Si Si7 0.500000 0.352553 0.750000
Si Si8 0.467301 0.915581 0.506431
O O1 0.500000 0.623978 0.750000
O O2 0.423423 0.699925 0.836559
O O3 0.771484 0.596647 0.834794
O O4 0.273484 0.572720 0.834904
O O5 0.516424 0.710201 0.077730
O O6 0.660995 0.747367 0.986756
O O7 0.479748 0.853704 0.039253
O O8 0.599929 0.698257 0.202321
O O9 0.000000 0.727245 0.250000
O O10 0.024074 0.665732 0.154476
O O11 0.584415 0.410909 0.625031
O O12 0.717352 0.400975 0.725361
O O13 0.020621 0.469517 0.660415
O O14 0.808854 0.603232 0.050160
O O15 0.317604 0.602489 0.026955
O O16 0.500000 0.953317 0.250000
O O17 0.481879 0.000000 0.500000
#
# Coordination Sequence:
#
# PCOD9318353 Si02
#       8
#     8   8   8   8   8   8   4   8
#     4   9  20  34  56  77 103 143 208 261 305 353
#     4   8  16  34  59  87 117 151 190 231 297 372
#     4   9  20  36  57  81 109 158 210 254 301 362
#     4  11  24  37  58  87 127 162 217 261 312 369
#     4  10  22  38  61  93 122 161 200 254 303 377
#     4  10  21  35  54  79 110 159 205 255 301 354
#     4  10  22  36  64  84 122 172 222 268 320 364
#     4  10  20  39  67  93 122 156 198 247 321 388
#
# _framework density 24.528735999999999
#
# number of rings (size 3 to 8) (size 9 to 14) (size 15 to 20)
#    0.000    2.400    0.000    1.600   13.067    0.000 
#    0.000    2.667    0.000    0.000    0.000    0.000 
#    0.000    0.000    0.000    0.000    0.000    0.000 
#
# Total GULP energy -167530.232124 kJ/mol
# GULP energy per Si atom -5584.341071 kJ/mol
# Density = 2.447291 g / cm^3
# Si number density = 24.528736 Si / 1000 Ang^3
#
#
#
# Elastic Constant Matrix: (Units=GPa)
#
#
# Indices 1 2 3 4 5 6 
#
# 1 91.4131 15.7555 15.7969 0.0000 0.0000 0.0000
# 2 15.7555 152.1785 21.1861 0.0000 0.0000 0.0000
# 3 15.7969 21.1861 39.6948 0.0000 0.0000 0.0000
# 4 0.0000 0.0000 0.0000 -4.6560 0.0000 0.0000
# 5 0.0000 0.0000 0.0000 0.0000 23.0507 0.0000
# 6 0.0000 0.0000 0.0000 0.0000 0.0000 40.1135
#
#
#
# Elastic Compliance Matrix: (Units=1/GPa)
#
#
# Indices 1 2 3 4 5 6 
#
# 1 0.011800 -0.000614 -0.004368 0.000000 0.000000 0.000000
# 2 -0.000614 0.007131 -0.003562 0.000000 0.000000 0.000000
# 3 -0.004368 -0.003562 0.028832 0.000000 0.000000 0.000000
# 4 0.000000 0.000000 0.000000 -0.214779 0.000000 0.000000
# 5 0.000000 0.000000 0.000000 0.000000 0.043383 0.000000
# 6 0.000000 0.000000 0.000000 0.000000 0.000000 0.024929
#
#
# Mechanical properties :
#
#
# Convention : Reuss Voigt Hill
#
# Bulk Modulus (GPa) = 32.59983 43.19594 37.89788
# Shear Modulus (GPa) = -70.03553 27.07151 -21.48201
#
# Velocity S-wave (km/s) = -5.34925 3.32575 -2.96258
# Velocity P-wave (km/s) = 4.98330 5.69175 1.94458
#
# Compressibility (1/GPa) = 0.03067501
#
# Stress axis : x y z
#
# Youngs Moduli (GPa) = 84.74582 140.24071 34.68415
#
# Poissons Ratio (x) = 0.08604 0.15152
# Poissons Ratio (y) = 0.05199 0.12353
# Poissons Ratio (z) = 0.37021 0.49949
#
# Static dielectric constant tensor:
#      x y z
#    x 1.951470 0.000000 0.000000 
#    y 0.000000 1.948860 0.000000 
#    z 0.000000 0.000000 1.938970 
# 
# From -- ./inp_files/30819.got.cif
#   From: 2010.05.17/outbox.cif.g08.bks.cpg/sg20_16_cif.got.tgz:30819.got - 2010.06.03 22:52:26.
