data_PCOD9318633
_publ_section_title
;
Structure prediction by ZEFSAII (Michael W. Deem and Ramdas Pophale) SiO2 
 PCOD9318633
Probable space group: C 2 2 21
;
_chemical_formula_sum "Si O2"
_cell_formula_units_Z 48
_cell_length_a 29.792485
_cell_length_b 9.100450
_cell_length_c 9.095604
_cell_angle_alpha 90.000000
_cell_angle_beta 90.000000
_cell_angle_gamma 90.000000
_cell_volume 2466.045817
_symmetry_space_group_name_H-M "C 2 2 21"
_symmetry_group_IT_number 20
_symmetry_cell_setting 'orthorhombic'
loop_
_space_group_symop_operation_xyz
x,y,z
-x,-y,1/2+z
x,-y,-z
-x,y,1/2-z
1/2+x,1/2+y,z
1/2-x,1/2-y,1/2+z
1/2+x,1/2-y,-z
1/2-x,1/2+y,1/2-z
loop_
_atom_site_type_symbol
_atom_site_label
_atom_site_fract_x
_atom_site_fract_y
_atom_site_fract_z
Si Si1 0.695316 0.651350 0.907118
Si Si2 0.298880 0.138879 0.888587
Si Si3 0.071795 0.000000 0.500000
Si Si4 0.593275 0.000000 0.500000
Si Si5 0.357417 0.723313 0.886114
Si Si6 0.051080 0.262334 0.291731
Si Si7 0.137041 0.635923 0.890982
O O1 0.747256 0.681153 0.865350
O O2 0.668822 0.669018 0.755210
O O3 0.693759 0.500000 0.000000
O O4 0.669628 0.763741 0.011786
O O5 0.329512 0.103036 0.747319
O O6 0.324212 0.269719 0.974044
O O7 0.296894 0.000000 0.000000
O O8 0.102789 0.111438 0.588942
O O9 0.049570 0.106438 0.378611
O O10 0.620820 0.113170 0.395235
O O11 0.564893 0.109410 0.597051
O O12 0.091801 0.281334 0.170821
O O13 0.000000 0.291316 0.250000
O O14 0.124871 0.500000 0.000000
#
# Coordination Sequence:
#
# PCOD9318633 Si02
#       7
#     8   8   4   4   8   8   8
#     4  11  25  38  60  99 136 174 221 276 328 391
#     4  11  21  41  64  92 131 177 224 266 330 404
#     4  10  22  44  68  88 124 180 216 264 340 412
#     4  10  20  42  72  88 122 172 220 270 334 412
#     4  11  20  43  65  89 131 179 217 261 340 402
#     4  11  24  44  68  99 128 171 225 278 346 406
#     4  12  24  42  67 101 134 170 226 293 327 387
#
# _framework density 19.464358000000001
#
# number of rings (size 3 to 8) (size 9 to 14) (size 15 to 20)
#    0.000    1.000    4.167    4.000    1.167    1.333 
#    7.500    1.667    0.000    0.000    0.000    0.000 
#    0.000    0.000    0.000    0.000    0.000    0.000 
#
# Total GULP energy -133632.091542 kJ/mol
# GULP energy per Si atom -5568.003814 kJ/mol
# Density = 1.942006 g / cm^3
# Si number density = 19.464358 Si / 1000 Ang^3
#
#
#
# Elastic Constant Matrix: (Units=GPa)
#
#
# Indices 1 2 3 4 5 6 
#
# 1 137.0774 28.0519 45.4944 0.0000 0.0000 0.0000
# 2 28.0519 76.8266 14.7368 0.0000 0.0000 0.0000
# 3 45.4944 14.7368 104.6983 0.0000 0.0000 0.0000
# 4 0.0000 0.0000 0.0000 28.4715 0.0000 0.0000
# 5 0.0000 0.0000 0.0000 0.0000 34.6940 0.0000
# 6 0.0000 0.0000 0.0000 0.0000 0.0000 10.3717
#
#
#
# Elastic Compliance Matrix: (Units=1/GPa)
#
#
# Indices 1 2 3 4 5 6 
#
# 1 0.009006 -0.002608 -0.003546 0.000000 0.000000 0.000000
# 2 -0.002608 0.014133 -0.000856 0.000000 0.000000 0.000000
# 3 -0.003546 -0.000856 0.011213 0.000000 0.000000 0.000000
# 4 0.000000 0.000000 0.000000 0.035123 0.000000 0.000000
# 5 0.000000 0.000000 0.000000 0.000000 0.028823 0.000000
# 6 0.000000 0.000000 0.000000 0.000000 0.000000 0.096416
#
#
# Mechanical properties :
#
#
# Convention : Reuss Voigt Hill
#
# Bulk Modulus (GPa) = 49.18648 55.01871 52.10260
# Shear Modulus (GPa) = 23.20067 30.06206 26.63136
#
# Velocity S-wave (km/s) = 3.45622 3.93423 3.70295
# Velocity P-wave (km/s) = 6.42278 6.99752 6.71630
#
# Compressibility (1/GPa) = 0.02033079
#
# Stress axis : x y z
#
# Youngs Moduli (GPa) = 111.03944 70.75736 89.18502
#
# Poissons Ratio (x) = 0.18454 0.31627
# Poissons Ratio (y) = 0.28960 0.07634
# Poissons Ratio (z) = 0.39377 0.06057
#
# Static dielectric constant tensor:
#      x y z
#    x 1.700200 0.000000 0.000000 
#    y 0.000000 1.697030 0.000000 
#    z 0.000000 0.000000 1.671400 
# 
# From -- ./inp_files/11495.got.cif
#   From: 2010.05.17/outbox.cif.g08.bks.cpg/sg20_6_cif.got.tgz:11495.got - 2010.06.03 22:52:26.
