data_PCOD9318690
_publ_section_title
;
Structure prediction by ZEFSAII (Michael W. Deem and Ramdas Pophale) SiO2 
 PCOD9318690
Probable space group: C 2 2 21
;
_chemical_formula_sum "Si O2"
_cell_formula_units_Z 36
_cell_length_a 9.709205
_cell_length_b 14.692805
_cell_length_c 11.236973
_cell_angle_alpha 90.000000
_cell_angle_beta 90.000000
_cell_angle_gamma 90.000000
_cell_volume 1603.015505
_symmetry_space_group_name_H-M "C 2 2 21"
_symmetry_group_IT_number 20
_symmetry_cell_setting 'orthorhombic'
loop_
_space_group_symop_operation_xyz
x,y,z
-x,-y,1/2+z
x,-y,-z
-x,y,1/2-z
1/2+x,1/2+y,z
1/2-x,1/2-y,1/2+z
1/2+x,1/2-y,-z
1/2-x,1/2+y,1/2-z
loop_
_atom_site_type_symbol
_atom_site_label
_atom_site_fract_x
_atom_site_fract_y
_atom_site_fract_z
Si Si1 0.127504 0.370454 0.680334
Si Si2 0.681696 0.000000 0.000000
Si Si3 0.996769 0.332159 0.432876
Si Si4 0.225752 0.698639 0.766182
Si Si5 0.659807 0.497421 0.729383
O O1 0.069112 0.326174 0.560027
O O2 0.182410 0.286006 0.757783
O O3 0.246115 0.446350 0.672599
O O4 0.000000 0.414280 0.750000
O O5 0.780499 0.961083 0.896959
O O6 0.579154 0.070668 0.938356
O O7 0.115638 0.320887 0.336404
O O8 0.866261 0.274888 0.383440
O O9 0.313189 0.606040 0.777088
O O10 0.500000 0.478441 0.750000
#
# Coordination Sequence:
#
# PCOD9318690 Si02
#       5
#     8   4   8   8   8
#     4  12  25  43  71 100 134 180 228 278 345 407
#     4  10  20  44  70  96 140 180 224 284 342 412
#     4  10  22  42  70  97 135 176 228 279 338 410
#     4  10  25  43  68 100 136 179 229 278 346 401
#     4  11  25  43  66 104 136 174 227 281 343 400
#
# _framework density 22.457674000000001
#
# number of rings (size 3 to 8) (size 9 to 14) (size 15 to 20)
#    0.000    1.333    2.222    2.000    9.333    1.778 
#    0.000    0.000    0.000    0.000    0.000    0.000 
#    0.000    0.000    0.000    0.000    0.000    0.000 
#
# Total GULP energy -100441.721753 kJ/mol
# GULP energy per Si atom -5580.095653 kJ/mol
# Density = 2.240656 g / cm^3
# Si number density = 22.457674 Si / 1000 Ang^3
#
#
#
# Elastic Constant Matrix: (Units=GPa)
#
#
# Indices 1 2 3 4 5 6 
#
# 1 173.8140 42.0079 45.2792 0.0000 0.0000 0.0000
# 2 42.0079 79.3855 4.2883 0.0000 0.0000 0.0000
# 3 45.2792 4.2883 82.7448 0.0000 0.0000 0.0000
# 4 0.0000 0.0000 0.0000 20.8813 0.0000 0.0000
# 5 0.0000 0.0000 0.0000 0.0000 38.5856 0.0000
# 6 0.0000 0.0000 0.0000 0.0000 0.0000 26.9902
#
#
#
# Elastic Compliance Matrix: (Units=1/GPa)
#
#
# Indices 1 2 3 4 5 6 
#
# 1 0.007742 -0.003879 -0.004036 0.000000 0.000000 0.000000
# 2 -0.003879 0.014575 0.001367 0.000000 0.000000 0.000000
# 3 -0.004036 0.001367 0.014223 0.000000 0.000000 0.000000
# 4 0.000000 0.000000 0.000000 0.047890 0.000000 0.000000
# 5 0.000000 0.000000 0.000000 0.000000 0.025916 0.000000
# 6 0.000000 0.000000 0.000000 0.000000 0.000000 0.037050
#
#
# Mechanical properties :
#
#
# Convention : Reuss Voigt Hill
#
# Bulk Modulus (GPa) = 42.65139 57.67723 50.16431
# Shear Modulus (GPa) = 29.70774 33.58268 31.64521
#
# Velocity S-wave (km/s) = 3.64102 3.87121 3.75788
# Velocity P-wave (km/s) = 6.05881 6.76166 6.41986
#
# Compressibility (1/GPa) = 0.02344589
#
# Stress axis : x y z
#
# Youngs Moduli (GPa) = 129.16600 68.60867 70.30974
#
# Poissons Ratio (x) = 0.26612 0.28374
# Poissons Ratio (y) = 0.50101 -0.09612
# Poissons Ratio (z) = 0.52125 -0.09380
#
# Static dielectric constant tensor:
#      x y z
#    x 1.844550 0.000000 0.000000 
#    y 0.000000 1.810090 0.000000 
#    z 0.000000 0.000000 1.946470 
# 
# From -- ./inp_files/18463.got.cif
#   From: 2010.05.17/outbox.cif.g08.bks.cpg/sg20_10_cif.got.tgz:18463.got - 2010.06.03 22:52:26.
