data_PCOD9318822
_publ_section_title
;
Structure prediction by ZEFSAII (Michael W. Deem and Ramdas Pophale) SiO2 
 PCOD9318822
Probable space group: C 2 2 21
;
_chemical_formula_sum "Si O2"
_cell_formula_units_Z 44
_cell_length_a 13.048482
_cell_length_b 14.114546
_cell_length_c 13.245385
_cell_angle_alpha 90.000000
_cell_angle_beta 90.000000
_cell_angle_gamma 90.000000
_cell_volume 2439.447582
_symmetry_space_group_name_H-M "C 2 2 21"
_symmetry_group_IT_number 20
_symmetry_cell_setting 'orthorhombic'
loop_
_space_group_symop_operation_xyz
x,y,z
-x,-y,1/2+z
x,-y,-z
-x,y,1/2-z
1/2+x,1/2+y,z
1/2-x,1/2-y,1/2+z
1/2+x,1/2-y,-z
1/2-x,1/2+y,1/2-z
loop_
_atom_site_type_symbol
_atom_site_label
_atom_site_fract_x
_atom_site_fract_y
_atom_site_fract_z
Si Si1 0.726202 0.500000 0.500000
Si Si2 0.880799 0.501409 0.134508
Si Si3 0.699179 0.155977 0.502823
Si Si4 0.881428 0.796659 0.346709
Si Si5 0.384015 0.662141 0.879672
Si Si6 0.893954 0.574020 0.353400
O O1 0.658528 0.430613 0.433119
O O2 0.803315 0.560115 0.431362
O O3 0.868267 0.396704 0.089517
O O4 0.871144 0.512437 0.253862
O O5 0.994003 0.541724 0.109800
O O6 0.799269 0.572355 0.081483
O O7 0.802530 0.182882 0.562626
O O8 0.652731 0.246921 0.445609
O O9 0.846150 0.833533 0.236745
O O10 0.898063 0.684735 0.329104
O O11 0.992902 0.837363 0.373526
#
# Coordination Sequence:
#
# PCOD9318822 Si02
#       6
#     4   8   8   8   8   8
#     4  12  24  36  62  90 122 156 206 244 294 342
#     4  10  21  36  61  90 118 151 200 245 292 350
#     4  11  20  36  62  87 112 150 202 242 287 348
#     4  11  22  41  64  82 122 160 195 240 304 356
#     4  11  23  41  59  89 121 160 196 242 297 364
#     4  11  20  38  62  89 119 158 197 248 298 345
#
# _framework density 18.036871000000001
#
# number of rings (size 3 to 8) (size 9 to 14) (size 15 to 20)
#    0.000    1.091    5.455    3.273    0.000    1.455 
#    0.000    0.000    0.000    6.545    0.000    0.000 
#    0.000    0.000    0.000    0.000    0.000    0.000 
#
# Total GULP energy -122697.736872 kJ/mol
# GULP energy per Si atom -5577.169858 kJ/mol
# Density = 1.799582 g / cm^3
# Si number density = 18.036871 Si / 1000 Ang^3
#
#
#
# Elastic Constant Matrix: (Units=GPa)
#
#
# Indices 1 2 3 4 5 6 
#
# 1 80.1436 25.1224 49.6193 0.0000 0.0000 0.0000
# 2 25.1224 48.6017 7.5956 0.0000 0.0000 0.0000
# 3 49.6193 7.5956 95.8055 0.0000 0.0000 0.0000
# 4 0.0000 0.0000 0.0000 38.8842 0.0000 0.0000
# 5 0.0000 0.0000 0.0000 0.0000 31.8246 0.0000
# 6 0.0000 0.0000 0.0000 0.0000 0.0000 27.3512
#
#
#
# Elastic Compliance Matrix: (Units=1/GPa)
#
#
# Indices 1 2 3 4 5 6 
#
# 1 0.022177 -0.009790 -0.010710 0.000000 0.000000 0.000000
# 2 -0.009790 0.025155 0.003076 0.000000 0.000000 0.000000
# 3 -0.010710 0.003076 0.015741 0.000000 0.000000 0.000000
# 4 0.000000 0.000000 0.000000 0.025717 0.000000 0.000000
# 5 0.000000 0.000000 0.000000 0.000000 0.031422 0.000000
# 6 0.000000 0.000000 0.000000 0.000000 0.000000 0.036561
#
#
# Mechanical properties :
#
#
# Convention : Reuss Voigt Hill
#
# Bulk Modulus (GPa) = 35.42857 43.24726 39.33791
# Shear Modulus (GPa) = 24.87199 29.09292 26.98245
#
# Velocity S-wave (km/s) = 3.71745 4.02054 3.87196
# Velocity P-wave (km/s) = 6.17340 6.75145 6.46889
#
# Compressibility (1/GPa) = 0.02822581
#
# Stress axis : x y z
#
# Youngs Moduli (GPa) = 45.09167 39.75351 63.52952
#
# Poissons Ratio (x) = 0.38917 0.68038
# Poissons Ratio (y) = 0.44143 -0.19541
# Poissons Ratio (z) = 0.48292 -0.12228
#
# Static dielectric constant tensor:
#      x y z
#    x 1.607060 0.000000 0.000000 
#    y 0.000000 1.659870 0.000000 
#    z 0.000000 0.000000 1.643990 
# 
# From -- ./inp_files/19873.got.cif
#   From: 2010.05.17/outbox.cif.g08.bks.cpg/sg20_10_cif.got.tgz:19873.got - 2010.06.03 22:52:26.
