data_PCOD9318940
_publ_section_title
;
Structure prediction by ZEFSAII (Michael W. Deem and Ramdas Pophale) SiO2 
 PCOD9318940
Probable space group: C 2 2 21
;
_chemical_formula_sum "Si O2"
_cell_formula_units_Z 56
_cell_length_a 13.901549
_cell_length_b 5.673742
_cell_length_c 27.131737
_cell_angle_alpha 90.000000
_cell_angle_beta 90.000000
_cell_angle_gamma 90.000000
_cell_volume 2139.983264
_symmetry_space_group_name_H-M "C 2 2 21"
_symmetry_group_IT_number 20
_symmetry_cell_setting 'orthorhombic'
loop_
_space_group_symop_operation_xyz
x,y,z
-x,-y,1/2+z
x,-y,-z
-x,y,1/2-z
1/2+x,1/2+y,z
1/2-x,1/2-y,1/2+z
1/2+x,1/2-y,-z
1/2-x,1/2+y,1/2-z
loop_
_atom_site_type_symbol
_atom_site_label
_atom_site_fract_x
_atom_site_fract_y
_atom_site_fract_z
Si Si1 0.560640 0.500000 0.500000
Si Si2 0.765662 0.500000 0.000000
Si Si3 0.511965 0.014538 0.140260
Si Si4 0.660425 0.721830 0.682402
Si Si5 0.186834 0.033917 0.865992
Si Si6 0.898873 0.759793 0.449835
Si Si7 0.353917 0.774284 0.084434
Si Si8 0.828479 0.598559 0.289248
O O1 0.488707 0.292195 0.485326
O O2 0.620554 0.431435 0.547511
O O3 0.693003 0.714042 0.986136
O O4 0.833346 0.502580 0.952199
O O5 0.443614 0.237446 0.156978
O O6 0.571593 0.067789 0.090477
O O7 0.588596 0.949315 0.182521
O O8 0.434561 0.820678 0.124719
O O9 0.719312 0.493919 0.702231
O O10 0.653791 0.883443 0.731417
O O11 0.739016 0.829599 0.644952
O O12 0.114576 0.014435 0.911656
O O13 0.253683 0.247150 0.887770
O O14 0.153029 0.146914 0.815082
#
# Coordination Sequence:
#
# PCOD9318940 Si02
#       8
#     4   4   8   8   8   8   8   8
#     4  11  22  34  60  89 124 158 215 264 324 387
#     4   9  18  40  60  83 124 164 209 268 320 383
#     4  10  23  41  65  94 131 168 219 274 327 405
#     4  11  22  40  69  92 135 169 215 274 331 400
#     4   9  21  41  58  91 125 163 215 261 321 399
#     4   9  20  38  58  87 124 158 209 264 319 387
#     4  10  21  38  60  88 124 165 208 269 325 390
#     4  11  22  41  66  97 127 175 215 267 338 395
#
# _framework density 26.168429
#
# number of rings (size 3 to 8) (size 9 to 14) (size 15 to 20)
#    0.000    2.000    1.429    1.286    4.000    0.000 
#    0.000    8.571    0.000    0.000    0.000    0.000 
#    0.000    0.000    0.000    0.000    0.000    0.000 
#
# Total GULP energy -156039.097346 kJ/mol
# GULP energy per Si atom -5572.824905 kJ/mol
# Density = 2.610887 g / cm^3
# Si number density = 26.168429 Si / 1000 Ang^3
#
#
#
# Elastic Constant Matrix: (Units=GPa)
#
#
# Indices 1 2 3 4 5 6 
#
# 1 120.9024 26.1090 2.3066 0.0000 0.0000 0.0000
# 2 26.1090 37.7797 19.7075 0.0000 0.0000 0.0000
# 3 2.3066 19.7075 104.5775 0.0000 0.0000 0.0000
# 4 0.0000 0.0000 0.0000 27.3813 0.0000 0.0000
# 5 0.0000 0.0000 0.0000 0.0000 51.0189 0.0000
# 6 0.0000 0.0000 0.0000 0.0000 0.0000 20.6835
#
#
#
# Elastic Compliance Matrix: (Units=1/GPa)
#
#
# Indices 1 2 3 4 5 6 
#
# 1 0.009852 -0.007425 0.001182 0.000000 0.000000 0.000000
# 2 -0.007425 0.034951 -0.006423 0.000000 0.000000 0.000000
# 3 0.001182 -0.006423 0.010747 0.000000 0.000000 0.000000
# 4 0.000000 0.000000 0.000000 0.036521 0.000000 0.000000
# 5 0.000000 0.000000 0.000000 0.000000 0.019601 0.000000
# 6 0.000000 0.000000 0.000000 0.000000 0.000000 0.048348
#
#
# Mechanical properties :
#
#
# Convention : Reuss Voigt Hill
#
# Bulk Modulus (GPa) = 33.09307 39.94510 36.51909
# Shear Modulus (GPa) = 25.58543 34.15916 29.87230
#
# Velocity S-wave (km/s) = 3.13025 3.61689 3.38233
# Velocity P-wave (km/s) = 5.07329 5.72191 5.40733
#
# Compressibility (1/GPa) = 0.03021780
#
# Stress axis : x y z
#
# Youngs Moduli (GPa) = 101.50158 28.61146 93.05292
#
# Poissons Ratio (x) = 0.21245 -0.10999
# Poissons Ratio (y) = 0.75367 0.59765
# Poissons Ratio (z) = -0.11997 0.18376
#
# Static dielectric constant tensor:
#      x y z
#    x 2.115860 0.000000 0.000000 
#    y 0.000000 2.206680 0.000000 
#    z 0.000000 0.000000 2.081060 
# 
# From -- ./inp_files/31312.got.cif
#   From: 2010.05.17/outbox.cif.g08.bks.cpg/sg20_16_cif.got.tgz:31312.got - 2010.06.03 22:52:26.
