data_PCOD9318354
_publ_section_title
;
Structure prediction by ZEFSAII (Michael W. Deem and Ramdas Pophale) SiO2 
 PCOD9318354
Probable space group: C 2 2 21
;
_chemical_formula_sum "Si O2"
_cell_formula_units_Z 56
_cell_length_a 5.488840
_cell_length_b 29.554993
_cell_length_c 14.192369
_cell_angle_alpha 90.000000
_cell_angle_beta 90.000000
_cell_angle_gamma 90.000000
_cell_volume 2302.323394
_symmetry_space_group_name_H-M "C 2 2 21"
_symmetry_group_IT_number 20
_symmetry_cell_setting 'orthorhombic'
loop_
_space_group_symop_operation_xyz
x,y,z
-x,-y,1/2+z
x,-y,-z
-x,y,1/2-z
1/2+x,1/2+y,z
1/2-x,1/2-y,1/2+z
1/2+x,1/2-y,-z
1/2-x,1/2+y,1/2-z
loop_
_atom_site_type_symbol
_atom_site_label
_atom_site_fract_x
_atom_site_fract_y
_atom_site_fract_z
Si Si1 0.574773 0.599571 0.583584
Si Si2 0.811164 0.453219 0.006278
Si Si3 0.758296 0.322930 0.652382
Si Si4 0.813718 0.518560 0.665566
Si Si5 0.748884 0.688199 0.688651
Si Si6 0.759604 0.212844 0.365260
Si Si7 0.808625 0.421898 0.619937
O O1 0.293487 0.590634 0.559638
O O2 0.627331 0.559166 0.656744
O O3 0.684042 0.644639 0.626325
O O4 0.688873 0.589625 0.480801
O O5 0.022577 0.472476 0.073126
O O6 0.650472 0.500000 0.000000
O O7 0.912977 0.434946 0.907220
O O8 0.748362 0.296964 0.752108
O O9 0.505725 0.311390 0.600331
O O10 0.778298 0.375937 0.675945
O O11 0.003590 0.307281 0.599579
O O12 0.707604 0.468039 0.663092
O O13 0.000000 0.522829 0.750000
O O14 0.500000 0.695054 0.750000
O O15 0.778886 0.733456 0.626693
O O16 0.000000 0.682701 0.750000
#
# Coordination Sequence:
#
# PCOD9318354 Si02
#       7
#     8   8   8   8   8   8   8
#     4  11  24  39  63  91 134 174 224 274 339 407
#     4   9  20  41  60  87 135 178 213 274 331 401
#     4  10  20  39  67  93 127 169 216 269 334 393
#     4  10  22  40  62  94 130 167 228 277 332 401
#     4  12  24  43  71  98 128 177 224 283 344 397
#     4  10  20  42  65  95 129 164 218 283 332 380
#     4  10  23  40  62  93 132 178 219 271 346 409
#
# _framework density 24.323256000000001
#
# number of rings (size 3 to 8) (size 9 to 14) (size 15 to 20)
#    0.000    1.714    2.857    2.571   10.000    0.000 
#    0.000    1.429    0.000    0.000    0.000    0.000 
#    0.000    0.000    0.000    0.000    0.000    0.000 
#
# Total GULP energy -156269.089038 kJ/mol
# GULP energy per Si atom -5581.038894 kJ/mol
# Density = 2.426790 g / cm^3
# Si number density = 24.323256 Si / 1000 Ang^3
#
#
#
# Elastic Constant Matrix: (Units=GPa)
#
#
# Indices 1 2 3 4 5 6 
#
# 1 129.0693 23.2475 1.9078 0.0000 0.0000 0.0000
# 2 23.2475 163.8667 -1.0390 0.0000 0.0000 0.0000
# 3 1.9078 -1.0390 40.3087 0.0000 0.0000 0.0000
# 4 0.0000 0.0000 0.0000 9.8814 0.0000 0.0000
# 5 0.0000 0.0000 0.0000 0.0000 29.1372 0.0000
# 6 0.0000 0.0000 0.0000 0.0000 0.0000 47.7479
#
#
#
# Elastic Compliance Matrix: (Units=1/GPa)
#
#
# Indices 1 2 3 4 5 6 
#
# 1 0.007958 -0.001132 -0.000406 0.000000 0.000000 0.000000
# 2 -0.001132 0.006264 0.000215 0.000000 0.000000 0.000000
# 3 -0.000406 0.000215 0.024833 0.000000 0.000000 0.000000
# 4 0.000000 0.000000 0.000000 0.101200 0.000000 0.000000
# 5 0.000000 0.000000 0.000000 0.000000 0.034320 0.000000
# 6 0.000000 0.000000 0.000000 0.000000 0.000000 0.020943
#
#
# Mechanical properties :
#
#
# Convention : Reuss Voigt Hill
#
# Bulk Modulus (GPa) = 27.46445 42.38638 34.92542
# Shear Modulus (GPa) = 23.77546 37.96185 30.86865
#
# Velocity S-wave (km/s) = 3.12986 3.95488 3.56631
# Velocity P-wave (km/s) = 4.93734 6.19023 5.59894
#
# Compressibility (1/GPa) = 0.03641071
#
# Stress axis : x y z
#
# Youngs Moduli (GPa) = 125.66634 159.63194 40.26853
#
# Poissons Ratio (x) = 0.18062 0.01634
# Poissons Ratio (y) = 0.14219 -0.00866
# Poissons Ratio (z) = 0.05100 -0.03432
#
# Static dielectric constant tensor:
#      x y z
#    x 2.117300 0.000000 0.000000 
#    y 0.000000 1.981830 0.000000 
#    z 0.000000 0.000000 1.867200 
# 
# From -- ./inp_files/17968.got.cif
#   From: 2010.05.17/outbox.cif.g08.bks.cpg/sg20_9_cif.got.tgz:17968.got - 2010.06.03 22:52:26.
