data_PCOD9318755
_publ_section_title
;
Structure prediction by ZEFSAII (Michael W. Deem and Ramdas Pophale) SiO2 
 PCOD9318755
Probable space group: C 2 2 21
;
_chemical_formula_sum "Si O2"
_cell_formula_units_Z 48
_cell_length_a 20.856495
_cell_length_b 5.259041
_cell_length_c 17.772225
_cell_angle_alpha 90.000000
_cell_angle_beta 90.000000
_cell_angle_gamma 90.000000
_cell_volume 1949.349384
_symmetry_space_group_name_H-M "C 2 2 21"
_symmetry_group_IT_number 20
_symmetry_cell_setting 'orthorhombic'
loop_
_space_group_symop_operation_xyz
x,y,z
-x,-y,1/2+z
x,-y,-z
-x,y,1/2-z
1/2+x,1/2+y,z
1/2-x,1/2-y,1/2+z
1/2+x,1/2-y,-z
1/2-x,1/2+y,1/2-z
loop_
_atom_site_type_symbol
_atom_site_label
_atom_site_fract_x
_atom_site_fract_y
_atom_site_fract_z
Si Si1 0.723234 0.299436 0.666294
Si Si2 0.188390 0.801062 0.820591
Si Si3 0.563342 0.429470 0.910284
Si Si4 0.400963 0.246337 0.047821
Si Si5 0.000712 0.423700 0.840510
Si Si6 0.734750 0.251480 0.504511
O O1 0.767849 0.051903 0.674499
O O2 0.670950 0.297834 0.731829
O O3 0.697452 0.271612 0.582923
O O4 0.768712 0.548396 0.668311
O O5 0.131121 0.828670 0.878168
O O6 0.549052 0.697478 0.867338
O O7 0.517431 0.194167 0.881695
O O8 0.561725 0.500000 0.000000
O O9 0.434679 0.198778 0.127127
O O10 0.418371 0.500000 0.000000
O O11 0.323653 0.240833 0.053153
O O12 0.420093 0.000000 0.000000
O O13 0.000000 0.454300 0.750000
O O14 0.776187 0.500000 0.500000
O O15 0.774153 0.000000 0.500000
#
# Coordination Sequence:
#
# PCOD9318755 Si02
#       6
#     8   8   8   8   8   8
#     4  10  21  41  63  93 129 167 217 277 332 387
#     4  10  23  41  65  92 130 174 218 270 329 402
#     4  12  26  45  68  97 135 183 231 279 345 422
#     4  10  21  39  62  91 127 164 207 270 334 390
#     4  12  26  44  69  98 133 177 229 286 343 408
#     4  10  21  34  58  91 122 159 203 262 332 389
#
# _framework density 24.623602999999999
#
# number of rings (size 3 to 8) (size 9 to 14) (size 15 to 20)
#    0.000    1.333    0.000    5.500    0.000    7.333 
#    0.000    0.000    0.000    0.000    0.000    0.000 
#    0.000    0.000    0.000    0.000    0.000    0.000 
#
# Total GULP energy -133867.163737 kJ/mol
# GULP energy per Si atom -5577.798489 kJ/mol
# Density = 2.456756 g / cm^3
# Si number density = 24.623603 Si / 1000 Ang^3
#
#
#
# Elastic Constant Matrix: (Units=GPa)
#
#
# Indices 1 2 3 4 5 6 
#
# 1 26.3727 22.0399 -1.8076 0.0000 0.0000 0.0000
# 2 22.0399 250.7823 66.8982 0.0000 0.0000 0.0000
# 3 -1.8076 66.8982 105.1281 0.0000 0.0000 0.0000
# 4 0.0000 0.0000 0.0000 36.0354 0.0000 0.0000
# 5 0.0000 0.0000 0.0000 0.0000 34.3864 0.0000
# 6 0.0000 0.0000 0.0000 0.0000 0.0000 29.5484
#
#
#
# Elastic Compliance Matrix: (Units=1/GPa)
#
#
# Indices 1 2 3 4 5 6 
#
# 1 0.042090 -0.004688 0.003707 0.000000 0.000000 0.000000
# 2 -0.004688 0.005325 -0.003469 0.000000 0.000000 0.000000
# 3 0.003707 -0.003469 0.011784 0.000000 0.000000 0.000000
# 4 0.000000 0.000000 0.000000 0.027750 0.000000 0.000000
# 5 0.000000 0.000000 0.000000 0.000000 0.029081 0.000000
# 6 0.000000 0.000000 0.000000 0.000000 0.000000 0.033843
#
#
# Mechanical properties :
#
#
# Convention : Reuss Voigt Hill
#
# Bulk Modulus (GPa) = 19.88153 61.83824 40.85989
# Shear Modulus (GPa) = 28.48368 39.67088 34.07728
#
# Velocity S-wave (km/s) = 3.40481 4.01819 3.72415
# Velocity P-wave (km/s) = 4.85270 6.83343 5.92640
#
# Compressibility (1/GPa) = 0.05029794
#
# Stress axis : x y z
#
# Youngs Moduli (GPa) = 23.75870 187.79582 84.86436
#
# Poissons Ratio (x) = 0.88036 -0.31458
# Poissons Ratio (y) = 0.11138 0.29440
# Poissons Ratio (z) = -0.08807 0.65149
#
# Static dielectric constant tensor:
#      x y z
#    x 1.935320 0.000000 0.000000 
#    y 0.000000 2.106050 0.000000 
#    z 0.000000 0.000000 2.079730 
# 
# From -- ./inp_files/22163.got.cif
#   From: 2010.05.17/outbox.cif.g08.bks.cpg/sg20_12_cif.got.tgz:22163.got - 2010.06.03 22:52:26.
