data_PCOD9318201
_publ_section_title
;
Structure prediction by ZEFSAII (Michael W. Deem and Ramdas Pophale) SiO2 
 PCOD9318201
Probable space group: C 2 2 21
;
_chemical_formula_sum "Si O2"
_cell_formula_units_Z 48
_cell_length_a 6.895125
_cell_length_b 15.155898
_cell_length_c 21.220167
_cell_angle_alpha 90.000000
_cell_angle_beta 90.000000
_cell_angle_gamma 90.000000
_cell_volume 2217.545885
_symmetry_space_group_name_H-M "C 2 2 21"
_symmetry_group_IT_number 20
_symmetry_cell_setting 'orthorhombic'
loop_
_space_group_symop_operation_xyz
x,y,z
-x,-y,1/2+z
x,-y,-z
-x,y,1/2-z
1/2+x,1/2+y,z
1/2-x,1/2-y,1/2+z
1/2+x,1/2-y,-z
1/2-x,1/2+y,1/2-z
loop_
_atom_site_type_symbol
_atom_site_label
_atom_site_fract_x
_atom_site_fract_y
_atom_site_fract_z
Si Si1 0.211171 0.796796 0.915805
Si Si2 0.330967 0.437355 0.804753
Si Si3 0.150941 0.753488 0.663128
Si Si4 0.859392 0.992441 0.602919
Si Si5 0.725656 0.410165 0.230940
Si Si6 0.079427 0.818066 0.054554
O O1 0.255873 0.902779 0.913837
O O2 0.385733 0.726906 0.917528
O O3 0.067474 0.776329 0.857858
O O4 0.104231 0.787017 0.983077
O O5 0.500000 0.429055 0.750000
O O6 0.243088 0.341833 0.812776
O O7 0.432843 0.459311 0.870936
O O8 0.205851 0.521042 0.783758
O O9 0.173949 0.680563 0.716146
O O10 0.253615 0.718177 0.600225
O O11 0.768483 0.037379 0.664940
O O12 0.901152 0.075033 0.557050
O O13 0.500000 0.391138 0.250000
#
# Coordination Sequence:
#
# PCOD9318201 Si02
#       6
#     8   8   8   8   8   8
#     4  11  21  38  63  89 123 166 208 252 313 371
#     4   8  16  36  59  85 118 154 199 245 307 364
#     4  10  20  38  64  88 124 160 202 258 306 368
#     4   8  18  36  60  82 120 164 192 252 312 350
#     4   8  16  36  59  85 118 154 199 245 307 364
#     4  11  21  38  63  89 123 166 208 252 313 371
#
# _framework density 21.645548999999999
#
# number of rings (size 3 to 8) (size 9 to 14) (size 15 to 20)
#    0.000    3.000    1.667    0.500    0.000    0.000 
#   27.000    6.667    0.000    2.000    0.000    0.000 
#    0.000    0.000    0.000    0.000    0.000    0.000 
#
# Total GULP energy -133686.765194 kJ/mol
# GULP energy per Si atom -5570.281883 kJ/mol
# Density = 2.159628 g / cm^3
# Si number density = 21.645549 Si / 1000 Ang^3
#
#
#
# Elastic Constant Matrix: (Units=GPa)
#
#
# Indices 1 2 3 4 5 6 
#
# 1 44.2882 21.8648 4.3260 0.0000 0.0000 0.0000
# 2 21.8648 161.9123 13.9926 0.0000 0.0000 0.0000
# 3 4.3260 13.9926 44.6543 0.0000 0.0000 0.0000
# 4 0.0000 0.0000 0.0000 34.7071 0.0000 0.0000
# 5 0.0000 0.0000 0.0000 0.0000 22.2908 0.0000
# 6 0.0000 0.0000 0.0000 0.0000 0.0000 20.5853
#
#
#
# Elastic Compliance Matrix: (Units=1/GPa)
#
#
# Indices 1 2 3 4 5 6 
#
# 1 0.024272 -0.003160 -0.001361 0.000000 0.000000 0.000000
# 2 -0.003160 0.006760 -0.001812 0.000000 0.000000 0.000000
# 3 -0.001361 -0.001812 0.023094 0.000000 0.000000 0.000000
# 4 0.000000 0.000000 0.000000 0.028813 0.000000 0.000000
# 5 0.000000 0.000000 0.000000 0.000000 0.044862 0.000000
# 6 0.000000 0.000000 0.000000 0.000000 0.000000 0.048578
#
#
# Mechanical properties :
#
#
# Convention : Reuss Voigt Hill
#
# Bulk Modulus (GPa) = 24.12006 36.80241 30.46123
# Shear Modulus (GPa) = 24.64694 29.56139 27.10416
#
# Velocity S-wave (km/s) = 3.37807 3.69955 3.54246
# Velocity P-wave (km/s) = 5.13639 5.94038 5.55295
#
# Compressibility (1/GPa) = 0.04145927
#
# Stress axis : x y z
#
# Youngs Moduli (GPa) = 41.19889 147.93937 43.30148
#
# Poissons Ratio (x) = 0.46751 0.05894
# Poissons Ratio (y) = 0.13019 0.07846
# Poissons Ratio (z) = 0.05608 0.26806
#
# Static dielectric constant tensor:
#      x y z
#    x 1.837320 0.000000 0.000000 
#    y 0.000000 1.857150 0.000000 
#    z 0.000000 0.000000 1.797010 
# 
# From -- ./inp_files/28784.got.cif
#   From: 2010.05.17/outbox.cif.g08.bks.cpg/sg20_15_cif.got.tgz:28784.got - 2010.06.03 22:52:26.
