data_PCOD9318926
_publ_section_title
;
Structure prediction by ZEFSAII (Michael W. Deem and Ramdas Pophale) SiO2 
 PCOD9318926
Probable space group: C 2 2 21
;
_chemical_formula_sum "Si O2"
_cell_formula_units_Z 40
_cell_length_a 17.503653
_cell_length_b 8.987361
_cell_length_c 10.040319
_cell_angle_alpha 90.000000
_cell_angle_beta 90.000000
_cell_angle_gamma 90.000000
_cell_volume 1579.459132
_symmetry_space_group_name_H-M "C 2 2 21"
_symmetry_group_IT_number 20
_symmetry_cell_setting 'orthorhombic'
loop_
_space_group_symop_operation_xyz
x,y,z
-x,-y,1/2+z
x,-y,-z
-x,y,1/2-z
1/2+x,1/2+y,z
1/2-x,1/2-y,1/2+z
1/2+x,1/2-y,-z
1/2-x,1/2+y,1/2-z
loop_
_atom_site_type_symbol
_atom_site_label
_atom_site_fract_x
_atom_site_fract_y
_atom_site_fract_z
Si Si1 0.957751 0.773400 0.124115
Si Si2 0.439148 0.295926 0.634749
Si Si3 0.820556 0.780688 0.988435
Si Si4 0.719092 0.389355 0.802132
Si Si5 0.876539 0.461355 0.195175
O O1 0.924189 0.612622 0.177663
O O2 0.000000 0.839915 0.250000
O O3 0.882306 0.863863 0.079511
O O4 0.019355 0.779736 0.005472
O O5 0.500000 0.330236 0.750000
O O6 0.366887 0.406428 0.645104
O O7 0.405844 0.134327 0.680727
O O8 0.787420 0.844223 0.852805
O O9 0.877027 0.649639 0.931074
O O10 0.756425 0.723136 0.088948
O O11 0.785551 0.510934 0.798775
#
# Coordination Sequence:
#
# PCOD9318926 Si02
#       5
#     8   8   8   8   8
#     4  11  22  34  58  89 128 157 196 259 308 349
#     4  11  22  39  61  95 121 155 212 256 303 360
#     4  10  22  40  54  94 124 163 206 246 305 382
#     4  10  21  38  58  85 127 165 197 250 309 366
#     4  10  22  38  63  88 131 160 201 253 315 370
#
# _framework density 25.325125
#
# number of rings (size 3 to 8) (size 9 to 14) (size 15 to 20)
#    0.000    1.600    4.000    3.000    8.400    0.000 
#    3.600    0.000    0.000    0.000   41.600    0.000 
#    0.000    0.000    0.000    0.000    0.000    0.000 
#
# Total GULP energy -111691.847646 kJ/mol
# GULP energy per Si atom -5584.592382 kJ/mol
# Density = 2.526748 g / cm^3
# Si number density = 25.325125 Si / 1000 Ang^3
#
#
#
# Elastic Constant Matrix: (Units=GPa)
#
#
# Indices 1 2 3 4 5 6 
#
# 1 204.7154 25.0191 79.0244 0.0000 0.0000 0.0000
# 2 25.0191 70.9605 17.3430 0.0000 0.0000 0.0000
# 3 79.0244 17.3430 188.8362 0.0000 0.0000 0.0000
# 4 0.0000 0.0000 0.0000 18.8606 0.0000 0.0000
# 5 0.0000 0.0000 0.0000 0.0000 63.7971 0.0000
# 6 0.0000 0.0000 0.0000 0.0000 0.0000 32.1257
#
#
#
# Elastic Compliance Matrix: (Units=1/GPa)
#
#
# Indices 1 2 3 4 5 6 
#
# 1 0.005985 -0.001532 -0.002364 0.000000 0.000000 0.000000
# 2 -0.001532 0.014808 -0.000719 0.000000 0.000000 0.000000
# 3 -0.002364 -0.000719 0.006351 0.000000 0.000000 0.000000
# 4 0.000000 0.000000 0.000000 0.053021 0.000000 0.000000
# 5 0.000000 0.000000 0.000000 0.000000 0.015675 0.000000
# 6 0.000000 0.000000 0.000000 0.000000 0.000000 0.031128
#
#
# Mechanical properties :
#
#
# Convention : Reuss Voigt Hill
#
# Bulk Modulus (GPa) = 55.82219 78.58726 67.20472
# Shear Modulus (GPa) = 35.16982 45.83173 40.50077
#
# Velocity S-wave (km/s) = 3.73061 4.25871 4.00338
# Velocity P-wave (km/s) = 6.37548 7.43511 6.92559
#
# Compressibility (1/GPa) = 0.01791402
#
# Stress axis : x y z
#
# Youngs Moduli (GPa) = 167.09744 67.52982 157.46134
#
# Poissons Ratio (x) = 0.10348 0.37219
# Poissons Ratio (y) = 0.25605 0.11318
# Poissons Ratio (z) = 0.39497 0.04854
#
# Static dielectric constant tensor:
#      x y z
#    x 2.001480 0.000000 0.000000 
#    y 0.000000 2.104860 0.000000 
#    z 0.000000 0.000000 2.019940 
# 
# From -- ./inp_files/9117.got.cif
#   From: 2010.05.17/outbox.cif.g08.bks.cpg/sg20_5_cif.got.tgz:9117.got - 2010.06.03 22:52:26.
