data_PCOD9318265
_publ_section_title
;
Structure prediction by ZEFSAII (Michael W. Deem and Ramdas Pophale) SiO2 
 PCOD9318265
Probable space group: C 2 2 21
;
_chemical_formula_sum "Si O2"
_cell_formula_units_Z 40
_cell_length_a 17.912472
_cell_length_b 8.115923
_cell_length_c 11.998077
_cell_angle_alpha 90.000000
_cell_angle_beta 90.000000
_cell_angle_gamma 90.000000
_cell_volume 1744.235363
_symmetry_space_group_name_H-M "C 2 2 21"
_symmetry_group_IT_number 20
_symmetry_cell_setting 'orthorhombic'
loop_
_space_group_symop_operation_xyz
x,y,z
-x,-y,1/2+z
x,-y,-z
-x,y,1/2-z
1/2+x,1/2+y,z
1/2-x,1/2-y,1/2+z
1/2+x,1/2-y,-z
1/2-x,1/2+y,1/2-z
loop_
_atom_site_type_symbol
_atom_site_label
_atom_site_fract_x
_atom_site_fract_y
_atom_site_fract_z
Si Si1 0.591812 0.674724 0.442382
Si Si2 0.500000 0.512453 0.250000
Si Si3 0.325588 0.972585 0.627650
Si Si4 0.772195 0.658341 0.834723
Si Si5 0.552689 0.748290 0.924947
Si Si6 0.833050 0.000000 0.500000
O O1 0.613079 0.500000 0.500000
O O2 0.552851 0.621505 0.326974
O O3 0.661290 0.789647 0.417509
O O4 0.527504 0.756738 0.517850
O O5 0.453959 0.388242 0.328420
O O6 0.281912 0.814276 0.673810
O O7 0.412112 0.916696 0.619324
O O8 0.301217 0.000000 0.500000
O O9 0.306092 0.110782 0.716094
O O10 0.720615 0.521371 0.893816
O O11 0.613330 0.660600 0.006382
#
# Coordination Sequence:
#
# PCOD9318265 Si02
#       6
#     8   4   8   8   8   4
#     4  10  22  41  70 108 135 191 241 295 347 451
#     4  10  20  38  74  96 138 192 236 280 366 432
#     4  11  28  47  71 106 147 191 237 308 367 437
#     4  11  27  43  76 102 148 183 248 296 371 424
#     4  10  22  45  70  98 145 184 242 289 361 430
#     4  10  22  46  68 104 136 190 228 302 362 422
#
# _framework density 22.932683999999998
#
# number of rings (size 3 to 8) (size 9 to 14) (size 15 to 20)
#    0.000    1.600    3.000    0.600   14.000    3.200 
#    5.400    0.000    0.000    0.000    0.000    0.000 
#    0.000    0.000    0.000    0.000    0.000    0.000 
#
# Total GULP energy -111860.202092 kJ/mol
# GULP energy per Si atom -5593.010105 kJ/mol
# Density = 2.288049 g / cm^3
# Si number density = 22.932684 Si / 1000 Ang^3
#
#
#
# Elastic Constant Matrix: (Units=GPa)
#
#
# Indices 1 2 3 4 5 6 
#
# 1 109.7885 22.1809 26.4003 0.0000 0.0000 0.0000
# 2 22.1809 45.5360 23.2448 0.0000 0.0000 0.0000
# 3 26.4003 23.2448 75.1066 0.0000 0.0000 0.0000
# 4 0.0000 0.0000 0.0000 34.3308 0.0000 0.0000
# 5 0.0000 0.0000 0.0000 0.0000 15.0642 0.0000
# 6 0.0000 0.0000 0.0000 0.0000 0.0000 37.4654
#
#
#
# Elastic Compliance Matrix: (Units=1/GPa)
#
#
# Indices 1 2 3 4 5 6 
#
# 1 0.010483 -0.003831 -0.002499 0.000000 0.000000 0.000000
# 2 -0.003831 0.027481 -0.007159 0.000000 0.000000 0.000000
# 3 -0.002499 -0.007159 0.016408 0.000000 0.000000 0.000000
# 4 0.000000 0.000000 0.000000 0.029128 0.000000 0.000000
# 5 0.000000 0.000000 0.000000 0.000000 0.066383 0.000000
# 6 0.000000 0.000000 0.000000 0.000000 0.000000 0.026691
#
#
# Mechanical properties :
#
#
# Convention : Reuss Voigt Hill
#
# Bulk Modulus (GPa) = 36.50246 41.56479 39.03363
# Shear Modulus (GPa) = 23.50905 27.94575 25.72740
#
# Velocity S-wave (km/s) = 3.20524 3.49463 3.35306
# Velocity P-wave (km/s) = 5.44517 5.86918 5.66115
#
# Compressibility (1/GPa) = 0.02739541
#
# Stress axis : x y z
#
# Youngs Moduli (GPa) = 95.38930 36.38903 60.94414
#
# Poissons Ratio (x) = 0.13939 0.15232
# Poissons Ratio (y) = 0.36540 0.43627
# Poissons Ratio (z) = 0.23842 0.26049
#
# Static dielectric constant tensor:
#      x y z
#    x 1.861710 0.000000 0.000000 
#    y 0.000000 1.887410 0.000000 
#    z 0.000000 0.000000 1.889900 
# 
# From -- ./inp_files/12766.got.cif
#   From: 2010.05.17/outbox.cif.g08.bks.cpg/sg20_7_cif.got.tgz:12766.got - 2010.06.03 22:52:26.
