data_PCOD9318875
_publ_section_title
;
Structure prediction by ZEFSAII (Michael W. Deem and Ramdas Pophale) SiO2 
 PCOD9318875
Probable space group: C 2 2 21
;
_chemical_formula_sum "Si O2"
_cell_formula_units_Z 40
_cell_length_a 12.229124
_cell_length_b 17.700326
_cell_length_c 9.615409
_cell_angle_alpha 90.000000
_cell_angle_beta 90.000000
_cell_angle_gamma 90.000000
_cell_volume 2081.346446
_symmetry_space_group_name_H-M "C 2 2 21"
_symmetry_group_IT_number 20
_symmetry_cell_setting 'orthorhombic'
loop_
_space_group_symop_operation_xyz
x,y,z
-x,-y,1/2+z
x,-y,-z
-x,y,1/2-z
1/2+x,1/2+y,z
1/2-x,1/2-y,1/2+z
1/2+x,1/2-y,-z
1/2-x,1/2+y,1/2-z
loop_
_atom_site_type_symbol
_atom_site_label
_atom_site_fract_x
_atom_site_fract_y
_atom_site_fract_z
Si Si1 0.171740 0.360941 0.238337
Si Si2 0.603283 0.298416 0.348642
Si Si3 0.909770 0.480631 0.846251
Si Si4 0.451878 0.279259 0.608315
Si Si5 0.281331 0.842856 0.940110
O O1 0.294459 0.354455 0.175632
O O2 0.127378 0.445622 0.259670
O O3 0.093298 0.305805 0.146920
O O4 0.179134 0.333798 0.399822
O O5 0.500000 0.311650 0.250000
O O6 0.546379 0.291674 0.497520
O O7 0.660459 0.216315 0.336341
O O8 0.000000 0.441237 0.750000
O O9 0.956193 0.500000 0.000000
O O10 0.810856 0.574663 0.115270
O O11 0.500000 0.310397 0.750000
O O12 0.345439 0.323845 0.559888
#
# Coordination Sequence:
#
# PCOD9318875 Si02
#       5
#     8   8   8   8   8
#     4  10  21  37  61  90 121 157 206 250 304 366
#     4  11  21  36  61  89 119 158 204 254 307 357
#     4  10  22  41  62  87 126 162 199 255 313 365
#     4  11  21  37  61  88 123 158 206 256 306 354
#     4  10  21  37  60  91 117 161 205 250 300 371
#
# _framework density 19.218328
#
# number of rings (size 3 to 8) (size 9 to 14) (size 15 to 20)
#    0.000    1.600    4.000    1.200    2.800    0.000 
#    3.600    1.000    0.000    0.000    0.000    0.000 
#    0.000    0.000    0.000    0.000    0.000    0.000 
#
# Total GULP energy -111420.731084 kJ/mol
# GULP energy per Si atom -5571.036554 kJ/mol
# Density = 1.917459 g / cm^3
# Si number density = 19.218328 Si / 1000 Ang^3
#
#
#
# Elastic Constant Matrix: (Units=GPa)
#
#
# Indices 1 2 3 4 5 6 
#
# 1 99.1292 22.6755 28.6897 0.0000 0.0000 0.0000
# 2 22.6755 52.8641 31.6000 0.0000 0.0000 0.0000
# 3 28.6897 31.6000 73.4011 0.0000 0.0000 0.0000
# 4 0.0000 0.0000 0.0000 19.3581 0.0000 0.0000
# 5 0.0000 0.0000 0.0000 0.0000 47.5312 0.0000
# 6 0.0000 0.0000 0.0000 0.0000 0.0000 29.3124
#
#
#
# Elastic Compliance Matrix: (Units=1/GPa)
#
#
# Indices 1 2 3 4 5 6 
#
# 1 0.011737 -0.003086 -0.003259 0.000000 0.000000 0.000000
# 2 -0.003086 0.026283 -0.010109 0.000000 0.000000 0.000000
# 3 -0.003259 -0.010109 0.019249 0.000000 0.000000 0.000000
# 4 0.000000 0.000000 0.000000 0.051658 0.000000 0.000000
# 5 0.000000 0.000000 0.000000 0.000000 0.021039 0.000000
# 6 0.000000 0.000000 0.000000 0.000000 0.000000 0.034115
#
#
# Mechanical properties :
#
#
# Convention : Reuss Voigt Hill
#
# Bulk Modulus (GPa) = 41.04856 43.48054 42.26455
# Shear Modulus (GPa) = 24.37719 28.73561 26.55640
#
# Velocity S-wave (km/s) = 3.56537 3.87100 3.72133
# Velocity P-wave (km/s) = 6.19311 6.53094 6.36427
#
# Compressibility (1/GPa) = 0.02436139
#
# Stress axis : x y z
#
# Youngs Moduli (GPa) = 85.20049 38.04754 51.94958
#
# Poissons Ratio (x) = 0.11743 0.16929
# Poissons Ratio (y) = 0.26297 0.52514
# Poissons Ratio (z) = 0.27765 0.38461
#
# Static dielectric constant tensor:
#      x y z
#    x 1.732260 0.000000 0.000000 
#    y 0.000000 1.695720 0.000000 
#    z 0.000000 0.000000 1.683350 
# 
# From -- ./inp_files/7212.got.cif
#   From: 2010.05.17/outbox.cif.g08.bks.cpg/sg20_4_cif.got.tgz:7212.got - 2010.06.03 22:52:26.
