data_PCOD9318477
_publ_section_title
;
Structure prediction by ZEFSAII (Michael W. Deem and Ramdas Pophale) SiO2 
 PCOD9318477
Probable space group: C 2 2 21
;
_chemical_formula_sum "Si O2"
_cell_formula_units_Z 60
_cell_length_a 27.991273
_cell_length_b 8.956738
_cell_length_c 11.144808
_cell_angle_alpha 90.000000
_cell_angle_beta 90.000000
_cell_angle_gamma 90.000000
_cell_volume 2794.120370
_symmetry_space_group_name_H-M "C 2 2 21"
_symmetry_group_IT_number 20
_symmetry_cell_setting 'orthorhombic'
loop_
_space_group_symop_operation_xyz
x,y,z
-x,-y,1/2+z
x,-y,-z
-x,y,1/2-z
1/2+x,1/2+y,z
1/2-x,1/2-y,1/2+z
1/2+x,1/2-y,-z
1/2-x,1/2+y,1/2-z
loop_
_atom_site_type_symbol
_atom_site_label
_atom_site_fract_x
_atom_site_fract_y
_atom_site_fract_z
Si Si1 0.834818 0.091896 0.612460
Si Si2 0.235963 0.325425 0.973312
Si Si3 0.347029 0.965607 0.864625
Si Si4 0.937939 0.395756 0.110456
Si Si5 0.247076 0.874998 0.788913
Si Si6 0.089658 0.807648 0.295744
Si Si7 0.975292 0.938649 0.882406
Si Si8 0.500000 0.107352 0.250000
O O1 0.813389 0.246335 0.563673
O O2 0.878304 0.115466 0.698281
O O3 0.851643 0.000000 0.500000
O O4 0.792222 0.997490 0.674237
O O5 0.264404 0.311661 0.844797
O O6 0.233859 0.500000 0.000000
O O7 0.250770 0.240481 0.097425
O O8 0.299598 0.950624 0.785013
O O9 0.374396 0.806015 0.861004
O O10 0.387678 0.083513 0.817920
O O11 0.329511 0.000000 0.000000
O O12 0.954410 0.227130 0.096819
O O13 0.984031 0.490192 0.150245
O O14 0.923055 0.500000 0.000000
O O15 0.046187 0.711727 0.238568
O O16 0.065807 0.936467 0.373263
O O17 0.000000 0.937821 0.750000
O O18 0.004033 0.000000 0.000000
#
# Coordination Sequence:
#
# PCOD9318477 Si02
#       8
#     8   8   8   8   8   8   8   4
#     4  10  23  46  65  98 144 179 226 290 354 420
#     4  11  23  42  70 101 137 185 238 285 350 430
#     4  10  20  40  69  97 136 182 230 287 353 412
#     4  10  22  43  66 102 139 182 237 289 347 427
#     4  11  23  46  70 100 143 185 229 295 357 424
#     4  11  23  44  67  99 141 178 239 293 349 417
#     4  12  25  46  75 106 140 183 236 296 360 422
#     4  10  20  42  68  92 136 184 226 294 340 420
#
# _framework density 21.473661
#
# number of rings (size 3 to 8) (size 9 to 14) (size 15 to 20)
#    0.000    1.333    2.667    4.400    0.000    0.533 
#   14.400    0.667    0.000    0.000    0.000    0.000 
#    0.000    0.000    0.000    0.000    0.000    0.000 
#
# Total GULP energy -167113.242904 kJ/mol
# GULP energy per Si atom -5570.441430 kJ/mol
# Density = 2.142479 g / cm^3
# Si number density = 21.473661 Si / 1000 Ang^3
#
#
#
# Elastic Constant Matrix: (Units=GPa)
#
#
# Indices 1 2 3 4 5 6 
#
# 1 78.3517 56.7599 35.0597 0.0000 0.0000 0.0000
# 2 56.7599 141.3827 55.4965 0.0000 0.0000 0.0000
# 3 35.0597 55.4965 133.1879 0.0000 0.0000 0.0000
# 4 0.0000 0.0000 0.0000 24.8729 0.0000 0.0000
# 5 0.0000 0.0000 0.0000 0.0000 -373.1240 0.0000
# 6 0.0000 0.0000 0.0000 0.0000 0.0000 -94.1989
#
#
#
# Elastic Compliance Matrix: (Units=1/GPa)
#
#
# Indices 1 2 3 4 5 6 
#
# 1 0.018485 -0.006589 -0.002121 0.000000 0.000000 0.000000
# 2 -0.006589 0.010804 -0.002768 0.000000 0.000000 0.000000
# 3 -0.002121 -0.002768 0.009220 0.000000 0.000000 0.000000
# 4 0.000000 0.000000 0.000000 0.040204 0.000000 0.000000
# 5 0.000000 0.000000 0.000000 0.000000 -0.002680 0.000000
# 6 0.000000 0.000000 0.000000 0.000000 0.000000 -0.010616
#
#
# Mechanical properties :
#
#
# Convention : Reuss Voigt Hill
#
# Bulk Modulus (GPa) = 64.28660 71.95049 68.11854
# Shear Modulus (GPa) = 53.44399 -74.78292 -10.66946
#
# Velocity S-wave (km/s) = 4.99422 -5.90771 -2.23146
# Velocity P-wave (km/s) = 7.95353 3.59938 5.01513
#
# Compressibility (1/GPa) = 0.01555534
#
# Stress axis : x y z
#
# Youngs Moduli (GPa) = 54.09862 92.55456 108.46462
#
# Poissons Ratio (x) = 0.60980 0.23000
# Poissons Ratio (y) = 0.35643 0.30019
# Poissons Ratio (z) = 0.11472 0.25616
#
# Static dielectric constant tensor:
#      x y z
#    x 2.001730 0.000000 0.000000 
#    y 0.000000 1.828070 0.000000 
#    z 0.000000 0.000000 2.655550 
# 
# From -- ./inp_files/17076.got.cif
#   From: 2010.05.17/outbox.cif.g08.bks.cpg/sg20_9_cif.got.tgz:17076.got - 2010.06.03 22:52:26.
