data_PCOD9318440
_publ_section_title
;
Structure prediction by ZEFSAII (Michael W. Deem and Ramdas Pophale) SiO2 
 PCOD9318440
Probable space group: C 2 2 21
;
_chemical_formula_sum "Si O2"
_cell_formula_units_Z 40
_cell_length_a 9.344676
_cell_length_b 11.310886
_cell_length_c 14.591874
_cell_angle_alpha 90.000000
_cell_angle_beta 90.000000
_cell_angle_gamma 90.000000
_cell_volume 1542.310958
_symmetry_space_group_name_H-M "C 2 2 21"
_symmetry_group_IT_number 20
_symmetry_cell_setting 'orthorhombic'
loop_
_space_group_symop_operation_xyz
x,y,z
-x,-y,1/2+z
x,-y,-z
-x,y,1/2-z
1/2+x,1/2+y,z
1/2-x,1/2-y,1/2+z
1/2+x,1/2-y,-z
1/2-x,1/2+y,1/2-z
loop_
_atom_site_type_symbol
_atom_site_label
_atom_site_fract_x
_atom_site_fract_y
_atom_site_fract_z
Si Si1 0.304603 0.327009 0.707352
Si Si2 0.101348 0.955253 0.139014
Si Si3 0.644173 0.500000 0.500000
Si Si4 0.142326 0.500000 0.500000
Si Si5 0.500000 0.864649 0.250000
Si Si6 0.600312 0.149472 0.937658
Si Si7 0.500000 0.760606 0.750000
O O1 0.360382 0.457517 0.722081
O O2 0.372248 0.228410 0.774467
O O3 0.363562 0.276133 0.608726
O O4 0.135704 0.328784 0.712826
O O5 0.964451 0.002236 0.084061
O O6 0.245724 0.968076 0.079946
O O7 0.061503 0.825938 0.171869
O O8 0.754639 0.392960 0.484841
O O9 0.032378 0.387400 0.501668
O O10 0.441074 0.922681 0.342507
#
# Coordination Sequence:
#
# PCOD9318440 Si02
#       7
#     8   8   4   4   4   8   4
#     4  10  22  40  66  91 128 177 217 272 343 386
#     4  11  23  41  66  96 131 177 222 277 342 399
#     4  10  20  40  66  94 134 180 218 284 344 388
#     4  10  22  38  62  98 130 172 218 276 338 390
#     4   8  17  38  57  88 124 168 217 270 313 392
#     4   9  19  40  62  91 132 170 219 274 328 396
#     4  12  23  46  65 100 136 170 227 288 315 414
#
# _framework density 25.935109000000001
#
# number of rings (size 3 to 8) (size 9 to 14) (size 15 to 20)
#    1.200    0.800    2.000    1.800    0.000    1.600 
#    3.600    2.000    0.000    0.000    0.000    0.000 
#    0.000    0.000    0.000    0.000    0.000    0.000 
#
# Total GULP energy -111566.692073 kJ/mol
# GULP energy per Si atom -5578.334604 kJ/mol
# Density = 2.587608 g / cm^3
# Si number density = 25.935109 Si / 1000 Ang^3
#
#
#
# Elastic Constant Matrix: (Units=GPa)
#
#
# Indices 1 2 3 4 5 6 
#
# 1 245.6503 33.4518 38.7592 0.0000 0.0000 0.0000
# 2 33.4518 38.5395 6.1330 0.0000 0.0000 0.0000
# 3 38.7592 6.1330 64.8029 0.0000 0.0000 0.0000
# 4 0.0000 0.0000 0.0000 9.0257 0.0000 0.0000
# 5 0.0000 0.0000 0.0000 0.0000 41.5846 0.0000
# 6 0.0000 0.0000 0.0000 0.0000 0.0000 15.6593
#
#
#
# Elastic Compliance Matrix: (Units=1/GPa)
#
#
# Indices 1 2 3 4 5 6 
#
# 1 0.005023 -0.003941 -0.002631 0.000000 0.000000 0.000000
# 2 -0.003941 0.029436 -0.000429 0.000000 0.000000 0.000000
# 3 -0.002631 -0.000429 0.017046 0.000000 0.000000 0.000000
# 4 0.000000 0.000000 0.000000 0.110795 0.000000 0.000000
# 5 0.000000 0.000000 0.000000 0.000000 0.024047 0.000000
# 6 0.000000 0.000000 0.000000 0.000000 0.000000 0.063860
#
#
# Mechanical properties :
#
#
# Convention : Reuss Voigt Hill
#
# Bulk Modulus (GPa) = 26.66452 56.18676 41.42564
# Shear Modulus (GPa) = 18.06950 31.29717 24.68334
#
# Velocity S-wave (km/s) = 2.64241 3.47760 3.08837
# Velocity P-wave (km/s) = 4.42869 6.15112 5.35955
#
# Compressibility (1/GPa) = 0.03750302
#
# Stress axis : x y z
#
# Youngs Moduli (GPa) = 199.09908 33.97167 58.66584
#
# Poissons Ratio (x) = 0.13388 0.15436
# Poissons Ratio (y) = 0.78463 0.02516
# Poissons Ratio (z) = 0.52385 0.01457
#
# Static dielectric constant tensor:
#      x y z
#    x 1.993380 0.000000 0.000000 
#    y 0.000000 2.061130 0.000000 
#    z 0.000000 0.000000 2.170970 
# 
# From -- ./inp_files/26553.got.cif
#   From: 2010.05.17/outbox.cif.g08.bks.cpg/sg20_14_cif.got.tgz:26553.got - 2010.06.03 22:52:26.
