data_PCOD9318290
_publ_section_title
;
Structure prediction by ZEFSAII (Michael W. Deem and Ramdas Pophale) SiO2 
 PCOD9318290
Probable space group: C 2 2 21
;
_chemical_formula_sum "Si O2"
_cell_formula_units_Z 44
_cell_length_a 28.686139
_cell_length_b 5.697752
_cell_length_c 11.644479
_cell_angle_alpha 90.000000
_cell_angle_beta 90.000000
_cell_angle_gamma 90.000000
_cell_volume 1903.249405
_symmetry_space_group_name_H-M "C 2 2 21"
_symmetry_group_IT_number 20
_symmetry_cell_setting 'orthorhombic'
loop_
_space_group_symop_operation_xyz
x,y,z
-x,-y,1/2+z
x,-y,-z
-x,y,1/2-z
1/2+x,1/2+y,z
1/2-x,1/2-y,1/2+z
1/2+x,1/2-y,-z
1/2-x,1/2+y,1/2-z
loop_
_atom_site_type_symbol
_atom_site_label
_atom_site_fract_x
_atom_site_fract_y
_atom_site_fract_z
Si Si1 0.683325 0.661156 0.686200
Si Si2 0.953197 0.000000 0.500000
Si Si3 0.272659 0.879679 0.614726
Si Si4 0.909196 0.030948 0.245784
Si Si5 0.956344 0.500000 0.500000
Si Si6 0.292514 0.000000 0.000000
Si Si7 0.444159 0.027529 0.246649
O O1 0.686993 0.823844 0.797256
O O2 0.734307 0.551628 0.668761
O O3 0.645072 0.468862 0.714225
O O4 0.676961 0.820113 0.574008
O O5 0.923143 0.014137 0.381849
O O6 0.981111 0.754138 0.500232
O O7 0.242451 0.651961 0.578876
O O8 0.290947 0.000000 0.500000
O O9 0.926342 0.776079 0.198923
O O10 0.930477 0.272969 0.198073
O O11 0.928374 0.511688 0.380889
O O12 0.500000 0.039130 0.250000
#
# Coordination Sequence:
#
# PCOD9318290 Si02
#       7
#     8   4   8   8   4   4   8
#     4  11  22  40  64  90 130 166 218 258 322 381
#     4   8  16  35  50  88 116 145 186 259 316 350
#     4  10  22  40  63  90 123 173 209 267 318 382
#     4  10  22  36  63  92 123 162 210 265 315 381
#     4   8  16  32  57  78 116 147 184 249 320 355
#     4  10  22  41  61  86 128 172 206 262 320 371
#     4  10  20  39  62  88 122 161 205 261 324 382
#
# _framework density 23.118357
#
# number of rings (size 3 to 8) (size 9 to 14) (size 15 to 20)
#    0.000    2.182    1.818    0.545    2.545    0.727 
#    9.818    0.909    0.000    0.000    0.000    0.000 
#    0.000    0.000    0.000    0.000    0.000    0.000 
#
# Total GULP energy -122619.721367 kJ/mol
# GULP energy per Si atom -5573.623699 kJ/mol
# Density = 2.306574 g / cm^3
# Si number density = 23.118357 Si / 1000 Ang^3
#
#
#
# Elastic Constant Matrix: (Units=GPa)
#
#
# Indices 1 2 3 4 5 6 
#
# 1 24.0776 -2.8952 11.9249 0.0000 0.0000 0.0000
# 2 -2.8952 175.3658 7.1824 0.0000 0.0000 0.0000
# 3 11.9249 7.1824 64.4956 0.0000 0.0000 0.0000
# 4 0.0000 0.0000 0.0000 2.2741 0.0000 0.0000
# 5 0.0000 0.0000 0.0000 0.0000 8.9290 0.0000
# 6 0.0000 0.0000 0.0000 0.0000 0.0000 15.1398
#
#
#
# Elastic Compliance Matrix: (Units=1/GPa)
#
#
# Indices 1 2 3 4 5 6 
#
# 1 0.045934 0.001111 -0.008617 0.000000 0.000000 0.000000
# 2 0.001111 0.005755 -0.000846 0.000000 0.000000 0.000000
# 3 -0.008617 -0.000846 0.017192 0.000000 0.000000 0.000000
# 4 0.000000 0.000000 0.000000 0.439742 0.000000 0.000000
# 5 0.000000 0.000000 0.000000 0.000000 0.111994 0.000000
# 6 0.000000 0.000000 0.000000 0.000000 0.000000 0.066051
#
#
# Mechanical properties :
#
#
# Convention : Reuss Voigt Hill
#
# Bulk Modulus (GPa) = 19.16525 32.92924 26.04724
# Shear Modulus (GPa) = 6.93708 21.78370 14.36039
#
# Velocity S-wave (km/s) = 1.73413 3.07297 2.49503
# Velocity P-wave (km/s) = 3.50965 5.18320 4.42624
#
# Compressibility (1/GPa) = 0.05217778
#
# Stress axis : x y z
#
# Youngs Moduli (GPa) = 21.77057 173.75053 58.16540
#
# Poissons Ratio (x) = -0.19308 0.50119
# Poissons Ratio (y) = -0.02419 0.04923
# Poissons Ratio (z) = 0.18759 0.14706
#
# Static dielectric constant tensor:
#      x y z
#    x 1.808450 0.000000 0.000000 
#    y 0.000000 1.955020 0.000000 
#    z 0.000000 0.000000 1.971230 
# 
# From -- ./inp_files/22132.got.cif
#   From: 2010.05.17/outbox.cif.g08.bks.cpg/sg20_12_cif.got.tgz:22132.got - 2010.06.03 22:52:26.
