data_PCOD9318064
_publ_section_title
;
Structure prediction by ZEFSAII (Michael W. Deem and Ramdas Pophale) SiO2 
 PCOD9318064
Probable space group: C 2 2 21
;
_chemical_formula_sum "Si O2"
_cell_formula_units_Z 64
_cell_length_a 18.063373
_cell_length_b 8.424024
_cell_length_c 20.869139
_cell_angle_alpha 90.000000
_cell_angle_beta 90.000000
_cell_angle_gamma 90.000000
_cell_volume 3175.579409
_symmetry_space_group_name_H-M "C 2 2 21"
_symmetry_group_IT_number 20
_symmetry_cell_setting 'orthorhombic'
loop_
_space_group_symop_operation_xyz
x,y,z
-x,-y,1/2+z
x,-y,-z
-x,y,1/2-z
1/2+x,1/2+y,z
1/2-x,1/2-y,1/2+z
1/2+x,1/2-y,-z
1/2-x,1/2+y,1/2-z
loop_
_atom_site_type_symbol
_atom_site_label
_atom_site_fract_x
_atom_site_fract_y
_atom_site_fract_z
Si Si1 0.262975 0.058567 0.572590
Si Si2 0.546202 0.535443 0.925704
Si Si3 0.479009 0.943961 0.824635
Si Si4 0.320370 0.584134 0.747798
Si Si5 0.185087 0.747265 0.819285
Si Si6 0.132527 0.303449 0.865003
Si Si7 0.606909 0.344002 0.372188
Si Si8 0.024593 0.224910 0.183156
O O1 0.303725 0.211153 0.605052
O O2 0.177706 0.106810 0.585578
O O3 0.273516 0.000000 0.500000
O O4 0.300231 0.913581 0.612403
O O5 0.613411 0.653447 0.909640
O O6 0.467016 0.612828 0.909327
O O7 0.543858 0.390435 0.875059
O O8 0.548961 0.500000 0.000000
O O9 0.500000 0.913746 0.750000
O O10 0.554089 0.894845 0.862120
O O11 0.410216 0.836622 0.848506
O O12 0.469307 0.132472 0.833967
O O13 0.246224 0.644196 0.782458
O O14 0.308373 0.427232 0.705695
O O15 0.349039 0.724856 0.702889
O O16 0.378435 0.560996 0.805895
O O17 0.103198 0.693090 0.801069
O O18 0.000000 0.146747 0.250000
#
# Coordination Sequence:
#
# PCOD9318064 Si02
#       8
#     8   8   8   8   8   8   8   8
#     4  11  25  43  65  89 136 181 234 274 341 411
#     4  11  25  41  66  94 136 178 231 274 344 411
#     4  10  20  37  65  97 133 162 217 279 353 408
#     4  11  21  38  66  96 137 168 226 275 354 404
#     4  11  23  38  62  97 132 174 217 286 341 407
#     4  11  22  37  64  94 128 180 217 280 334 407
#     4  10  22  42  66  94 127 179 215 281 342 421
#     4  11  23  39  65 100 134 172 226 292 348 409
#
# _framework density 20.153803
#
# number of rings (size 3 to 8) (size 9 to 14) (size 15 to 20)
#    0.000    1.250    3.750    2.625    1.750    1.000 
#    0.000    1.875    0.000    3.000    0.000    0.000 
#    0.000    0.000    0.000    0.000    0.000    0.000 
#
# Total GULP energy -178310.768619 kJ/mol
# GULP energy per Si atom -5572.211519 kJ/mol
# Density = 2.010793 g / cm^3
# Si number density = 20.153803 Si / 1000 Ang^3
#
#
#
# Elastic Constant Matrix: (Units=GPa)
#
#
# Indices 1 2 3 4 5 6 
#
# 1 69.3367 10.1479 5.1334 0.0000 0.0000 0.0000
# 2 10.1479 96.6663 27.2599 0.0000 0.0000 0.0000
# 3 5.1334 27.2599 93.0532 0.0000 0.0000 0.0000
# 4 0.0000 0.0000 0.0000 6.8038 0.0000 0.0000
# 5 0.0000 0.0000 0.0000 0.0000 27.2434 0.0000
# 6 0.0000 0.0000 0.0000 0.0000 0.0000 59.0322
#
#
#
# Elastic Compliance Matrix: (Units=1/GPa)
#
#
# Indices 1 2 3 4 5 6 
#
# 1 0.014660 -0.001429 -0.000390 0.000000 0.000000 0.000000
# 2 -0.001429 0.011416 -0.003265 0.000000 0.000000 0.000000
# 3 -0.000390 -0.003265 0.011725 0.000000 0.000000 0.000000
# 4 0.000000 0.000000 0.000000 0.146976 0.000000 0.000000
# 5 0.000000 0.000000 0.000000 0.000000 0.036706 0.000000
# 6 0.000000 0.000000 0.000000 0.000000 0.000000 0.016940
#
#
# Mechanical properties :
#
#
# Convention : Reuss Voigt Hill
#
# Bulk Modulus (GPa) = 36.19031 38.23763 37.21397
# Shear Modulus (GPa) = 19.39467 33.05021 26.22244
#
# Velocity S-wave (km/s) = 3.10551 4.05396 3.61101
# Velocity P-wave (km/s) = 5.55473 6.39741 5.99091
#
# Compressibility (1/GPa) = 0.02763170
#
# Stress axis : x y z
#
# Youngs Moduli (GPa) = 68.21090 87.59844 85.29032
#
# Poissons Ratio (x) = 0.12518 0.03327
# Poissons Ratio (y) = 0.09747 0.27851
# Poissons Ratio (z) = 0.02661 0.28604
#
# Static dielectric constant tensor:
#      x y z
#    x 1.747180 0.000000 0.000000 
#    y 0.000000 1.770660 0.000000 
#    z 0.000000 0.000000 1.647460 
# 
# From -- ./inp_files/27767.got.cif
#   From: 2010.05.17/outbox.cif.g08.bks.cpg/sg20_14_cif.got.tgz:27767.got - 2010.06.03 22:52:26.
