data_PCOD9318251
_publ_section_title
;
Structure prediction by ZEFSAII (Michael W. Deem and Ramdas Pophale) SiO2 
 PCOD9318251
Probable space group: C 2 2 21
;
_chemical_formula_sum "Si O2"
_cell_formula_units_Z 64
_cell_length_a 16.263322
_cell_length_b 9.122841
_cell_length_c 19.896032
_cell_angle_alpha 90.000000
_cell_angle_beta 90.000000
_cell_angle_gamma 90.000000
_cell_volume 2951.928522
_symmetry_space_group_name_H-M "C 2 2 21"
_symmetry_group_IT_number 20
_symmetry_cell_setting 'orthorhombic'
loop_
_space_group_symop_operation_xyz
x,y,z
-x,-y,1/2+z
x,-y,-z
-x,y,1/2-z
1/2+x,1/2+y,z
1/2-x,1/2-y,1/2+z
1/2+x,1/2-y,-z
1/2-x,1/2+y,1/2-z
loop_
_atom_site_type_symbol
_atom_site_label
_atom_site_fract_x
_atom_site_fract_y
_atom_site_fract_z
Si Si1 0.766249 0.101956 0.437712
Si Si2 0.589820 0.674726 0.830598
Si Si3 0.509792 0.187384 0.671350
Si Si4 0.173912 0.502142 0.312977
Si Si5 0.802437 0.914324 0.068181
Si Si6 0.155647 0.505265 0.162334
Si Si7 0.051412 0.075698 0.068035
Si Si8 0.598852 0.325244 0.313386
O O1 0.744216 0.012521 0.369374
O O2 0.707934 0.241953 0.444190
O O3 0.860792 0.154882 0.445370
O O4 0.749082 0.000000 0.500000
O O5 0.641815 0.820387 0.841313
O O6 0.584796 0.561223 0.889710
O O7 0.494898 0.721603 0.822676
O O8 0.610370 0.600863 0.759061
O O9 0.500000 0.237542 0.750000
O O10 0.500628 0.316606 0.616096
O O11 0.596387 0.100082 0.666233
O O12 0.432492 0.076845 0.659489
O O13 0.193464 0.462648 0.235556
O O14 0.146030 0.671717 0.309396
O O15 0.872082 0.924472 0.125279
O O16 0.718217 0.962397 0.104316
O O17 0.817155 0.000000 0.000000
O O18 0.016820 0.000000 0.000000
#
# Coordination Sequence:
#
# PCOD9318251 Si02
#       8
#     8   8   8   8   8   8   8   8
#     4  10  23  44  60  86 132 172 208 258 329 385
#     4  10  21  40  67  90 128 169 211 260 334 386
#     4  10  20  41  67  98 126 161 219 277 323 384
#     4   9  19  41  68  92 122 161 219 269 318 390
#     4  11  24  41  65  96 132 166 220 275 316 389
#     4  10  20  38  68  97 120 166 219 269 322 389
#     4  11  25  41  59  92 134 170 208 263 324 390
#     4   9  20  41  66  95 124 165 208 271 325 384
#
# _framework density 21.680741000000001
#
# number of rings (size 3 to 8) (size 9 to 14) (size 15 to 20)
#    0.000    2.000    2.500    0.000    7.000    0.500 
#    6.750    0.625    0.000    0.000    0.000    0.000 
#    0.000    0.000    0.000    0.000    0.000    0.000 
#
# Total GULP energy -178557.319927 kJ/mol
# GULP energy per Si atom -5579.916248 kJ/mol
# Density = 2.163139 g / cm^3
# Si number density = 21.680741 Si / 1000 Ang^3
#
#
#
# Elastic Constant Matrix: (Units=GPa)
#
#
# Indices 1 2 3 4 5 6 
#
# 1 45.5394 6.1776 26.1859 0.0000 0.0000 0.0000
# 2 6.1776 76.5551 60.6733 0.0000 0.0000 0.0000
# 3 26.1859 60.6733 158.3210 0.0000 0.0000 0.0000
# 4 0.0000 0.0000 0.0000 32.1121 0.0000 0.0000
# 5 0.0000 0.0000 0.0000 0.0000 27.0453 0.0000
# 6 0.0000 0.0000 0.0000 0.0000 0.0000 25.3087
#
#
#
# Elastic Compliance Matrix: (Units=1/GPa)
#
#
# Indices 1 2 3 4 5 6 
#
# 1 0.024432 0.001768 -0.004719 0.000000 0.000000 0.000000
# 2 0.001768 0.018889 -0.007531 0.000000 0.000000 0.000000
# 3 -0.004719 -0.007531 0.009983 0.000000 0.000000 0.000000
# 4 0.000000 0.000000 0.000000 0.031141 0.000000 0.000000
# 5 0.000000 0.000000 0.000000 0.000000 0.036975 0.000000
# 6 0.000000 0.000000 0.000000 0.000000 0.000000 0.039512
#
#
# Mechanical properties :
#
#
# Convention : Reuss Voigt Hill
#
# Bulk Modulus (GPa) = 30.92081 51.83212 41.37646
# Shear Modulus (GPa) = 25.95039 29.38513 27.66776
#
# Velocity S-wave (km/s) = 3.46342 3.68551 3.57619
# Velocity P-wave (km/s) = 5.50333 6.48610 6.01482
#
# Compressibility (1/GPa) = 0.03234068
#
# Stress axis : x y z
#
# Youngs Moduli (GPa) = 40.92912 52.94216 100.17151
#
# Poissons Ratio (x) = -0.09361 0.47268
# Poissons Ratio (y) = -0.07237 0.75440
# Poissons Ratio (z) = 0.19313 0.39871
#
# Static dielectric constant tensor:
#      x y z
#    x 1.901550 0.000000 0.000000 
#    y 0.000000 1.766820 0.000000 
#    z 0.000000 0.000000 1.778130 
# 
# From -- ./inp_files/27774.got.cif
#   From: 2010.05.17/outbox.cif.g08.bks.cpg/sg20_14_cif.got.tgz:27774.got - 2010.06.03 22:52:26.
