data_PCOD9318540
_publ_section_title
;
Structure prediction by ZEFSAII (Michael W. Deem and Ramdas Pophale) SiO2 
 PCOD9318540
Probable space group: C 2 2 21
;
_chemical_formula_sum "Si O2"
_cell_formula_units_Z 36
_cell_length_a 15.071160
_cell_length_b 12.196142
_cell_length_c 7.377809
_cell_angle_alpha 90.000000
_cell_angle_beta 90.000000
_cell_angle_gamma 90.000000
_cell_volume 1356.115127
_symmetry_space_group_name_H-M "C 2 2 21"
_symmetry_group_IT_number 20
_symmetry_cell_setting 'orthorhombic'
loop_
_space_group_symop_operation_xyz
x,y,z
-x,-y,1/2+z
x,-y,-z
-x,y,1/2-z
1/2+x,1/2+y,z
1/2-x,1/2-y,1/2+z
1/2+x,1/2-y,-z
1/2-x,1/2+y,1/2-z
loop_
_atom_site_type_symbol
_atom_site_label
_atom_site_fract_x
_atom_site_fract_y
_atom_site_fract_z
Si Si1 0.642333 0.958277 0.710094
Si Si2 0.500000 0.554953 0.750000
Si Si3 0.123682 0.227616 0.602162
Si Si4 0.668269 0.416207 0.849587
Si Si5 0.677129 0.813342 0.201258
O O1 0.628560 0.070525 0.822038
O O2 0.628804 0.000000 0.500000
O O3 0.598061 0.838903 0.709212
O O4 0.742798 0.920288 0.769184
O O5 0.545948 0.638365 0.607959
O O6 0.579707 0.473446 0.790331
O O7 0.216048 0.176533 0.680735
O O8 0.149047 0.267470 0.399940
O O9 0.652900 0.293035 0.917374
O O10 0.700621 0.500000 0.000000
#
# Coordination Sequence:
#
# PCOD9318540 Si02
#       5
#     8   4   8   8   8
#     4   8  16  38  63  87 117 173 214 261 316 411
#     4  12  24  38  60 100 136 164 214 306 330 390
#     4  10  22  38  66  93 134 172 226 274 342 397
#     4  10  22  37  61  92 137 168 217 277 341 389
#     4  10  20  41  67  93 124 184 223 267 332 425
#
# _framework density 26.546420000000001
#
# number of rings (size 3 to 8) (size 9 to 14) (size 15 to 20)
#    0.000    2.222    2.222    1.333    3.111    0.000 
#    0.000    1.111    4.889    0.000    0.000    0.000 
#    0.000    0.000    0.000    0.000    0.000    0.000 
#
# Total GULP energy -100333.536036 kJ/mol
# GULP energy per Si atom -5574.085335 kJ/mol
# Density = 2.648600 g / cm^3
# Si number density = 26.546420 Si / 1000 Ang^3
#
#
#
# Elastic Constant Matrix: (Units=GPa)
#
#
# Indices 1 2 3 4 5 6 
#
# 1 101.2492 10.9898 8.0341 0.0000 0.0000 0.0000
# 2 10.9898 199.6461 24.5951 0.0000 0.0000 0.0000
# 3 8.0341 24.5951 58.4390 0.0000 0.0000 0.0000
# 4 0.0000 0.0000 0.0000 35.9245 0.0000 0.0000
# 5 0.0000 0.0000 0.0000 0.0000 10.3228 0.0000
# 6 0.0000 0.0000 0.0000 0.0000 0.0000 8.1889
#
#
#
# Elastic Compliance Matrix: (Units=1/GPa)
#
#
# Indices 1 2 3 4 5 6 
#
# 1 0.010016 -0.000403 -0.001208 0.000000 0.000000 0.000000
# 2 -0.000403 0.005299 -0.002175 0.000000 0.000000 0.000000
# 3 -0.001208 -0.002175 0.018193 0.000000 0.000000 0.000000
# 4 0.000000 0.000000 0.000000 0.027836 0.000000 0.000000
# 5 0.000000 0.000000 0.000000 0.000000 0.096873 0.000000
# 6 0.000000 0.000000 0.000000 0.000000 0.000000 0.122116
#
#
# Mechanical properties :
#
#
# Convention : Reuss Voigt Hill
#
# Bulk Modulus (GPa) = 38.55295 49.61915 44.08605
# Shear Modulus (GPa) = 16.86057 31.93494 24.39775
#
# Velocity S-wave (km/s) = 2.52292 3.47217 3.03489
# Velocity P-wave (km/s) = 4.80013 5.89972 5.37810
#
# Compressibility (1/GPa) = 0.02593835
#
# Stress axis : x y z
#
# Youngs Moduli (GPa) = 99.83890 188.71677 54.96562
#
# Poissons Ratio (x) = 0.07598 0.06637
# Poissons Ratio (y) = 0.04019 0.11954
# Poissons Ratio (z) = 0.12056 0.41042
#
# Static dielectric constant tensor:
#      x y z
#    x 2.357470 0.000000 0.000000 
#    y 0.000000 2.118000 0.000000 
#    z 0.000000 0.000000 2.416140 
# 
# From -- ./inp_files/14814.got.cif
#   From: 2010.05.17/outbox.cif.g08.bks.cpg/sg20_8_cif.got.tgz:14814.got - 2010.06.03 22:52:26.
