data_PCOD9318335
_publ_section_title
;
Structure prediction by ZEFSAII (Michael W. Deem and Ramdas Pophale) SiO2 
 PCOD9318335
Probable space group: C 2 2 21
;
_chemical_formula_sum "Si O2"
_cell_formula_units_Z 36
_cell_length_a 18.742717
_cell_length_b 5.570756
_cell_length_c 13.257616
_cell_angle_alpha 90.000000
_cell_angle_beta 90.000000
_cell_angle_gamma 90.000000
_cell_volume 1384.242312
_symmetry_space_group_name_H-M "C 2 2 21"
_symmetry_group_IT_number 20
_symmetry_cell_setting 'orthorhombic'
loop_
_space_group_symop_operation_xyz
x,y,z
-x,-y,1/2+z
x,-y,-z
-x,y,1/2-z
1/2+x,1/2+y,z
1/2-x,1/2-y,1/2+z
1/2+x,1/2-y,-z
1/2-x,1/2+y,1/2-z
loop_
_atom_site_type_symbol
_atom_site_label
_atom_site_fract_x
_atom_site_fract_y
_atom_site_fract_z
Si Si1 0.151781 0.781002 0.758697
Si Si2 0.753959 0.187997 0.091162
Si Si3 0.889593 0.242925 0.487209
Si Si4 0.575950 0.780066 0.695754
Si Si5 0.622451 0.000000 0.500000
O O1 0.228959 0.846453 0.709180
O O2 0.150012 0.765409 0.879709
O O3 0.115856 0.521338 0.735486
O O4 0.107196 0.015370 0.720867
O O5 0.673713 0.268879 0.070032
O O6 0.820721 0.356832 0.067475
O O7 0.763427 0.000000 0.000000
O O8 0.925540 0.500000 0.500000
O O9 0.933831 0.000000 0.500000
O O10 0.500000 0.786918 0.750000
O O11 0.578894 0.828183 0.575085
#
# Coordination Sequence:
#
# PCOD9318335 Si02
#       5
#     8   8   8   8   4
#     4  11  24  43  68  98 139 176 227 284 337 416
#     4  10  20  39  65  96 131 177 223 262 334 418
#     4  11  24  40  63  98 139 178 220 266 344 409
#     4  11  24  45  70  97 129 179 234 288 344 396
#     4  10  20  42  66  94 130 172 234 276 326 422
#
# _framework density 26.007006000000001
#
# number of rings (size 3 to 8) (size 9 to 14) (size 15 to 20)
#    0.000    1.333    3.333    2.000    0.000    3.556 
#    6.000    0.000    0.000    0.000    0.000    0.000 
#    0.000    0.000    0.000    0.000    0.000    0.000 
#
# Total GULP energy -100405.500895 kJ/mol
# GULP energy per Si atom -5578.083383 kJ/mol
# Density = 2.594781 g / cm^3
# Si number density = 26.007006 Si / 1000 Ang^3
#
#
#
# Elastic Constant Matrix: (Units=GPa)
#
#
# Indices 1 2 3 4 5 6 
#
# 1 88.3482 48.2916 8.7784 0.0000 0.0000 0.0000
# 2 48.2916 189.1694 44.5869 0.0000 0.0000 0.0000
# 3 8.7784 44.5869 83.5419 0.0000 0.0000 0.0000
# 4 0.0000 0.0000 0.0000 46.4422 0.0000 0.0000
# 5 0.0000 0.0000 0.0000 0.0000 6.2543 0.0000
# 6 0.0000 0.0000 0.0000 0.0000 0.0000 39.4860
#
#
#
# Elastic Compliance Matrix: (Units=1/GPa)
#
#
# Indices 1 2 3 4 5 6 
#
# 1 0.013170 -0.003473 0.000470 0.000000 0.000000 0.000000
# 2 -0.003473 0.006963 -0.003351 0.000000 0.000000 0.000000
# 3 0.000470 -0.003351 0.013709 0.000000 0.000000 0.000000
# 4 0.000000 0.000000 0.000000 0.021532 0.000000 0.000000
# 5 0.000000 0.000000 0.000000 0.000000 0.159889 0.000000
# 6 0.000000 0.000000 0.000000 0.000000 0.000000 0.025325
#
#
# Mechanical properties :
#
#
# Convention : Reuss Voigt Hill
#
# Bulk Modulus (GPa) = 47.31811 62.70816 55.01314
# Shear Modulus (GPa) = 19.20550 35.73001 27.46776
#
# Velocity S-wave (km/s) = 2.72044 3.71058 3.25340
# Velocity P-wave (km/s) = 5.30109 6.52091 5.94238
#
# Compressibility (1/GPa) = 0.02113356
#
# Stress axis : x y z
#
# Youngs Moduli (GPa) = 75.92733 143.62280 72.94368
#
# Poissons Ratio (x) = 0.49878 -0.03425
# Poissons Ratio (y) = 0.26369 0.24444
# Poissons Ratio (z) = -0.03565 0.48130
#
# Static dielectric constant tensor:
#      x y z
#    x 2.011730 0.000000 0.000000 
#    y 0.000000 2.261270 0.000000 
#    z 0.000000 0.000000 2.057980 
# 
# From -- ./inp_files/21590.got.cif
#   From: 2010.05.17/outbox.cif.g08.bks.cpg/sg20_11_cif.got.tgz:21590.got - 2010.06.03 22:52:26.
