data_PCOD9318976
_publ_section_title
;
Structure prediction by ZEFSAII (Michael W. Deem and Ramdas Pophale) SiO2 
 PCOD9318976
Probable space group: C 2 2 21
;
_chemical_formula_sum "Si O2"
_cell_formula_units_Z 40
_cell_length_a 15.600012
_cell_length_b 13.129337
_cell_length_c 9.202171
_cell_angle_alpha 90.000000
_cell_angle_beta 90.000000
_cell_angle_gamma 90.000000
_cell_volume 1884.768555
_symmetry_space_group_name_H-M "C 2 2 21"
_symmetry_group_IT_number 20
_symmetry_cell_setting 'orthorhombic'
loop_
_space_group_symop_operation_xyz
x,y,z
-x,-y,1/2+z
x,-y,-z
-x,y,1/2-z
1/2+x,1/2+y,z
1/2-x,1/2-y,1/2+z
1/2+x,1/2-y,-z
1/2-x,1/2+y,1/2-z
loop_
_atom_site_type_symbol
_atom_site_label
_atom_site_fract_x
_atom_site_fract_y
_atom_site_fract_z
Si Si1 0.259925 0.195913 0.034888
Si Si2 0.596084 0.805377 0.995637
Si Si3 0.000000 0.802808 0.750000
Si Si4 0.181671 0.861966 0.666557
Si Si5 0.206397 0.500000 0.000000
Si Si6 0.500000 0.923849 0.750000
Si Si7 0.876844 0.500000 0.000000
O O1 0.165157 0.216023 0.968046
O O2 0.235632 0.191145 0.204568
O O3 0.313091 0.291779 0.976473
O O4 0.314478 0.097483 0.992662
O O5 0.528585 0.767119 0.114218
O O6 0.648934 0.904804 0.049923
O O7 0.554902 0.849529 0.851417
O O8 0.083605 0.868524 0.712429
O O9 0.232296 0.963633 0.629125
O O10 0.561307 0.986814 0.640709
#
# Coordination Sequence:
#
# PCOD9318976 Si02
#       7
#     8   8   4   8   4   4   4
#     4  10  23  40  63  90 124 165 206 245 306 374
#     4  10  23  43  64  93 125 163 204 254 308 366
#     4  10  22  41  66  91 124 160 204 261 310 351
#     4  10  22  41  63  91 124 163 205 254 306 365
#     4  10  21  38  63  88 124 164 202 240 303 374
#     4  12  26  39  62  99 128 156 206 263 310 353
#     4  12  25  42  63  94 126 162 206 256 307 368
#
# _framework density 21.222763
#
# number of rings (size 3 to 8) (size 9 to 14) (size 15 to 20)
#    0.000    1.600    0.000    4.200    0.000   18.400 
#    0.000    4.000    0.000    6.000    0.000    0.000 
#    0.000    0.000    0.000    0.000    0.000    0.000 
#
# Total GULP energy -111685.594837 kJ/mol
# GULP energy per Si atom -5584.279742 kJ/mol
# Density = 2.117446 g / cm^3
# Si number density = 21.222763 Si / 1000 Ang^3
#
#
#
# Elastic Constant Matrix: (Units=GPa)
#
#
# Indices 1 2 3 4 5 6 
#
# 1 142.0680 51.3075 73.3593 0.0000 0.0000 0.0000
# 2 51.3075 71.6813 32.3668 0.0000 0.0000 0.0000
# 3 73.3593 32.3668 115.9384 0.0000 0.0000 0.0000
# 4 0.0000 0.0000 0.0000 26.1310 0.0000 0.0000
# 5 0.0000 0.0000 0.0000 0.0000 34.3655 0.0000
# 6 0.0000 0.0000 0.0000 0.0000 0.0000 39.4135
#
#
#
# Elastic Compliance Matrix: (Units=1/GPa)
#
#
# Indices 1 2 3 4 5 6 
#
# 1 0.012425 -0.006115 -0.006155 0.000000 0.000000 0.000000
# 2 -0.006115 0.018972 -0.001427 0.000000 0.000000 0.000000
# 3 -0.006155 -0.001427 0.012918 0.000000 0.000000 0.000000
# 4 0.000000 0.000000 0.000000 0.038269 0.000000 0.000000
# 5 0.000000 0.000000 0.000000 0.000000 0.029099 0.000000
# 6 0.000000 0.000000 0.000000 0.000000 0.000000 0.025372
#
#
# Mechanical properties :
#
#
# Convention : Reuss Voigt Hill
#
# Bulk Modulus (GPa) = 59.09676 71.52833 65.31255
# Shear Modulus (GPa) = 29.39622 31.49229 30.44426
#
# Velocity S-wave (km/s) = 3.72577 3.85631 3.79160
# Velocity P-wave (km/s) = 6.81284 7.32154 7.07177
#
# Compressibility (1/GPa) = 0.01692140
#
# Stress axis : x y z
#
# Youngs Moduli (GPa) = 80.48017 52.70983 77.40901
#
# Poissons Ratio (x) = 0.32229 0.47646
# Poissons Ratio (y) = 0.49210 0.11050
# Poissons Ratio (z) = 0.49536 0.07524
#
# Static dielectric constant tensor:
#      x y z
#    x 1.809100 0.000000 0.000000 
#    y 0.000000 1.759680 0.000000 
#    z 0.000000 0.000000 1.739550 
# 
# From -- ./inp_files/8193.got.cif
#   From: 2010.05.17/outbox.cif.g08.bks.cpg/sg20_5_cif.got.tgz:8193.got - 2010.06.03 22:52:26.
