data_PCOD9318832
_publ_section_title
;
Structure prediction by ZEFSAII (Michael W. Deem and Ramdas Pophale) SiO2 
 PCOD9318832
Probable space group: C 2 2 21
;
_chemical_formula_sum "Si O2"
_cell_formula_units_Z 48
_cell_length_a 31.082087
_cell_length_b 8.265237
_cell_length_c 8.471518
_cell_angle_alpha 90.000000
_cell_angle_beta 90.000000
_cell_angle_gamma 90.000000
_cell_volume 2176.339883
_symmetry_space_group_name_H-M "C 2 2 21"
_symmetry_group_IT_number 20
_symmetry_cell_setting 'orthorhombic'
loop_
_space_group_symop_operation_xyz
x,y,z
-x,-y,1/2+z
x,-y,-z
-x,y,1/2-z
1/2+x,1/2+y,z
1/2-x,1/2-y,1/2+z
1/2+x,1/2-y,-z
1/2-x,1/2+y,1/2-z
loop_
_atom_site_type_symbol
_atom_site_label
_atom_site_fract_x
_atom_site_fract_y
_atom_site_fract_z
Si Si1 0.358910 0.181767 0.433282
Si Si2 0.638972 0.813009 0.551482
Si Si3 0.955155 0.685727 0.058939
Si Si4 0.547291 0.185601 0.060107
Si Si5 0.786680 0.118369 0.125334
Si Si6 0.280520 0.622977 0.614428
O O1 0.356878 0.183558 0.241754
O O2 0.405597 0.250995 0.485241
O O3 0.317797 0.285778 0.480384
O O4 0.355675 0.000000 0.500000
O O5 0.591115 0.747427 0.507548
O O6 0.674920 0.709958 0.462354
O O7 0.641601 0.000000 0.500000
O O8 0.953973 0.684393 0.249455
O O9 0.001307 0.758330 0.006494
O O10 0.955574 0.500000 0.000000
O O11 0.547595 0.000000 0.000000
O O12 0.752173 0.247776 0.185118
O O13 0.801418 0.992875 0.256516
O O14 0.763581 0.000000 0.000000
O O15 0.255474 0.500000 0.500000
#
# Coordination Sequence:
#
# PCOD9318832 Si02
#       6
#     8   8   8   8   8   8
#     4  10  21  38  61  92 124 162 202 251 307 365
#     4  10  21  36  63  92 124 161 204 254 305 362
#     4   8  14  27  49  86 119 153 196 243 293 346
#     4   8  14  27  51  82 121 155 193 243 293 347
#     4  12  25  45  64  88 122 160 207 262 312 380
#     4  12  27  42  63  88 117 161 206 257 318 374
#
# _framework density 22.055378000000001
#
# number of rings (size 3 to 8) (size 9 to 14) (size 15 to 20)
#    0.000    2.000    1.667    2.000    4.667    0.000 
#    0.000    0.000    0.000    1.000    0.000    0.000 
#    0.000    0.000    0.000    0.000    0.000    0.000 
#
# Total GULP energy -133791.894368 kJ/mol
# GULP energy per Si atom -5574.662265 kJ/mol
# Density = 2.200518 g / cm^3
# Si number density = 22.055378 Si / 1000 Ang^3
#
#
#
# Elastic Constant Matrix: (Units=GPa)
#
#
# Indices 1 2 3 4 5 6 
#
# 1 181.2138 60.5836 23.4723 0.0000 0.0000 0.0000
# 2 60.5836 75.0898 24.9677 0.0000 0.0000 0.0000
# 3 23.4723 24.9677 26.8614 0.0000 0.0000 0.0000
# 4 0.0000 0.0000 0.0000 34.5711 0.0000 0.0000
# 5 0.0000 0.0000 0.0000 0.0000 17.1869 0.0000
# 6 0.0000 0.0000 0.0000 0.0000 0.0000 23.8688
#
#
#
# Elastic Compliance Matrix: (Units=1/GPa)
#
#
# Indices 1 2 3 4 5 6 
#
# 1 0.007591 -0.005672 -0.001361 0.000000 0.000000 0.000000
# 2 -0.005672 0.023512 -0.016899 0.000000 0.000000 0.000000
# 3 -0.001361 -0.016899 0.054125 0.000000 0.000000 0.000000
# 4 0.000000 0.000000 0.000000 0.028926 0.000000 0.000000
# 5 0.000000 0.000000 0.000000 0.000000 0.058184 0.000000
# 6 0.000000 0.000000 0.000000 0.000000 0.000000 0.041896
#
#
# Mechanical properties :
#
#
# Convention : Reuss Voigt Hill
#
# Bulk Modulus (GPa) = 26.76302 55.69025 41.22664
# Shear Modulus (GPa) = 18.21150 26.73479 22.47315
#
# Velocity S-wave (km/s) = 2.87665 3.48540 3.19555
# Velocity P-wave (km/s) = 4.81604 6.44223 5.68756
#
# Compressibility (1/GPa) = 0.03736499
#
# Stress axis : x y z
#
# Youngs Moduli (GPa) = 131.73736 42.53083 18.47579
#
# Poissons Ratio (x) = 0.24123 0.02515
# Poissons Ratio (y) = 0.74719 0.31221
# Poissons Ratio (z) = 0.17931 0.71871
#
# Static dielectric constant tensor:
#      x y z
#    x 1.872240 0.000000 0.000000 
#    y 0.000000 1.809480 0.000000 
#    z 0.000000 0.000000 1.869870 
# 
# From -- ./inp_files/6493.got.cif
#   From: 2010.05.17/outbox.cif.g08.bks.cpg/sg20_4_cif.got.tgz:6493.got - 2010.06.03 22:52:26.
