data_PCOD9318302
_publ_section_title
;
Structure prediction by ZEFSAII (Michael W. Deem and Ramdas Pophale) SiO2 
 PCOD9318302
Probable space group: C 2 2 21
;
_chemical_formula_sum "Si O2"
_cell_formula_units_Z 64
_cell_length_a 10.450854
_cell_length_b 12.878634
_cell_length_c 21.871499
_cell_angle_alpha 90.000000
_cell_angle_beta 90.000000
_cell_angle_gamma 90.000000
_cell_volume 2943.744621
_symmetry_space_group_name_H-M "C 2 2 21"
_symmetry_group_IT_number 20
_symmetry_cell_setting 'orthorhombic'
loop_
_space_group_symop_operation_xyz
x,y,z
-x,-y,1/2+z
x,-y,-z
-x,y,1/2-z
1/2+x,1/2+y,z
1/2-x,1/2-y,1/2+z
1/2+x,1/2-y,-z
1/2-x,1/2+y,1/2-z
loop_
_atom_site_type_symbol
_atom_site_label
_atom_site_fract_x
_atom_site_fract_y
_atom_site_fract_z
Si Si1 0.426957 0.915918 0.139938
Si Si2 0.931445 0.990961 0.184605
Si Si3 0.797132 0.209984 0.185110
Si Si4 0.459762 0.874576 0.627378
Si Si5 0.980941 0.329198 0.008943
Si Si6 0.171038 0.979344 0.099097
Si Si7 0.874137 0.231397 0.794328
Si Si8 0.297637 0.672985 0.488606
O O1 0.399407 0.800493 0.167119
O O2 0.284835 0.963291 0.147093
O O3 0.525751 0.009030 0.156910
O O4 0.452015 0.899975 0.067488
O O5 0.859129 0.098088 0.180018
O O6 0.000000 0.990944 0.250000
O O7 0.851286 0.884639 0.181596
O O8 0.037836 0.986626 0.132521
O O9 0.667037 0.191924 0.144802
O O10 0.743393 0.232374 0.252920
O O11 0.472107 0.880459 0.554158
O O12 0.580117 0.808963 0.653110
O O13 0.842930 0.278186 0.994552
O O14 0.091067 0.250822 0.028034
O O15 0.204692 0.079944 0.059735
O O16 0.169455 0.882222 0.052915
O O17 0.000000 0.228443 0.750000
#
# Coordination Sequence:
#
# PCOD9318302 Si02
#       8
#     8   8   8   8   8   8   8   8
#     4  11  22  41  67  92 137 174 222 275 340 416
#     4  11  23  42  66  94 128 169 226 277 335 407
#     4  11  25  43  65  99 137 172 221 294 342 402
#     4  11  22  42  68  94 130 182 223 270 347 425
#     4  11  21  39  63  98 128 177 218 280 343 406
#     4  10  20  39  63  88 121 176 215 260 329 403
#     4   9  21  41  66  89 122 173 217 268 342 401
#     4  10  21  37  64  89 130 167 223 266 332 410
#
# _framework density 21.741018
#
# number of rings (size 3 to 8) (size 9 to 14) (size 15 to 20)
#    0.000    1.500    1.250    5.625    3.500    0.000 
#    6.750    0.000    0.000    0.000    0.000    0.000 
#    0.000    0.000    0.000    0.000    0.000    0.000 
#
# Total GULP energy -178581.360339 kJ/mol
# GULP energy per Si atom -5580.667511 kJ/mol
# Density = 2.169153 g / cm^3
# Si number density = 21.741018 Si / 1000 Ang^3
#
#
#
# Elastic Constant Matrix: (Units=GPa)
#
#
# Indices 1 2 3 4 5 6 
#
# 1 45.0037 16.3894 -15.0703 0.0000 0.0000 0.0000
# 2 16.3894 112.9731 -3.8246 0.0000 0.0000 0.0000
# 3 -15.0703 -3.8246 21.6666 0.0000 0.0000 0.0000
# 4 0.0000 0.0000 0.0000 18.7667 0.0000 0.0000
# 5 0.0000 0.0000 0.0000 0.0000 22.3804 0.0000
# 6 0.0000 0.0000 0.0000 0.0000 0.0000 39.7475
#
#
#
# Elastic Compliance Matrix: (Units=1/GPa)
#
#
# Indices 1 2 3 4 5 6 
#
# 1 0.030448 -0.003722 0.020521 0.000000 0.000000 0.000000
# 2 -0.003722 0.009360 -0.000937 0.000000 0.000000 0.000000
# 3 0.020521 -0.000937 0.060262 0.000000 0.000000 0.000000
# 4 0.000000 0.000000 0.000000 0.053286 0.000000 0.000000
# 5 0.000000 0.000000 0.000000 0.000000 0.044682 0.000000
# 6 0.000000 0.000000 0.000000 0.000000 0.000000 0.025159
#
#
# Mechanical properties :
#
#
# Convention : Reuss Voigt Hill
#
# Bulk Modulus (GPa) = 7.58763 19.40360 13.49561
# Shear Modulus (GPa) = 21.24003 28.32217 24.78110
#
# Velocity S-wave (km/s) = 3.12902 3.61322 3.37980
# Velocity P-wave (km/s) = 4.06841 5.13336 4.63159
#
# Compressibility (1/GPa) = 0.13179343
#
# Stress axis : x y z
#
# Youngs Moduli (GPa) = 32.84298 106.83794 16.59416
#
# Poissons Ratio (x) = 0.39770 -0.34053
# Poissons Ratio (y) = 0.12226 0.01555
# Poissons Ratio (z) = -0.67397 0.10010
#
# Static dielectric constant tensor:
#      x y z
#    x 1.839960 0.000000 0.000000 
#    y 0.000000 1.824920 0.000000 
#    z 0.000000 0.000000 1.803120 
# 
# From -- ./inp_files/29157.got.cif
#   From: 2010.05.17/outbox.cif.g08.bks.cpg/sg20_15_cif.got.tgz:29157.got - 2010.06.03 22:52:26.
