data_PCOD9318420
_publ_section_title
;
Structure prediction by ZEFSAII (Michael W. Deem and Ramdas Pophale) SiO2 
 PCOD9318420
Probable space group: C 2 2 21
;
_chemical_formula_sum "Si O2"
_cell_formula_units_Z 52
_cell_length_a 8.054002
_cell_length_b 14.501941
_cell_length_c 21.000341
_cell_angle_alpha 90.000000
_cell_angle_beta 90.000000
_cell_angle_gamma 90.000000
_cell_volume 2452.811727
_symmetry_space_group_name_H-M "C 2 2 21"
_symmetry_group_IT_number 20
_symmetry_cell_setting 'orthorhombic'
loop_
_space_group_symop_operation_xyz
x,y,z
-x,-y,1/2+z
x,-y,-z
-x,y,1/2-z
1/2+x,1/2+y,z
1/2-x,1/2-y,1/2+z
1/2+x,1/2-y,-z
1/2-x,1/2+y,1/2-z
loop_
_atom_site_type_symbol
_atom_site_label
_atom_site_fract_x
_atom_site_fract_y
_atom_site_fract_z
Si Si1 0.985342 0.872075 0.322395
Si Si2 0.496819 0.052705 0.058501
Si Si3 0.608824 0.720937 0.082584
Si Si4 0.000000 0.472624 0.750000
Si Si5 0.997981 0.759696 0.054300
Si Si6 0.358997 0.090183 0.636143
Si Si7 0.717145 0.562623 0.166709
O O1 0.928579 0.808427 0.382373
O O2 0.174850 0.891318 0.340946
O O3 0.000000 0.833424 0.250000
O O4 0.880620 0.967423 0.321279
O O5 0.562255 0.154932 0.047661
O O6 0.353020 0.054255 0.110872
O O7 0.642215 0.985142 0.080584
O O8 0.416688 0.000000 0.000000
O O9 0.801665 0.744227 0.065989
O O10 0.548632 0.818421 0.111274
O O11 0.603409 0.644274 0.138293
O O12 0.529215 0.694386 0.014593
O O13 0.048653 0.540961 0.806348
O O14 0.163733 0.416778 0.727627
#
# Coordination Sequence:
#
# PCOD9318420 Si02
#       7
#     8   8   8   4   8   8   8
#     4  11  23  43  60  91 128 166 204 267 316 381
#     4  10  20  40  65  91 121 165 206 259 307 388
#     4  10  22  41  61  98 122 164 206 267 311 386
#     4  10  20  42  62  86 120 176 206 258 302 386
#     4  10  23  39  65  92 130 159 210 259 321 370
#     4  10  21  41  62  88 126 158 211 254 321 366
#     4  10  23  39  65  90 124 164 214 254 317 378
#
# _framework density 21.20016
#
# number of rings (size 3 to 8) (size 9 to 14) (size 15 to 20)
#    0.000    1.846    3.077    0.000    4.308    1.231 
#   23.538    0.000    0.000    0.000    0.000    0.000 
#    0.000    0.000    0.000    0.000    0.000    0.000 
#
# Total GULP energy -144801.576448 kJ/mol
# GULP energy per Si atom -5569.291402 kJ/mol
# Density = 2.115191 g / cm^3
# Si number density = 21.200160 Si / 1000 Ang^3
#
#
#
# Elastic Constant Matrix: (Units=GPa)
#
#
# Indices 1 2 3 4 5 6 
#
# 1 18.2770 -4.5279 -3.8477 0.0000 0.0000 0.0000
# 2 -4.5279 89.5384 42.4621 0.0000 0.0000 0.0000
# 3 -3.8477 42.4621 96.3652 0.0000 0.0000 0.0000
# 4 0.0000 0.0000 0.0000 33.9548 0.0000 0.0000
# 5 0.0000 0.0000 0.0000 0.0000 33.7477 0.0000
# 6 0.0000 0.0000 0.0000 0.0000 0.0000 20.9831
#
#
#
# Elastic Compliance Matrix: (Units=1/GPa)
#
#
# Indices 1 2 3 4 5 6 
#
# 1 0.055525 0.002220 0.001239 0.000000 0.000000 0.000000
# 2 0.002220 0.014208 -0.006172 0.000000 0.000000 0.000000
# 3 0.001239 -0.006172 0.013146 0.000000 0.000000 0.000000
# 4 0.000000 0.000000 0.000000 0.029451 0.000000 0.000000
# 5 0.000000 0.000000 0.000000 0.000000 0.029632 0.000000
# 6 0.000000 0.000000 0.000000 0.000000 0.000000 0.047657
#
#
# Mechanical properties :
#
#
# Convention : Reuss Voigt Hill
#
# Bulk Modulus (GPa) = 12.91108 30.26151 21.58630
# Shear Modulus (GPa) = 22.63868 29.07673 25.85771
#
# Velocity S-wave (km/s) = 3.27135 3.70744 3.49620
# Velocity P-wave (km/s) = 4.51357 5.71244 5.14802
#
# Compressibility (1/GPa) = 0.07745283
#
# Stress axis : x y z
#
# Youngs Moduli (GPa) = 18.01007 70.38529 76.06802
#
# Poissons Ratio (x) = -0.15629 -0.09422
# Poissons Ratio (y) = -0.03999 0.46947
# Poissons Ratio (z) = -0.02231 0.43440
#
# Static dielectric constant tensor:
#      x y z
#    x 1.770750 0.000000 0.000000 
#    y 0.000000 1.842160 0.000000 
#    z 0.000000 0.000000 -8.603930 
# 
# From -- ./inp_files/26622.got.cif
#   From: 2010.05.17/outbox.cif.g08.bks.cpg/sg20_14_cif.got.tgz:26622.got - 2010.06.03 22:52:26.
