data_PCOD9318214
_publ_section_title
;
Structure prediction by ZEFSAII (Michael W. Deem and Ramdas Pophale) SiO2 
 PCOD9318214
Probable space group: C 2 2 21
;
_chemical_formula_sum "Si O2"
_cell_formula_units_Z 32
_cell_length_a 5.527271
_cell_length_b 30.614498
_cell_length_c 8.556568
_cell_angle_alpha 90.000000
_cell_angle_beta 90.000000
_cell_angle_gamma 90.000000
_cell_volume 1447.896462
_symmetry_space_group_name_H-M "C 2 2 21"
_symmetry_group_IT_number 20
_symmetry_cell_setting 'orthorhombic'
loop_
_space_group_symop_operation_xyz
x,y,z
-x,-y,1/2+z
x,-y,-z
-x,y,1/2-z
1/2+x,1/2+y,z
1/2-x,1/2-y,1/2+z
1/2+x,1/2-y,-z
1/2-x,1/2+y,1/2-z
loop_
_atom_site_type_symbol
_atom_site_label
_atom_site_fract_x
_atom_site_fract_y
_atom_site_fract_z
Si Si1 0.249051 0.232581 0.848598
Si Si2 0.542241 0.820626 0.934517
Si Si3 0.348320 0.000000 0.000000
Si Si4 0.130137 0.416447 0.921538
Si Si5 0.000000 0.033662 0.250000
O O1 0.500000 0.233686 0.750000
O O2 0.220652 0.278952 0.937652
O O3 0.000000 0.226690 0.750000
O O4 0.303192 0.194782 0.974122
O O5 0.500000 0.825114 0.750000
O O6 0.625767 0.868054 0.991471
O O7 0.501989 0.044326 0.987803
O O8 0.192734 0.005026 0.157647
O O9 0.393539 0.434430 0.881716
O O10 0.000000 0.415017 0.750000
#
# Coordination Sequence:
#
# PCOD9318214 Si02
#       5
#     8   8   4   8   4
#     4  11  24  43  65 101 145 179 226 292 347 400
#     4  10  21  41  67  94 128 185 228 277 337 416
#     4  10  20  40  60  94 130 160 220 270 334 394
#     4   9  20  38  63  93 125 166 228 267 324 404
#     4  10  20  38  64  94 126 172 210 278 326 398
#
# _framework density 22.101027999999999
#
# number of rings (size 3 to 8) (size 9 to 14) (size 15 to 20)
#    0.000    2.000    0.000    3.750    1.750    0.000 
#   15.750    3.750    0.000    0.000    0.000    0.000 
#    0.000    0.000    0.000    0.000    0.000    0.000 
#
# Total GULP energy -89243.489104 kJ/mol
# GULP energy per Si atom -5577.718069 kJ/mol
# Density = 2.205073 g / cm^3
# Si number density = 22.101028 Si / 1000 Ang^3
#
#
#
# Elastic Constant Matrix: (Units=GPa)
#
#
# Indices 1 2 3 4 5 6 
#
# 1 120.4556 65.0909 51.5373 0.0000 0.0000 0.0000
# 2 65.0909 201.3078 61.8995 0.0000 0.0000 0.0000
# 3 51.5373 61.8995 64.7180 0.0000 0.0000 0.0000
# 4 0.0000 0.0000 0.0000 21.7496 0.0000 0.0000
# 5 0.0000 0.0000 0.0000 0.0000 35.5364 0.0000
# 6 0.0000 0.0000 0.0000 0.0000 0.0000 4.9878
#
#
#
# Elastic Compliance Matrix: (Units=1/GPa)
#
#
# Indices 1 2 3 4 5 6 
#
# 1 0.012877 -0.001432 -0.008885 0.000000 0.000000 0.000000
# 2 -0.001432 0.007196 -0.005743 0.000000 0.000000 0.000000
# 3 -0.008885 -0.005743 0.028020 0.000000 0.000000 0.000000
# 4 0.000000 0.000000 0.000000 0.045978 0.000000 0.000000
# 5 0.000000 0.000000 0.000000 0.000000 0.028140 0.000000
# 6 0.000000 0.000000 0.000000 0.000000 0.000000 0.200488
#
#
# Mechanical properties :
#
#
# Convention : Reuss Voigt Hill
#
# Bulk Modulus (GPa) = 62.60167 82.61522 72.60845
# Shear Modulus (GPa) = 13.88337 26.31833 20.10085
#
# Velocity S-wave (km/s) = 2.50907 3.45457 3.01906
# Velocity P-wave (km/s) = 6.06470 7.30575 6.71396
#
# Compressibility (1/GPa) = 0.01597401
#
# Stress axis : x y z
#
# Youngs Moduli (GPa) = 77.65818 138.96129 35.68883
#
# Poissons Ratio (x) = 0.19893 0.31710
# Poissons Ratio (y) = 0.11117 0.20496
# Poissons Ratio (z) = 0.69001 0.79803
#
# Static dielectric constant tensor:
#      x y z
#    x 1.886090 0.000000 0.000000 
#    y 0.000000 1.798640 0.000000 
#    z 0.000000 0.000000 1.857610 
# 
# From -- ./inp_files/5162.got.cif
#   From: 2010.05.17/outbox.cif.g08.bks.cpg/sg20_3_cif.got.tgz:5162.got - 2010.06.03 22:52:26.
