data_PCOD9318063
_publ_section_title
;
Structure prediction by ZEFSAII (Michael W. Deem and Ramdas Pophale) SiO2 
 PCOD9318063
Probable space group: C 2 2 21
;
_chemical_formula_sum "Si O2"
_cell_formula_units_Z 36
_cell_length_a 7.586333
_cell_length_b 17.428345
_cell_length_c 12.982722
_cell_angle_alpha 90.000000
_cell_angle_beta 90.000000
_cell_angle_gamma 90.000000
_cell_volume 1716.539525
_symmetry_space_group_name_H-M "C 2 2 21"
_symmetry_group_IT_number 20
_symmetry_cell_setting 'orthorhombic'
loop_
_space_group_symop_operation_xyz
x,y,z
-x,-y,1/2+z
x,-y,-z
-x,y,1/2-z
1/2+x,1/2+y,z
1/2-x,1/2-y,1/2+z
1/2+x,1/2-y,-z
1/2-x,1/2+y,1/2-z
loop_
_atom_site_type_symbol
_atom_site_label
_atom_site_fract_x
_atom_site_fract_y
_atom_site_fract_z
Si Si1 0.313396 0.382543 0.798637
Si Si2 0.996258 0.842097 0.007485
Si Si3 0.983655 0.447796 0.591922
Si Si4 0.676623 0.500000 0.000000
Si Si5 0.163554 0.291922 0.610452
O O1 0.500000 0.408903 0.750000
O O2 0.365960 0.349290 0.909959
O O3 0.161548 0.445270 0.819159
O O4 0.229673 0.319196 0.722503
O O5 0.060109 0.927908 0.030500
O O6 0.168880 0.799308 0.964092
O O7 0.915368 0.792032 0.098331
O O8 0.906441 0.500000 0.500000
O O9 0.185560 0.479523 0.592061
O O10 0.026088 0.357686 0.573733
#
# Coordination Sequence:
#
# PCOD9318063 Si02
#       5
#     8   8   8   4   8
#     4  10  21  36  64 100 132 173 223 275 340 399
#     4  10  20  38  64 101 133 178 225 275 339 406
#     4   9  19  37  62  91 126 171 221 272 341 388
#     4   8  20  36  64 100 130 170 226 276 344 396
#     4  10  20  37  65  97 132 177 224 273 333 405
#
# _framework density 20.972425999999999
#
# number of rings (size 3 to 8) (size 9 to 14) (size 15 to 20)
#    0.667    1.778    0.000    2.000    1.556    0.000 
#    0.000    0.000    4.889   10.667   11.556    0.000 
#    0.000    0.000    0.000    0.000    0.000    0.000 
#
# Total GULP energy -100224.940359 kJ/mol
# GULP energy per Si atom -5568.052242 kJ/mol
# Density = 2.092469 g / cm^3
# Si number density = 20.972426 Si / 1000 Ang^3
#
#
#
# Elastic Constant Matrix: (Units=GPa)
#
#
# Indices 1 2 3 4 5 6 
#
# 1 140.4985 69.6267 48.6782 0.0000 0.0000 0.0000
# 2 69.6267 139.3267 52.0885 0.0000 0.0000 0.0000
# 3 48.6782 52.0885 72.6830 0.0000 0.0000 0.0000
# 4 0.0000 0.0000 0.0000 33.5224 0.0000 0.0000
# 5 0.0000 0.0000 0.0000 0.0000 31.1445 0.0000
# 6 0.0000 0.0000 0.0000 0.0000 0.0000 20.4663
#
#
#
# Elastic Compliance Matrix: (Units=1/GPa)
#
#
# Indices 1 2 3 4 5 6 
#
# 1 0.010410 -0.003546 -0.004431 0.000000 0.000000 0.000000
# 2 -0.003546 0.011012 -0.005517 0.000000 0.000000 0.000000
# 3 -0.004431 -0.005517 0.020680 0.000000 0.000000 0.000000
# 4 0.000000 0.000000 0.000000 0.029831 0.000000 0.000000
# 5 0.000000 0.000000 0.000000 0.000000 0.032108 0.000000
# 6 0.000000 0.000000 0.000000 0.000000 0.000000 0.048861
#
#
# Mechanical properties :
#
#
# Convention : Reuss Voigt Hill
#
# Bulk Modulus (GPa) = 66.16242 77.03277 71.59759
# Shear Modulus (GPa) = 27.03781 29.16762 28.10271
#
# Velocity S-wave (km/s) = 3.59445 3.73334 3.66455
# Velocity P-wave (km/s) = 6.98875 7.44271 7.21930
#
# Compressibility (1/GPa) = 0.01511432
#
# Stress axis : x y z
#
# Youngs Moduli (GPa) = 96.06386 90.81113 48.35683
#
# Poissons Ratio (x) = 0.32199 0.21426
# Poissons Ratio (y) = 0.34061 0.26679
# Poissons Ratio (z) = 0.42563 0.50101
#
# Static dielectric constant tensor:
#      x y z
#    x 1.849080 0.000000 0.000000 
#    y 0.000000 1.736470 0.000000 
#    z 0.000000 0.000000 1.810630 
# 
# From -- ./inp_files/18636.got.cif
#   From: 2010.05.17/outbox.cif.g08.bks.cpg/sg20_10_cif.got.tgz:18636.got - 2010.06.03 22:52:26.
