data_PCOD9318208
_publ_section_title
;
Structure prediction by ZEFSAII (Michael W. Deem and Ramdas Pophale) SiO2 
 PCOD9318208
Probable space group: C 2 2 21
;
_chemical_formula_sum "Si O2"
_cell_formula_units_Z 64
_cell_length_a 11.944043
_cell_length_b 27.263935
_cell_length_c 8.952951
_cell_angle_alpha 90.000000
_cell_angle_beta 90.000000
_cell_angle_gamma 90.000000
_cell_volume 2915.453396
_symmetry_space_group_name_H-M "C 2 2 21"
_symmetry_group_IT_number 20
_symmetry_cell_setting 'orthorhombic'
loop_
_space_group_symop_operation_xyz
x,y,z
-x,-y,1/2+z
x,-y,-z
-x,y,1/2-z
1/2+x,1/2+y,z
1/2-x,1/2-y,1/2+z
1/2+x,1/2-y,-z
1/2-x,1/2+y,1/2-z
loop_
_atom_site_type_symbol
_atom_site_label
_atom_site_fract_x
_atom_site_fract_y
_atom_site_fract_z
Si Si1 0.429944 0.862854 0.536753
Si Si2 0.469223 0.693210 0.914097
Si Si3 0.891797 0.262695 0.401193
Si Si4 0.623306 0.407210 0.823605
Si Si5 0.340141 0.843924 0.863888
Si Si6 0.249340 0.945277 0.542982
Si Si7 0.681483 0.747824 0.437857
Si Si8 0.010520 0.921551 0.414174
O O1 0.422455 0.819639 0.415251
O O2 0.379205 0.840545 0.691962
O O3 0.559982 0.876779 0.564457
O O4 0.350443 0.908755 0.508733
O O5 0.500000 0.712186 0.750000
O O6 0.508253 0.637540 0.917109
O O7 0.504915 0.727319 0.054848
O O8 0.339525 0.698201 0.961185
O O9 0.814457 0.247813 0.539850
O O10 0.843050 0.251128 0.238449
O O11 0.500000 0.391814 0.750000
O O12 0.712229 0.364089 0.867177
O O13 0.700439 0.438131 0.710543
O O14 0.579225 0.438219 0.964152
O O15 0.353570 0.793874 0.956627
O O16 0.137897 0.930615 0.454819
O O17 0.280360 0.000000 0.500000
O O18 0.000000 0.942038 0.250000
#
# Coordination Sequence:
#
# PCOD9318208 Si02
#       8
#     8   8   8   8   8   8   8   8
#     4  10  21  39  64  91 127 172 223 274 344 405
#     4  11  22  38  57  88 129 169 217 267 327 407
#     4  12  24  37  57  88 127 175 221 271 330 400
#     4   9  20  39  65  95 125 163 218 275 340 406
#     4  10  20  38  64  91 125 172 218 279 337 404
#     4  10  22  41  66  94 126 169 222 280 343 413
#     4  12  24  36  56  86 127 172 223 268 333 398
#     4  10  22  38  62  94 129 171 219 280 343 403
#
# _framework density 21.951988
#
# number of rings (size 3 to 8) (size 9 to 14) (size 15 to 20)
#    0.000    1.500    1.250    4.125    0.000   10.500 
#    0.000    0.000    0.000   15.000    0.000    0.000 
#    0.000    0.000    0.000    0.000    0.000    0.000 
#
# Total GULP energy -178278.878834 kJ/mol
# GULP energy per Si atom -5571.214964 kJ/mol
# Density = 2.190202 g / cm^3
# Si number density = 21.951988 Si / 1000 Ang^3
#
#
#
# Elastic Constant Matrix: (Units=GPa)
#
#
# Indices 1 2 3 4 5 6 
#
# 1 53.3328 8.9600 8.4774 0.0000 0.0000 0.0000
# 2 8.9600 67.7583 5.6450 0.0000 0.0000 0.0000
# 3 8.4774 5.6450 91.6215 0.0000 0.0000 0.0000
# 4 0.0000 0.0000 0.0000 40.8857 0.0000 0.0000
# 5 0.0000 0.0000 0.0000 0.0000 7.5697 0.0000
# 6 0.0000 0.0000 0.0000 0.0000 0.0000 -16.7228
#
#
#
# Elastic Compliance Matrix: (Units=1/GPa)
#
#
# Indices 1 2 3 4 5 6 
#
# 1 0.019420 -0.002431 -0.001647 0.000000 0.000000 0.000000
# 2 -0.002431 0.015139 -0.000708 0.000000 0.000000 0.000000
# 3 -0.001647 -0.000708 0.011110 0.000000 0.000000 0.000000
# 4 0.000000 0.000000 0.000000 0.024458 0.000000 0.000000
# 5 0.000000 0.000000 0.000000 0.000000 0.132105 0.000000
# 6 0.000000 0.000000 0.000000 0.000000 0.000000 -0.059799
#
#
# Mechanical properties :
#
#
# Convention : Reuss Voigt Hill
#
# Bulk Modulus (GPa) = 27.70231 28.76415 28.23323
# Shear Modulus (GPa) = 30.48066 18.98855 24.73461
#
# Velocity S-wave (km/s) = 3.73032 2.94428 3.36037
# Velocity P-wave (km/s) = 5.58575 4.96891 5.28634
#
# Compressibility (1/GPa) = 0.03609807
#
# Stress axis : x y z
#
# Youngs Moduli (GPa) = 51.49231 66.05565 90.00511
#
# Poissons Ratio (x) = 0.16057 0.14825
# Poissons Ratio (y) = 0.12517 0.06371
# Poissons Ratio (z) = 0.08481 0.04676
#
# Static dielectric constant tensor:
#      x y z
#    x 1.669270 0.000000 0.000000 
#    y 0.000000 1.860640 0.000000 
#    z 0.000000 0.000000 1.848180 
# 
# From -- ./inp_files/7658.got.cif
#   From: 2010.05.17/outbox.cif.g08.bks.cpg/sg20_4_cif.got.tgz:7658.got - 2010.06.03 22:52:26.
