data_PCOD9318076
_publ_section_title
;
Structure prediction by ZEFSAII (Michael W. Deem and Ramdas Pophale) SiO2 
 PCOD9318076
Probable space group: C 2 2 21
;
_chemical_formula_sum "Si O2"
_cell_formula_units_Z 52
_cell_length_a 17.242158
_cell_length_b 9.376537
_cell_length_c 13.845423
_cell_angle_alpha 90.000000
_cell_angle_beta 90.000000
_cell_angle_gamma 90.000000
_cell_volume 2238.413523
_symmetry_space_group_name_H-M "C 2 2 21"
_symmetry_group_IT_number 20
_symmetry_cell_setting 'orthorhombic'
loop_
_space_group_symop_operation_xyz
x,y,z
-x,-y,1/2+z
x,-y,-z
-x,y,1/2-z
1/2+x,1/2+y,z
1/2-x,1/2-y,1/2+z
1/2+x,1/2-y,-z
1/2-x,1/2+y,1/2-z
loop_
_atom_site_type_symbol
_atom_site_label
_atom_site_fract_x
_atom_site_fract_y
_atom_site_fract_z
Si Si1 0.469968 0.549746 0.141584
Si Si2 0.649969 0.018015 0.364191
Si Si3 0.099827 0.000000 0.000000
Si Si4 0.791921 0.192852 0.603142
Si Si5 0.831352 0.484443 0.366235
Si Si6 0.501700 0.131779 0.867769
Si Si7 0.673674 0.341934 0.333409
O O1 0.500000 0.558278 0.250000
O O2 0.471514 0.711527 0.101816
O O3 0.391282 0.458956 0.137417
O O4 0.541130 0.479125 0.087090
O O5 0.659961 0.186250 0.377796
O O6 0.712056 0.899796 0.401077
O O7 0.655012 0.004449 0.248215
O O8 0.564202 0.977990 0.396082
O O9 0.156983 0.131161 0.984365
O O10 0.800634 0.363107 0.595745
O O11 0.821858 0.161696 0.714708
O O12 0.757879 0.383135 0.371643
O O13 0.912851 0.416969 0.400714
O O14 0.500000 0.134846 0.750000
#
# Coordination Sequence:
#
# PCOD9318076 Si02
#       7
#     8   8   4   8   8   8   8
#     4  11  23  41  67  94 136 178 222 278 339 392
#     4   9  19  34  63  99 130 164 218 267 324 397
#     4  12  26  40  66 102 132 172 232 276 328 402
#     4  10  21  39  62  94 136 172 216 274 328 391
#     4   9  19  35  64  97 130 169 217 264 327 398
#     4   9  19  35  63  99 130 169 218 267 328 398
#     4  10  20  37  68  98 128 174 221 267 332 393
#
# _framework density 23.230739
#
# number of rings (size 3 to 8) (size 9 to 14) (size 15 to 20)
#    0.000    2.154    1.538    0.923    4.308    4.308 
#    0.000    3.846    0.000    0.000    0.000    0.000 
#    0.000    0.000    0.000    0.000    0.000    0.000 
#
# Total GULP energy -145043.673515 kJ/mol
# GULP energy per Si atom -5578.602827 kJ/mol
# Density = 2.317786 g / cm^3
# Si number density = 23.230739 Si / 1000 Ang^3
#
#
#
# Elastic Constant Matrix: (Units=GPa)
#
#
# Indices 1 2 3 4 5 6 
#
# 1 215.5097 133.3984 14.6872 0.0000 0.0000 0.0000
# 2 133.3984 189.6286 -3.3184 0.0000 0.0000 0.0000
# 3 14.6872 -3.3184 59.5038 0.0000 0.0000 0.0000
# 4 0.0000 0.0000 0.0000 14.7288 0.0000 0.0000
# 5 0.0000 0.0000 0.0000 0.0000 4.9824 0.0000
# 6 0.0000 0.0000 0.0000 0.0000 0.0000 34.5558
#
#
#
# Elastic Compliance Matrix: (Units=1/GPa)
#
#
# Indices 1 2 3 4 5 6 
#
# 1 0.008562 -0.006066 -0.002452 0.000000 0.000000 0.000000
# 2 -0.006066 0.009576 0.002031 0.000000 0.000000 0.000000
# 3 -0.002452 0.002031 0.017524 0.000000 0.000000 0.000000
# 4 0.000000 0.000000 0.000000 0.067894 0.000000 0.000000
# 5 0.000000 0.000000 0.000000 0.000000 0.200706 0.000000
# 6 0.000000 0.000000 0.000000 0.000000 0.000000 0.028939
#
#
# Mechanical properties :
#
#
# Convention : Reuss Voigt Hill
#
# Bulk Modulus (GPa) = 44.07295 83.79740 63.93517
# Shear Modulus (GPa) = 14.13478 32.17838 23.15658
#
# Velocity S-wave (km/s) = 2.46936 3.72582 3.16065
# Velocity P-wave (km/s) = 5.20992 7.39317 6.39540
#
# Compressibility (1/GPa) = 0.02268966
#
# Stress axis : x y z
#
# Youngs Moduli (GPa) = 116.79364 104.42386 57.06441
#
# Poissons Ratio (x) = 0.63345 0.13990
# Poissons Ratio (y) = 0.70848 -0.11592
# Poissons Ratio (z) = 0.28634 -0.21212
#
# Static dielectric constant tensor:
#      x y z
#    x 1.836200 0.000000 0.000000 
#    y 0.000000 1.888910 0.000000 
#    z 0.000000 0.000000 1.869330 
# 
# From -- ./inp_files/25242.got.cif
#   From: 2010.05.17/outbox.cif.g08.bks.cpg/sg20_13_cif.got.tgz:25242.got - 2010.06.03 22:52:26.
