data_PCOD9318260
_publ_section_title
;
Structure prediction by ZEFSAII (Michael W. Deem and Ramdas Pophale) SiO2 
 PCOD9318260
Probable space group: C 2 2 21
;
_chemical_formula_sum "Si O2"
_cell_formula_units_Z 52
_cell_length_a 8.284751
_cell_length_b 18.233276
_cell_length_c 15.644520
_cell_angle_alpha 90.000000
_cell_angle_beta 90.000000
_cell_angle_gamma 90.000000
_cell_volume 2363.232273
_symmetry_space_group_name_H-M "C 2 2 21"
_symmetry_group_IT_number 20
_symmetry_cell_setting 'orthorhombic'
loop_
_space_group_symop_operation_xyz
x,y,z
-x,-y,1/2+z
x,-y,-z
-x,y,1/2-z
1/2+x,1/2+y,z
1/2-x,1/2-y,1/2+z
1/2+x,1/2-y,-z
1/2-x,1/2+y,1/2-z
loop_
_atom_site_type_symbol
_atom_site_label
_atom_site_fract_x
_atom_site_fract_y
_atom_site_fract_z
Si Si1 0.011718 0.140459 0.382538
Si Si2 0.040655 0.500000 0.500000
Si Si3 0.326640 0.694103 0.717754
Si Si4 0.152881 0.990442 0.804959
Si Si5 0.656761 0.949028 0.849008
Si Si6 0.500000 0.165622 0.250000
Si Si7 0.000000 0.728308 0.750000
Si Si8 0.689338 0.391024 0.048528
O O1 0.880552 0.093169 0.329987
O O2 0.021315 0.218211 0.333233
O O3 0.940915 0.135043 0.478552
O O4 0.179052 0.093819 0.377113
O O5 0.922681 0.500244 0.419087
O O6 0.151772 0.573627 0.504231
O O7 0.500000 0.664082 0.750000
O O8 0.350818 0.779218 0.743479
O O9 0.157002 0.677208 0.761197
O O10 0.301581 0.673799 0.618743
O O11 0.300238 0.990658 0.739172
O O12 0.000000 0.013070 0.750000
O O13 0.150812 0.039609 0.889208
O O14 0.524572 0.886694 0.829609
#
# Coordination Sequence:
#
# PCOD9318260 Si02
#       8
#     8   4   8   8   8   4   4   8
#     4  11  21  43  72  95 135 184 238 284 361 427
#     4  12  28  38  68 112 148 172 228 312 368 422
#     4  10  25  46  71  98 139 187 242 290 352 427
#     4  10  20  38  71  94 128 183 227 284 349 419
#     4  11  23  42  72 102 135 187 234 290 360 435
#     4  10  20  46  68  92 134 180 238 276 340 436
#     4  12  22  50  72 102 132 194 246 282 356 442
#     4  12  25  45  62 107 141 179 227 306 351 423
#
# _framework density 22.003761999999998
#
# number of rings (size 3 to 8) (size 9 to 14) (size 15 to 20)
#    0.462    0.615    5.385    1.385    6.462    1.231 
#    8.308    0.000    0.000    0.000    0.000    0.000 
#    0.000    0.000    0.000    0.000    0.000    0.000 
#
# Total GULP energy -144734.972941 kJ/mol
# GULP energy per Si atom -5566.729729 kJ/mol
# Density = 2.195368 g / cm^3
# Si number density = 22.003762 Si / 1000 Ang^3
#
#
#
# Elastic Constant Matrix: (Units=GPa)
#
#
# Indices 1 2 3 4 5 6 
#
# 1 138.8493 27.1807 57.3490 0.0000 0.0000 0.0000
# 2 27.1807 60.8307 25.5949 0.0000 0.0000 0.0000
# 3 57.3490 25.5949 109.6135 0.0000 0.0000 0.0000
# 4 0.0000 0.0000 0.0000 10.6648 0.0000 0.0000
# 5 0.0000 0.0000 0.0000 0.0000 50.9257 0.0000
# 6 0.0000 0.0000 0.0000 0.0000 0.0000 -19.8329
#
#
#
# Elastic Compliance Matrix: (Units=1/GPa)
#
#
# Indices 1 2 3 4 5 6 
#
# 1 0.009490 -0.002386 -0.004408 0.000000 0.000000 0.000000
# 2 -0.002386 0.018830 -0.003149 0.000000 0.000000 0.000000
# 3 -0.004408 -0.003149 0.012164 0.000000 0.000000 0.000000
# 4 0.000000 0.000000 0.000000 0.093766 0.000000 0.000000
# 5 0.000000 0.000000 0.000000 0.000000 0.019636 0.000000
# 6 0.000000 0.000000 0.000000 0.000000 0.000000 -0.050421
#
#
# Mechanical properties :
#
#
# Convention : Reuss Voigt Hill
#
# Bulk Modulus (GPa) = 48.54473 58.83811 53.69142
# Shear Modulus (GPa) = 38.39769 21.62944 30.01356
#
# Velocity S-wave (km/s) = 4.18191 3.13867 3.69727
# Velocity P-wave (km/s) = 6.74001 6.31926 6.53302
#
# Compressibility (1/GPa) = 0.02059956
#
# Stress axis : x y z
#
# Youngs Moduli (GPa) = 105.37818 53.10725 82.20743
#
# Poissons Ratio (x) = 0.12669 0.36236
# Poissons Ratio (y) = 0.25139 0.25884
# Poissons Ratio (z) = 0.46449 0.16722
#
# Static dielectric constant tensor:
#      x y z
#    x 1.946490 0.000000 0.000000 
#    y 0.000000 1.846460 0.000000 
#    z 0.000000 0.000000 1.828750 
# 
# From -- ./inp_files/19158.got.cif
#   From: 2010.05.17/outbox.cif.g08.bks.cpg/sg20_10_cif.got.tgz:19158.got - 2010.06.03 22:52:26.
