data_PCOD9318071
_publ_section_title
;
Structure prediction by ZEFSAII (Michael W. Deem and Ramdas Pophale) SiO2 
 PCOD9318071
Probable space group: C 2 2 21
;
_chemical_formula_sum "Si O2"
_cell_formula_units_Z 40
_cell_length_a 10.492382
_cell_length_b 19.203758
_cell_length_c 7.784108
_cell_angle_alpha 90.000000
_cell_angle_beta 90.000000
_cell_angle_gamma 90.000000
_cell_volume 1568.444556
_symmetry_space_group_name_H-M "C 2 2 21"
_symmetry_group_IT_number 20
_symmetry_cell_setting 'orthorhombic'
loop_
_space_group_symop_operation_xyz
x,y,z
-x,-y,1/2+z
x,-y,-z
-x,y,1/2-z
1/2+x,1/2+y,z
1/2-x,1/2-y,1/2+z
1/2+x,1/2-y,-z
1/2-x,1/2+y,1/2-z
loop_
_atom_site_type_symbol
_atom_site_label
_atom_site_fract_x
_atom_site_fract_y
_atom_site_fract_z
Si Si1 0.552950 0.000000 0.000000
Si Si2 0.357172 0.619329 0.432774
Si Si3 0.021249 0.000000 0.500000
Si Si4 0.401328 0.863087 0.893479
Si Si5 0.428399 0.286998 0.063331
Si Si6 0.730460 0.593305 0.678989
O O1 0.457530 0.937726 0.946542
O O2 0.648854 0.044775 0.874014
O O3 0.426241 0.548315 0.394800
O O4 0.238531 0.631206 0.311103
O O5 0.465526 0.676734 0.444545
O O6 0.284768 0.607011 0.617313
O O7 0.109225 0.949384 0.390537
O O8 0.500000 0.842280 0.750000
O O9 0.400556 0.791146 0.001229
O O10 0.500000 0.293418 0.250000
O O11 0.297691 0.331660 0.088622
#
# Coordination Sequence:
#
# PCOD9318071 Si02
#       6
#     4   8   4   8   8   8
#     4  11  25  36  60  90 131 159 204 266 302 383
#     4  10  20  37  67  86 127 166 203 257 316 376
#     4   9  17  34  62  98 111 157 202 254 300 373
#     4  11  25  39  59  92 128 165 209 259 320 373
#     4   8  18  40  63  88 115 164 210 252 303 374
#     4   9  20  39  63  91 123 160 209 252 314 375
#
# _framework density 25.502973999999998
#
# number of rings (size 3 to 8) (size 9 to 14) (size 15 to 20)
#    0.000    2.400    0.000    2.400    8.400    0.000 
#    0.000    0.000    0.000    0.000    0.000    0.000 
#    0.000    0.000    0.000    0.000    0.000    0.000 
#
# Total GULP energy -111563.935087 kJ/mol
# GULP energy per Si atom -5578.196754 kJ/mol
# Density = 2.544493 g / cm^3
# Si number density = 25.502974 Si / 1000 Ang^3
#
#
#
# Elastic Constant Matrix: (Units=GPa)
#
#
# Indices 1 2 3 4 5 6 
#
# 1 104.8929 50.8406 6.2707 0.0000 0.0000 0.0000
# 2 50.8406 206.6813 13.3189 0.0000 0.0000 0.0000
# 3 6.2707 13.3189 57.7755 0.0000 0.0000 0.0000
# 4 0.0000 0.0000 0.0000 449.8665 0.0000 0.0000
# 5 0.0000 0.0000 0.0000 0.0000 17.6478 0.0000
# 6 0.0000 0.0000 0.0000 0.0000 0.0000 26.2863
#
#
#
# Elastic Compliance Matrix: (Units=1/GPa)
#
#
# Indices 1 2 3 4 5 6 
#
# 1 0.010843 -0.002630 -0.000570 0.000000 0.000000 0.000000
# 2 -0.002630 0.005549 -0.000994 0.000000 0.000000 0.000000
# 3 -0.000570 -0.000994 0.017599 0.000000 0.000000 0.000000
# 4 0.000000 0.000000 0.000000 0.002223 0.000000 0.000000
# 5 0.000000 0.000000 0.000000 0.000000 0.056664 0.000000
# 6 0.000000 0.000000 0.000000 0.000000 0.000000 0.038043
#
#
# Mechanical properties :
#
#
# Convention : Reuss Voigt Hill
#
# Bulk Modulus (GPa) = 39.05918 56.69001 47.87460
# Shear Modulus (GPa) = 33.81933 118.68808 76.25370
#
# Velocity S-wave (km/s) = 3.64551 6.82934 5.47401
# Velocity P-wave (km/s) = 5.75051 9.19041 7.66590
#
# Compressibility (1/GPa) = 0.02560217
#
# Stress axis : x y z
#
# Youngs Moduli (GPa) = 92.22935 180.19840 56.82017
#
# Poissons Ratio (x) = 0.47398 0.03241
# Poissons Ratio (y) = 0.24260 0.05647
# Poissons Ratio (z) = 0.05261 0.17909
#
# Static dielectric constant tensor:
#      x y z
#    x -0.426130 0.000000 0.000000 
#    y 0.000000 2.034850 0.000000 
#    z 0.000000 0.000000 2.140090 
# 
# From -- ./inp_files/12925.got.cif
#   From: 2010.05.17/outbox.cif.g08.bks.cpg/sg20_7_cif.got.tgz:12925.got - 2010.06.03 22:52:26.
