data_PCOD9318894
_publ_section_title
;
Structure prediction by ZEFSAII (Michael W. Deem and Ramdas Pophale) SiO2 
 PCOD9318894
Probable space group: C 2 2 21
;
_chemical_formula_sum "Si O2"
_cell_formula_units_Z 56
_cell_length_a 14.476647
_cell_length_b 14.693621
_cell_length_c 12.827508
_cell_angle_alpha 90.000000
_cell_angle_beta 90.000000
_cell_angle_gamma 90.000000
_cell_volume 2728.595211
_symmetry_space_group_name_H-M "C 2 2 21"
_symmetry_group_IT_number 20
_symmetry_cell_setting 'orthorhombic'
loop_
_space_group_symop_operation_xyz
x,y,z
-x,-y,1/2+z
x,-y,-z
-x,y,1/2-z
1/2+x,1/2+y,z
1/2-x,1/2-y,1/2+z
1/2+x,1/2-y,-z
1/2-x,1/2+y,1/2-z
loop_
_atom_site_type_symbol
_atom_site_label
_atom_site_fract_x
_atom_site_fract_y
_atom_site_fract_z
Si Si1 0.733256 0.620766 0.747851
Si Si2 0.601939 0.896314 0.963842
Si Si3 0.105093 0.472836 0.741791
Si Si4 0.551255 0.378326 0.352813
Si Si5 0.872224 0.900946 0.466075
Si Si6 0.914894 0.318782 0.923778
Si Si7 0.277475 0.752617 0.423780
O O1 0.817689 0.550560 0.756268
O O2 0.656047 0.588981 0.662158
O O3 0.679597 0.627933 0.858143
O O4 0.765210 0.716070 0.696089
O O5 0.682043 0.839380 0.016766
O O6 0.613921 0.904428 0.839806
O O7 0.504202 0.847839 0.989139
O O8 0.599556 0.000000 0.000000
O O9 0.110528 0.408838 0.640998
O O10 0.000000 0.510465 0.750000
O O11 0.500000 0.411956 0.250000
O O12 0.482187 0.402939 0.445343
O O13 0.554770 0.267988 0.354488
O O14 0.847044 0.829182 0.554701
O O15 0.839524 0.000000 0.500000
O O16 0.820150 0.281132 0.971297
#
# Coordination Sequence:
#
# PCOD9318894 Si02
#       7
#     8   8   8   8   8   8   8
#     4  10  22  41  62  98 134 175 231 292 351 413
#     4  11  21  38  62  94 131 169 227 281 350 419
#     4  10  21  37  64  93 127 173 225 276 343 418
#     4   9  18  37  63  86 122 169 220 279 340 415
#     4  11  23  42  68  98 134 186 241 289 353 438
#     4  10  21  37  63  88 123 175 221 272 341 406
#     4  11  23  39  63  98 132 176 227 295 341 424
#
# _framework density 20.52338
#
# number of rings (size 3 to 8) (size 9 to 14) (size 15 to 20)
#    0.000    1.714    2.857    2.143    4.000    2.857 
#    5.143    0.000    0.000    6.000    0.000    0.000 
#    0.000    0.000    0.000    0.000    0.000    0.000 
#
# Total GULP energy -156092.001631 kJ/mol
# GULP energy per Si atom -5574.714344 kJ/mol
# Density = 2.047667 g / cm^3
# Si number density = 20.523380 Si / 1000 Ang^3
#
#
#
# Elastic Constant Matrix: (Units=GPa)
#
#
# Indices 1 2 3 4 5 6 
#
# 1 146.0915 55.3839 31.2559 0.0000 0.0000 0.0000
# 2 55.3839 92.9484 23.6960 0.0000 0.0000 0.0000
# 3 31.2559 23.6960 45.5493 0.0000 0.0000 0.0000
# 4 0.0000 0.0000 0.0000 17.9644 0.0000 0.0000
# 5 0.0000 0.0000 0.0000 0.0000 32.6513 0.0000
# 6 0.0000 0.0000 0.0000 0.0000 0.0000 24.6750
#
#
#
# Elastic Compliance Matrix: (Units=1/GPa)
#
#
# Indices 1 2 3 4 5 6 
#
# 1 0.009465 -0.004593 -0.004105 0.000000 0.000000 0.000000
# 2 -0.004593 0.014633 -0.004461 0.000000 0.000000 0.000000
# 3 -0.004105 -0.004461 0.027092 0.000000 0.000000 0.000000
# 4 0.000000 0.000000 0.000000 0.055666 0.000000 0.000000
# 5 0.000000 0.000000 0.000000 0.000000 0.030627 0.000000
# 6 0.000000 0.000000 0.000000 0.000000 0.000000 0.040527
#
#
# Mechanical properties :
#
#
# Convention : Reuss Voigt Hill
#
# Bulk Modulus (GPa) = 40.20682 56.14008 48.17345
# Shear Modulus (GPa) = 23.51661 26.67504 25.09582
#
# Velocity S-wave (km/s) = 3.38871 3.60910 3.50064
# Velocity P-wave (km/s) = 5.91138 6.69187 6.31369
#
# Compressibility (1/GPa) = 0.02487140
#
# Stress axis : x y z
#
# Youngs Moduli (GPa) = 105.65783 68.34081 36.91165
#
# Poissons Ratio (x) = 0.31388 0.15153
# Poissons Ratio (y) = 0.48528 0.16465
# Poissons Ratio (z) = 0.43374 0.30484
#
# Static dielectric constant tensor:
#      x y z
#    x 1.797160 0.000000 0.000000 
#    y 0.000000 1.708810 0.000000 
#    z 0.000000 0.000000 1.785870 
# 
# From -- ./inp_files/15137.got.cif
#   From: 2010.05.17/outbox.cif.g08.bks.cpg/sg20_8_cif.got.tgz:15137.got - 2010.06.03 22:52:26.
