data_PCOD9318871
_publ_section_title
;
Structure prediction by ZEFSAII (Michael W. Deem and Ramdas Pophale) SiO2 
 PCOD9318871
Probable space group: C 2 2 21
;
_chemical_formula_sum "Si O2"
_cell_formula_units_Z 64
_cell_length_a 20.528529
_cell_length_b 18.351694
_cell_length_c 8.599358
_cell_angle_alpha 90.000000
_cell_angle_beta 90.000000
_cell_angle_gamma 90.000000
_cell_volume 3239.664367
_symmetry_space_group_name_H-M "C 2 2 21"
_symmetry_group_IT_number 20
_symmetry_cell_setting 'orthorhombic'
loop_
_space_group_symop_operation_xyz
x,y,z
-x,-y,1/2+z
x,-y,-z
-x,y,1/2-z
1/2+x,1/2+y,z
1/2-x,1/2-y,1/2+z
1/2+x,1/2-y,-z
1/2-x,1/2+y,1/2-z
loop_
_atom_site_type_symbol
_atom_site_label
_atom_site_fract_x
_atom_site_fract_y
_atom_site_fract_z
Si Si1 0.568074 0.192272 0.901579
Si Si2 0.955652 0.245870 0.887914
Si Si3 0.787322 0.475520 0.318290
Si Si4 0.342553 0.201760 0.309084
Si Si5 0.370132 0.709976 0.153564
Si Si6 0.228086 0.893734 0.816821
Si Si7 0.433158 0.026229 0.676660
Si Si8 0.744988 0.829491 0.344077
O O1 0.580833 0.254551 0.777041
O O2 0.564320 0.113754 0.823940
O O3 0.504780 0.209582 0.003349
O O4 0.629200 0.193405 0.018992
O O5 0.904324 0.298908 0.803986
O O6 0.000000 0.211955 0.750000
O O7 0.911160 0.195513 0.997829
O O8 0.782545 0.500000 0.500000
O O9 0.736017 0.521482 0.217304
O O10 0.861353 0.492548 0.260167
O O11 0.773722 0.390591 0.282262
O O12 0.290633 0.140981 0.269495
O O13 0.304724 0.278332 0.292437
O O14 0.333708 0.642629 0.233078
O O15 0.315083 0.773214 0.126710
O O16 0.235263 0.868396 0.994609
O O17 0.500000 0.997138 0.750000
O O18 0.432878 0.000000 0.500000
#
# Coordination Sequence:
#
# PCOD9318871 Si02
#       8
#     8   8   8   8   8   8   8   8
#     4  11  21  39  60  87 124 161 208 259 308 369
#     4  10  22  36  60  90 124 157 200 257 308 378
#     4  11  25  40  59  88 122 167 213 257 314 385
#     4  10  21  37  59  92 120 156 206 259 318 368
#     4  11  21  38  62  91 122 161 210 264 319 371
#     4  11  23  37  62  88 123 163 207 263 316 374
#     4  11  24  39  56  81 124 175 209 247 294 365
#     4  11  22  38  61  86 126 165 206 266 320 375
#
# _framework density 19.755130999999999
#
# number of rings (size 3 to 8) (size 9 to 14) (size 15 to 20)
#    0.000    1.250    3.750    3.000    1.750    3.500 
#    0.000    0.000    0.000    0.000    0.000    8.750 
#    0.000    0.000    0.000    0.000    0.000    0.000 
#
# Total GULP energy -178715.482652 kJ/mol
# GULP energy per Si atom -5584.858833 kJ/mol
# Density = 1.971017 g / cm^3
# Si number density = 19.755131 Si / 1000 Ang^3
#
#
#
# Elastic Constant Matrix: (Units=GPa)
#
#
# Indices 1 2 3 4 5 6 
#
# 1 76.4125 25.1917 30.1482 0.0000 0.0000 0.0000
# 2 25.1917 66.8518 8.7114 0.0000 0.0000 0.0000
# 3 30.1482 8.7114 68.0154 0.0000 0.0000 0.0000
# 4 0.0000 0.0000 0.0000 25.8847 0.0000 0.0000
# 5 0.0000 0.0000 0.0000 0.0000 51.9953 0.0000
# 6 0.0000 0.0000 0.0000 0.0000 0.0000 18.8882
#
#
#
# Elastic Compliance Matrix: (Units=1/GPa)
#
#
# Indices 1 2 3 4 5 6 
#
# 1 0.017816 -0.005781 -0.007157 0.000000 0.000000 0.000000
# 2 -0.005781 0.017088 0.000374 0.000000 0.000000 0.000000
# 3 -0.007157 0.000374 0.017827 0.000000 0.000000 0.000000
# 4 0.000000 0.000000 0.000000 0.038633 0.000000 0.000000
# 5 0.000000 0.000000 0.000000 0.000000 0.019233 0.000000
# 6 0.000000 0.000000 0.000000 0.000000 0.000000 0.052943
#
#
# Mechanical properties :
#
#
# Convention : Reuss Voigt Hill
#
# Bulk Modulus (GPa) = 36.22730 37.70915 36.96823
# Shear Modulus (GPa) = 25.26918 29.16886 27.21902
#
# Velocity S-wave (km/s) = 3.58036 3.84672 3.71593
# Velocity P-wave (km/s) = 5.95566 6.23373 6.09628
#
# Compressibility (1/GPa) = 0.02760349
#
# Stress axis : x y z
#
# Youngs Moduli (GPa) = 56.12776 58.51974 56.09482
#
# Poissons Ratio (x) = 0.33831 0.40146
# Poissons Ratio (y) = 0.32448 -0.02097
# Poissons Ratio (z) = 0.40170 -0.02188
#
# Static dielectric constant tensor:
#      x y z
#    x 1.716940 0.000000 0.000000 
#    y 0.000000 1.649880 0.000000 
#    z 0.000000 0.000000 1.730730 
# 
# From -- ./inp_files/10362.got.cif
#   From: 2010.05.17/outbox.cif.g08.bks.cpg/sg20_6_cif.got.tgz:10362.got - 2010.06.03 22:52:26.
