data_PCOD9318025
_publ_section_title
;
Structure prediction by ZEFSAII (Michael W. Deem and Ramdas Pophale) SiO2 
 PCOD9318025
Probable space group: C 2 2 21
;
_chemical_formula_sum "Si O2"
_cell_formula_units_Z 32
_cell_length_a 29.512589
_cell_length_b 7.426625
_cell_length_c 5.386556
_cell_angle_alpha 90.000000
_cell_angle_beta 90.000000
_cell_angle_gamma 90.000000
_cell_volume 1180.619587
_symmetry_space_group_name_H-M "C 2 2 21"
_symmetry_group_IT_number 20
_symmetry_cell_setting 'orthorhombic'
loop_
_space_group_symop_operation_xyz
x,y,z
-x,-y,1/2+z
x,-y,-z
-x,y,1/2-z
1/2+x,1/2+y,z
1/2-x,1/2-y,1/2+z
1/2+x,1/2-y,-z
1/2-x,1/2+y,1/2-z
loop_
_atom_site_type_symbol
_atom_site_label
_atom_site_fract_x
_atom_site_fract_y
_atom_site_fract_z
Si Si1 0.446784 0.222867 0.746745
Si Si2 0.809729 0.727538 0.350663
Si Si3 0.207677 0.094623 0.293961
Si Si4 0.410183 0.817793 0.753271
O O1 0.500000 0.257209 0.750000
O O2 0.424893 0.288160 0.492179
O O3 0.437424 0.006111 0.750169
O O4 0.423025 0.285943 0.997574
O O5 0.815763 0.735067 0.655907
O O6 0.761596 0.633187 0.309648
O O7 0.857254 0.646750 0.264875
O O8 0.804983 0.878428 0.110898
O O9 0.203873 0.000000 0.000000
#
# Coordination Sequence:
#
# PCOD9318025 Si02
#       4
#     8   8   8   8
#     4  10  20  37  61  96 138 171 210 284 346 395
#     4  11  25  39  64  95 125 185 219 280 331 390
#     4  11  24  43  62  87 137 172 230 275 332 390
#     4  10  21  34  61  91 132 167 220 268 335 403
#
# _framework density 27.104407999999999
#
# number of rings (size 3 to 8) (size 9 to 14) (size 15 to 20)
#    0.000    1.500    2.500    3.750    7.000    4.000 
#    0.000    0.000    0.000    0.000    0.000   21.000 
#    0.000    0.000    0.000    0.000    0.000    0.000 
#
# Total GULP energy -89204.559900 kJ/mol
# GULP energy per Si atom -5575.284994 kJ/mol
# Density = 2.704272 g / cm^3
# Si number density = 27.104408 Si / 1000 Ang^3
#
#
#
# Elastic Constant Matrix: (Units=GPa)
#
#
# Indices 1 2 3 4 5 6 
#
# 1 147.8186 14.5498 55.9890 0.0000 0.0000 0.0000
# 2 14.5498 69.4447 26.9998 0.0000 0.0000 0.0000
# 3 55.9890 26.9998 290.8182 0.0000 0.0000 0.0000
# 4 0.0000 0.0000 0.0000 13.3480 0.0000 0.0000
# 5 0.0000 0.0000 0.0000 0.0000 46.1960 0.0000
# 6 0.0000 0.0000 0.0000 0.0000 0.0000 -90.9825
#
#
#
# Elastic Compliance Matrix: (Units=1/GPa)
#
#
# Indices 1 2 3 4 5 6 
#
# 1 0.007367 -0.001029 -0.001323 0.000000 0.000000 0.000000
# 2 -0.001029 0.015083 -0.001202 0.000000 0.000000 0.000000
# 3 -0.001323 -0.001202 0.003805 0.000000 0.000000 0.000000
# 4 0.000000 0.000000 0.000000 0.074918 0.000000 0.000000
# 5 0.000000 0.000000 0.000000 0.000000 0.021647 0.000000
# 6 0.000000 0.000000 0.000000 0.000000 0.000000 -0.010991
#
#
# Mechanical properties :
#
#
# Convention : Reuss Voigt Hill
#
# Bulk Modulus (GPa) = 52.22829 78.12876 65.17852
# Shear Modulus (GPa) = 39.89798 21.08183 30.48990
#
# Velocity S-wave (km/s) = 3.84084 2.79193 3.35760
# Velocity P-wave (km/s) = 6.24344 6.26745 6.25545
#
# Compressibility (1/GPa) = 0.01914671
#
# Stress axis : x y z
#
# Youngs Moduli (GPa) = 135.73299 66.29989 262.82189
#
# Poissons Ratio (x) = 0.06824 0.34767
# Poissons Ratio (y) = 0.13971 0.31595
# Poissons Ratio (z) = 0.17955 0.07970
#
# Static dielectric constant tensor:
#      x y z
#    x 1.884620 0.000000 0.000000 
#    y 0.000000 1.493420 0.000000 
#    z 0.000000 0.000000 2.226820 
# 
# From -- ./inp_files/4466.got.cif
#   From: 2010.05.17/outbox.cif.g08.bks.cpg/sg20_3_cif.got.tgz:4466.got - 2010.06.03 22:52:26.
