data_PCOD9318618
_publ_section_title
;
Structure prediction by ZEFSAII (Michael W. Deem and Ramdas Pophale) SiO2 
 PCOD9318618
Probable space group: C 2 2 21
;
_chemical_formula_sum "Si O2"
_cell_formula_units_Z 56
_cell_length_a 5.353066
_cell_length_b 14.035967
_cell_length_c 31.097133
_cell_angle_alpha 90.000000
_cell_angle_beta 90.000000
_cell_angle_gamma 90.000000
_cell_volume 2336.497322
_symmetry_space_group_name_H-M "C 2 2 21"
_symmetry_group_IT_number 20
_symmetry_cell_setting 'orthorhombic'
loop_
_space_group_symop_operation_xyz
x,y,z
-x,-y,1/2+z
x,-y,-z
-x,y,1/2-z
1/2+x,1/2+y,z
1/2-x,1/2-y,1/2+z
1/2+x,1/2-y,-z
1/2-x,1/2+y,1/2-z
loop_
_atom_site_type_symbol
_atom_site_label
_atom_site_fract_x
_atom_site_fract_y
_atom_site_fract_z
Si Si1 0.738232 0.168413 0.822445
Si Si2 0.042164 0.308746 0.496854
Si Si3 0.521420 0.351261 0.653249
Si Si4 0.257872 0.023462 0.275948
Si Si5 0.639823 0.883888 0.584228
Si Si6 0.489497 0.082370 0.589531
Si Si7 0.385450 0.293715 0.382628
O O1 0.619836 0.272804 0.816749
O O2 0.698911 0.087238 0.787934
O O3 0.640031 0.123242 0.867734
O O4 0.028564 0.183665 0.834102
O O5 0.283533 0.241124 0.485739
O O6 0.169546 0.376581 0.532974
O O7 0.941367 0.366596 0.455642
O O8 0.704123 0.415817 0.681175
O O9 0.333164 0.407844 0.622595
O O10 0.667983 0.283675 0.620552
O O11 0.500000 0.057883 0.250000
O O12 0.000000 0.030596 0.250000
O O13 0.588431 0.772879 0.595047
O O14 0.445104 0.970195 0.588200
O O15 0.782617 0.112106 0.595748
#
# Coordination Sequence:
#
# PCOD9318618 Si02
#       7
#     8   8   8   8   8   8   8
#     4  10  24  45  74 103 142 199 237 306 380 458
#     4  12  25  46  67 108 154 194 254 315 365 428
#     4  10  24  45  74 103 142 199 237 306 380 458
#     4  12  30  50  74 112 151 189 252 326 376 460
#     4  11  23  41  71 103 144 196 247 304 367 449
#     4  11  23  41  71 103 144 196 247 304 367 449
#     4  10  20  42  69  98 138 188 244 298 371 444
#
# _framework density 23.967499
#
# number of rings (size 3 to 8) (size 9 to 14) (size 15 to 20)
#    0.000    1.143    1.429    4.714   10.000    0.571 
#    0.000    1.429    0.000    0.000    0.000    0.000 
#    0.000    0.000    0.000    0.000    0.000    0.000 
#
# Total GULP energy -156030.940317 kJ/mol
# GULP energy per Si atom -5572.533583 kJ/mol
# Density = 2.391295 g / cm^3
# Si number density = 23.967499 Si / 1000 Ang^3
#
#
#
# Elastic Constant Matrix: (Units=GPa)
#
#
# Indices 1 2 3 4 5 6 
#
# 1 62.7186 15.0678 25.3511 0.0000 0.0000 0.0000
# 2 15.0678 106.4037 24.8211 0.0000 0.0000 0.0000
# 3 25.3511 24.8211 78.1765 0.0000 0.0000 0.0000
# 4 0.0000 0.0000 0.0000 37.6409 0.0000 0.0000
# 5 0.0000 0.0000 0.0000 0.0000 40.1174 0.0000
# 6 0.0000 0.0000 0.0000 0.0000 0.0000 15.8428
#
#
#
# Elastic Compliance Matrix: (Units=1/GPa)
#
#
# Indices 1 2 3 4 5 6 
#
# 1 0.018519 -0.001319 -0.005587 0.000000 0.000000 0.000000
# 2 -0.001319 0.010244 -0.002825 0.000000 0.000000 0.000000
# 3 -0.005587 -0.002825 0.015500 0.000000 0.000000 0.000000
# 4 0.000000 0.000000 0.000000 0.026567 0.000000 0.000000
# 5 0.000000 0.000000 0.000000 0.000000 0.024927 0.000000
# 6 0.000000 0.000000 0.000000 0.000000 0.000000 0.063120
#
#
# Mechanical properties :
#
#
# Convention : Reuss Voigt Hill
#
# Bulk Modulus (GPa) = 40.31898 41.97542 41.14720
# Shear Modulus (GPa) = 26.79447 30.85744 28.82596
#
# Velocity S-wave (km/s) = 3.34720 3.59203 3.47177
# Velocity P-wave (km/s) = 5.63890 5.89534 5.76855
#
# Compressibility (1/GPa) = 0.02480221
#
# Stress axis : x y z
#
# Youngs Moduli (GPa) = 53.99769 97.61898 64.51617
#
# Poissons Ratio (x) = 0.12879 0.36042
# Poissons Ratio (y) = 0.07124 0.18223
# Poissons Ratio (z) = 0.30166 0.27574
#
# Static dielectric constant tensor:
#      x y z
#    x 2.185410 0.000000 0.000000 
#    y 0.000000 1.880160 0.000000 
#    z 0.000000 0.000000 1.968910 
# 
# From -- ./inp_files/30750.got.cif
#   From: 2010.05.17/outbox.cif.g08.bks.cpg/sg20_16_cif.got.tgz:30750.got - 2010.06.03 22:52:26.
