data_PCOD9318413
_publ_section_title
;
Structure prediction by ZEFSAII (Michael W. Deem and Ramdas Pophale) SiO2 
 PCOD9318413
Probable space group: C 2 2 21
;
_chemical_formula_sum "Si O2"
_cell_formula_units_Z 52
_cell_length_a 8.762932
_cell_length_b 17.093350
_cell_length_c 16.184622
_cell_angle_alpha 90.000000
_cell_angle_beta 90.000000
_cell_angle_gamma 90.000000
_cell_volume 2424.259954
_symmetry_space_group_name_H-M "C 2 2 21"
_symmetry_group_IT_number 20
_symmetry_cell_setting 'orthorhombic'
loop_
_space_group_symop_operation_xyz
x,y,z
-x,-y,1/2+z
x,-y,-z
-x,y,1/2-z
1/2+x,1/2+y,z
1/2-x,1/2-y,1/2+z
1/2+x,1/2-y,-z
1/2-x,1/2+y,1/2-z
loop_
_atom_site_type_symbol
_atom_site_label
_atom_site_fract_x
_atom_site_fract_y
_atom_site_fract_z
Si Si1 0.500000 0.750917 0.250000
Si Si2 0.832751 0.247843 0.771101
Si Si3 0.518414 0.293116 0.932276
Si Si4 0.327900 0.927276 0.753035
Si Si5 0.725953 0.684632 0.564699
Si Si6 0.676795 0.448264 0.929237
Si Si7 0.092170 0.035657 0.663540
O O1 0.331661 0.792192 0.248045
O O2 0.494908 0.700505 0.333346
O O3 0.824906 0.334673 0.734327
O O4 0.830439 0.250513 0.870237
O O5 0.000000 0.215604 0.750000
O O6 0.597515 0.208606 0.946798
O O7 0.625467 0.363749 0.962566
O O8 0.361698 0.305056 0.979622
O O9 0.500000 0.956133 0.750000
O O10 0.272042 0.937983 0.846503
O O11 0.219461 0.974276 0.692113
O O12 0.674647 0.606850 0.614490
O O13 0.526171 0.495245 0.898957
O O14 0.752989 0.500000 0.000000
O O15 0.000000 0.053366 0.750000
#
# Coordination Sequence:
#
# PCOD9318413 Si02
#       7
#     4   8   8   8   8   8   8
#     4  10  20  40  64  92 126 180 224 268 344 416
#     4  10  21  38  67  93 126 170 227 272 348 412
#     4  11  24  42  65  98 133 175 229 282 349 415
#     4  10  21  41  63  94 129 174 223 282 339 418
#     4  11  23  43  61 101 131 172 225 287 341 411
#     4  11  20  41  67  90 128 181 226 272 341 420
#     4  10  22  41  69  94 131 173 235 279 336 420
#
# _framework density 21.449843999999999
#
# number of rings (size 3 to 8) (size 9 to 14) (size 15 to 20)
#    0.000    1.538    4.615    1.385    4.308    0.000 
#    8.308    0.769    0.000    0.000    0.000    0.000 
#    0.000    0.000    0.000    0.000    0.000    0.000 
#
# Total GULP energy -144913.263979 kJ/mol
# GULP energy per Si atom -5573.587076 kJ/mol
# Density = 2.140102 g / cm^3
# Si number density = 21.449844 Si / 1000 Ang^3
#
#
#
# Elastic Constant Matrix: (Units=GPa)
#
#
# Indices 1 2 3 4 5 6 
#
# 1 110.4816 21.7709 9.9584 0.0000 0.0000 0.0000
# 2 21.7709 79.0619 -3.2824 0.0000 0.0000 0.0000
# 3 9.9584 -3.2824 51.8522 0.0000 0.0000 0.0000
# 4 0.0000 0.0000 0.0000 17.3543 0.0000 0.0000
# 5 0.0000 0.0000 0.0000 0.0000 24.4521 0.0000
# 6 0.0000 0.0000 0.0000 0.0000 0.0000 18.0099
#
#
#
# Elastic Compliance Matrix: (Units=1/GPa)
#
#
# Indices 1 2 3 4 5 6 
#
# 1 0.009784 -0.002780 -0.002055 0.000000 0.000000 0.000000
# 2 -0.002780 0.013471 0.001387 0.000000 0.000000 0.000000
# 3 -0.002055 0.001387 0.019768 0.000000 0.000000 0.000000
# 4 0.000000 0.000000 0.000000 0.057623 0.000000 0.000000
# 5 0.000000 0.000000 0.000000 0.000000 0.040896 0.000000
# 6 0.000000 0.000000 0.000000 0.000000 0.000000 0.055525
#
#
# Mechanical properties :
#
#
# Convention : Reuss Voigt Hill
#
# Bulk Modulus (GPa) = 27.67973 33.14327 30.41150
# Shear Modulus (GPa) = 23.14749 26.15984 24.65366
#
# Velocity S-wave (km/s) = 3.28860 3.49604 3.39390
# Velocity P-wave (km/s) = 5.22994 5.63750 5.43754
#
# Compressibility (1/GPa) = 0.03612752
#
# Stress axis : x y z
#
# Youngs Moduli (GPa) = 102.20515 74.23200 50.58674
#
# Poissons Ratio (x) = 0.20633 0.10396
# Poissons Ratio (y) = 0.28408 -0.07014
# Poissons Ratio (z) = 0.21004 -0.10293
#
# Static dielectric constant tensor:
#      x y z
#    x 1.859220 0.000000 0.000000 
#    y 0.000000 1.807600 0.000000 
#    z 0.000000 0.000000 1.770610 
# 
# From -- ./inp_files/19110.got.cif
#   From: 2010.05.17/outbox.cif.g08.bks.cpg/sg20_10_cif.got.tgz:19110.got - 2010.06.03 22:52:26.
