data_PCOD9318835
_publ_section_title
;
Structure prediction by ZEFSAII (Michael W. Deem and Ramdas Pophale) SiO2 
 PCOD9318835
Probable space group: C 2 2 21
;
_chemical_formula_sum "Si O2"
_cell_formula_units_Z 44
_cell_length_a 27.404413
_cell_length_b 5.467013
_cell_length_c 14.358289
_cell_angle_alpha 90.000000
_cell_angle_beta 90.000000
_cell_angle_gamma 90.000000
_cell_volume 2151.162909
_symmetry_space_group_name_H-M "C 2 2 21"
_symmetry_group_IT_number 20
_symmetry_cell_setting 'orthorhombic'
loop_
_space_group_symop_operation_xyz
x,y,z
-x,-y,1/2+z
x,-y,-z
-x,y,1/2-z
1/2+x,1/2+y,z
1/2-x,1/2-y,1/2+z
1/2+x,1/2-y,-z
1/2-x,1/2+y,1/2-z
loop_
_atom_site_type_symbol
_atom_site_label
_atom_site_fract_x
_atom_site_fract_y
_atom_site_fract_z
Si Si1 0.718985 0.703890 0.651490
Si Si2 0.340270 0.000000 0.000000
Si Si3 0.636590 0.679613 0.344872
Si Si4 0.181154 0.494058 0.817095
Si Si5 0.419668 0.023251 0.393590
Si Si6 0.554691 0.482027 0.786038
O O1 0.695583 0.886631 0.577250
O O2 0.686166 0.466481 0.636783
O O3 0.776041 0.657355 0.640074
O O4 0.708807 0.783864 0.758577
O O5 0.373886 0.813434 0.058084
O O6 0.593708 0.518430 0.299787
O O7 0.651173 0.869191 0.264205
O O8 0.138926 0.427114 0.888338
O O9 0.440977 0.261953 0.341455
O O10 0.435452 0.000000 0.500000
O O11 0.432681 0.762222 0.345837
O O12 0.500000 0.455582 0.750000
#
# Coordination Sequence:
#
# PCOD9318835 Si02
#       6
#     8   4   8   8   8   8
#     4  11  19  39  58  92 124 173 220 261 326 398
#     4  10  24  36  58  92 132 166 222 280 316 394
#     4  10  21  40  61  88 129 167 220 267 332 396
#     4  10  21  36  64  87 127 177 212 261 331 394
#     4  11  24  45  69 104 135 168 225 282 330 399
#     4  11  24  47  74  96 130 180 218 276 349 406
#
# _framework density 20.454055
#
# number of rings (size 3 to 8) (size 9 to 14) (size 15 to 20)
#    0.000    1.455    3.636    1.636    0.000    1.455 
#    8.182    1.818    0.000    0.000    0.000    0.000 
#    0.000    0.000    0.000    0.000    0.000    0.000 
#
# Total GULP energy -122690.530686 kJ/mol
# GULP energy per Si atom -5576.842304 kJ/mol
# Density = 2.040750 g / cm^3
# Si number density = 20.454055 Si / 1000 Ang^3
#
#
#
# Elastic Constant Matrix: (Units=GPa)
#
#
# Indices 1 2 3 4 5 6 
#
# 1 72.2235 -6.2938 12.6018 0.0000 0.0000 0.0000
# 2 -6.2938 77.0978 28.4767 0.0000 0.0000 0.0000
# 3 12.6018 28.4767 91.4766 0.0000 0.0000 0.0000
# 4 0.0000 0.0000 0.0000 27.0333 0.0000 0.0000
# 5 0.0000 0.0000 0.0000 0.0000 4.0075 0.0000
# 6 0.0000 0.0000 0.0000 0.0000 0.0000 21.9495
#
#
#
# Elastic Compliance Matrix: (Units=1/GPa)
#
#
# Indices 1 2 3 4 5 6 
#
# 1 0.014502 0.002171 -0.002674 0.000000 0.000000 0.000000
# 2 0.002171 0.014981 -0.004963 0.000000 0.000000 0.000000
# 3 -0.002674 -0.004963 0.012845 0.000000 0.000000 0.000000
# 4 0.000000 0.000000 0.000000 0.036991 0.000000 0.000000
# 5 0.000000 0.000000 0.000000 0.000000 0.249531 0.000000
# 6 0.000000 0.000000 0.000000 0.000000 0.000000 0.045559
#
#
# Mechanical properties :
#
#
# Convention : Reuss Voigt Hill
#
# Bulk Modulus (GPa) = 31.84972 34.48526 33.16749
# Shear Modulus (GPa) = 12.63248 24.33228 18.48238
#
# Velocity S-wave (km/s) = 2.48786 3.45281 3.00926
# Velocity P-wave (km/s) = 4.88444 5.72646 5.32213
#
# Compressibility (1/GPa) = 0.03139745
#
# Stress axis : x y z
#
# Youngs Moduli (GPa) = 68.95770 66.75213 77.85149
#
# Poissons Ratio (x) = -0.14494 0.20815
# Poissons Ratio (y) = -0.14973 0.38635
# Poissons Ratio (z) = 0.18437 0.33127
#
# Static dielectric constant tensor:
#      x y z
#    x 1.720570 0.000000 0.000000 
#    y 0.000000 1.842150 0.000000 
#    z 0.000000 0.000000 1.789680 
# 
# From -- ./inp_files/17730.got.cif
#   From: 2010.05.17/outbox.cif.g08.bks.cpg/sg20_9_cif.got.tgz:17730.got - 2010.06.03 22:52:26.
