data_PCOD9318697
_publ_section_title
;
Structure prediction by ZEFSAII (Michael W. Deem and Ramdas Pophale) SiO2 
 PCOD9318697
Probable space group: C 2 2 21
;
_chemical_formula_sum "Si O2"
_cell_formula_units_Z 60
_cell_length_a 26.660083
_cell_length_b 17.818651
_cell_length_c 5.454488
_cell_angle_alpha 90.000000
_cell_angle_beta 90.000000
_cell_angle_gamma 90.000000
_cell_volume 2591.136604
_symmetry_space_group_name_H-M "C 2 2 21"
_symmetry_group_IT_number 20
_symmetry_cell_setting 'orthorhombic'
loop_
_space_group_symop_operation_xyz
x,y,z
-x,-y,1/2+z
x,-y,-z
-x,y,1/2-z
1/2+x,1/2+y,z
1/2-x,1/2-y,1/2+z
1/2+x,1/2-y,-z
1/2-x,1/2+y,1/2-z
loop_
_atom_site_type_symbol
_atom_site_label
_atom_site_fract_x
_atom_site_fract_y
_atom_site_fract_z
Si Si1 0.293982 0.684660 0.590698
Si Si2 0.798921 0.350474 0.411687
Si Si3 0.019064 0.414441 0.501444
Si Si4 0.239259 0.568954 0.320379
Si Si5 0.557055 0.661352 0.158862
Si Si6 0.531349 0.500000 0.000000
Si Si7 0.631241 0.875748 0.483110
Si Si8 0.390863 0.292321 0.163014
O O1 0.239157 0.676358 0.703282
O O2 0.302949 0.772769 0.554857
O O3 0.284108 0.630116 0.362374
O O4 0.340522 0.663070 0.758788
O O5 0.770603 0.420529 0.531803
O O6 0.852263 0.371369 0.300979
O O7 0.998320 0.500000 0.500000
O O8 0.078886 0.416860 0.509344
O O9 0.000000 0.377667 0.250000
O O10 0.000000 0.376773 0.750000
O O11 0.251633 0.500000 0.500000
O O12 0.180813 0.588910 0.395018
O O13 0.500000 0.675737 0.250000
O O14 0.560574 0.574669 0.074755
O O15 0.587683 0.675138 0.408703
O O16 0.575061 0.704937 0.911981
O O17 0.500000 0.481472 0.250000
O O18 0.621767 0.792971 0.587112
#
# Coordination Sequence:
#
# PCOD9318697 Si02
#       8
#     8   8   8   8   8   4   8   8
#     4  11  22  41  68 100 137 187 230 287 372 433
#     4  11  21  42  73  95 140 189 238 291 356 444
#     4  10  24  45  67  96 140 186 228 287 353 412
#     4  11  25  44  71 103 138 184 241 303 349 429
#     4  11  25  45  70 102 141 189 245 297 359 437
#     4  10  20  44  74  94 132 186 242 296 362 436
#     4  11  25  41  69 102 135 187 239 286 354 426
#     4  12  25  41  70 106 142 185 238 301 356 430
#
# _framework density 23.155861000000002
#
# number of rings (size 3 to 8) (size 9 to 14) (size 15 to 20)
#    0.000    1.067    2.667    4.000    3.733    3.733 
#    3.600    1.333    0.000    0.000    0.000    0.000 
#    0.000    0.000    0.000    0.000    0.000    0.000 
#
# Total GULP energy -167155.758996 kJ/mol
# GULP energy per Si atom -5571.858633 kJ/mol
# Density = 2.310316 g / cm^3
# Si number density = 23.155861 Si / 1000 Ang^3
#
#
#
# Elastic Constant Matrix: (Units=GPa)
#
#
# Indices 1 2 3 4 5 6 
#
# 1 64.6654 3.0009 21.6104 0.0000 0.0000 0.0000
# 2 3.0009 57.9405 11.4271 0.0000 0.0000 0.0000
# 3 21.6104 11.4271 130.5373 0.0000 0.0000 0.0000
# 4 0.0000 0.0000 0.0000 15.4366 0.0000 0.0000
# 5 0.0000 0.0000 0.0000 0.0000 51.3126 0.0000
# 6 0.0000 0.0000 0.0000 0.0000 0.0000 22.9426
#
#
#
# Elastic Compliance Matrix: (Units=1/GPa)
#
#
# Indices 1 2 3 4 5 6 
#
# 1 0.016376 -0.000319 -0.002683 0.000000 0.000000 0.000000
# 2 -0.000319 0.017569 -0.001485 0.000000 0.000000 0.000000
# 3 -0.002683 -0.001485 0.008235 0.000000 0.000000 0.000000
# 4 0.000000 0.000000 0.000000 0.064781 0.000000 0.000000
# 5 0.000000 0.000000 0.000000 0.000000 0.019488 0.000000
# 6 0.000000 0.000000 0.000000 0.000000 0.000000 0.043587
#
#
# Mechanical properties :
#
#
# Convention : Reuss Voigt Hill
#
# Bulk Modulus (GPa) = 30.11621 36.13552 33.12586
# Shear Modulus (GPa) = 26.30495 32.41201 29.35848
#
# Velocity S-wave (km/s) = 3.37411 3.74536 3.56457
# Velocity P-wave (km/s) = 5.31165 5.86028 5.59269
#
# Compressibility (1/GPa) = 0.03320471
#
# Stress axis : x y z
#
# Youngs Moduli (GPa) = 61.06617 56.92001 121.43540
#
# Poissons Ratio (x) = 0.01816 0.32582
# Poissons Ratio (y) = 0.01948 0.18035
# Poissons Ratio (z) = 0.16384 0.08453
#
# Static dielectric constant tensor:
#      x y z
#    x 1.858300 0.000000 0.000000 
#    y 0.000000 1.980240 0.000000 
#    z 0.000000 0.000000 2.255170 
# 
# From -- ./inp_files/4329.got.cif
#   From: 2010.05.17/outbox.cif.g08.bks.cpg/sg20_3_cif.got.tgz:4329.got - 2010.06.03 22:52:26.
