data_PCOD9318511
_publ_section_title
;
Structure prediction by ZEFSAII (Michael W. Deem and Ramdas Pophale) SiO2 
 PCOD9318511
Probable space group: C 2 2 21
;
_chemical_formula_sum "Si O2"
_cell_formula_units_Z 40
_cell_length_a 13.766417
_cell_length_b 12.776601
_cell_length_c 10.241755
_cell_angle_alpha 90.000000
_cell_angle_beta 90.000000
_cell_angle_gamma 90.000000
_cell_volume 1801.401980
_symmetry_space_group_name_H-M "C 2 2 21"
_symmetry_group_IT_number 20
_symmetry_cell_setting 'orthorhombic'
loop_
_space_group_symop_operation_xyz
x,y,z
-x,-y,1/2+z
x,-y,-z
-x,y,1/2-z
1/2+x,1/2+y,z
1/2-x,1/2-y,1/2+z
1/2+x,1/2-y,-z
1/2-x,1/2+y,1/2-z
loop_
_atom_site_type_symbol
_atom_site_label
_atom_site_fract_x
_atom_site_fract_y
_atom_site_fract_z
Si Si1 0.472714 0.290263 0.951177
Si Si2 0.849809 0.285492 0.805849
Si Si3 0.299218 0.008540 0.847535
Si Si4 0.082617 0.913826 0.147393
Si Si5 0.638756 0.776478 0.219233
O O1 0.396241 0.303813 0.833043
O O2 0.554619 0.218519 0.886423
O O3 0.417863 0.237967 0.071522
O O4 0.530136 0.389783 0.009416
O O5 0.843024 0.407731 0.774645
O O6 0.882470 0.203223 0.695610
O O7 0.739264 0.258312 0.843936
O O8 0.181255 0.019395 0.844946
O O9 0.342303 0.113669 0.788098
O O10 0.324911 0.000000 0.000000
O O11 0.000000 0.948548 0.250000
#
# Coordination Sequence:
#
# PCOD9318511 Si02
#       5
#     8   8   8   8   8
#     4  10  20  41  62  90 123 167 211 258 314 388
#     4  10  21  40  65  89 130 166 208 265 324 371
#     4  11  20  39  63  93 127 167 212 265 313 377
#     4   9  21  41  65  91 129 171 210 262 324 380
#     4  10  22  38  66  92 126 167 214 258 327 376
#
# _framework density 22.204927999999999
#
# number of rings (size 3 to 8) (size 9 to 14) (size 15 to 20)
#    0.000    2.000    2.000    1.200    2.800    0.000 
#   21.600    0.000    0.000    0.000    0.000    0.000 
#    0.000    0.000    0.000    0.000    0.000    0.000 
#
# Total GULP energy -111740.510484 kJ/mol
# GULP energy per Si atom -5587.025524 kJ/mol
# Density = 2.215439 g / cm^3
# Si number density = 22.204928 Si / 1000 Ang^3
#
#
#
# Elastic Constant Matrix: (Units=GPa)
#
#
# Indices 1 2 3 4 5 6 
#
# 1 124.9499 24.3957 40.1932 0.0000 0.0000 0.0000
# 2 24.3957 99.9846 30.6590 0.0000 0.0000 0.0000
# 3 40.1932 30.6590 64.5962 0.0000 0.0000 0.0000
# 4 0.0000 0.0000 0.0000 19.7278 0.0000 0.0000
# 5 0.0000 0.0000 0.0000 0.0000 36.8602 0.0000
# 6 0.0000 0.0000 0.0000 0.0000 0.0000 29.5966
#
#
#
# Elastic Compliance Matrix: (Units=1/GPa)
#
#
# Indices 1 2 3 4 5 6 
#
# 1 0.010039 -0.000625 -0.005950 0.000000 0.000000 0.000000
# 2 -0.000625 0.011744 -0.005185 0.000000 0.000000 0.000000
# 3 -0.005950 -0.005185 0.021644 0.000000 0.000000 0.000000
# 4 0.000000 0.000000 0.000000 0.050690 0.000000 0.000000
# 5 0.000000 0.000000 0.000000 0.000000 0.027130 0.000000
# 6 0.000000 0.000000 0.000000 0.000000 0.000000 0.033788
#
#
# Mechanical properties :
#
#
# Convention : Reuss Voigt Hill
#
# Bulk Modulus (GPa) = 50.23363 53.33629 51.78496
# Shear Modulus (GPa) = 26.99929 30.18911 28.59420
#
# Velocity S-wave (km/s) = 3.49078 3.69123 3.59240
# Velocity P-wave (km/s) = 6.23853 6.49916 6.37018
#
# Compressibility (1/GPa) = 0.01990698
#
# Stress axis : x y z
#
# Youngs Moduli (GPa) = 99.60957 85.14999 46.20227
#
# Poissons Ratio (x) = 0.05322 0.27490
# Poissons Ratio (y) = 0.06226 0.23956
# Poissons Ratio (z) = 0.59267 0.44151
#
# Static dielectric constant tensor:
#      x y z
#    x 1.826930 0.000000 0.000000 
#    y 0.000000 1.852360 0.000000 
#    z 0.000000 0.000000 1.820360 
# 
# From -- ./inp_files/8115.got.cif
#   From: 2010.05.17/outbox.cif.g08.bks.cpg/sg20_5_cif.got.tgz:8115.got - 2010.06.03 22:52:26.
