data_PCOD9318037
_publ_section_title
;
Structure prediction by ZEFSAII (Michael W. Deem and Ramdas Pophale) SiO2 
 PCOD9318037
Probable space group: C 2 2 21
;
_chemical_formula_sum "Si O2"
_cell_formula_units_Z 40
_cell_length_a 10.014211
_cell_length_b 23.216019
_cell_length_c 7.169015
_cell_angle_alpha 90.000000
_cell_angle_beta 90.000000
_cell_angle_gamma 90.000000
_cell_volume 1666.725106
_symmetry_space_group_name_H-M "C 2 2 21"
_symmetry_group_IT_number 20
_symmetry_cell_setting 'orthorhombic'
loop_
_space_group_symop_operation_xyz
x,y,z
-x,-y,1/2+z
x,-y,-z
-x,y,1/2-z
1/2+x,1/2+y,z
1/2-x,1/2-y,1/2+z
1/2+x,1/2-y,-z
1/2-x,1/2+y,1/2-z
loop_
_atom_site_type_symbol
_atom_site_label
_atom_site_fract_x
_atom_site_fract_y
_atom_site_fract_z
Si Si1 0.000000 0.547894 0.250000
Si Si2 0.470610 0.339689 0.458067
Si Si3 0.251272 0.627896 0.933495
Si Si4 0.786913 0.500000 0.500000
Si Si5 0.695387 0.869853 0.513463
Si Si6 0.019005 0.713033 0.973746
O O1 0.888571 0.506278 0.331197
O O2 0.092024 0.584950 0.395094
O O3 0.500000 0.364606 0.250000
O O4 0.623330 0.338427 0.520434
O O5 0.352453 0.371835 0.566777
O O6 0.429666 0.272977 0.445371
O O7 0.280672 0.561714 0.986646
O O8 0.215516 0.627010 0.711973
O O9 0.122410 0.661093 0.011229
O O10 0.623019 0.808835 0.550472
O O11 0.000000 0.720445 0.750000
#
# Coordination Sequence:
#
# PCOD9318037 Si02
#       6
#     4   8   8   4   8   8
#     4  12  24  40  68  92 124 168 228 272 316 400
#     4  10  22  39  64  93 133 167 210 268 327 386
#     4  10  22  42  62  94 130 167 213 268 332 380
#     4  12  24  40  66  90 122 168 214 272 320 394
#     4  10  22  41  61  95 129 167 217 270 324 391
#     4  10  20  37  62  92 130 167 216 266 319 391
#
# _framework density 23.999157
#
# number of rings (size 3 to 8) (size 9 to 14) (size 15 to 20)
#    0.000    1.600    2.000    2.400    2.800    1.600 
#    0.000    7.000    0.000    0.000    0.000    0.000 
#    0.000    0.000    0.000    0.000    0.000    0.000 
#
# Total GULP energy -111360.992434 kJ/mol
# GULP energy per Si atom -5568.049622 kJ/mol
# Density = 2.394453 g / cm^3
# Si number density = 23.999157 Si / 1000 Ang^3
#
#
#
# Elastic Constant Matrix: (Units=GPa)
#
#
# Indices 1 2 3 4 5 6 
#
# 1 158.1052 23.8195 10.0809 0.0000 0.0000 0.0000
# 2 23.8195 88.4661 -16.8343 0.0000 0.0000 0.0000
# 3 10.0809 -16.8343 63.4489 0.0000 0.0000 0.0000
# 4 0.0000 0.0000 0.0000 30.8347 0.0000 0.0000
# 5 0.0000 0.0000 0.0000 0.0000 -12.6952 0.0000
# 6 0.0000 0.0000 0.0000 0.0000 0.0000 -72.7536
#
#
#
# Elastic Compliance Matrix: (Units=1/GPa)
#
#
# Indices 1 2 3 4 5 6 
#
# 1 0.006750 -0.002129 -0.001637 0.000000 0.000000 0.000000
# 2 -0.002129 0.012576 0.003675 0.000000 0.000000 0.000000
# 3 -0.001637 0.003675 0.016996 0.000000 0.000000 0.000000
# 4 0.000000 0.000000 0.000000 0.032431 0.000000 0.000000
# 5 0.000000 0.000000 0.000000 0.000000 -0.078770 0.000000
# 6 0.000000 0.000000 0.000000 0.000000 0.000000 -0.013745
#
#
# Mechanical properties :
#
#
# Convention : Reuss Voigt Hill
#
# Bulk Modulus (GPa) = 27.67046 38.23915 32.95481
# Shear Modulus (GPa) = -433.57066 8.60744 -212.48161
#
# Velocity S-wave (km/s) = -13.45559 1.89588 -9.41962
# Velocity P-wave (km/s) = 15.16078 4.55638 10.22469
#
# Compressibility (1/GPa) = 0.03613962
#
# Stress axis : x y z
#
# Youngs Moduli (GPa) = 148.14703 79.51452 58.83767
#
# Poissons Ratio (x) = 0.16929 0.09634
# Poissons Ratio (y) = 0.31541 -0.21623
# Poissons Ratio (z) = 0.24257 -0.29222
#
# Static dielectric constant tensor:
#      x y z
#    x 2.047170 0.000000 0.000000 
#    y 0.000000 1.878910 0.000000 
#    z 0.000000 0.000000 2.685850 
# 
# From -- ./inp_files/6144.got.cif
#   From: 2010.05.17/outbox.cif.g08.bks.cpg/sg20_4_cif.got.tgz:6144.got - 2010.06.03 22:52:26.
