data_PCOD9318403
_publ_section_title
;
Structure prediction by ZEFSAII (Michael W. Deem and Ramdas Pophale) SiO2 
 PCOD9318403
Probable space group: C 2 2 21
;
_chemical_formula_sum "Si O2"
_cell_formula_units_Z 48
_cell_length_a 18.365704
_cell_length_b 13.689628
_cell_length_c 9.500994
_cell_angle_alpha 90.000000
_cell_angle_beta 90.000000
_cell_angle_gamma 90.000000
_cell_volume 2388.736640
_symmetry_space_group_name_H-M "C 2 2 21"
_symmetry_group_IT_number 20
_symmetry_cell_setting 'orthorhombic'
loop_
_space_group_symop_operation_xyz
x,y,z
-x,-y,1/2+z
x,-y,-z
-x,y,1/2-z
1/2+x,1/2+y,z
1/2-x,1/2-y,1/2+z
1/2+x,1/2-y,-z
1/2-x,1/2+y,1/2-z
loop_
_atom_site_type_symbol
_atom_site_label
_atom_site_fract_x
_atom_site_fract_y
_atom_site_fract_z
Si Si1 0.786478 0.475898 0.729695
Si Si2 0.488053 0.591444 0.415779
Si Si3 0.331497 0.647622 0.375445
Si Si4 0.745855 0.842535 0.042680
Si Si5 0.932842 0.450661 0.143729
Si Si6 0.111709 0.233111 0.421853
O O1 0.731322 0.431486 0.845015
O O2 0.764152 0.583327 0.672804
O O3 0.777745 0.403966 0.595304
O O4 0.868450 0.485134 0.786537
O O5 0.518774 0.500000 0.500000
O O6 0.500000 0.573174 0.250000
O O7 0.403231 0.605781 0.448176
O O8 0.533160 0.687760 0.453254
O O9 0.300909 0.744312 0.448096
O O10 0.360763 0.685547 0.224121
O O11 0.828509 0.804280 0.031579
O O12 0.896614 0.347592 0.101454
O O13 0.000000 0.435786 0.250000
O O14 0.959399 0.500000 0.000000
#
# Coordination Sequence:
#
# PCOD9318403 Si02
#       6
#     8   8   8   8   8   8
#     4  10  23  39  67  99 130 174 224 282 338 401
#     4  10  23  40  64  90 127 166 214 267 337 390
#     4  10  20  40  63  94 128 174 212 274 337 398
#     4  10  21  39  68  96 128 171 230 278 337 401
#     4  12  26  43  68  97 138 181 227 278 339 410
#     4  10  22  39  64  91 129 175 214 271 340 400
#
# _framework density 20.094303
#
# number of rings (size 3 to 8) (size 9 to 14) (size 15 to 20)
#    0.000    1.667    1.667    2.500    9.333    2.000 
#    0.000    2.500    0.000    0.000    0.000    0.000 
#    0.000    0.000    0.000    0.000    0.000    0.000 
#
# Total GULP energy -134024.076065 kJ/mol
# GULP energy per Si atom -5584.336503 kJ/mol
# Density = 2.004857 g / cm^3
# Si number density = 20.094303 Si / 1000 Ang^3
#
#
#
# Elastic Constant Matrix: (Units=GPa)
#
#
# Indices 1 2 3 4 5 6 
#
# 1 100.1074 39.0979 26.8264 0.0000 0.0000 0.0000
# 2 39.0979 97.5209 31.1340 0.0000 0.0000 0.0000
# 3 26.8264 31.1340 40.1476 0.0000 0.0000 0.0000
# 4 0.0000 0.0000 0.0000 19.4027 0.0000 0.0000
# 5 0.0000 0.0000 0.0000 0.0000 22.0402 0.0000
# 6 0.0000 0.0000 0.0000 0.0000 0.0000 35.7498
#
#
#
# Elastic Compliance Matrix: (Units=1/GPa)
#
#
# Indices 1 2 3 4 5 6 
#
# 1 0.012883 -0.003212 -0.006118 0.000000 0.000000 0.000000
# 2 -0.003212 0.014429 -0.009043 0.000000 0.000000 0.000000
# 3 -0.006118 -0.009043 0.036009 0.000000 0.000000 0.000000
# 4 0.000000 0.000000 0.000000 0.051539 0.000000 0.000000
# 5 0.000000 0.000000 0.000000 0.000000 0.045372 0.000000
# 6 0.000000 0.000000 0.000000 0.000000 0.000000 0.027972
#
#
# Mechanical properties :
#
#
# Convention : Reuss Voigt Hill
#
# Bulk Modulus (GPa) = 37.62904 47.98805 42.80855
# Shear Modulus (GPa) = 21.38503 24.81970 23.10237
#
# Velocity S-wave (km/s) = 3.26580 3.51830 3.39440
# Velocity P-wave (km/s) = 5.74347 6.35908 6.05910
#
# Compressibility (1/GPa) = 0.02657522
#
# Stress axis : x y z
#
# Youngs Moduli (GPa) = 77.62098 69.30436 27.77098
#
# Poissons Ratio (x) = 0.22261 0.16989
# Poissons Ratio (y) = 0.24932 0.25114
# Poissons Ratio (z) = 0.47485 0.62674
#
# Static dielectric constant tensor:
#      x y z
#    x 1.723320 0.000000 0.000000 
#    y 0.000000 1.686350 0.000000 
#    z 0.000000 0.000000 1.722110 
# 
# From -- ./inp_files/15701.got.cif
#   From: 2010.05.17/outbox.cif.g08.bks.cpg/sg20_8_cif.got.tgz:15701.got - 2010.06.03 22:52:26.
