data_PCOD9318049
_publ_section_title
;
Structure prediction by ZEFSAII (Michael W. Deem and Ramdas Pophale) SiO2 
 PCOD9318049
Probable space group: C 2 2 21
;
_chemical_formula_sum "Si O2"
_cell_formula_units_Z 44
_cell_length_a 8.625033
_cell_length_b 19.046255
_cell_length_c 13.056829
_cell_angle_alpha 90.000000
_cell_angle_beta 90.000000
_cell_angle_gamma 90.000000
_cell_volume 2144.905073
_symmetry_space_group_name_H-M "C 2 2 21"
_symmetry_group_IT_number 20
_symmetry_cell_setting 'orthorhombic'
loop_
_space_group_symop_operation_xyz
x,y,z
-x,-y,1/2+z
x,-y,-z
-x,y,1/2-z
1/2+x,1/2+y,z
1/2-x,1/2-y,1/2+z
1/2+x,1/2-y,-z
1/2-x,1/2+y,1/2-z
loop_
_atom_site_type_symbol
_atom_site_label
_atom_site_fract_x
_atom_site_fract_y
_atom_site_fract_z
Si Si1 0.850081 0.730053 0.690572
Si Si2 0.706154 0.785199 0.885850
Si Si3 0.452786 0.888307 0.868360
Si Si4 0.657996 0.340074 0.980149
Si Si5 0.644706 0.000000 0.000000
Si Si6 0.342237 0.621259 0.939208
O O1 0.762137 0.780119 0.770416
O O2 0.905703 0.780163 0.598115
O O3 0.730677 0.672885 0.646049
O O4 0.000000 0.700308 0.750000
O O5 0.527927 0.810969 0.889747
O O6 0.737595 0.709613 0.935150
O O7 0.788588 0.843963 0.953353
O O8 0.500000 0.902195 0.750000
O O9 0.278490 0.884455 0.912556
O O10 0.539135 0.947322 0.935121
O O11 0.526049 0.380716 0.043457
O O12 0.757866 0.952927 0.069988
#
# Coordination Sequence:
#
# PCOD9318049 Si02
#       6
#     8   8   8   8   4   8
#     4  11  21  36  68 103 132 169 214 277 349 402
#     4  10  20  37  64 101 133 159 211 275 348 404
#     4  11  23  42  68  95 133 182 227 275 343 415
#     4  11  22  37  66 102 128 171 218 285 344 398
#     4  10  26  46  58  86 132 186 230 280 318 404
#     4  10  23  40  63  91 133 174 222 273 333 402
#
# _framework density 20.513726999999999
#
# number of rings (size 3 to 8) (size 9 to 14) (size 15 to 20)
#    0.000    1.455    3.636    2.182    5.091    1.455 
#    0.000    0.000    4.000    0.000    0.000    0.000 
#    0.000    0.000    0.000    0.000    0.000    0.000 
#
# Total GULP energy -122613.601582 kJ/mol
# GULP energy per Si atom -5573.345526 kJ/mol
# Density = 2.046704 g / cm^3
# Si number density = 20.513727 Si / 1000 Ang^3
#
#
#
# Elastic Constant Matrix: (Units=GPa)
#
#
# Indices 1 2 3 4 5 6 
#
# 1 117.7981 33.4904 28.7035 0.0000 0.0000 0.0000
# 2 33.4904 60.6348 15.3108 0.0000 0.0000 0.0000
# 3 28.7035 15.3108 80.8731 0.0000 0.0000 0.0000
# 4 0.0000 0.0000 0.0000 15.4727 0.0000 0.0000
# 5 0.0000 0.0000 0.0000 0.0000 37.1604 0.0000
# 6 0.0000 0.0000 0.0000 0.0000 0.0000 22.8839
#
#
#
# Elastic Compliance Matrix: (Units=1/GPa)
#
#
# Indices 1 2 3 4 5 6 
#
# 1 0.010641 -0.005171 -0.002798 0.000000 0.000000 0.000000
# 2 -0.005171 0.019833 -0.001919 0.000000 0.000000 0.000000
# 3 -0.002798 -0.001919 0.013721 0.000000 0.000000 0.000000
# 4 0.000000 0.000000 0.000000 0.064630 0.000000 0.000000
# 5 0.000000 0.000000 0.000000 0.000000 0.026910 0.000000
# 6 0.000000 0.000000 0.000000 0.000000 0.000000 0.043699
#
#
# Mechanical properties :
#
#
# Convention : Reuss Voigt Hill
#
# Bulk Modulus (GPa) = 40.95160 46.03502 43.49331
# Shear Modulus (GPa) = 24.11382 27.22352 25.66867
#
# Velocity S-wave (km/s) = 3.43227 3.64687 3.54120
# Velocity P-wave (km/s) = 5.97609 6.34214 6.16183
#
# Compressibility (1/GPa) = 0.02441907
#
# Stress axis : x y z
#
# Youngs Moduli (GPa) = 93.97699 50.42134 72.87882
#
# Poissons Ratio (x) = 0.26072 0.20390
# Poissons Ratio (y) = 0.48594 0.13989
# Poissons Ratio (z) = 0.26292 0.09678
#
# Static dielectric constant tensor:
#      x y z
#    x 1.848730 0.000000 0.000000 
#    y 0.000000 1.697780 0.000000 
#    z 0.000000 0.000000 1.778780 
# 
# From -- ./inp_files/18801.got.cif
#   From: 2010.05.17/outbox.cif.g08.bks.cpg/sg20_10_cif.got.tgz:18801.got - 2010.06.03 22:52:26.
