data_PCOD9318784
_publ_section_title
;
Structure prediction by ZEFSAII (Michael W. Deem and Ramdas Pophale) SiO2 
 PCOD9318784
Probable space group: C 2 2 21
;
_chemical_formula_sum "Si O2"
_cell_formula_units_Z 32
_cell_length_a 13.828746
_cell_length_b 21.547442
_cell_length_c 5.121507
_cell_angle_alpha 90.000000
_cell_angle_beta 90.000000
_cell_angle_gamma 90.000000
_cell_volume 1526.076451
_symmetry_space_group_name_H-M "C 2 2 21"
_symmetry_group_IT_number 20
_symmetry_cell_setting 'orthorhombic'
loop_
_space_group_symop_operation_xyz
x,y,z
-x,-y,1/2+z
x,-y,-z
-x,y,1/2-z
1/2+x,1/2+y,z
1/2-x,1/2-y,1/2+z
1/2+x,1/2-y,-z
1/2-x,1/2+y,1/2-z
loop_
_atom_site_type_symbol
_atom_site_label
_atom_site_fract_x
_atom_site_fract_y
_atom_site_fract_z
Si Si1 0.831635 0.000000 0.500000
Si Si2 0.608109 0.374651 0.796983
Si Si3 0.742663 0.291370 0.121935
Si Si4 0.776943 0.406999 0.389164
Si Si5 0.933248 0.500000 0.500000
O O1 0.896678 0.053980 0.384263
O O2 0.766143 0.038233 0.705583
O O3 0.500000 0.352820 0.750000
O O4 0.690362 0.380627 0.571693
O O5 0.651007 0.329840 0.017595
O O6 0.723218 0.247170 0.369324
O O7 0.810625 0.347621 0.221136
O O8 0.863943 0.440082 0.538960
O O9 0.000000 0.509896 0.750000
#
# Coordination Sequence:
#
# PCOD9318784 Si02
#       5
#     4   8   8   8   4
#     4  10  21  35  68 104 148 178 217 281 380 418
#     4  11  24  40  74 108 145 184 235 287 368 437
#     4  11  24  46  75  95 141 195 237 288 352 407
#     4  11  23  45  72 102 144 186 230 302 358 417
#     4  12  27  43  76 106 142 184 245 293 360 426
#
# _framework density 20.968806000000001
#
# number of rings (size 3 to 8) (size 9 to 14) (size 15 to 20)
#    0.000    1.000    5.000    0.750    7.000    3.000 
#    0.000    1.250   11.000    0.000    0.000    0.000 
#    0.000    0.000    0.000    0.000    0.000    0.000 
#
# Total GULP energy -89234.646695 kJ/mol
# GULP energy per Si atom -5577.165418 kJ/mol
# Density = 2.092108 g / cm^3
# Si number density = 20.968806 Si / 1000 Ang^3
#
#
#
# Elastic Constant Matrix: (Units=GPa)
#
#
# Indices 1 2 3 4 5 6 
#
# 1 74.4278 39.4137 40.9661 0.0000 0.0000 0.0000
# 2 39.4137 145.0804 52.9649 0.0000 0.0000 0.0000
# 3 40.9661 52.9649 114.1657 0.0000 0.0000 0.0000
# 4 0.0000 0.0000 0.0000 64.8657 0.0000 0.0000
# 5 0.0000 0.0000 0.0000 0.0000 23.6910 0.0000
# 6 0.0000 0.0000 0.0000 0.0000 0.0000 1.9759
#
#
#
# Elastic Compliance Matrix: (Units=1/GPa)
#
#
# Indices 1 2 3 4 5 6 
#
# 1 0.017771 -0.003010 -0.004981 0.000000 0.000000 0.000000
# 2 -0.003010 0.008808 -0.003006 0.000000 0.000000 0.000000
# 3 -0.004981 -0.003006 0.011941 0.000000 0.000000 0.000000
# 4 0.000000 0.000000 0.000000 0.015416 0.000000 0.000000
# 5 0.000000 0.000000 0.000000 0.000000 0.042210 0.000000
# 6 0.000000 0.000000 0.000000 0.000000 0.000000 0.506111
#
#
# Mechanical properties :
#
#
# Convention : Reuss Voigt Hill
#
# Bulk Modulus (GPa) = 60.50674 66.70704 63.60689
# Shear Modulus (GPa) = 7.93955 31.46178 19.70066
#
# Velocity S-wave (km/s) = 1.94797 3.87771 3.06849
# Velocity P-wave (km/s) = 5.82904 7.20628 6.55394
#
# Compressibility (1/GPa) = 0.01652709
#
# Stress axis : x y z
#
# Youngs Moduli (GPa) = 56.27176 113.53508 83.74449
#
# Poissons Ratio (x) = 0.34169 0.41709
# Poissons Ratio (y) = 0.16935 0.25176
# Poissons Ratio (z) = 0.28026 0.34132
#
# Static dielectric constant tensor:
#      x y z
#    x 1.775120 0.000000 0.000000 
#    y 0.000000 1.778750 0.000000 
#    z 0.000000 0.000000 1.859020 
# 
# From -- ./inp_files/1145.got.cif
#   From: 2010.05.17/outbox.cif.g08.bks.cpg/sg20_1_cif.got.tgz:1145.got - 2010.06.03 22:52:26.
