data_PCOD9318803
_publ_section_title
;
Structure prediction by ZEFSAII (Michael W. Deem and Ramdas Pophale) SiO2 
 PCOD9318803
Probable space group: C 2 2 21
;
_chemical_formula_sum "Si O2"
_cell_formula_units_Z 52
_cell_length_a 5.055422
_cell_length_b 25.323474
_cell_length_c 17.591519
_cell_angle_alpha 90.000000
_cell_angle_beta 90.000000
_cell_angle_gamma 90.000000
_cell_volume 2252.081173
_symmetry_space_group_name_H-M "C 2 2 21"
_symmetry_group_IT_number 20
_symmetry_cell_setting 'orthorhombic'
loop_
_space_group_symop_operation_xyz
x,y,z
-x,-y,1/2+z
x,-y,-z
-x,y,1/2-z
1/2+x,1/2+y,z
1/2-x,1/2-y,1/2+z
1/2+x,1/2-y,-z
1/2-x,1/2+y,1/2-z
loop_
_atom_site_type_symbol
_atom_site_label
_atom_site_fract_x
_atom_site_fract_y
_atom_site_fract_z
Si Si1 0.375584 0.125841 0.381386
Si Si2 0.792980 0.714375 0.912156
Si Si3 0.000000 0.887152 0.750000
Si Si4 0.449575 0.543960 0.560875
Si Si5 0.713142 0.776886 0.596375
Si Si6 0.126697 0.526133 0.324824
Si Si7 0.945242 0.388300 0.451511
O O1 0.616120 0.167176 0.371906
O O2 0.422032 0.062330 0.372884
O O3 0.308186 0.133388 0.470612
O O4 0.172740 0.139998 0.314959
O O5 0.999978 0.757028 0.881821
O O6 0.930098 0.657704 0.899910
O O7 0.503854 0.731551 0.885096
O O8 0.781961 0.717657 0.004403
O O9 0.195203 0.926689 0.793358
O O10 0.531587 0.500000 0.500000
O O11 0.301981 0.514176 0.628848
O O12 0.711000 0.576487 0.583449
O O13 0.210203 0.579168 0.525921
O O14 0.000000 0.500642 0.250000
#
# Coordination Sequence:
#
# PCOD9318803 Si02
#       7
#     8   8   4   8   8   8   8
#     4  10  21  36  57  90 119 158 189 255 299 374
#     4   9  18  34  50  86 112 151 180 236 285 353
#     4  10  22  38  58  80 124 156 200 238 304 364
#     4  12  23  37  59  91 119 162 200 253 306 357
#     4   9  18  31  57  79 117 144 187 222 297 347
#     4  10  23  39  57  85 121 157 204 245 301 368
#     4  11  23  36  61  87 128 151 203 252 308 350
#
# _framework density 23.089756000000001
#
# number of rings (size 3 to 8) (size 9 to 14) (size 15 to 20)
#    0.000    1.846    1.538    2.308    6.462    2.462 
#    0.000    0.000    0.000    0.000   12.000    0.000 
#    0.000    0.000    0.000    0.000    0.000    0.000 
#
# Total GULP energy -145151.362356 kJ/mol
# GULP energy per Si atom -5582.744706 kJ/mol
# Density = 2.303720 g / cm^3
# Si number density = 23.089756 Si / 1000 Ang^3
#
#
#
# Elastic Constant Matrix: (Units=GPa)
#
#
# Indices 1 2 3 4 5 6 
#
# 1 83.3725 11.8293 1.9854 0.0000 0.0000 0.0000
# 2 11.8293 80.5166 13.5548 0.0000 0.0000 0.0000
# 3 1.9854 13.5548 26.9419 0.0000 0.0000 0.0000
# 4 0.0000 0.0000 0.0000 20.6099 0.0000 0.0000
# 5 0.0000 0.0000 0.0000 0.0000 18.7053 0.0000
# 6 0.0000 0.0000 0.0000 0.0000 0.0000 48.9978
#
#
#
# Elastic Compliance Matrix: (Units=1/GPa)
#
#
# Indices 1 2 3 4 5 6 
#
# 1 0.012250 -0.001800 0.000003 0.000000 0.000000 0.000000
# 2 -0.001800 0.013834 -0.006827 0.000000 0.000000 0.000000
# 3 0.000003 -0.006827 0.040552 0.000000 0.000000 0.000000
# 4 0.000000 0.000000 0.000000 0.048520 0.000000 0.000000
# 5 0.000000 0.000000 0.000000 0.000000 0.053461 0.000000
# 6 0.000000 0.000000 0.000000 0.000000 0.000000 0.020409
#
#
# Mechanical properties :
#
#
# Convention : Reuss Voigt Hill
#
# Bulk Modulus (GPa) = 20.24864 27.28556 23.76710
# Shear Modulus (GPa) = 22.44814 28.56006 25.50410
#
# Velocity S-wave (km/s) = 3.12141 3.52080 3.32710
# Velocity P-wave (km/s) = 4.66686 5.32643 5.00751
#
# Compressibility (1/GPa) = 0.04938604
#
# Stress axis : x y z
#
# Youngs Moduli (GPa) = 81.63459 72.28766 24.66000
#
# Poissons Ratio (x) = 0.13013 -0.00007
# Poissons Ratio (y) = 0.14696 0.16836
# Poissons Ratio (z) = -0.00025 0.49352
#
# Static dielectric constant tensor:
#      x y z
#    x 1.998400 0.000000 0.000000 
#    y 0.000000 1.956990 0.000000 
#    z 0.000000 0.000000 1.937560 
# 
# From -- ./inp_files/26090.got.cif
#   From: 2010.05.17/outbox.cif.g08.bks.cpg/sg20_14_cif.got.tgz:26090.got - 2010.06.03 22:52:26.
