data_PCOD9318311
_publ_section_title
;
Structure prediction by ZEFSAII (Michael W. Deem and Ramdas Pophale) SiO2 
 PCOD9318311
Probable space group: C 2 2 21
;
_chemical_formula_sum "Si O2"
_cell_formula_units_Z 64
_cell_length_a 10.076789
_cell_length_b 19.384930
_cell_length_c 13.049089
_cell_angle_alpha 90.000000
_cell_angle_beta 90.000000
_cell_angle_gamma 90.000000
_cell_volume 2548.980982
_symmetry_space_group_name_H-M "C 2 2 21"
_symmetry_group_IT_number 20
_symmetry_cell_setting 'orthorhombic'
loop_
_space_group_symop_operation_xyz
x,y,z
-x,-y,1/2+z
x,-y,-z
-x,y,1/2-z
1/2+x,1/2+y,z
1/2-x,1/2-y,1/2+z
1/2+x,1/2-y,-z
1/2-x,1/2+y,1/2-z
loop_
_atom_site_type_symbol
_atom_site_label
_atom_site_fract_x
_atom_site_fract_y
_atom_site_fract_z
Si Si1 0.530877 0.047628 0.859459
Si Si2 0.399425 0.521170 0.389043
Si Si3 0.189038 0.002895 0.330675
Si Si4 0.806801 0.834393 0.581146
Si Si5 0.254230 0.653930 0.087159
Si Si6 0.151010 0.206998 0.852616
Si Si7 0.534481 0.100782 0.429096
Si Si8 0.837336 0.799750 0.130246
O O1 0.500000 0.078611 0.750000
O O2 0.689511 0.040382 0.877111
O O3 0.454280 0.082397 0.951562
O O4 0.487332 0.968169 0.865031
O O5 0.345090 0.500000 0.500000
O O6 0.544243 0.486965 0.375803
O O7 0.315632 0.496487 0.291862
O O8 0.405800 0.605298 0.382124
O O9 0.206665 0.084056 0.355884
O O10 0.820141 0.831718 0.458322
O O11 0.663745 0.863735 0.611460
O O12 0.784393 0.755758 0.617683
O O13 0.250880 0.726840 0.146211
O O14 0.097812 0.644385 0.071017
O O15 0.327951 0.661406 0.978413
O O16 0.176190 0.168772 0.744430
O O17 0.992430 0.224593 0.861971
#
# Coordination Sequence:
#
# PCOD9318311 Si02
#       8
#     8   8   8   8   8   8   8   8
#     4  10  22  38  63  90 124 157 209 254 306 363
#     4  11  25  41  64  90 127 165 207 254 307 366
#     4  10  23  43  62  92 119 170 205 252 310 373
#     4  11  22  39  63  90 126 159 205 261 310 369
#     4  10  20  39  64  86 122 161 202 255 308 371
#     4  10  21  38  60  92 117 161 201 258 311 373
#     4  10  22  37  61  91 117 164 200 252 310 361
#     4  10  21  39  62  89 122 158 210 254 312 376
#
# _framework density 25.108073000000001
#
# number of rings (size 3 to 8) (size 9 to 14) (size 15 to 20)
#    0.000    1.750    1.250    2.250    7.000    2.000 
#    0.000    1.250    0.000    0.000    0.000    0.000 
#    0.000    0.000    0.000    0.000    0.000    0.000 
#
# Total GULP energy -178733.702816 kJ/mol
# GULP energy per Si atom -5585.428213 kJ/mol
# Density = 2.505093 g / cm^3
# Si number density = 25.108073 Si / 1000 Ang^3
#
#
#
# Elastic Constant Matrix: (Units=GPa)
#
#
# Indices 1 2 3 4 5 6 
#
# 1 89.8246 -2.6258 2.6093 0.0000 0.0000 0.0000
# 2 -2.6258 40.0224 7.6154 0.0000 0.0000 0.0000
# 3 2.6093 7.6154 124.6001 0.0000 0.0000 0.0000
# 4 0.0000 0.0000 0.0000 8.0254 0.0000 0.0000
# 5 0.0000 0.0000 0.0000 0.0000 30.3973 0.0000
# 6 0.0000 0.0000 0.0000 0.0000 0.0000 21.9058
#
#
#
# Elastic Compliance Matrix: (Units=1/GPa)
#
#
# Indices 1 2 3 4 5 6 
#
# 1 0.011164 0.000786 -0.000282 0.000000 0.000000 0.000000
# 2 0.000786 0.025335 -0.001565 0.000000 0.000000 0.000000
# 3 -0.000282 -0.001565 0.008127 0.000000 0.000000 0.000000
# 4 0.000000 0.000000 0.000000 0.124604 0.000000 0.000000
# 5 0.000000 0.000000 0.000000 0.000000 0.032898 0.000000
# 6 0.000000 0.000000 0.000000 0.000000 0.000000 0.045650
#
#
# Mechanical properties :
#
#
# Convention : Reuss Voigt Hill
#
# Bulk Modulus (GPa) = 23.52655 29.96054 26.74355
# Shear Modulus (GPa) = 18.93448 28.52223 23.72836
#
# Velocity S-wave (km/s) = 2.74910 3.37408 3.07750
# Velocity P-wave (km/s) = 4.41217 5.20940 4.82727
#
# Compressibility (1/GPa) = 0.04250516
#
# Stress axis : x y z
#
# Youngs Moduli (GPa) = 89.57387 39.47054 123.04320
#
# Poissons Ratio (x) = -0.03103 0.03468
# Poissons Ratio (y) = -0.07041 0.19255
# Poissons Ratio (z) = 0.02524 0.06177
#
# Static dielectric constant tensor:
#      x y z
#    x 1.950480 0.000000 0.000000 
#    y 0.000000 2.085380 0.000000 
#    z 0.000000 0.000000 1.956210 
# 
# From -- ./inp_files/14498.got.cif
#   From: 2010.05.17/outbox.cif.g08.bks.cpg/sg20_8_cif.got.tgz:14498.got - 2010.06.03 22:52:26.
