data_PCOD9318193
_publ_section_title
;
Structure prediction by ZEFSAII (Michael W. Deem and Ramdas Pophale) SiO2 
 PCOD9318193
Probable space group: C 2 2 21
;
_chemical_formula_sum "Si O2"
_cell_formula_units_Z 44
_cell_length_a 13.135651
_cell_length_b 7.449950
_cell_length_c 22.251480
_cell_angle_alpha 90.000000
_cell_angle_beta 90.000000
_cell_angle_gamma 90.000000
_cell_volume 2177.528568
_symmetry_space_group_name_H-M "C 2 2 21"
_symmetry_group_IT_number 20
_symmetry_cell_setting 'orthorhombic'
loop_
_space_group_symop_operation_xyz
x,y,z
-x,-y,1/2+z
x,-y,-z
-x,y,1/2-z
1/2+x,1/2+y,z
1/2-x,1/2-y,1/2+z
1/2+x,1/2-y,-z
1/2-x,1/2+y,1/2-z
loop_
_atom_site_type_symbol
_atom_site_label
_atom_site_fract_x
_atom_site_fract_y
_atom_site_fract_z
Si Si1 0.235328 0.529751 0.148210
Si Si2 0.764465 0.239680 0.258335
Si Si3 0.907052 0.938180 0.284900
Si Si4 0.223893 0.000000 0.000000
Si Si5 0.641079 0.667593 0.546422
Si Si6 0.419457 0.718970 0.587819
O O1 0.193217 0.404823 0.202322
O O2 0.286000 0.692464 0.187614
O O3 0.312491 0.415404 0.107934
O O4 0.148232 0.607309 0.104802
O O5 0.811974 0.070811 0.292338
O O6 0.643532 0.279927 0.255126
O O7 0.000000 0.025782 0.250000
O O8 0.943082 0.867345 0.347842
O O9 0.151989 0.084295 0.949030
O O10 0.290617 0.833925 0.975600
O O11 0.641604 0.500000 0.500000
O O12 0.526343 0.739579 0.554668
#
# Coordination Sequence:
#
# PCOD9318193 Si02
#       6
#     8   8   8   4   8   8
#     4  10  21  42  69  98 139 178 220 283 345 404
#     4   9  19  38  63  96 128 172 216 267 338 408
#     4  10  20  38  63  92 132 170 217 277 338 400
#     4  12  26  44  68  98 132 188 236 278 348 396
#     4  12  25  45  69  99 141 180 233 290 334 401
#     4  11  23  42  67  98 135 179 226 281 339 402
#
# _framework density 20.206394
#
# number of rings (size 3 to 8) (size 9 to 14) (size 15 to 20)
#    0.000    1.455    2.727    3.273    0.000    1.455 
#    3.273   11.818    0.000    0.000    0.000    0.000 
#    0.000    0.000    0.000    0.000    0.000    0.000 
#
# Total GULP energy -122471.074191 kJ/mol
# GULP energy per Si atom -5566.867009 kJ/mol
# Density = 2.016040 g / cm^3
# Si number density = 20.206394 Si / 1000 Ang^3
#
#
#
# Elastic Constant Matrix: (Units=GPa)
#
#
# Indices 1 2 3 4 5 6 
#
# 1 102.9745 48.3204 40.1589 0.0000 0.0000 0.0000
# 2 48.3204 74.1290 30.2975 0.0000 0.0000 0.0000
# 3 40.1589 30.2975 71.1651 0.0000 0.0000 0.0000
# 4 0.0000 0.0000 0.0000 45.3234 0.0000 0.0000
# 5 0.0000 0.0000 0.0000 0.0000 21.8911 0.0000
# 6 0.0000 0.0000 0.0000 0.0000 0.0000 21.0655
#
#
#
# Elastic Compliance Matrix: (Units=1/GPa)
#
#
# Indices 1 2 3 4 5 6 
#
# 1 0.015530 -0.007919 -0.005392 0.000000 0.000000 0.000000
# 2 -0.007919 0.020370 -0.004203 0.000000 0.000000 0.000000
# 3 -0.005392 -0.004203 0.018884 0.000000 0.000000 0.000000
# 4 0.000000 0.000000 0.000000 0.022064 0.000000 0.000000
# 5 0.000000 0.000000 0.000000 0.000000 0.045681 0.000000
# 6 0.000000 0.000000 0.000000 0.000000 0.000000 0.047471
#
#
# Mechanical properties :
#
#
# Convention : Reuss Voigt Hill
#
# Bulk Modulus (GPa) = 50.62095 53.98025 52.30060
# Shear Modulus (GPa) = 23.62786 26.28879 24.95833
#
# Velocity S-wave (km/s) = 3.42325 3.61087 3.51831
# Velocity P-wave (km/s) = 6.38210 6.64507 6.51491
#
# Compressibility (1/GPa) = 0.01975467
#
# Stress axis : x y z
#
# Youngs Moduli (GPa) = 64.39078 49.09147 52.95429
#
# Poissons Ratio (x) = 0.38877 0.28554
# Poissons Ratio (y) = 0.50993 0.22259
# Poissons Ratio (z) = 0.34721 0.20635
#
# Static dielectric constant tensor:
#      x y z
#    x 1.694440 0.000000 0.000000 
#    y 0.000000 1.816480 0.000000 
#    z 0.000000 0.000000 1.742730 
# 
# From -- ./inp_files/29049.got.cif
#   From: 2010.05.17/outbox.cif.g08.bks.cpg/sg20_15_cif.got.tgz:29049.got - 2010.06.03 22:52:26.
