data_PCOD9318345
_publ_section_title
;
Structure prediction by ZEFSAII (Michael W. Deem and Ramdas Pophale) SiO2 
 PCOD9318345
Probable space group: C 2 2 21
;
_chemical_formula_sum "Si O2"
_cell_formula_units_Z 56
_cell_length_a 8.016119
_cell_length_b 14.617658
_cell_length_c 20.705248
_cell_angle_alpha 90.000000
_cell_angle_beta 90.000000
_cell_angle_gamma 90.000000
_cell_volume 2426.176485
_symmetry_space_group_name_H-M "C 2 2 21"
_symmetry_group_IT_number 20
_symmetry_cell_setting 'orthorhombic'
loop_
_space_group_symop_operation_xyz
x,y,z
-x,-y,1/2+z
x,-y,-z
-x,y,1/2-z
1/2+x,1/2+y,z
1/2-x,1/2-y,1/2+z
1/2+x,1/2-y,-z
1/2-x,1/2+y,1/2-z
loop_
_atom_site_type_symbol
_atom_site_label
_atom_site_fract_x
_atom_site_fract_y
_atom_site_fract_z
Si Si1 0.128616 0.945364 0.691313
Si Si2 0.897768 0.881375 0.943185
Si Si3 0.538635 0.906908 0.009853
Si Si4 0.174356 0.620176 0.763576
Si Si5 0.070158 0.289873 0.114117
Si Si6 0.865982 0.733605 0.308445
Si Si7 0.062056 0.227444 0.560224
O O1 0.057775 0.946936 0.617209
O O2 0.266579 0.863255 0.691159
O O3 0.000000 0.925662 0.750000
O O4 0.203052 0.045456 0.706639
O O5 0.713854 0.909788 0.969311
O O6 0.933694 0.784572 0.905745
O O7 0.982691 0.858116 0.012957
O O8 0.458012 0.817438 0.981989
O O9 0.537563 0.890735 0.086544
O O10 0.444577 0.000000 0.000000
O O11 0.120628 0.701311 0.812387
O O12 0.253399 0.676665 0.705321
O O13 0.000000 0.570731 0.750000
O O14 0.243304 0.271897 0.077148
O O15 0.000000 0.730272 0.250000
O O16 0.958260 0.756163 0.375379
#
# Coordination Sequence:
#
# PCOD9318345 Si02
#       7
#     8   8   8   8   8   8   8
#     4  12  26  44  69 102 141 190 237 294 360 430
#     4  10  21  42  66  96 135 178 229 288 345 418
#     4  10  20  39  66  96 132 177 230 287 344 412
#     4  12  26  45  70 103 140 188 241 294 360 432
#     4  10  21  39  66  96 131 179 229 279 349 421
#     4  12  23  43  72 102 144 185 231 295 362 428
#     4  10  22  39  70 101 135 179 234 283 360 415
#
# _framework density 23.081588
#
# number of rings (size 3 to 8) (size 9 to 14) (size 15 to 20)
#    0.000    1.143    2.857    3.857    0.000    0.000 
#    0.000    0.714    0.000    1.714    0.000    0.000 
#    0.000    0.000    0.000    0.000    0.000    0.000 
#
# Total GULP energy -155973.093107 kJ/mol
# GULP energy per Si atom -5570.467611 kJ/mol
# Density = 2.302905 g / cm^3
# Si number density = 23.081588 Si / 1000 Ang^3
#
#
#
# Elastic Constant Matrix: (Units=GPa)
#
#
# Indices 1 2 3 4 5 6 
#
# 1 43.5814 12.5695 12.4901 0.0000 0.0000 0.0000
# 2 12.5695 79.6614 15.6477 0.0000 0.0000 0.0000
# 3 12.4901 15.6477 117.2460 0.0000 0.0000 0.0000
# 4 0.0000 0.0000 0.0000 31.4008 0.0000 0.0000
# 5 0.0000 0.0000 0.0000 0.0000 14.2067 0.0000
# 6 0.0000 0.0000 0.0000 0.0000 0.0000 -700.3437
#
#
#
# Elastic Compliance Matrix: (Units=1/GPa)
#
#
# Indices 1 2 3 4 5 6 
#
# 1 0.024559 -0.003452 -0.002156 0.000000 0.000000 0.000000
# 2 -0.003452 0.013376 -0.001417 0.000000 0.000000 0.000000
# 3 -0.002156 -0.001417 0.008948 0.000000 0.000000 0.000000
# 4 0.000000 0.000000 0.000000 0.031846 0.000000 0.000000
# 5 0.000000 0.000000 0.000000 0.000000 0.070389 0.000000
# 6 0.000000 0.000000 0.000000 0.000000 0.000000 -0.001428
#
#
# Mechanical properties :
#
#
# Convention : Reuss Voigt Hill
#
# Bulk Modulus (GPa) = 30.45671 35.76705 33.11188
# Shear Modulus (GPa) = 28.95455 -117.62846 -44.33695
#
# Velocity S-wave (km/s) = 3.54565 -7.14651 -4.38754
# Velocity P-wave (km/s) = 5.47596 7.25033 3.36015
#
# Compressibility (1/GPa) = 0.03283348
#
# Stress axis : x y z
#
# Youngs Moduli (GPa) = 40.71857 74.75970 111.75827
#
# Poissons Ratio (x) = 0.25804 0.24090
# Poissons Ratio (y) = 0.14055 0.15842
# Poissons Ratio (z) = 0.08777 0.10597
#
# Static dielectric constant tensor:
#      x y z
#    x 1.917000 0.000000 0.000000 
#    y 0.000000 1.842920 0.000000 
#    z 0.000000 0.000000 1.952300 
# 
# From -- ./inp_files/26700.got.cif
#   From: 2010.05.17/outbox.cif.g08.bks.cpg/sg20_14_cif.got.tgz:26700.got - 2010.06.03 22:52:26.
