data_PCOD9318778
_publ_section_title
;
Structure prediction by ZEFSAII (Michael W. Deem and Ramdas Pophale) SiO2 
 PCOD9318778
Probable space group: C 2 2 21
;
_chemical_formula_sum "Si O2"
_cell_formula_units_Z 36
_cell_length_a 5.433339
_cell_length_b 18.037243
_cell_length_c 14.920596
_cell_angle_alpha 90.000000
_cell_angle_beta 90.000000
_cell_angle_gamma 90.000000
_cell_volume 1462.255051
_symmetry_space_group_name_H-M "C 2 2 21"
_symmetry_group_IT_number 20
_symmetry_cell_setting 'orthorhombic'
loop_
_space_group_symop_operation_xyz
x,y,z
-x,-y,1/2+z
x,-y,-z
-x,y,1/2-z
1/2+x,1/2+y,z
1/2-x,1/2-y,1/2+z
1/2+x,1/2-y,-z
1/2-x,1/2+y,1/2-z
loop_
_atom_site_type_symbol
_atom_site_label
_atom_site_fract_x
_atom_site_fract_y
_atom_site_fract_z
Si Si1 0.578031 0.430960 0.432007
Si Si2 0.087562 0.782269 0.973596
Si Si3 0.749693 0.252666 0.776122
Si Si4 0.581232 0.980818 0.393757
Si Si5 0.500000 0.106625 0.250000
O O1 0.603756 0.500000 0.500000
O O2 0.507862 0.360784 0.491567
O O3 0.843311 0.428010 0.384934
O O4 0.344975 0.446984 0.369371
O O5 0.225421 0.774394 0.879161
O O6 0.326109 0.761325 0.034838
O O7 0.500000 0.214642 0.750000
O O8 0.783698 0.333879 0.729056
O O9 0.000000 0.212101 0.750000
O O10 0.601562 0.000000 0.500000
O O11 0.541497 0.054041 0.334670
#
# Coordination Sequence:
#
# PCOD9318778 Si02
#       5
#     8   8   8   8   4
#     4  10  22  39  66  98 138 171 229 279 345 413
#     4  12  25  44  73 103 137 189 237 291 362 431
#     4  10  23  38  68 101 134 176 245 293 335 413
#     4  10  21  35  62  97 135 170 219 291 347 394
#     4  10  24  36  72 102 140 180 244 286 348 420
#
# _framework density 24.619509999999998
#
# number of rings (size 3 to 8) (size 9 to 14) (size 15 to 20)
#    0.667    0.889    0.000    5.333    9.333    0.000 
#    0.000    0.000   24.444    0.000    0.000    0.000 
#    0.000    0.000    0.000    0.000    0.000    0.000 
#
# Total GULP energy -100461.832024 kJ/mol
# GULP energy per Si atom -5581.212890 kJ/mol
# Density = 2.456347 g / cm^3
# Si number density = 24.619510 Si / 1000 Ang^3
#
#
#
# Elastic Constant Matrix: (Units=GPa)
#
#
# Indices 1 2 3 4 5 6 
#
# 1 204.9826 28.3153 4.4939 0.0000 0.0000 0.0000
# 2 28.3153 67.2286 10.2311 0.0000 0.0000 0.0000
# 3 4.4939 10.2311 52.8152 0.0000 0.0000 0.0000
# 4 0.0000 0.0000 0.0000 15.7706 0.0000 0.0000
# 5 0.0000 0.0000 0.0000 0.0000 28.7961 0.0000
# 6 0.0000 0.0000 0.0000 0.0000 0.0000 22.0964
#
#
#
# Elastic Compliance Matrix: (Units=1/GPa)
#
#
# Indices 1 2 3 4 5 6 
#
# 1 0.005180 -0.002179 -0.000019 0.000000 0.000000 0.000000
# 2 -0.002179 0.016243 -0.002961 0.000000 0.000000 0.000000
# 3 -0.000019 -0.002961 0.019509 0.000000 0.000000 0.000000
# 4 0.000000 0.000000 0.000000 0.063409 0.000000 0.000000
# 5 0.000000 0.000000 0.000000 0.000000 0.034727 0.000000
# 6 0.000000 0.000000 0.000000 0.000000 0.000000 0.045256
#
#
# Mechanical properties :
#
#
# Convention : Reuss Voigt Hill
#
# Bulk Modulus (GPa) = 32.66403 45.67856 39.17129
# Shear Modulus (GPa) = 24.40857 32.13170 28.27014
#
# Velocity S-wave (km/s) = 3.15212 3.61658 3.39231
# Velocity P-wave (km/s) = 5.15210 6.00280 5.59365
#
# Compressibility (1/GPa) = 0.03061472
#
# Stress axis : x y z
#
# Youngs Moduli (GPa) = 193.05608 61.56523 51.25803
#
# Poissons Ratio (x) = 0.13414 0.00096
# Poissons Ratio (y) = 0.42063 0.15178
# Poissons Ratio (z) = 0.00360 0.18230
#
# Static dielectric constant tensor:
#      x y z
#    x 2.075700 0.000000 0.000000 
#    y 0.000000 1.916590 0.000000 
#    z 0.000000 0.000000 1.945860 
# 
# From -- ./inp_files/17538.got.cif
#   From: 2010.05.17/outbox.cif.g08.bks.cpg/sg20_9_cif.got.tgz:17538.got - 2010.06.03 22:52:26.
