data_PCOD9318921
_publ_section_title
;
Structure prediction by ZEFSAII (Michael W. Deem and Ramdas Pophale) SiO2 
 PCOD9318921
Probable space group: C 2 2 21
;
_chemical_formula_sum "Si O2"
_cell_formula_units_Z 32
_cell_length_a 29.341637
_cell_length_b 9.177577
_cell_length_c 5.153031
_cell_angle_alpha 90.000000
_cell_angle_beta 90.000000
_cell_angle_gamma 90.000000
_cell_volume 1387.634638
_symmetry_space_group_name_H-M "C 2 2 21"
_symmetry_group_IT_number 20
_symmetry_cell_setting 'orthorhombic'
loop_
_space_group_symop_operation_xyz
x,y,z
-x,-y,1/2+z
x,-y,-z
-x,y,1/2-z
1/2+x,1/2+y,z
1/2-x,1/2-y,1/2+z
1/2+x,1/2-y,-z
1/2-x,1/2+y,1/2-z
loop_
_atom_site_type_symbol
_atom_site_label
_atom_site_fract_x
_atom_site_fract_y
_atom_site_fract_z
Si Si1 0.554429 0.420372 0.251219
Si Si2 0.230911 0.324746 0.444428
Si Si3 0.043505 0.337263 0.409660
Si Si4 0.362665 0.899831 0.253526
O O1 0.574982 0.500000 0.500000
O O2 0.500000 0.446610 0.250000
O O3 0.556526 0.252203 0.332805
O O4 0.573386 0.500000 0.000000
O O5 0.236518 0.500000 0.500000
O O6 0.236941 0.238915 0.715755
O O7 0.180514 0.302878 0.320992
O O8 0.032210 0.500000 0.500000
O O9 0.087575 0.330231 0.224660
O O10 0.000000 0.278708 0.250000
O O11 0.351993 0.000000 0.500000
O O12 0.368514 0.000000 0.000000
#
# Coordination Sequence:
#
# PCOD9318921 Si02
#       4
#     8   8   8   8
#     4  10  21  38  57  80 119 171 218 265 328 384
#     4  11  22  42  70  99 132 174 220 274 341 408
#     4  11  22  38  67 101 133 174 233 284 321 385
#     4  10  22  40  63  98 139 175 212 271 347 399
#
# _framework density 23.060822999999999
#
# number of rings (size 3 to 8) (size 9 to 14) (size 15 to 20)
#    0.000    1.500    0.000    7.500    0.000    6.000 
#    0.000    3.750    0.000    4.500    0.000    1.750 
#    0.000    0.000    0.000    0.000    0.000    0.000 
#
# Total GULP energy -89330.141501 kJ/mol
# GULP energy per Si atom -5583.133844 kJ/mol
# Density = 2.300834 g / cm^3
# Si number density = 23.060823 Si / 1000 Ang^3
#
#
#
# Elastic Constant Matrix: (Units=GPa)
#
#
# Indices 1 2 3 4 5 6 
#
# 1 104.3909 7.9844 17.1936 0.0000 0.0000 0.0000
# 2 7.9844 136.7723 59.2769 0.0000 0.0000 0.0000
# 3 17.1936 59.2769 187.0370 0.0000 0.0000 0.0000
# 4 0.0000 0.0000 0.0000 52.7676 0.0000 0.0000
# 5 0.0000 0.0000 0.0000 0.0000 29.1182 0.0000
# 6 0.0000 0.0000 0.0000 0.0000 0.0000 12.7062
#
#
#
# Elastic Compliance Matrix: (Units=1/GPa)
#
#
# Indices 1 2 3 4 5 6 
#
# 1 0.009732 -0.000209 -0.000828 0.000000 0.000000 0.000000
# 2 -0.000209 0.008480 -0.002668 0.000000 0.000000 0.000000
# 3 -0.000828 -0.002668 0.006268 0.000000 0.000000 0.000000
# 4 0.000000 0.000000 0.000000 0.018951 0.000000 0.000000
# 5 0.000000 0.000000 0.000000 0.000000 0.034343 0.000000
# 6 0.000000 0.000000 0.000000 0.000000 0.000000 0.078701
#
#
# Mechanical properties :
#
#
# Convention : Reuss Voigt Hill
#
# Bulk Modulus (GPa) = 58.58690 66.34555 62.46623
# Shear Modulus (GPa) = 29.48520 41.83476 35.65998
#
# Velocity S-wave (km/s) = 3.57961 4.26385 3.93662
# Velocity P-wave (km/s) = 6.52268 7.28511 6.91441
#
# Compressibility (1/GPa) = 0.01706866
#
# Stress axis : x y z
#
# Youngs Moduli (GPa) = 102.75590 117.92336 159.53174
#
# Poissons Ratio (x) = 0.02466 0.13215
# Poissons Ratio (y) = 0.02149 0.42568
# Poissons Ratio (z) = 0.08512 0.31466
#
# Static dielectric constant tensor:
#      x y z
#    x 1.940950 0.000000 0.000000 
#    y 0.000000 1.920570 0.000000 
#    z 0.000000 0.000000 1.894960 
# 
# From -- ./inp_files/702.got.cif
#   From: 2010.05.17/outbox.cif.g08.bks.cpg/sg20_1_cif.got.tgz:702.got - 2010.06.03 22:52:26.
