data_PCOD9318456
_publ_section_title
;
Structure prediction by ZEFSAII (Michael W. Deem and Ramdas Pophale) SiO2 
 PCOD9318456
Probable space group: C 2 2 21
;
_chemical_formula_sum "Si O2"
_cell_formula_units_Z 52
_cell_length_a 22.155024
_cell_length_b 9.384495
_cell_length_c 11.238767
_cell_angle_alpha 90.000000
_cell_angle_beta 90.000000
_cell_angle_gamma 90.000000
_cell_volume 2336.693765
_symmetry_space_group_name_H-M "C 2 2 21"
_symmetry_group_IT_number 20
_symmetry_cell_setting 'orthorhombic'
loop_
_space_group_symop_operation_xyz
x,y,z
-x,-y,1/2+z
x,-y,-z
-x,y,1/2-z
1/2+x,1/2+y,z
1/2-x,1/2-y,1/2+z
1/2+x,1/2-y,-z
1/2-x,1/2+y,1/2-z
loop_
_atom_site_type_symbol
_atom_site_label
_atom_site_fract_x
_atom_site_fract_y
_atom_site_fract_z
Si Si1 0.152742 0.794164 0.845962
Si Si2 0.500000 0.141660 0.750000
Si Si3 0.283541 0.861486 0.929369
Si Si4 0.322460 0.397271 0.909217
Si Si5 0.688061 0.036435 0.174234
Si Si6 0.023677 0.834901 0.970651
Si Si7 0.062329 0.591962 0.113081
O O1 0.211455 0.852077 0.913691
O O2 0.147452 0.866063 0.716225
O O3 0.169871 0.629151 0.820744
O O4 0.091843 0.824045 0.917218
O O5 0.489172 0.245878 0.864283
O O6 0.448940 0.021360 0.719479
O O7 0.309390 0.878500 0.797695
O O8 0.308862 0.737230 0.009509
O O9 0.300281 0.000000 0.000000
O O10 0.255612 0.457317 0.876493
O O11 0.356656 0.500000 0.000000
O O12 0.634365 0.112693 0.102715
O O13 0.026973 0.739248 0.092017
O O14 0.008820 0.000000 0.000000
O O15 0.042409 0.500000 0.000000
#
# Coordination Sequence:
#
# PCOD9318456 Si02
#       7
#     8   4   8   8   8   8   8
#     4  11  21  37  61  88 125 172 219 253 310 390
#     4  10  22  42  70  96 124 154 222 266 320 404
#     4  11  22  33  52  87 124 168 211 253 307 355
#     4  11  22  35  54  85 130 171 211 259 311 362
#     4  11  20  36  62  85 123 174 216 262 295 382
#     4  11  24  43  69  99 129 160 208 278 328 381
#     4  10  20  40  68  91 119 165 215 257 316 388
#
# _framework density 22.253665000000002
#
# number of rings (size 3 to 8) (size 9 to 14) (size 15 to 20)
#    0.000    1.231    6.154    1.846    0.000    1.846 
#    0.000    7.692    0.000    0.000    0.000    0.000 
#    0.000    0.000    0.000    0.000    0.000    0.000 
#
# Total GULP energy -144954.046507 kJ/mol
# GULP energy per Si atom -5575.155635 kJ/mol
# Density = 2.220302 g / cm^3
# Si number density = 22.253665 Si / 1000 Ang^3
#
#
#
# Elastic Constant Matrix: (Units=GPa)
#
#
# Indices 1 2 3 4 5 6 
#
# 1 39.3291 23.2703 10.4684 0.0000 0.0000 0.0000
# 2 23.2703 103.7600 24.7674 0.0000 0.0000 0.0000
# 3 10.4684 24.7674 75.2361 0.0000 0.0000 0.0000
# 4 0.0000 0.0000 0.0000 42.6311 0.0000 0.0000
# 5 0.0000 0.0000 0.0000 0.0000 26.4006 0.0000
# 6 0.0000 0.0000 0.0000 0.0000 0.0000 20.7286
#
#
#
# Elastic Compliance Matrix: (Units=1/GPa)
#
#
# Indices 1 2 3 4 5 6 
#
# 1 0.029619 -0.006142 -0.002099 0.000000 0.000000 0.000000
# 2 -0.006142 0.011733 -0.003008 0.000000 0.000000 0.000000
# 3 -0.002099 -0.003008 0.014574 0.000000 0.000000 0.000000
# 4 0.000000 0.000000 0.000000 0.023457 0.000000 0.000000
# 5 0.000000 0.000000 0.000000 0.000000 0.037878 0.000000
# 6 0.000000 0.000000 0.000000 0.000000 0.000000 0.048243
#
#
# Mechanical properties :
#
#
# Convention : Reuss Voigt Hill
#
# Bulk Modulus (GPa) = 29.91496 37.25972 33.58734
# Shear Modulus (GPa) = 25.10745 28.60666 26.85706
#
# Velocity S-wave (km/s) = 3.36257 3.58925 3.47776
# Velocity P-wave (km/s) = 5.34301 5.82722 5.59036
#
# Compressibility (1/GPa) = 0.03342809
#
# Stress axis : x y z
#
# Youngs Moduli (GPa) = 33.76190 85.22980 68.61626
#
# Poissons Ratio (x) = 0.52345 0.14406
# Poissons Ratio (y) = 0.20735 0.20639
# Poissons Ratio (z) = 0.07088 0.25636
#
# Static dielectric constant tensor:
#      x y z
#    x 1.873560 0.000000 0.000000 
#    y 0.000000 1.822840 0.000000 
#    z 0.000000 0.000000 1.659210 
# 
# From -- ./inp_files/13248.got.cif
#   From: 2010.05.17/outbox.cif.g08.bks.cpg/sg20_7_cif.got.tgz:13248.got - 2010.06.03 22:52:26.
