data_PCOD9318480
_publ_section_title
;
Structure prediction by ZEFSAII (Michael W. Deem and Ramdas Pophale) SiO2 
 PCOD9318480
Probable space group: C 2 2 21
;
_chemical_formula_sum "Si O2"
_cell_formula_units_Z 48
_cell_length_a 13.620830
_cell_length_b 25.331985
_cell_length_c 5.962951
_cell_angle_alpha 90.000000
_cell_angle_beta 90.000000
_cell_angle_gamma 90.000000
_cell_volume 2057.472482
_symmetry_space_group_name_H-M "C 2 2 21"
_symmetry_group_IT_number 20
_symmetry_cell_setting 'orthorhombic'
loop_
_space_group_symop_operation_xyz
x,y,z
-x,-y,1/2+z
x,-y,-z
-x,y,1/2-z
1/2+x,1/2+y,z
1/2-x,1/2-y,1/2+z
1/2+x,1/2-y,-z
1/2-x,1/2+y,1/2-z
loop_
_atom_site_type_symbol
_atom_site_label
_atom_site_fract_x
_atom_site_fract_y
_atom_site_fract_z
Si Si1 0.847864 0.377223 0.852141
Si Si2 0.500000 0.968838 0.750000
Si Si3 0.333925 0.630975 0.654672
Si Si4 0.705859 0.794274 0.022937
Si Si5 0.614221 0.778613 0.423619
Si Si6 0.885789 0.984593 0.247405
Si Si7 0.000000 0.203227 0.750000
O O1 0.833379 0.331636 0.669974
O O2 0.904678 0.340575 0.032518
O O3 0.906353 0.429057 0.778023
O O4 0.740014 0.385610 0.956444
O O5 0.493729 0.000000 0.500000
O O6 0.270137 0.664260 0.832463
O O7 0.376415 0.578102 0.758625
O O8 0.427345 0.666845 0.604029
O O9 0.611632 0.773493 0.157871
O O10 0.772593 0.744342 0.956638
O O11 0.559771 0.740085 0.585670
O O12 0.000000 0.002746 0.250000
O O13 0.846679 0.000000 0.500000
O O14 0.843082 0.000000 0.000000
#
# Coordination Sequence:
#
# PCOD9318480 Si02
#       7
#     8   4   8   8   8   8   4
#     4  11  25  49  76 106 150 203 256 336 413 466
#     4  12  33  60  84 116 154 208 301 366 412 478
#     4  10  23  42  68 109 148 197 248 322 390 487
#     4  10  21  40  71 103 153 192 253 308 394 489
#     4  10  20  40  70 108 152 201 246 313 395 504
#     4  10  22  42  66  97 146 198 249 307 374 457
#     4  10  21  42  70 112 158 200 255 304 406 508
#
# _framework density 23.329595000000001
#
# number of rings (size 3 to 8) (size 9 to 14) (size 15 to 20)
#    0.000    1.667    2.500    0.500    7.000    0.667 
#    0.000    8.333    0.000    0.000    0.000    0.000 
#    0.000    0.000    0.000    0.000    0.000    0.000 
#
# Total GULP energy -133667.360647 kJ/mol
# GULP energy per Si atom -5569.473360 kJ/mol
# Density = 2.327650 g / cm^3
# Si number density = 23.329595 Si / 1000 Ang^3
#
#
#
# Elastic Constant Matrix: (Units=GPa)
#
#
# Indices 1 2 3 4 5 6 
#
# 1 79.1305 32.8315 31.5414 0.0000 0.0000 0.0000
# 2 32.8315 134.2904 45.1872 0.0000 0.0000 0.0000
# 3 31.5414 45.1872 116.3857 0.0000 0.0000 0.0000
# 4 0.0000 0.0000 0.0000 37.9367 0.0000 0.0000
# 5 0.0000 0.0000 0.0000 0.0000 25.5856 0.0000
# 6 0.0000 0.0000 0.0000 0.0000 0.0000 35.9829
#
#
#
# Elastic Compliance Matrix: (Units=1/GPa)
#
#
# Indices 1 2 3 4 5 6 
#
# 1 0.014936 -0.002634 -0.003025 0.000000 0.000000 0.000000
# 2 -0.002634 0.009030 -0.002792 0.000000 0.000000 0.000000
# 3 -0.003025 -0.002792 0.010496 0.000000 0.000000 0.000000
# 4 0.000000 0.000000 0.000000 0.026360 0.000000 0.000000
# 5 0.000000 0.000000 0.000000 0.000000 0.039084 0.000000
# 6 0.000000 0.000000 0.000000 0.000000 0.000000 0.027791
#
#
# Mechanical properties :
#
#
# Convention : Reuss Voigt Hill
#
# Bulk Modulus (GPa) = 56.94801 60.99185 58.96993
# Shear Modulus (GPa) = 33.23311 34.58415 33.90863
#
# Velocity S-wave (km/s) = 3.77836 3.85439 3.81656
# Velocity P-wave (km/s) = 6.59529 6.78298 6.68979
#
# Compressibility (1/GPa) = 0.01755988
#
# Stress axis : x y z
#
# Youngs Moduli (GPa) = 66.95275 110.74250 95.27376
#
# Poissons Ratio (x) = 0.29165 0.28823
# Poissons Ratio (y) = 0.17633 0.26602
# Poissons Ratio (z) = 0.20255 0.30921
#
# Static dielectric constant tensor:
#      x y z
#    x 2.018320 0.000000 0.000000 
#    y 0.000000 1.815710 0.000000 
#    z 0.000000 0.000000 2.084040 
# 
# From -- ./inp_files/2097.got.cif
#   From: 2010.05.17/outbox.cif.g08.bks.cpg/sg20_2_cif.got.tgz:2097.got - 2010.06.03 22:52:26.
