data_PCOD9318446
_publ_section_title
;
Structure prediction by ZEFSAII (Michael W. Deem and Ramdas Pophale) SiO2 
 PCOD9318446
Probable space group: C 2 2 21
;
_chemical_formula_sum "Si O2"
_cell_formula_units_Z 52
_cell_length_a 17.205383
_cell_length_b 8.238512
_cell_length_c 18.952468
_cell_angle_alpha 90.000000
_cell_angle_beta 90.000000
_cell_angle_gamma 90.000000
_cell_volume 2686.450825
_symmetry_space_group_name_H-M "C 2 2 21"
_symmetry_group_IT_number 20
_symmetry_cell_setting 'orthorhombic'
loop_
_space_group_symop_operation_xyz
x,y,z
-x,-y,1/2+z
x,-y,-z
-x,y,1/2-z
1/2+x,1/2+y,z
1/2-x,1/2-y,1/2+z
1/2+x,1/2-y,-z
1/2-x,1/2+y,1/2-z
loop_
_atom_site_type_symbol
_atom_site_label
_atom_site_fract_x
_atom_site_fract_y
_atom_site_fract_z
Si Si1 0.593913 0.032797 0.157004
Si Si2 0.135611 0.864221 0.940657
Si Si3 0.025242 0.173559 0.169970
Si Si4 0.256028 0.922887 0.421027
Si Si5 0.078189 0.069240 0.614678
Si Si6 0.504553 0.172780 0.023546
Si Si7 0.500000 0.255935 0.250000
O O1 0.553080 0.119322 0.091562
O O2 0.571031 0.144429 0.222485
O O3 0.553129 0.859202 0.169408
O O4 0.682262 0.006105 0.132288
O O5 0.212775 0.761148 0.928868
O O6 0.098234 0.921908 0.866301
O O7 0.069964 0.739433 0.970219
O O8 0.143948 0.000000 0.000000
O O9 0.000000 0.141859 0.250000
O O10 0.954195 0.114705 0.120352
O O11 0.170361 0.930946 0.389459
O O12 0.258504 0.000000 0.500000
O O13 0.048796 0.178285 0.548888
O O14 0.037756 0.148352 0.684013
O O15 0.467101 0.000000 0.000000
#
# Coordination Sequence:
#
# PCOD9318446 Si02
#       7
#     8   8   8   8   8   8   4
#     4  10  20  40  67  84 124 172 211 257 312 389
#     4  11  21  39  66  88 123 170 211 260 321 382
#     4  11  21  38  62  97 119 166 218 258 304 389
#     4  11  23  41  61  94 129 156 208 273 335 361
#     4  11  25  38  63  94 127 160 214 273 306 383
#     4  11  19  37  65  91 115 169 216 256 314 380
#     4  10  22  44  62  86 124 176 218 242 316 388
#
# _framework density 19.356394000000002
#
# number of rings (size 3 to 8) (size 9 to 14) (size 15 to 20)
#    0.000    1.231    7.692    0.000    2.154    0.615 
#    5.538    1.538    0.000    0.000    0.000    0.000 
#    0.000    0.000    0.000    0.000    0.000    0.000 
#
# Total GULP energy -144826.025045 kJ/mol
# GULP energy per Si atom -5570.231733 kJ/mol
# Density = 1.931234 g / cm^3
# Si number density = 19.356394 Si / 1000 Ang^3
#
#
#
# Elastic Constant Matrix: (Units=GPa)
#
#
# Indices 1 2 3 4 5 6 
#
# 1 135.5877 40.6473 27.5273 0.0000 0.0000 0.0000
# 2 40.6473 52.4431 17.0237 0.0000 0.0000 0.0000
# 3 27.5273 17.0237 73.9945 0.0000 0.0000 0.0000
# 4 0.0000 0.0000 0.0000 24.4471 0.0000 0.0000
# 5 0.0000 0.0000 0.0000 0.0000 22.7931 0.0000
# 6 0.0000 0.0000 0.0000 0.0000 0.0000 18.7546
#
#
#
# Elastic Compliance Matrix: (Units=1/GPa)
#
#
# Indices 1 2 3 4 5 6 
#
# 1 0.009893 -0.006995 -0.002071 0.000000 0.000000 0.000000
# 2 -0.006995 0.025554 -0.003277 0.000000 0.000000 0.000000
# 3 -0.002071 -0.003277 0.015039 0.000000 0.000000 0.000000
# 4 0.000000 0.000000 0.000000 0.040905 0.000000 0.000000
# 5 0.000000 0.000000 0.000000 0.000000 0.043873 0.000000
# 6 0.000000 0.000000 0.000000 0.000000 0.000000 0.053320
#
#
# Mechanical properties :
#
#
# Convention : Reuss Voigt Hill
#
# Bulk Modulus (GPa) = 38.76045 48.04688 43.40366
# Shear Modulus (GPa) = 22.53576 24.98741 23.76159
#
# Velocity S-wave (km/s) = 3.41582 3.59682 3.50749
# Velocity P-wave (km/s) = 5.96868 6.49043 6.23502
#
# Compressibility (1/GPa) = 0.02579949
#
# Stress axis : x y z
#
# Youngs Moduli (GPa) = 101.08268 39.13291 66.49469
#
# Poissons Ratio (x) = 0.27375 0.13770
# Poissons Ratio (y) = 0.70712 0.21788
# Poissons Ratio (z) = 0.20933 0.12823
#
# Static dielectric constant tensor:
#      x y z
#    x 1.635620 0.000000 0.000000 
#    y 0.000000 1.778720 0.000000 
#    z 0.000000 0.000000 1.827150 
# 
# From -- ./inp_files/27519.got.cif
#   From: 2010.05.17/outbox.cif.g08.bks.cpg/sg20_14_cif.got.tgz:27519.got - 2010.06.03 22:52:26.
