data_PCOD9318895
_publ_section_title
;
Structure prediction by ZEFSAII (Michael W. Deem and Ramdas Pophale) SiO2 
 PCOD9318895
Probable space group: C 2 2 21
;
_chemical_formula_sum "Si O2"
_cell_formula_units_Z 48
_cell_length_a 18.781606
_cell_length_b 14.299500
_cell_length_c 9.326514
_cell_angle_alpha 90.000000
_cell_angle_beta 90.000000
_cell_angle_gamma 90.000000
_cell_volume 2504.799248
_symmetry_space_group_name_H-M "C 2 2 21"
_symmetry_group_IT_number 20
_symmetry_cell_setting 'orthorhombic'
loop_
_space_group_symop_operation_xyz
x,y,z
-x,-y,1/2+z
x,-y,-z
-x,y,1/2-z
1/2+x,1/2+y,z
1/2-x,1/2-y,1/2+z
1/2+x,1/2-y,-z
1/2-x,1/2+y,1/2-z
loop_
_atom_site_type_symbol
_atom_site_label
_atom_site_fract_x
_atom_site_fract_y
_atom_site_fract_z
Si Si1 0.707712 0.358026 0.809474
Si Si2 0.065460 0.445281 0.856961
Si Si3 0.052601 0.915467 0.882771
Si Si4 0.184601 0.523693 0.654807
Si Si5 0.775890 0.793132 0.378543
Si Si6 0.937621 0.775761 0.367636
O O1 0.626268 0.388027 0.805613
O O2 0.750203 0.452244 0.838343
O O3 0.743353 0.302425 0.680372
O O4 0.717827 0.293693 0.949913
O O5 0.131874 0.495232 0.780566
O O6 0.075647 0.335026 0.886058
O O7 0.000000 0.452211 0.750000
O O8 0.049066 0.500000 0.000000
O O9 0.000000 0.935586 0.750000
O O10 0.036972 0.826685 0.986624
O O11 0.058936 0.000000 0.000000
O O12 0.149516 0.500000 0.500000
O O13 0.219223 0.625955 0.661128
O O14 0.857626 0.812659 0.327249
O O15 0.000000 0.789479 0.250000
#
# Coordination Sequence:
#
# PCOD9318895 Si02
#       6
#     8   8   8   8   8   8
#     4  10  21  40  60  94 124 165 207 264 317 373
#     4  11  24  41  62  90 127 167 213 260 317 379
#     4  11  24  43  66  93 130 170 215 263 322 383
#     4  10  21  39  62  89 124 166 205 257 320 376
#     4  10  21  37  63  90 127 164 208 260 318 379
#     4  10  22  42  65  94 131 168 210 269 318 374
#
# _framework density 19.163212000000001
#
# number of rings (size 3 to 8) (size 9 to 14) (size 15 to 20)
#    0.000    1.667    1.667    3.500    4.667    2.000 
#    3.000    0.833    0.000    0.000    0.000    0.000 
#    0.000    0.000    0.000    0.000    0.000    0.000 
#
# Total GULP energy -133834.292794 kJ/mol
# GULP energy per Si atom -5576.428866 kJ/mol
# Density = 1.911960 g / cm^3
# Si number density = 19.163212 Si / 1000 Ang^3
#
#
#
# Elastic Constant Matrix: (Units=GPa)
#
#
# Indices 1 2 3 4 5 6 
#
# 1 73.7595 16.8955 27.8018 0.0000 0.0000 0.0000
# 2 16.8955 54.8316 35.8926 0.0000 0.0000 0.0000
# 3 27.8018 35.8926 54.5255 0.0000 0.0000 0.0000
# 4 0.0000 0.0000 0.0000 34.0420 0.0000 0.0000
# 5 0.0000 0.0000 0.0000 0.0000 19.8622 0.0000
# 6 0.0000 0.0000 0.0000 0.0000 0.0000 23.0348
#
#
#
# Elastic Compliance Matrix: (Units=1/GPa)
#
#
# Indices 1 2 3 4 5 6 
#
# 1 0.016801 0.000757 -0.009065 0.000000 0.000000 0.000000
# 2 0.000757 0.032081 -0.021504 0.000000 0.000000 0.000000
# 3 -0.009065 -0.021504 0.037117 0.000000 0.000000 0.000000
# 4 0.000000 0.000000 0.000000 0.029375 0.000000 0.000000
# 5 0.000000 0.000000 0.000000 0.000000 0.050347 0.000000
# 6 0.000000 0.000000 0.000000 0.000000 0.000000 0.043413
#
#
# Mechanical properties :
#
#
# Convention : Reuss Voigt Hill
#
# Bulk Modulus (GPa) = 37.91373 38.25515 38.08444
# Shear Modulus (GPa) = 18.01483 22.22292 20.11887
#
# Velocity S-wave (km/s) = 3.06939 3.40908 3.24368
# Velocity P-wave (km/s) = 5.69114 5.95835 5.82628
#
# Compressibility (1/GPa) = 0.02637567
#
# Stress axis : x y z
#
# Youngs Moduli (GPa) = 59.52047 31.17136 26.94160
#
# Poissons Ratio (x) = -0.02359 0.24422
# Poissons Ratio (y) = -0.04505 0.57934
# Poissons Ratio (z) = 0.53954 0.67030
#
# Static dielectric constant tensor:
#      x y z
#    x 1.687800 0.000000 0.000000 
#    y 0.000000 1.678280 0.000000 
#    z 0.000000 0.000000 1.641990 
# 
# From -- ./inp_files/8382.got.cif
#   From: 2010.05.17/outbox.cif.g08.bks.cpg/sg20_5_cif.got.tgz:8382.got - 2010.06.03 22:52:26.
