data_PCOD9318328
_publ_section_title
;
Structure prediction by ZEFSAII (Michael W. Deem and Ramdas Pophale) SiO2 
 PCOD9318328
Probable space group: C 2 2 21
;
_chemical_formula_sum "Si O2"
_cell_formula_units_Z 32
_cell_length_a 5.036369
_cell_length_b 36.474601
_cell_length_c 7.612103
_cell_angle_alpha 90.000000
_cell_angle_beta 90.000000
_cell_angle_gamma 90.000000
_cell_volume 1398.339894
_symmetry_space_group_name_H-M "C 2 2 21"
_symmetry_group_IT_number 20
_symmetry_cell_setting 'orthorhombic'
loop_
_space_group_symop_operation_xyz
x,y,z
-x,-y,1/2+z
x,-y,-z
-x,y,1/2-z
1/2+x,1/2+y,z
1/2-x,1/2-y,1/2+z
1/2+x,1/2-y,-z
1/2-x,1/2+y,1/2-z
loop_
_atom_site_type_symbol
_atom_site_label
_atom_site_fract_x
_atom_site_fract_y
_atom_site_fract_z
Si Si1 0.501468 0.147347 0.463780
Si Si2 0.607473 0.228909 0.051663
Si Si3 0.499774 0.396885 0.537769
Si Si4 0.257428 0.530825 0.636825
O O1 0.500000 0.147714 0.250000
O O2 0.418761 0.187791 0.522239
O O3 0.290384 0.116407 0.518389
O O4 0.795337 0.135273 0.513841
O O5 0.500000 0.228051 0.250000
O O6 0.405851 0.256456 0.955551
O O7 0.500000 0.400632 0.750000
O O8 0.389128 0.433930 0.455005
O O9 0.169636 0.500000 0.500000
O O10 0.500000 0.514398 0.750000
O O11 0.000000 0.540775 0.750000
#
# Coordination Sequence:
#
# PCOD9318328 Si02
#       4
#     8   8   8   8
#     4   9  19  36  61  88 119 162 208 250 305 374
#     4  11  22  39  61  89 124 165 211 258 309 369
#     4  10  20  39  65  90 118 160 209 255 303 363
#     4  12  26  44  66  95 129 165 203 251 305 366
#
# _framework density 22.884277999999998
#
# number of rings (size 3 to 8) (size 9 to 14) (size 15 to 20)
#    0.000    1.500    0.000    5.250    0.000    7.000 
#    0.000   12.500    0.000    0.000    0.000    0.000 
#    0.000    0.000    0.000    0.000    0.000    0.000 
#
# Total GULP energy -89547.018936 kJ/mol
# GULP energy per Si atom -5596.688684 kJ/mol
# Density = 2.283219 g / cm^3
# Si number density = 22.884278 Si / 1000 Ang^3
#
#
#
# Elastic Constant Matrix: (Units=GPa)
#
#
# Indices 1 2 3 4 5 6 
#
# 1 115.9226 17.4312 24.5568 0.0000 0.0000 0.0000
# 2 17.4312 123.9457 28.8175 0.0000 0.0000 0.0000
# 3 24.5568 28.8175 56.9140 0.0000 0.0000 0.0000
# 4 0.0000 0.0000 0.0000 -10.4996 0.0000 0.0000
# 5 0.0000 0.0000 0.0000 0.0000 31.4928 0.0000
# 6 0.0000 0.0000 0.0000 0.0000 0.0000 33.7359
#
#
#
# Elastic Compliance Matrix: (Units=1/GPa)
#
#
# Indices 1 2 3 4 5 6 
#
# 1 0.009515 -0.000435 -0.003885 0.000000 0.000000 0.000000
# 2 -0.000435 0.009164 -0.004453 0.000000 0.000000 0.000000
# 3 -0.003885 -0.004453 0.021501 0.000000 0.000000 0.000000
# 4 0.000000 0.000000 0.000000 -0.095242 0.000000 0.000000
# 5 0.000000 0.000000 0.000000 0.000000 0.031753 0.000000
# 6 0.000000 0.000000 0.000000 0.000000 0.000000 0.029642
#
#
# Mechanical properties :
#
#
# Convention : Reuss Voigt Hill
#
# Bulk Modulus (GPa) = 44.17905 48.71036 46.44470
# Shear Modulus (GPa) = 159.11146 26.01094 92.56120
#
# Velocity S-wave (km/s) = 8.34743 3.37505 6.36673
# Velocity P-wave (km/s) = 10.59498 6.04315 8.62477
#
# Compressibility (1/GPa) = 0.02263516
#
# Stress axis : x y z
#
# Youngs Moduli (GPa) = 105.09867 109.11729 46.50888
#
# Poissons Ratio (x) = 0.04744 0.18070
# Poissons Ratio (y) = 0.04570 0.20709
# Poissons Ratio (z) = 0.40833 0.48586
#
# Static dielectric constant tensor:
#      x y z
#    x 1.789130 0.000000 0.000000 
#    y 0.000000 1.814430 0.000000 
#    z 0.000000 0.000000 1.893370 
# 
# From -- ./inp_files/5229.got.cif
#   From: 2010.05.17/outbox.cif.g08.bks.cpg/sg20_3_cif.got.tgz:5229.got - 2010.06.03 22:52:26.
