data_PCOD9318136
_publ_section_title
;
Structure prediction by ZEFSAII (Michael W. Deem and Ramdas Pophale) SiO2 
 PCOD9318136
Probable space group: C 2 2 21
;
_chemical_formula_sum "Si O2"
_cell_formula_units_Z 56
_cell_length_a 7.046044
_cell_length_b 19.240935
_cell_length_c 20.938806
_cell_angle_alpha 90.000000
_cell_angle_beta 90.000000
_cell_angle_gamma 90.000000
_cell_volume 2838.725745
_symmetry_space_group_name_H-M "C 2 2 21"
_symmetry_group_IT_number 20
_symmetry_cell_setting 'orthorhombic'
loop_
_space_group_symop_operation_xyz
x,y,z
-x,-y,1/2+z
x,-y,-z
-x,y,1/2-z
1/2+x,1/2+y,z
1/2-x,1/2-y,1/2+z
1/2+x,1/2-y,-z
1/2-x,1/2+y,1/2-z
loop_
_atom_site_type_symbol
_atom_site_label
_atom_site_fract_x
_atom_site_fract_y
_atom_site_fract_z
Si Si1 0.463045 0.587046 0.319307
Si Si2 0.602357 0.834888 0.382089
Si Si3 0.628541 0.979304 0.313309
Si Si4 0.296712 0.897890 0.469012
Si Si5 0.662452 0.285729 0.905290
Si Si6 0.480348 0.715908 0.552066
Si Si7 0.685802 0.959132 0.899493
O O1 0.500000 0.620266 0.250000
O O2 0.325348 0.520794 0.308470
O O3 0.380261 0.641955 0.370400
O O4 0.661897 0.561356 0.347237
O O5 0.642785 0.897893 0.333022
O O6 0.496501 0.873197 0.440715
O O7 0.448754 0.774720 0.365364
O O8 0.794818 0.799810 0.406567
O O9 0.500000 0.983511 0.250000
O O10 0.512047 0.021104 0.367549
O O11 0.316384 0.902549 0.544759
O O12 0.126847 0.848045 0.449395
O O13 0.251947 0.971040 0.436168
O O14 0.886975 0.274245 0.915672
O O15 0.580288 0.276627 0.977784
#
# Coordination Sequence:
#
# PCOD9318136 Si02
#       7
#     8   8   8   8   8   8   8
#     4  12  25  42  65  94 132 174 215 269 329 388
#     4  10  23  41  63  93 126 169 212 265 319 390
#     4  11  24  43  66  88 124 174 223 264 319 385
#     4   9  20  35  63  94 126 159 207 266 324 387
#     4  11  24  38  66  96 132 168 209 263 333 393
#     4  11  20  39  61  95 126 167 208 263 331 386
#     4  10  20  38  60  95 127 160 210 266 322 388
#
# _framework density 19.727160999999999
#
# number of rings (size 3 to 8) (size 9 to 14) (size 15 to 20)
#    0.000    1.429    4.286    0.857    2.000    1.714 
#    0.000    0.000    0.000    0.000    0.000    0.000 
#    0.000    0.000    0.000    0.000    0.000    0.000 
#
# Total GULP energy -156195.954892 kJ/mol
# GULP energy per Si atom -5578.426960 kJ/mol
# Density = 1.968226 g / cm^3
# Si number density = 19.727161 Si / 1000 Ang^3
#
#
#
# Elastic Constant Matrix: (Units=GPa)
#
#
# Indices 1 2 3 4 5 6 
#
# 1 86.7391 22.3668 8.2823 0.0000 0.0000 0.0000
# 2 22.3668 64.2135 7.0729 0.0000 0.0000 0.0000
# 3 8.2823 7.0729 57.5650 0.0000 0.0000 0.0000
# 4 0.0000 0.0000 0.0000 24.1730 0.0000 0.0000
# 5 0.0000 0.0000 0.0000 0.0000 23.0814 0.0000
# 6 0.0000 0.0000 0.0000 0.0000 0.0000 21.5765
#
#
#
# Elastic Compliance Matrix: (Units=1/GPa)
#
#
# Indices 1 2 3 4 5 6 
#
# 1 0.012763 -0.004302 -0.001308 0.000000 0.000000 0.000000
# 2 -0.004302 0.017236 -0.001499 0.000000 0.000000 0.000000
# 3 -0.001308 -0.001499 0.017744 0.000000 0.000000 0.000000
# 4 0.000000 0.000000 0.000000 0.041368 0.000000 0.000000
# 5 0.000000 0.000000 0.000000 0.000000 0.043325 0.000000
# 6 0.000000 0.000000 0.000000 0.000000 0.000000 0.046347
#
#
# Mechanical properties :
#
#
# Convention : Reuss Voigt Hill
#
# Bulk Modulus (GPa) = 29.82676 31.55128 30.68902
# Shear Modulus (GPa) = 24.48873 25.15255 24.82064
#
# Velocity S-wave (km/s) = 3.52713 3.57462 3.55095
# Velocity P-wave (km/s) = 5.63383 5.75028 5.69235
#
# Compressibility (1/GPa) = 0.03352694
#
# Stress axis : x y z
#
# Youngs Moduli (GPa) = 78.35204 58.01654 56.35711
#
# Poissons Ratio (x) = 0.24956 0.07370
# Poissons Ratio (y) = 0.33703 0.08447
# Poissons Ratio (z) = 0.10247 0.08696
#
# Static dielectric constant tensor:
#      x y z
#    x 1.676130 0.000000 0.000000 
#    y 0.000000 1.744470 0.000000 
#    z 0.000000 0.000000 1.700520 
# 
# From -- ./inp_files/26183.got.cif
#   From: 2010.05.17/outbox.cif.g08.bks.cpg/sg20_14_cif.got.tgz:26183.got - 2010.06.03 22:52:26.
