data_PCOD9318249
_publ_section_title
;
Structure prediction by ZEFSAII (Michael W. Deem and Ramdas Pophale) SiO2 
 PCOD9318249
Probable space group: C 2 2 21
;
_chemical_formula_sum "Si O2"
_cell_formula_units_Z 44
_cell_length_a 13.132388
_cell_length_b 17.625685
_cell_length_c 8.608892
_cell_angle_alpha 90.000000
_cell_angle_beta 90.000000
_cell_angle_gamma 90.000000
_cell_volume 1992.677282
_symmetry_space_group_name_H-M "C 2 2 21"
_symmetry_group_IT_number 20
_symmetry_cell_setting 'orthorhombic'
loop_
_space_group_symop_operation_xyz
x,y,z
-x,-y,1/2+z
x,-y,-z
-x,y,1/2-z
1/2+x,1/2+y,z
1/2-x,1/2-y,1/2+z
1/2+x,1/2-y,-z
1/2-x,1/2+y,1/2-z
loop_
_atom_site_type_symbol
_atom_site_label
_atom_site_fract_x
_atom_site_fract_y
_atom_site_fract_z
Si Si1 0.910479 0.066961 0.877428
Si Si2 0.750073 0.010615 0.327976
Si Si3 0.549013 0.843937 0.923641
Si Si4 0.743070 0.815672 0.746708
Si Si5 0.613189 0.266297 0.520117
Si Si6 0.453327 0.000000 0.000000
O O1 0.901493 0.148294 0.959160
O O2 0.000000 0.069567 0.750000
O O3 0.804830 0.044741 0.791217
O O4 0.930906 0.000000 0.000000
O O5 0.770475 0.097592 0.287070
O O6 0.794825 0.000000 0.500000
O O7 0.628235 0.999663 0.356022
O O8 0.500000 0.844922 0.750000
O O9 0.664758 0.823405 0.891258
O O10 0.491737 0.778708 0.015953
O O11 0.521403 0.925255 0.994256
O O12 0.686322 0.778562 0.600976
O O13 0.836459 0.768361 0.811507
#
# Coordination Sequence:
#
# PCOD9318249 Si02
#       6
#     8   8   8   8   8   4
#     4  12  25  43  66  98 131 180 231 277 330 398
#     4  10  21  41  65  96 129 172 220 278 336 394
#     4  10  20  42  63  95 130 173 215 269 332 397
#     4  11  23  44  67  98 133 176 222 277 334 407
#     4  11  24  43  66  95 137 176 224 274 340 396
#     4  10  20  38  68  92 126 174 218 266 346 394
#
# _framework density 22.080846999999999
#
# number of rings (size 3 to 8) (size 9 to 14) (size 15 to 20)
#    0.545    0.727    5.455    2.182    5.091    1.455 
#    3.273    0.909    0.000    0.000    0.000    0.000 
#    0.000    0.000    0.000    0.000    0.000    0.000 
#
# Total GULP energy -122998.118910 kJ/mol
# GULP energy per Si atom -5590.823587 kJ/mol
# Density = 2.203059 g / cm^3
# Si number density = 22.080847 Si / 1000 Ang^3
#
#
#
# Elastic Constant Matrix: (Units=GPa)
#
#
# Indices 1 2 3 4 5 6 
#
# 1 44.2333 14.1010 16.4447 0.0000 0.0000 0.0000
# 2 14.1010 96.5902 -6.0590 0.0000 0.0000 0.0000
# 3 16.4447 -6.0590 34.8050 0.0000 0.0000 0.0000
# 4 0.0000 0.0000 0.0000 45.4723 0.0000 0.0000
# 5 0.0000 0.0000 0.0000 0.0000 34.8682 0.0000
# 6 0.0000 0.0000 0.0000 0.0000 0.0000 -42.1566
#
#
#
# Elastic Compliance Matrix: (Units=1/GPa)
#
#
# Indices 1 2 3 4 5 6 
#
# 1 0.029894 -0.005308 -0.015049 0.000000 0.000000 0.000000
# 2 -0.005308 0.011410 0.004494 0.000000 0.000000 0.000000
# 3 -0.015049 0.004494 0.036624 0.000000 0.000000 0.000000
# 4 0.000000 0.000000 0.000000 0.021991 0.000000 0.000000
# 5 0.000000 0.000000 0.000000 0.000000 0.028679 0.000000
# 6 0.000000 0.000000 0.000000 0.000000 0.000000 -0.023721
#
#
# Mechanical properties :
#
#
# Convention : Reuss Voigt Hill
#
# Bulk Modulus (GPa) = 21.64346 24.95576 23.29961
# Shear Modulus (GPa) = 32.89390 17.71290 25.30340
#
# Velocity S-wave (km/s) = 3.86385 2.83536 3.38885
# Velocity P-wave (km/s) = 5.45243 4.69527 5.08795
#
# Compressibility (1/GPa) = 0.04620334
#
# Stress axis : x y z
#
# Youngs Moduli (GPa) = 33.45127 87.64338 27.30444
#
# Poissons Ratio (x) = 0.46523 0.41089
# Poissons Ratio (y) = 0.17757 -0.12271
# Poissons Ratio (z) = 0.50339 -0.39390
#
# Static dielectric constant tensor:
#      x y z
#    x 1.831650 0.000000 0.000000 
#    y 0.000000 1.728840 0.000000 
#    z 0.000000 0.000000 1.838860 
# 
# From -- ./inp_files/8316.got.cif
#   From: 2010.05.17/outbox.cif.g08.bks.cpg/sg20_5_cif.got.tgz:8316.got - 2010.06.03 22:52:26.
