data_PCOD9318491
_publ_section_title
;
Structure prediction by ZEFSAII (Michael W. Deem and Ramdas Pophale) SiO2 
 PCOD9318491
Probable space group: C 2 2 21
;
_chemical_formula_sum "Si O2"
_cell_formula_units_Z 48
_cell_length_a 17.843582
_cell_length_b 13.891011
_cell_length_c 8.872397
_cell_angle_alpha 90.000000
_cell_angle_beta 90.000000
_cell_angle_gamma 90.000000
_cell_volume 2199.160177
_symmetry_space_group_name_H-M "C 2 2 21"
_symmetry_group_IT_number 20
_symmetry_cell_setting 'orthorhombic'
loop_
_space_group_symop_operation_xyz
x,y,z
-x,-y,1/2+z
x,-y,-z
-x,y,1/2-z
1/2+x,1/2+y,z
1/2-x,1/2-y,1/2+z
1/2+x,1/2-y,-z
1/2-x,1/2+y,1/2-z
loop_
_atom_site_type_symbol
_atom_site_label
_atom_site_fract_x
_atom_site_fract_y
_atom_site_fract_z
Si Si1 0.661979 0.187669 0.561591
Si Si2 0.101692 0.924614 0.833856
Si Si3 0.000000 0.087059 0.750000
Si Si4 0.238764 0.000000 0.000000
Si Si5 0.125468 0.887790 0.496044
Si Si6 0.512449 0.896614 0.573082
Si Si7 0.425033 0.220484 0.646208
O O1 0.681742 0.296235 0.503956
O O2 0.585658 0.164231 0.470637
O O3 0.641331 0.194054 0.739039
O O4 0.714839 0.095949 0.538106
O O5 0.088924 0.886755 0.662778
O O6 0.087587 0.826407 0.922427
O O7 0.183784 0.965848 0.865775
O O8 0.048959 0.015335 0.851292
O O9 0.936458 0.129095 0.863770
O O10 0.153304 0.000000 0.500000
O O11 0.500000 0.902537 0.750000
O O12 0.440959 0.850948 0.489986
O O13 0.525480 0.000000 0.500000
O O14 0.500000 0.215639 0.750000
#
# Coordination Sequence:
#
# PCOD9318491 Si02
#       7
#     8   8   4   4   8   8   8
#     4  10  22  43  65  95 146 182 233 284 342 433
#     4  10  22  40  66  96 136 177 229 288 361 412
#     4  10  20  40  72 104 126 162 230 314 360 406
#     4  12  26  42  66  96 138 208 226 272 350 438
#     4   9  21  42  68 101 134 173 225 304 355 403
#     4  11  22  38  69 105 132 178 233 293 357 407
#     4   9  19  41  69  93 134 178 221 302 358 393
#
# _framework density 21.826514
#
# number of rings (size 3 to 8) (size 9 to 14) (size 15 to 20)
#    0.000    2.000    1.667    1.500    7.000    0.000 
#   15.000    0.000    3.667    0.000    0.000    0.000 
#    0.000    0.000    0.000    0.000    0.000    0.000 
#
# Total GULP energy -133722.456640 kJ/mol
# GULP energy per Si atom -5571.769027 kJ/mol
# Density = 2.177684 g / cm^3
# Si number density = 21.826514 Si / 1000 Ang^3
#
#
#
# Elastic Constant Matrix: (Units=GPa)
#
#
# Indices 1 2 3 4 5 6 
#
# 1 61.7875 41.0121 20.2853 0.0000 0.0000 0.0000
# 2 41.0121 175.4030 35.1820 0.0000 0.0000 0.0000
# 3 20.2853 35.1820 123.1198 0.0000 0.0000 0.0000
# 4 0.0000 0.0000 0.0000 31.8722 0.0000 0.0000
# 5 0.0000 0.0000 0.0000 0.0000 21.1741 0.0000
# 6 0.0000 0.0000 0.0000 0.0000 0.0000 24.7183
#
#
#
# Elastic Compliance Matrix: (Units=1/GPa)
#
#
# Indices 1 2 3 4 5 6 
#
# 1 0.019629 -0.004180 -0.002039 0.000000 0.000000 0.000000
# 2 -0.004180 0.006938 -0.001294 0.000000 0.000000 0.000000
# 3 -0.002039 -0.001294 0.008828 0.000000 0.000000 0.000000
# 4 0.000000 0.000000 0.000000 0.031375 0.000000 0.000000
# 5 0.000000 0.000000 0.000000 0.000000 0.047227 0.000000
# 6 0.000000 0.000000 0.000000 0.000000 0.000000 0.040456
#
#
# Mechanical properties :
#
#
# Convention : Reuss Voigt Hill
#
# Bulk Modulus (GPa) = 49.09812 61.47436 55.28624
# Shear Modulus (GPa) = 28.36553 33.14165 30.75359
#
# Velocity S-wave (km/s) = 3.60889 3.90091 3.75774
# Velocity P-wave (km/s) = 6.31736 6.96531 6.64923
#
# Compressibility (1/GPa) = 0.02036738
#
# Stress axis : x y z
#
# Youngs Moduli (GPa) = 50.94523 144.13090 113.27700
#
# Poissons Ratio (x) = 0.60254 0.23103
# Poissons Ratio (y) = 0.21298 0.14656
# Poissons Ratio (z) = 0.10390 0.18648
#
# Static dielectric constant tensor:
#      x y z
#    x 1.799300 0.000000 0.000000 
#    y 0.000000 1.879640 0.000000 
#    z 0.000000 0.000000 1.984050 
# 
# From -- ./inp_files/9391.got.cif
#   From: 2010.05.17/outbox.cif.g08.bks.cpg/sg20_5_cif.got.tgz:9391.got - 2010.06.03 22:52:26.
