data_PCOD9318964
_publ_section_title
;
Structure prediction by ZEFSAII (Michael W. Deem and Ramdas Pophale) SiO2 
 PCOD9318964
Probable space group: C 2 2 21
;
_chemical_formula_sum "Si O2"
_cell_formula_units_Z 40
_cell_length_a 9.460896
_cell_length_b 21.429285
_cell_length_c 8.619193
_cell_angle_alpha 90.000000
_cell_angle_beta 90.000000
_cell_angle_gamma 90.000000
_cell_volume 1747.457229
_symmetry_space_group_name_H-M "C 2 2 21"
_symmetry_group_IT_number 20
_symmetry_cell_setting 'orthorhombic'
loop_
_space_group_symop_operation_xyz
x,y,z
-x,-y,1/2+z
x,-y,-z
-x,y,1/2-z
1/2+x,1/2+y,z
1/2-x,1/2-y,1/2+z
1/2+x,1/2-y,-z
1/2-x,1/2+y,1/2-z
loop_
_atom_site_type_symbol
_atom_site_label
_atom_site_fract_x
_atom_site_fract_y
_atom_site_fract_z
Si Si1 0.549559 0.500000 0.000000
Si Si2 0.641165 0.730504 0.352229
Si Si3 0.188584 0.467672 0.705849
Si Si4 0.518200 0.634082 0.568380
Si Si5 0.537790 0.000000 0.000000
Si Si6 0.784038 0.333250 0.916503
O O1 0.655212 0.514832 0.145819
O O2 0.460832 0.439068 0.038923
O O3 0.500000 0.730004 0.250000
O O4 0.632245 0.676197 0.481468
O O5 0.764841 0.711887 0.232795
O O6 0.646166 0.794818 0.445367
O O7 0.153342 0.399131 0.637069
O O8 0.084376 0.518608 0.626015
O O9 0.145785 0.464895 0.885138
O O10 0.500000 0.646495 0.750000
O O11 0.370780 0.649975 0.483291
#
# Coordination Sequence:
#
# PCOD9318964 Si02
#       6
#     4   8   8   8   4   8
#     4   9  20  36  57  88 122 150 201 250 303 368
#     4  10  22  41  61  88 125 160 208 254 306 370
#     4   9  19  37  58  85 122 155 199 255 309 358
#     4  10  21  38  62  89 121 162 202 253 306 365
#     4   9  18  38  55  88 114 156 203 252 299 374
#     4  10  21  41  59  91 122 162 204 257 301 377
#
# _framework density 22.890402999999999
#
# number of rings (size 3 to 8) (size 9 to 14) (size 15 to 20)
#    0.000    2.400    0.000    1.200    0.000    5.600 
#   28.800    0.000    0.000    0.000    0.000    0.000 
#    0.000    0.000    0.000    0.000    0.000    0.000 
#
# Total GULP energy -111412.238697 kJ/mol
# GULP energy per Si atom -5570.611935 kJ/mol
# Density = 2.283830 g / cm^3
# Si number density = 22.890403 Si / 1000 Ang^3
#
#
#
# Elastic Constant Matrix: (Units=GPa)
#
#
# Indices 1 2 3 4 5 6 
#
# 1 32.2930 10.5227 24.5814 0.0000 0.0000 0.0000
# 2 10.5227 122.7090 61.5451 0.0000 0.0000 0.0000
# 3 24.5814 61.5451 147.3136 0.0000 0.0000 0.0000
# 4 0.0000 0.0000 0.0000 42.3899 0.0000 0.0000
# 5 0.0000 0.0000 0.0000 0.0000 22.3545 0.0000
# 6 0.0000 0.0000 0.0000 0.0000 0.0000 13.7800
#
#
#
# Elastic Compliance Matrix: (Units=1/GPa)
#
#
# Indices 1 2 3 4 5 6 
#
# 1 0.035473 -0.000093 -0.005880 0.000000 0.000000 0.000000
# 2 -0.000093 0.010310 -0.004292 0.000000 0.000000 0.000000
# 3 -0.005880 -0.004292 0.009563 0.000000 0.000000 0.000000
# 4 0.000000 0.000000 0.000000 0.023591 0.000000 0.000000
# 5 0.000000 0.000000 0.000000 0.000000 0.044734 0.000000
# 6 0.000000 0.000000 0.000000 0.000000 0.000000 0.072569
#
#
# Mechanical properties :
#
#
# Convention : Reuss Voigt Hill
#
# Bulk Modulus (GPa) = 28.72280 55.06821 41.89550
# Shear Modulus (GPa) = 21.89396 29.41597 25.65496
#
# Velocity S-wave (km/s) = 3.09604 3.58869 3.35143
# Velocity P-wave (km/s) = 5.03546 6.42504 5.77222
#
# Compressibility (1/GPa) = 0.03481555
#
# Stress axis : x y z
#
# Youngs Moduli (GPa) = 28.19056 96.99432 104.57471
#
# Poissons Ratio (x) = 0.00898 0.61495
# Poissons Ratio (y) = 0.00261 0.44882
# Poissons Ratio (z) = 0.16577 0.41628
#
# Static dielectric constant tensor:
#      x y z
#    x 1.892330 0.000000 0.000000 
#    y 0.000000 1.888830 0.000000 
#    z 0.000000 0.000000 1.949910 
# 
# From -- ./inp_files/7250.got.cif
#   From: 2010.05.17/outbox.cif.g08.bks.cpg/sg20_4_cif.got.tgz:7250.got - 2010.06.03 22:52:26.
