data_PCOD9318216
_publ_section_title
;
Structure prediction by ZEFSAII (Michael W. Deem and Ramdas Pophale) SiO2 
 PCOD9318216
Probable space group: C 2 2 21
;
_chemical_formula_sum "Si O2"
_cell_formula_units_Z 64
_cell_length_a 15.409463
_cell_length_b 8.233398
_cell_length_c 23.443745
_cell_angle_alpha 90.000000
_cell_angle_beta 90.000000
_cell_angle_gamma 90.000000
_cell_volume 2974.360485
_symmetry_space_group_name_H-M "C 2 2 21"
_symmetry_group_IT_number 20
_symmetry_cell_setting 'orthorhombic'
loop_
_space_group_symop_operation_xyz
x,y,z
-x,-y,1/2+z
x,-y,-z
-x,y,1/2-z
1/2+x,1/2+y,z
1/2-x,1/2-y,1/2+z
1/2+x,1/2-y,-z
1/2-x,1/2+y,1/2-z
loop_
_atom_site_type_symbol
_atom_site_label
_atom_site_fract_x
_atom_site_fract_y
_atom_site_fract_z
Si Si1 0.747613 0.813176 0.319960
Si Si2 0.940779 0.697683 0.861316
Si Si3 0.785795 0.383869 0.572472
Si Si4 0.909327 0.013987 0.934106
Si Si5 0.769770 0.670321 0.206186
Si Si6 0.628818 0.160885 0.861501
Si Si7 0.382987 0.860568 0.901609
Si Si8 0.199433 0.160189 0.034005
O O1 0.642565 0.796067 0.320081
O O2 0.771482 0.765361 0.383996
O O3 0.787859 0.698121 0.272176
O O4 0.772768 0.995391 0.304455
O O5 0.943691 0.864732 0.896833
O O6 0.924586 0.539164 0.901666
O O7 0.034586 0.671646 0.834437
O O8 0.695679 0.486439 0.571426
O O9 0.856094 0.496411 0.603011
O O10 0.804293 0.308661 0.510965
O O11 0.934025 0.196713 0.916412
O O12 0.932473 0.000000 0.000000
O O13 0.704480 0.808878 0.184036
O O14 0.850173 0.669060 0.163140
O O15 0.643455 0.297219 0.910545
O O16 0.298061 0.862088 0.942563
O O17 0.172906 0.000000 0.000000
#
# Coordination Sequence:
#
# PCOD9318216 Si02
#       8
#     8   8   8   8   8   8   8   8
#     4  10  22  39  65  90 112 152 205 251 297 353
#     4  10  25  40  55  92 125 157 196 245 307 358
#     4  11  19  37  61  88 114 158 202 246 294 352
#     4  11  19  37  62  85 118 159 203 242 293 350
#     4  10  20  38  65  88 113 148 204 251 295 352
#     4  11  22  40  57  85 127 157 192 243 304 359
#     4  10  21  38  62  90 113 157 203 249 291 354
#     4  11  20  36  62  86 120 155 206 248 290 352
#
# _framework density 21.517230000000001
#
# number of rings (size 3 to 8) (size 9 to 14) (size 15 to 20)
#    0.000    1.500    3.750    4.125    1.750    1.000 
#    9.000    0.000    0.000    0.000    0.000    0.000 
#    0.000    0.000    0.000    0.000    0.000    0.000 
#
# Total GULP energy -178689.192930 kJ/mol
# GULP energy per Si atom -5584.037279 kJ/mol
# Density = 2.146826 g / cm^3
# Si number density = 21.517230 Si / 1000 Ang^3
#
#
#
# Elastic Constant Matrix: (Units=GPa)
#
#
# Indices 1 2 3 4 5 6 
#
# 1 29.9696 -22.0955 -16.4146 0.0000 0.0000 0.0000
# 2 -22.0955 102.9567 0.1414 0.0000 0.0000 0.0000
# 3 -16.4146 0.1414 68.7803 0.0000 0.0000 0.0000
# 4 0.0000 0.0000 0.0000 31.4307 0.0000 0.0000
# 5 0.0000 0.0000 0.0000 0.0000 5.2669 0.0000
# 6 0.0000 0.0000 0.0000 0.0000 0.0000 10.7351
#
#
#
# Elastic Compliance Matrix: (Units=1/GPa)
#
#
# Indices 1 2 3 4 5 6 
#
# 1 0.046894 0.010049 0.011171 0.000000 0.000000 0.000000
# 2 0.010049 0.011866 0.002374 0.000000 0.000000 0.000000
# 3 0.011171 0.002374 0.017200 0.000000 0.000000 0.000000
# 4 0.000000 0.000000 0.000000 0.031816 0.000000 0.000000
# 5 0.000000 0.000000 0.000000 0.000000 0.189866 0.000000
# 6 0.000000 0.000000 0.000000 0.000000 0.000000 0.093152
#
#
# Mechanical properties :
#
#
# Convention : Reuss Voigt Hill
#
# Bulk Modulus (GPa) = 8.12045 13.88546 11.00296
# Shear Modulus (GPa) = 12.99858 25.49155 19.24506
#
# Velocity S-wave (km/s) = 2.46051 3.44569 2.99390
# Velocity P-wave (km/s) = 3.44301 4.72203 4.13230
#
# Compressibility (1/GPa) = 0.12314584
#
# Stress axis : x y z
#
# Youngs Moduli (GPa) = 21.32477 84.27392 58.13922
#
# Poissons Ratio (x) = -0.84683 -0.64946
# Poissons Ratio (y) = -0.21428 -0.13801
# Poissons Ratio (z) = -0.23821 -0.20004
#
# Static dielectric constant tensor:
#      x y z
#    x 1.805020 0.000000 0.000000 
#    y 0.000000 1.844770 0.000000 
#    z 0.000000 0.000000 1.755390 
# 
# From -- ./inp_files/29483.got.cif
#   From: 2010.05.17/outbox.cif.g08.bks.cpg/sg20_15_cif.got.tgz:29483.got - 2010.06.03 22:52:26.
