data_PCOD9318382
_publ_section_title
;
Structure prediction by ZEFSAII (Michael W. Deem and Ramdas Pophale) SiO2 
 PCOD9318382
Probable space group: C 2 2 21
;
_chemical_formula_sum "Si O2"
_cell_formula_units_Z 28
_cell_length_a 22.940829
_cell_length_b 11.418530
_cell_length_c 5.195519
_cell_angle_alpha 90.000000
_cell_angle_beta 90.000000
_cell_angle_gamma 90.000000
_cell_volume 1360.969029
_symmetry_space_group_name_H-M "C 2 2 21"
_symmetry_group_IT_number 20
_symmetry_cell_setting 'orthorhombic'
loop_
_space_group_symop_operation_xyz
x,y,z
-x,-y,1/2+z
x,-y,-z
-x,y,1/2-z
1/2+x,1/2+y,z
1/2-x,1/2-y,1/2+z
1/2+x,1/2-y,-z
1/2-x,1/2+y,1/2-z
loop_
_atom_site_type_symbol
_atom_site_label
_atom_site_fract_x
_atom_site_fract_y
_atom_site_fract_z
Si Si1 0.375245 0.677748 0.139280
Si Si2 0.308499 0.644245 0.629853
Si Si3 0.000000 0.079580 0.250000
Si Si4 0.811670 0.382834 0.369979
O O1 0.336828 0.610732 0.357032
O O2 0.442416 0.654093 0.190578
O O3 0.356857 0.812569 0.190620
O O4 0.355074 0.638715 0.858917
O O5 0.295450 0.783968 0.583129
O O6 0.247719 0.590924 0.718219
O O7 0.988726 0.000000 0.500000
O O8 0.834283 0.500000 0.500000
#
# Coordination Sequence:
#
# PCOD9318382 Si02
#       4
#     8   8   4   8
#     4  10  22  42  58  91 128 157 217 260 297 387
#     4  10  20  40  60  95 129 156 206 260 304 390
#     4  12  26  44  70  90 124 174 212 266 324 366
#     4  10  21  39  64  91 128 166 199 258 325 367
#
# _framework density 20.573575999999999
#
# number of rings (size 3 to 8) (size 9 to 14) (size 15 to 20)
#    1.714    0.000    2.857    1.714    0.000    4.571 
#    0.000    0.000    6.286    0.000    0.000    0.000 
#    0.000    0.000    0.000    0.000    0.000    0.000 
#
# Total GULP energy -78211.565282 kJ/mol
# GULP energy per Si atom -5586.540377 kJ/mol
# Density = 2.052675 g / cm^3
# Si number density = 20.573576 Si / 1000 Ang^3
#
#
#
# Elastic Constant Matrix: (Units=GPa)
#
#
# Indices 1 2 3 4 5 6 
#
# 1 153.9991 29.9291 36.4938 0.0000 0.0000 0.0000
# 2 29.9291 76.9510 25.6779 0.0000 0.0000 0.0000
# 3 36.4938 25.6779 126.2210 0.0000 0.0000 0.0000
# 4 0.0000 0.0000 0.0000 37.3029 0.0000 0.0000
# 5 0.0000 0.0000 0.0000 0.0000 29.8901 0.0000
# 6 0.0000 0.0000 0.0000 0.0000 0.0000 8.7843
#
#
#
# Elastic Compliance Matrix: (Units=1/GPa)
#
#
# Indices 1 2 3 4 5 6 
#
# 1 0.007332 -0.002301 -0.001652 0.000000 0.000000 0.000000
# 2 -0.002301 0.014664 -0.002318 0.000000 0.000000 0.000000
# 3 -0.001652 -0.002318 0.008872 0.000000 0.000000 0.000000
# 4 0.000000 0.000000 0.000000 0.026808 0.000000 0.000000
# 5 0.000000 0.000000 0.000000 0.000000 0.033456 0.000000
# 6 0.000000 0.000000 0.000000 0.000000 0.000000 0.113839
#
#
# Mechanical properties :
#
#
# Convention : Reuss Voigt Hill
#
# Bulk Modulus (GPa) = 54.56524 60.15253 57.35888
# Shear Modulus (GPa) = 22.35942 32.86681 27.61311
#
# Velocity S-wave (km/s) = 3.30025 4.00124 3.66753
# Velocity P-wave (km/s) = 6.41106 7.11673 6.77309
#
# Compressibility (1/GPa) = 0.01832669
#
# Stress axis : x y z
#
# Youngs Moduli (GPa) = 136.38666 68.19646 112.71702
#
# Poissons Ratio (x) = 0.15689 0.18620
# Poissons Ratio (y) = 0.31376 0.26127
# Poissons Ratio (z) = 0.22530 0.15808
#
# Static dielectric constant tensor:
#      x y z
#    x 1.673170 0.000000 0.000000 
#    y 0.000000 1.859500 0.000000 
#    z 0.000000 0.000000 1.769220 
# 
# From -- ./inp_files/1106.got.cif
#   From: 2010.05.17/outbox.cif.g08.bks.cpg/sg20_1_cif.got.tgz:1106.got - 2010.06.03 22:52:26.
