data_PCOD9318960
_publ_section_title
;
Structure prediction by ZEFSAII (Michael W. Deem and Ramdas Pophale) SiO2 
 PCOD9318960
Probable space group: C 2 2 21
;
_chemical_formula_sum "Si O2"
_cell_formula_units_Z 60
_cell_length_a 26.632285
_cell_length_b 6.525037
_cell_length_c 17.641890
_cell_angle_alpha 90.000000
_cell_angle_beta 90.000000
_cell_angle_gamma 90.000000
_cell_volume 3065.748456
_symmetry_space_group_name_H-M "C 2 2 21"
_symmetry_group_IT_number 20
_symmetry_cell_setting 'orthorhombic'
loop_
_space_group_symop_operation_xyz
x,y,z
-x,-y,1/2+z
x,-y,-z
-x,y,1/2-z
1/2+x,1/2+y,z
1/2-x,1/2-y,1/2+z
1/2+x,1/2-y,-z
1/2-x,1/2+y,1/2-z
loop_
_atom_site_type_symbol
_atom_site_label
_atom_site_fract_x
_atom_site_fract_y
_atom_site_fract_z
Si Si1 0.770723 0.735126 0.638582
Si Si2 0.082052 0.764032 0.295488
Si Si3 0.460973 0.003953 0.915962
Si Si4 0.059380 0.257560 0.873723
Si Si5 0.271316 0.500000 0.500000
Si Si6 0.498762 0.392124 0.834345
Si Si7 0.312658 0.418356 0.253013
Si Si8 0.171957 0.337712 0.901366
O O1 0.747206 0.880043 0.572194
O O2 0.728778 0.622948 0.689153
O O3 0.806284 0.566670 0.598492
O O4 0.801700 0.876661 0.698386
O O5 0.079322 0.585586 0.356993
O O6 0.065310 0.675123 0.214148
O O7 0.133072 0.889930 0.285008
O O8 0.040418 0.925368 0.321432
O O9 0.478569 0.228318 0.892291
O O10 0.512053 0.867779 0.911475
O O11 0.440445 0.000000 0.000000
O O12 0.112096 0.315624 0.910965
O O13 0.048039 0.012972 0.864477
O O14 0.302953 0.322457 0.458511
O O15 0.500000 0.294847 0.750000
O O16 0.313635 0.242621 0.317240
#
# Coordination Sequence:
#
# PCOD9318960 Si02
#       8
#     8   8   8   8   4   8   8   8
#     4  11  21  40  62  90 120 162 209 266 320 374
#     4   9  20  38  56  83 112 151 201 253 293 362
#     4  11  22  34  55  84 123 159 195 240 300 367
#     4   9  20  36  59  85 113 149 200 251 295 366
#     4  10  24  38  58  88 132 158 190 260 324 390
#     4   9  18  36  58  80 110 149 194 236 295 351
#     4  10  21  38  64  87 116 154 215 267 308 368
#     4  10  21  38  61  91 124 158 201 258 327 386
#
# _framework density 19.571078
#
# number of rings (size 3 to 8) (size 9 to 14) (size 15 to 20)
#    0.000    2.133    1.333    2.400    0.000   10.667 
#    1.200    0.000    2.933    0.000    0.000    0.000 
#    0.000    0.000    0.000    0.000    0.000    0.000 
#
# Total GULP energy -167153.841195 kJ/mol
# GULP energy per Si atom -5571.794707 kJ/mol
# Density = 1.952653 g / cm^3
# Si number density = 19.571078 Si / 1000 Ang^3
#
#
#
# Elastic Constant Matrix: (Units=GPa)
#
#
# Indices 1 2 3 4 5 6 
#
# 1 53.4476 7.6473 3.5584 0.0000 0.0000 0.0000
# 2 7.6473 55.9039 19.7765 0.0000 0.0000 0.0000
# 3 3.5584 19.7765 76.5950 0.0000 0.0000 0.0000
# 4 0.0000 0.0000 0.0000 107.4598 0.0000 0.0000
# 5 0.0000 0.0000 0.0000 0.0000 11.5608 0.0000
# 6 0.0000 0.0000 0.0000 0.0000 0.0000 15.3273
#
#
#
# Elastic Compliance Matrix: (Units=1/GPa)
#
#
# Indices 1 2 3 4 5 6 
#
# 1 0.019087 -0.002528 -0.000234 0.000000 0.000000 0.000000
# 2 -0.002528 0.020021 -0.005052 0.000000 0.000000 0.000000
# 3 -0.000234 -0.005052 0.014371 0.000000 0.000000 0.000000
# 4 0.000000 0.000000 0.000000 0.009306 0.000000 0.000000
# 5 0.000000 0.000000 0.000000 0.000000 0.086499 0.000000
# 6 0.000000 0.000000 0.000000 0.000000 0.000000 0.065243
#
#
# Mechanical properties :
#
#
# Convention : Reuss Voigt Hill
#
# Bulk Modulus (GPa) = 26.41947 27.54566 26.98257
# Shear Modulus (GPa) = 20.59544 37.20054 28.89799
#
# Velocity S-wave (km/s) = 3.24750 4.36454 3.84678
# Velocity P-wave (km/s) = 5.25264 6.28523 5.79199
#
# Compressibility (1/GPa) = 0.03785087
#
# Stress axis : x y z
#
# Youngs Moduli (GPa) = 52.39104 49.94798 69.58506
#
# Poissons Ratio (x) = 0.12628 0.01628
# Poissons Ratio (y) = 0.13246 0.35153
# Poissons Ratio (z) = 0.01226 0.25233
#
# Static dielectric constant tensor:
#      x y z
#    x 1.679720 0.000000 0.000000 
#    y 0.000000 1.700710 0.000000 
#    z 0.000000 0.000000 1.710450 
# 
# From -- ./inp_files/25697.got.cif
#   From: 2010.05.17/outbox.cif.g08.bks.cpg/sg20_13_cif.got.tgz:25697.got - 2010.06.03 22:52:26.
