data_PCOD9318896
_publ_section_title
;
Structure prediction by ZEFSAII (Michael W. Deem and Ramdas Pophale) SiO2 
 PCOD9318896
Probable space group: C 2 2 21
;
_chemical_formula_sum "Si O2"
_cell_formula_units_Z 32
_cell_length_a 11.177495
_cell_length_b 8.547717
_cell_length_c 13.500793
_cell_angle_alpha 90.000000
_cell_angle_beta 90.000000
_cell_angle_gamma 90.000000
_cell_volume 1289.893629
_symmetry_space_group_name_H-M "C 2 2 21"
_symmetry_group_IT_number 20
_symmetry_cell_setting 'orthorhombic'
loop_
_space_group_symop_operation_xyz
x,y,z
-x,-y,1/2+z
x,-y,-z
-x,y,1/2-z
1/2+x,1/2+y,z
1/2-x,1/2-y,1/2+z
1/2+x,1/2-y,-z
1/2-x,1/2+y,1/2-z
loop_
_atom_site_type_symbol
_atom_site_label
_atom_site_fract_x
_atom_site_fract_y
_atom_site_fract_z
Si Si1 0.194512 0.512282 0.220432
Si Si2 0.838754 0.804414 0.637092
Si Si3 0.454767 0.440126 0.146028
Si Si4 0.447775 0.840492 0.545665
O O1 0.148880 0.333478 0.219118
O O2 0.226433 0.592717 0.324888
O O3 0.321970 0.499092 0.164079
O O4 0.109696 0.610725 0.149785
O O5 0.845076 0.717829 0.531407
O O6 0.950787 0.920813 0.631801
O O7 0.500000 0.370473 0.250000
O O8 0.466318 0.305889 0.064667
O O9 0.500578 0.000000 0.500000
#
# Coordination Sequence:
#
# PCOD9318896 Si02
#       4
#     8   8   8   8
#     4  10  21  41  62  88 125 164 202 250 311 358
#     4  10  21  37  63  91 119 158 204 250 295 361
#     4  10  21  40  63  85 119 163 201 249 305 357
#     4  10  22  40  62  92 125 157 205 255 297 364
#
# _framework density 24.808247999999999
#
# number of rings (size 3 to 8) (size 9 to 14) (size 15 to 20)
#    0.000    2.000    0.000    3.750    0.000    6.000 
#    0.000   40.000    0.000    0.000    0.000    0.000 
#    0.000    0.000    0.000    0.000    0.000    0.000 
#
# Total GULP energy -89425.240384 kJ/mol
# GULP energy per Si atom -5589.077524 kJ/mol
# Density = 2.475178 g / cm^3
# Si number density = 24.808248 Si / 1000 Ang^3
#
#
#
# Elastic Constant Matrix: (Units=GPa)
#
#
# Indices 1 2 3 4 5 6 
#
# 1 43.0762 31.0353 -8.3044 0.0000 0.0000 0.0000
# 2 31.0353 172.0752 41.8864 0.0000 0.0000 0.0000
# 3 -8.3044 41.8864 56.5204 0.0000 0.0000 0.0000
# 4 0.0000 0.0000 0.0000 46.1230 0.0000 0.0000
# 5 0.0000 0.0000 0.0000 0.0000 29.8874 0.0000
# 6 0.0000 0.0000 0.0000 0.0000 0.0000 29.8745
#
#
#
# Elastic Compliance Matrix: (Units=1/GPa)
#
#
# Indices 1 2 3 4 5 6 
#
# 1 0.031202 -0.008228 0.010682 0.000000 0.000000 0.000000
# 2 -0.008228 0.009260 -0.008071 0.000000 0.000000 0.000000
# 3 0.010682 -0.008071 0.025244 0.000000 0.000000 0.000000
# 4 0.000000 0.000000 0.000000 0.021681 0.000000 0.000000
# 5 0.000000 0.000000 0.000000 0.000000 0.033459 0.000000
# 6 0.000000 0.000000 0.000000 0.000000 0.000000 0.033473
#
#
# Mechanical properties :
#
#
# Convention : Reuss Voigt Hill
#
# Bulk Modulus (GPa) = 18.35834 44.54516 31.45175
# Shear Modulus (GPa) = 27.21672 34.98061 31.09867
#
# Velocity S-wave (km/s) = 3.31582 3.75912 3.54441
# Velocity P-wave (km/s) = 4.69848 6.06928 5.42733
#
# Compressibility (1/GPa) = 0.05447115
#
# Stress axis : x y z
#
# Youngs Moduli (GPa) = 32.04940 107.99046 39.61377
#
# Poissons Ratio (x) = 0.88851 -0.42315
# Poissons Ratio (y) = 0.26369 0.31974
# Poissons Ratio (z) = -0.34235 0.87163
#
# Static dielectric constant tensor:
#      x y z
#    x 1.919090 0.000000 0.000000 
#    y 0.000000 2.002250 0.000000 
#    z 0.000000 0.000000 1.974400 
# 
# From -- ./inp_files/18172.got.cif
#   From: 2010.05.17/outbox.cif.g08.bks.cpg/sg20_10_cif.got.tgz:18172.got - 2010.06.03 22:52:26.
