data_PCOD9318126
_publ_section_title
;
Structure prediction by ZEFSAII (Michael W. Deem and Ramdas Pophale) SiO2 
 PCOD9318126
Probable space group: C 2 2 21
;
_chemical_formula_sum "Si O2"
_cell_formula_units_Z 52
_cell_length_a 12.085502
_cell_length_b 7.312979
_cell_length_c 26.924381
_cell_angle_alpha 90.000000
_cell_angle_beta 90.000000
_cell_angle_gamma 90.000000
_cell_volume 2379.604318
_symmetry_space_group_name_H-M "C 2 2 21"
_symmetry_group_IT_number 20
_symmetry_cell_setting 'orthorhombic'
loop_
_space_group_symop_operation_xyz
x,y,z
-x,-y,1/2+z
x,-y,-z
-x,y,1/2-z
1/2+x,1/2+y,z
1/2-x,1/2-y,1/2+z
1/2+x,1/2-y,-z
1/2-x,1/2+y,1/2-z
loop_
_atom_site_type_symbol
_atom_site_label
_atom_site_fract_x
_atom_site_fract_y
_atom_site_fract_z
Si Si1 0.064335 0.289438 0.981627
Si Si2 0.308000 0.085955 0.395285
Si Si3 0.395936 0.469023 0.723426
Si Si4 0.122176 0.209171 0.455737
Si Si5 0.238188 0.000000 0.000000
Si Si6 0.315407 0.804078 0.192030
Si Si7 0.025335 0.715985 0.863109
O O1 0.099485 0.292908 0.924026
O O2 0.062689 0.500000 0.000000
O O3 0.155941 0.168788 0.010639
O O4 0.945283 0.202671 0.993119
O O5 0.215847 0.067804 0.438826
O O6 0.243149 0.180655 0.350374
O O7 0.370979 0.910316 0.375543
O O8 0.500000 0.570587 0.750000
O O9 0.363553 0.311602 0.762423
O O10 0.283367 0.574214 0.712606
O O11 0.438152 0.380217 0.672396
O O12 0.184193 0.407881 0.458402
O O13 0.029357 0.215139 0.413732
O O14 0.424495 0.887989 0.165602
#
# Coordination Sequence:
#
# PCOD9318126 Si02
#       7
#     8   8   8   8   4   8   8
#     4  11  21  41  63  87 126 176 214 269 323 372
#     4  10  21  38  62  88 123 160 212 259 311 384
#     4  10  22  40  65  89 124 160 199 258 321 381
#     4  10  20  39  60  81 129 160 205 269 310 366
#     4  10  22  38  60  86 120 164 218 264 312 390
#     4  10  22  39  62  90 120 159 200 260 314 380
#     4  10  20  38  60  86 119 159 198 251 320 369
#
# _framework density 21.852371999999999
#
# number of rings (size 3 to 8) (size 9 to 14) (size 15 to 20)
#    0.000    1.846    2.308    0.923    0.000    4.923 
#    5.538    3.077    3.385    0.000    0.000    0.000 
#    0.000    0.000    0.000    0.000    0.000    0.000 
#
# Total GULP energy -144983.052591 kJ/mol
# GULP energy per Si atom -5576.271253 kJ/mol
# Density = 2.180264 g / cm^3
# Si number density = 21.852372 Si / 1000 Ang^3
#
#
#
# Elastic Constant Matrix: (Units=GPa)
#
#
# Indices 1 2 3 4 5 6 
#
# 1 90.4041 23.3194 14.9517 0.0000 0.0000 0.0000
# 2 23.3194 39.2687 0.2626 0.0000 0.0000 0.0000
# 3 14.9517 0.2626 48.8364 0.0000 0.0000 0.0000
# 4 0.0000 0.0000 0.0000 18.1030 0.0000 0.0000
# 5 0.0000 0.0000 0.0000 0.0000 65.3045 0.0000
# 6 0.0000 0.0000 0.0000 0.0000 0.0000 47.0379
#
#
#
# Elastic Compliance Matrix: (Units=1/GPa)
#
#
# Indices 1 2 3 4 5 6 
#
# 1 0.013875 -0.008211 -0.004204 0.000000 0.000000 0.000000
# 2 -0.008211 0.030326 0.002351 0.000000 0.000000 0.000000
# 3 -0.004204 0.002351 0.021751 0.000000 0.000000 0.000000
# 4 0.000000 0.000000 0.000000 0.055239 0.000000 0.000000
# 5 0.000000 0.000000 0.000000 0.000000 0.015313 0.000000
# 6 0.000000 0.000000 0.000000 0.000000 0.000000 0.021259
#
#
# Mechanical properties :
#
#
# Convention : Reuss Voigt Hill
#
# Bulk Modulus (GPa) = 21.82289 28.39739 25.11014
# Shear Modulus (GPa) = 25.88444 35.42076 30.65260
#
# Velocity S-wave (km/s) = 3.44541 4.03042 3.74934
# Velocity P-wave (km/s) = 5.08291 5.88918 5.50084
#
# Compressibility (1/GPa) = 0.04582345
#
# Stress axis : x y z
#
# Youngs Moduli (GPa) = 72.07327 32.97489 45.97512
#
# Poissons Ratio (x) = 0.27077 0.19327
# Poissons Ratio (y) = 0.59182 -0.10808
# Poissons Ratio (z) = 0.30298 -0.07752
#
# Static dielectric constant tensor:
#      x y z
#    x 1.852430 0.000000 0.000000 
#    y 0.000000 1.808050 0.000000 
#    z 0.000000 0.000000 1.815830 
# 
# From -- ./inp_files/30295.got.cif
#   From: 2010.05.17/outbox.cif.g08.bks.cpg/sg20_16_cif.got.tgz:30295.got - 2010.06.03 22:52:26.
