data_PCOD9318588
_publ_section_title
;
Structure prediction by ZEFSAII (Michael W. Deem and Ramdas Pophale) SiO2 
 PCOD9318588
Probable space group: C 2 2 21
;
_chemical_formula_sum "Si O2"
_cell_formula_units_Z 48
_cell_length_a 5.213196
_cell_length_b 15.477710
_cell_length_c 25.633478
_cell_angle_alpha 90.000000
_cell_angle_beta 90.000000
_cell_angle_gamma 90.000000
_cell_volume 2068.322682
_symmetry_space_group_name_H-M "C 2 2 21"
_symmetry_group_IT_number 20
_symmetry_cell_setting 'orthorhombic'
loop_
_space_group_symop_operation_xyz
x,y,z
-x,-y,1/2+z
x,-y,-z
-x,y,1/2-z
1/2+x,1/2+y,z
1/2-x,1/2-y,1/2+z
1/2+x,1/2-y,-z
1/2-x,1/2+y,1/2-z
loop_
_atom_site_type_symbol
_atom_site_label
_atom_site_fract_x
_atom_site_fract_y
_atom_site_fract_z
Si Si1 0.107330 0.207686 0.487050
Si Si2 0.158218 0.294707 0.197335
Si Si3 0.500000 0.169887 0.250000
Si Si4 0.578359 0.554026 0.651720
Si Si5 0.307574 0.194517 0.894396
Si Si6 0.169533 0.442548 0.046803
Si Si7 0.000000 0.944077 0.750000
O O1 0.309615 0.267236 0.520033
O O2 0.251646 0.225610 0.432254
O O3 0.125928 0.115889 0.514876
O O4 0.406239 0.235075 0.204804
O O5 0.210808 0.395007 0.185787
O O6 0.000000 0.287960 0.250000
O O7 0.988557 0.266163 0.149391
O O8 0.253604 0.111713 0.261741
O O9 0.408772 0.634482 0.630791
O O10 0.699732 0.515074 0.598432
O O11 0.446384 0.495711 0.695778
O O12 0.465906 0.124523 0.929114
O O13 0.056937 0.500000 0.000000
#
# Coordination Sequence:
#
# PCOD9318588 Si02
#       7
#     8   8   4   8   8   8   4
#     4  10  20  42  65  97 132 177 235 283 334 410
#     4  11  23  46  74 101 139 184 240 297 354 435
#     4  12  27  48  65 106 144 180 232 304 359 424
#     4  11  24  45  73 102 143 195 241 288 369 441
#     4  10  22  41  72 100 133 191 240 293 346 429
#     4  10  23  42  65 101 144 185 235 292 360 424
#     4  12  29  44  73 106 150 184 232 298 373 438
#
# _framework density 23.207208999999999
#
# number of rings (size 3 to 8) (size 9 to 14) (size 15 to 20)
#    0.000    1.333    2.500    2.500    5.833    2.000 
#    0.000    0.000    0.000    0.000    0.000    0.000 
#    0.000    0.000    0.000    0.000    0.000    0.000 
#
# Total GULP energy -133724.387171 kJ/mol
# GULP energy per Si atom -5571.849465 kJ/mol
# Density = 2.315439 g / cm^3
# Si number density = 23.207209 Si / 1000 Ang^3
#
#
#
# Elastic Constant Matrix: (Units=GPa)
#
#
# Indices 1 2 3 4 5 6 
#
# 1 84.4589 9.0757 33.0955 0.0000 0.0000 0.0000
# 2 9.0757 36.3357 59.7445 0.0000 0.0000 0.0000
# 3 33.0955 59.7445 159.8751 0.0000 0.0000 0.0000
# 4 0.0000 0.0000 0.0000 38.7019 0.0000 0.0000
# 5 0.0000 0.0000 0.0000 0.0000 38.7791 0.0000
# 6 0.0000 0.0000 0.0000 0.0000 0.0000 23.0351
#
#
#
# Elastic Compliance Matrix: (Units=1/GPa)
#
#
# Indices 1 2 3 4 5 6 
#
# 1 0.013015 0.003058 -0.003837 0.000000 0.000000 0.000000
# 2 0.003058 0.072099 -0.027576 0.000000 0.000000 0.000000
# 3 -0.003837 -0.027576 0.017354 0.000000 0.000000 0.000000
# 4 0.000000 0.000000 0.000000 0.025839 0.000000 0.000000
# 5 0.000000 0.000000 0.000000 0.000000 0.025787 0.000000
# 6 0.000000 0.000000 0.000000 0.000000 0.000000 0.043412
#
#
# Mechanical properties :
#
#
# Convention : Reuss Voigt Hill
#
# Bulk Modulus (GPa) = 21.85395 53.83345 37.84370
# Shear Modulus (GPa) = 18.55510 32.02017 25.28763
#
# Velocity S-wave (km/s) = 2.83068 3.71853 3.30456
# Velocity P-wave (km/s) = 4.48564 6.45630 5.55899
#
# Compressibility (1/GPa) = 0.04575831
#
# Stress axis : x y z
#
# Youngs Moduli (GPa) = 76.83433 13.86988 57.62299
#
# Poissons Ratio (x) = -0.04242 0.22110
# Poissons Ratio (y) = -0.23498 1.58901
# Poissons Ratio (z) = 0.29482 0.38248
#
# Static dielectric constant tensor:
#      x y z
#    x 2.000020 0.000000 0.000000 
#    y 0.000000 1.919910 0.000000 
#    z 0.000000 0.000000 1.974450 
# 
# From -- ./inp_files/29432.got.cif
#   From: 2010.05.17/outbox.cif.g08.bks.cpg/sg20_15_cif.got.tgz:29432.got - 2010.06.03 22:52:26.
