data_PCOD9318597
_publ_section_title
;
Structure prediction by ZEFSAII (Michael W. Deem and Ramdas Pophale) SiO2 
 PCOD9318597
Probable space group: C 2 2 21
;
_chemical_formula_sum "Si O2"
_cell_formula_units_Z 32
_cell_length_a 9.822855
_cell_length_b 11.145839
_cell_length_c 13.708450
_cell_angle_alpha 90.000000
_cell_angle_beta 90.000000
_cell_angle_gamma 90.000000
_cell_volume 1500.855396
_symmetry_space_group_name_H-M "C 2 2 21"
_symmetry_group_IT_number 20
_symmetry_cell_setting 'orthorhombic'
loop_
_space_group_symop_operation_xyz
x,y,z
-x,-y,1/2+z
x,-y,-z
-x,y,1/2-z
1/2+x,1/2+y,z
1/2-x,1/2-y,1/2+z
1/2+x,1/2-y,-z
1/2-x,1/2+y,1/2-z
loop_
_atom_site_type_symbol
_atom_site_label
_atom_site_fract_x
_atom_site_fract_y
_atom_site_fract_z
Si Si1 0.230540 0.802271 0.522096
Si Si2 0.721745 0.156942 0.807451
Si Si3 0.998103 0.629398 0.953532
Si Si4 0.842166 0.087484 0.218949
O O1 0.196306 0.834692 0.410273
O O2 0.394136 0.793219 0.517970
O O3 0.182405 0.896925 0.602775
O O4 0.150168 0.683055 0.547816
O O5 0.569343 0.131831 0.848249
O O6 0.723315 0.289248 0.761050
O O7 0.775068 0.039632 0.751570
O O8 0.001457 0.500000 0.000000
O O9 0.000000 0.087462 0.250000
#
# Coordination Sequence:
#
# PCOD9318597 Si02
#       4
#     8   8   8   8
#     4  10  21  43  67  94 134 176 219 278 342 387
#     4  10  24  42  67  99 132 177 221 282 331 399
#     4  10  20  42  67  90 133 176 215 276 338 399
#     4  12  22  44  66 100 136 178 225 281 335 403
#
# _framework density 21.321173000000002
#
# number of rings (size 3 to 8) (size 9 to 14) (size 15 to 20)
#    1.500    0.000    5.000    0.750    0.000    4.000 
#    0.000    3.750    0.000    0.000    0.000    0.000 
#    0.000    0.000    0.000    0.000    0.000    0.000 
#
# Total GULP energy -89107.411035 kJ/mol
# GULP energy per Si atom -5569.213190 kJ/mol
# Density = 2.127264 g / cm^3
# Si number density = 21.321173 Si / 1000 Ang^3
#
#
#
# Elastic Constant Matrix: (Units=GPa)
#
#
# Indices 1 2 3 4 5 6 
#
# 1 74.0395 60.0852 34.2449 0.0000 0.0000 0.0000
# 2 60.0852 170.1305 45.2058 0.0000 0.0000 0.0000
# 3 34.2449 45.2058 69.3267 0.0000 0.0000 0.0000
# 4 0.0000 0.0000 0.0000 25.9671 0.0000 0.0000
# 5 0.0000 0.0000 0.0000 0.0000 16.5315 0.0000
# 6 0.0000 0.0000 0.0000 0.0000 0.0000 23.3981
#
#
#
# Elastic Compliance Matrix: (Units=1/GPa)
#
#
# Indices 1 2 3 4 5 6 
#
# 1 0.021281 -0.005713 -0.006787 0.000000 0.000000 0.000000
# 2 -0.005713 0.008643 -0.002814 0.000000 0.000000 0.000000
# 3 -0.006787 -0.002814 0.019612 0.000000 0.000000 0.000000
# 4 0.000000 0.000000 0.000000 0.038510 0.000000 0.000000
# 5 0.000000 0.000000 0.000000 0.000000 0.060490 0.000000
# 6 0.000000 0.000000 0.000000 0.000000 0.000000 0.042739
#
#
# Mechanical properties :
#
#
# Convention : Reuss Voigt Hill
#
# Bulk Modulus (GPa) = 52.88546 65.84095 59.36320
# Shear Modulus (GPa) = 21.90995 24.77672 23.34334
#
# Velocity S-wave (km/s) = 3.20912 3.41261 3.31243
# Velocity P-wave (km/s) = 6.21203 6.81729 6.52169
#
# Compressibility (1/GPa) = 0.01890879
#
# Stress axis : x y z
#
# Youngs Moduli (GPa) = 46.98926 115.69949 50.98885
#
# Poissons Ratio (x) = 0.66094 0.34608
# Poissons Ratio (y) = 0.26843 0.14349
# Poissons Ratio (z) = 0.31893 0.32559
#
# Static dielectric constant tensor:
#      x y z
#    x 1.762080 0.000000 0.000000 
#    y 0.000000 1.786880 0.000000 
#    z 0.000000 0.000000 1.854420 
# 
# From -- ./inp_files/19486.got.cif
#   From: 2010.05.17/outbox.cif.g08.bks.cpg/sg20_10_cif.got.tgz:19486.got - 2010.06.03 22:52:26.
