data_PCOD9318476
_publ_section_title
;
Structure prediction by ZEFSAII (Michael W. Deem and Ramdas Pophale) SiO2 
 PCOD9318476
Probable space group: C 2 2 21
;
_chemical_formula_sum "Si O2"
_cell_formula_units_Z 52
_cell_length_a 9.928585
_cell_length_b 13.817505
_cell_length_c 18.765913
_cell_angle_alpha 90.000000
_cell_angle_beta 90.000000
_cell_angle_gamma 90.000000
_cell_volume 2574.463193
_symmetry_space_group_name_H-M "C 2 2 21"
_symmetry_group_IT_number 20
_symmetry_cell_setting 'orthorhombic'
loop_
_space_group_symop_operation_xyz
x,y,z
-x,-y,1/2+z
x,-y,-z
-x,y,1/2-z
1/2+x,1/2+y,z
1/2-x,1/2-y,1/2+z
1/2+x,1/2-y,-z
1/2-x,1/2+y,1/2-z
loop_
_atom_site_type_symbol
_atom_site_label
_atom_site_fract_x
_atom_site_fract_y
_atom_site_fract_z
Si Si1 0.625554 0.767402 0.198297
Si Si2 0.980881 0.191234 0.448946
Si Si3 0.356787 0.012761 0.104462
Si Si4 0.874989 0.000000 0.000000
Si Si5 0.166968 0.470421 0.125026
Si Si6 0.156839 0.378750 0.751147
Si Si7 0.781523 0.339079 0.020446
O O1 0.500000 0.783135 0.250000
O O2 0.574635 0.704865 0.130652
O O3 0.671716 0.870895 0.168810
O O4 0.742972 0.709409 0.237975
O O5 0.103044 0.264203 0.460558
O O6 0.857423 0.213164 0.502125
O O7 0.032808 0.084880 0.468407
O O8 0.331421 0.048203 0.184131
O O9 0.513766 0.983001 0.096797
O O10 0.271087 0.919210 0.082214
O O11 0.323075 0.098694 0.049476
O O12 0.775894 0.965679 0.062853
O O13 0.188988 0.561740 0.177344
O O14 0.000000 0.348026 0.750000
#
# Coordination Sequence:
#
# PCOD9318476 Si02
#       7
#     8   8   8   4   8   8   8
#     4  12  24  46  70 103 136 185 235 286 352 417
#     4  12  26  42  69 102 139 184 225 296 341 424
#     4  10  20  40  69  96 136 178 229 278 341 413
#     4  12  26  44  64 106 146 176 238 292 356 398
#     4  11  24  44  71 103 135 187 226 287 344 419
#     4  10  23  45  71  98 136 182 229 283 345 416
#     4  11  23  41  67 102 134 179 230 281 347 403
#
# _framework density 20.198384999999998
#
# number of rings (size 3 to 8) (size 9 to 14) (size 15 to 20)
#    0.000    0.923    3.077    5.077    2.154    0.000 
#    0.000    2.308    0.000    0.000    0.000    0.000 
#    0.000    0.000    0.000    0.000    0.000    0.000 
#
# Total GULP energy -145483.002198 kJ/mol
# GULP energy per Si atom -5595.500085 kJ/mol
# Density = 2.015241 g / cm^3
# Si number density = 20.198385 Si / 1000 Ang^3
#
#
#
# Elastic Constant Matrix: (Units=GPa)
#
#
# Indices 1 2 3 4 5 6 
#
# 1 88.4924 42.7057 45.1429 0.0000 0.0000 0.0000
# 2 42.7057 101.5436 25.6884 0.0000 0.0000 0.0000
# 3 45.1429 25.6884 62.1917 0.0000 0.0000 0.0000
# 4 0.0000 0.0000 0.0000 25.2055 0.0000 0.0000
# 5 0.0000 0.0000 0.0000 0.0000 34.0029 0.0000
# 6 0.0000 0.0000 0.0000 0.0000 0.0000 27.4942
#
#
#
# Elastic Compliance Matrix: (Units=1/GPa)
#
#
# Indices 1 2 3 4 5 6 
#
# 1 0.020260 -0.005360 -0.012492 0.000000 0.000000 0.000000
# 2 -0.005360 0.012415 -0.001237 0.000000 0.000000 0.000000
# 3 -0.012492 -0.001237 0.025658 0.000000 0.000000 0.000000
# 4 0.000000 0.000000 0.000000 0.039674 0.000000 0.000000
# 5 0.000000 0.000000 0.000000 0.000000 0.029409 0.000000
# 6 0.000000 0.000000 0.000000 0.000000 0.000000 0.036371
#
#
# Mechanical properties :
#
#
# Convention : Reuss Voigt Hill
#
# Bulk Modulus (GPa) = 49.61788 53.25574 51.43681
# Shear Modulus (GPa) = 23.95965 26.58656 25.27310
#
# Velocity S-wave (km/s) = 3.44789 3.63198 3.54113
# Velocity P-wave (km/s) = 6.36154 6.63415 6.49927
#
# Compressibility (1/GPa) = 0.02015403
#
# Stress axis : x y z
#
# Youngs Moduli (GPa) = 49.35897 80.54529 38.97459
#
# Poissons Ratio (x) = 0.43175 0.48686
# Poissons Ratio (y) = 0.26458 0.04822
# Poissons Ratio (z) = 0.61658 0.09966
#
# Static dielectric constant tensor:
#      x y z
#    x 1.701110 0.000000 0.000000 
#    y 0.000000 1.699540 0.000000 
#    z 0.000000 0.000000 1.714910 
# 
# From -- ./inp_files/26631.got.cif
#   From: 2010.05.17/outbox.cif.g08.bks.cpg/sg20_14_cif.got.tgz:26631.got - 2010.06.03 22:52:26.
