data_PCOD9318905
_publ_section_title
;
Structure prediction by ZEFSAII (Michael W. Deem and Ramdas Pophale) SiO2 
 PCOD9318905
Probable space group: C 2 2 21
;
_chemical_formula_sum "Si O2"
_cell_formula_units_Z 64
_cell_length_a 19.601965
_cell_length_b 9.923435
_cell_length_c 17.253472
_cell_angle_alpha 90.000000
_cell_angle_beta 90.000000
_cell_angle_gamma 90.000000
_cell_volume 3356.125110
_symmetry_space_group_name_H-M "C 2 2 21"
_symmetry_group_IT_number 20
_symmetry_cell_setting 'orthorhombic'
loop_
_space_group_symop_operation_xyz
x,y,z
-x,-y,1/2+z
x,-y,-z
-x,y,1/2-z
1/2+x,1/2+y,z
1/2-x,1/2-y,1/2+z
1/2+x,1/2-y,-z
1/2-x,1/2+y,1/2-z
loop_
_atom_site_type_symbol
_atom_site_label
_atom_site_fract_x
_atom_site_fract_y
_atom_site_fract_z
Si Si1 0.959873 0.028858 0.591208
Si Si2 0.556210 0.795321 0.815639
Si Si3 0.773083 0.746216 0.598439
Si Si4 0.894832 0.953430 0.909350
Si Si5 0.760455 0.190541 0.073147
Si Si6 0.137835 0.509516 0.909047
Si Si7 0.195299 0.969251 0.132177
Si Si8 0.828322 0.141394 0.782713
O O1 0.970780 0.183767 0.621422
O O2 0.885634 0.003857 0.625567
O O3 0.952044 0.000000 0.500000
O O4 0.025517 0.938944 0.613451
O O5 0.500000 0.820408 0.750000
O O6 0.582884 0.928693 0.858819
O O7 0.620389 0.728885 0.769917
O O8 0.741305 0.685482 0.520210
O O9 0.843982 0.664689 0.608584
O O10 0.728952 0.725345 0.674569
O O11 0.775270 0.904931 0.587168
O O12 0.838296 0.835807 0.901714
O O13 0.868611 0.067322 0.850786
O O14 0.894511 0.000000 0.000000
O O15 0.709652 0.071875 0.101071
O O16 0.724662 0.329373 0.099117
O O17 0.119543 0.500000 0.000000
O O18 0.207433 0.962911 0.224038
#
# Coordination Sequence:
#
# PCOD9318905 Si02
#       8
#     8   8   8   8   8   8   8   8
#     4  10  21  37  64  92 126 168 215 261 319 400
#     4  11  22  40  64  93 127 172 221 269 330 397
#     4  11  23  38  62  89 127 164 209 271 330 384
#     4  11  20  37  61  93 127 170 209 257 326 402
#     4  11  19  39  63  96 122 159 216 272 319 388
#     4  10  21  38  66  90 121 161 222 267 324 384
#     4  11  25  37  65  95 126 163 220 277 326 379
#     4  11  22  36  60  92 124 163 212 259 325 391
#
# _framework density 19.069611999999999
#
# number of rings (size 3 to 8) (size 9 to 14) (size 15 to 20)
#    0.000    1.250    6.250    1.500    5.250    0.000 
#    0.000    0.000    5.500    0.000    0.000    0.000 
#    0.000    0.000    0.000    0.000    0.000    0.000 
#
# Total GULP energy -178199.434331 kJ/mol
# GULP energy per Si atom -5568.732323 kJ/mol
# Density = 1.902621 g / cm^3
# Si number density = 19.069612 Si / 1000 Ang^3
#
#
#
# Elastic Constant Matrix: (Units=GPa)
#
#
# Indices 1 2 3 4 5 6 
#
# 1 76.4254 22.8278 24.1682 0.0000 0.0000 0.0000
# 2 22.8278 80.9373 24.9383 0.0000 0.0000 0.0000
# 3 24.1682 24.9383 90.4269 0.0000 0.0000 0.0000
# 4 0.0000 0.0000 0.0000 30.7420 0.0000 0.0000
# 5 0.0000 0.0000 0.0000 0.0000 159.9905 0.0000
# 6 0.0000 0.0000 0.0000 0.0000 0.0000 20.6760
#
#
#
# Elastic Compliance Matrix: (Units=1/GPa)
#
#
# Indices 1 2 3 4 5 6 
#
# 1 0.015051 -0.003285 -0.003117 0.000000 0.000000 0.000000
# 2 -0.003285 0.014219 -0.003044 0.000000 0.000000 0.000000
# 3 -0.003117 -0.003044 0.012731 0.000000 0.000000 0.000000
# 4 0.000000 0.000000 0.000000 0.032529 0.000000 0.000000
# 5 0.000000 0.000000 0.000000 0.000000 0.006250 0.000000
# 6 0.000000 0.000000 0.000000 0.000000 0.000000 0.048365
#
#
# Mechanical properties :
#
#
# Convention : Reuss Voigt Hill
#
# Bulk Modulus (GPa) = 43.26852 43.51760 43.39306
# Shear Modulus (GPa) = 32.10461 54.00538 43.05499
#
# Velocity S-wave (km/s) = 4.10756 5.32744 4.75677
# Velocity P-wave (km/s) = 6.72570 7.79180 7.27829
#
# Compressibility (1/GPa) = 0.02311149
#
# Stress axis : x y z
#
# Youngs Moduli (GPa) = 66.43872 70.32607 78.54799
#
# Poissons Ratio (x) = 0.23101 0.24482
# Poissons Ratio (y) = 0.21824 0.23907
# Poissons Ratio (z) = 0.20708 0.21404
#
# Static dielectric constant tensor:
#      x y z
#    x 1.709940 0.000000 0.000000 
#    y 0.000000 -0.040300 0.000000 
#    z 0.000000 0.000000 1.717700 
# 
# From -- ./inp_files/22035.got.cif
#   From: 2010.05.17/outbox.cif.g08.bks.cpg/sg20_12_cif.got.tgz:22035.got - 2010.06.03 22:52:26.
