data_PCOD9318069
_publ_section_title
;
Structure prediction by ZEFSAII (Michael W. Deem and Ramdas Pophale) SiO2 
 PCOD9318069
Probable space group: C 2 2 21
;
_chemical_formula_sum "Si O2"
_cell_formula_units_Z 44
_cell_length_a 11.146480
_cell_length_b 13.591018
_cell_length_c 15.201182
_cell_angle_alpha 90.000000
_cell_angle_beta 90.000000
_cell_angle_gamma 90.000000
_cell_volume 2302.857620
_symmetry_space_group_name_H-M "C 2 2 21"
_symmetry_group_IT_number 20
_symmetry_cell_setting 'orthorhombic'
loop_
_space_group_symop_operation_xyz
x,y,z
-x,-y,1/2+z
x,-y,-z
-x,y,1/2-z
1/2+x,1/2+y,z
1/2-x,1/2-y,1/2+z
1/2+x,1/2-y,-z
1/2-x,1/2+y,1/2-z
loop_
_atom_site_type_symbol
_atom_site_label
_atom_site_fract_x
_atom_site_fract_y
_atom_site_fract_z
Si Si1 0.232107 0.367274 0.896269
Si Si2 0.752476 0.928068 0.198977
Si Si3 0.402037 0.684109 0.675479
Si Si4 0.500000 0.977826 0.250000
Si Si5 0.112764 0.803288 0.444979
Si Si6 0.465561 0.916160 0.932417
O O1 0.264643 0.461895 0.838421
O O2 0.190345 0.272597 0.840631
O O3 0.108003 0.394708 0.947447
O O4 0.338588 0.340903 0.962331
O O5 0.831821 0.907975 0.285032
O O6 0.613097 0.915051 0.219779
O O7 0.798601 0.850830 0.126870
O O8 0.500000 0.714119 0.750000
O O9 0.480097 0.664797 0.588188
O O10 0.539873 0.044539 0.332546
O O11 0.105905 0.685093 0.443148
O O12 0.426486 0.000000 0.000000
#
# Coordination Sequence:
#
# PCOD9318069 Si02
#       6
#     8   8   8   4   8   8
#     4  10  20  37  66  91 120 168 209 260 321 373
#     4  10  21  36  67  88 124 166 213 252 319 384
#     4   9  21  39  65  89 126 168 204 263 323 382
#     4  10  22  38  68  94 126 162 224 268 308 378
#     4  10  21  38  65  90 126 163 206 256 333 377
#     4  10  22  38  65  97 121 161 216 270 308 373
#
# _framework density 19.106694999999998
#
# number of rings (size 3 to 8) (size 9 to 14) (size 15 to 20)
#    0.000    2.182    0.000    2.727   21.636    0.000 
#    0.000    0.000   42.000    0.000    0.000    0.000 
#    0.000    0.000    0.000    0.000    0.000    0.000 
#
# Total GULP energy -122721.697223 kJ/mol
# GULP energy per Si atom -5578.258965 kJ/mol
# Density = 1.906321 g / cm^3
# Si number density = 19.106695 Si / 1000 Ang^3
#
#
#
# Elastic Constant Matrix: (Units=GPa)
#
#
# Indices 1 2 3 4 5 6 
#
# 1 84.8588 86.3237 54.3060 0.0000 0.0000 0.0000
# 2 86.3237 119.7939 60.1710 0.0000 0.0000 0.0000
# 3 54.3060 60.1710 87.2174 0.0000 0.0000 0.0000
# 4 0.0000 0.0000 0.0000 29.1961 0.0000 0.0000
# 5 0.0000 0.0000 0.0000 0.0000 32.7853 0.0000
# 6 0.0000 0.0000 0.0000 0.0000 0.0000 39.6461
#
#
#
# Elastic Compliance Matrix: (Units=1/GPa)
#
#
# Indices 1 2 3 4 5 6 
#
# 1 0.048659 -0.030369 -0.009346 0.000000 0.000000 0.000000
# 2 -0.030369 0.031729 -0.002980 0.000000 0.000000 0.000000
# 3 -0.009346 -0.002980 0.019341 0.000000 0.000000 0.000000
# 4 0.000000 0.000000 0.000000 0.034251 0.000000 0.000000
# 5 0.000000 0.000000 0.000000 0.000000 0.030502 0.000000
# 6 0.000000 0.000000 0.000000 0.000000 0.000000 0.025223
#
#
# Mechanical properties :
#
#
# Convention : Reuss Voigt Hill
#
# Bulk Modulus (GPa) = 69.74508 77.05240 73.39874
# Shear Modulus (GPa) = 17.86519 26.39678 22.13099
#
# Velocity S-wave (km/s) = 3.06113 3.72095 3.40705
# Velocity P-wave (km/s) = 7.00544 7.67304 7.34683
#
# Compressibility (1/GPa) = 0.01433793
#
# Stress axis : x y z
#
# Youngs Moduli (GPa) = 20.55123 31.51708 51.70472
#
# Poissons Ratio (x) = 0.95716 0.48321
# Poissons Ratio (y) = 0.62413 0.15408
# Poissons Ratio (z) = 0.19206 0.09392
#
# Static dielectric constant tensor:
#      x y z
#    x 1.674620 0.000000 0.000000 
#    y 0.000000 1.652930 0.000000 
#    z 0.000000 0.000000 1.709930 
# 
# From -- ./inp_files/24180.got.cif
#   From: 2010.05.17/outbox.cif.g08.bks.cpg/sg20_13_cif.got.tgz:24180.got - 2010.06.03 22:52:26.
