data_PCOD9318273
_publ_section_title
;
Structure prediction by ZEFSAII (Michael W. Deem and Ramdas Pophale) SiO2 
 PCOD9318273
Probable space group: C 2 2 21
;
_chemical_formula_sum "Si O2"
_cell_formula_units_Z 40
_cell_length_a 11.884326
_cell_length_b 15.784351
_cell_length_c 10.039395
_cell_angle_alpha 90.000000
_cell_angle_beta 90.000000
_cell_angle_gamma 90.000000
_cell_volume 1883.253695
_symmetry_space_group_name_H-M "C 2 2 21"
_symmetry_group_IT_number 20
_symmetry_cell_setting 'orthorhombic'
loop_
_space_group_symop_operation_xyz
x,y,z
-x,-y,1/2+z
x,-y,-z
-x,y,1/2-z
1/2+x,1/2+y,z
1/2-x,1/2-y,1/2+z
1/2+x,1/2-y,-z
1/2-x,1/2+y,1/2-z
loop_
_atom_site_type_symbol
_atom_site_label
_atom_site_fract_x
_atom_site_fract_y
_atom_site_fract_z
Si Si1 0.357315 0.188779 0.524804
Si Si2 0.867108 0.957600 0.253879
Si Si3 0.933032 0.642663 0.123136
Si Si4 0.712587 0.000000 0.500000
Si Si5 0.231736 0.500000 0.000000
Si Si6 0.770487 0.230114 0.728246
O O1 0.480129 0.199883 0.461007
O O2 0.338709 0.215731 0.677961
O O3 0.271114 0.238844 0.425394
O O4 0.336691 0.087456 0.511937
O O5 0.838879 0.857497 0.257436
O O6 0.000000 0.970906 0.250000
O O7 0.796472 0.992525 0.376951
O O8 0.811457 0.001538 0.127209
O O9 0.840918 0.698582 0.196377
O O10 0.000000 0.601224 0.250000
O O11 0.870407 0.578102 0.026716
#
# Coordination Sequence:
#
# PCOD9318273 Si02
#       6
#     8   8   8   4   4   8
#     4  10  20  39  59  84 118 157 198 248 305 360
#     4  11  22  39  60  86 119 157 201 256 308 365
#     4  10  21  38  60  88 125 160 197 257 314 360
#     4  12  24  38  66  96 118 162 222 252 300 380
#     4  10  22  38  58  82 120 160 196 252 316 364
#     4  10  21  37  59  83 116 157 200 245 305 368
#
# _framework density 21.239836
#
# number of rings (size 3 to 8) (size 9 to 14) (size 15 to 20)
#    0.000    1.600    0.000    6.600    0.000    1.600 
#    0.000    9.000    0.000    0.000    0.000    0.000 
#    0.000    0.000    0.000    0.000    0.000    0.000 
#
# Total GULP energy -111653.531713 kJ/mol
# GULP energy per Si atom -5582.676586 kJ/mol
# Density = 2.119149 g / cm^3
# Si number density = 21.239836 Si / 1000 Ang^3
#
#
#
# Elastic Constant Matrix: (Units=GPa)
#
#
# Indices 1 2 3 4 5 6 
#
# 1 53.1443 -13.0685 24.6547 0.0000 0.0000 0.0000
# 2 -13.0685 36.1598 -5.7632 0.0000 0.0000 0.0000
# 3 24.6547 -5.7632 118.1340 0.0000 0.0000 0.0000
# 4 0.0000 0.0000 0.0000 41.6627 0.0000 0.0000
# 5 0.0000 0.0000 0.0000 0.0000 23.4035 0.0000
# 6 0.0000 0.0000 0.0000 0.0000 0.0000 2.5749
#
#
#
# Elastic Compliance Matrix: (Units=1/GPa)
#
#
# Indices 1 2 3 4 5 6 
#
# 1 0.022689 0.007504 -0.004369 0.000000 0.000000 0.000000
# 2 0.007504 0.030353 -0.000085 0.000000 0.000000 0.000000
# 3 -0.004369 -0.000085 0.009373 0.000000 0.000000 0.000000
# 4 0.000000 0.000000 0.000000 0.024002 0.000000 0.000000
# 5 0.000000 0.000000 0.000000 0.000000 0.042729 0.000000
# 6 0.000000 0.000000 0.000000 0.000000 0.000000 0.388363
#
#
# Mechanical properties :
#
#
# Convention : Reuss Voigt Hill
#
# Bulk Modulus (GPa) = 14.59571 24.34269 19.46920
# Shear Modulus (GPa) = 9.35895 26.96923 18.16409
#
# Velocity S-wave (km/s) = 2.10140 3.56722 2.92754
# Velocity P-wave (km/s) = 3.57416 5.33409 4.54021
#
# Compressibility (1/GPa) = 0.06851328
#
# Stress axis : x y z
#
# Youngs Moduli (GPa) = 44.07465 32.94533 106.69351
#
# Poissons Ratio (x) = -0.24721 0.46616
# Poissons Ratio (y) = -0.33072 0.00909
# Poissons Ratio (z) = 0.19257 0.00281
#
# Static dielectric constant tensor:
#      x y z
#    x 1.723450 0.000000 0.000000 
#    y 0.000000 1.795550 0.000000 
#    z 0.000000 0.000000 1.787590 
# 
# From -- ./inp_files/7115.got.cif
#   From: 2010.05.17/outbox.cif.g08.bks.cpg/sg20_4_cif.got.tgz:7115.got - 2010.06.03 22:52:26.
