data_PCOD9318282
_publ_section_title
;
Structure prediction by ZEFSAII (Michael W. Deem and Ramdas Pophale) SiO2 
 PCOD9318282
Probable space group: C 2 2 21
;
_chemical_formula_sum "Si O2"
_cell_formula_units_Z 48
_cell_length_a 17.310065
_cell_length_b 9.575217
_cell_length_c 14.358810
_cell_angle_alpha 90.000000
_cell_angle_beta 90.000000
_cell_angle_gamma 90.000000
_cell_volume 2379.938708
_symmetry_space_group_name_H-M "C 2 2 21"
_symmetry_group_IT_number 20
_symmetry_cell_setting 'orthorhombic'
loop_
_space_group_symop_operation_xyz
x,y,z
-x,-y,1/2+z
x,-y,-z
-x,y,1/2-z
1/2+x,1/2+y,z
1/2-x,1/2-y,1/2+z
1/2+x,1/2-y,-z
1/2-x,1/2+y,1/2-z
loop_
_atom_site_type_symbol
_atom_site_label
_atom_site_fract_x
_atom_site_fract_y
_atom_site_fract_z
Si Si1 0.351968 0.261289 0.241442
Si Si2 0.186035 0.308677 0.327299
Si Si3 0.421970 0.500000 0.000000
Si Si4 0.509031 0.000000 0.000000
Si Si5 0.430019 0.445551 0.806747
Si Si6 0.421877 0.013748 0.694688
Si Si7 0.865270 0.696583 0.032481
O O1 0.273873 0.288183 0.297845
O O2 0.397388 0.406947 0.228825
O O3 0.334631 0.192329 0.138769
O O4 0.403618 0.149992 0.295959
O O5 0.145738 0.408135 0.250708
O O6 0.174959 0.356320 0.435983
O O7 0.139406 0.163074 0.317154
O O8 0.467783 0.526303 0.092831
O O9 0.371919 0.362760 0.017559
O O10 0.560935 0.953154 0.087143
O O11 0.449603 0.122852 0.031283
O O12 0.500000 0.383259 0.750000
O O13 0.500000 0.044956 0.750000
#
# Coordination Sequence:
#
# PCOD9318282 Si02
#       7
#     8   8   4   4   8   8   8
#     4  11  23  40  63  91 129 163 207 257 318 378
#     4  11  23  40  63  91 129 163 207 257 318 378
#     4   8  20  34  57  81 118 152 196 232 304 360
#     4  12  24  38  67  93 126 164 218 270 306 380
#     4  10  21  38  60  88 115 160 199 248 297 360
#     4  12  23  41  64  95 120 168 216 261 311 381
#     4  10  20  39  61  87 125 170 198 257 325 361
#
# _framework density 20.168586999999999
#
# number of rings (size 3 to 8) (size 9 to 14) (size 15 to 20)
#    0.000    1.333    3.333    2.000    4.667    1.333 
#    0.000    3.333    0.000    0.000    0.000    0.000 
#    0.000    0.000    0.000    0.000    0.000    0.000 
#
# Total GULP energy -133818.288231 kJ/mol
# GULP energy per Si atom -5575.762010 kJ/mol
# Density = 2.012268 g / cm^3
# Si number density = 20.168587 Si / 1000 Ang^3
#
#
#
# Elastic Constant Matrix: (Units=GPa)
#
#
# Indices 1 2 3 4 5 6 
#
# 1 53.9635 0.3726 31.6901 0.0000 0.0000 0.0000
# 2 0.3726 73.7355 -14.1148 0.0000 0.0000 0.0000
# 3 31.6901 -14.1148 111.0902 0.0000 0.0000 0.0000
# 4 0.0000 0.0000 0.0000 108.5210 0.0000 0.0000
# 5 0.0000 0.0000 0.0000 0.0000 26.9798 0.0000
# 6 0.0000 0.0000 0.0000 0.0000 0.0000 22.7771
#
#
#
# Elastic Compliance Matrix: (Units=1/GPa)
#
#
# Indices 1 2 3 4 5 6 
#
# 1 0.022394 -0.001369 -0.006562 0.000000 0.000000 0.000000
# 2 -0.001369 0.013984 0.002167 0.000000 0.000000 0.000000
# 3 -0.006562 0.002167 0.011149 0.000000 0.000000 0.000000
# 4 0.000000 0.000000 0.000000 0.009215 0.000000 0.000000
# 5 0.000000 0.000000 0.000000 0.000000 0.037065 0.000000
# 6 0.000000 0.000000 0.000000 0.000000 0.000000 0.043904
#
#
# Mechanical properties :
#
#
# Convention : Reuss Voigt Hill
#
# Bulk Modulus (GPa) = 27.77887 30.52055 29.14971
# Shear Modulus (GPa) = 31.00998 46.37833 38.69416
#
# Velocity S-wave (km/s) = 3.92540 4.80055 4.38486
# Velocity P-wave (km/s) = 5.86074 6.77441 6.33407
#
# Compressibility (1/GPa) = 0.03599859
#
# Stress axis : x y z
#
# Youngs Moduli (GPa) = 44.65441 71.51139 89.69367
#
# Poissons Ratio (x) = 0.09792 0.58859
# Poissons Ratio (y) = 0.06115 -0.19440
# Poissons Ratio (z) = 0.29303 -0.15499
#
# Static dielectric constant tensor:
#      x y z
#    x 1.585660 0.000000 0.000000 
#    y 0.000000 1.767300 0.000000 
#    z 0.000000 0.000000 1.751060 
# 
# From -- ./inp_files/21325.got.cif
#   From: 2010.05.17/outbox.cif.g08.bks.cpg/sg20_11_cif.got.tgz:21325.got - 2010.06.03 22:52:26.
