data_PCOD9318855
_publ_section_title
;
Structure prediction by ZEFSAII (Michael W. Deem and Ramdas Pophale) SiO2 
 PCOD9318855
Probable space group: C 2 2 21
;
_chemical_formula_sum "Si O2"
_cell_formula_units_Z 48
_cell_length_a 11.880002
_cell_length_b 27.464434
_cell_length_c 7.785403
_cell_angle_alpha 90.000000
_cell_angle_beta 90.000000
_cell_angle_gamma 90.000000
_cell_volume 2540.202068
_symmetry_space_group_name_H-M "C 2 2 21"
_symmetry_group_IT_number 20
_symmetry_cell_setting 'orthorhombic'
loop_
_space_group_symop_operation_xyz
x,y,z
-x,-y,1/2+z
x,-y,-z
-x,y,1/2-z
1/2+x,1/2+y,z
1/2-x,1/2-y,1/2+z
1/2+x,1/2-y,-z
1/2-x,1/2+y,1/2-z
loop_
_atom_site_type_symbol
_atom_site_label
_atom_site_fract_x
_atom_site_fract_y
_atom_site_fract_z
Si Si1 0.021285 0.554345 0.046639
Si Si2 0.080199 0.134911 0.884156
Si Si3 0.319455 0.882520 0.997955
Si Si4 0.151577 0.352584 0.901055
Si Si5 0.622143 0.309451 0.446891
Si Si6 0.953394 0.707707 0.933126
O O1 0.112190 0.596618 0.010914
O O2 0.000000 0.554916 0.250000
O O3 0.902291 0.572185 0.967316
O O4 0.054237 0.500000 0.000000
O O5 0.124594 0.177269 0.755232
O O6 0.000000 0.104957 0.750000
O O7 0.991095 0.161647 0.007479
O O8 0.188319 0.109861 0.963781
O O9 0.337187 0.864856 0.800737
O O10 0.369282 0.837023 0.102874
O O11 0.268506 0.331625 0.966513
O O12 0.053615 0.314361 0.950073
O O13 0.607698 0.252660 0.477689
O O14 0.000000 0.724660 0.750000
#
# Coordination Sequence:
#
# PCOD9318855 Si02
#       6
#     8   8   8   8   8   8
#     4   9  20  38  60  91 111 140 181 238 298 348
#     4   8  21  36  52  77 108 147 204 214 289 328
#     4  10  21  37  58  80 117 147 187 246 288 343
#     4  10  22  37  55  84 118 147 193 243 291 336
#     4   9  22  33  53  74 114 149 197 227 274 330
#     4  11  23  33  52  79 113 157 204 227 288 328
#
# _framework density 18.896135000000001
#
# number of rings (size 3 to 8) (size 9 to 14) (size 15 to 20)
#    1.000    1.333    0.000    2.500    9.333    4.000 
#    0.000    0.000    0.000    1.000    0.000    0.000 
#    0.000    0.000    0.000    0.000    0.000    0.000 
#
# Total GULP energy -133649.678063 kJ/mol
# GULP energy per Si atom -5568.736586 kJ/mol
# Density = 1.885313 g / cm^3
# Si number density = 18.896135 Si / 1000 Ang^3
#
#
#
# Elastic Constant Matrix: (Units=GPa)
#
#
# Indices 1 2 3 4 5 6 
#
# 1 87.5312 34.6554 19.3327 0.0000 0.0000 0.0000
# 2 34.6554 101.1993 13.8765 0.0000 0.0000 0.0000
# 3 19.3327 13.8765 40.6769 0.0000 0.0000 0.0000
# 4 0.0000 0.0000 0.0000 16.4658 0.0000 0.0000
# 5 0.0000 0.0000 0.0000 0.0000 32.2836 0.0000
# 6 0.0000 0.0000 0.0000 0.0000 0.0000 8.7062
#
#
#
# Elastic Compliance Matrix: (Units=1/GPa)
#
#
# Indices 1 2 3 4 5 6 
#
# 1 0.014249 -0.004145 -0.005358 0.000000 0.000000 0.000000
# 2 -0.004145 0.011572 -0.001978 0.000000 0.000000 0.000000
# 3 -0.005358 -0.001978 0.027805 0.000000 0.000000 0.000000
# 4 0.000000 0.000000 0.000000 0.060732 0.000000 0.000000
# 5 0.000000 0.000000 0.000000 0.000000 0.030975 0.000000
# 6 0.000000 0.000000 0.000000 0.000000 0.000000 0.114860
#
#
# Mechanical properties :
#
#
# Convention : Reuss Voigt Hill
#
# Bulk Modulus (GPa) = 32.61073 40.57074 36.59073
# Shear Modulus (GPa) = 17.04291 22.26065 19.65178
#
# Velocity S-wave (km/s) = 3.00647 3.43600 3.22839
# Velocity P-wave (km/s) = 5.41730 6.10397 5.77086
#
# Compressibility (1/GPa) = 0.03066476
#
# Stress axis : x y z
#
# Youngs Moduli (GPa) = 70.18054 86.41508 35.96435
#
# Poissons Ratio (x) = 0.35817 0.19270
# Poissons Ratio (y) = 0.29088 0.07113
# Poissons Ratio (z) = 0.37604 0.17091
#
# Static dielectric constant tensor:
#      x y z
#    x 1.705470 0.000000 0.000000 
#    y 0.000000 1.634610 0.000000 
#    z 0.000000 0.000000 1.717920 
# 
# From -- ./inp_files/7368.got.cif
#   From: 2010.05.17/outbox.cif.g08.bks.cpg/sg20_4_cif.got.tgz:7368.got - 2010.06.03 22:52:26.
