data_PCOD9318070
_publ_section_title
;
Structure prediction by ZEFSAII (Michael W. Deem and Ramdas Pophale) SiO2 
 PCOD9318070
Probable space group: C 2 2 21
;
_chemical_formula_sum "Si O2"
_cell_formula_units_Z 64
_cell_length_a 16.856939
_cell_length_b 13.790212
_cell_length_c 12.245601
_cell_angle_alpha 90.000000
_cell_angle_beta 90.000000
_cell_angle_gamma 90.000000
_cell_volume 2846.621745
_symmetry_space_group_name_H-M "C 2 2 21"
_symmetry_group_IT_number 20
_symmetry_cell_setting 'orthorhombic'
loop_
_space_group_symop_operation_xyz
x,y,z
-x,-y,1/2+z
x,-y,-z
-x,y,1/2-z
1/2+x,1/2+y,z
1/2-x,1/2-y,1/2+z
1/2+x,1/2-y,-z
1/2-x,1/2+y,1/2-z
loop_
_atom_site_type_symbol
_atom_site_label
_atom_site_fract_x
_atom_site_fract_y
_atom_site_fract_z
Si Si1 0.283847 0.676625 0.400837
Si Si2 0.855191 0.243744 0.613695
Si Si3 0.112153 0.241345 0.527113
Si Si4 0.891199 0.549348 0.349354
Si Si5 0.059603 0.443067 0.598006
Si Si6 0.250961 0.985416 0.238540
Si Si7 0.581324 0.398708 0.289445
Si Si8 0.183886 0.722436 0.693205
O O1 0.335020 0.675383 0.511589
O O2 0.201187 0.731764 0.429244
O O3 0.261329 0.574148 0.346003
O O4 0.332570 0.741240 0.314268
O O5 0.887772 0.349209 0.587865
O O6 0.907712 0.191281 0.704560
O O7 0.770053 0.267709 0.667806
O O8 0.058398 0.332048 0.560613
O O9 0.081735 0.146668 0.589461
O O10 0.122694 0.241578 0.397043
O O11 0.903115 0.561828 0.218329
O O12 0.804436 0.503501 0.346995
O O13 0.974323 0.504465 0.385961
O O14 0.102334 0.500000 0.500000
O O15 0.162100 0.957513 0.273372
O O16 0.295984 0.891835 0.187062
O O17 0.500000 0.447840 0.250000
#
# Coordination Sequence:
#
# PCOD9318070 Si02
#       8
#     8   8   8   8   8   8   8   8
#     4  11  21  39  64  97 134 174 231 279 336 404
#     4  10  20  37  66  93 131 176 225 273 331 400
#     4  11  20  37  65  94 135 168 225 272 334 407
#     4  11  21  40  62  95 141 170 217 281 343 408
#     4  11  22  36  62  98 131 176 219 272 345 407
#     4  11  21  41  68  97 132 176 223 285 328 407
#     4  11  22  41  67  96 124 178 231 273 332 404
#     4  10  21  36  61 100 131 170 225 275 341 395
#
# _framework density 22.482790999999999
#
# number of rings (size 3 to 8) (size 9 to 14) (size 15 to 20)
#    0.000    1.250    6.250    1.500    0.000    5.000 
#    0.000    1.875    8.250    0.000    0.000    0.000 
#    0.000    0.000    0.000    0.000    0.000    0.000 
#
# Total GULP energy -178481.704536 kJ/mol
# GULP energy per Si atom -5577.553267 kJ/mol
# Density = 2.243162 g / cm^3
# Si number density = 22.482791 Si / 1000 Ang^3
#
#
#
# Elastic Constant Matrix: (Units=GPa)
#
#
# Indices 1 2 3 4 5 6 
#
# 1 88.4220 1.0867 8.3002 0.0000 0.0000 0.0000
# 2 1.0867 43.5540 14.9856 0.0000 0.0000 0.0000
# 3 8.3002 14.9856 96.4126 0.0000 0.0000 0.0000
# 4 0.0000 0.0000 0.0000 25.0573 0.0000 0.0000
# 5 0.0000 0.0000 0.0000 0.0000 24.2048 0.0000
# 6 0.0000 0.0000 0.0000 0.0000 0.0000 13.0000
#
#
#
# Elastic Compliance Matrix: (Units=1/GPa)
#
#
# Indices 1 2 3 4 5 6 
#
# 1 0.011402 0.000056 -0.000990 0.000000 0.000000 0.000000
# 2 0.000056 0.024258 -0.003775 0.000000 0.000000 0.000000
# 3 -0.000990 -0.003775 0.011044 0.000000 0.000000 0.000000
# 4 0.000000 0.000000 0.000000 0.039909 0.000000 0.000000
# 5 0.000000 0.000000 0.000000 0.000000 0.041314 0.000000
# 6 0.000000 0.000000 0.000000 0.000000 0.000000 0.076923
#
#
# Mechanical properties :
#
#
# Convention : Reuss Voigt Hill
#
# Bulk Modulus (GPa) = 26.82061 30.79263 28.80662
# Shear Modulus (GPa) = 22.05596 26.05348 24.05472
#
# Velocity S-wave (km/s) = 3.13551 3.40784 3.27451
# Velocity P-wave (km/s) = 5.00639 5.40465 5.20933
#
# Compressibility (1/GPa) = 0.03728476
#
# Stress axis : x y z
#
# Youngs Moduli (GPa) = 87.70643 41.22424 90.54577
#
# Poissons Ratio (x) = -0.00232 0.08967
# Poissons Ratio (y) = -0.00493 0.34183
# Poissons Ratio (z) = 0.08686 0.15563
#
# Static dielectric constant tensor:
#      x y z
#    x 1.913460 0.000000 0.000000 
#    y 0.000000 1.872260 0.000000 
#    z 0.000000 0.000000 1.844030 
# 
# From -- ./inp_files/15913.got.cif
#   From: 2010.05.17/outbox.cif.g08.bks.cpg/sg20_8_cif.got.tgz:15913.got - 2010.06.03 22:52:26.
