data_PCOD9318555
_publ_section_title
;
Structure prediction by ZEFSAII (Michael W. Deem and Ramdas Pophale) SiO2 
 PCOD9318555
Probable space group: C 2 2 21
;
_chemical_formula_sum "Si O2"
_cell_formula_units_Z 64
_cell_length_a 11.151694
_cell_length_b 15.166470
_cell_length_c 16.412352
_cell_angle_alpha 90.000000
_cell_angle_beta 90.000000
_cell_angle_gamma 90.000000
_cell_volume 2775.851169
_symmetry_space_group_name_H-M "C 2 2 21"
_symmetry_group_IT_number 20
_symmetry_cell_setting 'orthorhombic'
loop_
_space_group_symop_operation_xyz
x,y,z
-x,-y,1/2+z
x,-y,-z
-x,y,1/2-z
1/2+x,1/2+y,z
1/2-x,1/2-y,1/2+z
1/2+x,1/2-y,-z
1/2-x,1/2+y,1/2-z
loop_
_atom_site_type_symbol
_atom_site_label
_atom_site_fract_x
_atom_site_fract_y
_atom_site_fract_z
Si Si1 0.163196 0.760924 0.354216
Si Si2 0.685243 0.257726 0.545419
Si Si3 0.900883 0.823710 0.391279
Si Si4 0.875419 0.001582 0.701302
Si Si5 0.552222 0.067691 0.573257
Si Si6 0.899861 0.677449 0.679169
Si Si7 0.541609 0.354163 0.920130
Si Si8 0.632455 0.063306 0.290506
O O1 0.204026 0.767533 0.448890
O O2 0.259503 0.815672 0.301627
O O3 0.155637 0.660664 0.324847
O O4 0.027983 0.795616 0.355303
O O5 0.803714 0.253514 0.599980
O O6 0.619716 0.160708 0.553514
O O7 0.600673 0.337118 0.574222
O O8 0.916838 0.850752 0.486265
O O9 0.855850 0.903923 0.338485
O O10 0.758704 0.966339 0.750201
O O11 0.000000 0.001715 0.750000
O O12 0.903983 0.936805 0.625393
O O13 0.430378 0.099983 0.616329
O O14 0.532374 0.000000 0.500000
O O15 0.622756 0.008797 0.638001
O O16 0.000000 0.669867 0.750000
O O17 0.920998 0.770374 0.634321
O O18 0.500000 0.062426 0.250000
#
# Coordination Sequence:
#
# PCOD9318555 Si02
#       8
#     8   8   8   8   8   8   8   8
#     4  11  24  43  70 104 140 175 234 296 362 424
#     4  10  20  41  72 106 130 173 230 297 356 420
#     4  11  23  43  72 102 137 174 234 302 357 412
#     4  12  26  45  68  98 142 190 235 284 358 423
#     4  11  23  42  73  99 132 180 236 284 340 422
#     4  11  23  43  72 102 142 183 231 287 356 426
#     4  10  22  40  73 102 130 181 236 283 347 432
#     4  12  26  44  67 100 138 186 238 288 344 430
#
# _framework density 23.055990999999999
#
# number of rings (size 3 to 8) (size 9 to 14) (size 15 to 20)
#    0.000    1.000    5.000    1.125    0.000    3.500 
#    2.250    3.750    0.000    0.000    0.000    0.000 
#    0.000    0.000    0.000    0.000    0.000    0.000 
#
# Total GULP energy -178811.270423 kJ/mol
# GULP energy per Si atom -5587.852201 kJ/mol
# Density = 2.300351 g / cm^3
# Si number density = 23.055991 Si / 1000 Ang^3
#
#
#
# Elastic Constant Matrix: (Units=GPa)
#
#
# Indices 1 2 3 4 5 6 
#
# 1 191.7173 37.8603 46.8299 0.0000 0.0000 0.0000
# 2 37.8603 63.1593 23.8913 0.0000 0.0000 0.0000
# 3 46.8299 23.8913 64.5190 0.0000 0.0000 0.0000
# 4 0.0000 0.0000 0.0000 22.0264 0.0000 0.0000
# 5 0.0000 0.0000 0.0000 0.0000 23.8056 0.0000
# 6 0.0000 0.0000 0.0000 0.0000 0.0000 32.4881
#
#
#
# Elastic Compliance Matrix: (Units=1/GPa)
#
#
# Indices 1 2 3 4 5 6 
#
# 1 0.006668 -0.002519 -0.003907 0.000000 0.000000 0.000000
# 2 -0.002519 0.019364 -0.005342 0.000000 0.000000 0.000000
# 3 -0.003907 -0.005342 0.020313 0.000000 0.000000 0.000000
# 4 0.000000 0.000000 0.000000 0.045400 0.000000 0.000000
# 5 0.000000 0.000000 0.000000 0.000000 0.042007 0.000000
# 6 0.000000 0.000000 0.000000 0.000000 0.000000 0.030780
#
#
# Mechanical properties :
#
#
# Convention : Reuss Voigt Hill
#
# Bulk Modulus (GPa) = 43.84259 59.61763 51.73011
# Shear Modulus (GPa) = 25.55309 29.71829 27.63569
#
# Velocity S-wave (km/s) = 3.33273 3.59411 3.46589
# Velocity P-wave (km/s) = 5.81949 6.56790 6.20499
#
# Compressibility (1/GPa) = 0.02280887
#
# Stress axis : x y z
#
# Youngs Moduli (GPa) = 149.97453 51.64298 49.22914
#
# Poissons Ratio (x) = 0.13009 0.19233
# Poissons Ratio (y) = 0.37780 0.26298
# Poissons Ratio (z) = 0.58593 0.27587
#
# Static dielectric constant tensor:
#      x y z
#    x 2.007320 0.000000 0.000000 
#    y 0.000000 1.816340 0.000000 
#    z 0.000000 0.000000 1.889480 
# 
# From -- ./inp_files/24478.got.cif
#   From: 2010.05.17/outbox.cif.g08.bks.cpg/sg20_13_cif.got.tgz:24478.got - 2010.06.03 22:52:26.
