data_PCOD9318927
_publ_section_title
;
Structure prediction by ZEFSAII (Michael W. Deem and Ramdas Pophale) SiO2 
 PCOD9318927
Probable space group: C 2 2 21
;
_chemical_formula_sum "Si O2"
_cell_formula_units_Z 36
_cell_length_a 19.065972
_cell_length_b 7.400446
_cell_length_c 12.445703
_cell_angle_alpha 90.000000
_cell_angle_beta 90.000000
_cell_angle_gamma 90.000000
_cell_volume 1756.047575
_symmetry_space_group_name_H-M "C 2 2 21"
_symmetry_group_IT_number 20
_symmetry_cell_setting 'orthorhombic'
loop_
_space_group_symop_operation_xyz
x,y,z
-x,-y,1/2+z
x,-y,-z
-x,y,1/2-z
1/2+x,1/2+y,z
1/2-x,1/2-y,1/2+z
1/2+x,1/2-y,-z
1/2-x,1/2+y,1/2-z
loop_
_atom_site_type_symbol
_atom_site_label
_atom_site_fract_x
_atom_site_fract_y
_atom_site_fract_z
Si Si1 0.120456 0.293245 0.154700
Si Si2 0.434080 0.500000 0.500000
Si Si3 0.436748 0.290932 0.090968
Si Si4 0.275647 0.000000 0.500000
Si Si5 0.853553 0.833317 0.889653
Si Si6 0.000000 0.482423 0.750000
O O1 0.146875 0.256700 0.274636
O O2 0.045932 0.393741 0.170679
O O3 0.108873 0.110378 0.087728
O O4 0.174981 0.410084 0.087939
O O5 0.485850 0.637823 0.561300
O O6 0.391539 0.469228 0.123405
O O7 0.446953 0.143865 0.182540
O O8 0.399879 0.231874 0.979867
O O9 0.222810 0.863651 0.560248
#
# Coordination Sequence:
#
# PCOD9318927 Si02
#       6
#     8   4   8   4   8   4
#     4  12  24  38  62  90 123 159 204 260 311 367
#     4  10  21  38  58  88 123 160 194 244 322 376
#     4   9  19  38  63  89 126 156 196 248 306 381
#     4  10  25  42  58  88 117 156 222 256 286 374
#     4   9  22  43  60  83 124 174 202 244 316 372
#     4  12  22  36  66 104 124 152 204 264 314 358
#
# _framework density 20.500584
#
# number of rings (size 3 to 8) (size 9 to 14) (size 15 to 20)
#    0.000    2.222    0.000    5.333    0.000    8.000 
#    0.000    0.000    0.000    0.000    0.000    0.000 
#    0.000    0.000    0.000    0.000    0.000    0.000 
#
# Total GULP energy -100577.809329 kJ/mol
# GULP energy per Si atom -5587.656074 kJ/mol
# Density = 2.045392 g / cm^3
# Si number density = 20.500584 Si / 1000 Ang^3
#
#
#
# Elastic Constant Matrix: (Units=GPa)
#
#
# Indices 1 2 3 4 5 6 
#
# 1 101.3064 26.0219 59.0529 0.0000 0.0000 0.0000
# 2 26.0219 53.8612 64.1625 0.0000 0.0000 0.0000
# 3 59.0529 64.1625 157.1171 0.0000 0.0000 0.0000
# 4 0.0000 0.0000 0.0000 48.3112 0.0000 0.0000
# 5 0.0000 0.0000 0.0000 0.0000 31.4001 0.0000
# 6 0.0000 0.0000 0.0000 0.0000 0.0000 -18.2803
#
#
#
# Elastic Compliance Matrix: (Units=1/GPa)
#
#
# Indices 1 2 3 4 5 6 
#
# 1 0.012661 -0.000873 -0.004403 0.000000 0.000000 0.000000
# 2 -0.000873 0.036215 -0.014461 0.000000 0.000000 0.000000
# 3 -0.004403 -0.014461 0.013925 0.000000 0.000000 0.000000
# 4 0.000000 0.000000 0.000000 0.020699 0.000000 0.000000
# 5 0.000000 0.000000 0.000000 0.000000 0.031847 0.000000
# 6 0.000000 0.000000 0.000000 0.000000 0.000000 -0.054704
#
#
# Mechanical properties :
#
#
# Convention : Reuss Voigt Hill
#
# Bulk Modulus (GPa) = 42.86583 67.86216 55.36399
# Shear Modulus (GPa) = 46.34236 23.15603 34.74919
#
# Velocity S-wave (km/s) = 4.75967 3.36449 4.12155
# Velocity P-wave (km/s) = 7.15268 6.94748 7.05083
#
# Compressibility (1/GPa) = 0.02332861
#
# Stress axis : x y z
#
# Youngs Moduli (GPa) = 78.97975 27.61297 71.81342
#
# Poissons Ratio (x) = 0.02410 0.31616
# Poissons Ratio (y) = 0.06892 1.03851
# Poissons Ratio (z) = 0.34771 0.39932
#
# Static dielectric constant tensor:
#      x y z
#    x 1.706660 0.000000 0.000000 
#    y 0.000000 1.757060 0.000000 
#    z 0.000000 0.000000 1.730730 
# 
# From -- ./inp_files/16139.got.cif
#   From: 2010.05.17/outbox.cif.g08.bks.cpg/sg20_9_cif.got.tgz:16139.got - 2010.06.03 22:52:26.
