data_PCOD9318819
_publ_section_title
;
Structure prediction by ZEFSAII (Michael W. Deem and Ramdas Pophale) SiO2 
 PCOD9318819
Probable space group: C 2 2 21
;
_chemical_formula_sum "Si O2"
_cell_formula_units_Z 24
_cell_length_a 17.908347
_cell_length_b 5.369072
_cell_length_c 9.870774
_cell_angle_alpha 90.000000
_cell_angle_beta 90.000000
_cell_angle_gamma 90.000000
_cell_volume 949.086809
_symmetry_space_group_name_H-M "C 2 2 21"
_symmetry_group_IT_number 20
_symmetry_cell_setting 'orthorhombic'
loop_
_space_group_symop_operation_xyz
x,y,z
-x,-y,1/2+z
x,-y,-z
-x,y,1/2-z
1/2+x,1/2+y,z
1/2-x,1/2-y,1/2+z
1/2+x,1/2-y,-z
1/2-x,1/2+y,1/2-z
loop_
_atom_site_type_symbol
_atom_site_label
_atom_site_fract_x
_atom_site_fract_y
_atom_site_fract_z
Si Si1 0.059205 0.897753 0.632996
Si Si2 0.732863 0.023430 0.840070
Si Si3 0.911330 0.398095 0.777865
O O1 0.095695 0.630500 0.620536
O O2 0.000000 0.862823 0.750000
O O3 0.019558 0.000000 0.500000
O O4 0.112791 0.125476 0.670992
O O5 0.757362 0.791723 0.738843
O O6 0.642266 0.977815 0.842438
O O7 0.756495 0.000000 0.000000
O O8 0.000000 0.367205 0.750000
#
# Coordination Sequence:
#
# PCOD9318819 Si02
#       3
#     8   8   8
#     4  10  21  36  60  95 134 175 223 285 352 416
#     4  12  28  50  76 108 149 197 247 302 369 443
#     4  10  23  42  68  99 135 178 232 291 350 419
#
# _framework density 25.287462999999999
#
# number of rings (size 3 to 8) (size 9 to 14) (size 15 to 20)
#    0.000    1.333    0.000    4.000    0.000   18.667 
#    0.000    0.000    0.000    0.000    0.000    0.000 
#    0.000    0.000    0.000    0.000    0.000    0.000 
#
# Total GULP energy -66811.473079 kJ/mol
# GULP energy per Si atom -5567.622757 kJ/mol
# Density = 2.522991 g / cm^3
# Si number density = 25.287463 Si / 1000 Ang^3
#
#
#
# Elastic Constant Matrix: (Units=GPa)
#
#
# Indices 1 2 3 4 5 6 
#
# 1 64.6428 4.1893 25.6264 0.0000 0.0000 0.0000
# 2 4.1893 277.5599 81.5619 0.0000 0.0000 0.0000
# 3 25.6264 81.5619 191.7035 0.0000 0.0000 0.0000
# 4 0.0000 0.0000 0.0000 35.0090 0.0000 0.0000
# 5 0.0000 0.0000 0.0000 0.0000 32.9173 0.0000
# 6 0.0000 0.0000 0.0000 0.0000 0.0000 32.2357
#
#
#
# Elastic Compliance Matrix: (Units=1/GPa)
#
#
# Indices 1 2 3 4 5 6 
#
# 1 0.016385 0.000453 -0.002383 0.000000 0.000000 0.000000
# 2 0.000453 0.004130 -0.001818 0.000000 0.000000 0.000000
# 3 -0.002383 -0.001818 0.006308 0.000000 0.000000 0.000000
# 4 0.000000 0.000000 0.000000 0.028564 0.000000 0.000000
# 5 0.000000 0.000000 0.000000 0.000000 0.030379 0.000000
# 6 0.000000 0.000000 0.000000 0.000000 0.000000 0.031021
#
#
# Mechanical properties :
#
#
# Convention : Reuss Voigt Hill
#
# Bulk Modulus (GPa) = 51.73894 84.07350 67.90622
# Shear Modulus (GPa) = 38.24784 48.20099 43.22441
#
# Velocity S-wave (km/s) = 3.89333 4.37065 4.13888
# Velocity P-wave (km/s) = 6.38087 7.66743 7.05354
#
# Compressibility (1/GPa) = 0.01932780
#
# Stress axis : x y z
#
# Youngs Moduli (GPa) = 61.03156 242.12241 158.52075
#
# Poissons Ratio (x) = -0.10967 0.37776
# Poissons Ratio (y) = -0.02764 0.28815
# Poissons Ratio (z) = 0.14544 0.44012
#
# Static dielectric constant tensor:
#      x y z
#    x 2.307000 0.000000 0.000000 
#    y 0.000000 2.091750 0.000000 
#    z 0.000000 0.000000 2.020180 
# 
# From -- ./inp_files/10423.got.cif
#   From: 2010.05.17/outbox.cif.g08.bks.cpg/sg20_6_cif.got.tgz:10423.got - 2010.06.03 22:52:26.
