data_PCOD9318484
_publ_section_title
;
Structure prediction by ZEFSAII (Michael W. Deem and Ramdas Pophale) SiO2 
 PCOD9318484
Probable space group: C 2 2 21
;
_chemical_formula_sum "Si O2"
_cell_formula_units_Z 32
_cell_length_a 7.542247
_cell_length_b 11.431853
_cell_length_c 15.948727
_cell_angle_alpha 90.000000
_cell_angle_beta 90.000000
_cell_angle_gamma 90.000000
_cell_volume 1375.128891
_symmetry_space_group_name_H-M "C 2 2 21"
_symmetry_group_IT_number 20
_symmetry_cell_setting 'orthorhombic'
loop_
_space_group_symop_operation_xyz
x,y,z
-x,-y,1/2+z
x,-y,-z
-x,y,1/2-z
1/2+x,1/2+y,z
1/2-x,1/2-y,1/2+z
1/2+x,1/2-y,-z
1/2-x,1/2+y,1/2-z
loop_
_atom_site_type_symbol
_atom_site_label
_atom_site_fract_x
_atom_site_fract_y
_atom_site_fract_z
Si Si1 0.530072 0.000000 0.000000
Si Si2 0.995988 0.734417 0.431172
Si Si3 0.088699 0.826781 0.606716
Si Si4 0.705062 0.570450 0.649387
Si Si5 0.000000 0.351934 0.250000
O O1 0.659135 0.945728 0.070796
O O2 0.426372 0.107319 0.042149
O O3 0.002544 0.811620 0.515642
O O4 0.100764 0.808794 0.362766
O O5 0.796819 0.705337 0.404065
O O6 0.014170 0.732913 0.670868
O O7 0.079951 0.957877 0.641811
O O8 0.825771 0.571957 0.732174
#
# Coordination Sequence:
#
# PCOD9318484 Si02
#       5
#     4   8   8   8   4
#     4  10  20  40  70  94 128 172 216 278 318 398
#     4  11  20  44  68  96 126 176 223 269 321 400
#     4  11  24  42  68  97 134 174 222 278 331 399
#     4  11  23  45  67  97 135 168 226 274 327 401
#     4  12  26  44  62 102 140 174 216 280 346 380
#
# _framework density 23.270543
#
# number of rings (size 3 to 8) (size 9 to 14) (size 15 to 20)
#    0.000    1.000    7.500    0.000    0.000    7.000 
#    9.000    0.000    0.000    0.000    0.000    0.000 
#    0.000    0.000    0.000    0.000    0.000    0.000 
#
# Total GULP energy -89481.254329 kJ/mol
# GULP energy per Si atom -5592.578396 kJ/mol
# Density = 2.321758 g / cm^3
# Si number density = 23.270543 Si / 1000 Ang^3
#
#
#
# Elastic Constant Matrix: (Units=GPa)
#
#
# Indices 1 2 3 4 5 6 
#
# 1 51.5947 25.3051 -4.3476 0.0000 0.0000 0.0000
# 2 25.3051 124.1825 -18.7962 0.0000 0.0000 0.0000
# 3 -4.3476 -18.7962 25.0438 0.0000 0.0000 0.0000
# 4 0.0000 0.0000 0.0000 22.8474 0.0000 0.0000
# 5 0.0000 0.0000 0.0000 0.0000 39.9970 0.0000
# 6 0.0000 0.0000 0.0000 0.0000 0.0000 36.4578
#
#
#
# Elastic Compliance Matrix: (Units=1/GPa)
#
#
# Indices 1 2 3 4 5 6 
#
# 1 0.021540 -0.004313 0.000502 0.000000 0.000000 0.000000
# 2 -0.004313 0.009948 0.006718 0.000000 0.000000 0.000000
# 3 0.000502 0.006718 0.045059 0.000000 0.000000 0.000000
# 4 0.000000 0.000000 0.000000 0.043769 0.000000 0.000000
# 5 0.000000 0.000000 0.000000 0.000000 0.025002 0.000000
# 6 0.000000 0.000000 0.000000 0.000000 0.000000 0.027429
#
#
# Mechanical properties :
#
#
# Convention : Reuss Voigt Hill
#
# Bulk Modulus (GPa) = 12.14176 22.79374 17.46775
# Shear Modulus (GPa) = 25.72191 33.10442 29.41316
#
# Velocity S-wave (km/s) = 3.32827 3.77581 3.55909
# Velocity P-wave (km/s) = 4.47201 5.36893 4.94086
#
# Compressibility (1/GPa) = 0.08236041
#
# Stress axis : x y z
#
# Youngs Moduli (GPa) = 46.42606 100.51869 22.19307
#
# Poissons Ratio (x) = 0.43356 -0.01114
# Poissons Ratio (y) = 0.20025 -0.14909
# Poissons Ratio (z) = -0.02331 -0.67527
#
# Static dielectric constant tensor:
#      x y z
#    x 1.913290 0.000000 0.000000 
#    y 0.000000 1.913670 0.000000 
#    z 0.000000 0.000000 1.883750 
# 
# From -- ./inp_files/18232.got.cif
#   From: 2010.05.17/outbox.cif.g08.bks.cpg/sg20_10_cif.got.tgz:18232.got - 2010.06.03 22:52:26.
