data_PCOD9318763
_publ_section_title
;
Structure prediction by ZEFSAII (Michael W. Deem and Ramdas Pophale) SiO2 
 PCOD9318763
Probable space group: C 2 2 21
;
_chemical_formula_sum "Si O2"
_cell_formula_units_Z 32
_cell_length_a 7.155161
_cell_length_b 21.630499
_cell_length_c 8.827221
_cell_angle_alpha 90.000000
_cell_angle_beta 90.000000
_cell_angle_gamma 90.000000
_cell_volume 1366.186371
_symmetry_space_group_name_H-M "C 2 2 21"
_symmetry_group_IT_number 20
_symmetry_cell_setting 'orthorhombic'
loop_
_space_group_symop_operation_xyz
x,y,z
-x,-y,1/2+z
x,-y,-z
-x,y,1/2-z
1/2+x,1/2+y,z
1/2-x,1/2-y,1/2+z
1/2+x,1/2-y,-z
1/2-x,1/2+y,1/2-z
loop_
_atom_site_type_symbol
_atom_site_label
_atom_site_fract_x
_atom_site_fract_y
_atom_site_fract_z
Si Si1 0.119449 0.284299 0.400327
Si Si2 0.500000 0.083857 0.250000
Si Si3 0.682834 0.000000 0.500000
Si Si4 0.229266 0.598915 0.733313
Si Si5 0.277237 0.847015 0.542407
O O1 0.270483 0.334812 0.346135
O O2 0.172824 0.217980 0.460873
O O3 0.000000 0.271404 0.250000
O O4 0.989134 0.323164 0.511211
O O5 0.446273 0.043166 0.104764
O O6 0.689453 0.120062 0.201923
O O7 0.787808 0.956416 0.377237
O O8 0.000000 0.593360 0.750000
O O9 0.288615 0.607946 0.907590
#
# Coordination Sequence:
#
# PCOD9318763 Si02
#       5
#     8   4   4   8   8
#     4   9  20  36  54  84 121 143 190 233 286 355
#     4  12  20  30  56  84 112 152 192 242 300 324
#     4  12  18  32  52  84 120 142 196 254 278 326
#     4   9  18  33  48  79 116 142 188 235 284 334
#     4  10  21  35  55  84 117 151 187 238 296 349
#
# _framework density 23.422867
#
# number of rings (size 3 to 8) (size 9 to 14) (size 15 to 20)
#    0.000    2.500    6.250    0.000    7.000    0.000 
#    0.000    0.000    0.000    0.000    0.000   28.000 
#    0.000    0.000    0.000    0.000    0.000    0.000 
#
# Total GULP energy -89119.823525 kJ/mol
# GULP energy per Si atom -5569.988970 kJ/mol
# Density = 2.336956 g / cm^3
# Si number density = 23.422867 Si / 1000 Ang^3
#
#
#
# Elastic Constant Matrix: (Units=GPa)
#
#
# Indices 1 2 3 4 5 6 
#
# 1 23.2147 12.5478 4.9113 0.0000 0.0000 0.0000
# 2 12.5478 131.0626 60.5442 0.0000 0.0000 0.0000
# 3 4.9113 60.5442 108.1858 0.0000 0.0000 0.0000
# 4 0.0000 0.0000 0.0000 56.5861 0.0000 0.0000
# 5 0.0000 0.0000 0.0000 0.0000 1.3792 0.0000
# 6 0.0000 0.0000 0.0000 0.0000 0.0000 17.9757
#
#
#
# Elastic Compliance Matrix: (Units=1/GPa)
#
#
# Indices 1 2 3 4 5 6 
#
# 1 0.045447 -0.004583 0.000501 0.000000 0.000000 0.000000
# 2 -0.004583 0.010752 -0.005809 0.000000 0.000000 0.000000
# 3 0.000501 -0.005809 0.012472 0.000000 0.000000 0.000000
# 4 0.000000 0.000000 0.000000 0.017672 0.000000 0.000000
# 5 0.000000 0.000000 0.000000 0.000000 0.725037 0.000000
# 6 0.000000 0.000000 0.000000 0.000000 0.000000 0.055631
#
#
# Mechanical properties :
#
#
# Convention : Reuss Voigt Hill
#
# Bulk Modulus (GPa) = 20.45408 46.49664 33.47536
# Shear Modulus (GPa) = 5.53656 27.48553 16.51104
#
# Velocity S-wave (km/s) = 1.53911 3.42928 2.65790
# Velocity P-wave (km/s) = 3.45108 5.96439 4.87258
#
# Compressibility (1/GPa) = 0.04889000
#
# Stress axis : x y z
#
# Youngs Moduli (GPa) = 22.00362 93.00364 80.18187
#
# Poissons Ratio (x) = 0.42621 -0.04021
# Poissons Ratio (y) = 0.10084 0.46580
# Poissons Ratio (z) = -0.01103 0.54028
#
# Static dielectric constant tensor:
#      x y z
#    x 1.994270 0.000000 0.000000 
#    y 0.000000 2.004720 0.000000 
#    z 0.000000 0.000000 1.991100 
# 
# From -- ./inp_files/5824.got.cif
#   From: 2010.05.17/outbox.cif.g08.bks.cpg/sg20_3_cif.got.tgz:5824.got - 2010.06.03 22:52:26.
