data_PCOD9318581
_publ_section_title
;
Structure prediction by ZEFSAII (Michael W. Deem and Ramdas Pophale) SiO2 
 PCOD9318581
Probable space group: C 2 2 21
;
_chemical_formula_sum "Si O2"
_cell_formula_units_Z 48
_cell_length_a 13.810334
_cell_length_b 5.189603
_cell_length_c 26.846105
_cell_angle_alpha 90.000000
_cell_angle_beta 90.000000
_cell_angle_gamma 90.000000
_cell_volume 1924.064393
_symmetry_space_group_name_H-M "C 2 2 21"
_symmetry_group_IT_number 20
_symmetry_cell_setting 'orthorhombic'
loop_
_space_group_symop_operation_xyz
x,y,z
-x,-y,1/2+z
x,-y,-z
-x,y,1/2-z
1/2+x,1/2+y,z
1/2-x,1/2-y,1/2+z
1/2+x,1/2-y,-z
1/2-x,1/2+y,1/2-z
loop_
_atom_site_type_symbol
_atom_site_label
_atom_site_fract_x
_atom_site_fract_y
_atom_site_fract_z
Si Si1 0.082124 0.261657 0.532895
Si Si2 0.053623 0.023576 0.106303
Si Si3 0.205190 0.346848 0.853234
Si Si4 0.698428 0.519135 0.263122
Si Si5 0.705414 0.831661 0.049167
Si Si6 0.548785 0.203268 0.797771
O O1 0.045722 0.500000 0.500000
O O2 0.194283 0.327357 0.546092
O O3 0.015293 0.187960 0.580413
O O4 0.085944 0.000000 0.500000
O O5 0.149157 0.910954 0.133648
O O6 0.106721 0.182967 0.062529
O O7 0.003188 0.181641 0.151162
O O8 0.297333 0.354845 0.817722
O O9 0.225188 0.479152 0.905093
O O10 0.127950 0.514621 0.821937
O O11 0.772734 0.720396 0.235879
O O12 0.601028 0.568400 0.233474
O O13 0.693034 0.000000 0.000000
O O14 0.500000 0.064595 0.750000
#
# Coordination Sequence:
#
# PCOD9318581 Si02
#       6
#     8   8   8   8   8   8
#     4  11  29  49  73 113 151 193 256 321 382 462
#     4  11  25  46  75 108 148 200 253 314 390 466
#     4  10  23  42  68 104 136 198 246 305 381 455
#     4  10  20  42  64  93 135 181 237 294 354 440
#     4  10  26  48  74 106 148 201 253 315 391 461
#     4  10  23  43  66 102 145 191 246 312 380 447
#
# _framework density 24.947191
#
# number of rings (size 3 to 8) (size 9 to 14) (size 15 to 20)
#    0.000    1.667    1.667    0.000   14.000    0.667 
#    3.000    0.000    0.000    0.000    0.000    0.000 
#    0.000    0.000    0.000    0.000    0.000    0.000 
#
# Total GULP energy -133921.407321 kJ/mol
# GULP energy per Si atom -5580.058638 kJ/mol
# Density = 2.489041 g / cm^3
# Si number density = 24.947191 Si / 1000 Ang^3
#
#
#
# Elastic Constant Matrix: (Units=GPa)
#
#
# Indices 1 2 3 4 5 6 
#
# 1 103.9011 24.1628 54.9817 0.0000 0.0000 0.0000
# 2 24.1628 77.8600 36.4772 0.0000 0.0000 0.0000
# 3 54.9817 36.4772 187.2411 0.0000 0.0000 0.0000
# 4 0.0000 0.0000 0.0000 51.9219 0.0000 0.0000
# 5 0.0000 0.0000 0.0000 0.0000 95.8211 0.0000
# 6 0.0000 0.0000 0.0000 0.0000 0.0000 12.5988
#
#
#
# Elastic Compliance Matrix: (Units=1/GPa)
#
#
# Indices 1 2 3 4 5 6 
#
# 1 0.011737 -0.002231 -0.003012 0.000000 0.000000 0.000000
# 2 -0.002231 0.014558 -0.002181 0.000000 0.000000 0.000000
# 3 -0.003012 -0.002181 0.006650 0.000000 0.000000 0.000000
# 4 0.000000 0.000000 0.000000 0.019260 0.000000 0.000000
# 5 0.000000 0.000000 0.000000 0.000000 0.010436 0.000000
# 6 0.000000 0.000000 0.000000 0.000000 0.000000 0.079372
#
#
# Mechanical properties :
#
#
# Convention : Reuss Voigt Hill
#
# Bulk Modulus (GPa) = 55.25844 66.69396 60.97620
# Shear Modulus (GPa) = 30.69489 48.96041 39.82765
#
# Velocity S-wave (km/s) = 3.51150 4.43489 3.99993
# Velocity P-wave (km/s) = 6.21604 7.28124 6.76962
#
# Compressibility (1/GPa) = 0.01809678
#
# Stress axis : x y z
#
# Youngs Moduli (GPa) = 85.19888 68.69184 150.37697
#
# Poissons Ratio (x) = 0.15328 0.45291
# Poissons Ratio (y) = 0.19012 0.32794
# Poissons Ratio (z) = 0.25660 0.14980
#
# Static dielectric constant tensor:
#      x y z
#    x 2.112200 0.000000 0.000000 
#    y 0.000000 0.973970 0.000000 
#    z 0.000000 0.000000 2.088310 
# 
# From -- ./inp_files/30418.got.cif
#   From: 2010.05.17/outbox.cif.g08.bks.cpg/sg20_16_cif.got.tgz:30418.got - 2010.06.03 22:52:26.
