data_PCOD9318145
_publ_section_title
;
Structure prediction by ZEFSAII (Michael W. Deem and Ramdas Pophale) SiO2 
 PCOD9318145
Probable space group: C 2 2 21
;
_chemical_formula_sum "Si O2"
_cell_formula_units_Z 64
_cell_length_a 10.920237
_cell_length_b 17.650761
_cell_length_c 17.239214
_cell_angle_alpha 90.000000
_cell_angle_beta 90.000000
_cell_angle_gamma 90.000000
_cell_volume 3322.867003
_symmetry_space_group_name_H-M "C 2 2 21"
_symmetry_group_IT_number 20
_symmetry_cell_setting 'orthorhombic'
loop_
_space_group_symop_operation_xyz
x,y,z
-x,-y,1/2+z
x,-y,-z
-x,y,1/2-z
1/2+x,1/2+y,z
1/2-x,1/2-y,1/2+z
1/2+x,1/2-y,-z
1/2-x,1/2+y,1/2-z
loop_
_atom_site_type_symbol
_atom_site_label
_atom_site_fract_x
_atom_site_fract_y
_atom_site_fract_z
Si Si1 0.148003 0.214435 0.654127
Si Si2 0.390160 0.873705 0.191114
Si Si3 0.936258 0.410040 0.014063
Si Si4 0.197609 0.158451 0.072302
Si Si5 0.857983 0.074324 0.769559
Si Si6 0.758273 0.730890 0.310424
Si Si7 0.575073 0.236470 0.047557
Si Si8 0.134109 0.097872 0.233801
O O1 0.251532 0.267013 0.616888
O O2 0.171956 0.124698 0.654836
O O3 0.149253 0.234574 0.745816
O O4 0.029369 0.235732 0.606392
O O5 0.500000 0.892469 0.250000
O O6 0.424582 0.899268 0.105770
O O7 0.256657 0.908029 0.212820
O O8 0.360995 0.784138 0.192949
O O9 0.960416 0.500000 0.000000
O O10 0.807877 0.383294 0.973662
O O11 0.033264 0.345689 0.984917
O O12 0.154121 0.102933 0.141157
O O13 0.099820 0.196783 0.014546
O O14 0.000000 0.095056 0.750000
O O15 0.860465 0.984508 0.771188
O O16 0.806540 0.729948 0.397544
O O17 0.731643 0.648640 0.277928
O O18 0.000000 0.129735 0.250000
#
# Coordination Sequence:
#
# PCOD9318145 Si02
#       8
#     8   8   8   8   8   8   8   8
#     4   9  20  37  62  87 118 164 219 262 307 393
#     4  11  23  39  68  96 126 176 227 274 332 406
#     4  11  25  42  62  95 140 173 220 284 343 395
#     4  10  22  40  61  91 128 168 217 263 341 398
#     4  10  21  39  63  93 126 163 220 271 329 386
#     4  10  20  38  61  89 120 168 219 267 322 395
#     4  11  22  38  64  91 124 174 216 265 327 403
#     4  10  22  37  63  90 126 162 216 279 324 394
#
# _framework density 19.260475
#
# number of rings (size 3 to 8) (size 9 to 14) (size 15 to 20)
#    0.000    1.750    1.250    3.000    7.000    1.000 
#    0.000    0.000    0.000    1.500    0.000    0.000 
#    0.000    0.000    0.000    0.000    0.000    0.000 
#
# Total GULP energy -178217.251328 kJ/mol
# GULP energy per Si atom -5569.289104 kJ/mol
# Density = 1.921664 g / cm^3
# Si number density = 19.260475 Si / 1000 Ang^3
#
#
#
# Elastic Constant Matrix: (Units=GPa)
#
#
# Indices 1 2 3 4 5 6 
#
# 1 49.4042 11.5953 14.9234 0.0000 0.0000 0.0000
# 2 11.5953 107.6780 13.7318 0.0000 0.0000 0.0000
# 3 14.9234 13.7318 77.8964 0.0000 0.0000 0.0000
# 4 0.0000 0.0000 0.0000 14.1098 0.0000 0.0000
# 5 0.0000 0.0000 0.0000 0.0000 17.1788 0.0000
# 6 0.0000 0.0000 0.0000 0.0000 0.0000 26.3003
#
#
#
# Elastic Compliance Matrix: (Units=1/GPa)
#
#
# Indices 1 2 3 4 5 6 
#
# 1 0.021843 -0.001860 -0.003857 0.000000 0.000000 0.000000
# 2 -0.001860 0.009659 -0.001346 0.000000 0.000000 0.000000
# 3 -0.003857 -0.001346 0.013814 0.000000 0.000000 0.000000
# 4 0.000000 0.000000 0.000000 0.070873 0.000000 0.000000
# 5 0.000000 0.000000 0.000000 0.000000 0.058211 0.000000
# 6 0.000000 0.000000 0.000000 0.000000 0.000000 0.038022
#
#
# Mechanical properties :
#
#
# Convention : Reuss Voigt Hill
#
# Bulk Modulus (GPa) = 32.06273 35.05331 33.55802
# Shear Modulus (GPa) = 21.10193 24.49964 22.80079
#
# Velocity S-wave (km/s) = 3.31359 3.57040 3.44439
# Velocity P-wave (km/s) = 5.59668 5.93601 5.76884
#
# Compressibility (1/GPa) = 0.03118886
#
# Stress axis : x y z
#
# Youngs Moduli (GPa) = 45.78168 103.53076 72.39160
#
# Poissons Ratio (x) = 0.19260 0.27919
# Poissons Ratio (y) = 0.08517 0.09746
# Poissons Ratio (z) = 0.17657 0.13938
#
# Static dielectric constant tensor:
#      x y z
#    x 1.730640 0.000000 0.000000 
#    y 0.000000 1.726700 0.000000 
#    z 0.000000 0.000000 1.668760 
# 
# From -- ./inp_files/20284.got.cif
#   From: 2010.05.17/outbox.cif.g08.bks.cpg/sg20_11_cif.got.tgz:20284.got - 2010.06.03 22:52:26.
