data_PCOD9318616
_publ_section_title
;
Structure prediction by ZEFSAII (Michael W. Deem and Ramdas Pophale) SiO2 
 PCOD9318616
Probable space group: C 2 2 21
;
_chemical_formula_sum "Si O2"
_cell_formula_units_Z 60
_cell_length_a 17.542537
_cell_length_b 18.652609
_cell_length_c 7.738840
_cell_angle_alpha 90.000000
_cell_angle_beta 90.000000
_cell_angle_gamma 90.000000
_cell_volume 2532.257438
_symmetry_space_group_name_H-M "C 2 2 21"
_symmetry_group_IT_number 20
_symmetry_cell_setting 'orthorhombic'
loop_
_space_group_symop_operation_xyz
x,y,z
-x,-y,1/2+z
x,-y,-z
-x,y,1/2-z
1/2+x,1/2+y,z
1/2-x,1/2-y,1/2+z
1/2+x,1/2-y,-z
1/2-x,1/2+y,1/2-z
loop_
_atom_site_type_symbol
_atom_site_label
_atom_site_fract_x
_atom_site_fract_y
_atom_site_fract_z
Si Si1 0.501538 0.582914 0.457606
Si Si2 0.046982 0.341503 0.926079
Si Si3 0.881559 0.192580 0.478927
Si Si4 0.788800 0.596210 0.352932
Si Si5 0.163297 0.535894 0.688019
Si Si6 0.000000 0.425510 0.250000
Si Si7 0.858273 0.177516 0.064901
Si Si8 0.289156 0.825035 0.017073
O O1 0.510707 0.500000 0.500000
O O2 0.500000 0.587486 0.250000
O O3 0.423683 0.618492 0.525972
O O4 0.571470 0.633679 0.512270
O O5 0.128754 0.381829 0.924799
O O6 0.000000 0.349027 0.750000
O O7 0.066818 0.259152 0.966065
O O8 0.999275 0.376279 0.080893
O O9 0.872686 0.191240 0.270289
O O10 0.797168 0.199328 0.556847
O O11 0.785268 0.511553 0.313675
O O12 0.717708 0.629667 0.452156
O O13 0.786277 0.633642 0.163996
O O14 0.169285 0.500000 0.500000
O O15 0.183340 0.619031 0.662094
O O16 0.076285 0.528498 0.747958
O O17 0.842420 0.256373 0.993654
#
# Coordination Sequence:
#
# PCOD9318616 Si02
#       8
#     8   8   8   8   8   4   8   8
#     4  10  24  44  67  99 139 182 235 293 366 429
#     4  12  26  44  70 107 141 187 240 292 355 434
#     4  10  23  40  70  99 138 184 231 299 356 425
#     4  10  23  42  64 102 139 177 241 296 348 436
#     4  10  23  41  68 100 137 192 232 293 364 433
#     4  12  28  44  70  98 150 186 230 296 368 426
#     4  10  21  44  70  97 141 185 236 299 360 432
#     4  10  20  42  68  99 137 186 239 292 367 426
#
# _framework density 23.694274
#
# number of rings (size 3 to 8) (size 9 to 14) (size 15 to 20)
#    0.000    1.600    1.333    2.400    9.333    4.267 
#    2.400    0.000    0.000    0.000    0.000    0.000 
#    0.000    0.000    0.000    0.000    0.000    0.000 
#
# Total GULP energy -168038.914314 kJ/mol
# GULP energy per Si atom -5601.297144 kJ/mol
# Density = 2.364034 g / cm^3
# Si number density = 23.694274 Si / 1000 Ang^3
#
#
#
# Elastic Constant Matrix: (Units=GPa)
#
#
# Indices 1 2 3 4 5 6 
#
# 1 55.1113 6.3730 8.7239 0.0000 0.0000 0.0000
# 2 6.3730 112.5417 1.1300 0.0000 0.0000 0.0000
# 3 8.7239 1.1300 78.0271 0.0000 0.0000 0.0000
# 4 0.0000 0.0000 0.0000 9.6537 0.0000 0.0000
# 5 0.0000 0.0000 0.0000 0.0000 22.5743 0.0000
# 6 0.0000 0.0000 0.0000 0.0000 0.0000 48.9154
#
#
#
# Elastic Compliance Matrix: (Units=1/GPa)
#
#
# Indices 1 2 3 4 5 6 
#
# 1 0.018591 -0.001032 -0.002064 0.000000 0.000000 0.000000
# 2 -0.001032 0.008944 -0.000014 0.000000 0.000000 0.000000
# 3 -0.002064 -0.000014 0.013047 0.000000 0.000000 0.000000
# 4 0.000000 0.000000 0.000000 0.103587 0.000000 0.000000
# 5 0.000000 0.000000 0.000000 0.000000 0.044298 0.000000
# 6 0.000000 0.000000 0.000000 0.000000 0.000000 0.020443
#
#
# Mechanical properties :
#
#
# Convention : Reuss Voigt Hill
#
# Bulk Modulus (GPa) = 29.10143 30.90378 30.00261
# Shear Modulus (GPa) = 22.06679 31.52556 26.79617
#
# Velocity S-wave (km/s) = 3.05505 3.65158 3.36655
# Velocity P-wave (km/s) = 4.97526 5.55425 5.27271
#
# Compressibility (1/GPa) = 0.03436257
#
# Stress axis : x y z
#
# Youngs Moduli (GPa) = 53.78919 111.80459 76.64602
#
# Poissons Ratio (x) = 0.11539 0.15817
# Poissons Ratio (y) = 0.05551 0.00108
# Poissons Ratio (z) = 0.11100 0.00158
#
# Static dielectric constant tensor:
#      x y z
#    x 1.887430 0.000000 0.000000 
#    y 0.000000 1.883970 0.000000 
#    z 0.000000 0.000000 1.920820 
# 
# From -- ./inp_files/9586.got.cif
#   From: 2010.05.17/outbox.cif.g08.bks.cpg/sg20_5_cif.got.tgz:9586.got - 2010.06.03 22:52:26.
