data_PCOD9318884
_publ_section_title
;
Structure prediction by ZEFSAII (Michael W. Deem and Ramdas Pophale) SiO2 
 PCOD9318884
Probable space group: C 2 2 21
;
_chemical_formula_sum "Si O2"
_cell_formula_units_Z 44
_cell_length_a 20.505583
_cell_length_b 14.395969
_cell_length_c 7.667700
_cell_angle_alpha 90.000000
_cell_angle_beta 90.000000
_cell_angle_gamma 90.000000
_cell_volume 2263.487689
_symmetry_space_group_name_H-M "C 2 2 21"
_symmetry_group_IT_number 20
_symmetry_cell_setting 'orthorhombic'
loop_
_space_group_symop_operation_xyz
x,y,z
-x,-y,1/2+z
x,-y,-z
-x,y,1/2-z
1/2+x,1/2+y,z
1/2-x,1/2-y,1/2+z
1/2+x,1/2-y,-z
1/2-x,1/2+y,1/2-z
loop_
_atom_site_type_symbol
_atom_site_label
_atom_site_fract_x
_atom_site_fract_y
_atom_site_fract_z
Si Si1 0.458125 0.409430 0.082274
Si Si2 0.500000 0.689087 0.250000
Si Si3 0.237669 0.618931 0.320497
Si Si4 0.640615 0.747113 0.161668
Si Si5 0.146595 0.786162 0.247903
Si Si6 0.268109 0.910418 0.238357
O O1 0.500000 0.438187 0.250000
O O2 0.414894 0.323922 0.148654
O O3 0.422910 0.500000 0.000000
O O4 0.501525 0.372203 0.924281
O O5 0.569515 0.741620 0.248550
O O6 0.304018 0.674339 0.268847
O O7 0.176900 0.686516 0.289760
O O8 0.236509 0.601731 0.528326
O O9 0.230944 0.519945 0.227134
O O10 0.672808 0.848439 0.188139
O O11 0.634067 0.719135 0.958840
O O12 0.202425 0.860168 0.298942
#
# Coordination Sequence:
#
# PCOD9318884 Si02
#       6
#     8   4   8   8   8   8
#     4  12  25  41  60  91 126 169 208 248 313 382
#     4  12  24  40  64  84 132 166 202 254 310 382
#     4   9  19  37  62  87 124 161 208 268 311 367
#     4  10  21  37  61  91 124 167 206 258 321 368
#     4  10  21  39  59  92 126 157 211 265 310 368
#     4   9  19  37  62  89 120 163 211 260 312 370
#
# _framework density 19.439028
#
# number of rings (size 3 to 8) (size 9 to 14) (size 15 to 20)
#    0.000    1.818    2.727    1.091    2.545    2.182 
#    0.000    0.000    2.000    0.000    0.000    0.000 
#    0.000    0.000    0.000    0.000    0.000    0.000 
#
# Total GULP energy -122688.505334 kJ/mol
# GULP energy per Si atom -5576.750242 kJ/mol
# Density = 1.939478 g / cm^3
# Si number density = 19.439028 Si / 1000 Ang^3
#
#
#
# Elastic Constant Matrix: (Units=GPa)
#
#
# Indices 1 2 3 4 5 6 
#
# 1 90.1536 52.4308 26.4347 0.0000 0.0000 0.0000
# 2 52.4308 154.9876 24.3073 0.0000 0.0000 0.0000
# 3 26.4347 24.3073 70.4611 0.0000 0.0000 0.0000
# 4 0.0000 0.0000 0.0000 30.4892 0.0000 0.0000
# 5 0.0000 0.0000 0.0000 0.0000 23.9214 0.0000
# 6 0.0000 0.0000 0.0000 0.0000 0.0000 10.3124
#
#
#
# Elastic Compliance Matrix: (Units=1/GPa)
#
#
# Indices 1 2 3 4 5 6 
#
# 1 0.014828 -0.004381 -0.004052 0.000000 0.000000 0.000000
# 2 -0.004381 0.008115 -0.001156 0.000000 0.000000 0.000000
# 3 -0.004052 -0.001156 0.016111 0.000000 0.000000 0.000000
# 4 0.000000 0.000000 0.000000 0.032799 0.000000 0.000000
# 5 0.000000 0.000000 0.000000 0.000000 0.041804 0.000000
# 6 0.000000 0.000000 0.000000 0.000000 0.000000 0.096971
#
#
# Mechanical properties :
#
#
# Convention : Reuss Voigt Hill
#
# Bulk Modulus (GPa) = 50.30845 57.99422 54.15134
# Shear Modulus (GPa) = 21.14788 27.10655 24.12721
#
# Velocity S-wave (km/s) = 3.30192 3.73827 3.52685
# Velocity P-wave (km/s) = 6.36186 6.96646 6.67101
#
# Compressibility (1/GPa) = 0.01987737
#
# Stress axis : x y z
#
# Youngs Moduli (GPa) = 67.44040 123.22264 62.06891
#
# Poissons Ratio (x) = 0.53980 0.25149
# Poissons Ratio (y) = 0.29544 0.07176
# Poissons Ratio (z) = 0.27325 0.14246
#
# Static dielectric constant tensor:
#      x y z
#    x 1.685790 0.000000 0.000000 
#    y 0.000000 1.689520 0.000000 
#    z 0.000000 0.000000 1.723550 
# 
# From -- ./inp_files/9290.got.cif
#   From: 2010.05.17/outbox.cif.g08.bks.cpg/sg20_5_cif.got.tgz:9290.got - 2010.06.03 22:52:26.
