data_PCOD9318410
_publ_section_title
;
Structure prediction by ZEFSAII (Michael W. Deem and Ramdas Pophale) SiO2 
 PCOD9318410
Probable space group: C 2 2 21
;
_chemical_formula_sum "Si O2"
_cell_formula_units_Z 44
_cell_length_a 17.864711
_cell_length_b 6.538562
_cell_length_c 20.790002
_cell_angle_alpha 90.000000
_cell_angle_beta 90.000000
_cell_angle_gamma 90.000000
_cell_volume 2428.470165
_symmetry_space_group_name_H-M "C 2 2 21"
_symmetry_group_IT_number 20
_symmetry_cell_setting 'orthorhombic'
loop_
_space_group_symop_operation_xyz
x,y,z
-x,-y,1/2+z
x,-y,-z
-x,y,1/2-z
1/2+x,1/2+y,z
1/2-x,1/2-y,1/2+z
1/2+x,1/2-y,-z
1/2-x,1/2+y,1/2-z
loop_
_atom_site_type_symbol
_atom_site_label
_atom_site_fract_x
_atom_site_fract_y
_atom_site_fract_z
Si Si1 0.065399 0.062861 0.208612
Si Si2 0.654365 0.124048 0.701520
Si Si3 0.179902 0.294897 0.812027
Si Si4 0.979864 0.000000 0.500000
Si Si5 0.472598 0.812788 0.102669
Si Si6 0.902115 0.620436 0.437486
O O1 0.108292 0.221830 0.253511
O O2 0.000000 0.956245 0.250000
O O3 0.023874 0.189811 0.153716
O O4 0.125010 0.898344 0.187542
O O5 0.734948 0.220196 0.686447
O O6 0.603230 0.113306 0.637479
O O7 0.666134 0.924714 0.746670
O O8 0.154404 0.404736 0.877834
O O9 0.030032 0.848006 0.543678
O O10 0.926106 0.849618 0.458277
O O11 0.520726 0.007684 0.081508
O O12 0.872791 0.500000 0.500000
#
# Coordination Sequence:
#
# PCOD9318410 Si02
#       6
#     8   8   8   4   8   8
#     4  10  21  35  59  89 116 156 200 248 305 357
#     4  11  24  37  58  93 127 151 201 256 312 358
#     4  12  22  39  59  89 125 163 193 259 311 362
#     4  10  20  40  64  88 118 162 210 252 296 354
#     4  10  21  39  62  90 117 158 211 251 294 367
#     4  10  22  38  65  85 115 161 214 250 295 368
#
# _framework density 18.118400999999999
#
# number of rings (size 3 to 8) (size 9 to 14) (size 15 to 20)
#    0.000    1.455    5.455    0.000    2.545    0.000 
#    1.636    0.000    6.000    0.000    0.000    0.000 
#    0.000    0.000    0.000    0.000    0.000    0.000 
#
# Total GULP energy -122626.377359 kJ/mol
# GULP energy per Si atom -5573.926244 kJ/mol
# Density = 1.807716 g / cm^3
# Si number density = 18.118401 Si / 1000 Ang^3
#
#
#
# Elastic Constant Matrix: (Units=GPa)
#
#
# Indices 1 2 3 4 5 6 
#
# 1 101.2602 30.5766 43.3026 0.0000 0.0000 0.0000
# 2 30.5766 65.5569 31.9270 0.0000 0.0000 0.0000
# 3 43.3026 31.9270 94.3718 0.0000 0.0000 0.0000
# 4 0.0000 0.0000 0.0000 141.3193 0.0000 0.0000
# 5 0.0000 0.0000 0.0000 0.0000 -850.5824 0.0000
# 6 0.0000 0.0000 0.0000 0.0000 0.0000 29.8651
#
#
#
# Elastic Compliance Matrix: (Units=1/GPa)
#
#
# Indices 1 2 3 4 5 6 
#
# 1 0.013028 -0.003789 -0.004696 0.000000 0.000000 0.000000
# 2 -0.003789 0.019365 -0.004813 0.000000 0.000000 0.000000
# 3 -0.004696 -0.004813 0.014379 0.000000 0.000000 0.000000
# 4 0.000000 0.000000 0.000000 0.007076 0.000000 0.000000
# 5 0.000000 0.000000 0.000000 0.000000 -0.001176 0.000000
# 6 0.000000 0.000000 0.000000 0.000000 0.000000 0.033484
#
#
# Mechanical properties :
#
#
# Convention : Reuss Voigt Hill
#
# Bulk Modulus (GPa) = 49.56277 52.53346 51.04812
# Shear Modulus (GPa) = 41.84867 -125.52073 -41.83603
#
# Velocity S-wave (km/s) = 4.81118 -8.33237 -4.81046
# Velocity P-wave (km/s) = 7.63398 7.96955 1.61805
#
# Compressibility (1/GPa) = 0.02017644
#
# Stress axis : x y z
#
# Youngs Moduli (GPa) = 76.75815 51.63910 69.54468
#
# Poissons Ratio (x) = 0.19568 0.32657
# Poissons Ratio (y) = 0.29087 0.33469
# Poissons Ratio (z) = 0.36045 0.24852
#
# Static dielectric constant tensor:
#      x y z
#    x 1.510400 0.000000 0.000000 
#    y 0.000000 2.351050 0.000000 
#    z 0.000000 0.000000 1.678340 
# 
# From -- ./inp_files/28324.got.cif
#   From: 2010.05.17/outbox.cif.g08.bks.cpg/sg20_15_cif.got.tgz:28324.got - 2010.06.03 22:52:26.
