data_PCOD9318001
_publ_section_title
;
Structure prediction by ZEFSAII (Michael W. Deem and Ramdas Pophale) SiO2 
 PCOD9318001
Probable space group: C 2 2 21
;
_chemical_formula_sum "Si O2"
_cell_formula_units_Z 48
_cell_length_a 9.346194
_cell_length_b 15.692483
_cell_length_c 13.132166
_cell_angle_alpha 90.000000
_cell_angle_beta 90.000000
_cell_angle_gamma 90.000000
_cell_volume 1926.029001
_symmetry_space_group_name_H-M "C 2 2 21"
_symmetry_group_IT_number 20
_symmetry_cell_setting 'orthorhombic'
loop_
_space_group_symop_operation_xyz
x,y,z
-x,-y,1/2+z
x,-y,-z
-x,y,1/2-z
1/2+x,1/2+y,z
1/2-x,1/2-y,1/2+z
1/2+x,1/2-y,-z
1/2-x,1/2+y,1/2-z
loop_
_atom_site_type_symbol
_atom_site_label
_atom_site_fract_x
_atom_site_fract_y
_atom_site_fract_z
Si Si1 0.717594 0.913163 0.210447
Si Si2 0.785866 0.853728 0.007813
Si Si3 0.500000 0.812851 0.750000
Si Si4 0.266741 0.293168 0.381371
Si Si5 0.080609 0.911884 0.964225
Si Si6 0.477209 0.951810 0.596863
Si Si7 0.500000 0.472784 0.750000
O O1 0.689113 0.864599 0.315181
O O2 0.600067 0.978229 0.168003
O O3 0.739461 0.841185 0.123635
O O4 0.864350 0.966803 0.224891
O O5 0.830892 0.776742 0.935035
O O6 0.655275 0.899959 0.952466
O O7 0.923648 0.911668 0.013755
O O8 0.615725 0.753545 0.808115
O O9 0.559206 0.880369 0.664101
O O10 0.341879 0.335513 0.479023
O O11 0.053702 0.915993 0.844259
O O12 0.149847 0.000000 0.000000
O O13 0.544887 0.000000 0.500000
#
# Coordination Sequence:
#
# PCOD9318001 Si02
#       7
#     8   8   4   8   8   8   4
#     4  11  19  38  62  88 116 159 204 251 307 365
#     4  10  20  37  60  85 124 161 196 249 320 370
#     4  10  21  40  62  87 122 168 202 246 317 370
#     4  11  24  38  60  94 127 158 201 260 317 371
#     4  12  21  39  62  91 116 162 214 251 295 375
#     4   9  19  38  65  88 113 165 216 244 296 382
#     4  12  21  34  70  89 116 156 214 260 291 352
#
# _framework density 24.921741000000001
#
# number of rings (size 3 to 8) (size 9 to 14) (size 15 to 20)
#    0.000    1.333    5.000    2.000    0.000    1.333 
#    3.000    6.667    0.000    0.000    0.000    0.000 
#    0.000    0.000    0.000    0.000    0.000    0.000 
#
# Total GULP energy -134142.472758 kJ/mol
# GULP energy per Si atom -5589.269698 kJ/mol
# Density = 2.486502 g / cm^3
# Si number density = 24.921741 Si / 1000 Ang^3
#
#
#
# Elastic Constant Matrix: (Units=GPa)
#
#
# Indices 1 2 3 4 5 6 
#
# 1 54.0669 17.5961 10.9048 0.0000 0.0000 0.0000
# 2 17.5961 97.5664 65.7212 0.0000 0.0000 0.0000
# 3 10.9048 65.7212 161.9767 0.0000 0.0000 0.0000
# 4 0.0000 0.0000 0.0000 70.3990 0.0000 0.0000
# 5 0.0000 0.0000 0.0000 0.0000 19.8906 0.0000
# 6 0.0000 0.0000 0.0000 0.0000 0.0000 13.5814
#
#
#
# Elastic Compliance Matrix: (Units=1/GPa)
#
#
# Indices 1 2 3 4 5 6 
#
# 1 0.019652 -0.003651 0.000158 0.000000 0.000000 0.000000
# 2 -0.003651 0.014783 -0.005752 0.000000 0.000000 0.000000
# 3 0.000158 -0.005752 0.008497 0.000000 0.000000 0.000000
# 4 0.000000 0.000000 0.000000 0.014205 0.000000 0.000000
# 5 0.000000 0.000000 0.000000 0.000000 0.050275 0.000000
# 6 0.000000 0.000000 0.000000 0.000000 0.000000 0.073630
#
#
# Mechanical properties :
#
#
# Convention : Reuss Voigt Hill
#
# Bulk Modulus (GPa) = 40.91324 55.78380 48.34852
# Shear Modulus (GPa) = 24.07570 35.40005 29.73787
#
# Velocity S-wave (km/s) = 3.11151 3.77297 3.45809
# Velocity P-wave (km/s) = 5.41858 6.43526 5.94868
#
# Compressibility (1/GPa) = 0.02444196
#
# Stress axis : x y z
#
# Youngs Moduli (GPa) = 50.88579 67.64740 117.68892
#
# Poissons Ratio (x) = 0.24697 -0.01863
# Poissons Ratio (y) = 0.18578 0.67696
# Poissons Ratio (z) = -0.00805 0.38912
#
# Static dielectric constant tensor:
#      x y z
#    x 1.953150 0.000000 0.000000 
#    y 0.000000 2.465830 0.000000 
#    z 0.000000 0.000000 1.957410 
# 
# From -- ./inp_files/20002.got.cif
#   From: 2010.05.17/outbox.cif.g08.bks.cpg/sg20_11_cif.got.tgz:20002.got - 2010.06.03 22:52:26.
