data_PCOD9318493
_publ_section_title
;
Structure prediction by ZEFSAII (Michael W. Deem and Ramdas Pophale) SiO2 
 PCOD9318493
Probable space group: C 2 2 21
;
_chemical_formula_sum "Si O2"
_cell_formula_units_Z 44
_cell_length_a 10.729763
_cell_length_b 14.702910
_cell_length_c 13.833985
_cell_angle_alpha 90.000000
_cell_angle_beta 90.000000
_cell_angle_gamma 90.000000
_cell_volume 2182.432039
_symmetry_space_group_name_H-M "C 2 2 21"
_symmetry_group_IT_number 20
_symmetry_cell_setting 'orthorhombic'
loop_
_space_group_symop_operation_xyz
x,y,z
-x,-y,1/2+z
x,-y,-z
-x,y,1/2-z
1/2+x,1/2+y,z
1/2-x,1/2-y,1/2+z
1/2+x,1/2-y,-z
1/2-x,1/2+y,1/2-z
loop_
_atom_site_type_symbol
_atom_site_label
_atom_site_fract_x
_atom_site_fract_y
_atom_site_fract_z
Si Si1 0.834933 0.352436 0.705348
Si Si2 0.594380 0.686568 0.417529
Si Si3 0.000000 0.693101 0.750000
Si Si4 0.343905 0.500000 0.000000
Si Si5 0.500000 0.394327 0.250000
Si Si6 0.435563 0.764523 0.880941
Si Si7 0.725983 0.946025 0.201573
O O1 0.723146 0.322948 0.638352
O O2 0.833880 0.290289 0.800952
O O3 0.826540 0.456804 0.732591
O O4 0.958652 0.337677 0.641972
O O5 0.507293 0.739337 0.342322
O O6 0.574586 0.581753 0.452745
O O7 0.605816 0.749689 0.511515
O O8 0.876373 0.629399 0.732905
O O9 0.258432 0.455261 0.085575
O O10 0.504121 0.329203 0.343405
O O11 0.365032 0.440229 0.247553
#
# Coordination Sequence:
#
# PCOD9318493 Si02
#       7
#     8   8   4   4   4   8   8
#     4   9  22  40  64  96 132 184 223 283 348 414
#     4  11  24  40  68  96 134 178 235 280 347 415
#     4  12  26  42  70 112 136 172 242 302 328 432
#     4  10  24  44  68  94 140 198 218 288 358 420
#     4  10  20  40  72  88 132 190 220 270 336 424
#     4  10  20  41  66  91 133 184 224 278 358 405
#     4  11  23  45  69 101 143 178 231 283 355 401
#
# _framework density 20.160993999999999
#
# number of rings (size 3 to 8) (size 9 to 14) (size 15 to 20)
#    0.000    1.818    1.818    3.273    5.091    2.909 
#    0.000    0.000    0.000    0.000    0.000    0.000 
#    0.000    0.000    0.000    0.000    0.000    0.000 
#
# Total GULP energy -122526.608854 kJ/mol
# GULP energy per Si atom -5569.391312 kJ/mol
# Density = 2.011511 g / cm^3
# Si number density = 20.160994 Si / 1000 Ang^3
#
#
#
# Elastic Constant Matrix: (Units=GPa)
#
#
# Indices 1 2 3 4 5 6 
#
# 1 96.7469 66.3871 24.1257 0.0000 0.0000 0.0000
# 2 66.3871 124.8763 57.3000 0.0000 0.0000 0.0000
# 3 24.1257 57.3000 131.3093 0.0000 0.0000 0.0000
# 4 0.0000 0.0000 0.0000 17.1025 0.0000 0.0000
# 5 0.0000 0.0000 0.0000 0.0000 21.4430 0.0000
# 6 0.0000 0.0000 0.0000 0.0000 0.0000 22.9220
#
#
#
# Elastic Compliance Matrix: (Units=1/GPa)
#
#
# Indices 1 2 3 4 5 6 
#
# 1 0.016374 -0.009158 0.000988 0.000000 0.000000 0.000000
# 2 -0.009158 0.015135 -0.004922 0.000000 0.000000 0.000000
# 3 0.000988 -0.004922 0.009582 0.000000 0.000000 0.000000
# 4 0.000000 0.000000 0.000000 0.058471 0.000000 0.000000
# 5 0.000000 0.000000 0.000000 0.000000 0.046635 0.000000
# 6 0.000000 0.000000 0.000000 0.000000 0.000000 0.043626
#
#
# Mechanical properties :
#
#
# Convention : Reuss Voigt Hill
#
# Bulk Modulus (GPa) = 67.08344 72.06202 69.57273
# Shear Modulus (GPa) = 22.62679 25.96814 24.29747
#
# Velocity S-wave (km/s) = 3.35372 3.59282 3.47533
# Velocity P-wave (km/s) = 6.95289 7.28231 7.11950
#
# Compressibility (1/GPa) = 0.01490681
#
# Stress axis : x y z
#
# Youngs Moduli (GPa) = 61.07161 66.07166 104.36370
#
# Poissons Ratio (x) = 0.60510 -0.10311
# Poissons Ratio (y) = 0.55931 0.51367
# Poissons Ratio (z) = -0.06034 0.32520
#
# Static dielectric constant tensor:
#      x y z
#    x 1.769380 0.000000 0.000000 
#    y 0.000000 1.784400 0.000000 
#    z 0.000000 0.000000 1.779110 
# 
# From -- ./inp_files/19898.got.cif
#   From: 2010.05.17/outbox.cif.g08.bks.cpg/sg20_10_cif.got.tgz:19898.got - 2010.06.03 22:52:26.
