data_PCOD9318542
_publ_section_title
;
Structure prediction by ZEFSAII (Michael W. Deem and Ramdas Pophale) SiO2 
 PCOD9318542
Probable space group: C 2 2 21
;
_chemical_formula_sum "Si O2"
_cell_formula_units_Z 64
_cell_length_a 13.312820
_cell_length_b 14.089824
_cell_length_c 18.487995
_cell_angle_alpha 90.000000
_cell_angle_beta 90.000000
_cell_angle_gamma 90.000000
_cell_volume 3467.891037
_symmetry_space_group_name_H-M "C 2 2 21"
_symmetry_group_IT_number 20
_symmetry_cell_setting 'orthorhombic'
loop_
_space_group_symop_operation_xyz
x,y,z
-x,-y,1/2+z
x,-y,-z
-x,y,1/2-z
1/2+x,1/2+y,z
1/2-x,1/2-y,1/2+z
1/2+x,1/2-y,-z
1/2-x,1/2+y,1/2-z
loop_
_atom_site_type_symbol
_atom_site_label
_atom_site_fract_x
_atom_site_fract_y
_atom_site_fract_z
Si Si1 0.361680 0.700737 0.922483
Si Si2 0.117571 0.499556 0.766378
Si Si3 0.047237 0.912545 0.828408
Si Si4 0.041545 0.135852 0.830261
Si Si5 0.229942 0.677837 0.697182
Si Si6 0.232244 0.336372 0.685605
Si Si7 0.233167 0.507250 0.914358
Si Si8 0.874516 0.822103 0.909186
O O1 0.470789 0.687870 0.886954
O O2 0.312981 0.793615 0.887355
O O3 0.296379 0.605148 0.905796
O O4 0.369003 0.706310 0.007942
O O5 0.177672 0.582280 0.724407
O O6 0.157071 0.401608 0.731543
O O7 0.148544 0.504507 0.851519
O O8 0.000000 0.510084 0.750000
O O9 0.164753 0.892087 0.827417
O O10 0.000000 0.889257 0.750000
O O11 0.986232 0.851307 0.885944
O O12 0.028927 0.023407 0.841432
O O13 0.158716 0.159392 0.833286
O O14 0.000000 0.158451 0.750000
O O15 0.242184 0.745254 0.766231
O O16 0.165385 0.737419 0.640295
O O17 0.305501 0.416606 0.899044
O O18 0.202403 0.500000 0.000000
#
# Coordination Sequence:
#
# PCOD9318542 Si02
#       8
#     8   8   8   8   8   8   8   8
#     4  11  24  41  66  98 129 168 215 268 329 384
#     4  12  26  43  63  99 133 173 215 263 321 383
#     4  11  21  38  66  97 126 162 214 274 321 372
#     4  11  21  38  66  97 126 162 214 274 321 372
#     4  12  24  41  65  96 132 169 217 264 315 390
#     4  12  24  41  65  96 132 169 217 264 315 390
#     4  10  20  41  67  97 129 161 214 272 322 384
#     4  11  24  41  66  98 129 168 215 268 329 384
#
# _framework density 18.455020999999999
#
# number of rings (size 3 to 8) (size 9 to 14) (size 15 to 20)
#    0.000    0.750    7.500    0.000    3.500    1.000 
#    0.000    4.375    0.000    0.000    0.000    0.000 
#    0.000    0.000    0.000    0.000    0.000    0.000 
#
# Total GULP energy -178812.850750 kJ/mol
# GULP energy per Si atom -5587.901586 kJ/mol
# Density = 1.841302 g / cm^3
# Si number density = 18.455021 Si / 1000 Ang^3
#
#
#
# Elastic Constant Matrix: (Units=GPa)
#
#
# Indices 1 2 3 4 5 6 
#
# 1 88.9909 -6.7353 12.4773 0.0000 0.0000 0.0000
# 2 -6.7353 39.6958 8.5117 0.0000 0.0000 0.0000
# 3 12.4773 8.5117 61.2533 0.0000 0.0000 0.0000
# 4 0.0000 0.0000 0.0000 35.9100 0.0000 0.0000
# 5 0.0000 0.0000 0.0000 0.0000 25.1850 0.0000
# 6 0.0000 0.0000 0.0000 0.0000 0.0000 12.6093
#
#
#
# Elastic Compliance Matrix: (Units=1/GPa)
#
#
# Indices 1 2 3 4 5 6 
#
# 1 0.011822 0.002600 -0.002769 0.000000 0.000000 0.000000
# 2 0.002600 0.026537 -0.004217 0.000000 0.000000 0.000000
# 3 -0.002769 -0.004217 0.017476 0.000000 0.000000 0.000000
# 4 0.000000 0.000000 0.000000 0.027847 0.000000 0.000000
# 5 0.000000 0.000000 0.000000 0.000000 0.039706 0.000000
# 6 0.000000 0.000000 0.000000 0.000000 0.000000 0.079307
#
#
# Mechanical properties :
#
#
# Convention : Reuss Voigt Hill
#
# Bulk Modulus (GPa) = 21.24891 24.27195 22.76043
# Shear Modulus (GPa) = 22.01131 26.45327 24.23229
#
# Velocity S-wave (km/s) = 3.45730 3.79012 3.62753
# Velocity P-wave (km/s) = 5.24176 5.68629 5.46854
#
# Compressibility (1/GPa) = 0.04706123
#
# Stress axis : x y z
#
# Youngs Moduli (GPa) = 84.58691 37.68337 57.22206
#
# Poissons Ratio (x) = -0.09797 0.15847
# Poissons Ratio (y) = -0.21990 0.24131
# Poissons Ratio (z) = 0.23426 0.15891
#
# Static dielectric constant tensor:
#      x y z
#    x 1.601560 0.000000 0.000000 
#    y 0.000000 1.622130 0.000000 
#    z 0.000000 0.000000 1.643630 
# 
# From -- ./inp_files/24446.got.cif
#   From: 2010.05.17/outbox.cif.g08.bks.cpg/sg20_13_cif.got.tgz:24446.got - 2010.06.03 22:52:26.
