data_PCOD9318028
_publ_section_title
;
Structure prediction by ZEFSAII (Michael W. Deem and Ramdas Pophale) SiO2 
 PCOD9318028
Probable space group: C 2 2 21
;
_chemical_formula_sum "Si O2"
_cell_formula_units_Z 48
_cell_length_a 10.009998
_cell_length_b 16.566406
_cell_length_c 15.530659
_cell_angle_alpha 90.000000
_cell_angle_beta 90.000000
_cell_angle_gamma 90.000000
_cell_volume 2575.444382
_symmetry_space_group_name_H-M "C 2 2 21"
_symmetry_group_IT_number 20
_symmetry_cell_setting 'orthorhombic'
loop_
_space_group_symop_operation_xyz
x,y,z
-x,-y,1/2+z
x,-y,-z
-x,y,1/2-z
1/2+x,1/2+y,z
1/2-x,1/2-y,1/2+z
1/2+x,1/2-y,-z
1/2-x,1/2+y,1/2-z
loop_
_atom_site_type_symbol
_atom_site_label
_atom_site_fract_x
_atom_site_fract_y
_atom_site_fract_z
Si Si1 0.104036 0.580409 0.902072
Si Si2 0.186550 0.251252 0.048692
Si Si3 0.120698 0.500000 0.500000
Si Si4 0.000000 0.866931 0.750000
Si Si5 0.418230 0.327802 0.936787
Si Si6 0.257863 0.094699 0.152214
Si Si7 0.842104 0.000000 0.000000
Si Si8 0.500000 0.030546 0.250000
O O1 0.140852 0.673309 0.892764
O O2 0.050802 0.529344 0.823347
O O3 0.984554 0.570190 0.972473
O O4 0.240044 0.537386 0.931003
O O5 0.253446 0.181188 0.105230
O O6 0.047412 0.211820 0.018042
O O7 0.285020 0.286588 0.975617
O O8 0.212398 0.470859 0.578096
O O9 0.062605 0.820066 0.666944
O O10 0.121092 0.915097 0.794729
O O11 0.417177 0.423307 0.959846
O O12 0.380536 0.085334 0.216499
#
# Coordination Sequence:
#
# PCOD9318028 Si02
#       8
#     8   8   4   4   8   8   4   4
#     4   9  18  33  56  85 113 151 191 233 282 337
#     4  10  21  36  58  84 114 148 192 234 283 340
#     4   9  18  35  58  82 110 150 200 228 268 348
#     4  10  22  35  54  85 120 144 176 234 298 327
#     4  10  21  38  59  85 115 152 190 232 282 342
#     4  10  21  37  59  88 115 149 191 238 284 335
#     4   9  18  35  58  82 116 152 184 226 292 350
#     4  10  20  37  62  83 112 152 200 240 272 329
#
# _framework density 18.637560000000001
#
# number of rings (size 3 to 8) (size 9 to 14) (size 15 to 20)
#    0.000    2.333    0.000    2.000    0.000    9.333 
#    0.000    0.000    0.000   21.000    0.000    0.000 
#    0.000    0.000    0.000    0.000    0.000    0.000 
#
# Total GULP energy -133681.661658 kJ/mol
# GULP energy per Si atom -5570.069236 kJ/mol
# Density = 1.859514 g / cm^3
# Si number density = 18.637560 Si / 1000 Ang^3
#
#
#
# Elastic Constant Matrix: (Units=GPa)
#
#
# Indices 1 2 3 4 5 6 
#
# 1 109.7040 44.4109 44.9424 0.0000 0.0000 0.0000
# 2 44.4109 99.4272 10.4127 0.0000 0.0000 0.0000
# 3 44.9424 10.4127 67.0105 0.0000 0.0000 0.0000
# 4 0.0000 0.0000 0.0000 9.0997 0.0000 0.0000
# 5 0.0000 0.0000 0.0000 0.0000 36.1250 0.0000
# 6 0.0000 0.0000 0.0000 0.0000 0.0000 31.3725
#
#
#
# Elastic Compliance Matrix: (Units=1/GPa)
#
#
# Indices 1 2 3 4 5 6 
#
# 1 0.015328 -0.005865 -0.009369 0.000000 0.000000 0.000000
# 2 -0.005865 0.012468 0.001996 0.000000 0.000000 0.000000
# 3 -0.009369 0.001996 0.020896 0.000000 0.000000 0.000000
# 4 0.000000 0.000000 0.000000 0.109894 0.000000 0.000000
# 5 0.000000 0.000000 0.000000 0.000000 0.027682 0.000000
# 6 0.000000 0.000000 0.000000 0.000000 0.000000 0.031875
#
#
# Mechanical properties :
#
#
# Convention : Reuss Voigt Hill
#
# Bulk Modulus (GPa) = 45.01043 52.85264 48.93153
# Shear Modulus (GPa) = 19.83935 27.07782 23.45858
#
# Velocity S-wave (km/s) = 3.26618 3.81578 3.55163
# Velocity P-wave (km/s) = 6.19893 6.91616 6.56734
#
# Compressibility (1/GPa) = 0.02221707
#
# Stress axis : x y z
#
# Youngs Moduli (GPa) = 65.24039 80.20271 47.85565
#
# Poissons Ratio (x) = 0.47042 0.44834
# Poissons Ratio (y) = 0.38266 -0.09553
# Poissons Ratio (z) = 0.61122 -0.16011
#
# Static dielectric constant tensor:
#      x y z
#    x 1.661090 0.000000 0.000000 
#    y 0.000000 1.651110 0.000000 
#    z 0.000000 0.000000 1.695520 
# 
# From -- ./inp_files/21356.got.cif
#   From: 2010.05.17/outbox.cif.g08.bks.cpg/sg20_11_cif.got.tgz:21356.got - 2010.06.03 22:52:26.
