data_PCOD9318441
_publ_section_title
;
Structure prediction by ZEFSAII (Michael W. Deem and Ramdas Pophale) SiO2 
 PCOD9318441
Probable space group: C 2 2 21
;
_chemical_formula_sum "Si O2"
_cell_formula_units_Z 40
_cell_length_a 8.298814
_cell_length_b 17.024906
_cell_length_c 12.141041
_cell_angle_alpha 90.000000
_cell_angle_beta 90.000000
_cell_angle_gamma 90.000000
_cell_volume 1715.365532
_symmetry_space_group_name_H-M "C 2 2 21"
_symmetry_group_IT_number 20
_symmetry_cell_setting 'orthorhombic'
loop_
_space_group_symop_operation_xyz
x,y,z
-x,-y,1/2+z
x,-y,-z
-x,y,1/2-z
1/2+x,1/2+y,z
1/2-x,1/2-y,1/2+z
1/2+x,1/2-y,-z
1/2-x,1/2+y,1/2-z
loop_
_atom_site_type_symbol
_atom_site_label
_atom_site_fract_x
_atom_site_fract_y
_atom_site_fract_z
Si Si1 0.688959 0.362281 0.276146
Si Si2 0.262457 0.682186 0.202359
Si Si3 0.099741 0.156543 0.077897
Si Si4 0.617914 0.165911 0.987003
Si Si5 0.687375 0.928428 0.427258
O O1 0.500000 0.367450 0.250000
O O2 0.741727 0.274647 0.233103
O O3 0.747537 0.367885 0.402601
O O4 0.777821 0.428038 0.202249
O O5 0.426025 0.665675 0.133492
O O6 0.280533 0.641266 0.319800
O O7 0.131535 0.651129 0.116993
O O8 0.134916 0.240758 0.024882
O O9 0.143353 0.094563 0.985257
O O10 0.445736 0.138700 0.944409
O O11 0.624336 0.000000 0.500000
#
# Coordination Sequence:
#
# PCOD9318441 Si02
#       5
#     8   8   8   8   8
#     4  11  23  41  70 100 134 177 225 283 338 399
#     4  10  21  37  69 103 124 166 228 283 321 382
#     4  10  20  40  66  96 133 170 226 274 320 404
#     4  11  21  40  67  98 134 175 227 275 329 399
#     4  12  26  45  65  99 141 179 220 279 348 407
#
# _framework density 23.318646000000001
#
# number of rings (size 3 to 8) (size 9 to 14) (size 15 to 20)
#    0.000    1.200    4.000    1.800    5.600    0.000 
#   10.800    2.000    0.000    0.000    0.000    0.000 
#    0.000    0.000    0.000    0.000    0.000    0.000 
#
# Total GULP energy -111664.504276 kJ/mol
# GULP energy per Si atom -5583.225214 kJ/mol
# Density = 2.326557 g / cm^3
# Si number density = 23.318646 Si / 1000 Ang^3
#
#
#
# Elastic Constant Matrix: (Units=GPa)
#
#
# Indices 1 2 3 4 5 6 
#
# 1 63.3515 -8.6050 -16.7617 0.0000 0.0000 0.0000
# 2 -8.6050 29.9662 5.5285 0.0000 0.0000 0.0000
# 3 -16.7617 5.5285 83.2484 0.0000 0.0000 0.0000
# 4 0.0000 0.0000 0.0000 10.5434 0.0000 0.0000
# 5 0.0000 0.0000 0.0000 0.0000 37.9435 0.0000
# 6 0.0000 0.0000 0.0000 0.0000 0.0000 4.2869
#
#
#
# Elastic Compliance Matrix: (Units=1/GPa)
#
#
# Indices 1 2 3 4 5 6 
#
# 1 0.017218 0.004358 0.003177 0.000000 0.000000 0.000000
# 2 0.004358 0.034888 -0.001439 0.000000 0.000000 0.000000
# 3 0.003177 -0.001439 0.012748 0.000000 0.000000 0.000000
# 4 0.000000 0.000000 0.000000 0.094846 0.000000 0.000000
# 5 0.000000 0.000000 0.000000 0.000000 0.026355 0.000000
# 6 0.000000 0.000000 0.000000 0.000000 0.000000 0.233270
#
#
# Mechanical properties :
#
#
# Convention : Reuss Voigt Hill
#
# Bulk Modulus (GPa) = 12.97951 15.20997 14.09474
# Shear Modulus (GPa) = 11.55231 23.64838 17.60035
#
# Velocity S-wave (km/s) = 2.22820 3.18801 2.75030
# Velocity P-wave (km/s) = 3.49257 4.48197 4.01784
#
# Compressibility (1/GPa) = 0.07704451
#
# Stress axis : x y z
#
# Youngs Moduli (GPa) = 58.08036 28.66323 78.44635
#
# Poissons Ratio (x) = -0.12491 -0.24925
# Poissons Ratio (y) = -0.25311 0.11292
# Poissons Ratio (z) = -0.18454 0.04126
#
# Static dielectric constant tensor:
#      x y z
#    x 1.911400 0.000000 0.000000 
#    y 0.000000 1.847190 0.000000 
#    z 0.000000 0.000000 1.899710 
# 
# From -- ./inp_files/12673.got.cif
#   From: 2010.05.17/outbox.cif.g08.bks.cpg/sg20_7_cif.got.tgz:12673.got - 2010.06.03 22:52:26.
