data_PCOD9318093
_publ_section_title
;
Structure prediction by ZEFSAII (Michael W. Deem and Ramdas Pophale) SiO2 
 PCOD9318093
Probable space group: C 2 2 21
;
_chemical_formula_sum "Si O2"
_cell_formula_units_Z 64
_cell_length_a 6.200376
_cell_length_b 18.730543
_cell_length_c 28.542735
_cell_angle_alpha 90.000000
_cell_angle_beta 90.000000
_cell_angle_gamma 90.000000
_cell_volume 3314.850754
_symmetry_space_group_name_H-M "C 2 2 21"
_symmetry_group_IT_number 20
_symmetry_cell_setting 'orthorhombic'
loop_
_space_group_symop_operation_xyz
x,y,z
-x,-y,1/2+z
x,-y,-z
-x,y,1/2-z
1/2+x,1/2+y,z
1/2-x,1/2-y,1/2+z
1/2+x,1/2-y,-z
1/2-x,1/2+y,1/2-z
loop_
_atom_site_type_symbol
_atom_site_label
_atom_site_fract_x
_atom_site_fract_y
_atom_site_fract_z
Si Si1 0.366268 0.962622 0.124918
Si Si2 0.516502 0.555987 0.694575
Si Si3 0.045620 0.781899 0.063327
Si Si4 0.221442 0.166403 0.035027
Si Si5 0.287014 0.839733 0.365726
Si Si6 0.083833 0.216644 0.380555
Si Si7 0.251664 0.061788 0.365212
Si Si8 0.060421 0.016667 0.051510
O O1 0.539347 0.900166 0.122177
O O2 0.215447 0.951068 0.169879
O O3 0.500075 0.036989 0.129822
O O4 0.206953 0.961458 0.080348
O O5 0.500000 0.557440 0.750000
O O6 0.636722 0.625906 0.674065
O O7 0.651042 0.487633 0.675585
O O8 0.221720 0.766392 0.102667
O O9 0.941411 0.706701 0.046973
O O10 0.855634 0.825731 0.088023
O O11 0.145841 0.816079 0.017219
O O12 0.221666 0.082604 0.042607
O O13 0.043014 0.194374 0.072042
O O14 0.412048 0.766262 0.353231
O O15 0.185578 0.144621 0.358735
O O16 0.129366 0.038076 0.412989
O O17 0.974473 0.000000 0.000000
#
# Coordination Sequence:
#
# PCOD9318093 Si02
#       8
#     8   8   8   8   8   8   8   8
#     4  10  21  40  58  90 119 157 200 256 311 365
#     4  10  22  43  70  93 115 151 203 262 324 395
#     4  11  20  34  55  81 122 166 210 249 290 351
#     4  10  21  32  51  81 114 168 213 243 283 348
#     4  10  23  36  63  89 121 161 203 261 310 370
#     4  10  20  38  56  84 124 164 203 253 300 356
#     4   9  21  39  59  87 119 159 200 251 307 370
#     4  10  22  33  52  80 124 159 204 248 292 352
#
# _framework density 19.307054000000001
#
# number of rings (size 3 to 8) (size 9 to 14) (size 15 to 20)
#    0.000    2.000    1.250    1.500    7.000    3.500 
#    2.250    0.000    5.500    0.000    0.000    0.000 
#    0.000    0.000    0.000    0.000    0.000    0.000 
#
# Total GULP energy -178576.124832 kJ/mol
# GULP energy per Si atom -5580.503901 kJ/mol
# Density = 1.926311 g / cm^3
# Si number density = 19.307054 Si / 1000 Ang^3
#
#
#
# Elastic Constant Matrix: (Units=GPa)
#
#
# Indices 1 2 3 4 5 6 
#
# 1 68.7078 25.7716 23.1647 0.0000 0.0000 0.0000
# 2 25.7716 87.4305 32.8522 0.0000 0.0000 0.0000
# 3 23.1647 32.8522 102.5673 0.0000 0.0000 0.0000
# 4 0.0000 0.0000 0.0000 18.0653 0.0000 0.0000
# 5 0.0000 0.0000 0.0000 0.0000 8.6644 0.0000
# 6 0.0000 0.0000 0.0000 0.0000 0.0000 37.9291
#
#
#
# Elastic Compliance Matrix: (Units=1/GPa)
#
#
# Indices 1 2 3 4 5 6 
#
# 1 0.016921 -0.004038 -0.002528 0.000000 0.000000 0.000000
# 2 -0.004038 0.013966 -0.003561 0.000000 0.000000 0.000000
# 3 -0.002528 -0.003561 0.011461 0.000000 0.000000 0.000000
# 4 0.000000 0.000000 0.000000 0.055355 0.000000 0.000000
# 5 0.000000 0.000000 0.000000 0.000000 0.115415 0.000000
# 6 0.000000 0.000000 0.000000 0.000000 0.000000 0.026365
#
#
# Mechanical properties :
#
#
# Convention : Reuss Voigt Hill
#
# Bulk Modulus (GPa) = 45.26168 46.92030 46.09099
# Shear Modulus (GPa) = 18.71934 24.72622 21.72278
#
# Velocity S-wave (km/s) = 3.11715 3.58255 3.35792
# Velocity P-wave (km/s) = 6.03734 6.43955 6.24168
#
# Compressibility (1/GPa) = 0.02209374
#
# Stress axis : x y z
#
# Youngs Moduli (GPa) = 59.09690 71.60216 87.24916
#
# Poissons Ratio (x) = 0.28912 0.22060
# Poissons Ratio (y) = 0.23862 0.31073
# Poissons Ratio (z) = 0.14942 0.25500
#
# Static dielectric constant tensor:
#      x y z
#    x 1.694240 0.000000 0.000000 
#    y 0.000000 1.739410 0.000000 
#    z 0.000000 0.000000 1.621100 
# 
# From -- ./inp_files/30542.got.cif
#   From: 2010.05.17/outbox.cif.g08.bks.cpg/sg20_16_cif.got.tgz:30542.got - 2010.06.03 22:52:26.
