data_PCOD9318081
_publ_section_title
;
Structure prediction by ZEFSAII (Michael W. Deem and Ramdas Pophale) SiO2 
 PCOD9318081
Probable space group: C 2 2 21
;
_chemical_formula_sum "Si O2"
_cell_formula_units_Z 56
_cell_length_a 21.647518
_cell_length_b 8.050869
_cell_length_c 13.477190
_cell_angle_alpha 90.000000
_cell_angle_beta 90.000000
_cell_angle_gamma 90.000000
_cell_volume 2348.822619
_symmetry_space_group_name_H-M "C 2 2 21"
_symmetry_group_IT_number 20
_symmetry_cell_setting 'orthorhombic'
loop_
_space_group_symop_operation_xyz
x,y,z
-x,-y,1/2+z
x,-y,-z
-x,y,1/2-z
1/2+x,1/2+y,z
1/2-x,1/2-y,1/2+z
1/2+x,1/2-y,-z
1/2-x,1/2+y,1/2-z
loop_
_atom_site_type_symbol
_atom_site_label
_atom_site_fract_x
_atom_site_fract_y
_atom_site_fract_z
Si Si1 0.403788 0.155040 0.574470
Si Si2 0.854467 0.643458 0.921610
Si Si3 0.825497 0.923533 0.669721
Si Si4 0.246722 0.265704 0.850785
Si Si5 0.068065 0.877053 0.286744
Si Si6 0.021366 0.825787 0.631858
Si Si7 0.361132 0.054839 0.263579
O O1 0.347827 0.287240 0.588912
O O2 0.464479 0.268191 0.564669
O O3 0.400802 0.000000 0.500000
O O4 0.409513 0.059688 0.679752
O O5 0.799220 0.774754 0.935883
O O6 0.920935 0.712547 0.895822
O O7 0.831532 0.553506 0.821624
O O8 0.857998 0.500000 0.000000
O O9 0.783016 0.828113 0.750432
O O10 0.888483 0.998625 0.720440
O O11 0.788731 0.088541 0.638509
O O12 0.188773 0.390862 0.845252
O O13 0.048626 0.988382 0.379970
O O14 0.000000 0.824297 0.250000
O O15 0.108786 0.712852 0.289810
O O16 0.000000 0.820429 0.750000
#
# Coordination Sequence:
#
# PCOD9318081 Si02
#       7
#     8   8   8   8   8   8   8
#     4  12  24  41  67  96 132 171 217 266 327 397
#     4  12  24  40  67  97 130 173 221 274 331 395
#     4  11  19  39  67  93 125 169 212 261 320 384
#     4  11  21  40  68  92 129 169 219 264 319 388
#     4  10  20  37  71  89 119 168 214 268 328 380
#     4  11  19  42  68  85 125 174 208 269 335 377
#     4  11  24  41  66  97 125 175 221 266 329 398
#
# _framework density 23.841732
#
# number of rings (size 3 to 8) (size 9 to 14) (size 15 to 20)
#    0.000    0.857    8.571    0.429    2.000    1.143 
#    0.000    2.857    3.143    0.000    0.000    0.000 
#    0.000    0.000    0.000    0.000    0.000    0.000 
#
# Total GULP energy -155998.621532 kJ/mol
# GULP energy per Si atom -5571.379340 kJ/mol
# Density = 2.378747 g / cm^3
# Si number density = 23.841732 Si / 1000 Ang^3
#
#
#
# Elastic Constant Matrix: (Units=GPa)
#
#
# Indices 1 2 3 4 5 6 
#
# 1 122.8096 7.6923 -5.5334 0.0000 0.0000 0.0000
# 2 7.6923 59.1388 -0.1610 0.0000 0.0000 0.0000
# 3 -5.5334 -0.1610 20.4333 0.0000 0.0000 0.0000
# 4 0.0000 0.0000 0.0000 10.8005 0.0000 0.0000
# 5 0.0000 0.0000 0.0000 0.0000 11.2633 0.0000
# 6 0.0000 0.0000 0.0000 0.0000 0.0000 27.7384
#
#
#
# Elastic Compliance Matrix: (Units=1/GPa)
#
#
# Indices 1 2 3 4 5 6 
#
# 1 0.008311 -0.001075 0.002242 0.000000 0.000000 0.000000
# 2 -0.001075 0.017049 -0.000157 0.000000 0.000000 0.000000
# 3 0.002242 -0.000157 0.049546 0.000000 0.000000 0.000000
# 4 0.000000 0.000000 0.000000 0.092588 0.000000 0.000000
# 5 0.000000 0.000000 0.000000 0.000000 0.088784 0.000000
# 6 0.000000 0.000000 0.000000 0.000000 0.000000 0.036051
#
#
# Mechanical properties :
#
#
# Convention : Reuss Voigt Hill
#
# Bulk Modulus (GPa) = 12.99940 22.93081 17.96511
# Shear Modulus (GPa) = 15.82528 23.31936 19.57232
#
# Velocity S-wave (km/s) = 2.57916 3.13084 2.86829
# Velocity P-wave (km/s) = 3.78597 4.76533 4.30360
#
# Compressibility (1/GPa) = 0.07692664
#
# Stress axis : x y z
#
# Youngs Moduli (GPa) = 120.32184 58.65526 20.18336
#
# Poissons Ratio (x) = 0.06305 -0.04525
# Poissons Ratio (y) = 0.12934 0.00316
# Poissons Ratio (z) = -0.26978 0.00919
#
# Static dielectric constant tensor:
#      x y z
#    x 1.958330 0.000000 0.000000 
#    y 0.000000 2.014150 0.000000 
#    z 0.000000 0.000000 1.960690 
# 
# From -- ./inp_files/19191.got.cif
#   From: 2010.05.17/outbox.cif.g08.bks.cpg/sg20_10_cif.got.tgz:19191.got - 2010.06.03 22:52:26.
