data_PCOD9318963
_publ_section_title
;
Structure prediction by ZEFSAII (Michael W. Deem and Ramdas Pophale) SiO2 
 PCOD9318963
Probable space group: C 2 2 21
;
_chemical_formula_sum "Si O2"
_cell_formula_units_Z 56
_cell_length_a 26.961548
_cell_length_b 6.144746
_cell_length_c 14.077824
_cell_angle_alpha 90.000000
_cell_angle_beta 90.000000
_cell_angle_gamma 90.000000
_cell_volume 2332.299346
_symmetry_space_group_name_H-M "C 2 2 21"
_symmetry_group_IT_number 20
_symmetry_cell_setting 'orthorhombic'
loop_
_space_group_symop_operation_xyz
x,y,z
-x,-y,1/2+z
x,-y,-z
-x,y,1/2-z
1/2+x,1/2+y,z
1/2-x,1/2-y,1/2+z
1/2+x,1/2-y,-z
1/2-x,1/2+y,1/2-z
loop_
_atom_site_type_symbol
_atom_site_label
_atom_site_fract_x
_atom_site_fract_y
_atom_site_fract_z
Si Si1 0.595830 0.587337 0.678436
Si Si2 0.257963 0.865537 0.860399
Si Si3 0.536462 0.711246 0.169169
Si Si4 0.810457 0.237651 0.201420
Si Si5 0.240051 0.500000 0.000000
Si Si6 0.166483 0.136995 0.925760
Si Si7 0.026093 0.000000 0.500000
Si Si8 0.115795 0.541065 0.202580
O O1 0.563467 0.472612 0.763698
O O2 0.648298 0.447307 0.675097
O O3 0.564596 0.581757 0.581203
O O4 0.601674 0.844782 0.698789
O O5 0.242832 0.824982 0.749813
O O6 0.295259 0.069696 0.872567
O O7 0.205094 0.955206 0.894257
O O8 0.268850 0.648616 0.922126
O O9 0.500000 0.807855 0.250000
O O10 0.509917 0.636573 0.072135
O O11 0.575169 0.902397 0.149292
O O12 0.839209 0.379399 0.279899
O O13 0.202567 0.667632 0.047058
O O14 0.131840 0.244700 0.851128
O O15 0.134537 0.000000 0.000000
#
# Coordination Sequence:
#
# PCOD9318963 Si02
#       8
#     8   8   8   8   4   8   4   8
#     4  10  23  45  73 104 147 184 241 305 363 448
#     4  11  22  39  66  94 142 190 247 294 360 427
#     4   9  22  44  72 106 135 180 236 289 376 456
#     4  11  23  39  68 102 133 196 245 287 358 429
#     4  10  22  40  59  94 138 188 232 318 347 414
#     4  10  21  38  61  94 136 186 229 294 358 417
#     4  10  22  52  79 100 146 186 226 308 377 452
#     4  11  21  43  68  98 139 179 233 300 359 441
#
# _framework density 24.010639000000001
#
# number of rings (size 3 to 8) (size 9 to 14) (size 15 to 20)
#    0.000    1.714    2.857    0.857    0.000    1.714 
#    3.857   16.429    3.143    0.000    0.000    0.000 
#    0.000    0.000    0.000    0.000    0.000    0.000 
#
# Total GULP energy -155885.720924 kJ/mol
# GULP energy per Si atom -5567.347176 kJ/mol
# Density = 2.395599 g / cm^3
# Si number density = 24.010639 Si / 1000 Ang^3
#
#
#
# Elastic Constant Matrix: (Units=GPa)
#
#
# Indices 1 2 3 4 5 6 
#
# 1 92.1876 36.5783 46.3294 0.0000 0.0000 0.0000
# 2 36.5783 97.6604 50.2711 0.0000 0.0000 0.0000
# 3 46.3294 50.2711 115.4931 0.0000 0.0000 0.0000
# 4 0.0000 0.0000 0.0000 45.0450 0.0000 0.0000
# 5 0.0000 0.0000 0.0000 0.0000 20.3035 0.0000
# 6 0.0000 0.0000 0.0000 0.0000 0.0000 -7.9676
#
#
#
# Elastic Compliance Matrix: (Units=1/GPa)
#
#
# Indices 1 2 3 4 5 6 
#
# 1 0.014276 -0.003092 -0.004381 0.000000 0.000000 0.000000
# 2 -0.003092 0.013866 -0.004795 0.000000 0.000000 0.000000
# 3 -0.004381 -0.004795 0.012503 0.000000 0.000000 0.000000
# 4 0.000000 0.000000 0.000000 0.022200 0.000000 0.000000
# 5 0.000000 0.000000 0.000000 0.000000 0.049253 0.000000
# 6 0.000000 0.000000 0.000000 0.000000 0.000000 -0.125508
#
#
# Mechanical properties :
#
#
# Convention : Reuss Voigt Hill
#
# Bulk Modulus (GPa) = 62.07693 63.52205 62.79949
# Shear Modulus (GPa) = 303.12474 22.95368 163.03921
#
# Velocity S-wave (km/s) = 11.24811 3.09525 8.24926
# Velocity P-wave (km/s) = 13.95004 6.26796 10.81413
#
# Compressibility (1/GPa) = 0.01610904
#
# Stress axis : x y z
#
# Youngs Moduli (GPa) = 70.04821 72.11909 79.98018
#
# Poissons Ratio (x) = 0.22298 0.35038
# Poissons Ratio (y) = 0.21658 0.38352
# Poissons Ratio (z) = 0.30687 0.34582
#
# Static dielectric constant tensor:
#      x y z
#    x 2.019620 0.000000 0.000000 
#    y 0.000000 1.971510 0.000000 
#    z 0.000000 0.000000 2.261030 
# 
# From -- ./inp_files/22317.got.cif
#   From: 2010.05.17/outbox.cif.g08.bks.cpg/sg20_12_cif.got.tgz:22317.got - 2010.06.03 22:52:26.
