data_PCOD9318684
_publ_section_title
;
Structure prediction by ZEFSAII (Michael W. Deem and Ramdas Pophale) SiO2 
 PCOD9318684
Probable space group: C 2 2 21
;
_chemical_formula_sum "Si O2"
_cell_formula_units_Z 60
_cell_length_a 17.285908
_cell_length_b 5.957607
_cell_length_c 27.271574
_cell_angle_alpha 90.000000
_cell_angle_beta 90.000000
_cell_angle_gamma 90.000000
_cell_volume 2808.498865
_symmetry_space_group_name_H-M "C 2 2 21"
_symmetry_group_IT_number 20
_symmetry_cell_setting 'orthorhombic'
loop_
_space_group_symop_operation_xyz
x,y,z
-x,-y,1/2+z
x,-y,-z
-x,y,1/2-z
1/2+x,1/2+y,z
1/2-x,1/2-y,1/2+z
1/2+x,1/2-y,-z
1/2-x,1/2+y,1/2-z
loop_
_atom_site_type_symbol
_atom_site_label
_atom_site_fract_x
_atom_site_fract_y
_atom_site_fract_z
Si Si1 0.271872 0.000000 0.500000
Si Si2 0.606122 0.185859 0.626241
Si Si3 0.711578 0.420814 0.240393
Si Si4 0.175353 0.910254 0.417229
Si Si5 0.134496 0.128150 0.948229
Si Si6 0.445074 0.548149 0.794935
Si Si7 0.012982 0.297345 0.610591
Si Si8 0.261252 0.418401 0.636622
O O1 0.216247 0.152577 0.532675
O O2 0.323107 0.143005 0.463492
O O3 0.650719 0.332512 0.585813
O O4 0.578669 0.343217 0.670156
O O5 0.528953 0.062263 0.607865
O O6 0.675818 0.026485 0.643191
O O7 0.753395 0.169055 0.240416
O O8 0.634854 0.370408 0.271346
O O9 0.694451 0.499142 0.184642
O O10 0.093441 0.792820 0.411346
O O11 0.235471 0.838947 0.374202
O O12 0.057152 0.193999 0.919083
O O13 0.190319 0.997529 0.910502
O O14 0.120803 0.000000 0.000000
O O15 0.500000 0.486394 0.750000
O O16 0.485229 0.723986 0.832238
#
# Coordination Sequence:
#
# PCOD9318684 Si02
#       8
#     4   8   8   8   8   8   8   8
#     4  12  24  42  70 104 132 186 246 302 370 438
#     4  10  20  44  68  95 135 185 230 286 363 434
#     4  12  25  44  76 113 147 194 252 309 372 447
#     4  10  22  42  70  97 133 185 239 292 359 443
#     4  12  26  46  68 107 145 183 243 310 371 441
#     4  11  24  45  67 104 142 188 245 293 361 441
#     4  10  25  45  68  95 144 190 234 294 368 441
#     4  11  22  43  71 102 144 190 242 306 366 434
#
# _framework density 21.363727000000001
#
# number of rings (size 3 to 8) (size 9 to 14) (size 15 to 20)
#    0.000    1.067    4.000    3.200    0.933    2.667 
#    4.800    0.000    0.000    0.000    0.000    0.000 
#    0.000    0.000    0.000    0.000    0.000    0.000 
#
# Total GULP energy -167081.112453 kJ/mol
# GULP energy per Si atom -5569.370415 kJ/mol
# Density = 2.131510 g / cm^3
# Si number density = 21.363727 Si / 1000 Ang^3
#
#
#
# Elastic Constant Matrix: (Units=GPa)
#
#
# Indices 1 2 3 4 5 6 
#
# 1 101.0237 28.9824 56.8693 0.0000 0.0000 0.0000
# 2 28.9824 64.8365 29.7638 0.0000 0.0000 0.0000
# 3 56.8693 29.7638 130.1431 0.0000 0.0000 0.0000
# 4 0.0000 0.0000 0.0000 27.1473 0.0000 0.0000
# 5 0.0000 0.0000 0.0000 0.0000 50.3449 0.0000
# 6 0.0000 0.0000 0.0000 0.0000 0.0000 13.1881
#
#
#
# Elastic Compliance Matrix: (Units=1/GPa)
#
#
# Indices 1 2 3 4 5 6 
#
# 1 0.013932 -0.003836 -0.005211 0.000000 0.000000 0.000000
# 2 -0.003836 0.018289 -0.002506 0.000000 0.000000 0.000000
# 3 -0.005211 -0.002506 0.010534 0.000000 0.000000 0.000000
# 4 0.000000 0.000000 0.000000 0.036836 0.000000 0.000000
# 5 0.000000 0.000000 0.000000 0.000000 0.019863 0.000000
# 6 0.000000 0.000000 0.000000 0.000000 0.000000 0.075826
#
#
# Mechanical properties :
#
#
# Convention : Reuss Voigt Hill
#
# Bulk Modulus (GPa) = 50.89342 58.58158 54.73750
# Shear Modulus (GPa) = 24.39782 30.16191 27.27987
#
# Velocity S-wave (km/s) = 3.38305 3.76151 3.57728
# Velocity P-wave (km/s) = 6.25572 6.80778 6.53758
#
# Compressibility (1/GPa) = 0.01964890
#
# Stress axis : x y z
#
# Youngs Moduli (GPa) = 71.77468 54.67863 94.92960
#
# Poissons Ratio (x) = 0.20974 0.49467
# Poissons Ratio (y) = 0.27531 0.23794
# Poissons Ratio (z) = 0.37401 0.13705
#
# Static dielectric constant tensor:
#      x y z
#    x 1.742920 0.000000 0.000000 
#    y 0.000000 1.950070 0.000000 
#    z 0.000000 0.000000 1.826910 
# 
# From -- ./inp_files/30506.got.cif
#   From: 2010.05.17/outbox.cif.g08.bks.cpg/sg20_16_cif.got.tgz:30506.got - 2010.06.03 22:52:26.
