data_PCOD9318669
_publ_section_title
;
Structure prediction by ZEFSAII (Michael W. Deem and Ramdas Pophale) SiO2 
 PCOD9318669
Probable space group: C 2 2 21
;
_chemical_formula_sum "Si O2"
_cell_formula_units_Z 56
_cell_length_a 18.237380
_cell_length_b 13.032693
_cell_length_c 9.244742
_cell_angle_alpha 90.000000
_cell_angle_beta 90.000000
_cell_angle_gamma 90.000000
_cell_volume 2197.310383
_symmetry_space_group_name_H-M "C 2 2 21"
_symmetry_group_IT_number 20
_symmetry_cell_setting 'orthorhombic'
loop_
_space_group_symop_operation_xyz
x,y,z
-x,-y,1/2+z
x,-y,-z
-x,y,1/2-z
1/2+x,1/2+y,z
1/2-x,1/2-y,1/2+z
1/2+x,1/2-y,-z
1/2-x,1/2+y,1/2-z
loop_
_atom_site_type_symbol
_atom_site_label
_atom_site_fract_x
_atom_site_fract_y
_atom_site_fract_z
Si Si1 0.915776 0.396964 0.268229
Si Si2 0.389779 0.275167 0.490471
Si Si3 0.119319 0.669919 0.450456
Si Si4 0.261463 0.804544 0.714922
Si Si5 0.645281 0.601628 0.479731
Si Si6 0.500000 0.207900 0.250000
Si Si7 0.733808 0.925064 0.224470
Si Si8 0.177087 0.000000 0.000000
O O1 0.916609 0.296214 0.375447
O O2 0.846288 0.465096 0.323876
O O3 0.000000 0.428200 0.250000
O O4 0.888654 0.384131 0.102114
O O5 0.319159 0.220197 0.413930
O O6 0.449742 0.271491 0.361494
O O7 0.369163 0.393879 0.524969
O O8 0.193900 0.663762 0.358136
O O9 0.107950 0.791420 0.482290
O O10 0.054315 0.639664 0.344799
O O11 0.195466 0.874716 0.659667
O O12 0.224480 0.696248 0.747444
O O13 0.596033 0.500000 0.500000
O O14 0.705411 0.578103 0.601761
O O15 0.770835 0.971025 0.366188
#
# Coordination Sequence:
#
# PCOD9318669 Si02
#       8
#     8   8   8   8   8   4   8   4
#     4  12  22  38  65  96 125 174 223 268 326 408
#     4  10  21  40  65  91 133 169 226 268 335 408
#     4  10  22  37  61  90 127 174 213 265 332 410
#     4   9  19  39  63  87 124 167 213 274 333 396
#     4  11  22  37  63  97 124 162 223 286 328 392
#     4  10  20  44  56  88 134 178 214 254 334 420
#     4  10  22  39  63  93 128 169 224 275 335 398
#     4  10  24  42  66  98 132 180 218 290 348 396
#
# _framework density 25.485703000000001
#
# number of rings (size 3 to 8) (size 9 to 14) (size 15 to 20)
#    0.000    1.714    4.286    0.857    2.000    1.143 
#    2.571    0.000    1.571    0.000    1.857    0.000 
#    0.000    0.000    0.000    0.000    0.000    0.000 
#
# Total GULP energy -156485.310403 kJ/mol
# GULP energy per Si atom -5588.761086 kJ/mol
# Density = 2.542770 g / cm^3
# Si number density = 25.485703 Si / 1000 Ang^3
#
#
#
# Elastic Constant Matrix: (Units=GPa)
#
#
# Indices 1 2 3 4 5 6 
#
# 1 107.2911 -4.7719 38.6416 0.0000 0.0000 0.0000
# 2 -4.7719 106.0136 17.3319 0.0000 0.0000 0.0000
# 3 38.6416 17.3319 155.6550 0.0000 0.0000 0.0000
# 4 0.0000 0.0000 0.0000 28.3486 0.0000 0.0000
# 5 0.0000 0.0000 0.0000 0.0000 42.8178 0.0000
# 6 0.0000 0.0000 0.0000 0.0000 0.0000 14.2101
#
#
#
# Elastic Compliance Matrix: (Units=1/GPa)
#
#
# Indices 1 2 3 4 5 6 
#
# 1 0.010319 0.000900 -0.002662 0.000000 0.000000 0.000000
# 2 0.000900 0.009686 -0.001302 0.000000 0.000000 0.000000
# 3 -0.002662 -0.001302 0.007230 0.000000 0.000000 0.000000
# 4 0.000000 0.000000 0.000000 0.035275 0.000000 0.000000
# 5 0.000000 0.000000 0.000000 0.000000 0.023355 0.000000
# 6 0.000000 0.000000 0.000000 0.000000 0.000000 0.070373
#
#
# Mechanical properties :
#
#
# Convention : Reuss Voigt Hill
#
# Bulk Modulus (GPa) = 47.37707 52.37366 49.87536
# Shear Modulus (GPa) = 29.51557 38.25915 33.88736
#
# Velocity S-wave (km/s) = 3.40681 3.87874 3.65041
# Velocity P-wave (km/s) = 5.83996 6.37607 6.11390
#
# Compressibility (1/GPa) = 0.02110726
#
# Stress axis : x y z
#
# Youngs Moduli (GPa) = 96.90703 103.24083 138.30773
#
# Poissons Ratio (x) = -0.09288 0.36817
# Poissons Ratio (y) = -0.08719 0.18006
# Poissons Ratio (z) = 0.25796 0.13441
#
# Static dielectric constant tensor:
#      x y z
#    x 2.082040 0.000000 0.000000 
#    y 0.000000 2.201820 0.000000 
#    z 0.000000 0.000000 2.054480 
# 
# From -- ./inp_files/10236.got.cif
#   From: 2010.05.17/outbox.cif.g08.bks.cpg/sg20_6_cif.got.tgz:10236.got - 2010.06.03 22:52:26.
