data_PCOD9318951
_publ_section_title
;
Structure prediction by ZEFSAII (Michael W. Deem and Ramdas Pophale) SiO2 
 PCOD9318951
Probable space group: C 2 2 21
;
_chemical_formula_sum "Si O2"
_cell_formula_units_Z 32
_cell_length_a 17.721252
_cell_length_b 18.043842
_cell_length_c 4.929251
_cell_angle_alpha 90.000000
_cell_angle_beta 90.000000
_cell_angle_gamma 90.000000
_cell_volume 1576.174693
_symmetry_space_group_name_H-M "C 2 2 21"
_symmetry_group_IT_number 20
_symmetry_cell_setting 'orthorhombic'
loop_
_space_group_symop_operation_xyz
x,y,z
-x,-y,1/2+z
x,-y,-z
-x,y,1/2-z
1/2+x,1/2+y,z
1/2-x,1/2-y,1/2+z
1/2+x,1/2-y,-z
1/2-x,1/2+y,1/2-z
loop_
_atom_site_type_symbol
_atom_site_label
_atom_site_fract_x
_atom_site_fract_y
_atom_site_fract_z
Si Si1 0.449030 0.107525 0.986098
Si Si2 0.948344 0.779054 0.983984
Si Si3 0.276955 0.297446 0.927770
Si Si4 0.294634 0.951433 0.769861
O O1 0.500000 0.109430 0.250000
O O2 0.370601 0.072666 0.073096
O O3 0.500000 0.071707 0.750000
O O4 0.434001 0.192746 0.906280
O O5 0.864185 0.809664 0.009190
O O6 0.000000 0.813634 0.750000
O O7 0.000000 0.781269 0.250000
O O8 0.267042 0.238830 0.681296
O O9 0.243451 0.375346 0.827683
O O10 0.309040 0.000000 0.500000
O O11 0.251742 0.000000 0.000000
#
# Coordination Sequence:
#
# PCOD9318951 Si02
#       4
#     8   8   8   8
#     4  10  21  38  61  88 130 172 209 251 311 390
#     4  10  21  38  65  97 127 160 216 279 321 370
#     4  12  24  42  71  96 127 177 225 271 320 384
#     4  12  26  42  63  96 138 175 218 268 328 387
#
# _framework density 20.302319000000001
#
# number of rings (size 3 to 8) (size 9 to 14) (size 15 to 20)
#    0.000    1.000    2.500    4.500    7.000    2.000 
#    0.000    0.000    0.000    3.000    0.000    0.000 
#    0.000    0.000    0.000    0.000    0.000    0.000 
#
# Total GULP energy -89397.332385 kJ/mol
# GULP energy per Si atom -5587.333274 kJ/mol
# Density = 2.025611 g / cm^3
# Si number density = 20.302319 Si / 1000 Ang^3
#
#
#
# Elastic Constant Matrix: (Units=GPa)
#
#
# Indices 1 2 3 4 5 6 
#
# 1 149.8075 54.8204 47.9434 0.0000 0.0000 0.0000
# 2 54.8204 76.2779 23.8568 0.0000 0.0000 0.0000
# 3 47.9434 23.8568 127.8857 0.0000 0.0000 0.0000
# 4 0.0000 0.0000 0.0000 114.6051 0.0000 0.0000
# 5 0.0000 0.0000 0.0000 0.0000 29.2469 0.0000
# 6 0.0000 0.0000 0.0000 0.0000 0.0000 18.6382
#
#
#
# Elastic Compliance Matrix: (Units=1/GPa)
#
#
# Indices 1 2 3 4 5 6 
#
# 1 0.009753 -0.006229 -0.002494 0.000000 0.000000 0.000000
# 2 -0.006229 0.017901 -0.001004 0.000000 0.000000 0.000000
# 3 -0.002494 -0.001004 0.008942 0.000000 0.000000 0.000000
# 4 0.000000 0.000000 0.000000 0.008726 0.000000 0.000000
# 5 0.000000 0.000000 0.000000 0.000000 0.034192 0.000000
# 6 0.000000 0.000000 0.000000 0.000000 0.000000 0.053653
#
#
# Mechanical properties :
#
#
# Convention : Reuss Voigt Hill
#
# Bulk Modulus (GPa) = 58.34116 67.46802 62.90459
# Shear Modulus (GPa) = 31.57861 47.65476 39.61669
#
# Velocity S-wave (km/s) = 3.94816 4.85011 4.42219
# Velocity P-wave (km/s) = 7.04149 8.04167 7.55814
#
# Compressibility (1/GPa) = 0.01714056
#
# Stress axis : x y z
#
# Youngs Moduli (GPa) = 102.53217 55.86293 111.83341
#
# Poissons Ratio (x) = 0.34799 0.27894
# Poissons Ratio (y) = 0.63871 0.11229
# Poissons Ratio (z) = 0.25574 0.05609
#
# Static dielectric constant tensor:
#      x y z
#    x 1.498030 0.000000 0.000000 
#    y 0.000000 1.775910 0.000000 
#    z 0.000000 0.000000 1.744880 
# 
# From -- ./inp_files/1573.got.cif
#   From: 2010.05.17/outbox.cif.g08.bks.cpg/sg20_1_cif.got.tgz:1573.got - 2010.06.03 22:52:26.
