data_PCOD9318658
_publ_section_title
;
Structure prediction by ZEFSAII (Michael W. Deem and Ramdas Pophale) SiO2 
 PCOD9318658
Probable space group: C 2 2 21
;
_chemical_formula_sum "Si O2"
_cell_formula_units_Z 36
_cell_length_a 15.928451
_cell_length_b 15.720774
_cell_length_c 6.720548
_cell_angle_alpha 90.000000
_cell_angle_beta 90.000000
_cell_angle_gamma 90.000000
_cell_volume 1682.876150
_symmetry_space_group_name_H-M "C 2 2 21"
_symmetry_group_IT_number 20
_symmetry_cell_setting 'orthorhombic'
loop_
_space_group_symop_operation_xyz
x,y,z
-x,-y,1/2+z
x,-y,-z
-x,y,1/2-z
1/2+x,1/2+y,z
1/2-x,1/2-y,1/2+z
1/2+x,1/2-y,-z
1/2-x,1/2+y,1/2-z
loop_
_atom_site_type_symbol
_atom_site_label
_atom_site_fract_x
_atom_site_fract_y
_atom_site_fract_z
Si Si1 0.772159 0.579756 0.359239
Si Si2 0.000000 0.825554 0.250000
Si Si3 0.138676 0.500000 0.500000
Si Si4 0.611042 0.781245 0.039626
Si Si5 0.585567 0.370471 0.648760
Si Si6 0.000000 0.407845 0.250000
O O1 0.795824 0.500000 0.500000
O O2 0.808558 0.565013 0.136694
O O3 0.807627 0.665713 0.466272
O O4 0.672064 0.580210 0.337366
O O5 0.054781 0.868320 0.422039
O O6 0.927791 0.774163 0.365176
O O7 0.076592 0.457584 0.343025
O O8 0.608914 0.719954 0.236700
O O9 0.540141 0.851207 0.079209
O O10 0.500000 0.403135 0.750000
#
# Coordination Sequence:
#
# PCOD9318658 Si02
#       6
#     8   4   4   8   8   4
#     4  12  27  44  66 104 139 180 230 284 346 410
#     4  10  20  43  70  95 132 178 226 276 346 395
#     4  12  26  42  66 100 144 180 216 278 352 430
#     4  11  22  40  68 102 130 174 223 280 338 417
#     4  10  25  46  68  99 132 183 237 283 340 400
#     4  12  20  43  66  95 138 172 212 272 358 421
#
# _framework density 21.391950000000001
#
# number of rings (size 3 to 8) (size 9 to 14) (size 15 to 20)
#    0.000    0.889    5.556    2.667    3.111    3.556 
#    4.000    0.000    0.000    0.000    0.000    0.000 
#    0.000    0.000    0.000    0.000    0.000    0.000 
#
# Total GULP energy -100318.758378 kJ/mol
# GULP energy per Si atom -5573.264354 kJ/mol
# Density = 2.134326 g / cm^3
# Si number density = 21.391950 Si / 1000 Ang^3
#
#
#
# Elastic Constant Matrix: (Units=GPa)
#
#
# Indices 1 2 3 4 5 6 
#
# 1 123.3052 11.1015 58.1170 0.0000 0.0000 0.0000
# 2 11.1015 15.7572 16.6807 0.0000 0.0000 0.0000
# 3 58.1170 16.6807 120.6248 0.0000 0.0000 0.0000
# 4 0.0000 0.0000 0.0000 4.2733 0.0000 0.0000
# 5 0.0000 0.0000 0.0000 0.0000 21.0987 0.0000
# 6 0.0000 0.0000 0.0000 0.0000 0.0000 20.2571
#
#
#
# Elastic Compliance Matrix: (Units=1/GPa)
#
#
# Indices 1 2 3 4 5 6 
#
# 1 0.010570 -0.002408 -0.004760 0.000000 0.000000 0.000000
# 2 -0.002408 0.074896 -0.009197 0.000000 0.000000 0.000000
# 3 -0.004760 -0.009197 0.011855 0.000000 0.000000 0.000000
# 4 0.000000 0.000000 0.000000 0.234012 0.000000 0.000000
# 5 0.000000 0.000000 0.000000 0.000000 0.047396 0.000000
# 6 0.000000 0.000000 0.000000 0.000000 0.000000 0.049365
#
#
# Mechanical properties :
#
#
# Convention : Reuss Voigt Hill
#
# Bulk Modulus (GPa) = 15.48192 47.94284 31.71238
# Shear Modulus (GPa) = 10.36584 20.71169 15.53876
#
# Velocity S-wave (km/s) = 2.20368 3.11497 2.69807
# Velocity P-wave (km/s) = 3.70512 5.94959 4.95608
#
# Compressibility (1/GPa) = 0.06459146
#
# Stress axis : x y z
#
# Youngs Moduli (GPa) = 94.60603 13.35193 84.35175
#
# Poissons Ratio (x) = 0.03216 0.40148
# Poissons Ratio (y) = 0.22786 0.77575
# Poissons Ratio (z) = 0.45029 0.12279
#
# Static dielectric constant tensor:
#      x y z
#    x 1.753190 0.000000 0.000000 
#    y 0.000000 2.054420 0.000000 
#    z 0.000000 0.000000 1.733140 
# 
# From -- ./inp_files/1787.got.cif
#   From: 2010.05.17/outbox.cif.g08.bks.cpg/sg20_1_cif.got.tgz:1787.got - 2010.06.03 22:52:26.
