data_PCOD9318344
_publ_section_title
;
Structure prediction by ZEFSAII (Michael W. Deem and Ramdas Pophale) SiO2 
 PCOD9318344
Probable space group: C 2 2 21
;
_chemical_formula_sum "Si O2"
_cell_formula_units_Z 56
_cell_length_a 17.702763
_cell_length_b 7.576349
_cell_length_c 20.625034
_cell_angle_alpha 90.000000
_cell_angle_beta 90.000000
_cell_angle_gamma 90.000000
_cell_volume 2766.277219
_symmetry_space_group_name_H-M "C 2 2 21"
_symmetry_group_IT_number 20
_symmetry_cell_setting 'orthorhombic'
loop_
_space_group_symop_operation_xyz
x,y,z
-x,-y,1/2+z
x,-y,-z
-x,y,1/2-z
1/2+x,1/2+y,z
1/2-x,1/2-y,1/2+z
1/2+x,1/2-y,-z
1/2-x,1/2+y,1/2-z
loop_
_atom_site_type_symbol
_atom_site_label
_atom_site_fract_x
_atom_site_fract_y
_atom_site_fract_z
Si Si1 0.384070 0.795456 0.068078
Si Si2 0.672643 0.535497 0.210694
Si Si3 0.343322 0.051756 0.409974
Si Si4 0.077482 0.320470 0.286105
Si Si5 0.664451 0.877184 0.765256
Si Si6 0.776399 0.945147 0.427578
Si Si7 0.014832 0.500000 0.000000
Si Si8 0.217567 0.000000 0.500000
O O1 0.415310 0.754459 0.139913
O O2 0.315371 0.938500 0.075671
O O3 0.455911 0.853869 0.025651
O O4 0.338101 0.639543 0.033021
O O5 0.615209 0.672583 0.240818
O O6 0.651881 0.331851 0.227287
O O7 0.749723 0.586649 0.246622
O O8 0.688265 0.547676 0.133551
O O9 0.350116 0.027458 0.333892
O O10 0.308064 0.246999 0.418243
O O11 0.425278 0.043028 0.442982
O O12 0.278723 0.933839 0.445689
O O13 0.116589 0.512682 0.285786
O O14 0.000000 0.351781 0.250000
O O15 0.798099 0.000000 0.500000
#
# Coordination Sequence:
#
# PCOD9318344 Si02
#       8
#     8   8   8   8   8   8   4   4
#     4  11  22  43  61  96 128 165 218 262 329 393
#     4  11  22  42  70  99 127 173 228 272 323 399
#     4   9  21  40  65  94 124 171 219 258 328 388
#     4  12  26  44  65  98 136 170 218 276 336 393
#     4  11  21  43  70  96 131 172 224 272 321 394
#     4  10  20  39  66  95 126 166 226 262 312 398
#     4  11  22  42  62  91 134 168 204 273 332 380
#     4   9  20  40  64  87 124 162 210 265 294 390
#
# _framework density 20.243812999999999
#
# number of rings (size 3 to 8) (size 9 to 14) (size 15 to 20)
#    0.000    1.429    3.571    2.571    0.000    5.143 
#   16.714    0.000    0.000    0.000    0.000    0.000 
#    0.000    0.000    0.000    0.000    0.000    0.000 
#
# Total GULP energy -156094.459273 kJ/mol
# GULP energy per Si atom -5574.802117 kJ/mol
# Density = 2.019774 g / cm^3
# Si number density = 20.243813 Si / 1000 Ang^3
#
#
#
# Elastic Constant Matrix: (Units=GPa)
#
#
# Indices 1 2 3 4 5 6 
#
# 1 140.1458 44.0089 22.8585 0.0000 0.0000 0.0000
# 2 44.0089 73.9487 44.0807 0.0000 0.0000 0.0000
# 3 22.8585 44.0807 119.6227 0.0000 0.0000 0.0000
# 4 0.0000 0.0000 0.0000 30.9690 0.0000 0.0000
# 5 0.0000 0.0000 0.0000 0.0000 19.0670 0.0000
# 6 0.0000 0.0000 0.0000 0.0000 0.0000 -12.1133
#
#
#
# Elastic Compliance Matrix: (Units=1/GPa)
#
#
# Indices 1 2 3 4 5 6 
#
# 1 0.008785 -0.005417 0.000318 0.000000 0.000000 0.000000
# 2 -0.005417 0.020670 -0.006582 0.000000 0.000000 0.000000
# 3 0.000318 -0.006582 0.010724 0.000000 0.000000 0.000000
# 4 0.000000 0.000000 0.000000 0.032290 0.000000 0.000000
# 5 0.000000 0.000000 0.000000 0.000000 0.052447 0.000000
# 6 0.000000 0.000000 0.000000 0.000000 0.000000 -0.082554
#
#
# Mechanical properties :
#
#
# Convention : Reuss Voigt Hill
#
# Bulk Modulus (GPa) = 59.46606 61.73483 60.60044
# Shear Modulus (GPa) = 70.09568 22.43580 46.26574
#
# Velocity S-wave (km/s) = 5.89075 3.33269 4.78580
# Velocity P-wave (km/s) = 8.70095 6.73580 7.78067
#
# Compressibility (1/GPa) = 0.01681632
#
# Stress axis : x y z
#
# Youngs Moduli (GPa) = 113.83279 48.37852 93.24629
#
# Poissons Ratio (x) = 0.26209 -0.02962
# Poissons Ratio (y) = 0.61668 0.61372
# Poissons Ratio (z) = -0.03616 0.31842
#
# Static dielectric constant tensor:
#      x y z
#    x 1.733320 0.000000 0.000000 
#    y 0.000000 1.746880 0.000000 
#    z 0.000000 0.000000 1.778400 
# 
# From -- ./inp_files/27600.got.cif
#   From: 2010.05.17/outbox.cif.g08.bks.cpg/sg20_14_cif.got.tgz:27600.got - 2010.06.03 22:52:26.
