data_PCOD9318393
_publ_section_title
;
Structure prediction by ZEFSAII (Michael W. Deem and Ramdas Pophale) SiO2 
 PCOD9318393
Probable space group: C 2 2 21
;
_chemical_formula_sum "Si O2"
_cell_formula_units_Z 48
_cell_length_a 9.352160
_cell_length_b 17.185139
_cell_length_c 14.309694
_cell_angle_alpha 90.000000
_cell_angle_beta 90.000000
_cell_angle_gamma 90.000000
_cell_volume 2299.827827
_symmetry_space_group_name_H-M "C 2 2 21"
_symmetry_group_IT_number 20
_symmetry_cell_setting 'orthorhombic'
loop_
_space_group_symop_operation_xyz
x,y,z
-x,-y,1/2+z
x,-y,-z
-x,y,1/2-z
1/2+x,1/2+y,z
1/2-x,1/2-y,1/2+z
1/2+x,1/2-y,-z
1/2-x,1/2+y,1/2-z
loop_
_atom_site_type_symbol
_atom_site_label
_atom_site_fract_x
_atom_site_fract_y
_atom_site_fract_z
Si Si1 0.303545 0.500000 0.000000
Si Si2 0.616118 0.941180 0.822308
Si Si3 0.727756 0.677088 0.000829
Si Si4 0.003308 0.284522 0.591656
Si Si5 0.369972 0.613493 0.311391
Si Si6 0.500000 0.672551 0.750000
Si Si7 0.074488 0.945091 0.102777
O O1 0.199952 0.479533 0.911607
O O2 0.421811 0.560381 0.953473
O O3 0.500000 0.981081 0.750000
O O4 0.533435 0.867717 0.865916
O O5 0.740526 0.908699 0.755947
O O6 0.889981 0.702902 0.006456
O O7 0.674715 0.671523 0.107361
O O8 0.635446 0.738714 0.943610
O O9 0.697580 0.590106 0.962689
O O10 0.067530 0.229428 0.673144
O O11 0.500000 0.643850 0.250000
O O12 0.417490 0.532021 0.359466
O O13 0.408597 0.611900 0.690842
#
# Coordination Sequence:
#
# PCOD9318393 Si02
#       7
#     4   8   8   8   8   4   8
#     4  12  24  42  72 106 134 182 236 286 354 416
#     4  12  25  44  66 102 143 181 225 290 353 407
#     4  11  24  40  67  93 135 174 233 281 343 414
#     4  11  25  43  63  96 135 185 224 285 348 413
#     4  12  21  41  70  97 128 174 229 281 352 416
#     4  10  20  40  62  90 132 172 220 274 342 402
#     4  11  21  40  69 100 125 178 233 287 335 419
#
# _framework density 20.871127999999999
#
# number of rings (size 3 to 8) (size 9 to 14) (size 15 to 20)
#    0.000    0.667    6.667    0.000    7.000    1.333 
#    0.000    0.000    0.000    1.000    0.000    0.000 
#    0.000    0.000    0.000    0.000    0.000    0.000 
#
# Total GULP energy -133657.426231 kJ/mol
# GULP energy per Si atom -5569.059426 kJ/mol
# Density = 2.082362 g / cm^3
# Si number density = 20.871128 Si / 1000 Ang^3
#
#
#
# Elastic Constant Matrix: (Units=GPa)
#
#
# Indices 1 2 3 4 5 6 
#
# 1 70.4484 -0.4411 21.0834 0.0000 0.0000 0.0000
# 2 -0.4411 47.3102 5.2630 0.0000 0.0000 0.0000
# 3 21.0834 5.2630 94.3459 0.0000 0.0000 0.0000
# 4 0.0000 0.0000 0.0000 42.7735 0.0000 0.0000
# 5 0.0000 0.0000 0.0000 0.0000 40.8680 0.0000
# 6 0.0000 0.0000 0.0000 0.0000 0.0000 8.1257
#
#
#
# Elastic Compliance Matrix: (Units=1/GPa)
#
#
# Indices 1 2 3 4 5 6 
#
# 1 0.015225 0.000524 -0.003432 0.000000 0.000000 0.000000
# 2 0.000524 0.021287 -0.001305 0.000000 0.000000 0.000000
# 3 -0.003432 -0.001305 0.011439 0.000000 0.000000 0.000000
# 4 0.000000 0.000000 0.000000 0.023379 0.000000 0.000000
# 5 0.000000 0.000000 0.000000 0.000000 0.024469 0.000000
# 6 0.000000 0.000000 0.000000 0.000000 0.000000 0.123067
#
#
# Mechanical properties :
#
#
# Convention : Reuss Voigt Hill
#
# Bulk Modulus (GPa) = 25.29959 29.32390 27.31175
# Shear Modulus (GPa) = 20.79296 30.76670 25.77983
#
# Velocity S-wave (km/s) = 3.15977 3.84360 3.51834
# Velocity P-wave (km/s) = 5.04583 5.81190 5.44236
#
# Compressibility (1/GPa) = 0.03952633
#
# Stress axis : x y z
#
# Youngs Moduli (GPa) = 65.68127 46.97685 87.42089
#
# Poissons Ratio (x) = -0.02460 0.29999
# Poissons Ratio (y) = -0.03440 0.11404
# Poissons Ratio (z) = 0.22539 0.06128
#
# Static dielectric constant tensor:
#      x y z
#    x 1.779440 0.000000 0.000000 
#    y 0.000000 1.742160 0.000000 
#    z 0.000000 0.000000 1.834610 
# 
# From -- ./inp_files/18947.got.cif
#   From: 2010.05.17/outbox.cif.g08.bks.cpg/sg20_10_cif.got.tgz:18947.got - 2010.06.03 22:52:26.
