data_PCOD9318987
_publ_section_title
;
Structure prediction by ZEFSAII (Michael W. Deem and Ramdas Pophale) SiO2 
 PCOD9318987
Probable space group: C 2 2 21
;
_chemical_formula_sum "Si O2"
_cell_formula_units_Z 32
_cell_length_a 5.175219
_cell_length_b 12.633169
_cell_length_c 21.267655
_cell_angle_alpha 90.000000
_cell_angle_beta 90.000000
_cell_angle_gamma 90.000000
_cell_volume 1390.466869
_symmetry_space_group_name_H-M "C 2 2 21"
_symmetry_group_IT_number 20
_symmetry_cell_setting 'orthorhombic'
loop_
_space_group_symop_operation_xyz
x,y,z
-x,-y,1/2+z
x,-y,-z
-x,y,1/2-z
1/2+x,1/2+y,z
1/2-x,1/2-y,1/2+z
1/2+x,1/2-y,-z
1/2-x,1/2+y,1/2-z
loop_
_atom_site_type_symbol
_atom_site_label
_atom_site_fract_x
_atom_site_fract_y
_atom_site_fract_z
Si Si1 0.519788 0.697502 0.094827
Si Si2 0.335039 0.118430 0.997732
Si Si3 0.458294 0.541200 0.895630
Si Si4 0.958274 0.621494 0.823024
O O1 0.447508 0.786931 0.043570
O O2 0.397340 0.581885 0.094705
O O3 0.453355 0.753480 0.160178
O O4 0.801224 0.662176 0.068339
O O5 0.064378 0.093293 0.960218
O O6 0.456613 0.000000 0.000000
O O7 0.703525 0.563469 0.849474
O O8 0.208167 0.588696 0.863325
O O9 0.000000 0.601673 0.750000
#
# Coordination Sequence:
#
# PCOD9318987 Si02
#       4
#     8   8   8   8
#     4  10  21  38  64  93 124 164 200 248 311 366
#     4   9  19  36  61  95 126 155 198 251 309 372
#     4  10  23  41  62  90 123 160 204 254 306 364
#     4  11  24  41  61  88 122 163 212 257 299 356
#
# _framework density 23.013853000000001
#
# number of rings (size 3 to 8) (size 9 to 14) (size 15 to 20)
#    0.000    2.000    0.000    2.250    0.000   12.000 
#    0.000    6.250    0.000    0.000    0.000    0.000 
#    0.000    0.000    0.000    0.000    0.000    0.000 
#
# Total GULP energy -89174.587918 kJ/mol
# GULP energy per Si atom -5573.411745 kJ/mol
# Density = 2.296147 g / cm^3
# Si number density = 23.013853 Si / 1000 Ang^3
#
#
#
# Elastic Constant Matrix: (Units=GPa)
#
#
# Indices 1 2 3 4 5 6 
#
# 1 111.8227 41.9812 20.1915 0.0000 0.0000 0.0000
# 2 41.9812 168.7990 23.2032 0.0000 0.0000 0.0000
# 3 20.1915 23.2032 88.9471 0.0000 0.0000 0.0000
# 4 0.0000 0.0000 0.0000 27.4697 0.0000 0.0000
# 5 0.0000 0.0000 0.0000 0.0000 28.8615 0.0000
# 6 0.0000 0.0000 0.0000 0.0000 0.0000 24.4362
#
#
#
# Elastic Compliance Matrix: (Units=1/GPa)
#
#
# Indices 1 2 3 4 5 6 
#
# 1 0.010105 -0.002280 -0.001699 0.000000 0.000000 0.000000
# 2 -0.002280 0.006659 -0.001220 0.000000 0.000000 0.000000
# 3 -0.001699 -0.001220 0.011947 0.000000 0.000000 0.000000
# 4 0.000000 0.000000 0.000000 0.036404 0.000000 0.000000
# 5 0.000000 0.000000 0.000000 0.000000 0.034648 0.000000
# 6 0.000000 0.000000 0.000000 0.000000 0.000000 0.040923
#
#
# Mechanical properties :
#
#
# Convention : Reuss Voigt Hill
#
# Bulk Modulus (GPa) = 54.60394 60.03561 57.31978
# Shear Modulus (GPa) = 31.80919 35.09967 33.45443
#
# Velocity S-wave (km/s) = 3.72180 3.90956 3.81683
# Velocity P-wave (km/s) = 6.49978 6.82077 6.66221
#
# Compressibility (1/GPa) = 0.01831370
#
# Stress axis : x y z
#
# Youngs Moduli (GPa) = 98.95679 150.17681 83.70636
#
# Poissons Ratio (x) = 0.34236 0.14224
# Poissons Ratio (y) = 0.22559 0.10208
# Poissons Ratio (z) = 0.16816 0.18315
#
# Static dielectric constant tensor:
#      x y z
#    x 1.976660 0.000000 0.000000 
#    y 0.000000 1.872170 0.000000 
#    z 0.000000 0.000000 1.894740 
# 
# From -- ./inp_files/25848.got.cif
#   From: 2010.05.17/outbox.cif.g08.bks.cpg/sg20_13_cif.got.tgz:25848.got - 2010.06.03 22:52:26.
