data_PCOD9318909
_publ_section_title
;
Structure prediction by ZEFSAII (Michael W. Deem and Ramdas Pophale) SiO2 
 PCOD9318909
Probable space group: C 2 2 21
;
_chemical_formula_sum "Si O2"
_cell_formula_units_Z 32
_cell_length_a 25.394325
_cell_length_b 7.341743
_cell_length_c 5.843556
_cell_angle_alpha 90.000000
_cell_angle_beta 90.000000
_cell_angle_gamma 90.000000
_cell_volume 1089.464445
_symmetry_space_group_name_H-M "C 2 2 21"
_symmetry_group_IT_number 20
_symmetry_cell_setting 'orthorhombic'
loop_
_space_group_symop_operation_xyz
x,y,z
-x,-y,1/2+z
x,-y,-z
-x,y,1/2-z
1/2+x,1/2+y,z
1/2-x,1/2-y,1/2+z
1/2+x,1/2-y,-z
1/2-x,1/2+y,1/2-z
loop_
_atom_site_type_symbol
_atom_site_label
_atom_site_fract_x
_atom_site_fract_y
_atom_site_fract_z
Si Si1 0.336976 0.000000 0.500000
Si Si2 0.000000 0.675911 0.750000
Si Si3 0.588214 0.000000 0.500000
Si Si4 0.753670 0.845854 0.252367
Si Si5 0.541777 0.500000 0.500000
Si Si6 0.370455 0.329635 0.253798
O O1 0.296784 0.025892 0.711398
O O2 0.367711 0.188132 0.464404
O O3 0.049579 0.545216 0.711800
O O4 0.007741 0.819965 0.543398
O O5 0.620203 0.818207 0.551785
O O6 0.749090 0.762228 0.507052
O O7 0.813419 0.923325 0.246390
O O8 0.581645 0.534382 0.712420
#
# Coordination Sequence:
#
# PCOD9318909 Si02
#       6
#     4   4   4   8   4   8
#     4  10  21  37  66 100 142 192 238 283 347 434
#     4  10  24  42  66  94 126 174 220 296 366 420
#     4  10  22  41  66  92 130 176 236 285 354 442
#     4  10  21  38  62  98 143 185 234 291 346 410
#     4  10  23  44  66  98 140 172 228 302 371 424
#     4  10  21  39  66 100 134 181 235 289 348 427
#
# _framework density 29.372228
#
# number of rings (size 3 to 8) (size 9 to 14) (size 15 to 20)
#    0.000    2.000    0.000    2.250    0.000   10.000 
#    0.000    5.000    0.000    0.000    0.000    0.000 
#    0.000    0.000    0.000    0.000    0.000    0.000 
#
# Total GULP energy -89402.043816 kJ/mol
# GULP energy per Si atom -5587.627739 kJ/mol
# Density = 2.930538 g / cm^3
# Si number density = 29.372228 Si / 1000 Ang^3
#
#
#
# Elastic Constant Matrix: (Units=GPa)
#
#
# Indices 1 2 3 4 5 6 
#
# 1 129.9963 35.8448 71.0890 0.0000 0.0000 0.0000
# 2 35.8448 116.6227 55.3886 0.0000 0.0000 0.0000
# 3 71.0890 55.3886 164.5367 0.0000 0.0000 0.0000
# 4 0.0000 0.0000 0.0000 71.1387 0.0000 0.0000
# 5 0.0000 0.0000 0.0000 0.0000 46.8071 0.0000
# 6 0.0000 0.0000 0.0000 0.0000 0.0000 34.2569
#
#
#
# Elastic Compliance Matrix: (Units=1/GPa)
#
#
# Indices 1 2 3 4 5 6 
#
# 1 0.010221 -0.001243 -0.003998 0.000000 0.000000 0.000000
# 2 -0.001243 0.010358 -0.002950 0.000000 0.000000 0.000000
# 3 -0.003998 -0.002950 0.008798 0.000000 0.000000 0.000000
# 4 0.000000 0.000000 0.000000 0.014057 0.000000 0.000000
# 5 0.000000 0.000000 0.000000 0.000000 0.021364 0.000000
# 6 0.000000 0.000000 0.000000 0.000000 0.000000 0.029191
#
#
# Mechanical properties :
#
#
# Convention : Reuss Voigt Hill
#
# Bulk Modulus (GPa) = 76.94623 81.75561 79.35092
# Shear Modulus (GPa) = 43.59103 47.02944 45.31023
#
# Velocity S-wave (km/s) = 3.85657 4.00578 3.93188
# Velocity P-wave (km/s) = 6.78857 7.02067 6.90559
#
# Compressibility (1/GPa) = 0.01299609
#
# Stress axis : x y z
#
# Youngs Moduli (GPa) = 97.83318 96.54741 113.66305
#
# Poissons Ratio (x) = 0.12000 0.45441
# Poissons Ratio (y) = 0.12160 0.33527
# Poissons Ratio (z) = 0.39112 0.28479
#
# Static dielectric constant tensor:
#      x y z
#    x 2.260870 0.000000 0.000000 
#    y 0.000000 2.350830 0.000000 
#    z 0.000000 0.000000 2.305020 
# 
# From -- ./inp_files/652.got.cif
#   From: 2010.05.17/outbox.cif.g08.bks.cpg/sg20_1_cif.got.tgz:652.got - 2010.06.03 22:52:26.
