data_PCOD9318868
_publ_section_title
;
Structure prediction by ZEFSAII (Michael W. Deem and Ramdas Pophale) SiO2 
 PCOD9318868
Probable space group: C 2 2 21
;
_chemical_formula_sum "Si O2"
_cell_formula_units_Z 48
_cell_length_a 5.039622
_cell_length_b 29.863653
_cell_length_c 15.972103
_cell_angle_alpha 90.000000
_cell_angle_beta 90.000000
_cell_angle_gamma 90.000000
_cell_volume 2403.825822
_symmetry_space_group_name_H-M "C 2 2 21"
_symmetry_group_IT_number 20
_symmetry_cell_setting 'orthorhombic'
loop_
_space_group_symop_operation_xyz
x,y,z
-x,-y,1/2+z
x,-y,-z
-x,y,1/2-z
1/2+x,1/2+y,z
1/2-x,1/2-y,1/2+z
1/2+x,1/2-y,-z
1/2-x,1/2+y,1/2-z
loop_
_atom_site_type_symbol
_atom_site_label
_atom_site_fract_x
_atom_site_fract_y
_atom_site_fract_z
Si Si1 0.906283 0.607455 0.661718
Si Si2 0.596353 0.656666 0.892205
Si Si3 0.757980 0.825277 0.693320
Si Si4 0.443575 0.947647 0.507172
Si Si5 0.058926 0.102790 0.064997
Si Si6 0.392140 0.249724 0.058282
O O1 0.611175 0.626629 0.659122
O O2 0.935147 0.572781 0.586166
O O3 0.000000 0.588433 0.750000
O O4 0.109600 0.647852 0.640697
O O5 0.503741 0.707481 0.892396
O O6 0.578737 0.637892 0.987352
O O7 0.500000 0.833926 0.750000
O O8 0.867413 0.869631 0.647252
O O9 0.677091 0.790064 0.621409
O O10 0.000000 0.807354 0.750000
O O11 0.727876 0.935774 0.545792
O O12 0.227665 0.919946 0.560473
O O13 0.389873 0.000000 0.500000
O O14 0.628350 0.237213 0.993805
#
# Coordination Sequence:
#
# PCOD9318868 Si02
#       6
#     8   8   8   8   8   8
#     4  10  21  37  59  89 126 155 197 263 318 360
#     4  10  21  37  62  86 115 166 206 245 308 377
#     4  12  26  42  62  94 132 172 216 269 318 367
#     4  10  21  39  67  95 118 162 214 253 310 398
#     4  10  21  41  63  86 125 162 206 254 315 383
#     4  12  24  40  65  89 125 170 222 261 306 373
#
# _framework density 19.968169
#
# number of rings (size 3 to 8) (size 9 to 14) (size 15 to 20)
#    0.000    1.333    1.667    4.000    4.667    2.000 
#    0.000    2.500    0.000    2.000    0.000    0.000 
#    0.000    0.000    0.000    0.000    0.000    0.000 
#
# Total GULP energy -134188.730858 kJ/mol
# GULP energy per Si atom -5591.197119 kJ/mol
# Density = 1.992272 g / cm^3
# Si number density = 19.968169 Si / 1000 Ang^3
#
#
#
# Elastic Constant Matrix: (Units=GPa)
#
#
# Indices 1 2 3 4 5 6 
#
# 1 95.9479 7.2868 42.9961 0.0000 0.0000 0.0000
# 2 7.2868 86.1784 35.4250 0.0000 0.0000 0.0000
# 3 42.9961 35.4250 100.1008 0.0000 0.0000 0.0000
# 4 0.0000 0.0000 0.0000 8.6993 0.0000 0.0000
# 5 0.0000 0.0000 0.0000 0.0000 40.8231 0.0000
# 6 0.0000 0.0000 0.0000 0.0000 0.0000 19.9189
#
#
#
# Elastic Compliance Matrix: (Units=1/GPa)
#
#
# Indices 1 2 3 4 5 6 
#
# 1 0.013050 0.001405 -0.006103 0.000000 0.000000 0.000000
# 2 0.001405 0.013731 -0.005463 0.000000 0.000000 0.000000
# 3 -0.006103 -0.005463 0.014544 0.000000 0.000000 0.000000
# 4 0.000000 0.000000 0.000000 0.114952 0.000000 0.000000
# 5 0.000000 0.000000 0.000000 0.000000 0.024496 0.000000
# 6 0.000000 0.000000 0.000000 0.000000 0.000000 0.050204
#
#
# Mechanical properties :
#
#
# Convention : Reuss Voigt Hill
#
# Bulk Modulus (GPa) = 47.60828 50.40477 49.00652
# Shear Modulus (GPa) = 19.35743 26.98954 23.17348
#
# Velocity S-wave (km/s) = 3.11692 3.68044 3.41034
# Velocity P-wave (km/s) = 6.07021 6.58469 6.33268
#
# Compressibility (1/GPa) = 0.02100475
#
# Stress axis : x y z
#
# Youngs Moduli (GPa) = 76.62608 72.83028 68.75467
#
# Poissons Ratio (x) = -0.10234 0.41960
# Poissons Ratio (y) = -0.10767 0.37559
# Poissons Ratio (z) = 0.46763 0.39785
#
# Static dielectric constant tensor:
#      x y z
#    x 1.694570 0.000000 0.000000 
#    y 0.000000 1.667020 0.000000 
#    z 0.000000 0.000000 1.719660 
# 
# From -- ./inp_files/17779.got.cif
#   From: 2010.05.17/outbox.cif.g08.bks.cpg/sg20_9_cif.got.tgz:17779.got - 2010.06.03 22:52:26.
