data_PCOD9318596
_publ_section_title
;
Structure prediction by ZEFSAII (Michael W. Deem and Ramdas Pophale) SiO2 
 PCOD9318596
Probable space group: C 2 2 21
;
_chemical_formula_sum "Si O2"
_cell_formula_units_Z 48
_cell_length_a 9.420374
_cell_length_b 17.658738
_cell_length_c 14.526902
_cell_angle_alpha 90.000000
_cell_angle_beta 90.000000
_cell_angle_gamma 90.000000
_cell_volume 2416.577986
_symmetry_space_group_name_H-M "C 2 2 21"
_symmetry_group_IT_number 20
_symmetry_cell_setting 'orthorhombic'
loop_
_space_group_symop_operation_xyz
x,y,z
-x,-y,1/2+z
x,-y,-z
-x,y,1/2-z
1/2+x,1/2+y,z
1/2-x,1/2-y,1/2+z
1/2+x,1/2-y,-z
1/2-x,1/2+y,1/2-z
loop_
_atom_site_type_symbol
_atom_site_label
_atom_site_fract_x
_atom_site_fract_y
_atom_site_fract_z
Si Si1 0.000000 0.235928 0.750000
Si Si2 0.548333 0.824987 0.934911
Si Si3 0.000000 0.572333 0.750000
Si Si4 0.090924 0.864235 0.840250
Si Si5 0.141744 0.535286 0.402099
Si Si6 0.696931 0.794958 0.234306
Si Si7 0.138730 0.778084 0.564635
O O1 0.042600 0.289688 0.833355
O O2 0.137705 0.188571 0.725587
O O3 0.489730 0.909159 0.925477
O O4 0.709319 0.810335 0.966846
O O5 0.435742 0.778602 0.994887
O O6 0.916196 0.522831 0.825201
O O7 0.890257 0.631860 0.705028
O O8 0.221500 0.918523 0.864378
O O9 0.157867 0.781124 0.820406
O O10 0.000000 0.887598 0.750000
O O11 0.971529 0.846405 0.916442
O O12 0.183929 0.500000 0.500000
O O13 0.661305 0.769398 0.339878
#
# Coordination Sequence:
#
# PCOD9318596 Si02
#       7
#     4   8   4   8   8   8   8
#     4  10  21  36  68  95 124 168 236 272 327 388
#     4  11  22  39  64 103 131 177 223 288 335 417
#     4  12  25  42  68 101 148 184 224 292 363 422
#     4  10  21  43  75  95 129 183 233 287 344 422
#     4  12  27  42  68 101 151 185 228 287 375 423
#     4  10  20  42  66  97 127 173 235 278 335 403
#     4  10  21  37  72  97 126 171 246 284 327 394
#
# _framework density 19.8628
#
# number of rings (size 3 to 8) (size 9 to 14) (size 15 to 20)
#    0.000    1.333    4.167    2.500    4.667    1.333 
#    1.500    0.833    3.667    0.000    0.000    0.000 
#    0.000    0.000    0.000    0.000    0.000    0.000 
#
# Total GULP energy -134002.874866 kJ/mol
# GULP energy per Si atom -5583.453119 kJ/mol
# Density = 1.981759 g / cm^3
# Si number density = 19.862800 Si / 1000 Ang^3
#
#
#
# Elastic Constant Matrix: (Units=GPa)
#
#
# Indices 1 2 3 4 5 6 
#
# 1 183.0029 76.6558 32.6715 0.0000 0.0000 0.0000
# 2 76.6558 117.2783 44.3561 0.0000 0.0000 0.0000
# 3 32.6715 44.3561 68.6815 0.0000 0.0000 0.0000
# 4 0.0000 0.0000 0.0000 34.7593 0.0000 0.0000
# 5 0.0000 0.0000 0.0000 0.0000 27.4268 0.0000
# 6 0.0000 0.0000 0.0000 0.0000 0.0000 40.8491
#
#
#
# Elastic Compliance Matrix: (Units=1/GPa)
#
#
# Indices 1 2 3 4 5 6 
#
# 1 0.007539 -0.004726 -0.000534 0.000000 0.000000 0.000000
# 2 -0.004726 0.014245 -0.006952 0.000000 0.000000 0.000000
# 3 -0.000534 -0.006952 0.019304 0.000000 0.000000 0.000000
# 4 0.000000 0.000000 0.000000 0.028769 0.000000 0.000000
# 5 0.000000 0.000000 0.000000 0.000000 0.036461 0.000000
# 6 0.000000 0.000000 0.000000 0.000000 0.000000 0.024480
#
#
# Mechanical properties :
#
#
# Convention : Reuss Voigt Hill
#
# Bulk Modulus (GPa) = 60.00868 75.14771 67.57819
# Shear Modulus (GPa) = 31.09914 34.95902 33.02908
#
# Velocity S-wave (km/s) = 3.96118 4.19982 4.08224
# Velocity P-wave (km/s) = 7.15531 7.83795 7.50440
#
# Compressibility (1/GPa) = 0.01666426
#
# Stress axis : x y z
#
# Youngs Moduli (GPa) = 132.63807 70.20127 51.80361
#
# Poissons Ratio (x) = 0.33175 0.02769
# Poissons Ratio (y) = 0.62681 0.36012
# Poissons Ratio (z) = 0.07089 0.48801
#
# Static dielectric constant tensor:
#      x y z
#    x 1.748340 0.000000 0.000000 
#    y 0.000000 1.679990 0.000000 
#    z 0.000000 0.000000 1.759080 
# 
# From -- ./inp_files/18956.got.cif
#   From: 2010.05.17/outbox.cif.g08.bks.cpg/sg20_10_cif.got.tgz:18956.got - 2010.06.03 22:52:26.
