data_PCOD9318977
_publ_section_title
;
Structure prediction by ZEFSAII (Michael W. Deem and Ramdas Pophale) SiO2 
 PCOD9318977
Probable space group: C 2 2 21
;
_chemical_formula_sum "Si O2"
_cell_formula_units_Z 60
_cell_length_a 14.404875
_cell_length_b 20.486019
_cell_length_c 9.785156
_cell_angle_alpha 90.000000
_cell_angle_beta 90.000000
_cell_angle_gamma 90.000000
_cell_volume 2887.585278
_symmetry_space_group_name_H-M "C 2 2 21"
_symmetry_group_IT_number 20
_symmetry_cell_setting 'orthorhombic'
loop_
_space_group_symop_operation_xyz
x,y,z
-x,-y,1/2+z
x,-y,-z
-x,y,1/2-z
1/2+x,1/2+y,z
1/2-x,1/2-y,1/2+z
1/2+x,1/2-y,-z
1/2-x,1/2+y,1/2-z
loop_
_atom_site_type_symbol
_atom_site_label
_atom_site_fract_x
_atom_site_fract_y
_atom_site_fract_z
Si Si1 0.955353 0.366101 0.606205
Si Si2 0.557466 0.210799 0.874185
Si Si3 0.241267 0.500000 0.000000
Si Si4 0.085676 0.071841 0.063499
Si Si5 0.420355 0.061739 0.644279
Si Si6 0.208357 0.809229 0.991245
Si Si7 0.767788 0.298182 0.699885
Si Si8 0.880503 0.898273 0.875430
O O1 0.000328 0.311123 0.508059
O O2 0.957565 0.429510 0.511274
O O3 0.850769 0.340303 0.631536
O O4 0.000000 0.375368 0.750000
O O5 0.500000 0.237951 0.750000
O O6 0.598144 0.139798 0.825728
O O7 0.630260 0.262395 0.925109
O O8 0.174231 0.478267 0.125963
O O9 0.308356 0.558847 0.039337
O O10 0.162219 0.119676 0.996831
O O11 0.107799 0.069773 0.225206
O O12 0.981753 0.102377 0.055918
O O13 0.085372 0.000000 0.000000
O O14 0.500000 0.040873 0.750000
O O15 0.279746 0.806314 0.863492
O O16 0.231767 0.774044 0.133956
O O17 0.671050 0.330460 0.653214
#
# Coordination Sequence:
#
# PCOD9318977 Si02
#       8
#     8   8   4   8   8   8   8   8
#     4   9  17  34  54  76 121 154 187 250 319 381
#     4   8  17  34  55  82 111 151 197 250 310 376
#     4  12  18  38  68  82 120 176 214 266 314 386
#     4  10  22  42  62  93 132 174 219 262 335 387
#     4   9  20  37  57  87 120 155 214 259 316 392
#     4  10  21  38  63  89 125 157 212 273 314 398
#     4  10  21  40  57  93 119 159 213 264 332 376
#     4  10  21  40  67  88 127 174 217 269 319 393
#
# _framework density 20.778607000000001
#
# number of rings (size 3 to 8) (size 9 to 14) (size 15 to 20)
#    0.800    1.600    2.000    0.000    3.733    1.600 
#    7.200    1.333    2.933    0.000    0.000    0.000 
#    0.000    0.000    0.000    0.000    0.000    0.000 
#
# Total GULP energy -167034.726934 kJ/mol
# GULP energy per Si atom -5567.824231 kJ/mol
# Density = 2.073131 g / cm^3
# Si number density = 20.778607 Si / 1000 Ang^3
#
#
#
# Elastic Constant Matrix: (Units=GPa)
#
#
# Indices 1 2 3 4 5 6 
#
# 1 71.8714 31.5914 49.9009 0.0000 0.0000 0.0000
# 2 31.5914 65.7368 13.9229 0.0000 0.0000 0.0000
# 3 49.9009 13.9229 75.1403 0.0000 0.0000 0.0000
# 4 0.0000 0.0000 0.0000 26.2393 0.0000 0.0000
# 5 0.0000 0.0000 0.0000 0.0000 33.0039 0.0000
# 6 0.0000 0.0000 0.0000 0.0000 0.0000 46.9646
#
#
#
# Elastic Compliance Matrix: (Units=1/GPa)
#
#
# Indices 1 2 3 4 5 6 
#
# 1 0.032440 -0.011477 -0.019417 0.000000 0.000000 0.000000
# 2 -0.011477 0.019894 0.003936 0.000000 0.000000 0.000000
# 3 -0.019417 0.003936 0.025474 0.000000 0.000000 0.000000
# 4 0.000000 0.000000 0.000000 0.038111 0.000000 0.000000
# 5 0.000000 0.000000 0.000000 0.000000 0.030299 0.000000
# 6 0.000000 0.000000 0.000000 0.000000 0.000000 0.021293
#
#
# Mechanical properties :
#
#
# Convention : Reuss Voigt Hill
#
# Bulk Modulus (GPa) = 41.85569 44.84208 43.34889
# Shear Modulus (GPa) = 21.79681 29.06380 25.43030
#
# Velocity S-wave (km/s) = 3.24234 3.74403 3.50218
# Velocity P-wave (km/s) = 5.84846 6.34965 6.10420
#
# Compressibility (1/GPa) = 0.02389162
#
# Stress axis : x y z
#
# Youngs Moduli (GPa) = 30.82618 50.26570 39.25581
#
# Poissons Ratio (x) = 0.57692 0.76222
# Poissons Ratio (y) = 0.35380 -0.15451
# Poissons Ratio (z) = 0.59855 -0.19784
#
# Static dielectric constant tensor:
#      x y z
#    x 1.793660 0.000000 0.000000 
#    y 0.000000 1.798250 0.000000 
#    z 0.000000 0.000000 1.794690 
# 
# From -- ./inp_files/15309.got.cif
#   From: 2010.05.17/outbox.cif.g08.bks.cpg/sg20_8_cif.got.tgz:15309.got - 2010.06.03 22:52:26.
