data_PCOD9318892
_publ_section_title
;
Structure prediction by ZEFSAII (Michael W. Deem and Ramdas Pophale) SiO2 
 PCOD9318892
Probable space group: C 2 2 21
;
_chemical_formula_sum "Si O2"
_cell_formula_units_Z 48
_cell_length_a 30.468990
_cell_length_b 5.061935
_cell_length_c 14.272420
_cell_angle_alpha 90.000000
_cell_angle_beta 90.000000
_cell_angle_gamma 90.000000
_cell_volume 2201.264551
_symmetry_space_group_name_H-M "C 2 2 21"
_symmetry_group_IT_number 20
_symmetry_cell_setting 'orthorhombic'
loop_
_space_group_symop_operation_xyz
x,y,z
-x,-y,1/2+z
x,-y,-z
-x,y,1/2-z
1/2+x,1/2+y,z
1/2-x,1/2-y,1/2+z
1/2+x,1/2-y,-z
1/2-x,1/2+y,1/2-z
loop_
_atom_site_type_symbol
_atom_site_label
_atom_site_fract_x
_atom_site_fract_y
_atom_site_fract_z
Si Si1 0.986156 0.500000 0.000000
Si Si2 0.537237 0.759226 0.829475
Si Si3 0.284882 0.686253 0.850170
Si Si4 0.191833 0.314565 0.229282
Si Si5 0.593264 0.304941 0.584685
Si Si6 0.593175 0.715619 0.206593
Si Si7 0.832932 0.500000 0.000000
O O1 0.953388 0.319297 0.060506
O O2 0.014084 0.659829 0.074305
O O3 0.500000 0.707701 0.750000
O O4 0.566595 0.502544 0.849913
O O5 0.567084 0.007507 0.796052
O O6 0.232311 0.711817 0.842682
O O7 0.298742 0.399518 0.812065
O O8 0.303871 0.896210 0.774716
O O9 0.303502 0.779102 0.949969
O O10 0.144193 0.263473 0.185767
O O11 0.603243 0.500000 0.500000
O O12 0.592208 0.410266 0.688668
O O13 0.632523 0.095335 0.578752
#
# Coordination Sequence:
#
# PCOD9318892 Si02
#       7
#     4   8   8   8   8   8   4
#     4  11  26  44  62  96 132 174 222 280 338 387
#     4  12  26  44  66  95 129 177 220 277 332 397
#     4  10  21  37  62  92 131 161 210 258 327 392
#     4  10  21  40  62  90 125 175 206 258 320 391
#     4  11  23  38  67  95 132 164 216 289 332 386
#     4  12  24  42  67  96 130 170 227 264 328 404
#     4  11  22  36  60 104 126 164 208 280 336 377
#
# _framework density 21.80565
#
# number of rings (size 3 to 8) (size 9 to 14) (size 15 to 20)
#    0.000    1.000    3.333    3.500    4.667    0.000 
#    0.000    1.667    0.000    0.000    0.000    0.000 
#    0.000    0.000    0.000    0.000    0.000    0.000 
#
# Total GULP energy -134245.921796 kJ/mol
# GULP energy per Si atom -5593.580075 kJ/mol
# Density = 2.175602 g / cm^3
# Si number density = 21.805650 Si / 1000 Ang^3
#
#
#
# Elastic Constant Matrix: (Units=GPa)
#
#
# Indices 1 2 3 4 5 6 
#
# 1 178.1588 28.3129 22.1429 0.0000 0.0000 0.0000
# 2 28.3129 72.9742 -14.5553 0.0000 0.0000 0.0000
# 3 22.1429 -14.5553 42.0890 0.0000 0.0000 0.0000
# 4 0.0000 0.0000 0.0000 24.9244 0.0000 0.0000
# 5 0.0000 0.0000 0.0000 0.0000 26.5715 0.0000
# 6 0.0000 0.0000 0.0000 0.0000 0.0000 -3.4545
#
#
#
# Elastic Compliance Matrix: (Units=1/GPa)
#
#
# Indices 1 2 3 4 5 6 
#
# 1 0.006781 -0.003590 -0.004809 0.000000 0.000000 0.000000
# 2 -0.003590 0.016620 0.007636 0.000000 0.000000 0.000000
# 3 -0.004809 0.007636 0.028930 0.000000 0.000000 0.000000
# 4 0.000000 0.000000 0.000000 0.040121 0.000000 0.000000
# 5 0.000000 0.000000 0.000000 0.000000 0.037634 0.000000
# 6 0.000000 0.000000 0.000000 0.000000 0.000000 -0.289476
#
#
# Mechanical properties :
#
#
# Convention : Reuss Voigt Hill
#
# Bulk Modulus (GPa) = 19.68332 40.55810 30.12071
# Shear Modulus (GPa) = -35.47914 26.76304 -4.35805
#
# Velocity S-wave (km/s) = -4.03806 3.50715 -1.41525
# Velocity P-wave (km/s) = 3.56300 5.91949 3.34256
#
# Compressibility (1/GPa) = 0.05080445
#
# Stress axis : x y z
#
# Youngs Moduli (GPa) = 147.46544 60.17008 34.56613
#
# Poissons Ratio (x) = 0.21603 0.16623
# Poissons Ratio (y) = 0.52944 -0.26395
# Poissons Ratio (z) = 0.70919 -0.45947
#
# Static dielectric constant tensor:
#      x y z
#    x 1.793430 0.000000 0.000000 
#    y 0.000000 1.853170 0.000000 
#    z 0.000000 0.000000 1.795350 
# 
# From -- ./inp_files/22258.got.cif
#   From: 2010.05.17/outbox.cif.g08.bks.cpg/sg20_12_cif.got.tgz:22258.got - 2010.06.03 22:52:26.
