data_PCOD9318844
_publ_section_title
;
Structure prediction by ZEFSAII (Michael W. Deem and Ramdas Pophale) SiO2 
 PCOD9318844
Probable space group: C 2 2 21
;
_chemical_formula_sum "Si O2"
_cell_formula_units_Z 60
_cell_length_a 24.968326
_cell_length_b 5.434736
_cell_length_c 20.320200
_cell_angle_alpha 90.000000
_cell_angle_beta 90.000000
_cell_angle_gamma 90.000000
_cell_volume 2757.375146
_symmetry_space_group_name_H-M "C 2 2 21"
_symmetry_group_IT_number 20
_symmetry_cell_setting 'orthorhombic'
loop_
_space_group_symop_operation_xyz
x,y,z
-x,-y,1/2+z
x,-y,-z
-x,y,1/2-z
1/2+x,1/2+y,z
1/2-x,1/2-y,1/2+z
1/2+x,1/2-y,-z
1/2-x,1/2+y,1/2-z
loop_
_atom_site_type_symbol
_atom_site_label
_atom_site_fract_x
_atom_site_fract_y
_atom_site_fract_z
Si Si1 0.762068 0.085144 0.396688
Si Si2 0.946542 0.518180 0.419833
Si Si3 0.680168 0.000000 0.500000
Si Si4 0.998717 0.983897 0.920333
Si Si5 0.375297 0.388879 0.926640
Si Si6 0.699694 0.033068 0.259159
Si Si7 0.823454 0.433328 0.577227
Si Si8 0.182134 0.970237 0.707827
O O1 0.722547 0.154100 0.457009
O O2 0.792508 0.825465 0.410741
O O3 0.725840 0.045511 0.332420
O O4 0.800610 0.318152 0.389859
O O5 0.949897 0.500000 0.500000
O O6 0.966304 0.249214 0.396900
O O7 0.885544 0.584685 0.403422
O O8 0.982955 0.747069 0.396898
O O9 0.642216 0.887072 0.444247
O O10 0.936463 0.928649 0.907285
O O11 0.003753 0.000000 0.000000
O O12 0.338582 0.476377 0.866542
O O13 0.367023 0.500000 0.000000
O O14 0.752944 0.038684 0.214564
O O15 0.667140 0.284264 0.252926
O O16 0.665968 0.785213 0.258478
O O17 0.821752 0.500000 0.500000
#
# Coordination Sequence:
#
# PCOD9318844 Si02
#       8
#     8   8   4   8   8   8   8   8
#     4  12  22  34  52  81 112 151 179 219 270 333
#     4   9  18  34  51  72 103 138 175 233 266 323
#     4  12  24  32  52  78 128 144 176 214 276 328
#     4   9  19  32  51  74 104 136 181 215 276 325
#     4  11  24  34  56  83 114 152 176 222 279 340
#     4  10  21  37  55  74 106 151 194 225 253 306
#     4  11  21  34  53  79 108 142 185 222 283 329
#     4  10  21  38  55  75 107 150 192 223 258 311
#
# _framework density 21.759824999999999
#
# number of rings (size 3 to 8) (size 9 to 14) (size 15 to 20)
#    0.000    1.600    2.667    2.400    6.533    2.133 
#    0.000    0.000    0.000    0.000    0.000    5.600 
#    0.000    0.000    0.000    0.000    0.000    0.000 
#
# Total GULP energy -167353.793869 kJ/mol
# GULP energy per Si atom -5578.459796 kJ/mol
# Density = 2.171030 g / cm^3
# Si number density = 21.759825 Si / 1000 Ang^3
#
#
#
# Elastic Constant Matrix: (Units=GPa)
#
#
# Indices 1 2 3 4 5 6 
#
# 1 96.4426 55.7637 19.3716 0.0000 0.0000 0.0000
# 2 55.7637 175.5123 -0.6519 0.0000 0.0000 0.0000
# 3 19.3716 -0.6519 50.6741 0.0000 0.0000 0.0000
# 4 0.0000 0.0000 0.0000 22.7863 0.0000 0.0000
# 5 0.0000 0.0000 0.0000 0.0000 9.0362 0.0000
# 6 0.0000 0.0000 0.0000 0.0000 0.0000 30.5374
#
#
#
# Elastic Compliance Matrix: (Units=1/GPa)
#
#
# Indices 1 2 3 4 5 6 
#
# 1 0.014053 -0.004485 -0.005430 0.000000 0.000000 0.000000
# 2 -0.004485 0.007129 0.001806 0.000000 0.000000 0.000000
# 3 -0.005430 0.001806 0.021833 0.000000 0.000000 0.000000
# 4 0.000000 0.000000 0.000000 0.043886 0.000000 0.000000
# 5 0.000000 0.000000 0.000000 0.000000 0.110666 0.000000
# 6 0.000000 0.000000 0.000000 0.000000 0.000000 0.032747
#
#
# Mechanical properties :
#
#
# Convention : Reuss Voigt Hill
#
# Bulk Modulus (GPa) = 37.31644 52.39954 44.85799
# Shear Modulus (GPa) = 19.57226 29.01501 24.29364
#
# Velocity S-wave (km/s) = 3.00237 3.65557 3.34495
# Velocity P-wave (km/s) = 5.40420 6.47694 5.96473
#
# Compressibility (1/GPa) = 0.02679784
#
# Stress axis : x y z
#
# Youngs Moduli (GPa) = 71.16049 140.26652 45.80253
#
# Poissons Ratio (x) = 0.62909 0.24870
# Poissons Ratio (y) = 0.31915 -0.08273
# Poissons Ratio (z) = 0.38638 -0.25335
#
# Static dielectric constant tensor:
#      x y z
#    x 1.743990 0.000000 0.000000 
#    y 0.000000 1.988640 0.000000 
#    z 0.000000 0.000000 1.840620 
# 
# From -- ./inp_files/29544.got.cif
#   From: 2010.05.17/outbox.cif.g08.bks.cpg/sg20_15_cif.got.tgz:29544.got - 2010.06.03 22:52:26.
