data_PCOD9318991
_publ_section_title
;
Structure prediction by ZEFSAII (Michael W. Deem and Ramdas Pophale) SiO2 
 PCOD9318991
Probable space group: C 2 2 21
;
_chemical_formula_sum "Si O2"
_cell_formula_units_Z 64
_cell_length_a 8.688967
_cell_length_b 22.732846
_cell_length_c 14.324903
_cell_angle_alpha 90.000000
_cell_angle_beta 90.000000
_cell_angle_gamma 90.000000
_cell_volume 2829.525730
_symmetry_space_group_name_H-M "C 2 2 21"
_symmetry_group_IT_number 20
_symmetry_cell_setting 'orthorhombic'
loop_
_space_group_symop_operation_xyz
x,y,z
-x,-y,1/2+z
x,-y,-z
-x,y,1/2-z
1/2+x,1/2+y,z
1/2-x,1/2-y,1/2+z
1/2+x,1/2-y,-z
1/2-x,1/2+y,1/2-z
loop_
_atom_site_type_symbol
_atom_site_label
_atom_site_fract_x
_atom_site_fract_y
_atom_site_fract_z
Si Si1 0.875112 0.129640 0.885745
Si Si2 0.657792 0.042358 0.298344
Si Si3 0.677156 0.341674 0.723734
Si Si4 0.176931 0.778209 0.233916
Si Si5 0.144241 0.037110 0.902364
Si Si6 0.128659 0.797160 0.021975
Si Si7 0.831565 0.333796 0.521732
Si Si8 0.846754 0.609178 0.023094
O O1 0.821247 0.161471 0.791980
O O2 0.996973 0.077615 0.880514
O O3 0.960157 0.181189 0.947310
O O4 0.728653 0.117814 0.948883
O O5 0.500000 0.022663 0.250000
O O6 0.716735 0.104390 0.257706
O O7 0.624285 0.056854 0.405834
O O8 0.802619 0.999194 0.311701
O O9 0.500000 0.354003 0.750000
O O10 0.719060 0.276705 0.762287
O O11 0.727729 0.336676 0.614641
O O12 0.206280 0.793043 0.125381
O O13 0.000000 0.756969 0.250000
O O14 0.289915 0.078794 0.928114
O O15 0.112452 0.000000 0.000000
O O16 0.153467 0.732589 0.982571
O O17 0.201220 0.847844 0.958755
O O18 0.007931 0.350026 0.537048
#
# Coordination Sequence:
#
# PCOD9318991 Si02
#       8
#     8   8   8   8   8   8   8   8
#     4  10  21  38  65  91 136 179 220 269 340 397
#     4  11  22  44  72  92 123 173 229 282 340 389
#     4  11  25  37  61 101 139 167 222 278 332 404
#     4   9  20  39  61  91 134 176 217 262 328 411
#     4   9  22  43  67  90 127 179 223 283 333 395
#     4   9  20  36  60  93 133 176 216 253 330 406
#     4  11  22  36  60 102 131 168 215 271 333 403
#     4  10  21  40  63  90 130 170 222 264 330 403
#
# _framework density 22.618632000000002
#
# number of rings (size 3 to 8) (size 9 to 14) (size 15 to 20)
#    0.000    2.000    1.250    1.125   10.500    2.000 
#    0.000   11.250    0.000    0.750    0.000    0.000 
#    0.000    0.000    0.000    0.000    0.000    0.000 
#
# Total GULP energy -178330.891714 kJ/mol
# GULP energy per Si atom -5572.840366 kJ/mol
# Density = 2.256715 g / cm^3
# Si number density = 22.618632 Si / 1000 Ang^3
#
#
#
# Elastic Constant Matrix: (Units=GPa)
#
#
# Indices 1 2 3 4 5 6 
#
# 1 24.0784 0.3070 -3.0946 0.0000 0.0000 0.0000
# 2 0.3070 82.4216 16.9004 0.0000 0.0000 0.0000
# 3 -3.0946 16.9004 59.8112 0.0000 0.0000 0.0000
# 4 0.0000 0.0000 0.0000 21.5423 0.0000 0.0000
# 5 0.0000 0.0000 0.0000 0.0000 24.2927 0.0000
# 6 0.0000 0.0000 0.0000 0.0000 0.0000 26.6729
#
#
#
# Elastic Compliance Matrix: (Units=1/GPa)
#
#
# Indices 1 2 3 4 5 6 
#
# 1 0.041840 -0.000637 0.002345 0.000000 0.000000 0.000000
# 2 -0.000637 0.012889 -0.003675 0.000000 0.000000 0.000000
# 3 0.002345 -0.003675 0.017879 0.000000 0.000000 0.000000
# 4 0.000000 0.000000 0.000000 0.046420 0.000000 0.000000
# 5 0.000000 0.000000 0.000000 0.000000 0.041165 0.000000
# 6 0.000000 0.000000 0.000000 0.000000 0.000000 0.037491
#
#
# Mechanical properties :
#
#
# Convention : Reuss Voigt Hill
#
# Bulk Modulus (GPa) = 14.56143 21.61520 18.08832
# Shear Modulus (GPa) = 22.27082 24.64815 23.45949
#
# Velocity S-wave (km/s) = 3.14127 3.30468 3.22401
# Velocity P-wave (km/s) = 4.42816 4.91308 4.67691
#
# Compressibility (1/GPa) = 0.06867458
#
# Stress axis : x y z
#
# Youngs Moduli (GPa) = 23.90032 77.58786 55.93171
#
# Poissons Ratio (x) = 0.04939 -0.13114
# Poissons Ratio (y) = 0.01522 0.20554
# Poissons Ratio (z) = -0.05604 0.28512
#
# Static dielectric constant tensor:
#      x y z
#    x 1.840720 0.000000 0.000000 
#    y 0.000000 1.930300 0.000000 
#    z 0.000000 0.000000 1.941620 
# 
# From -- ./inp_files/19364.got.cif
#   From: 2010.05.17/outbox.cif.g08.bks.cpg/sg20_10_cif.got.tgz:19364.got - 2010.06.03 22:52:26.
