data_PCOD9318019
_publ_section_title
;
Structure prediction by ZEFSAII (Michael W. Deem and Ramdas Pophale) SiO2 
 PCOD9318019
Probable space group: C 2 2 21
;
_chemical_formula_sum "Si O2"
_cell_formula_units_Z 56
_cell_length_a 21.090161
_cell_length_b 13.273534
_cell_length_c 9.419485
_cell_angle_alpha 90.000000
_cell_angle_beta 90.000000
_cell_angle_gamma 90.000000
_cell_volume 2636.899759
_symmetry_space_group_name_H-M "C 2 2 21"
_symmetry_group_IT_number 20
_symmetry_cell_setting 'orthorhombic'
loop_
_space_group_symop_operation_xyz
x,y,z
-x,-y,1/2+z
x,-y,-z
-x,y,1/2-z
1/2+x,1/2+y,z
1/2-x,1/2-y,1/2+z
1/2+x,1/2-y,-z
1/2-x,1/2+y,1/2-z
loop_
_atom_site_type_symbol
_atom_site_label
_atom_site_fract_x
_atom_site_fract_y
_atom_site_fract_z
Si Si1 0.051087 0.702478 0.625292
Si Si2 0.338935 0.180142 0.384443
Si Si3 0.828266 0.339397 0.296023
Si Si4 0.691782 0.397902 0.194342
Si Si5 0.531039 0.913794 0.894483
Si Si6 0.122018 0.892258 0.490900
Si Si7 0.213063 0.886178 0.747950
O O1 0.108730 0.643771 0.703638
O O2 0.080565 0.803002 0.555475
O O3 0.000000 0.723975 0.750000
O O4 0.018513 0.643999 0.495691
O O5 0.330840 0.132186 0.539917
O O6 0.325262 0.299924 0.397473
O O7 0.411335 0.157578 0.346555
O O8 0.288116 0.132997 0.274408
O O9 0.766201 0.386684 0.227923
O O10 0.816422 0.219144 0.294834
O O11 0.648422 0.377435 0.333382
O O12 0.689024 0.517587 0.162827
O O13 0.500000 0.954432 0.750000
O O14 0.555136 0.000000 0.000000
O O15 0.183716 0.902525 0.591500
O O16 0.087517 0.000000 0.500000
#
# Coordination Sequence:
#
# PCOD9318019 Si02
#       7
#     8   8   8   8   8   8   8
#     4  11  22  42  64  89 131 175 216 274 324 384
#     4  11  22  38  64  91 124 169 210 265 325 394
#     4  10  21  37  63  93 126 167 212 262 332 387
#     4  10  20  37  61  91 125 161 209 274 327 391
#     4  12  28  45  66  94 128 172 220 262 313 388
#     4   9  18  36  61  87 119 162 214 265 331 387
#     4   9  20  35  60  91 123 159 209 265 330 390
#
# _framework density 21.23706
#
# number of rings (size 3 to 8) (size 9 to 14) (size 15 to 20)
#    0.000    1.714    2.857    1.286    2.000    0.571 
#    0.000    5.000    0.000    0.000    0.000    0.000 
#    0.000    0.000    0.000    0.000    0.000    0.000 
#
# Total GULP energy -156198.781561 kJ/mol
# GULP energy per Si atom -5578.527913 kJ/mol
# Density = 2.118872 g / cm^3
# Si number density = 21.237060 Si / 1000 Ang^3
#
#
#
# Elastic Constant Matrix: (Units=GPa)
#
#
# Indices 1 2 3 4 5 6 
#
# 1 90.8965 20.5875 25.5956 0.0000 0.0000 0.0000
# 2 20.5875 84.1253 1.2686 0.0000 0.0000 0.0000
# 3 25.5956 1.2686 74.2942 0.0000 0.0000 0.0000
# 4 0.0000 0.0000 0.0000 23.1911 0.0000 0.0000
# 5 0.0000 0.0000 0.0000 0.0000 3.0065 0.0000
# 6 0.0000 0.0000 0.0000 0.0000 0.0000 25.0199
#
#
#
# Elastic Compliance Matrix: (Units=1/GPa)
#
#
# Indices 1 2 3 4 5 6 
#
# 1 0.012945 -0.003101 -0.004407 0.000000 0.000000 0.000000
# 2 -0.003101 0.012633 0.000853 0.000000 0.000000 0.000000
# 3 -0.004407 0.000853 0.014964 0.000000 0.000000 0.000000
# 4 0.000000 0.000000 0.000000 0.043120 0.000000 0.000000
# 5 0.000000 0.000000 0.000000 0.000000 0.332612 0.000000
# 6 0.000000 0.000000 0.000000 0.000000 0.000000 0.039968
#
#
# Mechanical properties :
#
#
# Convention : Reuss Voigt Hill
#
# Bulk Modulus (GPa) = 36.72310 38.24659 37.48485
# Shear Modulus (GPa) = 10.44648 23.70110 17.07379
#
# Velocity S-wave (km/s) = 2.22028 3.34432 2.83850
# Velocity P-wave (km/s) = 4.88901 5.74118 5.33214
#
# Compressibility (1/GPa) = 0.02723081
#
# Stress axis : x y z
#
# Youngs Moduli (GPa) = 77.25048 79.15660 66.82859
#
# Poissons Ratio (x) = 0.24550 0.29450
# Poissons Ratio (y) = 0.23959 -0.05699
# Poissons Ratio (z) = 0.34043 -0.06750
#
# Static dielectric constant tensor:
#      x y z
#    x 1.751650 0.000000 0.000000 
#    y 0.000000 1.826650 0.000000 
#    z 0.000000 0.000000 1.802240 
# 
# From -- ./inp_files/10181.got.cif
#   From: 2010.05.17/outbox.cif.g08.bks.cpg/sg20_6_cif.got.tgz:10181.got - 2010.06.03 22:52:26.
