data_PCOD9318383
_publ_section_title
;
Structure prediction by ZEFSAII (Michael W. Deem and Ramdas Pophale) SiO2 
 PCOD9318383
Probable space group: C 2 2 21
;
_chemical_formula_sum "Si O2"
_cell_formula_units_Z 48
_cell_length_a 12.859420
_cell_length_b 14.697445
_cell_length_c 13.104757
_cell_angle_alpha 90.000000
_cell_angle_beta 90.000000
_cell_angle_gamma 90.000000
_cell_volume 2476.807174
_symmetry_space_group_name_H-M "C 2 2 21"
_symmetry_group_IT_number 20
_symmetry_cell_setting 'orthorhombic'
loop_
_space_group_symop_operation_xyz
x,y,z
-x,-y,1/2+z
x,-y,-z
-x,y,1/2-z
1/2+x,1/2+y,z
1/2-x,1/2-y,1/2+z
1/2+x,1/2-y,-z
1/2-x,1/2+y,1/2-z
loop_
_atom_site_type_symbol
_atom_site_label
_atom_site_fract_x
_atom_site_fract_y
_atom_site_fract_z
Si Si1 0.000000 0.550663 0.250000
Si Si2 0.037574 0.171273 0.417457
Si Si3 0.225788 0.521283 0.784660
Si Si4 0.507301 0.222981 0.110476
Si Si5 0.668657 0.294743 0.253603
Si Si6 0.832073 0.000000 0.000000
Si Si7 0.839537 0.840626 0.713334
O O1 0.103003 0.491540 0.231932
O O2 0.986735 0.622027 0.154947
O O3 0.016008 0.254660 0.493925
O O4 0.926096 0.143657 0.371515
O O5 0.095377 0.086246 0.471084
O O6 0.105882 0.193482 0.317890
O O7 0.279065 0.609106 0.735109
O O8 0.259597 0.523070 0.903369
O O9 0.280417 0.432926 0.738201
O O10 0.623098 0.248599 0.150496
O O11 0.429688 0.291438 0.170752
O O12 0.753751 0.233877 0.310771
#
# Coordination Sequence:
#
# PCOD9318383 Si02
#       7
#     4   8   8   8   8   4   8
#     4  10  22  40  62  90 124 172 204 250 316 378
#     4  10  22  36  62  90 121 156 215 262 309 372
#     4  11  21  40  64  87 131 162 209 260 315 376
#     4  10  20  40  61  87 120 168 213 237 314 384
#     4  10  21  37  62  87 121 169 202 253 314 372
#     4  10  22  36  62  96 114 168 212 256 320 372
#     4  10  22  39  59  92 124 159 207 270 314 363
#
# _framework density 19.379788999999999
#
# number of rings (size 3 to 8) (size 9 to 14) (size 15 to 20)
#    0.000    2.000    5.000    0.000    2.333    5.333 
#    0.000    0.000    0.000    0.000    0.000    0.000 
#    0.000    0.000    0.000    0.000    0.000    0.000 
#
# Total GULP energy -133786.550320 kJ/mol
# GULP energy per Si atom -5574.439597 kJ/mol
# Density = 1.933568 g / cm^3
# Si number density = 19.379789 Si / 1000 Ang^3
#
#
#
# Elastic Constant Matrix: (Units=GPa)
#
#
# Indices 1 2 3 4 5 6 
#
# 1 113.9998 -19.9031 15.6296 0.0000 0.0000 0.0000
# 2 -19.9031 -40.8867 -23.3681 0.0000 0.0000 0.0000
# 3 15.6296 -23.3681 37.9549 0.0000 0.0000 0.0000
# 4 0.0000 0.0000 0.0000 16.3750 0.0000 0.0000
# 5 0.0000 0.0000 0.0000 0.0000 7.4499 0.0000
# 6 0.0000 0.0000 0.0000 0.0000 0.0000 34.1154
#
#
#
# Elastic Compliance Matrix: (Units=1/GPa)
#
#
# Indices 1 2 3 4 5 6 
#
# 1 0.009134 -0.001699 -0.004807 0.000000 0.000000 0.000000
# 2 -0.001699 -0.017776 -0.010245 0.000000 0.000000 0.000000
# 3 -0.004807 -0.010245 0.022019 0.000000 0.000000 0.000000
# 4 0.000000 0.000000 0.000000 0.061069 0.000000 0.000000
# 5 0.000000 0.000000 0.000000 0.000000 0.134231 0.000000
# 6 0.000000 0.000000 0.000000 0.000000 0.000000 0.029312
#
#
# Mechanical properties :
#
#
# Convention : Reuss Voigt Hill
#
# Bulk Modulus (GPa) = -49.69249 6.19832 -21.74708
# Shear Modulus (GPa) = 18.88333 20.83535 19.85934
#
# Velocity S-wave (km/s) = 3.12490 3.28244 3.20464
# Velocity P-wave (km/s) = 3.56049 4.19180 1.56430
#
# Compressibility (1/GPa) = -0.02012377
#
# Stress axis : x y z
#
# Youngs Moduli (GPa) = 109.47557 -56.25651 45.41458
#
# Poissons Ratio (x) = -0.09557 0.21833
# Poissons Ratio (y) = 0.18599 0.46525
# Poissons Ratio (z) = 0.52630 -0.57632
#
# Static dielectric constant tensor:
#      x y z
#    x 1.687420 0.000000 0.000000 
#    y 0.000000 1.728340 0.000000 
#    z 0.000000 0.000000 1.705250 
# 
# From -- ./inp_files/19990.got.cif
#   From: 2010.05.17/outbox.cif.g08.bks.cpg/sg20_10_cif.got.tgz:19990.got - 2010.06.03 22:52:26.
