data_PCOD9318237
_publ_section_title
;
Structure prediction by ZEFSAII (Michael W. Deem and Ramdas Pophale) SiO2 
 PCOD9318237
Probable space group: C 2 2 21
;
_chemical_formula_sum "Si O2"
_cell_formula_units_Z 40
_cell_length_a 8.739082
_cell_length_b 22.489228
_cell_length_c 8.916114
_cell_angle_alpha 90.000000
_cell_angle_beta 90.000000
_cell_angle_gamma 90.000000
_cell_volume 1752.330316
_symmetry_space_group_name_H-M "C 2 2 21"
_symmetry_group_IT_number 20
_symmetry_cell_setting 'orthorhombic'
loop_
_space_group_symop_operation_xyz
x,y,z
-x,-y,1/2+z
x,-y,-z
-x,y,1/2-z
1/2+x,1/2+y,z
1/2-x,1/2-y,1/2+z
1/2+x,1/2-y,-z
1/2-x,1/2+y,1/2-z
loop_
_atom_site_type_symbol
_atom_site_label
_atom_site_fract_x
_atom_site_fract_y
_atom_site_fract_z
Si Si1 0.315413 0.169651 0.262448
Si Si2 0.743644 0.233146 0.936657
Si Si3 0.820504 0.458101 0.786341
Si Si4 0.500000 0.831718 0.250000
Si Si5 0.500000 0.338400 0.250000
Si Si6 0.744025 0.581391 0.876691
O O1 0.500000 0.168784 0.250000
O O2 0.256190 0.214159 0.390992
O O3 0.255470 0.197907 0.107369
O O4 0.268457 0.101819 0.299334
O O5 0.584079 0.207963 0.873359
O O6 0.881700 0.201383 0.845618
O O7 0.740112 0.521821 0.773294
O O8 0.000000 0.467368 0.750000
O O9 0.793266 0.438665 0.958217
O O10 0.626015 0.874838 0.317982
O O11 0.410649 0.381940 0.362110
#
# Coordination Sequence:
#
# PCOD9318237 Si02
#       6
#     8   8   8   4   4   8
#     4  11  25  43  67 100 137 177 230 280 333 404
#     4  11  25  42  70  98 140 181 226 283 337 407
#     4  10  21  41  67  96 127 172 229 273 327 399
#     4  10  20  38  66  96 128 176 224 270 338 396
#     4  10  24  46  64 100 140 178 220 280 352 400
#     4  10  21  42  68  94 133 175 221 280 334 405
#
# _framework density 22.826747000000001
#
# number of rings (size 3 to 8) (size 9 to 14) (size 15 to 20)
#    0.000    1.600    2.000    2.400    8.400    0.000 
#    7.200    0.000    0.000    0.000    0.000    0.000 
#    0.000    0.000    0.000    0.000    0.000    0.000 
#
# Total GULP energy -111842.796099 kJ/mol
# GULP energy per Si atom -5592.139805 kJ/mol
# Density = 2.277479 g / cm^3
# Si number density = 22.826747 Si / 1000 Ang^3
#
#
#
# Elastic Constant Matrix: (Units=GPa)
#
#
# Indices 1 2 3 4 5 6 
#
# 1 61.1284 35.2222 18.2780 0.0000 0.0000 0.0000
# 2 35.2222 137.3741 13.9165 0.0000 0.0000 0.0000
# 3 18.2780 13.9165 71.2701 0.0000 0.0000 0.0000
# 4 0.0000 0.0000 0.0000 29.0929 0.0000 0.0000
# 5 0.0000 0.0000 0.0000 0.0000 32.9396 0.0000
# 6 0.0000 0.0000 0.0000 0.0000 0.0000 20.2092
#
#
#
# Elastic Compliance Matrix: (Units=1/GPa)
#
#
# Indices 1 2 3 4 5 6 
#
# 1 0.020408 -0.004797 -0.004297 0.000000 0.000000 0.000000
# 2 -0.004797 0.008554 -0.000440 0.000000 0.000000 0.000000
# 3 -0.004297 -0.000440 0.015219 0.000000 0.000000 0.000000
# 4 0.000000 0.000000 0.000000 0.034373 0.000000 0.000000
# 5 0.000000 0.000000 0.000000 0.000000 0.030359 0.000000
# 6 0.000000 0.000000 0.000000 0.000000 0.000000 0.049482
#
#
# Mechanical properties :
#
#
# Convention : Reuss Voigt Hill
#
# Bulk Modulus (GPa) = 39.82096 44.95622 42.38859
# Shear Modulus (GPa) = 26.90571 29.93874 28.42222
#
# Velocity S-wave (km/s) = 3.43693 3.62548 3.53247
# Velocity P-wave (km/s) = 5.76479 6.10432 5.93698
#
# Compressibility (1/GPa) = 0.02511240
#
# Stress axis : x y z
#
# Youngs Moduli (GPa) = 49.00029 116.90505 65.70694
#
# Poissons Ratio (x) = 0.56082 0.28235
# Poissons Ratio (y) = 0.23507 0.02891
# Poissons Ratio (z) = 0.21056 0.05144
#
# Static dielectric constant tensor:
#      x y z
#    x 1.813400 0.000000 0.000000 
#    y 0.000000 1.907520 0.000000 
#    z 0.000000 0.000000 1.872870 
# 
# From -- ./inp_files/6136.got.cif
#   From: 2010.05.17/outbox.cif.g08.bks.cpg/sg20_4_cif.got.tgz:6136.got - 2010.06.03 22:52:26.
