data_PCOD9318158
_publ_section_title
;
Structure prediction by ZEFSAII (Michael W. Deem and Ramdas Pophale) SiO2 
 PCOD9318158
Probable space group: C 2 2 21
;
_chemical_formula_sum "Si O2"
_cell_formula_units_Z 40
_cell_length_a 24.950907
_cell_length_b 11.965083
_cell_length_c 7.265070
_cell_angle_alpha 90.000000
_cell_angle_beta 90.000000
_cell_angle_gamma 90.000000
_cell_volume 2168.911623
_symmetry_space_group_name_H-M "C 2 2 21"
_symmetry_group_IT_number 20
_symmetry_cell_setting 'orthorhombic'
loop_
_space_group_symop_operation_xyz
x,y,z
-x,-y,1/2+z
x,-y,-z
-x,y,1/2-z
1/2+x,1/2+y,z
1/2-x,1/2-y,1/2+z
1/2+x,1/2-y,-z
1/2-x,1/2+y,1/2-z
loop_
_atom_site_type_symbol
_atom_site_label
_atom_site_fract_x
_atom_site_fract_y
_atom_site_fract_z
Si Si1 0.845869 0.713257 0.974029
Si Si2 0.730358 0.000000 0.500000
Si Si3 0.538132 0.874269 0.425179
Si Si4 0.500000 0.714595 0.750000
Si Si5 0.881851 0.135612 0.693678
Si Si6 0.829212 0.910828 0.703202
O O1 0.902369 0.671687 0.891141
O O2 0.824548 0.812545 0.847437
O O3 0.806231 0.608404 0.972553
O O4 0.857871 0.766996 0.175474
O O5 0.771745 0.966487 0.661219
O O6 0.500000 0.872655 0.250000
O O7 0.513480 0.794163 0.579270
O O8 0.542232 0.000000 0.500000
O O9 0.446056 0.647926 0.698624
O O10 0.855460 0.134818 0.489030
O O11 0.866367 0.013035 0.768410
#
# Coordination Sequence:
#
# PCOD9318158 Si02
#       6
#     8   4   8   4   8   8
#     4  11  22  42  61  91 120 162 202 246 304 358
#     4  10  24  38  66  90 118 160 206 252 290 372
#     4  11  21  36  60  88 123 160 198 247 299 358
#     4  10  20  38  62  86 126 160 198 246 298 360
#     4   9  21  41  61  91 122 156 200 247 297 363
#     4  10  23  43  60  90 124 154 205 255 299 352
#
# _framework density 18.442430000000002
#
# number of rings (size 3 to 8) (size 9 to 14) (size 15 to 20)
#    0.000    2.000    2.000    1.800    5.600    0.000 
#   16.200    1.000    0.000    0.000    0.000    0.000 
#    0.000    0.000    0.000    0.000    0.000    0.000 
#
# Total GULP energy -111579.136354 kJ/mol
# GULP energy per Si atom -5578.956818 kJ/mol
# Density = 1.840045 g / cm^3
# Si number density = 18.442430 Si / 1000 Ang^3
#
#
#
# Elastic Constant Matrix: (Units=GPa)
#
#
# Indices 1 2 3 4 5 6 
#
# 1 121.1067 71.5431 21.1318 0.0000 0.0000 0.0000
# 2 71.5431 130.8602 15.3134 0.0000 0.0000 0.0000
# 3 21.1318 15.3134 38.1489 0.0000 0.0000 0.0000
# 4 0.0000 0.0000 0.0000 31.8949 0.0000 0.0000
# 5 0.0000 0.0000 0.0000 0.0000 17.0919 0.0000
# 6 0.0000 0.0000 0.0000 0.0000 0.0000 14.6869
#
#
#
# Elastic Compliance Matrix: (Units=1/GPa)
#
#
# Indices 1 2 3 4 5 6 
#
# 1 0.012901 -0.006523 -0.004528 0.000000 0.000000 0.000000
# 2 -0.006523 0.011317 -0.000929 0.000000 0.000000 0.000000
# 3 -0.004528 -0.000929 0.029094 0.000000 0.000000 0.000000
# 4 0.000000 0.000000 0.000000 0.031353 0.000000 0.000000
# 5 0.000000 0.000000 0.000000 0.000000 0.058507 0.000000
# 6 0.000000 0.000000 0.000000 0.000000 0.000000 0.068088
#
#
# Mechanical properties :
#
#
# Convention : Reuss Voigt Hill
#
# Bulk Modulus (GPa) = 34.06991 56.23250 45.15120
# Shear Modulus (GPa) = 20.40782 24.87656 22.64219
#
# Velocity S-wave (km/s) = 3.33012 3.67669 3.50769
# Velocity P-wave (km/s) = 5.77062 6.97001 6.39848
#
# Compressibility (1/GPa) = 0.02935141
#
# Stress axis : x y z
#
# Youngs Moduli (GPa) = 77.51492 88.36410 34.37120
#
# Poissons Ratio (x) = 0.57642 0.15562
# Poissons Ratio (y) = 0.50564 0.03194
# Poissons Ratio (z) = 0.35096 0.08212
#
# Static dielectric constant tensor:
#      x y z
#    x 1.638710 0.000000 0.000000 
#    y 0.000000 1.611390 0.000000 
#    z 0.000000 0.000000 1.641580 
# 
# From -- ./inp_files/10526.got.cif
#   From: 2010.05.17/outbox.cif.g08.bks.cpg/sg20_6_cif.got.tgz:10526.got - 2010.06.03 22:52:26.
