data_PCOD9318558
_publ_section_title
;
Structure prediction by ZEFSAII (Michael W. Deem and Ramdas Pophale) SiO2 
 PCOD9318558
Probable space group: C 2 2 21
;
_chemical_formula_sum "Si O2"
_cell_formula_units_Z 64
_cell_length_a 11.832991
_cell_length_b 8.130595
_cell_length_c 32.889734
_cell_angle_alpha 90.000000
_cell_angle_beta 90.000000
_cell_angle_gamma 90.000000
_cell_volume 3164.296886
_symmetry_space_group_name_H-M "C 2 2 21"
_symmetry_group_IT_number 20
_symmetry_cell_setting 'orthorhombic'
loop_
_space_group_symop_operation_xyz
x,y,z
-x,-y,1/2+z
x,-y,-z
-x,y,1/2-z
1/2+x,1/2+y,z
1/2-x,1/2-y,1/2+z
1/2+x,1/2-y,-z
1/2-x,1/2+y,1/2-z
loop_
_atom_site_type_symbol
_atom_site_label
_atom_site_fract_x
_atom_site_fract_y
_atom_site_fract_z
Si Si1 0.875347 0.420794 0.263007
Si Si2 0.466484 0.345722 0.674877
Si Si3 0.718400 0.193451 0.422724
Si Si4 0.807395 0.093865 0.627793
Si Si5 0.559558 0.851082 0.096499
Si Si6 0.211845 0.184212 0.304348
Si Si7 0.088245 0.174710 0.017225
Si Si8 0.964663 0.715715 0.432715
O O1 0.902021 0.266039 0.292361
O O2 0.810651 0.342282 0.224618
O O3 0.801571 0.559266 0.285007
O O4 0.000000 0.484054 0.250000
O O5 0.387258 0.489489 0.658136
O O6 0.491138 0.225285 0.636794
O O7 0.588468 0.399734 0.691388
O O8 0.805020 0.318805 0.401181
O O9 0.784968 0.155437 0.464797
O O10 0.595930 0.263207 0.430892
O O11 0.720884 0.031970 0.394038
O O12 0.754481 0.242722 0.652943
O O13 0.887077 0.158866 0.591768
O O14 0.540823 0.039877 0.088637
O O15 0.523789 0.746588 0.056491
O O16 0.077904 0.294407 0.978966
O O17 0.048229 0.000000 0.000000
#
# Coordination Sequence:
#
# PCOD9318558 Si02
#       8
#     8   8   8   8   8   8   8   8
#     4  10  23  41  63  91 128 155 205 246 303 371
#     4  10  21  42  61  88 126 160 196 256 299 363
#     4   9  23  41  57  85 122 162 195 260 306 350
#     4  11  23  39  62  93 124 156 212 247 303 373
#     4   9  21  39  59  91 117 153 214 248 297 372
#     4  11  23  40  65  95 119 169 194 253 308 361
#     4  10  20  42  57  87 123 155 211 253 303 365
#     4  12  21  40  63  85 119 166 201 255 311 360
#
# _framework density 20.225662
#
# number of rings (size 3 to 8) (size 9 to 14) (size 15 to 20)
#    0.750    1.000    1.250    2.625    0.000    6.000 
#    4.500    0.000    0.000    0.000    0.000    0.000 
#    0.000    0.000    0.000    0.000    0.000    0.000 
#
# Total GULP energy -178525.481607 kJ/mol
# GULP energy per Si atom -5578.921300 kJ/mol
# Density = 2.017963 g / cm^3
# Si number density = 20.225662 Si / 1000 Ang^3
#
#
#
# Elastic Constant Matrix: (Units=GPa)
#
#
# Indices 1 2 3 4 5 6 
#
# 1 61.3244 13.3487 27.2990 0.0000 0.0000 0.0000
# 2 13.3487 20.3956 -13.9067 0.0000 0.0000 0.0000
# 3 27.2990 -13.9067 73.4457 0.0000 0.0000 0.0000
# 4 0.0000 0.0000 0.0000 34.6576 0.0000 0.0000
# 5 0.0000 0.0000 0.0000 0.0000 19.1540 0.0000
# 6 0.0000 0.0000 0.0000 0.0000 0.0000 14.5402
#
#
#
# Elastic Compliance Matrix: (Units=1/GPa)
#
#
# Indices 1 2 3 4 5 6 
#
# 1 0.031375 -0.032709 -0.017855 0.000000 0.000000 0.000000
# 2 -0.032709 0.090399 0.029274 0.000000 0.000000 0.000000
# 3 -0.017855 0.029274 0.025795 0.000000 0.000000 0.000000
# 4 0.000000 0.000000 0.000000 0.028854 0.000000 0.000000
# 5 0.000000 0.000000 0.000000 0.000000 0.052208 0.000000
# 6 0.000000 0.000000 0.000000 0.000000 0.000000 0.068775
#
#
# Mechanical properties :
#
#
# Convention : Reuss Voigt Hill
#
# Bulk Modulus (GPa) = 9.52479 23.18306 16.35392
# Shear Modulus (GPa) = 13.33397 22.23200 17.78298
#
# Velocity S-wave (km/s) = 2.57039 3.31901 2.96840
# Velocity P-wave (km/s) = 3.67814 5.11614 4.45553
#
# Compressibility (1/GPa) = 0.10498924
#
# Stress axis : x y z
#
# Youngs Moduli (GPa) = 31.87249 11.06209 38.76701
#
# Poissons Ratio (x) = 0.36183 0.69219
# Poissons Ratio (y) = 1.04252 -1.13488
# Poissons Ratio (z) = 0.56909 -0.32384
#
# Static dielectric constant tensor:
#      x y z
#    x 1.727680 0.000000 0.000000 
#    y 0.000000 1.702110 0.000000 
#    z 0.000000 0.000000 1.741410 
# 
# From -- ./inp_files/31210.got.cif
#   From: 2010.05.17/outbox.cif.g08.bks.cpg/sg20_16_cif.got.tgz:31210.got - 2010.06.03 22:52:26.
