data_PCOD9318359
_publ_section_title
;
Structure prediction by ZEFSAII (Michael W. Deem and Ramdas Pophale) SiO2 
 PCOD9318359
Probable space group: C 2 2 21
;
_chemical_formula_sum "Si O2"
_cell_formula_units_Z 48
_cell_length_a 14.039813
_cell_length_b 13.913355
_cell_length_c 11.343644
_cell_angle_alpha 90.000000
_cell_angle_beta 90.000000
_cell_angle_gamma 90.000000
_cell_volume 2215.877655
_symmetry_space_group_name_H-M "C 2 2 21"
_symmetry_group_IT_number 20
_symmetry_cell_setting 'orthorhombic'
loop_
_space_group_symop_operation_xyz
x,y,z
-x,-y,1/2+z
x,-y,-z
-x,y,1/2-z
1/2+x,1/2+y,z
1/2-x,1/2-y,1/2+z
1/2+x,1/2-y,-z
1/2-x,1/2+y,1/2-z
loop_
_atom_site_type_symbol
_atom_site_label
_atom_site_fract_x
_atom_site_fract_y
_atom_site_fract_z
Si Si1 0.946884 0.147603 0.036755
Si Si2 0.115523 0.630569 0.350920
Si Si3 0.581513 0.531899 0.678673
Si Si4 0.725316 0.762671 0.448580
Si Si5 0.077513 0.300288 0.910544
Si Si6 0.739185 0.469565 0.133492
O O1 0.869083 0.212562 0.101654
O O2 0.971771 0.059677 0.121041
O O3 0.888638 0.098680 0.929004
O O4 0.031821 0.206576 0.975741
O O5 0.189082 0.690953 0.429574
O O6 0.100467 0.687646 0.229072
O O7 0.162774 0.526025 0.339607
O O8 0.013577 0.628108 0.417916
O O9 0.500000 0.587158 0.750000
O O10 0.665140 0.503439 0.765352
O O11 0.816384 0.694048 0.463082
O O12 0.753484 0.854491 0.369841
O O13 0.709679 0.500000 0.000000
#
# Coordination Sequence:
#
# PCOD9318359 Si02
#       6
#     8   8   8   8   8   8
#     4  10  24  41  62 103 127 174 229 287 337 422
#     4   9  21  37  64  94 127 170 227 265 340 421
#     4  11  24  38  64  95 140 163 224 287 355 398
#     4  10  21  36  66  91 126 169 225 269 339 407
#     4  10  20  39  68  91 128 178 221 276 339 411
#     4  10  22  39  64  95 132 177 217 278 346 411
#
# _framework density 21.661847000000002
#
# number of rings (size 3 to 8) (size 9 to 14) (size 15 to 20)
#    0.000    2.000    0.000    2.000   18.667    0.000 
#    0.000    0.000   55.000    0.000    0.000    0.000 
#    0.000    0.000    0.000    0.000    0.000    0.000 
#
# Total GULP energy -133642.167530 kJ/mol
# GULP energy per Si atom -5568.423647 kJ/mol
# Density = 2.161254 g / cm^3
# Si number density = 21.661847 Si / 1000 Ang^3
#
#
#
# Elastic Constant Matrix: (Units=GPa)
#
#
# Indices 1 2 3 4 5 6 
#
# 1 110.2655 2.5600 18.2165 0.0000 0.0000 0.0000
# 2 2.5600 36.9724 2.9681 0.0000 0.0000 0.0000
# 3 18.2165 2.9681 60.3588 0.0000 0.0000 0.0000
# 4 0.0000 0.0000 0.0000 18.6304 0.0000 0.0000
# 5 0.0000 0.0000 0.0000 0.0000 39.5668 0.0000
# 6 0.0000 0.0000 0.0000 0.0000 0.0000 22.9722
#
#
#
# Elastic Compliance Matrix: (Units=1/GPa)
#
#
# Indices 1 2 3 4 5 6 
#
# 1 0.009552 -0.000432 -0.002862 0.000000 0.000000 0.000000
# 2 -0.000432 0.027174 -0.001206 0.000000 0.000000 0.000000
# 3 -0.002862 -0.001206 0.017491 0.000000 0.000000 0.000000
# 4 0.000000 0.000000 0.000000 0.053676 0.000000 0.000000
# 5 0.000000 0.000000 0.000000 0.000000 0.025274 0.000000
# 6 0.000000 0.000000 0.000000 0.000000 0.000000 0.043531
#
#
# Mechanical properties :
#
#
# Convention : Reuss Voigt Hill
#
# Bulk Modulus (GPa) = 22.11516 28.34288 25.22902
# Shear Modulus (GPa) = 24.90443 28.49068 26.69755
#
# Velocity S-wave (km/s) = 3.39439 3.63057 3.51446
# Velocity P-wave (km/s) = 5.05904 5.53962 5.30477
#
# Compressibility (1/GPa) = 0.04521785
#
# Stress axis : x y z
#
# Youngs Moduli (GPa) = 104.69246 36.80000 57.17387
#
# Poissons Ratio (x) = 0.01589 0.16360
# Poissons Ratio (y) = 0.04519 0.06895
# Poissons Ratio (z) = 0.29958 0.04438
#
# Static dielectric constant tensor:
#      x y z
#    x 1.798500 0.000000 0.000000 
#    y 0.000000 1.837550 0.000000 
#    z 0.000000 0.000000 1.794290 
# 
# From -- ./inp_files/15056.got.cif
#   From: 2010.05.17/outbox.cif.g08.bks.cpg/sg20_8_cif.got.tgz:15056.got - 2010.06.03 22:52:26.
