data_PCOD9318011
_publ_section_title
;
Structure prediction by ZEFSAII (Michael W. Deem and Ramdas Pophale) SiO2 
 PCOD9318011
Probable space group: C 2 2 21
;
_chemical_formula_sum "Si O2"
_cell_formula_units_Z 52
_cell_length_a 10.292999
_cell_length_b 15.377192
_cell_length_c 14.715795
_cell_angle_alpha 90.000000
_cell_angle_beta 90.000000
_cell_angle_gamma 90.000000
_cell_volume 2329.178093
_symmetry_space_group_name_H-M "C 2 2 21"
_symmetry_group_IT_number 20
_symmetry_cell_setting 'orthorhombic'
loop_
_space_group_symop_operation_xyz
x,y,z
-x,-y,1/2+z
x,-y,-z
-x,y,1/2-z
1/2+x,1/2+y,z
1/2-x,1/2-y,1/2+z
1/2+x,1/2-y,-z
1/2-x,1/2+y,1/2-z
loop_
_atom_site_type_symbol
_atom_site_label
_atom_site_fract_x
_atom_site_fract_y
_atom_site_fract_z
Si Si1 0.073497 0.102403 0.000994
Si Si2 0.236835 0.872300 0.163123
Si Si3 0.840040 0.329715 0.911981
Si Si4 0.773301 0.646591 0.631804
Si Si5 0.843577 0.500000 0.500000
Si Si6 0.043215 0.268145 0.412048
Si Si7 0.554519 0.013801 0.343801
O O1 0.212076 0.122975 0.049022
O O2 0.982405 0.168962 0.057342
O O3 0.106163 0.129349 0.896385
O O4 0.041317 0.000000 0.000000
O O5 0.227411 0.887967 0.270536
O O6 0.324278 0.786435 0.142884
O O7 0.329073 0.950634 0.126919
O O8 0.808122 0.232361 0.886965
O O9 0.890333 0.389754 0.832033
O O10 0.940987 0.320982 0.994078
O O11 0.764698 0.578622 0.548023
O O12 0.920706 0.685757 0.636036
O O13 0.940316 0.520998 0.416643
O O14 0.500000 0.979067 0.250000
#
# Coordination Sequence:
#
# PCOD9318011 Si02
#       7
#     8   8   8   8   4   8   8
#     4  10  20  37  64  82 120 167 207 247 314 382
#     4  11  20  38  62  95 123 162 212 264 314 379
#     4  10  22  38  58  90 119 154 206 259 312 373
#     4  11  22  38  62  91 127 161 206 269 319 372
#     4  12  20  38  64  88 124 156 210 258 320 372
#     4  10  20  37  61  87 120 163 205 251 314 372
#     4  12  20  35  65  91 115 162 211 263 315 376
#
# _framework density 22.325472000000001
#
# number of rings (size 3 to 8) (size 9 to 14) (size 15 to 20)
#    0.000    1.231    6.154    1.385    0.000    1.231 
#    4.154    0.000    3.385    0.000    0.000    0.000 
#    0.000    0.000    0.000    0.000    0.000    0.000 
#
# Total GULP energy -145075.364077 kJ/mol
# GULP energy per Si atom -5579.821695 kJ/mol
# Density = 2.227466 g / cm^3
# Si number density = 22.325472 Si / 1000 Ang^3
#
#
#
# Elastic Constant Matrix: (Units=GPa)
#
#
# Indices 1 2 3 4 5 6 
#
# 1 23.5076 26.7489 22.1782 0.0000 0.0000 0.0000
# 2 26.7489 163.1471 40.5819 0.0000 0.0000 0.0000
# 3 22.1782 40.5819 97.4166 0.0000 0.0000 0.0000
# 4 0.0000 0.0000 0.0000 29.8724 0.0000 0.0000
# 5 0.0000 0.0000 0.0000 0.0000 13.2792 0.0000
# 6 0.0000 0.0000 0.0000 0.0000 0.0000 26.0873
#
#
#
# Elastic Compliance Matrix: (Units=1/GPa)
#
#
# Indices 1 2 3 4 5 6 
#
# 1 0.061118 -0.007318 -0.010866 0.000000 0.000000 0.000000
# 2 -0.007318 0.007714 -0.001548 0.000000 0.000000 0.000000
# 3 -0.010866 -0.001548 0.013384 0.000000 0.000000 0.000000
# 4 0.000000 0.000000 0.000000 0.033476 0.000000 0.000000
# 5 0.000000 0.000000 0.000000 0.000000 0.075306 0.000000
# 6 0.000000 0.000000 0.000000 0.000000 0.000000 0.038333
#
#
# Mechanical properties :
#
#
# Convention : Reuss Voigt Hill
#
# Bulk Modulus (GPa) = 23.39012 51.45436 37.42224
# Shear Modulus (GPa) = 17.66516 26.81860 22.24188
#
# Velocity S-wave (km/s) = 2.81598 3.46967 3.15978
# Velocity P-wave (km/s) = 4.59049 6.25691 5.48733
#
# Compressibility (1/GPa) = 0.04275309
#
# Stress axis : x y z
#
# Youngs Moduli (GPa) = 16.36190 129.63138 74.71815
#
# Poissons Ratio (x) = 0.94861 0.81187
# Poissons Ratio (y) = 0.11973 0.11563
# Poissons Ratio (z) = 0.17779 0.20062
#
# Static dielectric constant tensor:
#      x y z
#    x 1.865350 0.000000 0.000000 
#    y 0.000000 1.866330 0.000000 
#    z 0.000000 0.000000 1.838710 
# 
# From -- ./inp_files/20025.got.cif
#   From: 2010.05.17/outbox.cif.g08.bks.cpg/sg20_11_cif.got.tgz:20025.got - 2010.06.03 22:52:26.
