data_PCOD9318199
_publ_section_title
;
Structure prediction by ZEFSAII (Michael W. Deem and Ramdas Pophale) SiO2 
 PCOD9318199
Probable space group: C 2 2 21
;
_chemical_formula_sum "Si O2"
_cell_formula_units_Z 32
_cell_length_a 7.326129
_cell_length_b 13.153147
_cell_length_c 14.462393
_cell_angle_alpha 90.000000
_cell_angle_beta 90.000000
_cell_angle_gamma 90.000000
_cell_volume 1393.620077
_symmetry_space_group_name_H-M "C 2 2 21"
_symmetry_group_IT_number 20
_symmetry_cell_setting 'orthorhombic'
loop_
_space_group_symop_operation_xyz
x,y,z
-x,-y,1/2+z
x,-y,-z
-x,y,1/2-z
1/2+x,1/2+y,z
1/2-x,1/2-y,1/2+z
1/2+x,1/2-y,-z
1/2-x,1/2+y,1/2-z
loop_
_atom_site_type_symbol
_atom_site_label
_atom_site_fract_x
_atom_site_fract_y
_atom_site_fract_z
Si Si1 0.172153 0.161666 0.315948
Si Si2 0.453493 0.700890 0.625631
Si Si3 0.591858 0.818935 0.461266
Si Si4 0.238158 0.543156 0.897970
O O1 0.326830 0.246785 0.295761
O O2 0.000000 0.156502 0.250000
O O3 0.092443 0.208489 0.411486
O O4 0.265269 0.053639 0.331228
O O5 0.538257 0.794428 0.566004
O O6 0.607084 0.618248 0.639444
O O7 0.297782 0.648443 0.559890
O O8 0.447543 0.893434 0.413559
O O9 0.283755 0.500000 0.000000
#
# Coordination Sequence:
#
# PCOD9318199 Si02
#       4
#     8   8   8   8
#     4  10  24  42  58  90 131 150 199 263 296 343
#     4  10  20  38  64  87 119 155 205 241 296 359
#     4  10  20  38  64  87 119 155 205 241 296 359
#     4  12  20  38  67  91 113 163 205 244 296 360
#
# _framework density 22.961780000000001
#
# number of rings (size 3 to 8) (size 9 to 14) (size 15 to 20)
#    1.500    0.000    7.500    0.000    0.000    3.000 
#    4.500    0.000    0.000    0.000    0.000    0.000 
#    0.000    0.000    0.000    0.000    0.000    0.000 
#
# Total GULP energy -89199.069032 kJ/mol
# GULP energy per Si atom -5574.941815 kJ/mol
# Density = 2.290952 g / cm^3
# Si number density = 22.961780 Si / 1000 Ang^3
#
#
#
# Elastic Constant Matrix: (Units=GPa)
#
#
# Indices 1 2 3 4 5 6 
#
# 1 88.4381 60.3593 10.4247 0.0000 0.0000 0.0000
# 2 60.3593 111.6916 13.5206 0.0000 0.0000 0.0000
# 3 10.4247 13.5206 14.1063 0.0000 0.0000 0.0000
# 4 0.0000 0.0000 0.0000 27.0417 0.0000 0.0000
# 5 0.0000 0.0000 0.0000 0.0000 30.1084 0.0000
# 6 0.0000 0.0000 0.0000 0.0000 0.0000 72.0486
#
#
#
# Elastic Compliance Matrix: (Units=1/GPa)
#
#
# Indices 1 2 3 4 5 6 
#
# 1 0.018169 -0.009269 -0.004543 0.000000 0.000000 0.000000
# 2 -0.009269 0.014857 -0.007390 0.000000 0.000000 0.000000
# 3 -0.004543 -0.007390 0.081331 0.000000 0.000000 0.000000
# 4 0.000000 0.000000 0.000000 0.036980 0.000000 0.000000
# 5 0.000000 0.000000 0.000000 0.000000 0.033213 0.000000
# 6 0.000000 0.000000 0.000000 0.000000 0.000000 0.013880
#
#
# Mechanical properties :
#
#
# Convention : Reuss Voigt Hill
#
# Bulk Modulus (GPa) = 13.89801 42.53836 28.21819
# Shear Modulus (GPa) = 18.88092 34.50184 26.69138
#
# Velocity S-wave (km/s) = 2.87065 3.88051 3.41314
# Velocity P-wave (km/s) = 4.12956 6.21641 5.27717
#
# Compressibility (1/GPa) = 0.07195273
#
# Stress axis : x y z
#
# Youngs Moduli (GPa) = 55.03964 67.30976 12.29539
#
# Poissons Ratio (x) = 0.62387 0.05586
# Poissons Ratio (y) = 0.51014 0.09087
# Poissons Ratio (z) = 0.25005 0.49744
#
# Static dielectric constant tensor:
#      x y z
#    x 1.867990 0.000000 0.000000 
#    y 0.000000 1.844780 0.000000 
#    z 0.000000 0.000000 2.001800 
# 
# From -- ./inp_files/18221.got.cif
#   From: 2010.05.17/outbox.cif.g08.bks.cpg/sg20_10_cif.got.tgz:18221.got - 2010.06.03 22:52:26.
