data_PCOD9318811
_publ_section_title
;
Structure prediction by ZEFSAII (Michael W. Deem and Ramdas Pophale) SiO2 
 PCOD9318811
Probable space group: C 2 2 21
;
_chemical_formula_sum "Si O2"
_cell_formula_units_Z 60
_cell_length_a 22.991813
_cell_length_b 5.301576
_cell_length_c 25.809298
_cell_angle_alpha 90.000000
_cell_angle_beta 90.000000
_cell_angle_gamma 90.000000
_cell_volume 3145.968735
_symmetry_space_group_name_H-M "C 2 2 21"
_symmetry_group_IT_number 20
_symmetry_cell_setting 'orthorhombic'
loop_
_space_group_symop_operation_xyz
x,y,z
-x,-y,1/2+z
x,-y,-z
-x,y,1/2-z
1/2+x,1/2+y,z
1/2-x,1/2-y,1/2+z
1/2+x,1/2-y,-z
1/2-x,1/2+y,1/2-z
loop_
_atom_site_type_symbol
_atom_site_label
_atom_site_fract_x
_atom_site_fract_y
_atom_site_fract_z
Si Si1 0.218238 0.786580 0.186536
Si Si2 0.592543 0.766026 0.816768
Si Si3 0.595026 0.110394 0.551320
Si Si4 0.107740 0.919180 0.645689
Si Si5 0.505281 0.500000 0.500000
Si Si6 0.994870 0.220801 0.898164
Si Si7 0.209820 0.785144 0.311236
Si Si8 0.431247 0.747318 0.253779
O O1 0.155424 0.801203 0.160178
O O2 0.204579 0.794799 0.248611
O O3 0.249381 0.523318 0.175224
O O4 0.260088 0.021727 0.175051
O O5 0.542706 0.815805 0.858807
O O6 0.575191 0.526105 0.781030
O O7 0.597614 0.025721 0.785222
O O8 0.629024 0.266209 0.595196
O O9 0.547981 0.294225 0.524844
O O10 0.626731 0.000000 0.500000
O O11 0.555366 0.910004 0.582288
O O12 0.100086 0.761680 0.698144
O O13 0.042754 0.009071 0.631273
O O14 0.149355 0.151391 0.660623
O O15 0.474463 0.381081 0.450445
O O16 0.500000 0.802844 0.250000
#
# Coordination Sequence:
#
# PCOD9318811 Si02
#       8
#     8   8   8   8   4   8   8   8
#     4  10  22  39  52  78 112 164 204 245 276 345
#     4  12  24  38  57  84 127 160 200 247 293 364
#     4   9  19  36  58  86 123 149 198 244 312 372
#     4  11  22  34  58  86 119 156 200 248 307 363
#     4   8  18  38  56  86 116 150 198 246 298 374
#     4  10  21  36  59  90 117 157 191 251 311 368
#     4  10  22  36  57  76 113 156 209 240 287 339
#     4  12  24  35  52  89 130 163 193 236 306 373
#
# _framework density 19.072026999999999
#
# number of rings (size 3 to 8) (size 9 to 14) (size 15 to 20)
#    0.000    1.600    2.667    2.000    9.333    0.000 
#    0.000    0.000    0.000    0.000    1.733    0.000 
#    0.000    0.000    0.000    0.000    0.000    0.000 
#
# Total GULP energy -167380.110109 kJ/mol
# GULP energy per Si atom -5579.337004 kJ/mol
# Density = 1.902862 g / cm^3
# Si number density = 19.072027 Si / 1000 Ang^3
#
#
#
# Elastic Constant Matrix: (Units=GPa)
#
#
# Indices 1 2 3 4 5 6 
#
# 1 58.4536 -2.2122 10.3499 0.0000 0.0000 0.0000
# 2 -2.2122 73.0021 29.3537 0.0000 0.0000 0.0000
# 3 10.3499 29.3537 97.1706 0.0000 0.0000 0.0000
# 4 0.0000 0.0000 0.0000 26.5198 0.0000 0.0000
# 5 0.0000 0.0000 0.0000 0.0000 5.1947 0.0000
# 6 0.0000 0.0000 0.0000 0.0000 0.0000 21.9312
#
#
#
# Elastic Compliance Matrix: (Units=1/GPa)
#
#
# Indices 1 2 3 4 5 6 
#
# 1 0.017573 0.001463 -0.002314 0.000000 0.000000 0.000000
# 2 0.001463 0.015714 -0.004903 0.000000 0.000000 0.000000
# 3 -0.002314 -0.004903 0.012019 0.000000 0.000000 0.000000
# 4 0.000000 0.000000 0.000000 0.037708 0.000000 0.000000
# 5 0.000000 0.000000 0.000000 0.000000 0.192505 0.000000
# 6 0.000000 0.000000 0.000000 0.000000 0.000000 0.045597
#
#
# Mechanical properties :
#
#
# Convention : Reuss Voigt Hill
#
# Bulk Modulus (GPa) = 29.58748 33.73433 31.66091
# Shear Modulus (GPa) = 14.53961 23.47146 19.00554
#
# Velocity S-wave (km/s) = 2.76407 3.51190 3.16019
# Velocity P-wave (km/s) = 5.07287 5.84559 5.47288
#
# Compressibility (1/GPa) = 0.03379808
#
# Stress axis : x y z
#
# Youngs Moduli (GPa) = 56.90685 63.63788 83.20407
#
# Poissons Ratio (x) = -0.09309 0.19250
# Poissons Ratio (y) = -0.08324 0.40793
# Poissons Ratio (z) = 0.13166 0.31200
#
# Static dielectric constant tensor:
#      x y z
#    x 1.655160 0.000000 0.000000 
#    y 0.000000 1.766460 0.000000 
#    z 0.000000 0.000000 1.756000 
# 
# From -- ./inp_files/28455.got.cif
#   From: 2010.05.17/outbox.cif.g08.bks.cpg/sg20_15_cif.got.tgz:28455.got - 2010.06.03 22:52:26.
