data_PCOD9318550
_publ_section_title
;
Structure prediction by ZEFSAII (Michael W. Deem and Ramdas Pophale) SiO2 
 PCOD9318550
Probable space group: C 2 2 21
;
_chemical_formula_sum "Si O2"
_cell_formula_units_Z 60
_cell_length_a 5.206806
_cell_length_b 17.466610
_cell_length_c 30.644364
_cell_angle_alpha 90.000000
_cell_angle_beta 90.000000
_cell_angle_gamma 90.000000
_cell_volume 2786.959337
_symmetry_space_group_name_H-M "C 2 2 21"
_symmetry_group_IT_number 20
_symmetry_cell_setting 'orthorhombic'
loop_
_space_group_symop_operation_xyz
x,y,z
-x,-y,1/2+z
x,-y,-z
-x,y,1/2-z
1/2+x,1/2+y,z
1/2-x,1/2-y,1/2+z
1/2+x,1/2-y,-z
1/2-x,1/2+y,1/2-z
loop_
_atom_site_type_symbol
_atom_site_label
_atom_site_fract_x
_atom_site_fract_y
_atom_site_fract_z
Si Si1 0.773530 0.285225 0.939980
Si Si2 0.611574 0.642357 0.968848
Si Si3 0.711695 0.423814 0.879542
Si Si4 0.010112 0.007720 0.298087
Si Si5 0.768184 0.000000 0.000000
Si Si6 0.200139 0.500595 0.909719
Si Si7 0.516056 0.100293 0.700221
Si Si8 0.999837 0.346845 0.395395
O O1 0.811965 0.346539 0.901766
O O2 0.546097 0.233908 0.918881
O O3 0.974683 0.218942 0.951017
O O4 0.738090 0.328902 0.985720
O O5 0.433048 0.572709 0.984870
O O6 0.789930 0.617247 0.928387
O O7 0.569337 0.427885 0.832937
O O8 0.474421 0.459107 0.907134
O O9 0.970736 0.473711 0.878564
O O10 0.000000 0.041614 0.250000
O O11 0.782172 0.945865 0.300957
O O12 0.273702 0.959098 0.303556
O O13 0.601762 0.980743 0.958066
O O14 0.228640 0.590947 0.901016
O O15 0.500000 0.133814 0.750000
O O16 0.531161 0.154368 0.656998
#
# Coordination Sequence:
#
# PCOD9318550 Si02
#       8
#     8   8   8   8   4   8   8   8
#     4  12  28  42  63  94 147 182 226 278 352 415
#     4  12  27  46  62  98 138 193 236 284 344 415
#     4  12  25  44  66 102 132 180 224 282 339 418
#     4  10  20  41  69 103 134 167 222 291 347 410
#     4  12  26  44  68  96 134 186 244 290 330 402
#     4  12  26  41  69  96 135 173 243 274 337 397
#     4  10  22  40  71 105 133 168 228 294 352 401
#     4  12  25  43  69  96 140 183 233 291 342 420
#
# _framework density 21.528838
#
# number of rings (size 3 to 8) (size 9 to 14) (size 15 to 20)
#    0.000    0.533    6.667    0.800    7.467    0.533 
#    0.000    0.667    0.000    0.000    3.467    0.000 
#    0.000    0.000    0.000    0.000    0.000    0.000 
#
# Total GULP energy -167125.631073 kJ/mol
# GULP energy per Si atom -5570.854369 kJ/mol
# Density = 2.147984 g / cm^3
# Si number density = 21.528838 Si / 1000 Ang^3
#
#
#
# Elastic Constant Matrix: (Units=GPa)
#
#
# Indices 1 2 3 4 5 6 
#
# 1 82.4962 18.9034 22.8884 0.0000 0.0000 0.0000
# 2 18.9034 66.9036 22.3444 0.0000 0.0000 0.0000
# 3 22.8884 22.3444 193.3977 0.0000 0.0000 0.0000
# 4 0.0000 0.0000 0.0000 31.2762 0.0000 0.0000
# 5 0.0000 0.0000 0.0000 0.0000 32.5742 0.0000
# 6 0.0000 0.0000 0.0000 0.0000 0.0000 28.6760
#
#
#
# Elastic Compliance Matrix: (Units=1/GPa)
#
#
# Indices 1 2 3 4 5 6 
#
# 1 0.013214 -0.003340 -0.001178 0.000000 0.000000 0.000000
# 2 -0.003340 0.016391 -0.001498 0.000000 0.000000 0.000000
# 3 -0.001178 -0.001498 0.005483 0.000000 0.000000 0.000000
# 4 0.000000 0.000000 0.000000 0.031973 0.000000 0.000000
# 5 0.000000 0.000000 0.000000 0.000000 0.030699 0.000000
# 6 0.000000 0.000000 0.000000 0.000000 0.000000 0.034872
#
#
# Mechanical properties :
#
#
# Convention : Reuss Voigt Hill
#
# Bulk Modulus (GPa) = 43.37426 52.34111 47.85768
# Shear Modulus (GPa) = 32.81891 37.08269 34.95080
#
# Velocity S-wave (km/s) = 3.90861 4.15476 4.03357
# Velocity P-wave (km/s) = 6.36871 6.88338 6.63104
#
# Compressibility (1/GPa) = 0.02305515
#
# Stress axis : x y z
#
# Youngs Moduli (GPa) = 75.67755 61.00885 182.37437
#
# Poissons Ratio (x) = 0.20378 0.21483
# Poissons Ratio (y) = 0.25277 0.27328
# Poissons Ratio (z) = 0.08914 0.09142
#
# Static dielectric constant tensor:
#      x y z
#    x 1.855880 0.000000 0.000000 
#    y 0.000000 1.836210 0.000000 
#    z 0.000000 0.000000 1.925820 
# 
# From -- ./inp_files/30827.got.cif
#   From: 2010.05.17/outbox.cif.g08.bks.cpg/sg20_16_cif.got.tgz:30827.got - 2010.06.03 22:52:26.
