data_PCOD9318275
_publ_section_title
;
Structure prediction by ZEFSAII (Michael W. Deem and Ramdas Pophale) SiO2 
 PCOD9318275
Probable space group: C 2 2 21
;
_chemical_formula_sum "Si O2"
_cell_formula_units_Z 64
_cell_length_a 10.374434
_cell_length_b 9.499097
_cell_length_c 28.500393
_cell_angle_alpha 90.000000
_cell_angle_beta 90.000000
_cell_angle_gamma 90.000000
_cell_volume 2808.649744
_symmetry_space_group_name_H-M "C 2 2 21"
_symmetry_group_IT_number 20
_symmetry_cell_setting 'orthorhombic'
loop_
_space_group_symop_operation_xyz
x,y,z
-x,-y,1/2+z
x,-y,-z
-x,y,1/2-z
1/2+x,1/2+y,z
1/2-x,1/2-y,1/2+z
1/2+x,1/2-y,-z
1/2-x,1/2+y,1/2-z
loop_
_atom_site_type_symbol
_atom_site_label
_atom_site_fract_x
_atom_site_fract_y
_atom_site_fract_z
Si Si1 0.243078 0.723252 0.003347
Si Si2 0.389144 0.622023 0.356913
Si Si3 0.431655 0.824391 0.202079
Si Si4 0.747992 0.858058 0.105132
Si Si5 0.624180 0.378366 0.590212
Si Si6 0.982328 0.368383 0.974015
Si Si7 0.690042 0.699860 0.842592
Si Si8 0.507659 0.058588 0.131055
O O1 0.245624 0.683133 0.949062
O O2 0.353137 0.843130 0.003530
O O3 0.311435 0.616381 0.039542
O O4 0.096882 0.747302 0.021270
O O5 0.483835 0.694005 0.318619
O O6 0.264783 0.721690 0.362383
O O7 0.473479 0.651102 0.404453
O O8 0.352999 0.460589 0.350242
O O9 0.500000 0.864757 0.250000
O O10 0.280770 0.785050 0.203334
O O11 0.433441 0.958047 0.166810
O O12 0.862896 0.967358 0.113332
O O13 0.626294 0.956660 0.116497
O O14 0.711469 0.262303 0.617300
O O15 0.952525 0.397235 0.919740
O O16 0.047852 0.500000 0.000000
O O17 0.569514 0.804748 0.844748
#
# Coordination Sequence:
#
# PCOD9318275 Si02
#       8
#     8   8   8   8   8   8   8   8
#     4  12  23  38  63  93 133 184 235 274 322 387
#     4  10  23  39  64  90 127 164 212 269 337 398
#     4  10  24  45  69  95 124 166 214 278 351 419
#     4  10  20  39  59  86 126 179 217 263 325 377
#     4  10  21  37  57  85 129 169 215 267 313 377
#     4  12  25  41  63  94 141 184 232 278 329 391
#     4  10  22  40  64  94 126 157 217 267 332 399
#     4  10  22  43  67  90 134 176 216 279 336 400
#
# _framework density 22.786750000000001
#
# number of rings (size 3 to 8) (size 9 to 14) (size 15 to 20)
#    0.000    1.500    3.750    1.125    7.000    1.000 
#    0.000    2.500    0.000    0.000    0.000    0.000 
#    0.000    0.000    0.000    0.000    0.000    0.000 
#
# Total GULP energy -178465.234458 kJ/mol
# GULP energy per Si atom -5577.038577 kJ/mol
# Density = 2.273489 g / cm^3
# Si number density = 22.786750 Si / 1000 Ang^3
#
#
#
# Elastic Constant Matrix: (Units=GPa)
#
#
# Indices 1 2 3 4 5 6 
#
# 1 72.0337 34.5353 12.6269 0.0000 0.0000 0.0000
# 2 34.5353 137.2330 4.9037 0.0000 0.0000 0.0000
# 3 12.6269 4.9037 24.0491 0.0000 0.0000 0.0000
# 4 0.0000 0.0000 0.0000 18.4291 0.0000 0.0000
# 5 0.0000 0.0000 0.0000 0.0000 14.5605 0.0000
# 6 0.0000 0.0000 0.0000 0.0000 0.0000 24.8406
#
#
#
# Elastic Compliance Matrix: (Units=1/GPa)
#
#
# Indices 1 2 3 4 5 6 
#
# 1 0.017269 -0.004051 -0.008241 0.000000 0.000000 0.000000
# 2 -0.004051 0.008291 0.000437 0.000000 0.000000 0.000000
# 3 -0.008241 0.000437 0.045820 0.000000 0.000000 0.000000
# 4 0.000000 0.000000 0.000000 0.054262 0.000000 0.000000
# 5 0.000000 0.000000 0.000000 0.000000 0.068679 0.000000
# 6 0.000000 0.000000 0.000000 0.000000 0.000000 0.040257
#
#
# Mechanical properties :
#
#
# Convention : Reuss Voigt Hill
#
# Bulk Modulus (GPa) = 20.97842 37.49415 29.23629
# Shear Modulus (GPa) = 18.23629 23.64938 20.94284
#
# Velocity S-wave (km/s) = 2.83203 3.22507 3.03492
# Velocity P-wave (km/s) = 4.46321 5.50983 5.01390
#
# Compressibility (1/GPa) = 0.04766803
#
# Stress axis : x y z
#
# Youngs Moduli (GPa) = 57.90591 120.61507 21.82470
#
# Poissons Ratio (x) = 0.48866 0.17986
# Poissons Ratio (y) = 0.23460 -0.00953
# Poissons Ratio (z) = 0.47721 -0.05267
#
# Static dielectric constant tensor:
#      x y z
#    x 1.910280 0.000000 0.000000 
#    y 0.000000 1.922590 0.000000 
#    z 0.000000 0.000000 1.844580 
# 
# From -- ./inp_files/31208.got.cif
#   From: 2010.05.17/outbox.cif.g08.bks.cpg/sg20_16_cif.got.tgz:31208.got - 2010.06.03 22:52:26.
