data_PCOD9318121
_publ_section_title
;
Structure prediction by ZEFSAII (Michael W. Deem and Ramdas Pophale) SiO2 
 PCOD9318121
Probable space group: C 2 2 21
;
_chemical_formula_sum "Si O2"
_cell_formula_units_Z 48
_cell_length_a 12.750511
_cell_length_b 7.236172
_cell_length_c 22.161629
_cell_angle_alpha 90.000000
_cell_angle_beta 90.000000
_cell_angle_gamma 90.000000
_cell_volume 2044.740277
_symmetry_space_group_name_H-M "C 2 2 21"
_symmetry_group_IT_number 20
_symmetry_cell_setting 'orthorhombic'
loop_
_space_group_symop_operation_xyz
x,y,z
-x,-y,1/2+z
x,-y,-z
-x,y,1/2-z
1/2+x,1/2+y,z
1/2-x,1/2-y,1/2+z
1/2+x,1/2-y,-z
1/2-x,1/2+y,1/2-z
loop_
_atom_site_type_symbol
_atom_site_label
_atom_site_fract_x
_atom_site_fract_y
_atom_site_fract_z
Si Si1 0.806121 0.890003 0.399345
Si Si2 0.025055 0.018965 0.181637
Si Si3 0.876517 0.465238 0.819879
Si Si4 0.390674 0.073972 0.681578
Si Si5 0.675044 0.425220 0.376450
Si Si6 0.273107 0.811541 0.981854
O O1 0.907395 0.876564 0.357995
O O2 0.706880 0.911826 0.355926
O O3 0.781291 0.756436 0.455646
O O4 0.809304 0.089120 0.435937
O O5 0.000000 0.959045 0.250000
O O6 0.918540 0.056518 0.144634
O O7 0.094211 0.204361 0.186749
O O8 0.870024 0.502417 0.749017
O O9 0.847755 0.255989 0.835481
O O10 0.995503 0.505363 0.839105
O O11 0.292234 0.017593 0.641166
O O12 0.670506 0.345861 0.444354
O O13 0.338196 0.000000 0.000000
#
# Coordination Sequence:
#
# PCOD9318121 Si02
#       6
#     8   8   8   8   8   8
#     4   8  17  38  60  87 115 162 197 251 300 362
#     4  12  22  38  61  94 128 153 202 255 311 366
#     4  10  20  38  60  82 119 163 196 239 307 354
#     4  11  22  38  56  89 126 160 195 250 303 359
#     4  11  23  39  60  91 115 163 207 248 300 372
#     4   7  15  37  64  77 118 158 205 245 304 352
#
# _framework density 23.474865999999999
#
# number of rings (size 3 to 8) (size 9 to 14) (size 15 to 20)
#    1.000    1.000    5.000    1.000    2.333    0.000 
#    6.000    0.000    0.000    0.000    0.000    0.000 
#    0.000    0.000    0.000    0.000    0.000    0.000 
#
# Total GULP energy -133974.441245 kJ/mol
# GULP energy per Si atom -5582.268385 kJ/mol
# Density = 2.342144 g / cm^3
# Si number density = 23.474866 Si / 1000 Ang^3
#
#
#
# Elastic Constant Matrix: (Units=GPa)
#
#
# Indices 1 2 3 4 5 6 
#
# 1 137.9338 14.5631 63.3840 0.0000 0.0000 0.0000
# 2 14.5631 60.9356 38.0217 0.0000 0.0000 0.0000
# 3 63.3840 38.0217 116.4250 0.0000 0.0000 0.0000
# 4 0.0000 0.0000 0.0000 23.3389 0.0000 0.0000
# 5 0.0000 0.0000 0.0000 0.0000 29.7804 0.0000
# 6 0.0000 0.0000 0.0000 0.0000 0.0000 -5.3224
#
#
#
# Elastic Compliance Matrix: (Units=1/GPa)
#
#
# Indices 1 2 3 4 5 6 
#
# 1 0.009742 0.001232 -0.005706 0.000000 0.000000 0.000000
# 2 0.001232 0.020766 -0.007453 0.000000 0.000000 0.000000
# 3 -0.005706 -0.007453 0.014130 0.000000 0.000000 0.000000
# 4 0.000000 0.000000 0.000000 0.042847 0.000000 0.000000
# 5 0.000000 0.000000 0.000000 0.000000 0.033579 0.000000
# 6 0.000000 0.000000 0.000000 0.000000 0.000000 -0.187885
#
#
# Mechanical properties :
#
#
# Convention : Reuss Voigt Hill
#
# Bulk Modulus (GPa) = 48.11209 60.80357 54.45783
# Shear Modulus (GPa) = -138.73560 22.84776 -57.94392
#
# Velocity S-wave (km/s) = -7.69597 3.12314 -4.97363
# Velocity P-wave (km/s) = 7.64401 6.24204 3.11992
#
# Compressibility (1/GPa) = 0.02078479
#
# Stress axis : x y z
#
# Youngs Moduli (GPa) = 102.65013 48.15450 70.77365
#
# Poissons Ratio (x) = -0.05933 0.40384
# Poissons Ratio (y) = -0.12648 0.52745
# Poissons Ratio (z) = 0.58572 0.35888
#
# Static dielectric constant tensor:
#      x y z
#    x 1.886550 0.000000 0.000000 
#    y 0.000000 2.008430 0.000000 
#    z 0.000000 0.000000 1.872070 
# 
# From -- ./inp_files/29099.got.cif
#   From: 2010.05.17/outbox.cif.g08.bks.cpg/sg20_15_cif.got.tgz:29099.got - 2010.06.03 22:52:26.
