data_PCOD9318436
_publ_section_title
;
Structure prediction by ZEFSAII (Michael W. Deem and Ramdas Pophale) SiO2 
 PCOD9318436
Probable space group: C 2 2 21
;
_chemical_formula_sum "Si O2"
_cell_formula_units_Z 48
_cell_length_a 16.025765
_cell_length_b 10.618598
_cell_length_c 14.611394
_cell_angle_alpha 90.000000
_cell_angle_beta 90.000000
_cell_angle_gamma 90.000000
_cell_volume 2486.437810
_symmetry_space_group_name_H-M "C 2 2 21"
_symmetry_group_IT_number 20
_symmetry_cell_setting 'orthorhombic'
loop_
_space_group_symop_operation_xyz
x,y,z
-x,-y,1/2+z
x,-y,-z
-x,y,1/2-z
1/2+x,1/2+y,z
1/2-x,1/2-y,1/2+z
1/2+x,1/2-y,-z
1/2-x,1/2+y,1/2-z
loop_
_atom_site_type_symbol
_atom_site_label
_atom_site_fract_x
_atom_site_fract_y
_atom_site_fract_z
Si Si1 0.659075 0.003599 0.236443
Si Si2 0.465303 0.500000 0.500000
Si Si3 0.458778 0.673656 0.846801
Si Si4 0.553139 0.097493 0.070029
Si Si5 0.773410 0.774119 0.199618
Si Si6 0.390637 0.270906 0.591849
Si Si7 0.500000 0.139744 0.750000
O O1 0.618876 0.024201 0.134616
O O2 0.699001 0.140123 0.256192
O O3 0.727394 0.892640 0.249307
O O4 0.575590 0.948994 0.286663
O O5 0.517694 0.412805 0.432163
O O6 0.411311 0.412551 0.565598
O O7 0.500000 0.634404 0.750000
O O8 0.494686 0.812775 0.869629
O O9 0.360159 0.674690 0.837346
O O10 0.599325 0.191702 0.000797
O O11 0.509973 0.000000 0.000000
O O12 0.702611 0.740625 0.127098
O O13 0.455819 0.222557 0.670448
#
# Coordination Sequence:
#
# PCOD9318436 Si02
#       7
#     8   4   8   8   8   8   4
#     4  11  23  39  68  98 129 174 224 272 332 393
#     4  10  26  44  64  98 138 178 212 282 346 394
#     4  11  24  42  69  96 135 180 223 271 338 409
#     4  11  20  42  67  89 130 175 219 268 330 400
#     4  11  24  40  65 100 128 172 225 276 325 393
#     4  10  24  41  65  96 132 172 218 274 333 393
#     4  10  20  40  66  92 122 176 224 252 322 414
#
# _framework density 19.304725000000001
#
# number of rings (size 3 to 8) (size 9 to 14) (size 15 to 20)
#    0.000    1.333    5.000    1.000    3.500    2.667 
#    1.500    3.333    0.000    0.000    0.000    0.000 
#    0.000    0.000    0.000    0.000    0.000    0.000 
#
# Total GULP energy -133647.807934 kJ/mol
# GULP energy per Si atom -5568.658664 kJ/mol
# Density = 1.926079 g / cm^3
# Si number density = 19.304725 Si / 1000 Ang^3
#
#
#
# Elastic Constant Matrix: (Units=GPa)
#
#
# Indices 1 2 3 4 5 6 
#
# 1 139.5934 32.1221 41.5306 0.0000 0.0000 0.0000
# 2 32.1221 96.4673 14.8205 0.0000 0.0000 0.0000
# 3 41.5306 14.8205 70.1758 0.0000 0.0000 0.0000
# 4 0.0000 0.0000 0.0000 44.8834 0.0000 0.0000
# 5 0.0000 0.0000 0.0000 0.0000 13.7815 0.0000
# 6 0.0000 0.0000 0.0000 0.0000 0.0000 68.7570
#
#
#
# Elastic Compliance Matrix: (Units=1/GPa)
#
#
# Indices 1 2 3 4 5 6 
#
# 1 0.009160 -0.002292 -0.004937 0.000000 0.000000 0.000000
# 2 -0.002292 0.011287 -0.001028 0.000000 0.000000 0.000000
# 3 -0.004937 -0.001028 0.017389 0.000000 0.000000 0.000000
# 4 0.000000 0.000000 0.000000 0.022280 0.000000 0.000000
# 5 0.000000 0.000000 0.000000 0.000000 0.072561 0.000000
# 6 0.000000 0.000000 0.000000 0.000000 0.000000 0.014544
#
#
# Mechanical properties :
#
#
# Convention : Reuss Voigt Hill
#
# Bulk Modulus (GPa) = 46.89663 53.68698 50.29181
# Shear Modulus (GPa) = 29.26714 40.00195 34.63455
#
# Velocity S-wave (km/s) = 3.89789 4.55701 4.24027
# Velocity P-wave (km/s) = 6.67859 7.45380 7.07682
#
# Compressibility (1/GPa) = 0.02132349
#
# Stress axis : x y z
#
# Youngs Moduli (GPa) = 109.17324 88.59639 57.50900
#
# Poissons Ratio (x) = 0.20303 0.28391
# Poissons Ratio (y) = 0.25018 0.05909
# Poissons Ratio (z) = 0.53897 0.09104
#
# Static dielectric constant tensor:
#      x y z
#    x 1.650950 0.000000 0.000000 
#    y 0.000000 1.767340 0.000000 
#    z 0.000000 0.000000 1.668430 
# 
# From -- ./inp_files/20688.got.cif
#   From: 2010.05.17/outbox.cif.g08.bks.cpg/sg20_11_cif.got.tgz:20688.got - 2010.06.03 22:52:26.
