data_PCOD9318512
_publ_section_title
;
Structure prediction by ZEFSAII (Michael W. Deem and Ramdas Pophale) SiO2 
 PCOD9318512
Probable space group: C 2 2 21
;
_chemical_formula_sum "Si O2"
_cell_formula_units_Z 36
_cell_length_a 15.549481
_cell_length_b 13.260247
_cell_length_c 8.143093
_cell_angle_alpha 90.000000
_cell_angle_beta 90.000000
_cell_angle_gamma 90.000000
_cell_volume 1679.024010
_symmetry_space_group_name_H-M "C 2 2 21"
_symmetry_group_IT_number 20
_symmetry_cell_setting 'orthorhombic'
loop_
_space_group_symop_operation_xyz
x,y,z
-x,-y,1/2+z
x,-y,-z
-x,y,1/2-z
1/2+x,1/2+y,z
1/2-x,1/2-y,1/2+z
1/2+x,1/2-y,-z
1/2-x,1/2+y,1/2-z
loop_
_atom_site_type_symbol
_atom_site_label
_atom_site_fract_x
_atom_site_fract_y
_atom_site_fract_z
Si Si1 0.211970 0.660806 0.929258
Si Si2 0.617021 0.500000 0.000000
Si Si3 0.555380 0.720317 0.967320
Si Si4 0.119475 0.705945 0.390876
Si Si5 0.223616 0.533753 0.267895
O O1 0.296771 0.727951 0.923853
O O2 0.205322 0.580589 0.783125
O O3 0.129605 0.732566 0.921018
O O4 0.219994 0.598033 0.099115
O O5 0.560538 0.400729 0.033030
O O6 0.683212 0.529333 0.146382
O O7 0.461751 0.766190 0.003115
O O8 0.585994 0.758788 0.788202
O O9 0.153619 0.591649 0.379480
#
# Coordination Sequence:
#
# PCOD9318512 Si02
#       5
#     8   4   8   8   8
#     4  10  20  41  64  92 127 170 215 270 326 390
#     4  12  20  38  64  98 120 168 218 258 330 394
#     4  10  22  37  65  93 132 168 215 270 332 382
#     4  10  20  41  62  92 130 168 210 277 323 382
#     4  10  22  37  68  89 125 170 214 261 333 385
#
# _framework density 21.441029
#
# number of rings (size 3 to 8) (size 9 to 14) (size 15 to 20)
#    0.000    1.778    4.444    0.000    0.000    1.778 
#    0.000    8.889    0.000    0.000    0.000    0.000 
#    0.000    0.000    0.000    0.000    0.000    0.000 
#
# Total GULP energy -100492.367319 kJ/mol
# GULP energy per Si atom -5582.909296 kJ/mol
# Density = 2.139223 g / cm^3
# Si number density = 21.441029 Si / 1000 Ang^3
#
#
#
# Elastic Constant Matrix: (Units=GPa)
#
#
# Indices 1 2 3 4 5 6 
#
# 1 178.9190 69.7486 15.6011 0.0000 0.0000 0.0000
# 2 69.7486 111.5420 24.4433 0.0000 0.0000 0.0000
# 3 15.6011 24.4433 34.4554 0.0000 0.0000 0.0000
# 4 0.0000 0.0000 0.0000 20.4007 0.0000 0.0000
# 5 0.0000 0.0000 0.0000 0.0000 20.2219 0.0000
# 6 0.0000 0.0000 0.0000 0.0000 0.0000 0.8997
#
#
#
# Elastic Compliance Matrix: (Units=1/GPa)
#
#
# Indices 1 2 3 4 5 6 
#
# 1 0.007391 -0.004604 -0.000080 0.000000 0.000000 0.000000
# 2 -0.004604 0.013484 -0.007481 0.000000 0.000000 0.000000
# 3 -0.000080 -0.007481 0.034366 0.000000 0.000000 0.000000
# 4 0.000000 0.000000 0.000000 0.049018 0.000000 0.000000
# 5 0.000000 0.000000 0.000000 0.000000 0.049451 0.000000
# 6 0.000000 0.000000 0.000000 0.000000 0.000000 1.111445
#
#
# Mechanical properties :
#
#
# Convention : Reuss Voigt Hill
#
# Bulk Modulus (GPa) = 32.35149 60.50027 46.42588
# Shear Modulus (GPa) = 3.84678 22.64604 13.24641
#
# Velocity S-wave (km/s) = 1.34090 3.25345 2.48827
# Velocity P-wave (km/s) = 4.18553 6.51088 5.47313
#
# Compressibility (1/GPa) = 0.03091047
#
# Stress axis : x y z
#
# Youngs Moduli (GPa) = 135.30092 74.16455 29.09817
#
# Poissons Ratio (x) = 0.34146 0.00234
# Poissons Ratio (y) = 0.62293 0.21768
# Poissons Ratio (z) = 0.01087 0.55481
#
# Static dielectric constant tensor:
#      x y z
#    x 1.774960 0.000000 0.000000 
#    y 0.000000 1.765390 0.000000 
#    z 0.000000 0.000000 1.904340 
# 
# From -- ./inp_files/8036.got.cif
#   From: 2010.05.17/outbox.cif.g08.bks.cpg/sg20_5_cif.got.tgz:8036.got - 2010.06.03 22:52:26.
