data_PCOD9318699
_publ_section_title
;
Structure prediction by ZEFSAII (Michael W. Deem and Ramdas Pophale) SiO2 
 PCOD9318699
Probable space group: C 2 2 21
;
_chemical_formula_sum "Si O2"
_cell_formula_units_Z 32
_cell_length_a 13.789777
_cell_length_b 16.972438
_cell_length_c 4.847718
_cell_angle_alpha 90.000000
_cell_angle_beta 90.000000
_cell_angle_gamma 90.000000
_cell_volume 1134.589662
_symmetry_space_group_name_H-M "C 2 2 21"
_symmetry_group_IT_number 20
_symmetry_cell_setting 'orthorhombic'
loop_
_space_group_symop_operation_xyz
x,y,z
-x,-y,1/2+z
x,-y,-z
-x,y,1/2-z
1/2+x,1/2+y,z
1/2-x,1/2-y,1/2+z
1/2+x,1/2-y,-z
1/2-x,1/2+y,1/2-z
loop_
_atom_site_type_symbol
_atom_site_label
_atom_site_fract_x
_atom_site_fract_y
_atom_site_fract_z
Si Si1 0.000000 0.753644 0.750000
Si Si2 0.104592 0.900689 0.792015
Si Si3 0.763188 0.500000 0.500000
Si Si4 0.095107 0.625929 0.142123
Si Si5 0.751320 0.305339 0.071292
O O1 0.922633 0.818010 0.865221
O O2 0.954344 0.698037 0.520941
O O3 0.156190 0.861650 0.059678
O O4 0.000000 0.941485 0.750000
O O5 0.187213 0.960523 0.705908
O O6 0.837229 0.428236 0.448283
O O7 0.160984 0.653059 0.402779
O O8 0.000000 0.579778 0.250000
O O9 0.733802 0.229169 0.873392
#
# Coordination Sequence:
#
# PCOD9318699 Si02
#       5
#     4   8   4   8   8
#     4  10  20  44  76 102 144 190 272 316 382 462
#     4   9  20  43  70 102 143 195 254 322 383 467
#     4  10  24  44  70 102 158 198 256 308 430 466
#     4  11  24  41  72 108 149 201 257 328 391 481
#     4  11  21  39  69 110 149 193 255 326 389 461
#
# _framework density 28.204027
#
# number of rings (size 3 to 8) (size 9 to 14) (size 15 to 20)
#    0.750    1.000    2.500    1.500    1.750    0.000 
#    0.000   11.250    0.000    0.000    0.000    0.000 
#    0.000    0.000    0.000    0.000    0.000    0.000 
#
# Total GULP energy -89268.613789 kJ/mol
# GULP energy per Si atom -5579.288362 kJ/mol
# Density = 2.813983 g / cm^3
# Si number density = 28.204027 Si / 1000 Ang^3
#
#
#
# Elastic Constant Matrix: (Units=GPa)
#
#
# Indices 1 2 3 4 5 6 
#
# 1 222.2573 43.9072 36.1340 0.0000 0.0000 0.0000
# 2 43.9072 153.3555 45.7017 0.0000 0.0000 0.0000
# 3 36.1340 45.7017 121.8098 0.0000 0.0000 0.0000
# 4 0.0000 0.0000 0.0000 38.4058 0.0000 0.0000
# 5 0.0000 0.0000 0.0000 0.0000 30.8512 0.0000
# 6 0.0000 0.0000 0.0000 0.0000 0.0000 37.3361
#
#
#
# Elastic Compliance Matrix: (Units=1/GPa)
#
#
# Indices 1 2 3 4 5 6 
#
# 1 0.004883 -0.001088 -0.001040 0.000000 0.000000 0.000000
# 2 -0.001088 0.007584 -0.002523 0.000000 0.000000 0.000000
# 3 -0.001040 -0.002523 0.009465 0.000000 0.000000 0.000000
# 4 0.000000 0.000000 0.000000 0.026038 0.000000 0.000000
# 5 0.000000 0.000000 0.000000 0.000000 0.032414 0.000000
# 6 0.000000 0.000000 0.000000 0.000000 0.000000 0.026784
#
#
# Mechanical properties :
#
#
# Convention : Reuss Voigt Hill
#
# Bulk Modulus (GPa) = 79.17802 83.21203 81.19502
# Shear Modulus (GPa) = 41.43202 46.09725 43.76463
#
# Velocity S-wave (km/s) = 3.83693 4.04718 3.94346
# Velocity P-wave (km/s) = 6.91112 7.16988 7.04169
#
# Compressibility (1/GPa) = 0.01262977
#
# Stress axis : x y z
#
# Youngs Moduli (GPa) = 204.77575 131.85426 105.65653
#
# Poissons Ratio (x) = 0.14347 0.10992
# Poissons Ratio (y) = 0.22282 0.26654
# Poissons Ratio (z) = 0.21304 0.33263
#
# Static dielectric constant tensor:
#      x y z
#    x 2.414260 0.000000 0.000000 
#    y 0.000000 2.255070 0.000000 
#    z 0.000000 0.000000 2.217310 
# 
# From -- ./inp_files/1585.got.cif
#   From: 2010.05.17/outbox.cif.g08.bks.cpg/sg20_1_cif.got.tgz:1585.got - 2010.06.03 22:52:26.
