data_PCOD9318494
_publ_section_title
;
Structure prediction by ZEFSAII (Michael W. Deem and Ramdas Pophale) SiO2 
 PCOD9318494
Probable space group: C 2 2 21
;
_chemical_formula_sum "Si O2"
_cell_formula_units_Z 32
_cell_length_a 6.984782
_cell_length_b 15.245067
_cell_length_c 11.917616
_cell_angle_alpha 90.000000
_cell_angle_beta 90.000000
_cell_angle_gamma 90.000000
_cell_volume 1269.029101
_symmetry_space_group_name_H-M "C 2 2 21"
_symmetry_group_IT_number 20
_symmetry_cell_setting 'orthorhombic'
loop_
_space_group_symop_operation_xyz
x,y,z
-x,-y,1/2+z
x,-y,-z
-x,y,1/2-z
1/2+x,1/2+y,z
1/2-x,1/2-y,1/2+z
1/2+x,1/2-y,-z
1/2-x,1/2+y,1/2-z
loop_
_atom_site_type_symbol
_atom_site_label
_atom_site_fract_x
_atom_site_fract_y
_atom_site_fract_z
Si Si1 0.229659 0.111953 0.248492
Si Si2 0.248789 0.946241 0.398236
Si Si3 0.270384 0.805938 0.220249
Si Si4 0.655340 0.901241 0.498563
O O1 0.281529 0.205088 0.301833
O O2 0.301751 0.128715 0.122815
O O3 0.000000 0.101385 0.250000
O O4 0.302089 0.023374 0.308674
O O5 0.179740 0.864671 0.321013
O O6 0.433202 0.907406 0.462914
O O7 0.144838 0.000000 0.500000
O O8 0.500000 0.806229 0.250000
O O9 0.243102 0.851788 0.101438
O O10 0.724636 0.000000 0.500000
#
# Coordination Sequence:
#
# PCOD9318494 Si02
#       4
#     8   8   8   8
#     4  11  24  41  68 103 143 179 230 300 358 393
#     4  10  22  39  68  95 136 185 234 274 345 423
#     4   9  20  40  63 100 135 181 235 285 341 422
#     4  10  20  40  72  90 137 186 235 277 342 424
#
# _framework density 25.216127
#
# number of rings (size 3 to 8) (size 9 to 14) (size 15 to 20)
#    0.000    2.000    2.500    0.000    7.000    1.000 
#    0.000    0.000   11.000    0.000    0.000    0.000 
#    0.000    0.000    0.000    0.000    0.000    0.000 
#
# Total GULP energy -89365.551977 kJ/mol
# GULP energy per Si atom -5585.346999 kJ/mol
# Density = 2.515873 g / cm^3
# Si number density = 25.216127 Si / 1000 Ang^3
#
#
#
# Elastic Constant Matrix: (Units=GPa)
#
#
# Indices 1 2 3 4 5 6 
#
# 1 107.2452 -7.6754 31.6812 0.0000 0.0000 0.0000
# 2 -7.6754 104.3971 17.9816 0.0000 0.0000 0.0000
# 3 31.6812 17.9816 139.8663 0.0000 0.0000 0.0000
# 4 0.0000 0.0000 0.0000 53.6919 0.0000 0.0000
# 5 0.0000 0.0000 0.0000 0.0000 25.2741 0.0000
# 6 0.0000 0.0000 0.0000 0.0000 0.0000 5.9325
#
#
#
# Elastic Compliance Matrix: (Units=1/GPa)
#
#
# Indices 1 2 3 4 5 6 
#
# 1 0.010130 0.001166 -0.002444 0.000000 0.000000 0.000000
# 2 0.001166 0.009930 -0.001541 0.000000 0.000000 0.000000
# 3 -0.002444 -0.001541 0.007901 0.000000 0.000000 0.000000
# 4 0.000000 0.000000 0.000000 0.018625 0.000000 0.000000
# 5 0.000000 0.000000 0.000000 0.000000 0.039566 0.000000
# 6 0.000000 0.000000 0.000000 0.000000 0.000000 0.168563
#
#
# Mechanical properties :
#
#
# Convention : Reuss Voigt Hill
#
# Bulk Modulus (GPa) = 44.79748 48.38707 46.59227
# Shear Modulus (GPa) = 18.67103 37.61445 28.14274
#
# Velocity S-wave (km/s) = 2.72405 3.86642 3.34437
# Velocity P-wave (km/s) = 5.26288 6.25802 5.78190
#
# Compressibility (1/GPa) = 0.02232269
#
# Stress axis : x y z
#
# Youngs Moduli (GPa) = 98.71704 100.70607 126.55912
#
# Poissons Ratio (x) = -0.11740 0.30936
# Poissons Ratio (y) = -0.11508 0.19499
# Poissons Ratio (z) = 0.24131 0.15516
#
# Static dielectric constant tensor:
#      x y z
#    x 2.077120 0.000000 0.000000 
#    y 0.000000 1.998600 0.000000 
#    z 0.000000 0.000000 1.857760 
# 
# From -- ./inp_files/12473.got.cif
#   From: 2010.05.17/outbox.cif.g08.bks.cpg/sg20_7_cif.got.tgz:12473.got - 2010.06.03 22:52:26.
