data_PCOD9318727
_publ_section_title
;
Structure prediction by ZEFSAII (Michael W. Deem and Ramdas Pophale) SiO2 
 PCOD9318727
Probable space group: C 2 2 21
;
_chemical_formula_sum "Si O2"
_cell_formula_units_Z 28
_cell_length_a 8.152125
_cell_length_b 24.001711
_cell_length_c 5.374868
_cell_angle_alpha 90.000000
_cell_angle_beta 90.000000
_cell_angle_gamma 90.000000
_cell_volume 1051.673269
_symmetry_space_group_name_H-M "C 2 2 21"
_symmetry_group_IT_number 20
_symmetry_cell_setting 'orthorhombic'
loop_
_space_group_symop_operation_xyz
x,y,z
-x,-y,1/2+z
x,-y,-z
-x,y,1/2-z
1/2+x,1/2+y,z
1/2-x,1/2-y,1/2+z
1/2+x,1/2-y,-z
1/2-x,1/2+y,1/2-z
loop_
_atom_site_type_symbol
_atom_site_label
_atom_site_fract_x
_atom_site_fract_y
_atom_site_fract_z
Si Si1 0.815213 0.424177 0.342002
Si Si2 0.093700 0.000000 0.000000
Si Si3 0.500000 0.720861 0.250000
Si Si4 0.272044 0.179833 0.910594
Si Si5 0.000000 0.601581 0.250000
O O1 0.695067 0.454306 0.154890
O O2 0.764952 0.358954 0.333581
O O3 0.855743 0.436235 0.629221
O O4 0.000000 0.433841 0.250000
O O5 0.000000 0.024976 0.250000
O O6 0.639310 0.761682 0.363339
O O7 0.401357 0.687009 0.457199
O O8 0.397782 0.143497 0.075843
#
# Coordination Sequence:
#
# PCOD9318727 Si02
#       5
#     8   4   4   8   4
#     4  10  25  50  81 112 160 217 274 336 417 514
#     4  12  32  52  82 130 168 212 276 358 438 494
#     4  12  24  42  72 109 162 209 270 328 402 486
#     4  11  24  44  69 115 154 214 266 334 402 488
#     4  10  20  48  80 109 158 211 276 336 418 490
#
# _framework density 26.624237000000001
#
# number of rings (size 3 to 8) (size 9 to 14) (size 15 to 20)
#    0.000    1.143    4.286    1.714   10.000    1.143 
#    2.571    0.000    0.000    0.000    0.000    0.000 
#    0.000    0.000    0.000    0.000    0.000    0.000 
#
# Total GULP energy -78142.719034 kJ/mol
# GULP energy per Si atom -5581.622788 kJ/mol
# Density = 2.656364 g / cm^3
# Si number density = 26.624237 Si / 1000 Ang^3
#
#
#
# Elastic Constant Matrix: (Units=GPa)
#
#
# Indices 1 2 3 4 5 6 
#
# 1 147.5016 46.3343 57.8874 0.0000 0.0000 0.0000
# 2 46.3343 77.8397 34.2062 0.0000 0.0000 0.0000
# 3 57.8874 34.2062 137.7525 0.0000 0.0000 0.0000
# 4 0.0000 0.0000 0.0000 41.2706 0.0000 0.0000
# 5 0.0000 0.0000 0.0000 0.0000 72.5499 0.0000
# 6 0.0000 0.0000 0.0000 0.0000 0.0000 28.5841
#
#
#
# Elastic Compliance Matrix: (Units=1/GPa)
#
#
# Indices 1 2 3 4 5 6 
#
# 1 0.009221 -0.004250 -0.002820 0.000000 0.000000 0.000000
# 2 -0.004250 0.016379 -0.002281 0.000000 0.000000 0.000000
# 3 -0.002820 -0.002281 0.009011 0.000000 0.000000 0.000000
# 4 0.000000 0.000000 0.000000 0.024230 0.000000 0.000000
# 5 0.000000 0.000000 0.000000 0.000000 0.013784 0.000000
# 6 0.000000 0.000000 0.000000 0.000000 0.000000 0.034985
#
#
# Mechanical properties :
#
#
# Convention : Reuss Voigt Hill
#
# Bulk Modulus (GPa) = 62.85572 71.10551 66.98061
# Shear Modulus (GPa) = 37.98978 43.45864 40.72421
#
# Velocity S-wave (km/s) = 3.78151 4.04455 3.91524
# Velocity P-wave (km/s) = 6.53653 6.96967 6.75657
#
# Compressibility (1/GPa) = 0.01590945
#
# Stress axis : x y z
#
# Youngs Moduli (GPa) = 108.44614 61.05327 110.97795
#
# Poissons Ratio (x) = 0.25947 0.31292
# Poissons Ratio (y) = 0.46088 0.25318
# Poissons Ratio (z) = 0.30578 0.13928
#
# Static dielectric constant tensor:
#      x y z
#    x 2.117330 0.000000 0.000000 
#    y 0.000000 2.082000 0.000000 
#    z 0.000000 0.000000 2.648740 
# 
# From -- ./inp_files/487.got.cif
#   From: 2010.05.17/outbox.cif.g08.bks.cpg/sg20_1_cif.got.tgz:487.got - 2010.06.03 22:52:26.
