data_PCOD9318979
_publ_section_title
;
Structure prediction by ZEFSAII (Michael W. Deem and Ramdas Pophale) SiO2 
 PCOD9318979
Probable space group: C 2 2 21
;
_chemical_formula_sum "Si O2"
_cell_formula_units_Z 48
_cell_length_a 28.420400
_cell_length_b 9.241448
_cell_length_c 8.304622
_cell_angle_alpha 90.000000
_cell_angle_beta 90.000000
_cell_angle_gamma 90.000000
_cell_volume 2181.172833
_symmetry_space_group_name_H-M "C 2 2 21"
_symmetry_group_IT_number 20
_symmetry_cell_setting 'orthorhombic'
loop_
_space_group_symop_operation_xyz
x,y,z
-x,-y,1/2+z
x,-y,-z
-x,y,1/2-z
1/2+x,1/2+y,z
1/2-x,1/2-y,1/2+z
1/2+x,1/2-y,-z
1/2-x,1/2+y,1/2-z
loop_
_atom_site_type_symbol
_atom_site_label
_atom_site_fract_x
_atom_site_fract_y
_atom_site_fract_z
Si Si1 0.799274 0.593694 0.141876
Si Si2 0.635182 0.159813 0.059915
Si Si3 0.460057 0.599025 0.351138
Si Si4 0.644409 0.592017 0.165147
Si Si5 0.273986 0.577161 0.841302
Si Si6 0.472545 0.841332 0.579672
O O1 0.834008 0.644173 0.282492
O O2 0.760840 0.475782 0.200983
O O3 0.776582 0.753034 0.113224
O O4 0.823540 0.500000 0.000000
O O5 0.582146 0.208262 0.104011
O O6 0.657499 0.252473 0.913384
O O7 0.628665 0.000000 0.000000
O O8 0.448706 0.500000 0.500000
O O9 0.500000 0.521494 0.250000
O O10 0.408915 0.618224 0.270863
O O11 0.486219 0.736394 0.431275
O O12 0.677087 0.504568 0.289790
O O13 0.646368 0.500000 0.000000
O O14 0.255322 0.500000 0.000000
O O15 0.500000 0.835069 0.750000
O O16 0.475330 0.000000 0.500000
#
# Coordination Sequence:
#
# PCOD9318979 Si02
#       6
#     8   8   8   8   8   8
#     4  12  27  45  69 100 136 172 222 272 333 396
#     4  10  23  41  67  94 129 178 222 272 331 398
#     4  10  21  38  63  96 127 172 217 266 325 387
#     4  10  21  43  66  89 133 177 220 268 332 390
#     4  12  27  44  68 100 133 176 218 278 331 395
#     4  10  21  40  64  93 130 172 217 270 329 389
#
# _framework density 22.006508
#
# number of rings (size 3 to 8) (size 9 to 14) (size 15 to 20)
#    0.000    1.333    1.667    3.000    7.000    1.333 
#    3.000    0.000    0.000    0.000    0.000    0.000 
#    0.000    0.000    0.000    0.000    0.000    0.000 
#
# Total GULP energy -133617.438979 kJ/mol
# GULP energy per Si atom -5567.393291 kJ/mol
# Density = 2.195642 g / cm^3
# Si number density = 22.006508 Si / 1000 Ang^3
#
#
#
# Elastic Constant Matrix: (Units=GPa)
#
#
# Indices 1 2 3 4 5 6 
#
# 1 63.9214 -3.3247 12.7560 0.0000 0.0000 0.0000
# 2 -3.3247 134.2742 8.3414 0.0000 0.0000 0.0000
# 3 12.7560 8.3414 35.0480 0.0000 0.0000 0.0000
# 4 0.0000 0.0000 0.0000 33.2223 0.0000 0.0000
# 5 0.0000 0.0000 0.0000 0.0000 34.6789 0.0000
# 6 0.0000 0.0000 0.0000 0.0000 0.0000 34.2868
#
#
#
# Elastic Compliance Matrix: (Units=1/GPa)
#
#
# Indices 1 2 3 4 5 6 
#
# 1 0.016957 0.000815 -0.006366 0.000000 0.000000 0.000000
# 2 0.000815 0.007598 -0.002105 0.000000 0.000000 0.000000
# 3 -0.006366 -0.002105 0.031350 0.000000 0.000000 0.000000
# 4 0.000000 0.000000 0.000000 0.030100 0.000000 0.000000
# 5 0.000000 0.000000 0.000000 0.000000 0.028836 0.000000
# 6 0.000000 0.000000 0.000000 0.000000 0.000000 0.029166
#
#
# Mechanical properties :
#
#
# Convention : Reuss Voigt Hill
#
# Bulk Modulus (GPa) = 24.63388 29.86544 27.24966
# Shear Modulus (GPa) = 28.92683 34.80233 31.86458
#
# Velocity S-wave (km/s) = 3.62949 3.98107 3.80934
# Velocity P-wave (km/s) = 5.36493 5.89343 5.63538
#
# Compressibility (1/GPa) = 0.04059450
#
# Stress axis : x y z
#
# Youngs Moduli (GPa) = 58.97294 131.60647 31.89780
#
# Poissons Ratio (x) = -0.10730 0.20305
# Poissons Ratio (y) = -0.04808 0.06715
# Poissons Ratio (z) = 0.37540 0.27705
#
# Static dielectric constant tensor:
#      x y z
#    x 1.931440 0.000000 0.000000 
#    y 0.000000 1.940430 0.000000 
#    z 0.000000 0.000000 1.621510 
# 
# From -- ./inp_files/11428.got.cif
#   From: 2010.05.17/outbox.cif.g08.bks.cpg/sg20_6_cif.got.tgz:11428.got - 2010.06.03 22:52:26.
