data_PCOD9318409
_publ_section_title
;
Structure prediction by ZEFSAII (Michael W. Deem and Ramdas Pophale) SiO2 
 PCOD9318409
Probable space group: C 2 2 21
;
_chemical_formula_sum "Si O2"
_cell_formula_units_Z 48
_cell_length_a 29.833261
_cell_length_b 7.951677
_cell_length_c 9.470532
_cell_angle_alpha 90.000000
_cell_angle_beta 90.000000
_cell_angle_gamma 90.000000
_cell_volume 2246.641795
_symmetry_space_group_name_H-M "C 2 2 21"
_symmetry_group_IT_number 20
_symmetry_cell_setting 'orthorhombic'
loop_
_space_group_symop_operation_xyz
x,y,z
-x,-y,1/2+z
x,-y,-z
-x,y,1/2-z
1/2+x,1/2+y,z
1/2-x,1/2-y,1/2+z
1/2+x,1/2-y,-z
1/2-x,1/2+y,1/2-z
loop_
_atom_site_type_symbol
_atom_site_label
_atom_site_fract_x
_atom_site_fract_y
_atom_site_fract_z
Si Si1 0.689084 0.430555 0.269799
Si Si2 0.362386 0.092630 0.734387
Si Si3 0.036333 0.939561 0.146164
Si Si4 0.774217 0.423358 0.848921
Si Si5 0.126062 0.745585 0.069034
Si Si6 0.597852 0.390531 0.635222
O O1 0.729856 0.556723 0.244849
O O2 0.707551 0.267453 0.353844
O O3 0.668133 0.349383 0.128029
O O4 0.645996 0.522824 0.332419
O O5 0.363910 0.206820 0.593629
O O6 0.389804 0.192102 0.855684
O O7 0.313225 0.042364 0.786371
O O8 0.379499 0.917124 0.669650
O O9 0.079105 0.836562 0.091446
O O10 0.000000 0.855153 0.250000
O O11 0.060061 0.078861 0.245719
O O12 0.014868 0.000000 0.000000
O O13 0.763421 0.500000 0.000000
O O14 0.583514 0.500000 0.500000
#
# Coordination Sequence:
#
# PCOD9318409 Si02
#       6
#     8   8   8   8   8   8
#     4  10  23  35  55  86 123 173 214 270 327 380
#     4  10  20  40  64  87 127 169 222 272 323 394
#     4  11  22  41  68  97 129 162 213 268 331 408
#     4  11  23  36  54  87 127 169 226 278 321 385
#     4   9  21  40  64  90 122 174 220 267 341 392
#     4  11  22  39  64  92 125 171 215 269 334 395
#
# _framework density 21.365221999999999
#
# number of rings (size 3 to 8) (size 9 to 14) (size 15 to 20)
#    0.000    1.667    1.667    2.500    4.667    0.000 
#    3.000    0.833    3.667    0.000    0.000    0.000 
#    0.000    0.000    0.000    0.000    0.000    0.000 
#
# Total GULP energy -133858.405169 kJ/mol
# GULP energy per Si atom -5577.433549 kJ/mol
# Density = 2.131659 g / cm^3
# Si number density = 21.365222 Si / 1000 Ang^3
#
#
#
# Elastic Constant Matrix: (Units=GPa)
#
#
# Indices 1 2 3 4 5 6 
#
# 1 83.1657 10.6647 20.0520 0.0000 0.0000 0.0000
# 2 10.6647 69.0603 15.0902 0.0000 0.0000 0.0000
# 3 20.0520 15.0902 84.5614 0.0000 0.0000 0.0000
# 4 0.0000 0.0000 0.0000 26.4651 0.0000 0.0000
# 5 0.0000 0.0000 0.0000 0.0000 21.6096 0.0000
# 6 0.0000 0.0000 0.0000 0.0000 0.0000 -5.9638
#
#
#
# Elastic Compliance Matrix: (Units=1/GPa)
#
#
# Indices 1 2 3 4 5 6 
#
# 1 0.012878 -0.001375 -0.002808 0.000000 0.000000 0.000000
# 2 -0.001375 0.015214 -0.002389 0.000000 0.000000 0.000000
# 3 -0.002808 -0.002389 0.012918 0.000000 0.000000 0.000000
# 4 0.000000 0.000000 0.000000 0.037786 0.000000 0.000000
# 5 0.000000 0.000000 0.000000 0.000000 0.046276 0.000000
# 6 0.000000 0.000000 0.000000 0.000000 0.000000 -0.167677
#
#
# Mechanical properties :
#
#
# Convention : Reuss Voigt Hill
#
# Bulk Modulus (GPa) = 35.88673 36.48902 36.18788
# Shear Modulus (GPa) = -247.85955 21.15421 -113.35267
#
# Velocity S-wave (km/s) = -10.78251 3.15004 -7.29177
# Velocity P-wave (km/s) = 11.75515 5.50873 7.34294
#
# Compressibility (1/GPa) = 0.02786545
#
# Stress axis : x y z
#
# Youngs Moduli (GPa) = 77.65417 65.72697 77.41155
#
# Poissons Ratio (x) = 0.09038 0.21739
# Poissons Ratio (y) = 0.10678 0.18494
# Poissons Ratio (z) = 0.21807 0.15702
#
# Static dielectric constant tensor:
#      x y z
#    x 1.744720 0.000000 0.000000 
#    y 0.000000 1.823390 0.000000 
#    z 0.000000 0.000000 1.824060 
# 
# From -- ./inp_files/6507.got.cif
#   From: 2010.05.17/outbox.cif.g08.bks.cpg/sg20_4_cif.got.tgz:6507.got - 2010.06.03 22:52:26.
