data_PCOD9318346
_publ_section_title
;
Structure prediction by ZEFSAII (Michael W. Deem and Ramdas Pophale) SiO2 
 PCOD9318346
Probable space group: C 2 2 21
;
_chemical_formula_sum "Si O2"
_cell_formula_units_Z 40
_cell_length_a 22.990073
_cell_length_b 7.236432
_cell_length_c 9.779734
_cell_angle_alpha 90.000000
_cell_angle_beta 90.000000
_cell_angle_gamma 90.000000
_cell_volume 1627.016204
_symmetry_space_group_name_H-M "C 2 2 21"
_symmetry_group_IT_number 20
_symmetry_cell_setting 'orthorhombic'
loop_
_space_group_symop_operation_xyz
x,y,z
-x,-y,1/2+z
x,-y,-z
-x,y,1/2-z
1/2+x,1/2+y,z
1/2-x,1/2-y,1/2+z
1/2+x,1/2-y,-z
1/2-x,1/2+y,1/2-z
loop_
_atom_site_type_symbol
_atom_site_label
_atom_site_fract_x
_atom_site_fract_y
_atom_site_fract_z
Si Si1 0.541450 0.000000 0.000000
Si Si2 0.500000 0.787506 0.750000
Si Si3 0.220247 0.777084 0.006502
Si Si4 0.866976 0.710231 0.698153
Si Si5 0.871925 0.846349 0.273073
Si Si6 0.652024 0.293379 0.519118
O O1 0.500316 0.102235 0.108005
O O2 0.583301 0.877626 0.101469
O O3 0.559513 0.679322 0.767527
O O4 0.164925 0.758212 0.105472
O O5 0.196611 0.678477 0.868796
O O6 0.280113 0.692369 0.058243
O O7 0.231364 0.000000 0.000000
O O8 0.865806 0.934550 0.704327
O O9 0.875378 0.673336 0.860006
O O10 0.848055 0.741659 0.139123
O O11 0.625340 0.500000 0.500000
#
# Coordination Sequence:
#
# PCOD9318346 Si02
#       6
#     4   4   8   8   8   8
#     4  12  28  46  70 102 134 180 236 308 348 412
#     4  12  28  46  70  98 138 182 236 298 354 420
#     4  10  20  39  66  97 139 181 230 283 348 415
#     4  10  23  45  65 101 139 179 234 285 354 419
#     4  10  23  46  67  98 137 189 231 276 356 430
#     4  10  22  39  68 103 137 180 232 283 345 418
#
# _framework density 24.584880999999999
#
# number of rings (size 3 to 8) (size 9 to 14) (size 15 to 20)
#    0.000    1.600    2.000    1.200    4.200    2.400 
#    7.200    0.000    0.000    0.000    0.000    0.000 
#    0.000    0.000    0.000    0.000    0.000    0.000 
#
# Total GULP energy -111521.543232 kJ/mol
# GULP energy per Si atom -5576.077162 kJ/mol
# Density = 2.452892 g / cm^3
# Si number density = 24.584881 Si / 1000 Ang^3
#
#
#
# Elastic Constant Matrix: (Units=GPa)
#
#
# Indices 1 2 3 4 5 6 
#
# 1 89.7565 2.0770 17.3482 0.0000 0.0000 0.0000
# 2 2.0770 86.4838 22.1926 0.0000 0.0000 0.0000
# 3 17.3482 22.1926 135.9002 0.0000 0.0000 0.0000
# 4 0.0000 0.0000 0.0000 16.1235 0.0000 0.0000
# 5 0.0000 0.0000 0.0000 0.0000 39.7490 0.0000
# 6 0.0000 0.0000 0.0000 0.0000 0.0000 -43.1429
#
#
#
# Elastic Compliance Matrix: (Units=1/GPa)
#
#
# Indices 1 2 3 4 5 6 
#
# 1 0.011424 0.000104 -0.001475 0.000000 0.000000 0.000000
# 2 0.000104 0.012070 -0.001984 0.000000 0.000000 0.000000
# 3 -0.001475 -0.001984 0.007871 0.000000 0.000000 0.000000
# 4 0.000000 0.000000 0.000000 0.062021 0.000000 0.000000
# 5 0.000000 0.000000 0.000000 0.000000 0.025158 0.000000
# 6 0.000000 0.000000 0.000000 0.000000 0.000000 -0.023179
#
#
# Mechanical properties :
#
#
# Convention : Reuss Voigt Hill
#
# Bulk Modulus (GPa) = 40.56223 43.93068 42.24646
# Shear Modulus (GPa) = 45.33375 20.58077 32.95726
#
# Velocity S-wave (km/s) = 4.29880 2.89646 3.66532
# Velocity P-wave (km/s) = 6.41672 5.39386 5.92740
#
# Compressibility (1/GPa) = 0.02465347
#
# Stress axis : x y z
#
# Youngs Moduli (GPa) = 87.53507 82.85323 127.05341
#
# Poissons Ratio (x) = -0.00864 0.18745
# Poissons Ratio (y) = -0.00912 0.25211
# Poissons Ratio (z) = 0.12914 0.16440
#
# Static dielectric constant tensor:
#      x y z
#    x 1.869980 0.000000 0.000000 
#    y 0.000000 2.041120 0.000000 
#    z 0.000000 0.000000 2.163370 
# 
# From -- ./inp_files/10534.got.cif
#   From: 2010.05.17/outbox.cif.g08.bks.cpg/sg20_6_cif.got.tgz:10534.got - 2010.06.03 22:52:26.
