data_PCOD9318790
_publ_section_title
;
Structure prediction by ZEFSAII (Michael W. Deem and Ramdas Pophale) SiO2 
 PCOD9318790
Probable space group: C 2 2 21
;
_chemical_formula_sum "Si O2"
_cell_formula_units_Z 40
_cell_length_a 19.147465
_cell_length_b 12.781291
_cell_length_c 7.599561
_cell_angle_alpha 90.000000
_cell_angle_beta 90.000000
_cell_angle_gamma 90.000000
_cell_volume 1859.835412
_symmetry_space_group_name_H-M "C 2 2 21"
_symmetry_group_IT_number 20
_symmetry_cell_setting 'orthorhombic'
loop_
_space_group_symop_operation_xyz
x,y,z
-x,-y,1/2+z
x,-y,-z
-x,y,1/2-z
1/2+x,1/2+y,z
1/2-x,1/2-y,1/2+z
1/2+x,1/2-y,-z
1/2-x,1/2+y,1/2-z
loop_
_atom_site_type_symbol
_atom_site_label
_atom_site_fract_x
_atom_site_fract_y
_atom_site_fract_z
Si Si1 0.955035 0.500000 0.500000
Si Si2 0.698681 0.571412 0.740901
Si Si3 0.695804 0.651020 0.143739
Si Si4 0.354736 0.872148 0.253726
Si Si5 0.851523 0.721743 0.130367
Si Si6 0.000000 0.333533 0.750000
O O1 0.910466 0.447261 0.343567
O O2 0.998294 0.593172 0.419307
O O3 0.672793 0.452937 0.752898
O O4 0.781122 0.572426 0.706771
O O5 0.663477 0.654387 0.610698
O O6 0.693762 0.619891 0.938250
O O7 0.650699 0.755329 0.166359
O O8 0.776113 0.679329 0.200499
O O9 0.360971 0.845580 0.047278
O O10 0.923292 0.718100 0.240995
#
# Coordination Sequence:
#
# PCOD9318790 Si02
#       6
#     4   8   8   8   8   4
#     4  12  24  38  58  82 112 156 190 236 294 344
#     4   9  18  34  59  86 116 147 185 242 297 336
#     4   9  18  35  59  87 115 146 188 243 292 340
#     4  10  21  36  58  87 116 146 195 244 291 342
#     4  10  21  36  55  86 117 150 192 236 285 346
#     4  12  24  38  56  78 116 152 190 230 280 356
#
# _framework density 21.507279
#
# number of rings (size 3 to 8) (size 9 to 14) (size 15 to 20)
#    0.000    2.000    0.000    3.600    0.000   10.400 
#    0.000    0.000    0.000   10.800    0.000    0.000 
#    0.000    0.000    0.000    0.000    0.000    0.000 
#
# Total GULP energy -111562.612197 kJ/mol
# GULP energy per Si atom -5578.130610 kJ/mol
# Density = 2.145833 g / cm^3
# Si number density = 21.507279 Si / 1000 Ang^3
#
#
#
# Elastic Constant Matrix: (Units=GPa)
#
#
# Indices 1 2 3 4 5 6 
#
# 1 76.3798 15.3421 12.0977 0.0000 0.0000 0.0000
# 2 15.3421 101.9671 7.0088 0.0000 0.0000 0.0000
# 3 12.0977 7.0088 27.4755 0.0000 0.0000 0.0000
# 4 0.0000 0.0000 0.0000 43.9908 0.0000 0.0000
# 5 0.0000 0.0000 0.0000 0.0000 31.0315 0.0000
# 6 0.0000 0.0000 0.0000 0.0000 0.0000 8.0268
#
#
#
# Elastic Compliance Matrix: (Units=1/GPa)
#
#
# Indices 1 2 3 4 5 6 
#
# 1 0.014377 -0.001759 -0.005882 0.000000 0.000000 0.000000
# 2 -0.001759 0.010197 -0.001827 0.000000 0.000000 0.000000
# 3 -0.005882 -0.001827 0.039452 0.000000 0.000000 0.000000
# 4 0.000000 0.000000 0.000000 0.022732 0.000000 0.000000
# 5 0.000000 0.000000 0.000000 0.000000 0.032225 0.000000
# 6 0.000000 0.000000 0.000000 0.000000 0.000000 0.124582
#
#
# Mechanical properties :
#
#
# Convention : Reuss Voigt Hill
#
# Bulk Modulus (GPa) = 22.17713 30.52439 26.35076
# Shear Modulus (GPa) = 18.01595 28.03473 23.02534
#
# Velocity S-wave (km/s) = 2.89739 3.61432 3.27553
# Velocity P-wave (km/s) = 4.63972 5.62504 5.15597
#
# Compressibility (1/GPa) = 0.04509150
#
# Stress axis : x y z
#
# Youngs Moduli (GPa) = 69.55368 98.06511 25.34740
#
# Poissons Ratio (x) = 0.17249 0.14909
# Poissons Ratio (y) = 0.12234 0.04630
# Poissons Ratio (z) = 0.40910 0.17914
#
# Static dielectric constant tensor:
#      x y z
#    x 1.762040 0.000000 0.000000 
#    y 0.000000 1.767830 0.000000 
#    z 0.000000 0.000000 1.878730 
# 
# From -- ./inp_files/7124.got.cif
#   From: 2010.05.17/outbox.cif.g08.bks.cpg/sg20_4_cif.got.tgz:7124.got - 2010.06.03 22:52:26.
