data_PCOD9318078
_publ_section_title
;
Structure prediction by ZEFSAII (Michael W. Deem and Ramdas Pophale) SiO2 
 PCOD9318078
Probable space group: C 2 2 21
;
_chemical_formula_sum "Si O2"
_cell_formula_units_Z 60
_cell_length_a 25.204106
_cell_length_b 12.289497
_cell_length_c 7.884471
_cell_angle_alpha 90.000000
_cell_angle_beta 90.000000
_cell_angle_gamma 90.000000
_cell_volume 2442.181660
_symmetry_space_group_name_H-M "C 2 2 21"
_symmetry_group_IT_number 20
_symmetry_cell_setting 'orthorhombic'
loop_
_space_group_symop_operation_xyz
x,y,z
-x,-y,1/2+z
x,-y,-z
-x,y,1/2-z
1/2+x,1/2+y,z
1/2-x,1/2-y,1/2+z
1/2+x,1/2-y,-z
1/2-x,1/2+y,1/2-z
loop_
_atom_site_type_symbol
_atom_site_label
_atom_site_fract_x
_atom_site_fract_y
_atom_site_fract_z
Si Si1 0.153350 0.486061 0.804041
Si Si2 0.500000 0.246627 0.750000
Si Si3 0.231642 0.914871 0.701199
Si Si4 0.212795 0.771684 0.011179
Si Si5 0.111522 0.696183 0.794403
Si Si6 0.382391 0.600555 0.084135
Si Si7 0.030964 0.118434 0.928053
Si Si8 0.871120 0.235276 0.750609
O O1 0.217337 0.490296 0.810154
O O2 0.132811 0.588747 0.698103
O O3 0.135420 0.365906 0.747971
O O4 0.133361 0.500000 0.000000
O O5 0.549240 0.169998 0.804986
O O6 0.502526 0.321798 0.577912
O O7 0.232582 0.863975 0.888293
O O8 0.244132 0.814330 0.572980
O O9 0.172815 0.950701 0.653892
O O10 0.162870 0.713338 0.916727
O O11 0.183919 0.813388 0.178932
O O12 0.102058 0.821636 0.737175
O O13 0.377891 0.688369 0.935889
O O14 0.413232 0.500000 0.000000
O O15 0.081452 0.192326 0.870525
O O16 0.000000 0.105110 0.750000
O O17 0.047228 0.000000 0.000000
#
# Coordination Sequence:
#
# PCOD9318078 Si02
#       8
#     8   4   8   8   8   8   8   8
#     4  11  20  43  73 101 146 190 231 300 364 435
#     4  12  24  48  72 108 144 200 254 314 378 450
#     4  10  20  37  70 101 142 191 236 287 370 437
#     4  10  20  40  67 102 136 189 234 293 354 454
#     4  11  24  44  75 104 144 193 248 297 376 437
#     4  11  26  43  71 106 151 189 240 306 362 449
#     4  12  26  44  73 105 142 193 249 310 383 448
#     4  11  24  44  71 101 147 186 239 305 368 444
#
# _framework density 24.568197999999999
#
# number of rings (size 3 to 8) (size 9 to 14) (size 15 to 20)
#    0.000    1.067    4.667    2.800    1.867    1.600 
#    1.200    0.000    2.933    0.000    0.000    0.000 
#    0.000    0.000    0.000    0.000    0.000    0.000 
#
# Total GULP energy -167290.050556 kJ/mol
# GULP energy per Si atom -5576.335019 kJ/mol
# Density = 2.451228 g / cm^3
# Si number density = 24.568198 Si / 1000 Ang^3
#
#
#
# Elastic Constant Matrix: (Units=GPa)
#
#
# Indices 1 2 3 4 5 6 
#
# 1 71.5680 22.6325 4.4675 0.0000 0.0000 0.0000
# 2 22.6325 103.5670 6.2047 0.0000 0.0000 0.0000
# 3 4.4675 6.2047 58.4338 0.0000 0.0000 0.0000
# 4 0.0000 0.0000 0.0000 40.7687 0.0000 0.0000
# 5 0.0000 0.0000 0.0000 0.0000 30.6368 0.0000
# 6 0.0000 0.0000 0.0000 0.0000 0.0000 30.5936
#
#
#
# Elastic Compliance Matrix: (Units=1/GPa)
#
#
# Indices 1 2 3 4 5 6 
#
# 1 0.015048 -0.003240 -0.000806 0.000000 0.000000 0.000000
# 2 -0.003240 0.010415 -0.000858 0.000000 0.000000 0.000000
# 3 -0.000806 -0.000858 0.017266 0.000000 0.000000 0.000000
# 4 0.000000 0.000000 0.000000 0.024529 0.000000 0.000000
# 5 0.000000 0.000000 0.000000 0.000000 0.032640 0.000000
# 6 0.000000 0.000000 0.000000 0.000000 0.000000 0.032687
#
#
# Mechanical properties :
#
#
# Convention : Reuss Voigt Hill
#
# Bulk Modulus (GPa) = 30.37708 33.35314 31.86511
# Shear Modulus (GPa) = 32.60154 33.75078 33.17616
#
# Velocity S-wave (km/s) = 3.64673 3.71045 3.67872
# Velocity P-wave (km/s) = 5.48842 5.65347 5.57156
#
# Compressibility (1/GPa) = 0.03291956
#
# Stress axis : x y z
#
# Youngs Moduli (GPa) = 66.45534 96.01495 57.91678
#
# Poissons Ratio (x) = 0.31109 0.04671
# Poissons Ratio (y) = 0.21532 0.04970
# Poissons Ratio (z) = 0.05359 0.08240
#
# Static dielectric constant tensor:
#      x y z
#    x 2.024530 0.000000 0.000000 
#    y 0.000000 1.976460 0.000000 
#    z 0.000000 0.000000 2.124300 
# 
# From -- ./inp_files/11152.got.cif
#   From: 2010.05.17/outbox.cif.g08.bks.cpg/sg20_6_cif.got.tgz:11152.got - 2010.06.03 22:52:26.
