data_PCOD9318866
_publ_section_title
;
Structure prediction by ZEFSAII (Michael W. Deem and Ramdas Pophale) SiO2 
 PCOD9318866
Probable space group: C 2 2 21
;
_chemical_formula_sum "Si O2"
_cell_formula_units_Z 64
_cell_length_a 19.084271
_cell_length_b 8.901311
_cell_length_c 20.408204
_cell_angle_alpha 90.000000
_cell_angle_beta 90.000000
_cell_angle_gamma 90.000000
_cell_volume 3466.844295
_symmetry_space_group_name_H-M "C 2 2 21"
_symmetry_group_IT_number 20
_symmetry_cell_setting 'orthorhombic'
loop_
_space_group_symop_operation_xyz
x,y,z
-x,-y,1/2+z
x,-y,-z
-x,y,1/2-z
1/2+x,1/2+y,z
1/2-x,1/2-y,1/2+z
1/2+x,1/2-y,-z
1/2-x,1/2+y,1/2-z
loop_
_atom_site_type_symbol
_atom_site_label
_atom_site_fract_x
_atom_site_fract_y
_atom_site_fract_z
Si Si1 0.202130 0.178953 0.922860
Si Si2 0.955865 0.819422 0.814614
Si Si3 0.797869 0.821046 0.577140
Si Si4 0.292522 0.680031 0.189713
Si Si5 0.551318 0.178777 0.923336
Si Si6 0.707478 0.319970 0.310288
Si Si7 0.948682 0.321222 0.576664
Si Si8 0.455864 0.680578 0.814614
O O1 0.258387 0.258012 0.876782
O O2 0.124900 0.241630 0.906457
O O3 0.203374 0.999999 0.912478
O O4 0.214452 0.208994 1.000000
O O5 0.874495 0.779479 0.806419
O O6 0.000000 0.778518 0.750000
O O7 0.991073 0.740906 0.876720
O O8 0.960524 1.000000 0.822708
O O9 0.875100 0.758368 0.593543
O O10 0.741612 0.741986 0.623217
O O11 0.286830 0.500000 0.191967
O O12 0.250000 0.750000 0.250001
O O13 0.559049 1.000000 0.915553
O O14 0.536721 0.210174 1.000000
O O15 0.625505 0.279479 0.306419
O O16 0.008927 0.259094 0.623280
O O17 0.500000 0.721482 0.750000
#
# Coordination Sequence:
#
# PCOD9318866 Si02
#       8
#     8   8   8   8   8   8   8   8
#     4  10  21  38  60  84 114 153 192 232 282 339
#     4  10  22  39  58  82 113 149 189 232 280 337
#     4  10  21  38  60  84 114 153 192 232 282 339
#     4  11  23  38  59  86 116 150 190 238 287 339
#     4  10  21  37  59  87 116 147 187 234 282 335
#     4  11  23  38  59  86 116 150 190 238 287 339
#     4  10  21  37  59  87 116 147 187 234 282 335
#     4  10  22  39  58  82 113 149 189 232 280 337
#
# _framework density 18.460592999999999
#
# number of rings (size 3 to 8) (size 9 to 14) (size 15 to 20)
#    0.000    1.750    0.000    3.750    0.000    8.500 
#    0.000    5.000    0.000    0.000    0.000    0.000 
#    0.000    0.000    0.000    0.000    0.000    0.000 
#
# Total GULP energy -178878.905735 kJ/mol
# GULP energy per Si atom -5589.965804 kJ/mol
# Density = 1.841858 g / cm^3
# Si number density = 18.460593 Si / 1000 Ang^3
#
#
#
# Elastic Constant Matrix: (Units=GPa)
#
#
# Indices 1 2 3 4 5 6 
#
# 1 188.3106 78.0743 102.8893 0.0000 0.0000 0.0000
# 2 78.0743 59.8096 57.3277 0.0000 0.0000 0.0000
# 3 102.8893 57.3277 92.1747 0.0000 0.0000 0.0000
# 4 0.0000 0.0000 0.0000 36.4098 0.0000 0.0000
# 5 0.0000 0.0000 0.0000 0.0000 42.2772 0.0000
# 6 0.0000 0.0000 0.0000 0.0000 0.0000 34.6957
#
#
#
# Elastic Compliance Matrix: (Units=1/GPa)
#
#
# Indices 1 2 3 4 5 6 
#
# 1 0.015325 -0.008935 -0.011550 0.000000 0.000000 0.000000
# 2 -0.008935 0.046609 -0.019015 0.000000 0.000000 0.000000
# 3 -0.011550 -0.019015 0.035567 0.000000 0.000000 0.000000
# 4 0.000000 0.000000 0.000000 0.027465 0.000000 0.000000
# 5 0.000000 0.000000 0.000000 0.000000 0.023653 0.000000
# 6 0.000000 0.000000 0.000000 0.000000 0.000000 0.028822
#
#
# Mechanical properties :
#
#
# Convention : Reuss Voigt Hill
#
# Bulk Modulus (GPa) = 54.04553 90.76415 72.40484
# Shear Modulus (GPa) = 19.03971 29.47676 24.25824
#
# Velocity S-wave (km/s) = 3.21498 4.00026 3.62892
# Velocity P-wave (km/s) = 6.56667 8.40293 7.54090
#
# Compressibility (1/GPa) = 0.01850292
#
# Stress axis : x y z
#
# Youngs Moduli (GPa) = 65.25083 21.45513 28.11559
#
# Poissons Ratio (x) = 0.19170 0.32473
# Poissons Ratio (y) = 0.58302 0.53461
# Poissons Ratio (z) = 0.75364 0.40796
#
# Static dielectric constant tensor:
#      x y z
#    x 1.603410 0.000000 0.000000 
#    y 0.000000 1.616500 0.000000 
#    z 0.000000 0.000000 1.620900 
# 
# From -- ./inp_files/27791.got.cif
#   From: 2010.05.17/outbox.cif.g08.bks.cpg/sg20_14_cif.got.tgz:27791.got - 2010.06.03 22:52:26.
