data_PCOD9318702
_publ_section_title
;
Structure prediction by ZEFSAII (Michael W. Deem and Ramdas Pophale) SiO2 
 PCOD9318702
Probable space group: C 2 2 21
;
_chemical_formula_sum "Si O2"
_cell_formula_units_Z 36
_cell_length_a 7.320482
_cell_length_b 6.871475
_cell_length_c 23.902236
_cell_angle_alpha 90.000000
_cell_angle_beta 90.000000
_cell_angle_gamma 90.000000
_cell_volume 1202.342443
_symmetry_space_group_name_H-M "C 2 2 21"
_symmetry_group_IT_number 20
_symmetry_cell_setting 'orthorhombic'
loop_
_space_group_symop_operation_xyz
x,y,z
-x,-y,1/2+z
x,-y,-z
-x,y,1/2-z
1/2+x,1/2+y,z
1/2-x,1/2-y,1/2+z
1/2+x,1/2-y,-z
1/2-x,1/2+y,1/2-z
loop_
_atom_site_type_symbol
_atom_site_label
_atom_site_fract_x
_atom_site_fract_y
_atom_site_fract_z
Si Si1 0.554673 0.452235 0.648640
Si Si2 0.416992 0.053509 0.415547
Si Si3 0.000000 0.840435 0.250000
Si Si4 0.893984 0.556020 0.800367
Si Si5 0.703926 0.357747 0.948292
O O1 0.607915 0.640590 0.685405
O O2 0.549668 0.281071 0.694279
O O3 0.380877 0.456145 0.607636
O O4 0.716168 0.386762 0.604972
O O5 0.513271 0.008023 0.356825
O O6 0.384356 0.854873 0.449572
O O7 0.577969 0.175655 0.443601
O O8 0.813811 0.925728 0.282246
O O9 0.000000 0.426296 0.750000
O O10 0.671350 0.500000 0.000000
#
# Coordination Sequence:
#
# PCOD9318702 Si02
#       5
#     8   8   4   8   8
#     4  11  24  47  84 115 168 228 269 352 433 511
#     4  11  26  48  79 115 158 214 279 347 421 510
#     4  10  20  44  78 118 168 218 264 346 426 524
#     4   9  22  43  69 120 159 203 271 327 408 522
#     4  11  29  52  79 119 161 215 297 362 428 512
#
# _framework density 29.941552999999999
#
# number of rings (size 3 to 8) (size 9 to 14) (size 15 to 20)
#    0.667    0.889    1.111    1.333    3.111   11.556 
#    0.000    0.000    0.000    0.000    0.000    0.000 
#    0.000    0.000    0.000    0.000    0.000    0.000 
#
# Total GULP energy -100589.318951 kJ/mol
# GULP energy per Si atom -5588.295497 kJ/mol
# Density = 2.987341 g / cm^3
# Si number density = 29.941553 Si / 1000 Ang^3
#
#
#
# Elastic Constant Matrix: (Units=GPa)
#
#
# Indices 1 2 3 4 5 6 
#
# 1 181.7355 22.1502 23.7817 0.0000 0.0000 0.0000
# 2 22.1502 121.2816 15.0846 0.0000 0.0000 0.0000
# 3 23.7817 15.0846 125.0042 0.0000 0.0000 0.0000
# 4 0.0000 0.0000 0.0000 40.2629 0.0000 0.0000
# 5 0.0000 0.0000 0.0000 0.0000 51.4308 0.0000
# 6 0.0000 0.0000 0.0000 0.0000 0.0000 43.6076
#
#
#
# Elastic Compliance Matrix: (Units=1/GPa)
#
#
# Indices 1 2 3 4 5 6 
#
# 1 0.005744 -0.000927 -0.000981 0.000000 0.000000 0.000000
# 2 -0.000927 0.008521 -0.000852 0.000000 0.000000 0.000000
# 3 -0.000981 -0.000852 0.008289 0.000000 0.000000 0.000000
# 4 0.000000 0.000000 0.000000 0.024837 0.000000 0.000000
# 5 0.000000 0.000000 0.000000 0.000000 0.019444 0.000000
# 6 0.000000 0.000000 0.000000 0.000000 0.000000 0.022932
#
#
# Mechanical properties :
#
#
# Convention : Reuss Voigt Hill
#
# Bulk Modulus (GPa) = 58.70601 61.11714 59.91158
# Shear Modulus (GPa) = 49.52302 51.52725 50.52513
#
# Velocity S-wave (km/s) = 4.07134 4.15291 4.11233
# Velocity P-wave (km/s) = 6.46146 6.59181 6.52696
#
# Compressibility (1/GPa) = 0.01703403
#
# Stress axis : x y z
#
# Youngs Moduli (GPa) = 174.09937 117.36357 120.63985
#
# Poissons Ratio (x) = 0.10880 0.11833
# Poissons Ratio (y) = 0.16139 0.10276
# Poissons Ratio (z) = 0.17077 0.09997
#
# Static dielectric constant tensor:
#      x y z
#    x 2.340880 0.000000 0.000000 
#    y 0.000000 2.467750 0.000000 
#    z 0.000000 0.000000 2.555240 
# 
# From -- ./inp_files/28185.got.cif
#   From: 2010.05.17/outbox.cif.g08.bks.cpg/sg20_15_cif.got.tgz:28185.got - 2010.06.03 22:52:26.
