data_PCOD9318948
_publ_section_title
;
Structure prediction by ZEFSAII (Michael W. Deem and Ramdas Pophale) SiO2 
 PCOD9318948
Probable space group: C 2 2 21
;
_chemical_formula_sum "Si O2"
_cell_formula_units_Z 48
_cell_length_a 19.033031
_cell_length_b 7.407920
_cell_length_c 12.748794
_cell_angle_alpha 90.000000
_cell_angle_beta 90.000000
_cell_angle_gamma 90.000000
_cell_volume 1797.518390
_symmetry_space_group_name_H-M "C 2 2 21"
_symmetry_group_IT_number 20
_symmetry_cell_setting 'orthorhombic'
loop_
_space_group_symop_operation_xyz
x,y,z
-x,-y,1/2+z
x,-y,-z
-x,y,1/2-z
1/2+x,1/2+y,z
1/2-x,1/2-y,1/2+z
1/2+x,1/2-y,-z
1/2-x,1/2+y,1/2-z
loop_
_atom_site_type_symbol
_atom_site_label
_atom_site_fract_x
_atom_site_fract_y
_atom_site_fract_z
Si Si1 0.540344 0.381683 0.401170
Si Si2 0.659126 0.191396 0.528588
Si Si3 0.278076 0.738076 0.691657
Si Si4 0.898903 0.673602 0.431167
Si Si5 0.930928 0.747445 0.790947
Si Si6 0.183861 0.831283 0.871192
O O1 0.515397 0.500000 0.500000
O O2 0.614601 0.292617 0.438532
O O3 0.471258 0.258897 0.386958
O O4 0.556779 0.541430 0.320230
O O5 0.715381 0.287773 0.607017
O O6 0.596777 0.145555 0.608584
O O7 0.693361 0.000000 0.500000
O O8 0.345289 0.859758 0.665054
O O9 0.251909 0.743170 0.812533
O O10 0.303670 0.537241 0.663484
O O11 0.917154 0.500000 0.500000
O O12 0.847236 0.787401 0.513372
O O13 0.877626 0.753259 0.698403
O O14 0.000000 0.657851 0.750000
#
# Coordination Sequence:
#
# PCOD9318948 Si02
#       6
#     8   8   8   8   8   8
#     4  10  21  39  62  87 119 162 208 257 320 383
#     4  10  21  38  61  88 120 160 205 257 315 380
#     4  11  24  41  64  94 131 170 213 269 324 386
#     4  12  24  41  66  94 130 174 220 271 327 390
#     4  10  21  38  61  87 121 163 209 262 319 385
#     4  11  23  41  64  94 130 171 219 268 326 392
#
# _framework density 26.703482000000001
#
# number of rings (size 3 to 8) (size 9 to 14) (size 15 to 20)
#    0.000    1.333    0.000    7.000    0.000    6.000 
#    0.000    4.167    0.000    2.000    0.000    0.000 
#    0.000    0.000    0.000    0.000    0.000    0.000 
#
# Total GULP energy -133971.186702 kJ/mol
# GULP energy per Si atom -5582.132779 kJ/mol
# Density = 2.664270 g / cm^3
# Si number density = 26.703482 Si / 1000 Ang^3
#
#
#
# Elastic Constant Matrix: (Units=GPa)
#
#
# Indices 1 2 3 4 5 6 
#
# 1 132.7492 1.1846 16.2391 0.0000 0.0000 0.0000
# 2 1.1846 84.5727 6.6286 0.0000 0.0000 0.0000
# 3 16.2391 6.6286 51.4987 0.0000 0.0000 0.0000
# 4 0.0000 0.0000 0.0000 35.2170 0.0000 0.0000
# 5 0.0000 0.0000 0.0000 0.0000 44.2009 0.0000
# 6 0.0000 0.0000 0.0000 0.0000 0.0000 19.6101
#
#
#
# Elastic Compliance Matrix: (Units=1/GPa)
#
#
# Indices 1 2 3 4 5 6 
#
# 1 0.007836 0.000085 -0.002482 0.000000 0.000000 0.000000
# 2 0.000085 0.011946 -0.001564 0.000000 0.000000 0.000000
# 3 -0.002482 -0.001564 0.020402 0.000000 0.000000 0.000000
# 4 0.000000 0.000000 0.000000 0.028395 0.000000 0.000000
# 5 0.000000 0.000000 0.000000 0.000000 0.022624 0.000000
# 6 0.000000 0.000000 0.000000 0.000000 0.000000 0.050994
#
#
# Mechanical properties :
#
#
# Convention : Reuss Voigt Hill
#
# Bulk Modulus (GPa) = 30.99751 35.21392 33.10572
# Shear Modulus (GPa) = 31.08041 36.12346 33.60194
#
# Velocity S-wave (km/s) = 3.41531 3.68198 3.55115
# Velocity P-wave (km/s) = 5.21399 5.59389 5.40728
#
# Compressibility (1/GPa) = 0.03226065
#
# Stress axis : x y z
#
# Youngs Moduli (GPa) = 127.61870 83.71304 49.01509
#
# Poissons Ratio (x) = -0.00710 0.12164
# Poissons Ratio (y) = -0.01082 0.07667
# Poissons Ratio (z) = 0.31672 0.13095
#
# Static dielectric constant tensor:
#      x y z
#    x 2.125120 0.000000 0.000000 
#    y 0.000000 2.122890 0.000000 
#    z 0.000000 0.000000 2.231550 
# 
# From -- ./inp_files/21287.got.cif
#   From: 2010.05.17/outbox.cif.g08.bks.cpg/sg20_11_cif.got.tgz:21287.got - 2010.06.03 22:52:26.
