data_PCOD9318788
_publ_section_title
;
Structure prediction by ZEFSAII (Michael W. Deem and Ramdas Pophale) SiO2 
 PCOD9318788
Probable space group: C 2 2 21
;
_chemical_formula_sum "Si O2"
_cell_formula_units_Z 64
_cell_length_a 14.225771
_cell_length_b 9.940056
_cell_length_c 26.996304
_cell_angle_alpha 90.000000
_cell_angle_beta 90.000000
_cell_angle_gamma 90.000000
_cell_volume 3817.411298
_symmetry_space_group_name_H-M "C 2 2 21"
_symmetry_group_IT_number 20
_symmetry_cell_setting 'orthorhombic'
loop_
_space_group_symop_operation_xyz
x,y,z
-x,-y,1/2+z
x,-y,-z
-x,y,1/2-z
1/2+x,1/2+y,z
1/2-x,1/2-y,1/2+z
1/2+x,1/2-y,-z
1/2-x,1/2+y,1/2-z
loop_
_atom_site_type_symbol
_atom_site_label
_atom_site_fract_x
_atom_site_fract_y
_atom_site_fract_z
Si Si1 0.356333 0.716135 0.615203
Si Si2 0.856591 0.049117 0.877397
Si Si3 0.516683 0.130444 0.531994
Si Si4 0.013180 0.458297 0.308214
Si Si5 0.993964 0.881905 0.461076
Si Si6 0.138198 0.533008 0.892243
Si Si7 0.021215 0.226565 0.692572
Si Si8 0.361033 0.774405 0.124484
O O1 0.401279 0.625794 0.572542
O O2 0.425347 0.701725 0.661960
O O3 0.248471 0.688771 0.625997
O O4 0.362660 0.872402 0.598830
O O5 0.918498 0.096775 0.924162
O O6 0.746373 0.075622 0.886891
O O7 0.899074 0.131794 0.831097
O O8 0.869669 0.887740 0.871199
O O9 0.502864 0.246854 0.492327
O O10 0.422052 0.100474 0.563867
O O11 0.592846 0.176280 0.572859
O O12 0.543404 0.000000 0.500000
O O13 0.044840 0.614602 0.314266
O O14 0.085051 0.353811 0.332430
O O15 0.000000 0.434570 0.250000
O O16 0.918123 0.444414 0.340816
O O17 0.990349 0.000000 0.500000
O O18 0.000000 0.202230 0.750000
#
# Coordination Sequence:
#
# PCOD9318788 Si02
#       8
#     8   8   8   8   8   8   8   8
#     4   9  19  36  55  76 109 140 174 221 264 314
#     4  10  21  36  55  79 109 140 179 219 263 320
#     4  11  21  36  57  77 106 145 181 214 263 323
#     4   9  19  37  58  80 108 139 177 223 267 317
#     4  11  21  36  53  79 110 139 175 226 264 302
#     4   9  19  36  56  77 104 144 180 209 263 330
#     4   9  19  37  58  79 107 143 176 216 272 324
#     4  10  21  36  54  81 107 139 180 221 264 313
#
# _framework density 16.765288000000002
#
# number of rings (size 3 to 8) (size 9 to 14) (size 15 to 20)
#    0.000    2.250    2.500    0.000    1.750    3.500 
#    2.250    0.000    0.000    0.000    0.000    0.000 
#    0.000    0.000    0.000    0.000    0.000    0.000 
#
# Total GULP energy -178422.395117 kJ/mol
# GULP energy per Si atom -5575.699847 kJ/mol
# Density = 1.672713 g / cm^3
# Si number density = 16.765288 Si / 1000 Ang^3
#
#
#
# Elastic Constant Matrix: (Units=GPa)
#
#
# Indices 1 2 3 4 5 6 
#
# 1 110.2151 34.7836 27.8495 0.0000 0.0000 0.0000
# 2 34.7836 72.9961 42.1555 0.0000 0.0000 0.0000
# 3 27.8495 42.1555 93.5527 0.0000 0.0000 0.0000
# 4 0.0000 0.0000 0.0000 33.5335 0.0000 0.0000
# 5 0.0000 0.0000 0.0000 0.0000 6.7410 0.0000
# 6 0.0000 0.0000 0.0000 0.0000 0.0000 25.9445
#
#
#
# Elastic Compliance Matrix: (Units=1/GPa)
#
#
# Indices 1 2 3 4 5 6 
#
# 1 0.010779 -0.004438 -0.001209 0.000000 0.000000 0.000000
# 2 -0.004438 0.020346 -0.007847 0.000000 0.000000 0.000000
# 3 -0.001209 -0.007847 0.014585 0.000000 0.000000 0.000000
# 4 0.000000 0.000000 0.000000 0.029821 0.000000 0.000000
# 5 0.000000 0.000000 0.000000 0.000000 0.148346 0.000000
# 6 0.000000 0.000000 0.000000 0.000000 0.000000 0.038544
#
#
# Mechanical properties :
#
#
# Convention : Reuss Voigt Hill
#
# Bulk Modulus (GPa) = 53.41310 54.03790 53.72550
# Shear Modulus (GPa) = 16.91194 24.70883 20.81038
#
# Velocity S-wave (km/s) = 3.17952 3.84319 3.52700
# Velocity P-wave (km/s) = 6.73852 7.21079 6.97865
#
# Compressibility (1/GPa) = 0.01872200
#
# Stress axis : x y z
#
# Youngs Moduli (GPa) = 92.76977 49.15022 68.56432
#
# Poissons Ratio (x) = 0.21815 0.08289
# Poissons Ratio (y) = 0.41174 0.53801
# Poissons Ratio (z) = 0.11215 0.38567
#
# Static dielectric constant tensor:
#      x y z
#    x 1.545750 0.000000 0.000000 
#    y 0.000000 1.548640 0.000000 
#    z 0.000000 0.000000 1.549810 
# 
# From -- ./inp_files/29340.got.cif
#   From: 2010.05.17/outbox.cif.g08.bks.cpg/sg20_15_cif.got.tgz:29340.got - 2010.06.03 22:52:26.
