data_PCOD9318047
_publ_section_title
;
Structure prediction by ZEFSAII (Michael W. Deem and Ramdas Pophale) SiO2 
 PCOD9318047
Probable space group: C 2 2 21
;
_chemical_formula_sum "Si O2"
_cell_formula_units_Z 56
_cell_length_a 7.435226
_cell_length_b 15.032064
_cell_length_c 20.866127
_cell_angle_alpha 90.000000
_cell_angle_beta 90.000000
_cell_angle_gamma 90.000000
_cell_volume 2332.140099
_symmetry_space_group_name_H-M "C 2 2 21"
_symmetry_group_IT_number 20
_symmetry_cell_setting 'orthorhombic'
loop_
_space_group_symop_operation_xyz
x,y,z
-x,-y,1/2+z
x,-y,-z
-x,y,1/2-z
1/2+x,1/2+y,z
1/2-x,1/2-y,1/2+z
1/2+x,1/2-y,-z
1/2-x,1/2+y,1/2-z
loop_
_atom_site_type_symbol
_atom_site_label
_atom_site_fract_x
_atom_site_fract_y
_atom_site_fract_z
Si Si1 0.689713 0.559959 0.598578
Si Si2 0.617345 0.267943 0.315105
Si Si3 0.359077 0.118506 0.364280
Si Si4 0.627632 0.670398 0.480814
Si Si5 0.697377 0.395176 0.773452
Si Si6 0.230140 0.003771 0.897530
Si Si7 0.714037 0.133292 0.502810
O O1 0.666399 0.640443 0.649579
O O2 0.837260 0.485280 0.613891
O O3 0.731628 0.606995 0.530730
O O4 0.489342 0.513638 0.595704
O O5 0.500000 0.285324 0.250000
O O6 0.505185 0.198541 0.359591
O O7 0.789956 0.205921 0.299613
O O8 0.208166 0.161363 0.410542
O O9 0.316394 0.106380 0.289441
O O10 0.629710 0.771664 0.502591
O O11 0.423955 0.642884 0.487914
O O12 0.500000 0.419305 0.750000
O O13 0.760357 0.464675 0.827374
O O14 0.328774 0.936356 0.947007
O O15 0.300766 0.097062 0.924778
#
# Coordination Sequence:
#
# PCOD9318047 Si02
#       7
#     8   8   8   8   8   8   8
#     4  11  21  39  69  91 131 176 225 269 349 415
#     4  10  25  42  65 100 137 175 226 296 351 404
#     4  11  22  40  63  96 130 174 223 281 337 409
#     4  11  21  39  60  95 127 170 214 279 341 405
#     4  11  21  41  67  92 132 173 224 275 341 409
#     4  10  20  37  63  93 116 173 223 262 331 420
#     4  10  21  38  63  87 129 161 219 273 336 414
#
# _framework density 24.012280000000001
#
# number of rings (size 3 to 8) (size 9 to 14) (size 15 to 20)
#    0.000    1.429    2.857    3.000    2.000    0.000 
#    2.571    2.143    0.000    0.000    0.000    0.000 
#    0.000    0.000    0.000    0.000    0.000    0.000 
#
# Total GULP energy -156340.799854 kJ/mol
# GULP energy per Si atom -5583.599995 kJ/mol
# Density = 2.395763 g / cm^3
# Si number density = 24.012280 Si / 1000 Ang^3
#
#
#
# Elastic Constant Matrix: (Units=GPa)
#
#
# Indices 1 2 3 4 5 6 
#
# 1 38.6499 35.8823 34.3077 0.0000 0.0000 0.0000
# 2 35.8823 158.9324 58.6893 0.0000 0.0000 0.0000
# 3 34.3077 58.6893 142.3540 0.0000 0.0000 0.0000
# 4 0.0000 0.0000 0.0000 57.6124 0.0000 0.0000
# 5 0.0000 0.0000 0.0000 0.0000 34.5871 0.0000
# 6 0.0000 0.0000 0.0000 0.0000 0.0000 63.9387
#
#
#
# Elastic Compliance Matrix: (Units=1/GPa)
#
#
# Indices 1 2 3 4 5 6 
#
# 1 0.037210 -0.006003 -0.006493 0.000000 0.000000 0.000000
# 2 -0.006003 0.008390 -0.002012 0.000000 0.000000 0.000000
# 3 -0.006493 -0.002012 0.009419 0.000000 0.000000 0.000000
# 4 0.000000 0.000000 0.000000 0.017357 0.000000 0.000000
# 5 0.000000 0.000000 0.000000 0.000000 0.028912 0.000000
# 6 0.000000 0.000000 0.000000 0.000000 0.000000 0.015640
#
#
# Mechanical properties :
#
#
# Convention : Reuss Voigt Hill
#
# Bulk Modulus (GPa) = 38.45739 66.41053 52.43396
# Shear Modulus (GPa) = 32.33864 45.29811 38.81837
#
# Velocity S-wave (km/s) = 3.67380 4.34805 4.02506
# Velocity P-wave (km/s) = 5.83491 7.27491 6.59433
#
# Compressibility (1/GPa) = 0.02600281
#
# Stress axis : x y z
#
# Youngs Moduli (GPa) = 26.87453 119.18263 106.16673
#
# Poissons Ratio (x) = 0.71550 0.68930
# Poissons Ratio (y) = 0.16134 0.21365
# Poissons Ratio (z) = 0.17449 0.23984
#
# Static dielectric constant tensor:
#      x y z
#    x 2.009740 0.000000 0.000000 
#    y 0.000000 1.893480 0.000000 
#    z 0.000000 0.000000 1.912850 
# 
# From -- ./inp_files/26757.got.cif
#   From: 2010.05.17/outbox.cif.g08.bks.cpg/sg20_14_cif.got.tgz:26757.got - 2010.06.03 22:52:26.
