data_PCOD9318022
_publ_section_title
;
Structure prediction by ZEFSAII (Michael W. Deem and Ramdas Pophale) SiO2 
 PCOD9318022
Probable space group: C 2 2 21
;
_chemical_formula_sum "Si O2"
_cell_formula_units_Z 56
_cell_length_a 14.482882
_cell_length_b 23.603276
_cell_length_c 7.755825
_cell_angle_alpha 90.000000
_cell_angle_beta 90.000000
_cell_angle_gamma 90.000000
_cell_volume 2651.278062
_symmetry_space_group_name_H-M "C 2 2 21"
_symmetry_group_IT_number 20
_symmetry_cell_setting 'orthorhombic'
loop_
_space_group_symop_operation_xyz
x,y,z
-x,-y,1/2+z
x,-y,-z
-x,y,1/2-z
1/2+x,1/2+y,z
1/2-x,1/2-y,1/2+z
1/2+x,1/2-y,-z
1/2-x,1/2+y,1/2-z
loop_
_atom_site_type_symbol
_atom_site_label
_atom_site_fract_x
_atom_site_fract_y
_atom_site_fract_z
Si Si1 0.510604 0.772102 0.570559
Si Si2 0.942126 0.395516 0.970190
Si Si3 0.863677 0.602105 0.646067
Si Si4 0.731897 0.048903 0.358833
Si Si5 0.748209 0.000000 0.000000
Si Si6 0.000000 0.798967 0.750000
Si Si7 0.300977 0.671549 0.352466
Si Si8 0.204245 0.292065 0.996826
O O1 0.500000 0.739011 0.750000
O O2 0.565461 0.830717 0.596958
O O3 0.543805 0.739380 0.402437
O O4 0.405224 0.786692 0.530066
O O5 0.903048 0.398854 0.162977
O O6 0.051419 0.402123 0.007934
O O7 0.880328 0.438696 0.857350
O O8 0.806298 0.547232 0.604279
O O9 0.797623 0.657216 0.634579
O O10 0.768051 0.110729 0.417790
O O11 0.748851 0.000000 0.500000
O O12 0.780249 0.035246 0.173239
O O13 0.912546 0.829723 0.665880
O O14 0.257388 0.683179 0.165167
O O15 0.269069 0.728114 0.454757
#
# Coordination Sequence:
#
# PCOD9318022 Si02
#       8
#     8   8   8   8   4   4   8   8
#     4  10  20  37  61  94 135 167 202 249 314 397
#     4  10  21  35  59  90 132 176 209 252 305 378
#     4  10  21  38  59  90 134 174 215 253 315 381
#     4  12  26  43  63  93 129 175 225 272 310 382
#     4  12  24  40  58  90 132 172 224 266 306 376
#     4  10  24  44  64  96 136 156 212 272 332 380
#     4  11  24  42  68  95 128 168 213 273 327 382
#     4  10  22  37  62  99 124 167 210 260 319 383
#
# _framework density 21.121887999999998
#
# number of rings (size 3 to 8) (size 9 to 14) (size 15 to 20)
#    0.000    1.429    2.857    3.429    9.000    0.000 
#    0.000    0.000    1.571    0.000    0.000    0.000 
#    0.000    0.000    0.000    0.000    0.000    0.000 
#
# Total GULP energy -155918.234020 kJ/mol
# GULP energy per Si atom -5568.508358 kJ/mol
# Density = 2.107381 g / cm^3
# Si number density = 21.121888 Si / 1000 Ang^3
#
#
#
# Elastic Constant Matrix: (Units=GPa)
#
#
# Indices 1 2 3 4 5 6 
#
# 1 33.9079 17.8919 -9.7433 0.0000 0.0000 0.0000
# 2 17.8919 126.6451 33.6169 0.0000 0.0000 0.0000
# 3 -9.7433 33.6169 87.8871 0.0000 0.0000 0.0000
# 4 0.0000 0.0000 0.0000 -35.4482 0.0000 0.0000
# 5 0.0000 0.0000 0.0000 0.0000 19.0499 0.0000
# 6 0.0000 0.0000 0.0000 0.0000 0.0000 87.4854
#
#
#
# Elastic Compliance Matrix: (Units=1/GPa)
#
#
# Indices 1 2 3 4 5 6 
#
# 1 0.034819 -0.006615 0.006390 0.000000 0.000000 0.000000
# 2 -0.006615 0.010045 -0.004576 0.000000 0.000000 0.000000
# 3 0.006390 -0.004576 0.013837 0.000000 0.000000 0.000000
# 4 0.000000 0.000000 0.000000 -0.028210 0.000000 0.000000
# 5 0.000000 0.000000 0.000000 0.000000 0.052494 0.000000
# 6 0.000000 0.000000 0.000000 0.000000 0.000000 0.011430
#
#
# Mechanical properties :
#
#
# Convention : Reuss Voigt Hill
#
# Bulk Modulus (GPa) = 20.36682 36.88567 28.62624
# Shear Modulus (GPa) = 41.53433 27.99575 34.76504
#
# Velocity S-wave (km/s) = 4.43923 3.64461 4.06140
# Velocity P-wave (km/s) = 5.99493 5.93397 5.96453
#
# Compressibility (1/GPa) = 0.04909947
#
# Stress axis : x y z
#
# Youngs Moduli (GPa) = 28.72034 99.54969 72.27062
#
# Poissons Ratio (x) = 0.65855 -0.46184
# Poissons Ratio (y) = 0.18999 0.33069
# Poissons Ratio (z) = -0.18353 0.45551
#
# Static dielectric constant tensor:
#      x y z
#    x 1.898040 0.000000 0.000000 
#    y 0.000000 1.822420 0.000000 
#    z 0.000000 0.000000 1.773960 
# 
# From -- ./inp_files/8781.got.cif
#   From: 2010.05.17/outbox.cif.g08.bks.cpg/sg20_5_cif.got.tgz:8781.got - 2010.06.03 22:52:26.
