data_PCOD9318178
_publ_section_title
;
Structure prediction by ZEFSAII (Michael W. Deem and Ramdas Pophale) SiO2 
 PCOD9318178
Probable space group: C 2 2 21
;
_chemical_formula_sum "Si O2"
_cell_formula_units_Z 52
_cell_length_a 14.446841
_cell_length_b 7.684879
_cell_length_c 21.532253
_cell_angle_alpha 90.000000
_cell_angle_beta 90.000000
_cell_angle_gamma 90.000000
_cell_volume 2390.558638
_symmetry_space_group_name_H-M "C 2 2 21"
_symmetry_group_IT_number 20
_symmetry_cell_setting 'orthorhombic'
loop_
_space_group_symop_operation_xyz
x,y,z
-x,-y,1/2+z
x,-y,-z
-x,y,1/2-z
1/2+x,1/2+y,z
1/2-x,1/2-y,1/2+z
1/2+x,1/2-y,-z
1/2-x,1/2+y,1/2-z
loop_
_atom_site_type_symbol
_atom_site_label
_atom_site_fract_x
_atom_site_fract_y
_atom_site_fract_z
Si Si1 0.596140 0.495626 0.786774
Si Si2 0.024792 0.260288 0.956614
Si Si3 0.157222 0.644560 0.154905
Si Si4 0.387637 0.861639 0.245495
Si Si5 0.359708 0.000000 0.000000
Si Si6 0.972565 0.133685 0.415711
Si Si7 0.166097 0.313260 0.383790
O O1 0.500000 0.531064 0.750000
O O2 0.640022 0.680314 0.803633
O O3 0.643709 0.341084 0.748043
O O4 0.582234 0.395323 0.852328
O O5 0.929851 0.361952 0.968611
O O6 0.084467 0.348795 0.902337
O O7 0.005341 0.063631 0.935526
O O8 0.070504 0.235320 0.025278
O O9 0.146505 0.479456 0.198604
O O10 0.258098 0.666665 0.126562
O O11 0.500000 0.863014 0.250000
O O12 0.351057 0.924494 0.178647
O O13 0.302258 0.078330 0.943595
O O14 0.066563 0.233191 0.399325
#
# Coordination Sequence:
#
# PCOD9318178 Si02
#       7
#     8   8   8   8   4   8   8
#     4  10  20  38  63  87 122 168 210 249 313 378
#     4   9  20  38  65  87 118 165 214 250 307 383
#     4  11  25  39  62  99 125 162 209 271 317 365
#     4  11  22  41  64  90 124 172 211 256 310 394
#     4  10  22  42  66  88 124 176 208 258 308 392
#     4   9  18  39  63  85 120 166 207 253 308 387
#     4  11  23  40  61  93 132 158 214 263 327 367
#
# _framework density 21.752238999999999
#
# number of rings (size 3 to 8) (size 9 to 14) (size 15 to 20)
#    0.000    1.846    3.077    1.385    4.308    3.692 
#    2.769    3.077    0.000    0.000    0.000    0.000 
#    0.000    0.000    0.000    0.000    0.000    0.000 
#
# Total GULP energy -145107.469795 kJ/mol
# GULP energy per Si atom -5581.056531 kJ/mol
# Density = 2.170273 g / cm^3
# Si number density = 21.752239 Si / 1000 Ang^3
#
#
#
# Elastic Constant Matrix: (Units=GPa)
#
#
# Indices 1 2 3 4 5 6 
#
# 1 22.2609 2.6399 15.4968 0.0000 0.0000 0.0000
# 2 2.6399 57.3284 19.0396 0.0000 0.0000 0.0000
# 3 15.4968 19.0396 113.7419 0.0000 0.0000 0.0000
# 4 0.0000 0.0000 0.0000 38.5780 0.0000 0.0000
# 5 0.0000 0.0000 0.0000 0.0000 14.6357 0.0000
# 6 0.0000 0.0000 0.0000 0.0000 0.0000 8.6485
#
#
#
# Elastic Compliance Matrix: (Units=1/GPa)
#
#
# Indices 1 2 3 4 5 6 
#
# 1 0.049629 -0.000042 -0.006755 0.000000 0.000000 0.000000
# 2 -0.000042 0.018470 -0.003086 0.000000 0.000000 0.000000
# 3 -0.006755 -0.003086 0.010229 0.000000 0.000000 0.000000
# 4 0.000000 0.000000 0.000000 0.025922 0.000000 0.000000
# 5 0.000000 0.000000 0.000000 0.000000 0.068326 0.000000
# 6 0.000000 0.000000 0.000000 0.000000 0.000000 0.115627
#
#
# Mechanical properties :
#
#
# Convention : Reuss Voigt Hill
#
# Bulk Modulus (GPa) = 17.07580 29.74264 23.40922
# Shear Modulus (GPa) = 15.26770 22.78276 19.02523
#
# Velocity S-wave (km/s) = 2.65220 3.23983 2.96063
# Velocity P-wave (km/s) = 4.15284 5.26292 4.74049
#
# Compressibility (1/GPa) = 0.05856240
#
# Stress axis : x y z
#
# Youngs Moduli (GPa) = 20.14953 54.14123 97.76399
#
# Poissons Ratio (x) = 0.00227 0.66036
# Poissons Ratio (y) = 0.00085 0.30171
# Poissons Ratio (z) = 0.13610 0.16708
#
# Static dielectric constant tensor:
#      x y z
#    x 1.789080 0.000000 0.000000 
#    y 0.000000 1.818140 0.000000 
#    z 0.000000 0.000000 1.902130 
# 
# From -- ./inp_files/27511.got.cif
#   From: 2010.05.17/outbox.cif.g08.bks.cpg/sg20_14_cif.got.tgz:27511.got - 2010.06.03 22:52:26.
