data_PCOD9318859
_publ_section_title
;
Structure prediction by ZEFSAII (Michael W. Deem and Ramdas Pophale) SiO2 
 PCOD9318859
Probable space group: C 2 2 21
;
_chemical_formula_sum "Si O2"
_cell_formula_units_Z 32
_cell_length_a 5.058696
_cell_length_b 37.080816
_cell_length_c 7.674735
_cell_angle_alpha 90.000000
_cell_angle_beta 90.000000
_cell_angle_gamma 90.000000
_cell_volume 1439.631209
_symmetry_space_group_name_H-M "C 2 2 21"
_symmetry_group_IT_number 20
_symmetry_cell_setting 'orthorhombic'
loop_
_space_group_symop_operation_xyz
x,y,z
-x,-y,1/2+z
x,-y,-z
-x,y,1/2-z
1/2+x,1/2+y,z
1/2-x,1/2-y,1/2+z
1/2+x,1/2-y,-z
1/2-x,1/2+y,1/2-z
loop_
_atom_site_type_symbol
_atom_site_label
_atom_site_fract_x
_atom_site_fract_y
_atom_site_fract_z
Si Si1 0.513979 0.417283 0.038975
Si Si2 0.892281 0.728789 0.054011
Si Si3 0.988160 0.540914 0.541484
Si Si4 0.256377 0.654622 0.369050
O O1 0.500000 0.414989 0.250000
O O2 0.227113 0.430278 0.977054
O O3 0.721282 0.447986 0.981264
O O4 0.625825 0.380098 0.965057
O O5 0.824240 0.687592 0.004887
O O6 0.000000 0.726519 0.250000
O O7 0.629486 0.752726 0.049508
O O8 0.916151 0.500000 0.500000
O O9 0.000000 0.543828 0.750000
O O10 0.500000 0.668396 0.250000
O O11 0.000000 0.645932 0.250000
#
# Coordination Sequence:
#
# PCOD9318859 Si02
#       4
#     8   8   8   8
#     4  10  22  40  60  86 122 160 204 252 303 364
#     4  11  23  42  65  93 127 163 205 254 307 367
#     4  10  21  37  58  86 119 157 202 252 301 360
#     4  11  23  41  63  91 124 160 204 256 305 363
#
# _framework density 22.227912
#
# number of rings (size 3 to 8) (size 9 to 14) (size 15 to 20)
#    0.000    1.500    0.000    6.000    0.000    4.000 
#    0.000   10.000    0.000    0.000    0.000    0.000 
#    0.000    0.000    0.000    0.000    0.000    0.000 
#
# Total GULP energy -89443.865500 kJ/mol
# GULP energy per Si atom -5590.241594 kJ/mol
# Density = 2.217732 g / cm^3
# Si number density = 22.227912 Si / 1000 Ang^3
#
#
#
# Elastic Constant Matrix: (Units=GPa)
#
#
# Indices 1 2 3 4 5 6 
#
# 1 157.7747 58.8299 24.1643 0.0000 0.0000 0.0000
# 2 58.8299 164.0077 20.6126 0.0000 0.0000 0.0000
# 3 24.1643 20.6126 25.6735 0.0000 0.0000 0.0000
# 4 0.0000 0.0000 0.0000 30.1645 0.0000 0.0000
# 5 0.0000 0.0000 0.0000 0.0000 27.4764 0.0000
# 6 0.0000 0.0000 0.0000 0.0000 0.0000 44.1224
#
#
#
# Elastic Compliance Matrix: (Units=1/GPa)
#
#
# Indices 1 2 3 4 5 6 
#
# 1 0.008033 -0.002148 -0.005836 0.000000 0.000000 0.000000
# 2 -0.002148 0.007356 -0.003884 0.000000 0.000000 0.000000
# 3 -0.005836 -0.003884 0.047562 0.000000 0.000000 0.000000
# 4 0.000000 0.000000 0.000000 0.033152 0.000000 0.000000
# 5 0.000000 0.000000 0.000000 0.000000 0.036395 0.000000
# 6 0.000000 0.000000 0.000000 0.000000 0.000000 0.022664
#
#
# Mechanical properties :
#
#
# Convention : Reuss Voigt Hill
#
# Bulk Modulus (GPa) = 25.50082 61.62993 43.56538
# Shear Modulus (GPa) = 26.04577 36.60927 31.32752
#
# Velocity S-wave (km/s) = 3.42681 4.06272 3.75824
# Velocity P-wave (km/s) = 5.21102 7.05650 6.20278
#
# Compressibility (1/GPa) = 0.03921442
#
# Stress axis : x y z
#
# Youngs Moduli (GPa) = 124.48792 135.94515 21.02511
#
# Poissons Ratio (x) = 0.29200 0.12271
# Poissons Ratio (y) = 0.26739 0.08167
# Poissons Ratio (z) = 0.72653 0.52804
#
# Static dielectric constant tensor:
#      x y z
#    x 1.808790 0.000000 0.000000 
#    y 0.000000 1.809930 0.000000 
#    z 0.000000 0.000000 1.822400 
# 
# From -- ./inp_files/5244.got.cif
#   From: 2010.05.17/outbox.cif.g08.bks.cpg/sg20_3_cif.got.tgz:5244.got - 2010.06.03 22:52:26.
