data_PCOD9318128
_publ_section_title
;
Structure prediction by ZEFSAII (Michael W. Deem and Ramdas Pophale) SiO2 
 PCOD9318128
Probable space group: C 2 2 21
;
_chemical_formula_sum "Si O2"
_cell_formula_units_Z 64
_cell_length_a 5.314941
_cell_length_b 27.730100
_cell_length_c 23.132113
_cell_angle_alpha 90.000000
_cell_angle_beta 90.000000
_cell_angle_gamma 90.000000
_cell_volume 3409.299767
_symmetry_space_group_name_H-M "C 2 2 21"
_symmetry_group_IT_number 20
_symmetry_cell_setting 'orthorhombic'
loop_
_space_group_symop_operation_xyz
x,y,z
-x,-y,1/2+z
x,-y,-z
-x,y,1/2-z
1/2+x,1/2+y,z
1/2-x,1/2-y,1/2+z
1/2+x,1/2-y,-z
1/2-x,1/2+y,1/2-z
loop_
_atom_site_type_symbol
_atom_site_label
_atom_site_fract_x
_atom_site_fract_y
_atom_site_fract_z
Si Si1 0.849116 0.827874 0.094076
Si Si2 0.406861 0.948881 0.598880
Si Si3 0.614760 0.897438 0.187459
Si Si4 0.206516 0.263764 0.533332
Si Si5 0.918195 0.002425 0.436343
Si Si6 0.756547 0.998764 0.785978
Si Si7 0.024867 0.365691 0.984577
Si Si8 0.735206 0.403991 0.087315
O O1 0.731574 0.853216 0.150736
O O2 0.825013 0.770535 0.089292
O O3 0.126674 0.850265 0.093848
O O4 0.726156 0.846913 0.033066
O O5 0.691945 0.970325 0.597490
O O6 0.292695 0.962600 0.661180
O O7 0.401625 0.895125 0.572538
O O8 0.190987 0.974036 0.560425
O O9 0.500000 0.883850 0.250000
O O10 0.404350 0.915281 0.142334
O O11 0.787616 0.944496 0.197088
O O12 0.488654 0.256912 0.509629
O O13 0.136257 0.319731 0.536082
O O14 0.810257 0.000000 0.500000
O O15 0.958817 0.947536 0.415847
O O16 0.500000 0.998578 0.750000
O O17 0.000000 0.984256 0.750000
O O18 0.871768 0.402091 0.025733
#
# Coordination Sequence:
#
# PCOD9318128 Si02
#       8
#     8   8   8   8   8   8   8   8
#     4  10  21  36  59  87 123 159 198 255 311 369
#     4  12  24  38  57  87 117 164 200 246 299 362
#     4  10  23  35  57  86 122 165 205 253 296 365
#     4  10  20  38  60  87 121 156 193 244 306 371
#     4  12  23  34  54  85 128 156 191 236 300 365
#     4  11  24  42  58  83 118 162 210 254 296 358
#     4  10  22  37  57  91 120 158 202 249 311 376
#     4  11  20  36  55  85 120 163 197 243 304 367
#
# _framework density 18.772182000000001
#
# number of rings (size 3 to 8) (size 9 to 14) (size 15 to 20)
#    0.000    1.250    3.750    2.625    7.000    0.000 
#    0.000    0.000    0.000    0.000    3.250    0.000 
#    0.000    0.000    0.000    0.000    0.000    0.000 
#
# Total GULP energy -178209.482969 kJ/mol
# GULP energy per Si atom -5569.046343 kJ/mol
# Density = 1.872946 g / cm^3
# Si number density = 18.772182 Si / 1000 Ang^3
#
#
#
# Elastic Constant Matrix: (Units=GPa)
#
#
# Indices 1 2 3 4 5 6 
#
# 1 52.9160 9.4484 11.2876 0.0000 0.0000 0.0000
# 2 9.4484 81.0243 44.8909 0.0000 0.0000 0.0000
# 3 11.2876 44.8909 108.1736 0.0000 0.0000 0.0000
# 4 0.0000 0.0000 0.0000 21.6787 0.0000 0.0000
# 5 0.0000 0.0000 0.0000 0.0000 29.8039 0.0000
# 6 0.0000 0.0000 0.0000 0.0000 0.0000 17.7889
#
#
#
# Elastic Compliance Matrix: (Units=1/GPa)
#
#
# Indices 1 2 3 4 5 6 
#
# 1 0.019465 -0.001486 -0.001414 0.000000 0.000000 0.000000
# 2 -0.001486 0.016140 -0.006543 0.000000 0.000000 0.000000
# 3 -0.001414 -0.006543 0.012107 0.000000 0.000000 0.000000
# 4 0.000000 0.000000 0.000000 0.046128 0.000000 0.000000
# 5 0.000000 0.000000 0.000000 0.000000 0.033553 0.000000
# 6 0.000000 0.000000 0.000000 0.000000 0.000000 0.056215
#
#
# Mechanical properties :
#
#
# Convention : Reuss Voigt Hill
#
# Bulk Modulus (GPa) = 34.69162 41.48531 38.08846
# Shear Modulus (GPa) = 23.57337 25.62011 24.59674
#
# Velocity S-wave (km/s) = 3.54752 3.69832 3.62370
# Velocity P-wave (km/s) = 5.94140 6.35484 6.15160
#
# Compressibility (1/GPa) = 0.02882541
#
# Stress axis : x y z
#
# Youngs Moduli (GPa) = 51.37445 61.95637 82.59510
#
# Poissons Ratio (x) = 0.09208 0.11682
# Poissons Ratio (y) = 0.07636 0.54042
# Poissons Ratio (z) = 0.07266 0.40538
#
# Static dielectric constant tensor:
#      x y z
#    x 1.877730 0.000000 0.000000 
#    y 0.000000 1.667520 0.000000 
#    z 0.000000 0.000000 1.697930 
# 
# From -- ./inp_files/26294.got.cif
#   From: 2010.05.17/outbox.cif.g08.bks.cpg/sg20_14_cif.got.tgz:26294.got - 2010.06.03 22:52:26.
