data_PCOD9318281
_publ_section_title
;
Structure prediction by ZEFSAII (Michael W. Deem and Ramdas Pophale) SiO2 
 PCOD9318281
Probable space group: C 2 2 21
;
_chemical_formula_sum "Si O2"
_cell_formula_units_Z 64
_cell_length_a 14.249120
_cell_length_b 10.372232
_cell_length_c 21.493946
_cell_angle_alpha 90.000000
_cell_angle_beta 90.000000
_cell_angle_gamma 90.000000
_cell_volume 3176.701584
_symmetry_space_group_name_H-M "C 2 2 21"
_symmetry_group_IT_number 20
_symmetry_cell_setting 'orthorhombic'
loop_
_space_group_symop_operation_xyz
x,y,z
-x,-y,1/2+z
x,-y,-z
-x,y,1/2-z
1/2+x,1/2+y,z
1/2-x,1/2-y,1/2+z
1/2+x,1/2-y,-z
1/2-x,1/2+y,1/2-z
loop_
_atom_site_type_symbol
_atom_site_label
_atom_site_fract_x
_atom_site_fract_y
_atom_site_fract_z
Si Si1 0.846243 0.961196 0.358259
Si Si2 0.205583 0.111410 0.318148
Si Si3 0.815538 0.878625 0.957231
Si Si4 0.393592 0.364268 0.228585
Si Si5 0.526399 0.331471 0.913078
Si Si6 0.192272 0.146627 0.987597
Si Si7 0.058113 0.339878 0.312430
Si Si8 0.826851 0.405314 0.804883
O O1 0.842989 0.879638 0.295339
O O2 0.844046 0.867632 0.416945
O O3 0.935032 0.055389 0.367579
O O4 0.757103 0.056760 0.351570
O O5 0.132842 0.994364 0.306908
O O6 0.233929 0.106005 0.389960
O O7 0.147712 0.243996 0.309905
O O8 0.284070 0.091182 0.265447
O O9 0.774309 0.750339 0.988565
O O10 0.926942 0.867600 0.943927
O O11 0.796613 0.000000 0.000000
O O12 0.500000 0.354076 0.250000
O O13 0.363343 0.239838 0.189756
O O14 0.503849 0.206890 0.870957
O O15 0.607675 0.320624 0.965089
O O16 0.224856 0.000000 0.000000
O O17 0.094757 0.485859 0.314363
O O18 0.000000 0.319984 0.250000
#
# Coordination Sequence:
#
# PCOD9318281 Si02
#       8
#     8   8   8   8   8   8   8   8
#     4  10  20  39  61  84 118 161 206 246 299 374
#     4  10  21  38  59  83 116 160 205 244 301 379
#     4  11  22  39  61  89 120 156 207 262 312 371
#     4  11  21  35  57  90 121 154 196 248 306 365
#     4  10  22  40  64  89 117 167 218 255 305 383
#     4  10  22  41  65  87 116 161 208 257 311 372
#     4  11  21  37  59  87 122 159 200 252 311 374
#     4  11  22  35  58  91 125 154 194 256 319 368
#
# _framework density 20.146682999999999
#
# number of rings (size 3 to 8) (size 9 to 14) (size 15 to 20)
#    0.000    1.500    0.000    8.625    0.000    3.000 
#    0.000    1.875    0.000    0.000    0.000    0.000 
#    0.000    0.000    0.000    0.000    0.000    0.000 
#
# Total GULP energy -178668.580300 kJ/mol
# GULP energy per Si atom -5583.393134 kJ/mol
# Density = 2.010083 g / cm^3
# Si number density = 20.146683 Si / 1000 Ang^3
#
#
#
# Elastic Constant Matrix: (Units=GPa)
#
#
# Indices 1 2 3 4 5 6 
#
# 1 64.0295 37.4266 15.6006 0.0000 0.0000 0.0000
# 2 37.4266 92.7170 21.8016 0.0000 0.0000 0.0000
# 3 15.6006 21.8016 81.9881 0.0000 0.0000 0.0000
# 4 0.0000 0.0000 0.0000 12.1479 0.0000 0.0000
# 5 0.0000 0.0000 0.0000 0.0000 21.2257 0.0000
# 6 0.0000 0.0000 0.0000 0.0000 0.0000 25.6313
#
#
#
# Elastic Compliance Matrix: (Units=1/GPa)
#
#
# Indices 1 2 3 4 5 6 
#
# 1 0.020695 -0.007923 -0.001831 0.000000 0.000000 0.000000
# 2 -0.007923 0.014538 -0.002358 0.000000 0.000000 0.000000
# 3 -0.001831 -0.002358 0.013172 0.000000 0.000000 0.000000
# 4 0.000000 0.000000 0.000000 0.082319 0.000000 0.000000
# 5 0.000000 0.000000 0.000000 0.000000 0.047113 0.000000
# 6 0.000000 0.000000 0.000000 0.000000 0.000000 0.039015
#
#
# Mechanical properties :
#
#
# Convention : Reuss Voigt Hill
#
# Bulk Modulus (GPa) = 41.35510 43.15469 42.25490
# Shear Modulus (GPa) = 20.06919 22.72804 21.39862
#
# Velocity S-wave (km/s) = 3.15961 3.36241 3.26259
# Velocity P-wave (km/s) = 5.82086 6.04492 5.93395
#
# Compressibility (1/GPa) = 0.02418081
#
# Stress axis : x y z
#
# Youngs Moduli (GPa) = 48.32004 68.78304 75.91647
#
# Poissons Ratio (x) = 0.54500 0.13900
# Poissons Ratio (y) = 0.38286 0.17903
# Poissons Ratio (z) = 0.08847 0.16221
#
# Static dielectric constant tensor:
#      x y z
#    x 1.736320 0.000000 0.000000 
#    y 0.000000 1.712680 0.000000 
#    z 0.000000 0.000000 1.750920 
# 
# From -- ./inp_files/29386.got.cif
#   From: 2010.05.17/outbox.cif.g08.bks.cpg/sg20_15_cif.got.tgz:29386.got - 2010.06.03 22:52:26.
