data_PCOD9318021
_publ_section_title
;
Structure prediction by ZEFSAII (Michael W. Deem and Ramdas Pophale) SiO2 
 PCOD9318021
Probable space group: C 2 2 21
;
_chemical_formula_sum "Si O2"
_cell_formula_units_Z 48
_cell_length_a 11.833964
_cell_length_b 13.193563
_cell_length_c 13.677763
_cell_angle_alpha 90.000000
_cell_angle_beta 90.000000
_cell_angle_gamma 90.000000
_cell_volume 2135.538539
_symmetry_space_group_name_H-M "C 2 2 21"
_symmetry_group_IT_number 20
_symmetry_cell_setting 'orthorhombic'
loop_
_space_group_symop_operation_xyz
x,y,z
-x,-y,1/2+z
x,-y,-z
-x,y,1/2-z
1/2+x,1/2+y,z
1/2-x,1/2-y,1/2+z
1/2+x,1/2-y,-z
1/2-x,1/2+y,1/2-z
loop_
_atom_site_type_symbol
_atom_site_label
_atom_site_fract_x
_atom_site_fract_y
_atom_site_fract_z
Si Si1 0.567147 0.695420 0.044122
Si Si2 0.819862 0.417796 0.684216
Si Si3 0.105986 0.974290 0.813163
Si Si4 0.164233 0.887727 0.494143
Si Si5 0.334143 0.299094 0.337041
Si Si6 0.664245 0.139557 0.818811
O O1 0.600288 0.587144 0.087786
O O2 0.436594 0.690469 0.011739
O O3 0.585818 0.779324 0.127799
O O4 0.650204 0.713249 0.953182
O O5 0.720874 0.441522 0.760694
O O6 0.755957 0.398354 0.580974
O O7 0.874513 0.308907 0.706430
O O8 0.884929 0.525002 0.681204
O O9 0.000000 0.938508 0.750000
O O10 0.101220 0.095429 0.819474
O O11 0.226115 0.869617 0.391208
O O12 0.110741 0.000000 0.500000
O O13 0.212868 0.320996 0.284883
#
# Coordination Sequence:
#
# PCOD9318021 Si02
#       6
#     8   8   8   8   8   8
#     4  12  22  36  64  96 122 163 215 258 324 370
#     4  10  20  39  61  86 125 161 203 250 318 379
#     4  11  22  38  61  94 124 155 211 265 308 368
#     4  10  20  37  61  93 120 158 208 262 306 374
#     4  11  23  36  60  92 126 164 203 257 319 383
#     4  10  23  38  59  92 129 162 206 268 318 375
#
# _framework density 22.476765
#
# number of rings (size 3 to 8) (size 9 to 14) (size 15 to 20)
#    0.000    1.333    5.000    1.500    4.667    0.000 
#    0.000    0.000    0.000    9.000    4.333    0.000 
#    0.000    0.000    0.000    0.000    0.000    0.000 
#
# Total GULP energy -133910.373047 kJ/mol
# GULP energy per Si atom -5579.598877 kJ/mol
# Density = 2.242561 g / cm^3
# Si number density = 22.476765 Si / 1000 Ang^3
#
#
#
# Elastic Constant Matrix: (Units=GPa)
#
#
# Indices 1 2 3 4 5 6 
#
# 1 40.2360 39.8617 23.6519 0.0000 0.0000 0.0000
# 2 39.8617 187.9696 17.0624 0.0000 0.0000 0.0000
# 3 23.6519 17.0624 47.1292 0.0000 0.0000 0.0000
# 4 0.0000 0.0000 0.0000 33.4409 0.0000 0.0000
# 5 0.0000 0.0000 0.0000 0.0000 28.0479 0.0000
# 6 0.0000 0.0000 0.0000 0.0000 0.0000 24.7795
#
#
#
# Elastic Compliance Matrix: (Units=1/GPa)
#
#
# Indices 1 2 3 4 5 6 
#
# 1 0.043521 -0.007493 -0.019128 0.000000 0.000000 0.000000
# 2 -0.007493 0.006791 0.001302 0.000000 0.000000 0.000000
# 3 -0.019128 0.001302 0.030347 0.000000 0.000000 0.000000
# 4 0.000000 0.000000 0.000000 0.029903 0.000000 0.000000
# 5 0.000000 0.000000 0.000000 0.000000 0.035653 0.000000
# 6 0.000000 0.000000 0.000000 0.000000 0.000000 0.040356
#
#
# Mechanical properties :
#
#
# Convention : Reuss Voigt Hill
#
# Bulk Modulus (GPa) = 33.31184 48.49853 40.90519
# Shear Modulus (GPa) = 20.22521 30.23758 25.23139
#
# Velocity S-wave (km/s) = 3.00297 3.67179 3.35409
# Velocity P-wave (km/s) = 5.18425 6.29286 5.76526
#
# Compressibility (1/GPa) = 0.03001935
#
# Stress axis : x y z
#
# Youngs Moduli (GPa) = 22.97751 147.25759 32.95266
#
# Poissons Ratio (x) = 1.10339 0.63033
# Poissons Ratio (y) = 0.17217 -0.04290
# Poissons Ratio (z) = 0.43952 -0.19170
#
# Static dielectric constant tensor:
#      x y z
#    x 1.841800 0.000000 0.000000 
#    y 0.000000 1.894940 0.000000 
#    z 0.000000 0.000000 1.914130 
# 
# From -- ./inp_files/19953.got.cif
#   From: 2010.05.17/outbox.cif.g08.bks.cpg/sg20_10_cif.got.tgz:19953.got - 2010.06.03 22:52:26.
