data_PCOD9318620
_publ_section_title
;
Structure prediction by ZEFSAII (Michael W. Deem and Ramdas Pophale) SiO2 
 PCOD9318620
Probable space group: C 2 2 21
;
_chemical_formula_sum "Si O2"
_cell_formula_units_Z 48
_cell_length_a 8.884628
_cell_length_b 18.266955
_cell_length_c 13.737261
_cell_angle_alpha 90.000000
_cell_angle_beta 90.000000
_cell_angle_gamma 90.000000
_cell_volume 2229.490146
_symmetry_space_group_name_H-M "C 2 2 21"
_symmetry_group_IT_number 20
_symmetry_cell_setting 'orthorhombic'
loop_
_space_group_symop_operation_xyz
x,y,z
-x,-y,1/2+z
x,-y,-z
-x,y,1/2-z
1/2+x,1/2+y,z
1/2-x,1/2-y,1/2+z
1/2+x,1/2-y,-z
1/2-x,1/2+y,1/2-z
loop_
_atom_site_type_symbol
_atom_site_label
_atom_site_fract_x
_atom_site_fract_y
_atom_site_fract_z
Si Si1 0.638603 0.557300 0.309303
Si Si2 0.649665 0.154917 0.315180
Si Si3 0.349317 0.322020 0.189408
Si Si4 0.644183 0.317831 0.537567
Si Si5 0.121796 0.439661 0.173912
Si Si6 0.012233 0.667829 0.990097
O O1 0.500000 0.522363 0.250000
O O2 0.729812 0.600399 0.226553
O O3 0.595826 0.617902 0.389751
O O4 0.756948 0.500649 0.355368
O O5 0.500000 0.149925 0.250000
O O6 0.705904 0.238440 0.307138
O O7 0.599978 0.142491 0.425537
O O8 0.500000 0.328192 0.250000
O O9 0.221446 0.376595 0.225000
O O10 0.384652 0.337403 0.075716
O O11 0.559929 0.241074 0.556409
O O12 0.826957 0.310933 0.540030
O O13 0.000000 0.469031 0.250000
O O14 0.045274 0.397293 0.084623
#
# Coordination Sequence:
#
# PCOD9318620 Si02
#       6
#     8   8   8   8   8   8
#     4  12  27  44  68  98 149 189 240 289 373 431
#     4  10  20  42  70 100 133 186 231 296 345 430
#     4   9  21  41  69  97 137 176 231 292 353 409
#     4  10  23  41  69 105 135 183 234 295 350 421
#     4  11  26  44  66  99 140 187 234 289 357 419
#     4  10  23  42  72 103 140 177 244 294 354 418
#
# _framework density 21.529584
#
# number of rings (size 3 to 8) (size 9 to 14) (size 15 to 20)
#    0.000    1.667    1.667    1.000    9.333    2.667 
#    0.000    0.000    0.000    0.000    0.000    0.000 
#    0.000    0.000    0.000    0.000    0.000    0.000 
#
# Total GULP energy -134163.373612 kJ/mol
# GULP energy per Si atom -5590.140567 kJ/mol
# Density = 2.148058 g / cm^3
# Si number density = 21.529584 Si / 1000 Ang^3
#
#
#
# Elastic Constant Matrix: (Units=GPa)
#
#
# Indices 1 2 3 4 5 6 
#
# 1 36.5818 19.0332 25.2222 0.0000 0.0000 0.0000
# 2 19.0332 89.7125 46.1832 0.0000 0.0000 0.0000
# 3 25.2222 46.1832 56.6484 0.0000 0.0000 0.0000
# 4 0.0000 0.0000 0.0000 10.4297 0.0000 0.0000
# 5 0.0000 0.0000 0.0000 0.0000 34.8390 0.0000
# 6 0.0000 0.0000 0.0000 0.0000 0.0000 39.2900
#
#
#
# Elastic Compliance Matrix: (Units=1/GPa)
#
#
# Indices 1 2 3 4 5 6 
#
# 1 0.039515 0.001161 -0.018540 0.000000 0.000000 0.000000
# 2 0.001161 0.019242 -0.016204 0.000000 0.000000 0.000000
# 3 -0.018540 -0.016204 0.039118 0.000000 0.000000 0.000000
# 4 0.000000 0.000000 0.000000 0.095880 0.000000 0.000000
# 5 0.000000 0.000000 0.000000 0.000000 0.028703 0.000000
# 6 0.000000 0.000000 0.000000 0.000000 0.000000 0.025452
#
#
# Mechanical properties :
#
#
# Convention : Reuss Voigt Hill
#
# Bulk Modulus (GPa) = 32.56434 40.42443 36.49439
# Shear Modulus (GPa) = 15.36974 23.07868 19.22421
#
# Velocity S-wave (km/s) = 2.67477 3.27762 2.99142
# Velocity P-wave (km/s) = 4.96965 5.75680 5.37764
#
# Compressibility (1/GPa) = 0.03070843
#
# Stress axis : x y z
#
# Youngs Moduli (GPa) = 25.30684 51.96888 25.56344
#
# Poissons Ratio (x) = -0.06033 0.47395
# Poissons Ratio (y) = -0.02938 0.41424
# Poissons Ratio (z) = 0.46919 0.84212
#
# Static dielectric constant tensor:
#      x y z
#    x 1.812790 0.000000 0.000000 
#    y 0.000000 1.807180 0.000000 
#    z 0.000000 0.000000 1.772920 
# 
# From -- ./inp_files/18901.got.cif
#   From: 2010.05.17/outbox.cif.g08.bks.cpg/sg20_10_cif.got.tgz:18901.got - 2010.06.03 22:52:26.
