data_PCOD9318225
_publ_section_title
;
Structure prediction by ZEFSAII (Michael W. Deem and Ramdas Pophale) SiO2 
 PCOD9318225
Probable space group: C 2 2 21
;
_chemical_formula_sum "Si O2"
_cell_formula_units_Z 40
_cell_length_a 8.735732
_cell_length_b 21.643891
_cell_length_c 9.190558
_cell_angle_alpha 90.000000
_cell_angle_beta 90.000000
_cell_angle_gamma 90.000000
_cell_volume 1737.706879
_symmetry_space_group_name_H-M "C 2 2 21"
_symmetry_group_IT_number 20
_symmetry_cell_setting 'orthorhombic'
loop_
_space_group_symop_operation_xyz
x,y,z
-x,-y,1/2+z
x,-y,-z
-x,y,1/2-z
1/2+x,1/2+y,z
1/2-x,1/2-y,1/2+z
1/2+x,1/2-y,-z
1/2-x,1/2+y,1/2-z
loop_
_atom_site_type_symbol
_atom_site_label
_atom_site_fract_x
_atom_site_fract_y
_atom_site_fract_z
Si Si1 0.834070 0.005235 0.172565
Si Si2 0.057303 0.314806 0.409385
Si Si3 0.640851 0.757358 0.837380
Si Si4 0.327446 0.368561 0.698646
Si Si5 0.788902 0.566237 0.927659
O O1 0.764903 0.072482 0.210192
O O2 0.000000 0.007576 0.250000
O O3 0.755528 0.949542 0.261868
O O4 0.844409 0.000000 0.000000
O O5 0.226479 0.285239 0.401488
O O6 0.069741 0.387914 0.432719
O O7 0.000000 0.301725 0.250000
O O8 0.944111 0.287490 0.526459
O O9 0.500000 0.725886 0.750000
O O10 0.719345 0.810337 0.735693
O O11 0.500000 0.353779 0.750000
O O12 0.329460 0.397058 0.534488
O O13 0.814796 0.500000 0.000000
#
# Coordination Sequence:
#
# PCOD9318225 Si02
#       5
#     8   8   8   8   8
#     4  10  20  38  66 107 148 195 246 301 373 453
#     4  12  28  48  72 111 147 193 259 310 381 457
#     4  12  26  49  74 105 145 200 246 315 385 447
#     4  10  21  42  74 102 142 196 247 305 373 450
#     4  10  23  46  69 105 151 194 249 312 375 460
#
# _framework density 23.018840999999998
#
# number of rings (size 3 to 8) (size 9 to 14) (size 15 to 20)
#    0.000    1.200    2.000    4.800    5.600    0.800 
#    7.200    0.000    0.000    0.000    0.000    0.000 
#    0.000    0.000    0.000    0.000    0.000    0.000 
#
# Total GULP energy -111704.726736 kJ/mol
# GULP energy per Si atom -5585.236337 kJ/mol
# Density = 2.296645 g / cm^3
# Si number density = 23.018841 Si / 1000 Ang^3
#
#
#
# Elastic Constant Matrix: (Units=GPa)
#
#
# Indices 1 2 3 4 5 6 
#
# 1 103.7595 51.4568 48.2417 0.0000 0.0000 0.0000
# 2 51.4568 96.8043 34.6417 0.0000 0.0000 0.0000
# 3 48.2417 34.6417 180.3349 0.0000 0.0000 0.0000
# 4 0.0000 0.0000 0.0000 17.9992 0.0000 0.0000
# 5 0.0000 0.0000 0.0000 0.0000 40.0173 0.0000
# 6 0.0000 0.0000 0.0000 0.0000 0.0000 -268.0670
#
#
#
# Elastic Compliance Matrix: (Units=1/GPa)
#
#
# Indices 1 2 3 4 5 6 
#
# 1 0.014063 -0.006581 -0.002498 0.000000 0.000000 0.000000
# 2 -0.006581 0.014173 -0.000962 0.000000 0.000000 0.000000
# 3 -0.002498 -0.000962 0.006398 0.000000 0.000000 0.000000
# 4 0.000000 0.000000 0.000000 0.055558 0.000000 0.000000
# 5 0.000000 0.000000 0.000000 0.000000 0.024989 0.000000
# 6 0.000000 0.000000 0.000000 0.000000 0.000000 -0.003730
#
#
# Mechanical properties :
#
#
# Convention : Reuss Voigt Hill
#
# Bulk Modulus (GPa) = 68.72049 72.17548 70.44798
# Shear Modulus (GPa) = 36.66141 -25.57288 5.54427
#
# Velocity S-wave (km/s) = 3.99516 -3.33671 1.55364
# Velocity P-wave (km/s) = 7.15545 4.07163 5.82145
#
# Compressibility (1/GPa) = 0.01455170
#
# Stress axis : x y z
#
# Youngs Moduli (GPa) = 71.10957 70.55820 156.29416
#
# Poissons Ratio (x) = 0.46437 0.39038
# Poissons Ratio (y) = 0.46800 0.15035
# Poissons Ratio (z) = 0.17761 0.06787
#
# Static dielectric constant tensor:
#      x y z
#    x 1.903940 0.000000 0.000000 
#    y 0.000000 1.887130 0.000000 
#    z 0.000000 0.000000 1.902360 
# 
# From -- ./inp_files/6060.got.cif
#   From: 2010.05.17/outbox.cif.g08.bks.cpg/sg20_4_cif.got.tgz:6060.got - 2010.06.03 22:52:26.
