data_PCOD9318785
_publ_section_title
;
Structure prediction by ZEFSAII (Michael W. Deem and Ramdas Pophale) SiO2 
 PCOD9318785
Probable space group: C 2 2 21
;
_chemical_formula_sum "Si O2"
_cell_formula_units_Z 52
_cell_length_a 5.085852
_cell_length_b 21.874828
_cell_length_c 19.021000
_cell_angle_alpha 90.000000
_cell_angle_beta 90.000000
_cell_angle_gamma 90.000000
_cell_volume 2116.126912
_symmetry_space_group_name_H-M "C 2 2 21"
_symmetry_group_IT_number 20
_symmetry_cell_setting 'orthorhombic'
loop_
_space_group_symop_operation_xyz
x,y,z
-x,-y,1/2+z
x,-y,-z
-x,y,1/2-z
1/2+x,1/2+y,z
1/2-x,1/2-y,1/2+z
1/2+x,1/2-y,-z
1/2-x,1/2+y,1/2-z
loop_
_atom_site_type_symbol
_atom_site_label
_atom_site_fract_x
_atom_site_fract_y
_atom_site_fract_z
Si Si1 0.276889 0.990096 0.417138
Si Si2 0.765014 0.910050 0.389076
Si Si3 0.101348 0.202381 0.409908
Si Si4 0.911503 0.681378 0.534783
Si Si5 0.500000 0.201050 0.250000
Si Si6 0.502160 0.698783 0.844284
Si Si7 0.377602 0.603614 0.177860
O O1 0.221730 0.050738 0.372128
O O2 0.339436 0.000000 0.500000
O O3 0.518075 0.954694 0.380235
O O4 0.010593 0.950290 0.413166
O O5 0.656456 0.861634 0.447140
O O6 0.849551 0.864456 0.325365
O O7 0.299196 0.164973 0.459356
O O8 0.268141 0.254947 0.369911
O O9 0.942856 0.151720 0.366209
O O10 0.940908 0.244970 0.462995
O O11 0.699682 0.675004 0.597213
O O12 0.656582 0.253893 0.294266
O O13 0.664807 0.153699 0.203526
O O14 0.500000 0.578951 0.250000
#
# Coordination Sequence:
#
# PCOD9318785 Si02
#       7
#     8   8   8   8   4   8   8
#     4  12  27  50  75 107 148 204 262 318 369 444
#     4  11  25  46  71 106 143 188 253 307 376 431
#     4  10  21  35  68 105 144 189 237 302 378 442
#     4  11  19  38  67 108 143 181 234 310 366 443
#     4  10  24  48  70 110 144 202 236 304 396 462
#     4  10  21  42  69 104 147 182 239 302 368 450
#     4  11  26  46  71 103 153 201 252 312 381 465
#
# _framework density 24.573197
#
# number of rings (size 3 to 8) (size 9 to 14) (size 15 to 20)
#    0.000    1.231    3.077    2.308    2.154    0.000 
#    4.154    1.538    0.000    0.000    0.000    0.000 
#    0.000    0.000    0.000    0.000    0.000    0.000 
#
# Total GULP energy -144933.520319 kJ/mol
# GULP energy per Si atom -5574.366166 kJ/mol
# Density = 2.451727 g / cm^3
# Si number density = 24.573197 Si / 1000 Ang^3
#
#
#
# Elastic Constant Matrix: (Units=GPa)
#
#
# Indices 1 2 3 4 5 6 
#
# 1 91.5224 51.5486 17.2271 0.0000 0.0000 0.0000
# 2 51.5486 194.1063 73.1414 0.0000 0.0000 0.0000
# 3 17.2271 73.1414 93.7533 0.0000 0.0000 0.0000
# 4 0.0000 0.0000 0.0000 30.4664 0.0000 0.0000
# 5 0.0000 0.0000 0.0000 0.0000 17.1071 0.0000
# 6 0.0000 0.0000 0.0000 0.0000 0.0000 45.9159
#
#
#
# Elastic Compliance Matrix: (Units=1/GPa)
#
#
# Indices 1 2 3 4 5 6 
#
# 1 0.012860 -0.003576 0.000427 0.000000 0.000000 0.000000
# 2 -0.003576 0.008291 -0.005811 0.000000 0.000000 0.000000
# 3 0.000427 -0.005811 0.015122 0.000000 0.000000 0.000000
# 4 0.000000 0.000000 0.000000 0.032823 0.000000 0.000000
# 5 0.000000 0.000000 0.000000 0.000000 0.058455 0.000000
# 6 0.000000 0.000000 0.000000 0.000000 0.000000 0.021779
#
#
# Mechanical properties :
#
#
# Convention : Reuss Voigt Hill
#
# Bulk Modulus (GPa) = 54.49056 73.69070 64.09063
# Shear Modulus (GPa) = 28.84028 34.52888 31.68458
#
# Velocity S-wave (km/s) = 3.42957 3.75259 3.59471
# Velocity P-wave (km/s) = 6.15675 6.98779 6.58539
#
# Compressibility (1/GPa) = 0.01835180
#
# Stress axis : x y z
#
# Youngs Moduli (GPa) = 77.75980 120.60860 66.13076
#
# Poissons Ratio (x) = 0.43131 -0.02823
# Poissons Ratio (y) = 0.27807 0.38431
# Poissons Ratio (z) = -0.03319 0.70090
#
# Static dielectric constant tensor:
#      x y z
#    x 2.108860 0.000000 0.000000 
#    y 0.000000 1.938220 0.000000 
#    z 0.000000 0.000000 2.407500 
# 
# From -- ./inp_files/26124.got.cif
#   From: 2010.05.17/outbox.cif.g08.bks.cpg/sg20_14_cif.got.tgz:26124.got - 2010.06.03 22:52:26.
