data_PCOD9318707
_publ_section_title
;
Structure prediction by ZEFSAII (Michael W. Deem and Ramdas Pophale) SiO2 
 PCOD9318707
Probable space group: C 2 2 21
;
_chemical_formula_sum "Si O2"
_cell_formula_units_Z 28
_cell_length_a 4.729122
_cell_length_b 14.678101
_cell_length_c 15.415814
_cell_angle_alpha 90.000000
_cell_angle_beta 90.000000
_cell_angle_gamma 90.000000
_cell_volume 1070.081489
_symmetry_space_group_name_H-M "C 2 2 21"
_symmetry_group_IT_number 20
_symmetry_cell_setting 'orthorhombic'
loop_
_space_group_symop_operation_xyz
x,y,z
-x,-y,1/2+z
x,-y,-z
-x,y,1/2-z
1/2+x,1/2+y,z
1/2-x,1/2-y,1/2+z
1/2+x,1/2-y,-z
1/2-x,1/2+y,1/2-z
loop_
_atom_site_type_symbol
_atom_site_label
_atom_site_fract_x
_atom_site_fract_y
_atom_site_fract_z
Si Si1 0.000000 0.734976 0.250000
Si Si2 0.652981 0.601745 0.661958
Si Si3 0.147113 0.184867 0.000858
Si Si4 0.841765 0.906409 0.842326
O O1 0.234610 0.799263 0.298658
O O2 0.115676 0.672333 0.173870
O O3 0.500000 0.571145 0.750000
O O4 0.445283 0.629619 0.584688
O O5 0.800120 0.505990 0.639046
O O6 0.051196 0.121812 0.080627
O O7 0.965276 0.279121 0.007789
O O8 0.000000 0.901195 0.750000
#
# Coordination Sequence:
#
# PCOD9318707 Si02
#       4
#     4   8   8   8
#     4  10  20  46  62  98 134 176 230 290 346 414
#     4   9  21  44  65 104 136 180 236 287 349 422
#     4  12  24  44  71 102 143 188 235 293 355 417
#     4  11  23  42  71  96 142 184 237 289 354 420
#
# _framework density 26.166233999999999
#
# number of rings (size 3 to 8) (size 9 to 14) (size 15 to 20)
#    0.857    0.571    2.857    2.571    0.000    0.000 
#   18.000    2.857    0.000    0.000    0.000    0.000 
#    0.000    0.000    0.000    0.000    0.000    0.000 
#
# Total GULP energy -77968.640251 kJ/mol
# GULP energy per Si atom -5569.188589 kJ/mol
# Density = 2.610668 g / cm^3
# Si number density = 26.166234 Si / 1000 Ang^3
#
#
#
# Elastic Constant Matrix: (Units=GPa)
#
#
# Indices 1 2 3 4 5 6 
#
# 1 48.9415 14.7981 0.8983 0.0000 0.0000 0.0000
# 2 14.7981 201.4540 6.9534 0.0000 0.0000 0.0000
# 3 0.8983 6.9534 155.8526 0.0000 0.0000 0.0000
# 4 0.0000 0.0000 0.0000 91.9460 0.0000 0.0000
# 5 0.0000 0.0000 0.0000 0.0000 29.2386 0.0000
# 6 0.0000 0.0000 0.0000 0.0000 0.0000 22.6704
#
#
#
# Elastic Compliance Matrix: (Units=1/GPa)
#
#
# Indices 1 2 3 4 5 6 
#
# 1 0.020897 -0.001533 -0.000052 0.000000 0.000000 0.000000
# 2 -0.001533 0.005084 -0.000218 0.000000 0.000000 0.000000
# 3 -0.000052 -0.000218 0.006426 0.000000 0.000000 0.000000
# 4 0.000000 0.000000 0.000000 0.010876 0.000000 0.000000
# 5 0.000000 0.000000 0.000000 0.000000 0.034201 0.000000
# 6 0.000000 0.000000 0.000000 0.000000 0.000000 0.044110
#
#
# Mechanical properties :
#
#
# Convention : Reuss Voigt Hill
#
# Bulk Modulus (GPa) = 34.72102 50.17197 42.44649
# Shear Modulus (GPa) = 37.09138 54.34419 45.71778
#
# Velocity S-wave (km/s) = 3.76909 4.56223 4.18449
# Velocity P-wave (km/s) = 5.67799 6.85331 6.29315
#
# Compressibility (1/GPa) = 0.02880100
#
# Stress axis : x y z
#
# Youngs Moduli (GPa) = 47.85347 196.69307 155.60944
#
# Poissons Ratio (x) = 0.30158 0.00810
# Poissons Ratio (y) = 0.07337 0.03392
# Poissons Ratio (z) = 0.00249 0.04288
#
# Static dielectric constant tensor:
#      x y z
#    x 2.111290 0.000000 0.000000 
#    y 0.000000 2.298230 0.000000 
#    z 0.000000 0.000000 1.988450 
# 
# From -- ./inp_files/17410.got.cif
#   From: 2010.05.17/outbox.cif.g08.bks.cpg/sg20_9_cif.got.tgz:17410.got - 2010.06.03 22:52:26.
