data_PCOD9318157
_publ_section_title
;
Structure prediction by ZEFSAII (Michael W. Deem and Ramdas Pophale) SiO2 
 PCOD9318157
Probable space group: C 2 2 21
;
_chemical_formula_sum "Si O2"
_cell_formula_units_Z 52
_cell_length_a 11.929123
_cell_length_b 15.956319
_cell_length_c 15.133995
_cell_angle_alpha 90.000000
_cell_angle_beta 90.000000
_cell_angle_gamma 90.000000
_cell_volume 2880.678643
_symmetry_space_group_name_H-M "C 2 2 21"
_symmetry_group_IT_number 20
_symmetry_cell_setting 'orthorhombic'
loop_
_space_group_symop_operation_xyz
x,y,z
-x,-y,1/2+z
x,-y,-z
-x,y,1/2-z
1/2+x,1/2+y,z
1/2-x,1/2-y,1/2+z
1/2+x,1/2-y,-z
1/2-x,1/2+y,1/2-z
loop_
_atom_site_type_symbol
_atom_site_label
_atom_site_fract_x
_atom_site_fract_y
_atom_site_fract_z
Si Si1 0.293634 0.131439 0.591652
Si Si2 0.870490 0.968175 0.341351
Si Si3 0.447567 0.860746 0.076106
Si Si4 0.291710 0.000000 0.000000
Si Si5 0.276283 0.817394 0.212667
Si Si6 0.380431 0.510317 0.142018
Si Si7 0.661734 0.308280 0.573140
O O1 0.424328 0.113067 0.577614
O O2 0.281688 0.183753 0.682528
O O3 0.244577 0.181034 0.508671
O O4 0.219023 0.047859 0.605271
O O5 0.826331 0.875225 0.318548
O O6 0.789048 0.005947 0.415130
O O7 0.864580 0.016713 0.247994
O O8 0.998882 0.967510 0.371899
O O9 0.371323 0.919822 0.014968
O O10 0.387527 0.863277 0.172692
O O11 0.430754 0.762754 0.051196
O O12 0.277113 0.730689 0.159517
O O13 0.383607 0.600972 0.098029
#
# Coordination Sequence:
#
# PCOD9318157 Si02
#       7
#     8   8   8   4   8   8   8
#     4  11  21  38  65  86 129 160 197 259 304 360
#     4   9  20  39  61  85 122 159 206 245 298 368
#     4   9  22  38  59  89 120 158 204 245 304 360
#     4  10  20  38  62  86 118 164 208 244 306 366
#     4   8  20  42  58  88 119 162 204 244 301 359
#     4  10  22  37  61  94 119 162 198 253 307 355
#     4  10  23  36  56  98 114 157 205 245 302 356
#
# _framework density 18.051300999999999
#
# number of rings (size 3 to 8) (size 9 to 14) (size 15 to 20)
#    0.923    1.538    0.000    0.923    4.308    6.154 
#    0.000    0.000    0.000    1.846    0.000    0.000 
#    0.000    0.000    0.000    0.000    0.000    0.000 
#
# Total GULP energy -144803.863123 kJ/mol
# GULP energy per Si atom -5569.379351 kJ/mol
# Density = 1.801022 g / cm^3
# Si number density = 18.051301 Si / 1000 Ang^3
#
#
#
# Elastic Constant Matrix: (Units=GPa)
#
#
# Indices 1 2 3 4 5 6 
#
# 1 157.2242 52.7096 46.6888 0.0000 0.0000 0.0000
# 2 52.7096 51.6969 12.4844 0.0000 0.0000 0.0000
# 3 46.6888 12.4844 57.5720 0.0000 0.0000 0.0000
# 4 0.0000 0.0000 0.0000 25.9699 0.0000 0.0000
# 5 0.0000 0.0000 0.0000 0.0000 22.2007 0.0000
# 6 0.0000 0.0000 0.0000 0.0000 0.0000 16.4661
#
#
#
# Elastic Compliance Matrix: (Units=1/GPa)
#
#
# Indices 1 2 3 4 5 6 
#
# 1 0.012144 -0.010557 -0.007559 0.000000 0.000000 0.000000
# 2 -0.010557 0.029589 0.002145 0.000000 0.000000 0.000000
# 3 -0.007559 0.002145 0.023035 0.000000 0.000000 0.000000
# 4 0.000000 0.000000 0.000000 0.038506 0.000000 0.000000
# 5 0.000000 0.000000 0.000000 0.000000 0.045044 0.000000
# 6 0.000000 0.000000 0.000000 0.000000 0.000000 0.060731
#
#
# Mechanical properties :
#
#
# Convention : Reuss Voigt Hill
#
# Bulk Modulus (GPa) = 30.46402 54.47318 42.46860
# Shear Modulus (GPa) = 19.84652 23.23469 21.54061
#
# Velocity S-wave (km/s) = 3.31939 3.59158 3.45816
# Velocity P-wave (km/s) = 5.62176 6.88779 6.28672
#
# Compressibility (1/GPa) = 0.03282561
#
# Stress axis : x y z
#
# Youngs Moduli (GPa) = 82.34322 33.79625 43.41247
#
# Poissons Ratio (x) = 0.35678 0.32817
# Poissons Ratio (y) = 0.86927 -0.09311
# Poissons Ratio (z) = 0.62246 -0.07248
#
# Static dielectric constant tensor:
#      x y z
#    x 1.605120 0.000000 0.000000 
#    y 0.000000 1.608130 0.000000 
#    z 0.000000 0.000000 1.639080 
# 
# From -- ./inp_files/20199.got.cif
#   From: 2010.05.17/outbox.cif.g08.bks.cpg/sg20_11_cif.got.tgz:20199.got - 2010.06.03 22:52:26.
