data_PCOD9318478
_publ_section_title
;
Structure prediction by ZEFSAII (Michael W. Deem and Ramdas Pophale) SiO2 
 PCOD9318478
Probable space group: C 2 2 21
;
_chemical_formula_sum "Si O2"
_cell_formula_units_Z 32
_cell_length_a 16.574454
_cell_length_b 17.422950
_cell_length_c 5.122119
_cell_angle_alpha 90.000000
_cell_angle_beta 90.000000
_cell_angle_gamma 90.000000
_cell_volume 1479.144439
_symmetry_space_group_name_H-M "C 2 2 21"
_symmetry_group_IT_number 20
_symmetry_cell_setting 'orthorhombic'
loop_
_space_group_symop_operation_xyz
x,y,z
-x,-y,1/2+z
x,-y,-z
-x,y,1/2-z
1/2+x,1/2+y,z
1/2-x,1/2-y,1/2+z
1/2+x,1/2-y,-z
1/2-x,1/2+y,1/2-z
loop_
_atom_site_type_symbol
_atom_site_label
_atom_site_fract_x
_atom_site_fract_y
_atom_site_fract_z
Si Si1 0.910439 0.340004 0.134022
Si Si2 0.500000 0.446281 0.750000
Si Si3 0.557106 0.000000 0.500000
Si Si4 0.252946 0.200342 0.607041
Si Si5 0.917182 0.830839 0.085509
O O1 0.839654 0.336748 0.346337
O O2 0.000000 0.342499 0.250000
O O3 0.896304 0.419566 0.984551
O O4 0.911045 0.259636 0.979730
O O5 0.481694 0.500000 0.500000
O O6 0.569642 0.387402 0.659367
O O7 0.500000 0.001075 0.750000
O O8 0.246265 0.227793 0.308983
O O9 0.172942 0.152879 0.689339
O O10 0.000000 0.840469 0.250000
#
# Coordination Sequence:
#
# PCOD9318478 Si02
#       5
#     8   4   4   8   8
#     4  10  20  40  69  98 130 178 214 269 329 393
#     4  12  26  44  68 100 130 172 236 292 340 404
#     4  10  22  38  64  98 136 166 220 270 316 396
#     4  10  23  38  65 104 130 168 233 272 311 409
#     4  11  22  41  73  94 136 184 223 271 342 405
#
# _framework density 21.634128
#
# number of rings (size 3 to 8) (size 9 to 14) (size 15 to 20)
#    0.000    1.500    2.500    2.250    3.500    6.000 
#    0.000    2.500   11.000    0.000    0.000    0.000 
#    0.000    0.000    0.000    0.000    0.000    0.000 
#
# Total GULP energy -89137.789711 kJ/mol
# GULP energy per Si atom -5571.111857 kJ/mol
# Density = 2.158489 g / cm^3
# Si number density = 21.634128 Si / 1000 Ang^3
#
#
#
# Elastic Constant Matrix: (Units=GPa)
#
#
# Indices 1 2 3 4 5 6 
#
# 1 169.4027 17.0141 15.8927 0.0000 0.0000 0.0000
# 2 17.0141 143.5104 33.8534 0.0000 0.0000 0.0000
# 3 15.8927 33.8534 78.5480 0.0000 0.0000 0.0000
# 4 0.0000 0.0000 0.0000 37.3284 0.0000 0.0000
# 5 0.0000 0.0000 0.0000 0.0000 34.1482 0.0000
# 6 0.0000 0.0000 0.0000 0.0000 0.0000 -16.1310
#
#
#
# Elastic Compliance Matrix: (Units=1/GPa)
#
#
# Indices 1 2 3 4 5 6 
#
# 1 0.006046 -0.000477 -0.001018 0.000000 0.000000 0.000000
# 2 -0.000477 0.007794 -0.003263 0.000000 0.000000 0.000000
# 3 -0.001018 -0.003263 0.014343 0.000000 0.000000 0.000000
# 4 0.000000 0.000000 0.000000 0.026789 0.000000 0.000000
# 5 0.000000 0.000000 0.000000 0.000000 0.029284 0.000000
# 6 0.000000 0.000000 0.000000 0.000000 0.000000 -0.061992
#
#
# Mechanical properties :
#
#
# Convention : Reuss Voigt Hill
#
# Bulk Modulus (GPa) = 53.56437 58.33128 55.94783
# Shear Modulus (GPa) = 131.56867 32.71586 82.14227
#
# Velocity S-wave (km/s) = 7.80688 3.89296 6.16857
# Velocity P-wave (km/s) = 10.29932 6.87227 8.75512
#
# Compressibility (1/GPa) = 0.01866913
#
# Stress axis : x y z
#
# Youngs Moduli (GPa) = 165.38576 128.29822 69.71913
#
# Poissons Ratio (x) = 0.06116 0.07097
# Poissons Ratio (y) = 0.07884 0.22748
# Poissons Ratio (z) = 0.16835 0.41861
#
# Static dielectric constant tensor:
#      x y z
#    x 1.582820 0.000000 0.000000 
#    y 0.000000 1.848840 0.000000 
#    z 0.000000 0.000000 1.846920 
# 
# From -- ./inp_files/2461.got.cif
#   From: 2010.05.17/outbox.cif.g08.bks.cpg/sg20_2_cif.got.tgz:2461.got - 2010.06.03 22:52:26.
