data_PCOD9318428
_publ_section_title
;
Structure prediction by ZEFSAII (Michael W. Deem and Ramdas Pophale) SiO2 
 PCOD9318428
Probable space group: C 2 2 21
;
_chemical_formula_sum "Si O2"
_cell_formula_units_Z 56
_cell_length_a 5.651872
_cell_length_b 29.807085
_cell_length_c 14.306559
_cell_angle_alpha 90.000000
_cell_angle_beta 90.000000
_cell_angle_gamma 90.000000
_cell_volume 2410.166324
_symmetry_space_group_name_H-M "C 2 2 21"
_symmetry_group_IT_number 20
_symmetry_cell_setting 'orthorhombic'
loop_
_space_group_symop_operation_xyz
x,y,z
-x,-y,1/2+z
x,-y,-z
-x,y,1/2-z
1/2+x,1/2+y,z
1/2-x,1/2-y,1/2+z
1/2+x,1/2-y,-z
1/2-x,1/2+y,1/2-z
loop_
_atom_site_type_symbol
_atom_site_label
_atom_site_fract_x
_atom_site_fract_y
_atom_site_fract_z
Si Si1 0.773950 0.832624 0.525454
Si Si2 0.377272 0.707240 0.150567
Si Si3 0.902056 0.908527 0.055526
Si Si4 0.396544 0.884046 0.608720
Si Si5 0.827527 0.696989 0.836980
Si Si6 0.000000 0.121193 0.750000
Si Si7 0.741369 0.025164 0.199464
Si Si8 0.908155 0.000000 0.000000
O O1 0.662374 0.866083 0.601811
O O2 0.597800 0.816905 0.442461
O O3 0.909831 0.792001 0.574808
O O4 0.963399 0.863616 0.473436
O O5 0.500000 0.701930 0.250000
O O6 0.236375 0.662262 0.129359
O O7 0.223581 0.752832 0.148716
O O8 0.885438 0.907898 0.167152
O O9 0.036941 0.952579 0.015982
O O10 0.665096 0.904589 0.993970
O O11 0.310773 0.922142 0.679173
O O12 0.681822 0.655329 0.797313
O O13 0.000000 0.704713 0.750000
O O14 0.500000 0.008360 0.250000
O O15 0.763619 0.003897 0.096234
O O16 0.000000 0.019893 0.250000
#
# Coordination Sequence:
#
# PCOD9318428 Si02
#       8
#     8   8   8   8   8   4   8   4
#     4  10  22  39  63  90 127 182 216 295 349 416
#     4  10  23  37  55  91 126 167 231 277 342 411
#     4   9  21  42  63  98 129 175 228 285 361 431
#     4  10  22  39  64  89 136 177 229 284 351 422
#     4  10  22  39  60  91 126 172 233 288 341 424
#     4  10  20  40  66  86 134 180 226 292 360 426
#     4  11  27  47  75 108 146 193 238 298 371 436
#     4  10  24  48  72 108 144 180 240 306 354 462
#
# _framework density 23.234912000000001
#
# number of rings (size 3 to 8) (size 9 to 14) (size 15 to 20)
#    0.000    2.000    0.000    1.286   11.000    2.857 
#    5.143    0.714    0.000    0.000    0.000    0.000 
#    0.000    0.000    0.000    0.000    0.000    0.000 
#
# Total GULP energy -155876.790332 kJ/mol
# GULP energy per Si atom -5567.028226 kJ/mol
# Density = 2.318203 g / cm^3
# Si number density = 23.234912 Si / 1000 Ang^3
#
#
#
# Elastic Constant Matrix: (Units=GPa)
#
#
# Indices 1 2 3 4 5 6 
#
# 1 47.1754 -15.5413 38.8502 0.0000 0.0000 0.0000
# 2 -15.5413 75.9963 36.0982 0.0000 0.0000 0.0000
# 3 38.8502 36.0982 150.3956 0.0000 0.0000 0.0000
# 4 0.0000 0.0000 0.0000 27.1503 0.0000 0.0000
# 5 0.0000 0.0000 0.0000 0.0000 14.8891 0.0000
# 6 0.0000 0.0000 0.0000 0.0000 0.0000 20.6242
#
#
#
# Elastic Compliance Matrix: (Units=1/GPa)
#
#
# Indices 1 2 3 4 5 6 
#
# 1 0.035770 0.013210 -0.012411 0.000000 0.000000 0.000000
# 2 0.013210 0.019730 -0.008148 0.000000 0.000000 0.000000
# 3 -0.012411 -0.008148 0.011811 0.000000 0.000000 0.000000
# 4 0.000000 0.000000 0.000000 0.036832 0.000000 0.000000
# 5 0.000000 0.000000 0.000000 0.000000 0.067163 0.000000
# 6 0.000000 0.000000 0.000000 0.000000 0.000000 0.048487
#
#
# Mechanical properties :
#
#
# Convention : Reuss Voigt Hill
#
# Bulk Modulus (GPa) = 19.00653 43.59792 31.30223
# Shear Modulus (GPa) = 19.83903 26.81008 23.32456
#
# Velocity S-wave (km/s) = 2.92523 3.40055 3.17181
# Velocity P-wave (km/s) = 4.42801 5.85005 5.18798
#
# Compressibility (1/GPa) = 0.05261350
#
# Stress axis : x y z
#
# Youngs Moduli (GPa) = 27.95641 50.68325 84.66816
#
# Poissons Ratio (x) = -0.66953 1.05080
# Poissons Ratio (y) = -0.36931 0.68989
# Poissons Ratio (z) = 0.34696 0.41297
#
# Static dielectric constant tensor:
#      x y z
#    x 1.944460 0.000000 0.000000 
#    y 0.000000 1.912550 0.000000 
#    z 0.000000 0.000000 1.937260 
# 
# From -- ./inp_files/18019.got.cif
#   From: 2010.05.17/outbox.cif.g08.bks.cpg/sg20_10_cif.got.tgz:18019.got - 2010.06.03 22:52:26.
