data_PCOD9318479
_publ_section_title
;
Structure prediction by ZEFSAII (Michael W. Deem and Ramdas Pophale) SiO2 
 PCOD9318479
Probable space group: C 2 2 21
;
_chemical_formula_sum "Si O2"
_cell_formula_units_Z 60
_cell_length_a 16.353610
_cell_length_b 13.457654
_cell_length_c 11.964277
_cell_angle_alpha 90.000000
_cell_angle_beta 90.000000
_cell_angle_gamma 90.000000
_cell_volume 2633.112739
_symmetry_space_group_name_H-M "C 2 2 21"
_symmetry_group_IT_number 20
_symmetry_cell_setting 'orthorhombic'
loop_
_space_group_symop_operation_xyz
x,y,z
-x,-y,1/2+z
x,-y,-z
-x,y,1/2-z
1/2+x,1/2+y,z
1/2-x,1/2-y,1/2+z
1/2+x,1/2-y,-z
1/2-x,1/2+y,1/2-z
loop_
_atom_site_type_symbol
_atom_site_label
_atom_site_fract_x
_atom_site_fract_y
_atom_site_fract_z
Si Si1 0.232093 0.868643 0.781053
Si Si2 0.800187 0.342121 0.019699
Si Si3 0.078991 0.824137 0.271127
Si Si4 0.301402 0.464129 0.123742
Si Si5 0.833008 0.644476 0.733894
Si Si6 0.479014 0.858779 0.923589
Si Si7 0.500000 0.964216 0.250000
Si Si8 0.657984 0.206273 0.089995
O O1 0.263812 0.889567 0.906150
O O2 0.185851 0.761854 0.780315
O O3 0.309447 0.858217 0.695508
O O4 0.181242 0.953411 0.718560
O O5 0.899518 0.346448 0.003365
O O6 0.793662 0.383530 0.145416
O O7 0.741357 0.242571 0.028909
O O8 0.141596 0.871742 0.353708
O O9 0.045043 0.727348 0.335082
O O10 0.122742 0.802277 0.154892
O O11 0.000000 0.890761 0.250000
O O12 0.211495 0.421420 0.141627
O O13 0.312658 0.500000 0.000000
O O14 0.924538 0.608425 0.732610
O O15 0.573783 0.837913 0.962593
O O16 0.482845 0.962529 0.855782
#
# Coordination Sequence:
#
# PCOD9318479 Si02
#       8
#     8   8   8   8   8   8   4   8
#     4  11  24  43  70 104 151 198 244 322 377 435
#     4  11  22  42  72 106 148 197 246 308 379 446
#     4  10  20  44  70 104 137 184 258 300 363 456
#     4  12  26  45  76 105 142 200 260 304 377 458
#     4  11  27  45  69 109 152 190 255 314 373 458
#     4  11  20  40  77 103 144 199 250 306 382 451
#     4  12  24  48  68 110 150 198 248 308 388 464
#     4  10  20  40  70 105 142 195 247 303 372 446
#
# _framework density 22.786719999999999
#
# number of rings (size 3 to 8) (size 9 to 14) (size 15 to 20)
#    0.000    1.067    6.000    1.600    7.467    3.200 
#    3.600    2.667    0.000    0.000    0.000    0.000 
#    0.000    0.000    0.000    0.000    0.000    0.000 
#
# Total GULP energy -167211.090145 kJ/mol
# GULP energy per Si atom -5573.703005 kJ/mol
# Density = 2.273486 g / cm^3
# Si number density = 22.786720 Si / 1000 Ang^3
#
#
#
# Elastic Constant Matrix: (Units=GPa)
#
#
# Indices 1 2 3 4 5 6 
#
# 1 147.6406 24.9551 -13.2661 0.0000 0.0000 0.0000
# 2 24.9551 70.6188 -17.1892 0.0000 0.0000 0.0000
# 3 -13.2661 -17.1892 53.0133 0.0000 0.0000 0.0000
# 4 0.0000 0.0000 0.0000 -5.6033 0.0000 0.0000
# 5 0.0000 0.0000 0.0000 0.0000 32.6699 0.0000
# 6 0.0000 0.0000 0.0000 0.0000 0.0000 2.1396
#
#
#
# Elastic Compliance Matrix: (Units=1/GPa)
#
#
# Indices 1 2 3 4 5 6 
#
# 1 0.007259 -0.002305 0.001069 0.000000 0.000000 0.000000
# 2 -0.002305 0.016106 0.004645 0.000000 0.000000 0.000000
# 3 0.001069 0.004645 0.020637 0.000000 0.000000 0.000000
# 4 0.000000 0.000000 0.000000 -0.178467 0.000000 0.000000
# 5 0.000000 0.000000 0.000000 0.000000 0.030609 0.000000
# 6 0.000000 0.000000 0.000000 0.000000 0.000000 0.467373
#
#
# Mechanical properties :
#
#
# Convention : Reuss Voigt Hill
#
# Bulk Modulus (GPa) = 19.67698 28.91916 24.29807
# Shear Modulus (GPa) = 13.38193 24.29277 18.83735
#
# Velocity S-wave (km/s) = 2.42599 3.26865 2.87833
# Velocity P-wave (km/s) = 4.06218 5.19271 4.66184
#
# Compressibility (1/GPa) = 0.05082081
#
# Stress axis : x y z
#
# Youngs Moduli (GPa) = 137.76284 62.08964 48.45678
#
# Poissons Ratio (x) = 0.14311 -0.05181
# Poissons Ratio (y) = 0.31753 -0.22510
# Poissons Ratio (z) = -0.14728 -0.28843
#
# Static dielectric constant tensor:
#      x y z
#    x 1.988240 0.000000 0.000000 
#    y 0.000000 1.954220 0.000000 
#    z 0.000000 0.000000 1.937010 
# 
# From -- ./inp_files/15861.got.cif
#   From: 2010.05.17/outbox.cif.g08.bks.cpg/sg20_8_cif.got.tgz:15861.got - 2010.06.03 22:52:26.
