data_PCOD9318170
_publ_section_title
;
Structure prediction by ZEFSAII (Michael W. Deem and Ramdas Pophale) SiO2 
 PCOD9318170
Probable space group: C 2 2 21
;
_chemical_formula_sum "Si O2"
_cell_formula_units_Z 64
_cell_length_a 15.672282
_cell_length_b 12.114121
_cell_length_c 17.549258
_cell_angle_alpha 90.000000
_cell_angle_beta 90.000000
_cell_angle_gamma 90.000000
_cell_volume 3331.830532
_symmetry_space_group_name_H-M "C 2 2 21"
_symmetry_group_IT_number 20
_symmetry_cell_setting 'orthorhombic'
loop_
_space_group_symop_operation_xyz
x,y,z
-x,-y,1/2+z
x,-y,-z
-x,y,1/2-z
1/2+x,1/2+y,z
1/2-x,1/2-y,1/2+z
1/2+x,1/2-y,-z
1/2-x,1/2+y,1/2-z
loop_
_atom_site_type_symbol
_atom_site_label
_atom_site_fract_x
_atom_site_fract_y
_atom_site_fract_z
Si Si1 0.324422 0.111943 0.666711
Si Si2 0.990371 0.605147 0.899417
Si Si3 0.692208 0.859792 0.808704
Si Si4 0.942227 0.638468 0.071672
Si Si5 0.662060 0.478757 0.088997
Si Si6 0.266380 0.173749 0.132458
Si Si7 0.810540 0.327607 0.156410
Si Si8 0.961944 0.809873 0.333189
O O1 0.420776 0.135730 0.639400
O O2 0.260538 0.198567 0.627147
O O3 0.309227 0.132333 0.756225
O O4 0.311435 0.981517 0.657140
O O5 0.971919 0.474260 0.886869
O O6 0.907634 0.666499 0.868247
O O7 0.986692 0.629694 0.989632
O O8 0.698886 0.856159 0.716733
O O9 0.772147 0.794345 0.842952
O O10 0.610201 0.785036 0.826391
O O11 0.839237 0.639611 0.072171
O O12 0.968055 0.749948 0.114749
O O13 0.683237 0.598249 0.123167
O O14 0.746682 0.404971 0.107611
O O15 0.584147 0.414077 0.128209
O O16 0.648949 0.500000 0.000000
O O17 0.000000 0.834829 0.250000
#
# Coordination Sequence:
#
# PCOD9318170 Si02
#       8
#     8   8   8   8   8   8   8   8
#     4  11  22  38  65  94 130 162 217 277 321 380
#     4  11  22  38  58  95 127 166 213 266 324 385
#     4  10  20  38  62  96 123 159 214 271 318 383
#     4  11  22  38  61  89 124 166 216 261 319 393
#     4  11  23  40  66  95 129 168 218 270 332 400
#     4  11  22  38  63  92 127 166 211 258 331 396
#     4  10  21  37  65  92 126 169 211 258 326 399
#     4  11  23  40  68  95 122 171 223 274 319 398
#
# _framework density 19.208659999999998
#
# number of rings (size 3 to 8) (size 9 to 14) (size 15 to 20)
#    0.000    1.250    5.000    1.125    1.750    0.000 
#    0.000    3.750    0.000    0.000    0.000    0.000 
#    0.000    0.000    0.000    0.000    0.000    0.000 
#
# Total GULP energy -178601.424605 kJ/mol
# GULP energy per Si atom -5581.294519 kJ/mol
# Density = 1.916494 g / cm^3
# Si number density = 19.208660 Si / 1000 Ang^3
#
#
#
# Elastic Constant Matrix: (Units=GPa)
#
#
# Indices 1 2 3 4 5 6 
#
# 1 82.2558 44.7848 22.9773 0.0000 0.0000 0.0000
# 2 44.7848 93.8907 36.6814 0.0000 0.0000 0.0000
# 3 22.9773 36.6814 58.7933 0.0000 0.0000 0.0000
# 4 0.0000 0.0000 0.0000 14.7385 0.0000 0.0000
# 5 0.0000 0.0000 0.0000 0.0000 18.9702 0.0000
# 6 0.0000 0.0000 0.0000 0.0000 0.0000 24.8091
#
#
#
# Elastic Compliance Matrix: (Units=1/GPa)
#
#
# Indices 1 2 3 4 5 6 
#
# 1 0.016606 -0.007121 -0.002047 0.000000 0.000000 0.000000
# 2 -0.007121 0.017137 -0.007909 0.000000 0.000000 0.000000
# 3 -0.002047 -0.007909 0.022743 0.000000 0.000000 0.000000
# 4 0.000000 0.000000 0.000000 0.067849 0.000000 0.000000
# 5 0.000000 0.000000 0.000000 0.000000 0.052714 0.000000
# 6 0.000000 0.000000 0.000000 0.000000 0.000000 0.040308
#
#
# Mechanical properties :
#
#
# Convention : Reuss Voigt Hill
#
# Bulk Modulus (GPa) = 44.77812 49.31407 47.04609
# Shear Modulus (GPa) = 19.30825 20.40331 19.85578
#
# Velocity S-wave (km/s) = 3.17390 3.26267 3.21859
# Velocity P-wave (km/s) = 6.06577 6.31838 6.19336
#
# Compressibility (1/GPa) = 0.02233234
#
# Stress axis : x y z
#
# Youngs Moduli (GPa) = 60.21833 58.35219 43.96926
#
# Poissons Ratio (x) = 0.41554 0.09000
# Poissons Ratio (y) = 0.42883 0.34775
# Poissons Ratio (z) = 0.12327 0.46150
#
# Static dielectric constant tensor:
#      x y z
#    x 1.664250 0.000000 0.000000 
#    y 0.000000 1.677570 0.000000 
#    z 0.000000 0.000000 1.724200 
# 
# From -- ./inp_files/24979.got.cif
#   From: 2010.05.17/outbox.cif.g08.bks.cpg/sg20_13_cif.got.tgz:24979.got - 2010.06.03 22:52:26.
