data_PCOD9318978
_publ_section_title
;
Structure prediction by ZEFSAII (Michael W. Deem and Ramdas Pophale) SiO2 
 PCOD9318978
Probable space group: C 2 2 21
;
_chemical_formula_sum "Si O2"
_cell_formula_units_Z 56
_cell_length_a 12.206471
_cell_length_b 14.136504
_cell_length_c 15.341532
_cell_angle_alpha 90.000000
_cell_angle_beta 90.000000
_cell_angle_gamma 90.000000
_cell_volume 2647.286070
_symmetry_space_group_name_H-M "C 2 2 21"
_symmetry_group_IT_number 20
_symmetry_cell_setting 'orthorhombic'
loop_
_space_group_symop_operation_xyz
x,y,z
-x,-y,1/2+z
x,-y,-z
-x,y,1/2-z
1/2+x,1/2+y,z
1/2-x,1/2-y,1/2+z
1/2+x,1/2-y,-z
1/2-x,1/2+y,1/2-z
loop_
_atom_site_type_symbol
_atom_site_label
_atom_site_fract_x
_atom_site_fract_y
_atom_site_fract_z
Si Si1 0.000000 0.390029 0.750000
Si Si2 0.580473 0.437832 0.126505
Si Si3 0.918665 0.365002 0.923185
Si Si4 0.754055 0.500000 0.000000
Si Si5 0.124188 0.254480 0.975406
Si Si6 0.231663 0.673854 0.182615
Si Si7 0.744248 0.222534 0.853508
Si Si8 0.656201 0.530296 0.679480
O O1 0.052858 0.432393 0.660993
O O2 0.102608 0.334065 0.791214
O O3 0.584928 0.341156 0.071722
O O4 0.457537 0.477573 0.126534
O O5 0.618877 0.428936 0.226296
O O6 0.673263 0.501137 0.081759
O O7 0.834937 0.412396 0.989397
O O8 0.856997 0.274691 0.881782
O O9 0.028659 0.331811 0.968863
O O10 0.227005 0.288797 0.916022
O O11 0.157563 0.244016 0.075103
O O12 0.282369 0.741900 0.255993
O O13 0.285882 0.570735 0.187715
O O14 0.764144 0.110537 0.858250
#
# Coordination Sequence:
#
# PCOD9318978 Si02
#       8
#     4   8   8   4   8   8   8   8
#     4   8  18  36  66  84 128 172 216 258 336 400
#     4  11  23  41  66  98 125 178 235 261 342 421
#     4  10  21  38  63  94 123 168 219 271 330 411
#     4  12  24  42  68  98 134 172 228 288 340 412
#     4  11  22  40  69  94 130 178 225 276 338 423
#     4  10  22  41  65 101 136 174 228 281 337 405
#     4  11  21  40  67  96 132 174 222 277 343 399
#     4  11  24  41  68  96 134 179 226 283 339 407
#
# _framework density 21.153739000000002
#
# number of rings (size 3 to 8) (size 9 to 14) (size 15 to 20)
#    0.000    1.429    4.286    1.714    0.000    4.000 
#    0.000    0.000    0.000    5.143    0.000    0.000 
#    0.000    0.000    0.000    0.000    0.000    0.000 
#
# Total GULP energy -156159.654442 kJ/mol
# GULP energy per Si atom -5577.130516 kJ/mol
# Density = 2.110559 g / cm^3
# Si number density = 21.153739 Si / 1000 Ang^3
#
#
#
# Elastic Constant Matrix: (Units=GPa)
#
#
# Indices 1 2 3 4 5 6 
#
# 1 77.3624 34.3699 36.2498 0.0000 0.0000 0.0000
# 2 34.3699 78.6495 12.0643 0.0000 0.0000 0.0000
# 3 36.2498 12.0643 62.4041 0.0000 0.0000 0.0000
# 4 0.0000 0.0000 0.0000 21.2910 0.0000 0.0000
# 5 0.0000 0.0000 0.0000 0.0000 24.9458 0.0000
# 6 0.0000 0.0000 0.0000 0.0000 0.0000 10.8921
#
#
#
# Elastic Compliance Matrix: (Units=1/GPa)
#
#
# Indices 1 2 3 4 5 6 
#
# 1 0.021508 -0.007711 -0.011003 0.000000 0.000000 0.000000
# 2 -0.007711 0.015868 0.001412 0.000000 0.000000 0.000000
# 3 -0.011003 0.001412 0.022143 0.000000 0.000000 0.000000
# 4 0.000000 0.000000 0.000000 0.046968 0.000000 0.000000
# 5 0.000000 0.000000 0.000000 0.000000 0.040087 0.000000
# 6 0.000000 0.000000 0.000000 0.000000 0.000000 0.091810
#
#
# Mechanical properties :
#
#
# Convention : Reuss Voigt Hill
#
# Bulk Modulus (GPa) = 40.13797 42.64266 41.39032
# Shear Modulus (GPa) = 17.77507 20.47457 19.12482
#
# Velocity S-wave (km/s) = 2.90190 3.11447 3.01007
# Velocity P-wave (km/s) = 5.49942 5.75634 5.62935
#
# Compressibility (1/GPa) = 0.02491406
#
# Stress axis : x y z
#
# Youngs Moduli (GPa) = 46.49519 63.02053 45.16084
#
# Poissons Ratio (x) = 0.48596 0.49689
# Poissons Ratio (y) = 0.35853 -0.06375
# Poissons Ratio (z) = 0.51158 -0.08896
#
# Static dielectric constant tensor:
#      x y z
#    x 1.753800 0.000000 0.000000 
#    y 0.000000 1.776940 0.000000 
#    z 0.000000 0.000000 1.833640 
# 
# From -- ./inp_files/20084.got.cif
#   From: 2010.05.17/outbox.cif.g08.bks.cpg/sg20_11_cif.got.tgz:20084.got - 2010.06.03 22:52:26.
