data_PCOD9318843
_publ_section_title
;
Structure prediction by ZEFSAII (Michael W. Deem and Ramdas Pophale) SiO2 
 PCOD9318843
Probable space group: C 2 2 21
;
_chemical_formula_sum "Si O2"
_cell_formula_units_Z 56
_cell_length_a 22.182250
_cell_length_b 19.031613
_cell_length_c 7.022885
_cell_angle_alpha 90.000000
_cell_angle_beta 90.000000
_cell_angle_gamma 90.000000
_cell_volume 2964.809205
_symmetry_space_group_name_H-M "C 2 2 21"
_symmetry_group_IT_number 20
_symmetry_cell_setting 'orthorhombic'
loop_
_space_group_symop_operation_xyz
x,y,z
-x,-y,1/2+z
x,-y,-z
-x,y,1/2-z
1/2+x,1/2+y,z
1/2-x,1/2-y,1/2+z
1/2+x,1/2-y,-z
1/2-x,1/2+y,1/2-z
loop_
_atom_site_type_symbol
_atom_site_label
_atom_site_fract_x
_atom_site_fract_y
_atom_site_fract_z
Si Si1 0.258957 0.581595 0.016086
Si Si2 0.063150 0.195358 0.678791
Si Si3 0.205391 0.717711 0.973407
Si Si4 0.859941 0.145370 0.459874
Si Si5 0.102414 0.078546 0.432160
Si Si6 0.735832 0.081584 0.461662
Si Si7 0.168505 0.289886 0.588924
O O1 0.330103 0.591130 0.981532
O O2 0.250150 0.594255 0.239541
O O3 0.242933 0.500000 0.000000
O O4 0.217717 0.637911 0.905833
O O5 0.056493 0.131640 0.530738
O O6 0.105479 0.251061 0.569323
O O7 0.000000 0.225079 0.750000
O O8 0.096268 0.163876 0.866231
O O9 0.165275 0.779166 0.878508
O O10 0.273199 0.747929 0.987450
O O11 0.177400 0.711114 0.182678
O O12 0.888859 0.097917 0.291742
O O13 0.800010 0.107282 0.546181
O O14 0.087194 0.000000 0.500000
O O15 0.679061 0.132516 0.493647
O O16 0.725829 0.000000 0.500000
#
# Coordination Sequence:
#
# PCOD9318843 Si02
#       7
#     8   8   8   8   8   8   8
#     4   9  17  27  46  76 109 137 171 213 272 332
#     4  11  23  38  55  77 105 151 192 226 267 322
#     4   9  16  30  50  74 105 140 171 224 276 328
#     4   9  21  35  55  78 108 142 181 227 277 335
#     4  10  21  37  53  73 104 143 183 228 269 322
#     4   9  18  30  50  82 108 136 168 223 290 332
#     4   9  18  32  51  76 105 135 184 222 275 336
#
# _framework density 18.888231999999999
#
# number of rings (size 3 to 8) (size 9 to 14) (size 15 to 20)
#    0.000    2.571    1.429    0.857    6.000    1.714 
#    2.571    0.000    0.000    0.000    0.000    9.000 
#    0.000    0.000    0.000    0.000    0.000    0.000 
#
# Total GULP energy -155907.103627 kJ/mol
# GULP energy per Si atom -5568.110844 kJ/mol
# Density = 1.884524 g / cm^3
# Si number density = 18.888232 Si / 1000 Ang^3
#
#
#
# Elastic Constant Matrix: (Units=GPa)
#
#
# Indices 1 2 3 4 5 6 
#
# 1 41.3663 20.0454 -0.6326 0.0000 0.0000 0.0000
# 2 20.0454 107.1725 -5.8477 0.0000 0.0000 0.0000
# 3 -0.6326 -5.8477 60.1651 0.0000 0.0000 0.0000
# 4 0.0000 0.0000 0.0000 25.2196 0.0000 0.0000
# 5 0.0000 0.0000 0.0000 0.0000 19.9216 0.0000
# 6 0.0000 0.0000 0.0000 0.0000 0.0000 13.2289
#
#
#
# Elastic Compliance Matrix: (Units=1/GPa)
#
#
# Indices 1 2 3 4 5 6 
#
# 1 0.026586 -0.004984 -0.000205 0.000000 0.000000 0.000000
# 2 -0.004984 0.010315 0.000950 0.000000 0.000000 0.000000
# 3 -0.000205 0.000950 0.016711 0.000000 0.000000 0.000000
# 4 0.000000 0.000000 0.000000 0.039652 0.000000 0.000000
# 5 0.000000 0.000000 0.000000 0.000000 0.050197 0.000000
# 6 0.000000 0.000000 0.000000 0.000000 0.000000 0.075592
#
#
# Mechanical properties :
#
#
# Convention : Reuss Voigt Hill
#
# Bulk Modulus (GPa) = 22.15577 26.20381 24.17979
# Shear Modulus (GPa) = 20.61218 24.68326 22.64772
#
# Velocity S-wave (km/s) = 3.30702 3.61890 3.46647
# Velocity P-wave (km/s) = 5.13198 5.60046 5.37133
#
# Compressibility (1/GPa) = 0.04513496
#
# Stress axis : x y z
#
# Youngs Moduli (GPa) = 37.61343 96.94841 59.84040
#
# Poissons Ratio (x) = 0.48318 0.01226
# Poissons Ratio (y) = 0.18746 -0.05686
# Poissons Ratio (z) = 0.00771 -0.09211
#
# Static dielectric constant tensor:
#      x y z
#    x 1.644830 0.000000 0.000000 
#    y 0.000000 1.728410 0.000000 
#    z 0.000000 0.000000 1.735080 
# 
# From -- ./inp_files/10301.got.cif
#   From: 2010.05.17/outbox.cif.g08.bks.cpg/sg20_6_cif.got.tgz:10301.got - 2010.06.03 22:52:26.
