data_PCOD9318240
_publ_section_title
;
Structure prediction by ZEFSAII (Michael W. Deem and Ramdas Pophale) SiO2 
 PCOD9318240
Probable space group: C 2 2 21
;
_chemical_formula_sum "Si O2"
_cell_formula_units_Z 40
_cell_length_a 7.413841
_cell_length_b 16.826123
_cell_length_c 11.945277
_cell_angle_alpha 90.000000
_cell_angle_beta 90.000000
_cell_angle_gamma 90.000000
_cell_volume 1490.127920
_symmetry_space_group_name_H-M "C 2 2 21"
_symmetry_group_IT_number 20
_symmetry_cell_setting 'orthorhombic'
loop_
_space_group_symop_operation_xyz
x,y,z
-x,-y,1/2+z
x,-y,-z
-x,y,1/2-z
1/2+x,1/2+y,z
1/2-x,1/2-y,1/2+z
1/2+x,1/2-y,-z
1/2-x,1/2+y,1/2-z
loop_
_atom_site_type_symbol
_atom_site_label
_atom_site_fract_x
_atom_site_fract_y
_atom_site_fract_z
Si Si1 0.845191 0.069027 0.075930
Si Si2 0.285157 0.054668 0.759067
Si Si3 0.800600 0.500000 0.000000
Si Si4 0.717293 0.719236 0.829802
Si Si5 0.000000 0.169187 0.250000
Si Si6 0.494696 0.163682 0.479788
O O1 0.816164 0.217263 0.248345
O O2 0.994416 0.120471 0.135865
O O3 0.708385 0.125735 0.007672
O O4 0.917735 0.000000 0.000000
O O5 0.500000 0.068278 0.750000
O O6 0.226204 0.030529 0.883090
O O7 0.194192 0.141206 0.753989
O O8 0.245102 0.982394 0.675839
O O9 0.909687 0.421249 0.955377
O O10 0.554088 0.764986 0.892607
O O11 0.877145 0.698102 0.921696
#
# Coordination Sequence:
#
# PCOD9318240 Si02
#       6
#     8   8   4   8   4   8
#     4  11  22  43  68  91 128 175 219 267 326 395
#     4  11  20  38  68  92 126 171 224 261 316 391
#     4  10  20  38  66  98 126 176 216 266 318 388
#     4  10  22  40  65  94 131 171 214 274 333 383
#     4  10  24  40  62  92 134 168 204 274 332 386
#     4  10  20  40  63  94 129 176 211 270 324 390
#
# _framework density 26.843330999999999
#
# number of rings (size 3 to 8) (size 9 to 14) (size 15 to 20)
#    0.000    1.600    4.000    1.200    0.000    3.200 
#    9.000    0.000    0.000    0.000    0.000    0.000 
#    0.000    0.000    0.000    0.000    0.000    0.000 
#
# Total GULP energy -111657.893466 kJ/mol
# GULP energy per Si atom -5582.894673 kJ/mol
# Density = 2.678223 g / cm^3
# Si number density = 26.843331 Si / 1000 Ang^3
#
#
#
# Elastic Constant Matrix: (Units=GPa)
#
#
# Indices 1 2 3 4 5 6 
#
# 1 109.5341 39.1702 36.6332 0.0000 0.0000 0.0000
# 2 39.1702 153.9565 35.2218 0.0000 0.0000 0.0000
# 3 36.6332 35.2218 82.9624 0.0000 0.0000 0.0000
# 4 0.0000 0.0000 0.0000 43.3059 0.0000 0.0000
# 5 0.0000 0.0000 0.0000 0.0000 40.0216 0.0000
# 6 0.0000 0.0000 0.0000 0.0000 0.0000 -12.3580
#
#
#
# Elastic Compliance Matrix: (Units=1/GPa)
#
#
# Indices 1 2 3 4 5 6 
#
# 1 0.011193 -0.001902 -0.004135 0.000000 0.000000 0.000000
# 2 -0.001902 0.007517 -0.002352 0.000000 0.000000 0.000000
# 3 -0.004135 -0.002352 0.014878 0.000000 0.000000 0.000000
# 4 0.000000 0.000000 0.000000 0.023092 0.000000 0.000000
# 5 0.000000 0.000000 0.000000 0.000000 0.024987 0.000000
# 6 0.000000 0.000000 0.000000 0.000000 0.000000 -0.080919
#
#
# Mechanical properties :
#
#
# Convention : Reuss Voigt Hill
#
# Bulk Modulus (GPa) = 59.48456 63.16706 61.32581
# Shear Modulus (GPa) = 216.20115 29.88908 123.04511
#
# Velocity S-wave (km/s) = 8.98425 3.34048 6.77774
# Velocity P-wave (km/s) = 11.39431 6.20171 9.17310
#
# Compressibility (1/GPa) = 0.01681108
#
# Stress axis : x y z
#
# Youngs Moduli (GPa) = 89.34548 133.02831 67.21386
#
# Poissons Ratio (x) = 0.25298 0.27792
# Poissons Ratio (y) = 0.16991 0.15807
# Poissons Ratio (z) = 0.36943 0.31285
#
# Static dielectric constant tensor:
#      x y z
#    x 2.209020 0.000000 0.000000 
#    y 0.000000 2.137940 0.000000 
#    z 0.000000 0.000000 2.133560 
# 
# From -- ./inp_files/18710.got.cif
#   From: 2010.05.17/outbox.cif.g08.bks.cpg/sg20_10_cif.got.tgz:18710.got - 2010.06.03 22:52:26.
