data_PCOD9318452
_publ_section_title
;
Structure prediction by ZEFSAII (Michael W. Deem and Ramdas Pophale) SiO2 
 PCOD9318452
Probable space group: C 2 2 21
;
_chemical_formula_sum "Si O2"
_cell_formula_units_Z 32
_cell_length_a 21.052202
_cell_length_b 4.815317
_cell_length_c 13.371937
_cell_angle_alpha 90.000000
_cell_angle_beta 90.000000
_cell_angle_gamma 90.000000
_cell_volume 1355.553720
_symmetry_space_group_name_H-M "C 2 2 21"
_symmetry_group_IT_number 20
_symmetry_cell_setting 'orthorhombic'
loop_
_space_group_symop_operation_xyz
x,y,z
-x,-y,1/2+z
x,-y,-z
-x,y,1/2-z
1/2+x,1/2+y,z
1/2-x,1/2-y,1/2+z
1/2+x,1/2-y,-z
1/2-x,1/2+y,1/2-z
loop_
_atom_site_type_symbol
_atom_site_label
_atom_site_fract_x
_atom_site_fract_y
_atom_site_fract_z
Si Si1 0.570263 0.573655 0.781760
Si Si2 0.253856 0.487186 0.619370
Si Si3 0.330745 0.504477 0.119808
Si Si4 0.875549 0.387626 0.387005
O O1 0.500000 0.657971 0.750000
O O2 0.607189 0.446145 0.685591
O O3 0.568556 0.334490 0.866918
O O4 0.608506 0.838168 0.824264
O O5 0.259980 0.500000 0.500000
O O6 0.229562 0.204683 0.355379
O O7 0.316119 0.308510 0.645866
O O8 0.194078 0.299517 0.646108
O O9 0.341846 0.500000 0.000000
O O10 0.866875 0.500000 0.500000
#
# Coordination Sequence:
#
# PCOD9318452 Si02
#       4
#     8   8   8   8
#     4  12  27  46  68 103 139 184 244 275 323 417
#     4  10  20  40  68 101 134 169 221 277 348 418
#     4  10  22  41  67  98 137 177 217 283 345 397
#     4  12  25  45  71 100 139 180 224 289 349 402
#
# _framework density 23.606591999999999
#
# number of rings (size 3 to 8) (size 9 to 14) (size 15 to 20)
#    0.000    1.000    0.000    8.250    0.000    6.000 
#    0.000    7.500    0.000    0.000    0.000    0.000 
#    0.000    0.000    0.000    0.000    0.000    0.000 
#
# Total GULP energy -89330.570462 kJ/mol
# GULP energy per Si atom -5583.160654 kJ/mol
# Density = 2.355286 g / cm^3
# Si number density = 23.606592 Si / 1000 Ang^3
#
#
#
# Elastic Constant Matrix: (Units=GPa)
#
#
# Indices 1 2 3 4 5 6 
#
# 1 101.6186 25.8099 72.0589 0.0000 0.0000 0.0000
# 2 25.8099 149.8782 31.5296 0.0000 0.0000 0.0000
# 3 72.0589 31.5296 137.5868 0.0000 0.0000 0.0000
# 4 0.0000 0.0000 0.0000 35.8090 0.0000 0.0000
# 5 0.0000 0.0000 0.0000 0.0000 15.1923 0.0000
# 6 0.0000 0.0000 0.0000 0.0000 0.0000 25.6323
#
#
#
# Elastic Compliance Matrix: (Units=1/GPa)
#
#
# Indices 1 2 3 4 5 6 
#
# 1 0.015805 -0.001030 -0.008041 0.000000 0.000000 0.000000
# 2 -0.001030 0.007077 -0.001082 0.000000 0.000000 0.000000
# 3 -0.008041 -0.001082 0.011728 0.000000 0.000000 0.000000
# 4 0.000000 0.000000 0.000000 0.027926 0.000000 0.000000
# 5 0.000000 0.000000 0.000000 0.000000 0.065823 0.000000
# 6 0.000000 0.000000 0.000000 0.000000 0.000000 0.039013
#
#
# Mechanical properties :
#
#
# Convention : Reuss Voigt Hill
#
# Bulk Modulus (GPa) = 69.92038 71.98672 70.95355
# Shear Modulus (GPa) = 25.98128 32.63906 29.31017
#
# Velocity S-wave (km/s) = 3.32112 3.72240 3.52747
# Velocity P-wave (km/s) = 6.66256 7.00254 6.83467
#
# Compressibility (1/GPa) = 0.01430198
#
# Stress axis : x y z
#
# Youngs Moduli (GPa) = 63.27296 141.29984 85.26814
#
# Poissons Ratio (x) = 0.14554 0.68567
# Poissons Ratio (y) = 0.06517 0.09229
# Poissons Ratio (z) = 0.50880 0.15294
#
# Static dielectric constant tensor:
#      x y z
#    x 1.914980 0.000000 0.000000 
#    y 0.000000 1.891200 0.000000 
#    z 0.000000 0.000000 1.969710 
# 
# From -- ./inp_files/21046.got.cif
#   From: 2010.05.17/outbox.cif.g08.bks.cpg/sg20_11_cif.got.tgz:21046.got - 2010.06.03 22:52:26.
