data_PCOD9318514
_publ_section_title
;
Structure prediction by ZEFSAII (Michael W. Deem and Ramdas Pophale) SiO2 
 PCOD9318514
Probable space group: C 2 2 21
;
_chemical_formula_sum "Si O2"
_cell_formula_units_Z 56
_cell_length_a 13.928019
_cell_length_b 6.314035
_cell_length_c 27.180459
_cell_angle_alpha 90.000000
_cell_angle_beta 90.000000
_cell_angle_gamma 90.000000
_cell_volume 2390.303910
_symmetry_space_group_name_H-M "C 2 2 21"
_symmetry_group_IT_number 20
_symmetry_cell_setting 'orthorhombic'
loop_
_space_group_symop_operation_xyz
x,y,z
-x,-y,1/2+z
x,-y,-z
-x,y,1/2-z
1/2+x,1/2+y,z
1/2-x,1/2-y,1/2+z
1/2+x,1/2-y,-z
1/2-x,1/2+y,1/2-z
loop_
_atom_site_type_symbol
_atom_site_label
_atom_site_fract_x
_atom_site_fract_y
_atom_site_fract_z
Si Si1 0.006381 0.494696 0.913366
Si Si2 0.398367 0.638558 0.362675
Si Si3 0.829793 0.790682 0.914337
Si Si4 0.246777 0.111726 0.812805
Si Si5 0.886325 0.357606 0.755729
Si Si6 0.581686 0.378528 0.351139
Si Si7 0.636972 0.335396 0.043818
O O1 0.924184 0.659026 0.930457
O O2 0.961601 0.337545 0.872885
O O3 0.087165 0.632603 0.885676
O O4 0.056989 0.346995 0.953587
O O5 0.313001 0.601345 0.325024
O O6 0.499369 0.554016 0.341570
O O7 0.378235 0.476309 0.407333
O O8 0.794325 0.689675 0.862913
O O9 0.742866 0.766424 0.952264
O O10 0.856500 0.025591 0.896148
O O11 0.330584 0.063102 0.774671
O O12 0.167476 0.272224 0.792236
O O13 0.873426 0.181769 0.799059
O O14 0.000000 0.388617 0.750000
O O15 0.627546 0.500000 0.000000
#
# Coordination Sequence:
#
# PCOD9318514 Si02
#       7
#     8   8   8   8   8   8   8
#     4  10  21  41  67  93 125 178 213 267 337 395
#     4   9  21  41  67  89 126 174 220 265 330 407
#     4  10  22  41  65  92 127 174 221 266 332 411
#     4  11  23  40  60  93 128 175 227 273 336 386
#     4  12  24  39  60  94 134 166 226 282 316 381
#     4  10  20  41  63  88 129 170 219 266 323 391
#     4  10  23  42  65 101 130 162 219 276 335 402
#
# _framework density 23.427985
#
# number of rings (size 3 to 8) (size 9 to 14) (size 15 to 20)
#    0.000    1.714    2.857    0.857    2.000    1.714 
#    7.714    0.000    0.000    0.000    0.000    0.000 
#    0.000    0.000    0.000    0.000    0.000    0.000 
#
# Total GULP energy -156599.737785 kJ/mol
# GULP energy per Si atom -5592.847778 kJ/mol
# Density = 2.337466 g / cm^3
# Si number density = 23.427985 Si / 1000 Ang^3
#
#
#
# Elastic Constant Matrix: (Units=GPa)
#
#
# Indices 1 2 3 4 5 6 
#
# 1 107.7750 14.9897 21.3191 0.0000 0.0000 0.0000
# 2 14.9897 58.1529 3.1922 0.0000 0.0000 0.0000
# 3 21.3191 3.1922 37.2726 0.0000 0.0000 0.0000
# 4 0.0000 0.0000 0.0000 31.0849 0.0000 0.0000
# 5 0.0000 0.0000 0.0000 0.0000 20.1067 0.0000
# 6 0.0000 0.0000 0.0000 0.0000 0.0000 8.1462
#
#
#
# Elastic Compliance Matrix: (Units=1/GPa)
#
#
# Indices 1 2 3 4 5 6 
#
# 1 0.010801 -0.002456 -0.005967 0.000000 0.000000 0.000000
# 2 -0.002456 0.017836 -0.000123 0.000000 0.000000 0.000000
# 3 -0.005967 -0.000123 0.030253 0.000000 0.000000 0.000000
# 4 0.000000 0.000000 0.000000 0.032170 0.000000 0.000000
# 5 0.000000 0.000000 0.000000 0.000000 0.049735 0.000000
# 6 0.000000 0.000000 0.000000 0.000000 0.000000 0.122757
#
#
# Mechanical properties :
#
#
# Convention : Reuss Voigt Hill
#
# Bulk Modulus (GPa) = 23.92516 31.35585 27.64050
# Shear Modulus (GPa) = 16.97352 22.78085 19.87718
#
# Velocity S-wave (km/s) = 2.69457 3.12168 2.91596
# Velocity P-wave (km/s) = 4.46266 5.13869 4.81256
#
# Compressibility (1/GPa) = 0.04179700
#
# Stress axis : x y z
#
# Youngs Moduli (GPa) = 92.58699 56.06649 33.05455
#
# Poissons Ratio (x) = 0.13772 0.19725
# Poissons Ratio (y) = 0.22744 0.00405
# Poissons Ratio (z) = 0.55250 0.00687
#
# Static dielectric constant tensor:
#      x y z
#    x 1.931510 0.000000 0.000000 
#    y 0.000000 1.892670 0.000000 
#    z 0.000000 0.000000 1.870450 
# 
# From -- ./inp_files/31280.got.cif
#   From: 2010.05.17/outbox.cif.g08.bks.cpg/sg20_16_cif.got.tgz:31280.got - 2010.06.03 22:52:26.
