data_PCOD9318861
_publ_section_title
;
Structure prediction by ZEFSAII (Michael W. Deem and Ramdas Pophale) SiO2 
 PCOD9318861
Probable space group: C 2 2 21
;
_chemical_formula_sum "Si O2"
_cell_formula_units_Z 44
_cell_length_a 14.009837
_cell_length_b 20.966235
_cell_length_c 7.193762
_cell_angle_alpha 90.000000
_cell_angle_beta 90.000000
_cell_angle_gamma 90.000000
_cell_volume 2113.049141
_symmetry_space_group_name_H-M "C 2 2 21"
_symmetry_group_IT_number 20
_symmetry_cell_setting 'orthorhombic'
loop_
_space_group_symop_operation_xyz
x,y,z
-x,-y,1/2+z
x,-y,-z
-x,y,1/2-z
1/2+x,1/2+y,z
1/2-x,1/2-y,1/2+z
1/2+x,1/2-y,-z
1/2-x,1/2+y,1/2-z
loop_
_atom_site_type_symbol
_atom_site_label
_atom_site_fract_x
_atom_site_fract_y
_atom_site_fract_z
Si Si1 0.368893 0.260959 0.545701
Si Si2 0.097550 0.048448 0.336060
Si Si3 0.215934 0.366732 0.447614
Si Si4 0.772190 0.152820 0.960403
Si Si5 0.286268 0.500000 0.500000
Si Si6 0.586664 0.755506 0.487784
O O1 0.307569 0.324249 0.508145
O O2 0.309042 0.201020 0.463600
O O3 0.382734 0.255832 0.770446
O O4 0.476676 0.256733 0.477739
O O5 0.173052 0.100709 0.414777
O O6 0.000000 0.078118 0.250000
O O7 0.070590 0.000000 0.500000
O O8 0.146223 0.004461 0.179564
O O9 0.224538 0.374573 0.224972
O O10 0.223408 0.437368 0.520537
O O11 0.124798 0.326893 0.514644
O O12 0.852993 0.203776 0.900118
#
# Coordination Sequence:
#
# PCOD9318861 Si02
#       6
#     8   8   8   8   4   8
#     4   9  19  37  62  88 120 159 204 259 304 357
#     4  12  25  41  60  88 123 166 203 241 307 375
#     4  10  21  37  58  89 123 164 201 253 313 357
#     4  10  21  37  59  90 123 156 207 256 302 361
#     4  12  24  40  62  84 130 162 198 250 302 376
#     4   9  19  36  61  86 119 161 207 253 303 363
#
# _framework density 20.822990000000001
#
# number of rings (size 3 to 8) (size 9 to 14) (size 15 to 20)
#    0.000    1.818    2.727    1.091    5.091    2.182 
#    0.000    0.000    2.000    0.000    0.000    0.000 
#    0.000    0.000    0.000    0.000    0.000    0.000 
#
# Total GULP energy -122790.146338 kJ/mol
# GULP energy per Si atom -5581.370288 kJ/mol
# Density = 2.077560 g / cm^3
# Si number density = 20.822990 Si / 1000 Ang^3
#
#
#
# Elastic Constant Matrix: (Units=GPa)
#
#
# Indices 1 2 3 4 5 6 
#
# 1 65.5388 12.8241 -12.5822 0.0000 0.0000 0.0000
# 2 12.8241 98.3844 8.7996 0.0000 0.0000 0.0000
# 3 -12.5822 8.7996 51.9736 0.0000 0.0000 0.0000
# 4 0.0000 0.0000 0.0000 30.8659 0.0000 0.0000
# 5 0.0000 0.0000 0.0000 0.0000 21.0899 0.0000
# 6 0.0000 0.0000 0.0000 0.0000 0.0000 11.2322
#
#
#
# Elastic Compliance Matrix: (Units=1/GPa)
#
#
# Indices 1 2 3 4 5 6 
#
# 1 0.016615 -0.002564 0.004457 0.000000 0.000000 0.000000
# 2 -0.002564 0.010716 -0.002435 0.000000 0.000000 0.000000
# 3 0.004457 -0.002435 0.020732 0.000000 0.000000 0.000000
# 4 0.000000 0.000000 0.000000 0.032398 0.000000 0.000000
# 5 0.000000 0.000000 0.000000 0.000000 0.047416 0.000000
# 6 0.000000 0.000000 0.000000 0.000000 0.000000 0.089030
#
#
# Mechanical properties :
#
#
# Convention : Reuss Voigt Hill
#
# Bulk Modulus (GPa) = 21.28676 25.99776 23.64226
# Shear Modulus (GPa) = 21.39928 26.42795 23.91362
#
# Velocity S-wave (km/s) = 3.20922 3.56641 3.39252
# Velocity P-wave (km/s) = 4.89663 5.42874 5.16954
#
# Compressibility (1/GPa) = 0.04697756
#
# Stress axis : x y z
#
# Youngs Moduli (GPa) = 60.18480 93.31602 48.23526
#
# Poissons Ratio (x) = 0.23930 -0.21496
# Poissons Ratio (y) = 0.15434 0.11746
# Poissons Ratio (z) = -0.26822 0.22724
#
# Static dielectric constant tensor:
#      x y z
#    x 1.748590 0.000000 0.000000 
#    y 0.000000 1.741750 0.000000 
#    z 0.000000 0.000000 1.847550 
# 
# From -- ./inp_files/8293.got.cif
#   From: 2010.05.17/outbox.cif.g08.bks.cpg/sg20_5_cif.got.tgz:8293.got - 2010.06.03 22:52:26.
