data_PCOD9318285
_publ_section_title
;
Structure prediction by ZEFSAII (Michael W. Deem and Ramdas Pophale) SiO2 
 PCOD9318285
Probable space group: C 2 2 21
;
_chemical_formula_sum "Si O2"
_cell_formula_units_Z 48
_cell_length_a 12.756699
_cell_length_b 28.875557
_cell_length_c 5.980303
_cell_angle_alpha 90.000000
_cell_angle_beta 90.000000
_cell_angle_gamma 90.000000
_cell_volume 2202.885211
_symmetry_space_group_name_H-M "C 2 2 21"
_symmetry_group_IT_number 20
_symmetry_cell_setting 'orthorhombic'
loop_
_space_group_symop_operation_xyz
x,y,z
-x,-y,1/2+z
x,-y,-z
-x,y,1/2-z
1/2+x,1/2+y,z
1/2-x,1/2-y,1/2+z
1/2+x,1/2-y,-z
1/2-x,1/2+y,1/2-z
loop_
_atom_site_type_symbol
_atom_site_label
_atom_site_fract_x
_atom_site_fract_y
_atom_site_fract_z
Si Si1 0.724106 0.044806 0.865729
Si Si2 0.612633 0.317886 0.375044
Si Si3 0.167440 0.109723 0.280481
Si Si4 0.076338 0.046341 0.921321
Si Si5 0.947374 0.278125 0.004930
Si Si6 0.308910 0.135494 0.889257
O O1 0.813860 0.030609 0.688096
O O2 0.662666 0.086931 0.737719
O O3 0.790763 0.072642 0.045815
O O4 0.678027 0.000000 0.000000
O O5 0.500000 0.319446 0.250000
O O6 0.612792 0.348149 0.598228
O O7 0.630009 0.264457 0.444029
O O8 0.708732 0.340296 0.234742
O O9 0.096321 0.082233 0.111389
O O10 0.267210 0.124918 0.136017
O O11 0.000000 0.070611 0.750000
O O12 0.019509 0.000000 0.000000
O O13 0.000000 0.285044 0.750000
O O14 0.897544 0.326571 0.079646
O O15 0.000000 0.263180 0.250000
#
# Coordination Sequence:
#
# PCOD9318285 Si02
#       6
#     8   8   8   8   8   8
#     4  10  20  39  61  90 127 168 227 282 354 418
#     4  10  25  42  64  99 139 187 233 288 349 421
#     4  10  23  39  60  85 133 170 237 275 346 404
#     4  11  22  34  49  82 123 184 226 276 331 404
#     4  11  28  49  74 104 143 185 240 300 361 422
#     4  10  25  41  71 103 130 189 228 290 356 425
#
# _framework density 21.789604000000001
#
# number of rings (size 3 to 8) (size 9 to 14) (size 15 to 20)
#    0.000    1.667    1.667    0.500   11.667    7.333 
#    0.000    0.000    0.000    0.000    4.333    0.000 
#    0.000    0.000    0.000    0.000    0.000    0.000 
#
# Total GULP energy -133699.862182 kJ/mol
# GULP energy per Si atom -5570.827591 kJ/mol
# Density = 2.174001 g / cm^3
# Si number density = 21.789604 Si / 1000 Ang^3
#
#
#
# Elastic Constant Matrix: (Units=GPa)
#
#
# Indices 1 2 3 4 5 6 
#
# 1 10.7660 20.6290 15.6083 0.0000 0.0000 0.0000
# 2 20.6290 152.1929 41.9683 0.0000 0.0000 0.0000
# 3 15.6083 41.9683 121.4628 0.0000 0.0000 0.0000
# 4 0.0000 0.0000 0.0000 45.3857 0.0000 0.0000
# 5 0.0000 0.0000 0.0000 0.0000 17.4756 0.0000
# 6 0.0000 0.0000 0.0000 0.0000 0.0000 31.2245
#
#
#
# Elastic Compliance Matrix: (Units=1/GPa)
#
#
# Indices 1 2 3 4 5 6 
#
# 1 0.141355 -0.015641 -0.012760 0.000000 0.000000 0.000000
# 2 -0.015641 0.008993 -0.001097 0.000000 0.000000 0.000000
# 3 -0.012760 -0.001097 0.010252 0.000000 0.000000 0.000000
# 4 0.000000 0.000000 0.000000 0.022033 0.000000 0.000000
# 5 0.000000 0.000000 0.000000 0.000000 0.057223 0.000000
# 6 0.000000 0.000000 0.000000 0.000000 0.000000 0.032026
#
#
# Mechanical properties :
#
#
# Convention : Reuss Voigt Hill
#
# Bulk Modulus (GPa) = 9.84230 48.98143 29.41186
# Shear Modulus (GPa) = 13.70813 32.56489 23.13651
#
# Velocity S-wave (km/s) = 2.51093 3.87009 3.26208
# Velocity P-wave (km/s) = 3.59627 6.51906 5.26457
#
# Compressibility (1/GPa) = 0.10160230
#
# Stress axis : x y z
#
# Youngs Moduli (GPa) = 7.07440 111.19341 97.54304
#
# Poissons Ratio (x) = 1.73920 1.24466
# Poissons Ratio (y) = 0.11065 0.10705
# Poissons Ratio (z) = 0.09027 0.12203
#
# Static dielectric constant tensor:
#      x y z
#    x 1.933110 0.000000 0.000000 
#    y 0.000000 1.797020 0.000000 
#    z 0.000000 0.000000 1.923550 
# 
# From -- ./inp_files/2048.got.cif
#   From: 2010.05.17/outbox.cif.g08.bks.cpg/sg20_2_cif.got.tgz:2048.got - 2010.06.03 22:52:26.
