data_PCOD9318769
_publ_section_title
;
Structure prediction by ZEFSAII (Michael W. Deem and Ramdas Pophale) SiO2 
 PCOD9318769
Probable space group: C 2 2 21
;
_chemical_formula_sum "Si O2"
_cell_formula_units_Z 32
_cell_length_a 7.698682
_cell_length_b 12.023249
_cell_length_c 14.478927
_cell_angle_alpha 90.000000
_cell_angle_beta 90.000000
_cell_angle_gamma 90.000000
_cell_volume 1340.215391
_symmetry_space_group_name_H-M "C 2 2 21"
_symmetry_group_IT_number 20
_symmetry_cell_setting 'orthorhombic'
loop_
_space_group_symop_operation_xyz
x,y,z
-x,-y,1/2+z
x,-y,-z
-x,y,1/2-z
1/2+x,1/2+y,z
1/2-x,1/2-y,1/2+z
1/2+x,1/2-y,-z
1/2-x,1/2+y,1/2-z
loop_
_atom_site_type_symbol
_atom_site_label
_atom_site_fract_x
_atom_site_fract_y
_atom_site_fract_z
Si Si1 0.287403 0.129996 0.889032
Si Si2 0.997706 0.041122 0.354905
Si Si3 0.825454 0.814696 0.196808
Si Si4 0.418565 0.743219 0.457942
O O1 0.303145 0.165792 0.782702
O O2 0.468250 0.146742 0.941598
O O3 0.188044 0.012357 0.884423
O O4 0.155048 0.211840 0.943310
O O5 0.036739 0.138626 0.425440
O O6 0.000000 0.085513 0.250000
O O7 0.877072 0.934534 0.153384
O O8 0.738246 0.745411 0.116187
O O9 0.000000 0.773802 0.250000
#
# Coordination Sequence:
#
# PCOD9318769 Si02
#       4
#     8   8   8   8
#     4  10  21  35  58  88 114 151 201 243 287 358
#     4   9  20  39  59  83 116 152 192 242 298 353
#     4   9  20  39  58  86 118 149 199 246 289 356
#     4  12  21  39  62  83 121 162 194 245 309 349
#
# _framework density 23.876757999999999
#
# number of rings (size 3 to 8) (size 9 to 14) (size 15 to 20)
#    0.000    2.500    0.000    6.000    0.000    0.000 
#    0.000   17.500    0.000    0.000    0.000    0.000 
#    0.000    0.000    0.000    0.000    0.000    0.000 
#
# Total GULP energy -89296.608652 kJ/mol
# GULP energy per Si atom -5581.038041 kJ/mol
# Density = 2.382241 g / cm^3
# Si number density = 23.876758 Si / 1000 Ang^3
#
#
#
# Elastic Constant Matrix: (Units=GPa)
#
#
# Indices 1 2 3 4 5 6 
#
# 1 72.3410 22.7670 14.2255 0.0000 0.0000 0.0000
# 2 22.7670 79.5989 31.9425 0.0000 0.0000 0.0000
# 3 14.2255 31.9425 112.1334 0.0000 0.0000 0.0000
# 4 0.0000 0.0000 0.0000 33.4654 0.0000 0.0000
# 5 0.0000 0.0000 0.0000 0.0000 44.5231 0.0000
# 6 0.0000 0.0000 0.0000 0.0000 0.0000 29.5954
#
#
#
# Elastic Compliance Matrix: (Units=1/GPa)
#
#
# Indices 1 2 3 4 5 6 
#
# 1 0.015251 -0.004049 -0.000782 0.000000 0.000000 0.000000
# 2 -0.004049 0.015259 -0.003833 0.000000 0.000000 0.000000
# 3 -0.000782 -0.003833 0.010109 0.000000 0.000000 0.000000
# 4 0.000000 0.000000 0.000000 0.029882 0.000000 0.000000
# 5 0.000000 0.000000 0.000000 0.000000 0.022460 0.000000
# 6 0.000000 0.000000 0.000000 0.000000 0.000000 0.033789
#
#
# Mechanical properties :
#
#
# Convention : Reuss Voigt Hill
#
# Bulk Modulus (GPa) = 42.93140 44.66037 43.79588
# Shear Modulus (GPa) = 32.92916 34.52600 33.72758
#
# Velocity S-wave (km/s) = 3.71769 3.80677 3.76249
# Velocity P-wave (km/s) = 6.03720 6.16986 6.10389
#
# Compressibility (1/GPa) = 0.02329297
#
# Stress axis : x y z
#
# Youngs Moduli (GPa) = 65.56833 65.53433 98.92167
#
# Poissons Ratio (x) = 0.26532 0.07731
# Poissons Ratio (y) = 0.26546 0.37918
# Poissons Ratio (z) = 0.05124 0.25120
#
# Static dielectric constant tensor:
#      x y z
#    x 2.004350 0.000000 0.000000 
#    y 0.000000 1.835380 0.000000 
#    z 0.000000 0.000000 1.876160 
# 
# From -- ./inp_files/12575.got.cif
#   From: 2010.05.17/outbox.cif.g08.bks.cpg/sg20_7_cif.got.tgz:12575.got - 2010.06.03 22:52:26.
