data_PCOD9318110
_publ_section_title
;
Structure prediction by ZEFSAII (Michael W. Deem and Ramdas Pophale) SiO2 
 PCOD9318110
Probable space group: C 2 2 21
;
_chemical_formula_sum "Si O2"
_cell_formula_units_Z 52
_cell_length_a 10.783659
_cell_length_b 26.414375
_cell_length_c 7.940431
_cell_angle_alpha 90.000000
_cell_angle_beta 90.000000
_cell_angle_gamma 90.000000
_cell_volume 2261.781052
_symmetry_space_group_name_H-M "C 2 2 21"
_symmetry_group_IT_number 20
_symmetry_cell_setting 'orthorhombic'
loop_
_space_group_symop_operation_xyz
x,y,z
-x,-y,1/2+z
x,-y,-z
-x,y,1/2-z
1/2+x,1/2+y,z
1/2-x,1/2-y,1/2+z
1/2+x,1/2-y,-z
1/2-x,1/2+y,1/2-z
loop_
_atom_site_type_symbol
_atom_site_label
_atom_site_fract_x
_atom_site_fract_y
_atom_site_fract_z
Si Si1 0.500000 0.618459 0.250000
Si Si2 0.841352 0.370153 0.448349
Si Si3 0.803196 0.613876 0.918086
Si Si4 0.449998 0.207459 0.941274
Si Si5 0.366836 0.468685 0.329496
Si Si6 0.264567 0.938889 0.742793
Si Si7 0.931120 0.180366 0.926464
O O1 0.375151 0.585110 0.246338
O O2 0.502399 0.652728 0.416590
O O3 0.872169 0.390250 0.261608
O O4 0.828175 0.414717 0.581731
O O5 0.709454 0.341169 0.429706
O O6 0.943637 0.330089 0.510092
O O7 0.825121 0.673157 0.953220
O O8 0.674462 0.587872 0.866755
O O9 0.832039 0.581080 0.086262
O O10 0.500000 0.217285 0.750000
O O11 0.431825 0.259887 0.033971
O O12 0.377016 0.500000 0.500000
O O13 0.500000 0.468652 0.250000
O O14 0.261598 0.501214 0.233834
O O15 0.000000 0.172624 0.750000
#
# Coordination Sequence:
#
# PCOD9318110 Si02
#       7
#     4   8   8   8   8   8   8
#     4  10  20  38  58  96 136 154 204 272 326 390
#     4  10  24  40  65  91 125 172 216 263 329 385
#     4  10  23  41  61  87 132 166 209 263 316 386
#     4  10  23  45  62  87 130 174 216 270 319 379
#     4  10  22  38  66  98 129 163 209 267 332 388
#     4  10  21  38  64  94 125 165 205 264 328 388
#     4  11  23  38  63  96 128 170 217 265 325 387
#
# _framework density 22.990729000000002
#
# number of rings (size 3 to 8) (size 9 to 14) (size 15 to 20)
#    0.000    1.846    1.538    0.923    4.308    5.538 
#    0.000    0.000   30.462    0.000    0.000    0.000 
#    0.000    0.000    0.000    0.000    0.000    0.000 
#
# Total GULP energy -145171.714543 kJ/mol
# GULP energy per Si atom -5583.527482 kJ/mol
# Density = 2.293840 g / cm^3
# Si number density = 22.990729 Si / 1000 Ang^3
#
#
#
# Elastic Constant Matrix: (Units=GPa)
#
#
# Indices 1 2 3 4 5 6 
#
# 1 69.4074 50.5679 33.0178 0.0000 0.0000 0.0000
# 2 50.5679 126.9773 54.3769 0.0000 0.0000 0.0000
# 3 33.0178 54.3769 118.0070 0.0000 0.0000 0.0000
# 4 0.0000 0.0000 0.0000 34.9749 0.0000 0.0000
# 5 0.0000 0.0000 0.0000 0.0000 4.1328 0.0000
# 6 0.0000 0.0000 0.0000 0.0000 0.0000 8.5500
#
#
#
# Elastic Compliance Matrix: (Units=1/GPa)
#
#
# Indices 1 2 3 4 5 6 
#
# 1 0.020874 -0.007241 -0.002504 0.000000 0.000000 0.000000
# 2 -0.007241 0.012323 -0.003653 0.000000 0.000000 0.000000
# 3 -0.002504 -0.003653 0.010858 0.000000 0.000000 0.000000
# 4 0.000000 0.000000 0.000000 0.028592 0.000000 0.000000
# 5 0.000000 0.000000 0.000000 0.000000 0.241967 0.000000
# 6 0.000000 0.000000 0.000000 0.000000 0.000000 0.116959
#
#
# Mechanical properties :
#
#
# Convention : Reuss Voigt Hill
#
# Bulk Modulus (GPa) = 57.93538 65.59077 61.76307
# Shear Modulus (GPa) = 10.77305 21.29349 16.03327
#
# Velocity S-wave (km/s) = 2.16703 3.04662 2.64366
# Velocity P-wave (km/s) = 5.61387 6.40055 6.02007
#
# Compressibility (1/GPa) = 0.01726061
#
# Stress axis : x y z
#
# Youngs Moduli (GPa) = 47.90602 81.14817 92.10014
#
# Poissons Ratio (x) = 0.58757 0.23062
# Poissons Ratio (y) = 0.34687 0.33640
# Poissons Ratio (z) = 0.11996 0.29640
#
# Static dielectric constant tensor:
#      x y z
#    x 1.874170 0.000000 0.000000 
#    y 0.000000 1.846650 0.000000 
#    z 0.000000 0.000000 1.914960 
# 
# From -- ./inp_files/7522.got.cif
#   From: 2010.05.17/outbox.cif.g08.bks.cpg/sg20_4_cif.got.tgz:7522.got - 2010.06.03 22:52:26.
