data_PCOD9318630
_publ_section_title
;
Structure prediction by ZEFSAII (Michael W. Deem and Ramdas Pophale) SiO2 
 PCOD9318630
Probable space group: C 2 2 21
;
_chemical_formula_sum "Si O2"
_cell_formula_units_Z 48
_cell_length_a 17.156770
_cell_length_b 7.602755
_cell_length_c 15.701769
_cell_angle_alpha 90.000000
_cell_angle_beta 90.000000
_cell_angle_gamma 90.000000
_cell_volume 2048.118633
_symmetry_space_group_name_H-M "C 2 2 21"
_symmetry_group_IT_number 20
_symmetry_cell_setting 'orthorhombic'
loop_
_space_group_symop_operation_xyz
x,y,z
-x,-y,1/2+z
x,-y,-z
-x,y,1/2-z
1/2+x,1/2+y,z
1/2-x,1/2-y,1/2+z
1/2+x,1/2-y,-z
1/2-x,1/2+y,1/2-z
loop_
_atom_site_type_symbol
_atom_site_label
_atom_site_fract_x
_atom_site_fract_y
_atom_site_fract_z
Si Si1 0.226128 0.005689 0.354581
Si Si2 0.343661 0.000000 0.500000
Si Si3 0.027442 0.755388 0.000233
Si Si4 0.892950 0.694425 0.894952
Si Si5 0.000000 0.808189 0.750000
Si Si6 0.590346 0.472914 0.128774
Si Si7 0.736910 0.084071 0.343414
O O1 0.252625 0.055924 0.258752
O O2 0.222171 0.791989 0.359537
O O3 0.289422 0.064650 0.424289
O O4 0.151145 0.118924 0.382276
O O5 0.404114 0.136457 0.538537
O O6 0.940397 0.691434 0.983718
O O7 0.036433 0.915518 0.934828
O O8 0.058417 0.785441 0.096628
O O9 0.830889 0.540731 0.879112
O O10 0.958286 0.689140 0.820568
O O11 0.066051 0.944246 0.782602
O O12 0.681250 0.513361 0.116545
#
# Coordination Sequence:
#
# PCOD9318630 Si02
#       7
#     8   4   8   8   4   8   8
#     4  12  25  45  79 112 145 194 254 314 377 451
#     4  12  26  48  70 102 150 194 248 308 382 444
#     4  10  24  45  70 101 145 197 232 307 373 441
#     4  11  25  46  72 106 153 184 253 307 371 448
#     4  10  20  42  72 100 140 196 232 312 362 442
#     4  10  20  44  73  96 142 190 243 294 379 435
#     4  12  23  47  76 114 143 196 253 316 373 456
#
# _framework density 23.436142
#
# number of rings (size 3 to 8) (size 9 to 14) (size 15 to 20)
#    0.000    1.000    5.000    1.000    2.333    2.667 
#   12.000    0.833    0.000    0.000    0.000    0.000 
#    0.000    0.000    0.000    0.000    0.000    0.000 
#
# Total GULP energy -133773.944313 kJ/mol
# GULP energy per Si atom -5573.914346 kJ/mol
# Density = 2.338280 g / cm^3
# Si number density = 23.436142 Si / 1000 Ang^3
#
#
#
# Elastic Constant Matrix: (Units=GPa)
#
#
# Indices 1 2 3 4 5 6 
#
# 1 144.1081 58.8700 36.2321 0.0000 0.0000 0.0000
# 2 58.8700 100.5331 19.9948 0.0000 0.0000 0.0000
# 3 36.2321 19.9948 50.5486 0.0000 0.0000 0.0000
# 4 0.0000 0.0000 0.0000 23.4242 0.0000 0.0000
# 5 0.0000 0.0000 0.0000 0.0000 39.0894 0.0000
# 6 0.0000 0.0000 0.0000 0.0000 0.0000 51.7161
#
#
#
# Elastic Compliance Matrix: (Units=1/GPa)
#
#
# Indices 1 2 3 4 5 6 
#
# 1 0.010339 -0.004971 -0.005444 0.000000 0.000000 0.000000
# 2 -0.004971 0.013187 -0.001653 0.000000 0.000000 0.000000
# 3 -0.005444 -0.001653 0.024339 0.000000 0.000000 0.000000
# 4 0.000000 0.000000 0.000000 0.042691 0.000000 0.000000
# 5 0.000000 0.000000 0.000000 0.000000 0.025582 0.000000
# 6 0.000000 0.000000 0.000000 0.000000 0.000000 0.019336
#
#
# Mechanical properties :
#
#
# Convention : Reuss Voigt Hill
#
# Bulk Modulus (GPa) = 42.14437 58.37596 50.26016
# Shear Modulus (GPa) = 29.84709 34.85214 32.34962
#
# Velocity S-wave (km/s) = 3.57255 3.86049 3.71931
# Velocity P-wave (km/s) = 5.91939 6.69580 6.31953
#
# Compressibility (1/GPa) = 0.02372796
#
# Stress axis : x y z
#
# Youngs Moduli (GPa) = 96.72172 75.83307 41.08638
#
# Poissons Ratio (x) = 0.37700 0.22368
# Poissons Ratio (y) = 0.48085 0.06790
# Poissons Ratio (z) = 0.52657 0.12533
#
# Static dielectric constant tensor:
#      x y z
#    x 1.840300 0.000000 0.000000 
#    y 0.000000 2.235860 0.000000 
#    z 0.000000 0.000000 2.011370 
# 
# From -- ./inp_files/24844.got.cif
#   From: 2010.05.17/outbox.cif.g08.bks.cpg/sg20_13_cif.got.tgz:24844.got - 2010.06.03 22:52:26.
