data_PCOD9318392
_publ_section_title
;
Structure prediction by ZEFSAII (Michael W. Deem and Ramdas Pophale) SiO2 
 PCOD9318392
Probable space group: C 2 2 21
;
_chemical_formula_sum "Si O2"
_cell_formula_units_Z 32
_cell_length_a 6.879825
_cell_length_b 9.283951
_cell_length_c 20.377532
_cell_angle_alpha 90.000000
_cell_angle_beta 90.000000
_cell_angle_gamma 90.000000
_cell_volume 1301.552872
_symmetry_space_group_name_H-M "C 2 2 21"
_symmetry_group_IT_number 20
_symmetry_cell_setting 'orthorhombic'
loop_
_space_group_symop_operation_xyz
x,y,z
-x,-y,1/2+z
x,-y,-z
-x,y,1/2-z
1/2+x,1/2+y,z
1/2-x,1/2-y,1/2+z
1/2+x,1/2-y,-z
1/2-x,1/2+y,1/2-z
loop_
_atom_site_type_symbol
_atom_site_label
_atom_site_fract_x
_atom_site_fract_y
_atom_site_fract_z
Si Si1 0.338355 0.394105 0.557507
Si Si2 0.175351 0.309131 0.821509
Si Si3 0.613186 0.863066 0.967440
Si Si4 0.244343 0.033125 0.197907
O O1 0.402443 0.500000 0.500000
O O2 0.401116 0.243494 0.528364
O O3 0.378622 0.423697 0.633320
O O4 0.105121 0.398727 0.552870
O O5 0.212147 0.313342 0.899951
O O6 0.296711 0.407412 0.770812
O O7 0.956080 0.382801 0.814278
O O8 0.220926 0.142033 0.801176
O O9 0.708896 0.000000 0.000000
#
# Coordination Sequence:
#
# PCOD9318392 Si02
#       4
#     8   8   8   8
#     4  10  20  40  62  90 129 171 220 280 333 404
#     4  10  22  43  67  97 134 182 225 283 338 410
#     4  10  22  38  63  94 130 171 228 275 342 399
#     4  10  22  42  68  95 137 177 231 277 345 403
#
# _framework density 24.586017999999999
#
# number of rings (size 3 to 8) (size 9 to 14) (size 15 to 20)
#    0.000    2.000    2.500    0.000    3.500    1.000 
#    0.000    5.000    0.000    0.000    0.000    0.000 
#    0.000    0.000    0.000    0.000    0.000    0.000 
#
# Total GULP energy -89071.882975 kJ/mol
# GULP energy per Si atom -5566.992686 kJ/mol
# Density = 2.453006 g / cm^3
# Si number density = 24.586018 Si / 1000 Ang^3
#
#
#
# Elastic Constant Matrix: (Units=GPa)
#
#
# Indices 1 2 3 4 5 6 
#
# 1 125.6295 21.2103 42.0418 0.0000 0.0000 0.0000
# 2 21.2103 208.4420 91.1062 0.0000 0.0000 0.0000
# 3 42.0418 91.1062 243.9723 0.0000 0.0000 0.0000
# 4 0.0000 0.0000 0.0000 44.9525 0.0000 0.0000
# 5 0.0000 0.0000 0.0000 0.0000 17.7782 0.0000
# 6 0.0000 0.0000 0.0000 0.0000 0.0000 276.1525
#
#
#
# Elastic Compliance Matrix: (Units=1/GPa)
#
#
# Indices 1 2 3 4 5 6 
#
# 1 0.008459 -0.000267 -0.001358 0.000000 0.000000 0.000000
# 2 -0.000267 0.005742 -0.002098 0.000000 0.000000 0.000000
# 3 -0.001358 -0.002098 0.005116 0.000000 0.000000 0.000000
# 4 0.000000 0.000000 0.000000 0.022246 0.000000 0.000000
# 5 0.000000 0.000000 0.000000 0.000000 0.056249 0.000000
# 6 0.000000 0.000000 0.000000 0.000000 0.000000 0.003621
#
#
# Mechanical properties :
#
#
# Convention : Reuss Voigt Hill
#
# Bulk Modulus (GPa) = 84.23935 98.52892 91.38414
# Shear Modulus (GPa) = 44.31180 96.02232 70.16706
#
# Velocity S-wave (km/s) = 4.24998 6.25623 5.34803
# Velocity P-wave (km/s) = 7.64333 9.60986 8.68245
#
# Compressibility (1/GPa) = 0.01187094
#
# Stress axis : x y z
#
# Youngs Moduli (GPa) = 118.21066 174.16379 195.45347
#
# Poissons Ratio (x) = 0.04655 0.26542
# Poissons Ratio (y) = 0.03159 0.41007
# Poissons Ratio (z) = 0.16052 0.36541
#
# Static dielectric constant tensor:
#      x y z
#    x 2.113790 0.000000 0.000000 
#    y 0.000000 0.557290 0.000000 
#    z 0.000000 0.000000 1.847100 
# 
# From -- ./inp_files/26339.got.cif
#   From: 2010.05.17/outbox.cif.g08.bks.cpg/sg20_14_cif.got.tgz:26339.got - 2010.06.03 22:52:26.
