data_PCOD9318807
_publ_section_title
;
Structure prediction by ZEFSAII (Michael W. Deem and Ramdas Pophale) SiO2 
 PCOD9318807
Probable space group: C 2 2 21
;
_chemical_formula_sum "Si O2"
_cell_formula_units_Z 60
_cell_length_a 14.713124
_cell_length_b 7.477357
_cell_length_c 25.313149
_cell_angle_alpha 90.000000
_cell_angle_beta 90.000000
_cell_angle_gamma 90.000000
_cell_volume 2784.833193
_symmetry_space_group_name_H-M "C 2 2 21"
_symmetry_group_IT_number 20
_symmetry_cell_setting 'orthorhombic'
loop_
_space_group_symop_operation_xyz
x,y,z
-x,-y,1/2+z
x,-y,-z
-x,y,1/2-z
1/2+x,1/2+y,z
1/2-x,1/2-y,1/2+z
1/2+x,1/2-y,-z
1/2-x,1/2+y,1/2-z
loop_
_atom_site_type_symbol
_atom_site_label
_atom_site_fract_x
_atom_site_fract_y
_atom_site_fract_z
Si Si1 0.708521 0.654203 0.185385
Si Si2 0.194856 0.638343 0.048166
Si Si3 0.682435 0.236086 0.215579
Si Si4 0.481226 0.582495 0.311959
Si Si5 0.543374 0.787947 0.863033
Si Si6 0.343748 0.905141 0.895869
Si Si7 0.169587 0.179930 0.365221
Si Si8 0.233529 0.500000 0.500000
O O1 0.693932 0.445600 0.201478
O O2 0.786627 0.717651 0.225030
O O3 0.604577 0.718318 0.189312
O O4 0.754450 0.685163 0.129229
O O5 0.111963 0.648545 0.090736
O O6 0.287576 0.594857 0.081571
O O7 0.181091 0.500000 0.000000
O O8 0.207886 0.841264 0.026263
O O9 0.587277 0.161027 0.194056
O O10 0.757736 0.138722 0.180204
O O11 0.500000 0.529593 0.250000
O O12 0.456282 0.425444 0.353743
O O13 0.573681 0.646631 0.338240
O O14 0.440525 0.840585 0.875026
O O15 0.332656 0.110427 0.878459
O O16 0.331555 0.902982 0.958055
#
# Coordination Sequence:
#
# PCOD9318807 Si02
#       8
#     8   8   8   8   8   8   8   4
#     4  10  21  36  58  85 122 167 201 255 317 378
#     4  10  23  47  71  95 130 172 220 270 335 389
#     4   9  19  37  55  83 123 162 201 257 311 378
#     4  11  21  37  63  93 127 170 213 264 329 391
#     4  10  24  40  59  93 130 161 212 273 316 396
#     4  10  23  41  62  88 129 164 210 269 324 377
#     4   9  20  41  61  91 127 162 214 265 316 390
#     4  10  22  46  68  92 130 170 212 276 326 388
#
# _framework density 21.545276000000001
#
# number of rings (size 3 to 8) (size 9 to 14) (size 15 to 20)
#    0.000    2.133    1.333    2.400    6.533    1.067 
#    7.200    0.000    1.467    0.000    0.000    0.000 
#    0.000    0.000    0.000    0.000    0.000    0.000 
#
# Total GULP energy -167041.574105 kJ/mol
# GULP energy per Si atom -5568.052470 kJ/mol
# Density = 2.149624 g / cm^3
# Si number density = 21.545276 Si / 1000 Ang^3
#
#
#
# Elastic Constant Matrix: (Units=GPa)
#
#
# Indices 1 2 3 4 5 6 
#
# 1 105.0682 -10.9755 19.1620 0.0000 0.0000 0.0000
# 2 -10.9755 41.4946 -0.5821 0.0000 0.0000 0.0000
# 3 19.1620 -0.5821 74.0819 0.0000 0.0000 0.0000
# 4 0.0000 0.0000 0.0000 22.7839 0.0000 0.0000
# 5 0.0000 0.0000 0.0000 0.0000 31.6406 0.0000
# 6 0.0000 0.0000 0.0000 0.0000 0.0000 22.2912
#
#
#
# Elastic Compliance Matrix: (Units=1/GPa)
#
#
# Indices 1 2 3 4 5 6 
#
# 1 0.010279 0.002682 -0.002638 0.000000 0.000000 0.000000
# 2 0.002682 0.024802 -0.000499 0.000000 0.000000 0.000000
# 3 -0.002638 -0.000499 0.014177 0.000000 0.000000 0.000000
# 4 0.000000 0.000000 0.000000 0.043891 0.000000 0.000000
# 5 0.000000 0.000000 0.000000 0.000000 0.031605 0.000000
# 6 0.000000 0.000000 0.000000 0.000000 0.000000 0.044861
#
#
# Mechanical properties :
#
#
# Convention : Reuss Voigt Hill
#
# Bulk Modulus (GPa) = 20.68327 26.20596 23.44461
# Shear Modulus (GPa) = 26.78964 29.54582 28.16773
#
# Velocity S-wave (km/s) = 3.53003 3.70717 3.61969
# Velocity P-wave (km/s) = 5.12207 5.52393 5.32679
#
# Compressibility (1/GPa) = 0.04834826
#
# Stress axis : x y z
#
# Youngs Moduli (GPa) = 97.28752 40.31957 70.53720
#
# Poissons Ratio (x) = -0.10813 0.18605
# Poissons Ratio (y) = -0.26090 0.03518
# Poissons Ratio (z) = 0.25661 0.02011
#
# Static dielectric constant tensor:
#      x y z
#    x 1.862880 0.000000 0.000000 
#    y 0.000000 1.854350 0.000000 
#    z 0.000000 0.000000 1.818380 
# 
# From -- ./inp_files/28829.got.cif
#   From: 2010.05.17/outbox.cif.g08.bks.cpg/sg20_15_cif.got.tgz:28829.got - 2010.06.03 22:52:26.
