data_PCOD9318635
_publ_section_title
;
Structure prediction by ZEFSAII (Michael W. Deem and Ramdas Pophale) SiO2 
 PCOD9318635
Probable space group: C 2 2 21
;
_chemical_formula_sum "Si O2"
_cell_formula_units_Z 40
_cell_length_a 31.025488
_cell_length_b 6.618989
_cell_length_c 9.935983
_cell_angle_alpha 90.000000
_cell_angle_beta 90.000000
_cell_angle_gamma 90.000000
_cell_volume 2040.427276
_symmetry_space_group_name_H-M "C 2 2 21"
_symmetry_group_IT_number 20
_symmetry_cell_setting 'orthorhombic'
loop_
_space_group_symop_operation_xyz
x,y,z
-x,-y,1/2+z
x,-y,-z
-x,y,1/2-z
1/2+x,1/2+y,z
1/2-x,1/2-y,1/2+z
1/2+x,1/2-y,-z
1/2-x,1/2+y,1/2-z
loop_
_atom_site_type_symbol
_atom_site_label
_atom_site_fract_x
_atom_site_fract_y
_atom_site_fract_z
Si Si1 0.037449 0.394401 0.642964
Si Si2 0.184663 0.500000 0.500000
Si Si3 0.815463 0.883405 0.642474
Si Si4 0.885453 0.306095 0.189244
Si Si5 0.767190 0.139586 0.870204
Si Si6 0.436573 0.500000 0.000000
O O1 0.028225 0.500000 0.500000
O O2 0.081325 0.503704 0.698865
O O3 0.040472 0.159726 0.599499
O O4 0.000000 0.427269 0.750000
O O5 0.154122 0.624267 0.597680
O O6 0.212946 0.646238 0.409962
O O7 0.862725 0.800146 0.683369
O O8 0.782994 0.691497 0.649721
O O9 0.815558 0.000000 0.500000
O O10 0.794341 0.038662 0.750606
O O11 0.909357 0.138619 0.100528
O O12 0.771618 0.000000 0.000000
#
# Coordination Sequence:
#
# PCOD9318635 Si02
#       6
#     8   4   8   8   8   4
#     4  10  23  45  72 102 132 172 220 273 344 406
#     4  12  20  42  72  94 119 188 235 266 316 400
#     4  12  25  42  63 101 137 177 228 284 343 386
#     4  11  22  41  69  95 134 174 224 273 330 406
#     4  12  24  44  66  91 136 182 234 277 329 403
#     4  10  20  42  72  96 129 180 221 266 326 418
#
# _framework density 19.603739000000001
#
# number of rings (size 3 to 8) (size 9 to 14) (size 15 to 20)
#    0.000    0.800    6.000    3.600    0.000    3.200 
#    3.600    0.000    0.000    0.000    0.000    0.000 
#    0.000    0.000    0.000    0.000    0.000    0.000 
#
# Total GULP energy -111601.159975 kJ/mol
# GULP energy per Si atom -5580.057999 kJ/mol
# Density = 1.955912 g / cm^3
# Si number density = 19.603739 Si / 1000 Ang^3
#
#
#
# Elastic Constant Matrix: (Units=GPa)
#
#
# Indices 1 2 3 4 5 6 
#
# 1 86.9337 15.6147 44.3433 0.0000 0.0000 0.0000
# 2 15.6147 80.9021 35.4592 0.0000 0.0000 0.0000
# 3 44.3433 35.4592 123.1745 0.0000 0.0000 0.0000
# 4 0.0000 0.0000 0.0000 27.3175 0.0000 0.0000
# 5 0.0000 0.0000 0.0000 0.0000 38.0288 0.0000
# 6 0.0000 0.0000 0.0000 0.0000 0.0000 31.9370
#
#
#
# Elastic Compliance Matrix: (Units=1/GPa)
#
#
# Indices 1 2 3 4 5 6 
#
# 1 0.014113 -0.000569 -0.004917 0.000000 0.000000 0.000000
# 2 -0.000569 0.014168 -0.003874 0.000000 0.000000 0.000000
# 3 -0.004917 -0.003874 0.011004 0.000000 0.000000 0.000000
# 4 0.000000 0.000000 0.000000 0.036607 0.000000 0.000000
# 5 0.000000 0.000000 0.000000 0.000000 0.026296 0.000000
# 6 0.000000 0.000000 0.000000 0.000000 0.000000 0.031312
#
#
# Mechanical properties :
#
#
# Convention : Reuss Voigt Hill
#
# Bulk Modulus (GPa) = 48.62430 53.53830 51.08130
# Shear Modulus (GPa) = 31.43175 32.49620 31.96398
#
# Velocity S-wave (km/s) = 4.00854 4.07585 4.04233
# Velocity P-wave (km/s) = 6.80308 7.03701 6.92104
#
# Compressibility (1/GPa) = 0.02056585
#
# Stress axis : x y z
#
# Youngs Moduli (GPa) = 70.85513 70.57978 90.87626
#
# Poissons Ratio (x) = 0.04015 0.44685
# Poissons Ratio (y) = 0.04030 0.35205
# Poissons Ratio (z) = 0.34840 0.27342
#
# Static dielectric constant tensor:
#      x y z
#    x 1.689250 0.000000 0.000000 
#    y 0.000000 1.537860 0.000000 
#    z 0.000000 0.000000 1.695950 
# 
# From -- ./inp_files/12198.got.cif
#   From: 2010.05.17/outbox.cif.g08.bks.cpg/sg20_7_cif.got.tgz:12198.got - 2010.06.03 22:52:26.
