data_PCOD9318983
_publ_section_title
;
Structure prediction by ZEFSAII (Michael W. Deem and Ramdas Pophale) SiO2 
 PCOD9318983
Probable space group: C 2 2 21
;
_chemical_formula_sum "Si O2"
_cell_formula_units_Z 56
_cell_length_a 4.965599
_cell_length_b 31.782766
_cell_length_c 16.328460
_cell_angle_alpha 90.000000
_cell_angle_beta 90.000000
_cell_angle_gamma 90.000000
_cell_volume 2576.965249
_symmetry_space_group_name_H-M "C 2 2 21"
_symmetry_group_IT_number 20
_symmetry_cell_setting 'orthorhombic'
loop_
_space_group_symop_operation_xyz
x,y,z
-x,-y,1/2+z
x,-y,-z
-x,y,1/2-z
1/2+x,1/2+y,z
1/2-x,1/2-y,1/2+z
1/2+x,1/2-y,-z
1/2-x,1/2+y,1/2-z
loop_
_atom_site_type_symbol
_atom_site_label
_atom_site_fract_x
_atom_site_fract_y
_atom_site_fract_z
Si Si1 0.973702 0.021196 0.347053
Si Si2 0.023232 0.535243 0.846536
Si Si3 0.503404 0.391940 0.559309
Si Si4 0.501166 0.882693 0.049676
Si Si5 0.089582 0.710245 0.582989
Si Si6 0.915372 0.261718 0.893135
Si Si7 0.733790 0.165613 0.198664
O O1 0.680190 0.002849 0.363757
O O2 0.000000 0.031712 0.250000
O O3 0.183137 0.983617 0.364372
O O4 0.020879 0.062095 0.401106
O O5 0.000000 0.544645 0.750000
O O6 0.944414 0.576271 0.896796
O O7 0.203296 0.382089 0.527889
O O8 0.629198 0.360108 0.625241
O O9 0.695936 0.387543 0.481652
O O10 0.474301 0.838355 0.095652
O O11 0.074493 0.719397 0.485136
O O12 0.388762 0.721680 0.609187
O O13 0.881313 0.743634 0.622141
O O14 0.052705 0.296463 0.836564
O O15 0.500000 0.140661 0.250000
O O16 0.000000 0.177956 0.250000
#
# Coordination Sequence:
#
# PCOD9318983 Si02
#       7
#     8   8   8   8   8   8   8
#     4  10  22  42  62  89 128 174 213 253 322 395
#     4  10  23  43  65  88 124 170 214 267 333 384
#     4  12  25  39  64  98 132 167 220 260 322 389
#     4  12  24  40  65  99 128 162 219 274 319 381
#     4  10  21  38  64  88 121 159 212 265 308 378
#     4  10  21  39  62  87 120 168 211 250 314 382
#     4  12  25  41  63  94 138 173 213 267 325 382
#
# _framework density 21.730988
#
# number of rings (size 3 to 8) (size 9 to 14) (size 15 to 20)
#    0.000    1.143    1.429    4.714    4.000    5.143 
#    0.000    2.143    0.000    0.000    0.000    0.000 
#    0.000    0.000    0.000    0.000    0.000    0.000 
#
# Total GULP energy -156587.619165 kJ/mol
# GULP energy per Si atom -5592.414970 kJ/mol
# Density = 2.168153 g / cm^3
# Si number density = 21.730988 Si / 1000 Ang^3
#
#
#
# Elastic Constant Matrix: (Units=GPa)
#
#
# Indices 1 2 3 4 5 6 
#
# 1 73.1859 -23.1864 0.4548 0.0000 0.0000 0.0000
# 2 -23.1864 80.6881 20.7780 0.0000 0.0000 0.0000
# 3 0.4548 20.7780 28.3103 0.0000 0.0000 0.0000
# 4 0.0000 0.0000 0.0000 20.8390 0.0000 0.0000
# 5 0.0000 0.0000 0.0000 0.0000 29.6233 0.0000
# 6 0.0000 0.0000 0.0000 0.0000 0.0000 21.5747
#
#
#
# Elastic Compliance Matrix: (Units=1/GPa)
#
#
# Indices 1 2 3 4 5 6 
#
# 1 0.015450 0.005553 -0.004324 0.000000 0.000000 0.000000
# 2 0.005553 0.017277 -0.012770 0.000000 0.000000 0.000000
# 3 -0.004324 -0.012770 0.044764 0.000000 0.000000 0.000000
# 4 0.000000 0.000000 0.000000 0.047987 0.000000 0.000000
# 5 0.000000 0.000000 0.000000 0.000000 0.033757 0.000000
# 6 0.000000 0.000000 0.000000 0.000000 0.000000 0.046351
#
#
# Mechanical properties :
#
#
# Convention : Reuss Voigt Hill
#
# Bulk Modulus (GPa) = 18.37863 19.80854 19.09358
# Shear Modulus (GPa) = 20.25893 26.68326 23.47110
#
# Velocity S-wave (km/s) = 3.05661 3.50793 3.29001
# Velocity P-wave (km/s) = 4.57524 5.05396 4.82055
#
# Compressibility (1/GPa) = 0.05441103
#
# Stress axis : x y z
#
# Youngs Moduli (GPa) = 64.72481 57.87876 22.33916
#
# Poissons Ratio (x) = -0.32141 0.09659
# Poissons Ratio (y) = -0.35943 0.28527
# Poissons Ratio (z) = 0.27986 0.73910
#
# Static dielectric constant tensor:
#      x y z
#    x 1.756890 0.000000 0.000000 
#    y 0.000000 1.757260 0.000000 
#    z 0.000000 0.000000 1.827050 
# 
# From -- ./inp_files/17971.got.cif
#   From: 2010.05.17/outbox.cif.g08.bks.cpg/sg20_9_cif.got.tgz:17971.got - 2010.06.03 22:52:26.
