data_PCOD9318517
_publ_section_title
;
Structure prediction by ZEFSAII (Michael W. Deem and Ramdas Pophale) SiO2 
 PCOD9318517
Probable space group: C 2 2 21
;
_chemical_formula_sum "Si O2"
_cell_formula_units_Z 60
_cell_length_a 27.697513
_cell_length_b 7.863307
_cell_length_c 12.891069
_cell_angle_alpha 90.000000
_cell_angle_beta 90.000000
_cell_angle_gamma 90.000000
_cell_volume 2807.598099
_symmetry_space_group_name_H-M "C 2 2 21"
_symmetry_group_IT_number 20
_symmetry_cell_setting 'orthorhombic'
loop_
_space_group_symop_operation_xyz
x,y,z
-x,-y,1/2+z
x,-y,-z
-x,y,1/2-z
1/2+x,1/2+y,z
1/2-x,1/2-y,1/2+z
1/2+x,1/2-y,-z
1/2-x,1/2+y,1/2-z
loop_
_atom_site_type_symbol
_atom_site_label
_atom_site_fract_x
_atom_site_fract_y
_atom_site_fract_z
Si Si1 0.543079 0.431634 0.615322
Si Si2 0.112282 0.662236 0.563289
Si Si3 0.668916 0.500000 0.500000
Si Si4 0.711216 0.488037 0.730812
Si Si5 0.660113 0.643932 0.921025
Si Si6 0.318543 0.901755 0.246290
Si Si7 0.569558 0.467304 0.836929
Si Si8 0.883823 0.623692 0.575082
O O1 0.550765 0.500000 0.500000
O O2 0.564561 0.241271 0.616354
O O3 0.572286 0.506655 0.713759
O O4 0.486756 0.461897 0.636258
O O5 0.096395 0.500000 0.500000
O O6 0.137813 0.825572 0.509082
O O7 0.153767 0.591708 0.638537
O O8 0.697853 0.512008 0.609313
O O9 0.687348 0.621178 0.812172
O O10 0.692112 0.300527 0.762545
O O11 0.768241 0.502876 0.746634
O O12 0.604012 0.598676 0.895637
O O13 0.679784 0.500000 0.000000
O O14 0.656960 0.805062 0.995759
O O15 0.356551 0.965327 0.330801
O O16 0.589445 0.282800 0.872065
O O17 0.914067 0.500000 0.500000
#
# Coordination Sequence:
#
# PCOD9318517 Si02
#       8
#     8   8   4   8   8   8   8   8
#     4  11  21  40  72  98 132 173 217 271 339 403
#     4  11  24  42  66  95 140 175 218 273 345 405
#     4  10  24  44  62  94 132 182 216 286 338 398
#     4  11  24  41  65  88 130 168 228 272 329 402
#     4  10  20  41  64  87 121 169 215 268 322 388
#     4  11  25  42  59  97 126 173 220 277 336 390
#     4  10  21  43  68  98 128 170 221 274 330 396
#     4  11  23  39  62  89 131 167 218 273 330 384
#
# _framework density 21.370577999999998
#
# number of rings (size 3 to 8) (size 9 to 14) (size 15 to 20)
#    0.000    1.333    4.667    2.000    4.667    2.133 
#    0.000    0.000    0.000    1.600    0.000    0.000 
#    0.000    0.000    0.000    0.000    0.000    0.000 
#
# Total GULP energy -167225.701537 kJ/mol
# GULP energy per Si atom -5574.190051 kJ/mol
# Density = 2.132194 g / cm^3
# Si number density = 21.370578 Si / 1000 Ang^3
#
#
#
# Elastic Constant Matrix: (Units=GPa)
#
#
# Indices 1 2 3 4 5 6 
#
# 1 69.5557 -12.0022 21.1427 0.0000 0.0000 0.0000
# 2 -12.0022 20.5794 6.2281 0.0000 0.0000 0.0000
# 3 21.1427 6.2281 132.4217 0.0000 0.0000 0.0000
# 4 0.0000 0.0000 0.0000 35.9224 0.0000 0.0000
# 5 0.0000 0.0000 0.0000 0.0000 3.0525 0.0000
# 6 0.0000 0.0000 0.0000 0.0000 0.0000 19.1274
#
#
#
# Elastic Compliance Matrix: (Units=1/GPa)
#
#
# Indices 1 2 3 4 5 6 
#
# 1 0.017285 0.011074 -0.003281 0.000000 0.000000 0.000000
# 2 0.011074 0.056388 -0.004420 0.000000 0.000000 0.000000
# 3 -0.003281 -0.004420 0.008283 0.000000 0.000000 0.000000
# 4 0.000000 0.000000 0.000000 0.027838 0.000000 0.000000
# 5 0.000000 0.000000 0.000000 0.000000 0.327601 0.000000
# 6 0.000000 0.000000 0.000000 0.000000 0.000000 0.052281
#
#
# Mechanical properties :
#
#
# Convention : Reuss Voigt Hill
#
# Bulk Modulus (GPa) = 11.27362 28.14377 19.70870
# Shear Modulus (GPa) = 9.75614 25.43301 17.59458
#
# Velocity S-wave (km/s) = 2.13896 3.45352 2.87245
# Velocity P-wave (km/s) = 3.37445 5.39448 4.49929
#
# Compressibility (1/GPa) = 0.08870261
#
# Stress axis : x y z
#
# Youngs Moduli (GPa) = 57.85375 17.73415 120.72477
#
# Poissons Ratio (x) = -0.19638 0.39605
# Poissons Ratio (y) = -0.64065 0.53362
# Poissons Ratio (z) = 0.18979 0.07839
#
# Static dielectric constant tensor:
#      x y z
#    x 1.771580 0.000000 0.000000 
#    y 0.000000 1.884390 0.000000 
#    z 0.000000 0.000000 1.820830 
# 
# From -- ./inp_files/17223.got.cif
#   From: 2010.05.17/outbox.cif.g08.bks.cpg/sg20_9_cif.got.tgz:17223.got - 2010.06.03 22:52:26.
