data_PCOD9318189
_publ_section_title
;
Structure prediction by ZEFSAII (Michael W. Deem and Ramdas Pophale) SiO2 
 PCOD9318189
Probable space group: C 2 2 21
;
_chemical_formula_sum "Si O2"
_cell_formula_units_Z 36
_cell_length_a 17.702689
_cell_length_b 7.081708
_cell_length_c 14.130931
_cell_angle_alpha 90.000000
_cell_angle_beta 90.000000
_cell_angle_gamma 90.000000
_cell_volume 1771.528041
_symmetry_space_group_name_H-M "C 2 2 21"
_symmetry_group_IT_number 20
_symmetry_cell_setting 'orthorhombic'
loop_
_space_group_symop_operation_xyz
x,y,z
-x,-y,1/2+z
x,-y,-z
-x,y,1/2-z
1/2+x,1/2+y,z
1/2-x,1/2-y,1/2+z
1/2+x,1/2-y,-z
1/2-x,1/2+y,1/2-z
loop_
_atom_site_type_symbol
_atom_site_label
_atom_site_fract_x
_atom_site_fract_y
_atom_site_fract_z
Si Si1 0.378210 0.815518 0.542293
Si Si2 0.251693 0.304807 0.330363
Si Si3 0.619945 0.220011 0.529658
Si Si4 0.510798 0.500000 0.000000
Si Si5 0.248806 0.236551 0.112682
O O1 0.321889 0.820938 0.632408
O O2 0.433288 0.638123 0.557683
O O3 0.319370 0.787556 0.456140
O O4 0.420287 0.000000 0.500000
O O5 0.172351 0.250032 0.378072
O O6 0.249042 0.315808 0.218095
O O7 0.260895 0.512544 0.373884
O O8 0.546161 0.346322 0.544090
O O9 0.673982 0.285069 0.442530
O O10 0.605133 0.000000 0.500000
#
# Coordination Sequence:
#
# PCOD9318189 Si02
#       5
#     8   8   8   4   8
#     4  11  22  39  61  89 122 159 202 248 299 362
#     4  10  20  38  63  92 118 157 208 250 294 358
#     4   9  22  39  59  89 122 155 202 248 297 362
#     4  12  22  40  62  90 128 160 194 248 318 362
#     4  10  20  38  63  92 118 157 208 250 294 358
#
# _framework density 20.321438000000001
#
# number of rings (size 3 to 8) (size 9 to 14) (size 15 to 20)
#    0.000    1.778    2.222    3.333    9.333    0.000 
#    0.000    4.444    0.000    8.000    0.000    0.000 
#    0.000    0.000    0.000    0.000    0.000    0.000 
#
# Total GULP energy -100266.620853 kJ/mol
# GULP energy per Si atom -5570.367825 kJ/mol
# Density = 2.027519 g / cm^3
# Si number density = 20.321438 Si / 1000 Ang^3
#
#
#
# Elastic Constant Matrix: (Units=GPa)
#
#
# Indices 1 2 3 4 5 6 
#
# 1 113.2965 29.8042 34.3127 0.0000 0.0000 0.0000
# 2 29.8042 85.6900 1.8605 0.0000 0.0000 0.0000
# 3 34.3127 1.8605 125.0141 0.0000 0.0000 0.0000
# 4 0.0000 0.0000 0.0000 20.1073 0.0000 0.0000
# 5 0.0000 0.0000 0.0000 0.0000 -5.8636 0.0000
# 6 0.0000 0.0000 0.0000 0.0000 0.0000 -284.1851
#
#
#
# Elastic Compliance Matrix: (Units=1/GPa)
#
#
# Indices 1 2 3 4 5 6 
#
# 1 0.010654 -0.003643 -0.002870 0.000000 0.000000 0.000000
# 2 -0.003643 0.012920 0.000808 0.000000 0.000000 0.000000
# 3 -0.002870 0.000808 0.008775 0.000000 0.000000 0.000000
# 4 0.000000 0.000000 0.000000 0.049733 0.000000 0.000000
# 5 0.000000 0.000000 0.000000 0.000000 -0.170542 0.000000
# 6 0.000000 0.000000 0.000000 0.000000 0.000000 -0.003519
#
#
# Mechanical properties :
#
#
# Convention : Reuss Voigt Hill
#
# Bulk Modulus (GPa) = 47.76172 50.66170 49.21171
# Shear Modulus (GPa) = -67.94461 -36.78674 -52.36568
#
# Velocity S-wave (km/s) = -5.78857 -4.25931 -5.08179
# Velocity P-wave (km/s) = 4.59593 0.89181 3.18804
#
# Compressibility (1/GPa) = 0.02093727
#
# Stress axis : x y z
#
# Youngs Moduli (GPa) = 93.86136 77.40165 113.96264
#
# Poissons Ratio (x) = 0.28200 0.32707
# Poissons Ratio (y) = 0.34196 -0.09205
# Poissons Ratio (z) = 0.26938 -0.06252
#
# Static dielectric constant tensor:
#      x y z
#    x 1.737560 0.000000 0.000000 
#    y 0.000000 1.877390 0.000000 
#    z 0.000000 0.000000 1.775930 
# 
# From -- ./inp_files/21089.got.cif
#   From: 2010.05.17/outbox.cif.g08.bks.cpg/sg20_11_cif.got.tgz:21089.got - 2010.06.03 22:52:26.
