data_PCOD9318209
_publ_section_title
;
Structure prediction by ZEFSAII (Michael W. Deem and Ramdas Pophale) SiO2 
 PCOD9318209
Probable space group: C 2 2 21
;
_chemical_formula_sum "Si O2"
_cell_formula_units_Z 64
_cell_length_a 24.552458
_cell_length_b 8.843792
_cell_length_c 15.524024
_cell_angle_alpha 90.000000
_cell_angle_beta 90.000000
_cell_angle_gamma 90.000000
_cell_volume 3370.837386
_symmetry_space_group_name_H-M "C 2 2 21"
_symmetry_group_IT_number 20
_symmetry_cell_setting 'orthorhombic'
loop_
_space_group_symop_operation_xyz
x,y,z
-x,-y,1/2+z
x,-y,-z
-x,y,1/2-z
1/2+x,1/2+y,z
1/2-x,1/2-y,1/2+z
1/2+x,1/2-y,-z
1/2-x,1/2+y,1/2-z
loop_
_atom_site_type_symbol
_atom_site_label
_atom_site_fract_x
_atom_site_fract_y
_atom_site_fract_z
Si Si1 0.864659 0.149159 0.889011
Si Si2 0.316595 0.682976 0.506297
Si Si3 0.936777 0.680758 0.496447
Si Si4 0.126936 0.806966 0.592817
Si Si5 0.986768 0.817763 0.151916
Si Si6 0.252418 0.801117 0.838369
Si Si7 0.505920 0.318309 0.648762
Si Si8 0.731950 0.842521 0.344704
O O1 0.922591 0.210459 0.858144
O O2 0.812068 0.234638 0.856096
O O3 0.861035 0.971371 0.865084
O O4 0.867635 0.166001 0.991562
O O5 0.321496 0.500000 0.500000
O O6 0.376101 0.753930 0.516956
O O7 0.287425 0.737525 0.418196
O O8 0.276345 0.718239 0.586334
O O9 0.935384 0.500000 0.500000
O O10 0.976518 0.735061 0.419151
O O11 0.961319 0.746195 0.585835
O O12 0.065476 0.766182 0.617156
O O13 0.171867 0.686482 0.618821
O O14 0.000000 0.778064 0.250000
O O15 0.995779 0.998837 0.139239
O O16 0.234133 0.737270 0.747147
O O17 0.256190 0.981317 0.834609
O O18 0.500000 0.283415 0.750000
#
# Coordination Sequence:
#
# PCOD9318209 Si02
#       8
#     8   8   8   8   8   8   8   8
#     4  10  20  38  64  92 122 159 206 257 306 360
#     4  10  24  45  64  83 121 172 212 244 301 378
#     4  12  26  41  62  93 129 162 202 262 317 358
#     4  10  20  38  64  92 122 159 206 257 306 360
#     4  10  22  42  67  92 123 167 212 249 300 374
#     4  11  24  42  64  92 124 162 206 254 309 367
#     4  10  22  42  67  92 123 167 212 249 300 374
#     4  11  24  42  64  92 124 162 206 254 309 367
#
# _framework density 18.986378999999999
#
# number of rings (size 3 to 8) (size 9 to 14) (size 15 to 20)
#    0.000    1.500    2.500    1.875    3.500    3.500 
#    0.000    0.000    0.000    0.000    0.000    0.000 
#    0.000    0.000    0.000    0.000    0.000    0.000 
#
# Total GULP energy -178781.335986 kJ/mol
# GULP energy per Si atom -5586.916750 kJ/mol
# Density = 1.894317 g / cm^3
# Si number density = 18.986379 Si / 1000 Ang^3
#
#
#
# Elastic Constant Matrix: (Units=GPa)
#
#
# Indices 1 2 3 4 5 6 
#
# 1 46.9808 2.0163 -9.4693 0.0000 0.0000 0.0000
# 2 2.0163 7.2191 -4.6104 0.0000 0.0000 0.0000
# 3 -9.4693 -4.6104 56.1288 0.0000 0.0000 0.0000
# 4 0.0000 0.0000 0.0000 25.2862 0.0000 0.0000
# 5 0.0000 0.0000 0.0000 0.0000 30.6652 0.0000
# 6 0.0000 0.0000 0.0000 0.0000 0.0000 -203.8593
#
#
#
# Elastic Compliance Matrix: (Units=1/GPa)
#
#
# Indices 1 2 3 4 5 6 
#
# 1 0.022144 -0.004009 0.003407 0.000000 0.000000 0.000000
# 2 -0.004009 0.146916 0.011391 0.000000 0.000000 0.000000
# 3 0.003407 0.011391 0.019327 0.000000 0.000000 0.000000
# 4 0.000000 0.000000 0.000000 0.039547 0.000000 0.000000
# 5 0.000000 0.000000 0.000000 0.000000 0.032610 0.000000
# 6 0.000000 0.000000 0.000000 0.000000 0.000000 -0.004905
#
#
# Mechanical properties :
#
#
# Convention : Reuss Voigt Hill
#
# Bulk Modulus (GPa) = 4.76273 9.57799 7.17036
# Shear Modulus (GPa) = 16.44467 -21.42210 -2.48871
#
# Velocity S-wave (km/s) = 2.94620 -3.36264 -1.14614
# Velocity P-wave (km/s) = 3.75332 3.16558 1.42593
#
# Compressibility (1/GPa) = 0.20996366
#
# Stress axis : x y z
#
# Youngs Moduli (GPa) = 45.15907 6.80660 51.74232
#
# Poissons Ratio (x) = 0.02729 -0.17626
# Poissons Ratio (y) = 0.18106 -0.58941
# Poissons Ratio (z) = -0.15383 -0.07754
#
# Static dielectric constant tensor:
#      x y z
#    x 1.613700 0.000000 0.000000 
#    y 0.000000 1.657850 0.000000 
#    z 0.000000 0.000000 2.808690 
# 
# From -- ./inp_files/22043.got.cif
#   From: 2010.05.17/outbox.cif.g08.bks.cpg/sg20_12_cif.got.tgz:22043.got - 2010.06.03 22:52:26.
