data_PCOD9318066
_publ_section_title
;
Structure prediction by ZEFSAII (Michael W. Deem and Ramdas Pophale) SiO2 
 PCOD9318066
Probable space group: C 2 2 21
;
_chemical_formula_sum "Si O2"
_cell_formula_units_Z 32
_cell_length_a 20.873086
_cell_length_b 5.209921
_cell_length_c 11.775699
_cell_angle_alpha 90.000000
_cell_angle_beta 90.000000
_cell_angle_gamma 90.000000
_cell_volume 1280.573459
_symmetry_space_group_name_H-M "C 2 2 21"
_symmetry_group_IT_number 20
_symmetry_cell_setting 'orthorhombic'
loop_
_space_group_symop_operation_xyz
x,y,z
-x,-y,1/2+z
x,-y,-z
-x,y,1/2-z
1/2+x,1/2+y,z
1/2-x,1/2-y,1/2+z
1/2+x,1/2-y,-z
1/2-x,1/2+y,1/2-z
loop_
_atom_site_type_symbol
_atom_site_label
_atom_site_fract_x
_atom_site_fract_y
_atom_site_fract_z
Si Si1 0.602374 0.712115 0.627495
Si Si2 0.344584 0.500000 0.500000
Si Si3 0.546060 0.790144 0.374080
Si Si4 0.246060 0.256481 0.679105
Si Si5 0.073125 0.500000 0.000000
O O1 0.577124 0.747160 0.499037
O O2 0.564218 0.477362 0.682990
O O3 0.678146 0.684918 0.623396
O O4 0.582937 0.978330 0.684139
O O5 0.298352 0.380290 0.596043
O O6 0.386418 0.251201 0.462240
O O7 0.474737 0.879459 0.404482
O O8 0.231655 0.488914 0.766391
#
# Coordination Sequence:
#
# PCOD9318066 Si02
#       5
#     8   4   8   8   4
#     4   9  17  33  57  87 118 158 211 264 306 355
#     4  12  24  43  68  95 144 180 208 278 356 408
#     4   9  17  33  64  91 118 165 225 262 301 392
#     4  12  26  42  64  99 136 176 227 277 334 409
#     4  10  20  37  66 103 128 172 218 264 354 412
#
# _framework density 24.988804999999999
#
# number of rings (size 3 to 8) (size 9 to 14) (size 15 to 20)
#    0.000    2.000    0.000    7.500    0.000    4.000 
#    0.000    0.000    0.000   61.500    0.000    0.000 
#    0.000    0.000    0.000    0.000    0.000    0.000 
#
# Total GULP energy -89395.797462 kJ/mol
# GULP energy per Si atom -5587.237341 kJ/mol
# Density = 2.493193 g / cm^3
# Si number density = 24.988805 Si / 1000 Ang^3
#
#
#
# Elastic Constant Matrix: (Units=GPa)
#
#
# Indices 1 2 3 4 5 6 
#
# 1 176.2628 64.6148 45.3461 0.0000 0.0000 0.0000
# 2 64.6148 230.3536 9.1800 0.0000 0.0000 0.0000
# 3 45.3461 9.1800 29.0284 0.0000 0.0000 0.0000
# 4 0.0000 0.0000 0.0000 25.3205 0.0000 0.0000
# 5 0.0000 0.0000 0.0000 0.0000 -6.2152 0.0000
# 6 0.0000 0.0000 0.0000 0.0000 0.0000 45.8803
#
#
#
# Elastic Compliance Matrix: (Units=1/GPa)
#
#
# Indices 1 2 3 4 5 6 
#
# 1 0.010603 -0.002344 -0.015822 0.000000 0.000000 0.000000
# 2 -0.002344 0.004915 0.002107 0.000000 0.000000 0.000000
# 3 -0.015822 0.002107 0.058499 0.000000 0.000000 0.000000
# 4 0.000000 0.000000 0.000000 0.039494 0.000000 0.000000
# 5 0.000000 0.000000 0.000000 0.000000 -0.160896 0.000000
# 6 0.000000 0.000000 0.000000 0.000000 0.000000 0.021796
#
#
# Mechanical properties :
#
#
# Convention : Reuss Voigt Hill
#
# Bulk Modulus (GPa) = 23.86713 74.88072 49.37392
# Shear Modulus (GPa) = 243.98081 34.09738 139.03910
#
# Velocity S-wave (km/s) = 9.89181 3.69793 7.46735
# Velocity P-wave (km/s) = 11.83368 6.94721 9.70308
#
# Compressibility (1/GPa) = 0.04189863
#
# Stress axis : x y z
#
# Youngs Moduli (GPa) = 94.31405 203.47619 17.09445
#
# Poissons Ratio (x) = 0.47687 0.27047
# Poissons Ratio (y) = 0.22104 -0.03601
# Poissons Ratio (z) = 1.49223 -0.42869
#
# Static dielectric constant tensor:
#      x y z
#    x 1.959610 0.000000 0.000000 
#    y 0.000000 2.241130 0.000000 
#    z 0.000000 0.000000 2.004250 
# 
# From -- ./inp_files/21057.got.cif
#   From: 2010.05.17/outbox.cif.g08.bks.cpg/sg20_11_cif.got.tgz:21057.got - 2010.06.03 22:52:26.
