data_PCOD9318212
_publ_section_title
;
Structure prediction by ZEFSAII (Michael W. Deem and Ramdas Pophale) SiO2 
 PCOD9318212
Probable space group: C 2 2 21
;
_chemical_formula_sum "Si O2"
_cell_formula_units_Z 60
_cell_length_a 18.734202
_cell_length_b 12.584175
_cell_length_c 10.637695
_cell_angle_alpha 90.000000
_cell_angle_beta 90.000000
_cell_angle_gamma 90.000000
_cell_volume 2507.884215
_symmetry_space_group_name_H-M "C 2 2 21"
_symmetry_group_IT_number 20
_symmetry_cell_setting 'orthorhombic'
loop_
_space_group_symop_operation_xyz
x,y,z
-x,-y,1/2+z
x,-y,-z
-x,y,1/2-z
1/2+x,1/2+y,z
1/2-x,1/2-y,1/2+z
1/2+x,1/2-y,-z
1/2-x,1/2+y,1/2-z
loop_
_atom_site_type_symbol
_atom_site_label
_atom_site_fract_x
_atom_site_fract_y
_atom_site_fract_z
Si Si1 0.066798 0.217243 0.885372
Si Si2 0.791924 0.546739 0.368400
Si Si3 0.621577 0.134065 0.752846
Si Si4 0.000000 0.968419 0.250000
Si Si5 0.172158 0.252922 0.708211
Si Si6 0.691587 0.679333 0.089238
Si Si7 0.343834 0.499985 0.769275
Si Si8 0.489836 0.115451 0.943640
O O1 0.026508 0.106847 0.863153
O O2 0.087980 0.259914 0.745135
O O3 0.136917 0.193110 0.973181
O O4 0.020348 0.302083 0.957287
O O5 0.820930 0.500000 0.500000
O O6 0.825776 0.466426 0.265803
O O7 0.804668 0.664129 0.317453
O O8 0.707004 0.544740 0.375692
O O9 0.661396 0.236624 0.807374
O O10 0.554222 0.109105 0.842902
O O11 0.584037 0.151507 0.619891
O O12 0.927054 0.025526 0.213201
O O13 0.223620 0.288343 0.592449
O O14 0.175688 0.125340 0.726884
O O15 0.681776 0.561257 0.144158
O O16 0.478452 0.000000 0.000000
#
# Coordination Sequence:
#
# PCOD9318212 Si02
#       8
#     8   8   8   4   8   8   8   8
#     4  10  22  42  65  91 133 176 217 273 337 402
#     4  11  21  40  67  97 128 175 225 284 339 399
#     4  10  20  38  64  93 134 167 227 271 336 417
#     4  10  24  44  62  94 130 170 216 274 322 408
#     4  10  21  38  66  96 128 170 223 282 326 406
#     4  10  21  42  65  93 133 177 219 281 342 398
#     4  10  23  42  63  96 135 170 230 278 337 402
#     4  10  21  36  61  96 129 180 213 271 343 403
#
# _framework density 23.92455
#
# number of rings (size 3 to 8) (size 9 to 14) (size 15 to 20)
#    0.000    1.867    1.333    2.800    0.000    7.467 
#    7.200    2.667    0.000    0.000    0.000    0.000 
#    0.000    0.000    0.000    0.000    0.000    0.000 
#
# Total GULP energy -167039.722388 kJ/mol
# GULP energy per Si atom -5567.990746 kJ/mol
# Density = 2.387010 g / cm^3
# Si number density = 23.924550 Si / 1000 Ang^3
#
#
#
# Elastic Constant Matrix: (Units=GPa)
#
#
# Indices 1 2 3 4 5 6 
#
# 1 118.0361 2.8186 13.4763 0.0000 0.0000 0.0000
# 2 2.8186 51.0926 -6.6578 0.0000 0.0000 0.0000
# 3 13.4763 -6.6578 24.2672 0.0000 0.0000 0.0000
# 4 0.0000 0.0000 0.0000 10.4054 0.0000 0.0000
# 5 0.0000 0.0000 0.0000 0.0000 63.9006 0.0000
# 6 0.0000 0.0000 0.0000 0.0000 0.0000 70.5355
#
#
#
# Elastic Compliance Matrix: (Units=1/GPa)
#
#
# Indices 1 2 3 4 5 6 
#
# 1 0.009117 -0.001206 -0.005394 0.000000 0.000000 0.000000
# 2 -0.001206 0.020457 0.006282 0.000000 0.000000 0.000000
# 3 -0.005394 0.006282 0.045927 0.000000 0.000000 0.000000
# 4 0.000000 0.000000 0.000000 0.096104 0.000000 0.000000
# 5 0.000000 0.000000 0.000000 0.000000 0.015649 0.000000
# 6 0.000000 0.000000 0.000000 0.000000 0.000000 0.014177
#
#
# Mechanical properties :
#
#
# Convention : Reuss Voigt Hill
#
# Bulk Modulus (GPa) = 13.35712 23.63003 18.49357
# Shear Modulus (GPa) = 22.02446 41.21890 31.62168
#
# Velocity S-wave (km/s) = 3.03740 4.15525 3.63950
# Velocity P-wave (km/s) = 4.23039 5.73758 5.04063
#
# Compressibility (1/GPa) = 0.07486643
#
# Stress axis : x y z
#
# Youngs Moduli (GPa) = 109.69051 48.88199 21.77388
#
# Poissons Ratio (x) = 0.05894 0.11744
# Poissons Ratio (y) = 0.13226 -0.13679
# Poissons Ratio (z) = 0.59162 -0.30709
#
# Static dielectric constant tensor:
#      x y z
#    x 2.015510 0.000000 0.000000 
#    y 0.000000 1.925400 0.000000 
#    z 0.000000 0.000000 1.950620 
# 
# From -- ./inp_files/16368.got.cif
#   From: 2010.05.17/outbox.cif.g08.bks.cpg/sg20_9_cif.got.tgz:16368.got - 2010.06.03 22:52:26.
