data_PCOD9318360
_publ_section_title
;
Structure prediction by ZEFSAII (Michael W. Deem and Ramdas Pophale) SiO2 
 PCOD9318360
Probable space group: C 2 2 21
;
_chemical_formula_sum "Si O2"
_cell_formula_units_Z 64
_cell_length_a 22.672378
_cell_length_b 9.180338
_cell_length_c 13.961304
_cell_angle_alpha 90.000000
_cell_angle_beta 90.000000
_cell_angle_gamma 90.000000
_cell_volume 2905.907117
_symmetry_space_group_name_H-M "C 2 2 21"
_symmetry_group_IT_number 20
_symmetry_cell_setting 'orthorhombic'
loop_
_space_group_symop_operation_xyz
x,y,z
-x,-y,1/2+z
x,-y,-z
-x,y,1/2-z
1/2+x,1/2+y,z
1/2-x,1/2-y,1/2+z
1/2+x,1/2-y,-z
1/2-x,1/2+y,1/2-z
loop_
_atom_site_type_symbol
_atom_site_label
_atom_site_fract_x
_atom_site_fract_y
_atom_site_fract_z
Si Si1 0.489696 0.106734 0.593259
Si Si2 0.810785 0.950159 0.095958
Si Si3 0.624496 0.932114 0.395481
Si Si4 0.692569 0.172526 0.896175
Si Si5 0.142771 0.129435 0.791863
Si Si6 0.094105 0.117444 0.078431
Si Si7 0.892505 0.439817 0.692612
Si Si8 0.228073 0.247310 0.319350
O O1 0.558625 0.132391 0.610293
O O2 0.455938 0.260862 0.589590
O O3 0.484321 0.000000 0.500000
O O4 0.454427 0.016058 0.673056
O O5 0.755965 0.853844 0.058205
O O6 0.851122 0.879306 0.176676
O O7 0.776239 0.078346 0.153327
O O8 0.843309 0.000000 0.000000
O O9 0.677307 0.821089 0.381358
O O10 0.630092 0.000000 0.500000
O O11 0.628347 0.036296 0.302129
O O12 0.652046 0.288835 0.949362
O O13 0.708199 0.233705 0.790826
O O14 0.652918 0.028294 0.876385
O O15 0.105247 0.268707 0.824552
O O16 0.209115 0.171787 0.827304
O O17 0.114778 0.980634 0.831232
O O18 0.077423 0.000000 0.000000
#
# Coordination Sequence:
#
# PCOD9318360 Si02
#       8
#     8   8   8   8   8   8   8   8
#     4  10  22  44  69  95 125 167 226 273 319 384
#     4  11  23  36  59  88 135 183 206 252 325 391
#     4  10  23  41  70  92 124 171 225 261 312 390
#     4   9  20  38  58  86 127 168 214 255 310 386
#     4  11  23  40  63 100 136 161 215 273 325 388
#     4  11  23  38  66  99 126 168 211 277 339 371
#     4  10  20  39  68  93 124 168 213 269 318 378
#     4  10  21  40  60  91 133 171 205 263 321 385
#
# _framework density 22.024104000000001
#
# number of rings (size 3 to 8) (size 9 to 14) (size 15 to 20)
#    0.000    1.750    2.500    1.125    3.500    2.500 
#    0.000    0.625    5.500    0.000    0.000    0.000 
#    0.000    0.000    0.000    0.000    0.000    0.000 
#
# Total GULP energy -178721.808062 kJ/mol
# GULP energy per Si atom -5585.056502 kJ/mol
# Density = 2.197398 g / cm^3
# Si number density = 22.024104 Si / 1000 Ang^3
#
#
#
# Elastic Constant Matrix: (Units=GPa)
#
#
# Indices 1 2 3 4 5 6 
#
# 1 79.4019 37.2026 14.8519 0.0000 0.0000 0.0000
# 2 37.2026 123.6067 27.5689 0.0000 0.0000 0.0000
# 3 14.8519 27.5689 67.9700 0.0000 0.0000 0.0000
# 4 0.0000 0.0000 0.0000 15.0889 0.0000 0.0000
# 5 0.0000 0.0000 0.0000 0.0000 23.2833 0.0000
# 6 0.0000 0.0000 0.0000 0.0000 0.0000 0.1332
#
#
#
# Elastic Compliance Matrix: (Units=1/GPa)
#
#
# Indices 1 2 3 4 5 6 
#
# 1 0.014813 -0.004108 -0.001570 0.000000 0.000000 0.000000
# 2 -0.004108 0.010034 -0.003172 0.000000 0.000000 0.000000
# 3 -0.001570 -0.003172 0.016342 0.000000 0.000000 0.000000
# 4 0.000000 0.000000 0.000000 0.066274 0.000000 0.000000
# 5 0.000000 0.000000 0.000000 0.000000 0.042949 0.000000
# 6 0.000000 0.000000 0.000000 0.000000 0.000000 7.509485
#
#
# Mechanical properties :
#
#
# Convention : Reuss Voigt Hill
#
# Bulk Modulus (GPa) = 42.57567 47.80284 45.18926
# Shear Modulus (GPa) = 0.65058 20.45809 10.55433
#
# Velocity S-wave (km/s) = 0.54409 3.05108 2.19148
# Velocity P-wave (km/s) = 4.44613 5.84500 5.19289
#
# Compressibility (1/GPa) = 0.02348759
#
# Stress axis : x y z
#
# Youngs Moduli (GPa) = 67.50995 99.66006 61.19120
#
# Poissons Ratio (x) = 0.40940 0.09610
# Poissons Ratio (y) = 0.27733 0.19411
# Poissons Ratio (z) = 0.10602 0.31615
#
# Static dielectric constant tensor:
#      x y z
#    x 1.777250 0.000000 0.000000 
#    y 0.000000 1.860520 0.000000 
#    z 0.000000 0.000000 1.873150 
# 
# From -- ./inp_files/22056.got.cif
#   From: 2010.05.17/outbox.cif.g08.bks.cpg/sg20_12_cif.got.tgz:22056.got - 2010.06.03 22:52:26.
