data_PCOD9318468
_publ_section_title
;
Structure prediction by ZEFSAII (Michael W. Deem and Ramdas Pophale) SiO2 
 PCOD9318468
Probable space group: C 2 2 21
;
_chemical_formula_sum "Si O2"
_cell_formula_units_Z 48
_cell_length_a 15.089370
_cell_length_b 25.619626
_cell_length_c 6.335464
_cell_angle_alpha 90.000000
_cell_angle_beta 90.000000
_cell_angle_gamma 90.000000
_cell_volume 2449.189116
_symmetry_space_group_name_H-M "C 2 2 21"
_symmetry_group_IT_number 20
_symmetry_cell_setting 'orthorhombic'
loop_
_space_group_symop_operation_xyz
x,y,z
-x,-y,1/2+z
x,-y,-z
-x,y,1/2-z
1/2+x,1/2+y,z
1/2-x,1/2-y,1/2+z
1/2+x,1/2-y,-z
1/2-x,1/2+y,1/2-z
loop_
_atom_site_type_symbol
_atom_site_label
_atom_site_fract_x
_atom_site_fract_y
_atom_site_fract_z
Si Si1 0.805467 0.192509 0.389350
Si Si2 0.154636 0.440038 0.556474
Si Si3 0.743459 0.377895 0.277940
Si Si4 0.000000 0.369188 0.750000
Si Si5 0.500000 0.522205 0.250000
Si Si6 0.149244 0.699888 0.072293
Si Si7 0.330120 0.411039 0.826793
O O1 0.798238 0.159259 0.602879
O O2 0.854326 0.245766 0.447297
O O3 0.708495 0.206209 0.287500
O O4 0.846882 0.149841 0.232629
O O5 0.136264 0.500000 0.500000
O O6 0.188506 0.414548 0.341341
O O7 0.237030 0.430221 0.720294
O O8 0.070825 0.407079 0.637428
O O9 0.794667 0.340263 0.434766
O O10 0.678496 0.412273 0.420474
O O11 0.942560 0.329264 0.610137
O O12 0.503102 0.500000 0.500000
O O13 0.590307 0.555084 0.243085
#
# Coordination Sequence:
#
# PCOD9318468 Si02
#       7
#     8   8   8   4   4   8   8
#     4  10  20  40  68  97 132 186 228 289 364 437
#     4  11  25  43  67  97 140 190 240 288 359 430
#     4  10  20  41  70  90 136 184 230 289 352 433
#     4  12  24  44  57 110 139 176 244 288 342 452
#     4  12  30  50  79 114 147 190 254 324 390 458
#     4  11  21  40  66  96 133 179 230 285 360 425
#     4  10  24  47  69 103 140 182 244 304 371 443
#
# _framework density 19.598323000000001
#
# number of rings (size 3 to 8) (size 9 to 14) (size 15 to 20)
#    0.000    1.333    6.667    0.500    7.000    2.000 
#    3.000    0.000    0.000    0.000    0.000    0.000 
#    0.000    0.000    0.000    0.000    0.000    0.000 
#
# Total GULP energy -133654.635178 kJ/mol
# GULP energy per Si atom -5568.943132 kJ/mol
# Density = 1.955372 g / cm^3
# Si number density = 19.598323 Si / 1000 Ang^3
#
#
#
# Elastic Constant Matrix: (Units=GPa)
#
#
# Indices 1 2 3 4 5 6 
#
# 1 92.6058 59.6946 36.6379 0.0000 0.0000 0.0000
# 2 59.6946 134.7361 35.1591 0.0000 0.0000 0.0000
# 3 36.6379 35.1591 97.1906 0.0000 0.0000 0.0000
# 4 0.0000 0.0000 0.0000 -22.6159 0.0000 0.0000
# 5 0.0000 0.0000 0.0000 0.0000 7.6117 0.0000
# 6 0.0000 0.0000 0.0000 0.0000 0.0000 21.9888
#
#
#
# Elastic Compliance Matrix: (Units=1/GPa)
#
#
# Indices 1 2 3 4 5 6 
#
# 1 0.016362 -0.006227 -0.003915 0.000000 0.000000 0.000000
# 2 -0.006227 0.010566 -0.001475 0.000000 0.000000 0.000000
# 3 -0.003915 -0.001475 0.012298 0.000000 0.000000 0.000000
# 4 0.000000 0.000000 0.000000 -0.044217 0.000000 0.000000
# 5 0.000000 0.000000 0.000000 0.000000 0.131377 0.000000
# 6 0.000000 0.000000 0.000000 0.000000 0.000000 0.045478
#
#
# Mechanical properties :
#
#
# Convention : Reuss Voigt Hill
#
# Bulk Modulus (GPa) = 62.53298 65.27952 63.90625
# Shear Modulus (GPa) = 24.94654 14.26631 19.60643
#
# Velocity S-wave (km/s) = 3.57163 2.70095 3.16636
# Velocity P-wave (km/s) = 6.99895 6.56566 6.78577
#
# Compressibility (1/GPa) = 0.01599156
#
# Stress axis : x y z
#
# Youngs Moduli (GPa) = 61.11879 94.64546 81.31141
#
# Poissons Ratio (x) = 0.58939 0.31834
# Poissons Ratio (y) = 0.38061 0.11991
# Poissons Ratio (z) = 0.23928 0.13957
#
# Static dielectric constant tensor:
#      x y z
#    x 1.701950 0.000000 0.000000 
#    y 0.000000 1.756350 0.000000 
#    z 0.000000 0.000000 1.813200 
# 
# From -- ./inp_files/2052.got.cif
#   From: 2010.05.17/outbox.cif.g08.bks.cpg/sg20_2_cif.got.tgz:2052.got - 2010.06.03 22:52:26.
