data_PCOD9318462
_publ_section_title
;
Structure prediction by ZEFSAII (Michael W. Deem and Ramdas Pophale) SiO2 
 PCOD9318462
Probable space group: C 2 2 21
;
_chemical_formula_sum "Si O2"
_cell_formula_units_Z 60
_cell_length_a 9.543918
_cell_length_b 29.478772
_cell_length_c 10.491986
_cell_angle_alpha 90.000000
_cell_angle_beta 90.000000
_cell_angle_gamma 90.000000
_cell_volume 2951.846636
_symmetry_space_group_name_H-M "C 2 2 21"
_symmetry_group_IT_number 20
_symmetry_cell_setting 'orthorhombic'
loop_
_space_group_symop_operation_xyz
x,y,z
-x,-y,1/2+z
x,-y,-z
-x,y,1/2-z
1/2+x,1/2+y,z
1/2-x,1/2-y,1/2+z
1/2+x,1/2-y,-z
1/2-x,1/2+y,1/2-z
loop_
_atom_site_type_symbol
_atom_site_label
_atom_site_fract_x
_atom_site_fract_y
_atom_site_fract_z
Si Si1 0.646620 0.621261 0.501129
Si Si2 0.205584 0.755247 0.150747
Si Si3 0.545180 0.136039 0.603680
Si Si4 0.187987 0.297036 0.099420
Si Si5 0.766145 0.337627 0.764402
Si Si6 0.376255 0.946836 0.515304
Si Si7 0.500000 0.094864 0.250000
Si Si8 0.140661 0.841691 0.030402
O O1 0.714800 0.658393 0.595075
O O2 0.688344 0.640338 0.359080
O O3 0.724372 0.573613 0.518103
O O4 0.483126 0.622256 0.528412
O O5 0.310254 0.775509 0.259368
O O6 0.162716 0.708654 0.217765
O O7 0.248142 0.737034 0.009175
O O8 0.105037 0.796759 0.112593
O O9 0.500000 0.135812 0.750000
O O10 0.460705 0.181072 0.554552
O O11 0.483958 0.088537 0.550879
O O12 0.709914 0.141298 0.581815
O O13 0.663504 0.328900 0.881830
O O14 0.886883 0.371520 0.812485
O O15 0.407995 0.936252 0.661333
O O16 0.392550 0.000000 0.500000
#
# Coordination Sequence:
#
# PCOD9318462 Si02
#       8
#     8   8   8   8   8   8   4   8
#     4   9  23  41  61  89 127 171 206 268 346 391
#     4  11  22  37  59  90 126 179 229 267 308 377
#     4  11  23  42  64  93 133 170 214 280 336 391
#     4  10  22  41  56  87 127 174 224 271 319 374
#     4  10  21  39  60  92 127 175 222 272 309 388
#     4  10  22  43  71  97 122 159 212 275 342 418
#     4  10  20  40  68  94 126 162 216 268 342 378
#     4  12  22  39  62  89 130 177 218 268 323 385
#
# _framework density 20.326260000000001
#
# number of rings (size 3 to 8) (size 9 to 14) (size 15 to 20)
#    0.000    1.600    4.000    1.200    0.933    3.733 
#    4.800    0.667    0.000    3.200    0.000    0.000 
#    0.000    0.000    0.000    0.000    0.000    0.000 
#
# Total GULP energy -167122.374227 kJ/mol
# GULP energy per Si atom -5570.745808 kJ/mol
# Density = 2.028000 g / cm^3
# Si number density = 20.326260 Si / 1000 Ang^3
#
#
#
# Elastic Constant Matrix: (Units=GPa)
#
#
# Indices 1 2 3 4 5 6 
#
# 1 114.3136 37.0906 28.1770 0.0000 0.0000 0.0000
# 2 37.0906 133.1496 43.0529 0.0000 0.0000 0.0000
# 3 28.1770 43.0529 64.7830 0.0000 0.0000 0.0000
# 4 0.0000 0.0000 0.0000 23.1118 0.0000 0.0000
# 5 0.0000 0.0000 0.0000 0.0000 19.5066 0.0000
# 6 0.0000 0.0000 0.0000 0.0000 0.0000 11.9778
#
#
#
# Elastic Compliance Matrix: (Units=1/GPa)
#
#
# Indices 1 2 3 4 5 6 
#
# 1 0.010118 -0.001778 -0.003220 0.000000 0.000000 0.000000
# 2 -0.001778 0.009878 -0.005792 0.000000 0.000000 0.000000
# 3 -0.003220 -0.005792 0.020685 0.000000 0.000000 0.000000
# 4 0.000000 0.000000 0.000000 0.043268 0.000000 0.000000
# 5 0.000000 0.000000 0.000000 0.000000 0.051265 0.000000
# 6 0.000000 0.000000 0.000000 0.000000 0.000000 0.083488
#
#
# Mechanical properties :
#
#
# Convention : Reuss Voigt Hill
#
# Bulk Modulus (GPa) = 52.34405 58.76524 55.55465
# Shear Modulus (GPa) = 20.27185 24.51430 22.39308
#
# Velocity S-wave (km/s) = 3.16147 3.47658 3.32276
# Velocity P-wave (km/s) = 6.25575 6.71485 6.48936
#
# Compressibility (1/GPa) = 0.01910437
#
# Stress axis : x y z
#
# Youngs Moduli (GPa) = 98.83186 101.23315 48.34327
#
# Poissons Ratio (x) = 0.17995 0.15564
# Poissons Ratio (y) = 0.17568 0.27999
# Poissons Ratio (z) = 0.31819 0.58630
#
# Static dielectric constant tensor:
#      x y z
#    x 1.766550 0.000000 0.000000 
#    y 0.000000 1.699190 0.000000 
#    z 0.000000 0.000000 1.803680 
# 
# From -- ./inp_files/13296.got.cif
#   From: 2010.05.17/outbox.cif.g08.bks.cpg/sg20_7_cif.got.tgz:13296.got - 2010.06.03 22:52:26.
