data_PCOD9318314
_publ_section_title
;
Structure prediction by ZEFSAII (Michael W. Deem and Ramdas Pophale) SiO2 
 PCOD9318314
Probable space group: C 2 2 21
;
_chemical_formula_sum "Si O2"
_cell_formula_units_Z 52
_cell_length_a 28.315807
_cell_length_b 5.396066
_cell_length_c 16.512065
_cell_angle_alpha 90.000000
_cell_angle_beta 90.000000
_cell_angle_gamma 90.000000
_cell_volume 2522.943856
_symmetry_space_group_name_H-M "C 2 2 21"
_symmetry_group_IT_number 20
_symmetry_cell_setting 'orthorhombic'
loop_
_space_group_symop_operation_xyz
x,y,z
-x,-y,1/2+z
x,-y,-z
-x,y,1/2-z
1/2+x,1/2+y,z
1/2-x,1/2-y,1/2+z
1/2+x,1/2-y,-z
1/2-x,1/2+y,1/2-z
loop_
_atom_site_type_symbol
_atom_site_label
_atom_site_fract_x
_atom_site_fract_y
_atom_site_fract_z
Si Si1 0.500778 0.991861 0.402435
Si Si2 0.135783 0.980316 0.279930
Si Si3 0.170301 0.684834 0.869686
Si Si4 0.057150 0.001135 0.596879
Si Si5 0.407690 0.810277 0.643320
Si Si6 0.114858 0.000000 0.000000
Si Si7 0.737112 0.731912 0.704071
O O1 0.525424 0.265013 0.619028
O O2 0.531668 0.237170 0.381565
O O3 0.449889 0.997587 0.359128
O O4 0.494481 0.000000 0.500000
O O5 0.097653 0.831953 0.226281
O O6 0.181875 0.822463 0.304749
O O7 0.154087 0.186887 0.215536
O O8 0.106972 0.047899 0.359253
O O9 0.144658 0.421357 0.870382
O O10 0.226734 0.689634 0.869966
O O11 0.147646 0.827952 0.944666
O O12 0.063309 0.000000 0.500000
O O13 0.416798 0.640781 0.565223
O O14 0.754643 0.512121 0.765053
#
# Coordination Sequence:
#
# PCOD9318314 Si02
#       7
#     8   8   8   8   8   4   8
#     4  10  23  40  65  86 125 166 207 262 328 372
#     4  10  23  40  65  93 126 171 219 260 320 376
#     4  10  21  38  63  93 132 165 212 265 323 384
#     4  10  24  44  63  89 126 171 213 263 313 381
#     4  11  22  39  63  94 128 168 211 270 321 385
#     4  10  22  36  62  96 134 166 212 266 326 384
#     4  10  20  39  64  90 125 168 205 255 322 373
#
# _framework density 20.610845000000001
#
# number of rings (size 3 to 8) (size 9 to 14) (size 15 to 20)
#    0.000    1.846    1.538    1.385    9.692    0.615 
#    0.000    1.538    5.077    0.000    0.000    0.000 
#    0.000    0.000    0.000    0.000    0.000    0.000 
#
# Total GULP energy -145076.403755 kJ/mol
# GULP energy per Si atom -5579.861683 kJ/mol
# Density = 2.056393 g / cm^3
# Si number density = 20.610845 Si / 1000 Ang^3
#
#
#
# Elastic Constant Matrix: (Units=GPa)
#
#
# Indices 1 2 3 4 5 6 
#
# 1 102.1051 10.7894 35.3251 0.0000 0.0000 0.0000
# 2 10.7894 66.5515 17.9527 0.0000 0.0000 0.0000
# 3 35.3251 17.9527 45.2432 0.0000 0.0000 0.0000
# 4 0.0000 0.0000 0.0000 13.4948 0.0000 0.0000
# 5 0.0000 0.0000 0.0000 0.0000 17.9762 0.0000
# 6 0.0000 0.0000 0.0000 0.0000 0.0000 19.2749
#
#
#
# Elastic Compliance Matrix: (Units=1/GPa)
#
#
# Indices 1 2 3 4 5 6 
#
# 1 0.013450 0.000731 -0.010792 0.000000 0.000000 0.000000
# 2 0.000731 0.016867 -0.007263 0.000000 0.000000 0.000000
# 3 -0.010792 -0.007263 0.033411 0.000000 0.000000 0.000000
# 4 0.000000 0.000000 0.000000 0.074102 0.000000 0.000000
# 5 0.000000 0.000000 0.000000 0.000000 0.055629 0.000000
# 6 0.000000 0.000000 0.000000 0.000000 0.000000 0.051881
#
#
# Mechanical properties :
#
#
# Convention : Reuss Voigt Hill
#
# Bulk Modulus (GPa) = 34.38880 38.00381 36.19631
# Shear Modulus (GPa) = 17.26033 20.13803 18.69918
#
# Velocity S-wave (km/s) = 2.89699 3.12919 3.01533
# Velocity P-wave (km/s) = 5.28310 5.61556 5.45186
#
# Compressibility (1/GPa) = 0.02907923
#
# Stress axis : x y z
#
# Youngs Moduli (GPa) = 74.34855 59.28795 29.93055
#
# Poissons Ratio (x) = -0.04331 0.32300
# Poissons Ratio (y) = -0.05431 0.21739
# Poissons Ratio (z) = 0.80234 0.43062
#
# Static dielectric constant tensor:
#      x y z
#    x 1.749450 0.000000 0.000000 
#    y 0.000000 1.815380 0.000000 
#    z 0.000000 0.000000 1.748010 
# 
# From -- ./inp_files/25678.got.cif
#   From: 2010.05.17/outbox.cif.g08.bks.cpg/sg20_13_cif.got.tgz:25678.got - 2010.06.03 22:52:26.
