data_PCOD9318698
_publ_section_title
;
Structure prediction by ZEFSAII (Michael W. Deem and Ramdas Pophale) SiO2 
 PCOD9318698
Probable space group: C 2 2 21
;
_chemical_formula_sum "Si O2"
_cell_formula_units_Z 48
_cell_length_a 7.158390
_cell_length_b 18.104597
_cell_length_c 15.564458
_cell_angle_alpha 90.000000
_cell_angle_beta 90.000000
_cell_angle_gamma 90.000000
_cell_volume 2017.150117
_symmetry_space_group_name_H-M "C 2 2 21"
_symmetry_group_IT_number 20
_symmetry_cell_setting 'orthorhombic'
loop_
_space_group_symop_operation_xyz
x,y,z
-x,-y,1/2+z
x,-y,-z
-x,y,1/2-z
1/2+x,1/2+y,z
1/2-x,1/2-y,1/2+z
1/2+x,1/2-y,-z
1/2-x,1/2+y,1/2-z
loop_
_atom_site_type_symbol
_atom_site_label
_atom_site_fract_x
_atom_site_fract_y
_atom_site_fract_z
Si Si1 0.259618 0.659408 0.660726
Si Si2 0.821179 0.214774 0.836875
Si Si3 0.386521 0.403287 0.831690
Si Si4 0.735077 0.705492 0.463702
Si Si5 0.529578 0.129641 0.354735
Si Si6 0.185842 0.999755 0.898662
O O1 0.205316 0.680974 0.758176
O O2 0.484001 0.670707 0.660350
O O3 0.200775 0.719714 0.589802
O O4 0.225591 0.575925 0.633821
O O5 0.866251 0.299827 0.813777
O O6 0.756881 0.212137 0.934905
O O7 0.500000 0.372804 0.750000
O O8 0.405490 0.352855 0.917658
O O9 0.162749 0.405107 0.814509
O O10 0.489037 0.480024 0.852974
O O11 0.933748 0.670797 0.435861
O O12 0.673056 0.066677 0.378059
O O13 0.154937 0.000000 0.000000
#
# Coordination Sequence:
#
# PCOD9318698 Si02
#       6
#     8   8   8   8   8   8
#     4  10  23  40  75 112 140 196 243 311 380 422
#     4  10  20  44  75 103 152 189 251 313 357 448
#     4  10  25  45  73 102 139 198 251 292 378 454
#     4   9  21  46  72 105 142 196 251 295 367 438
#     4   9  24  46  74 103 143 203 245 296 381 451
#     4  12  25  45  75 105 153 191 246 313 386 452
#
# _framework density 23.795950000000001
#
# number of rings (size 3 to 8) (size 9 to 14) (size 15 to 20)
#    1.000    1.000    0.000    2.000    4.667    4.000 
#    0.000    1.667   11.000    0.000    0.000    0.000 
#    0.000    0.000    0.000    0.000    0.000    0.000 
#
# Total GULP energy -133979.181909 kJ/mol
# GULP energy per Si atom -5582.465913 kJ/mol
# Density = 2.374179 g / cm^3
# Si number density = 23.795950 Si / 1000 Ang^3
#
#
#
# Elastic Constant Matrix: (Units=GPa)
#
#
# Indices 1 2 3 4 5 6 
#
# 1 69.3402 -2.3118 0.5983 0.0000 0.0000 0.0000
# 2 -2.3118 134.2709 41.8209 0.0000 0.0000 0.0000
# 3 0.5983 41.8209 187.1408 0.0000 0.0000 0.0000
# 4 0.0000 0.0000 0.0000 26.1691 0.0000 0.0000
# 5 0.0000 0.0000 0.0000 0.0000 22.7432 0.0000
# 6 0.0000 0.0000 0.0000 0.0000 0.0000 32.9522
#
#
#
# Elastic Compliance Matrix: (Units=1/GPa)
#
#
# Indices 1 2 3 4 5 6 
#
# 1 0.014432 0.000283 -0.000109 0.000000 0.000000 0.000000
# 2 0.000283 0.008010 -0.001791 0.000000 0.000000 0.000000
# 3 -0.000109 -0.001791 0.005744 0.000000 0.000000 0.000000
# 4 0.000000 0.000000 0.000000 0.038213 0.000000 0.000000
# 5 0.000000 0.000000 0.000000 0.000000 0.043969 0.000000
# 6 0.000000 0.000000 0.000000 0.000000 0.000000 0.030347
#
#
# Mechanical properties :
#
#
# Convention : Reuss Voigt Hill
#
# Bulk Modulus (GPa) = 40.07858 52.32965 46.20411
# Shear Modulus (GPa) = 32.83682 39.74921 36.29301
#
# Velocity S-wave (km/s) = 3.71878 4.09151 3.90959
# Velocity P-wave (km/s) = 5.94291 6.66028 6.31180
#
# Compressibility (1/GPa) = 0.02495099
#
# Stress axis : x y z
#
# Youngs Moduli (GPa) = 69.29042 124.83884 174.08988
#
# Poissons Ratio (x) = -0.03527 0.01902
# Poissons Ratio (y) = -0.01958 0.31179
# Poissons Ratio (z) = 0.00757 0.22359
#
# Static dielectric constant tensor:
#      x y z
#    x 1.975680 0.000000 0.000000 
#    y 0.000000 1.862260 0.000000 
#    z 0.000000 0.000000 1.981670 
# 
# From -- ./inp_files/20115.got.cif
#   From: 2010.05.17/outbox.cif.g08.bks.cpg/sg20_11_cif.got.tgz:20115.got - 2010.06.03 22:52:26.
