data_PCOD9318569
_publ_section_title
;
Structure prediction by ZEFSAII (Michael W. Deem and Ramdas Pophale) SiO2 
 PCOD9318569
Probable space group: C 2 2 21
;
_chemical_formula_sum "Si O2"
_cell_formula_units_Z 48
_cell_length_a 30.196434
_cell_length_b 9.053181
_cell_length_c 8.567334
_cell_angle_alpha 90.000000
_cell_angle_beta 90.000000
_cell_angle_gamma 90.000000
_cell_volume 2342.084502
_symmetry_space_group_name_H-M "C 2 2 21"
_symmetry_group_IT_number 20
_symmetry_cell_setting 'orthorhombic'
loop_
_space_group_symop_operation_xyz
x,y,z
-x,-y,1/2+z
x,-y,-z
-x,y,1/2-z
1/2+x,1/2+y,z
1/2-x,1/2-y,1/2+z
1/2+x,1/2-y,-z
1/2-x,1/2+y,1/2-z
loop_
_atom_site_type_symbol
_atom_site_label
_atom_site_fract_x
_atom_site_fract_y
_atom_site_fract_z
Si Si1 0.000477 0.500000 0.000000
Si Si2 0.480838 0.500000 0.500000
Si Si3 0.570214 0.766322 0.978069
Si Si4 0.761712 0.500000 0.500000
Si Si5 0.949848 0.774716 0.849142
Si Si6 0.187066 0.007525 0.749728
Si Si7 0.672204 0.738530 0.002388
Si Si8 0.384025 0.500000 0.000000
O O1 0.969210 0.617676 0.910478
O O2 0.036636 0.608090 0.084276
O O3 0.448057 0.388579 0.409230
O O4 0.512331 0.605435 0.399053
O O5 0.563110 0.750313 0.167513
O O6 0.622397 0.787172 0.954627
O O7 0.729475 0.468518 0.645879
O O8 0.794597 0.631707 0.540766
O O9 0.910121 0.855966 0.938877
O O10 0.169659 0.871082 0.851330
O O11 0.147636 0.053767 0.636953
O O12 0.194523 0.142438 0.866007
#
# Coordination Sequence:
#
# PCOD9318569 Si02
#       8
#     4   4   8   4   8   8   8   4
#     4  10  21  38  53  86 124 172 191 260 305 366
#     4   9  18  33  60  86 112 164 208 257 290 351
#     4  11  21  39  59  89 125 160 216 255 308 359
#     4  11  23  41  66  98 128 160 196 255 323 387
#     4  10  21  39  58  85 126 164 215 253 313 348
#     4  10  22  41  67  93 125 158 211 251 317 368
#     4  11  22  41  66  97 124 166 203 262 307 378
#     4  10  20  42  63  90 118 166 209 274 286 372
#
# _framework density 20.494565000000001
#
# number of rings (size 3 to 8) (size 9 to 14) (size 15 to 20)
#    0.000    1.667    1.667    4.500    0.000    0.000 
#    9.000    6.667    0.000    0.000    0.000    0.000 
#    0.000    0.000    0.000    0.000    0.000    0.000 
#
# Total GULP energy -133761.962015 kJ/mol
# GULP energy per Si atom -5573.415084 kJ/mol
# Density = 2.044792 g / cm^3
# Si number density = 20.494565 Si / 1000 Ang^3
#
#
#
# Elastic Constant Matrix: (Units=GPa)
#
#
# Indices 1 2 3 4 5 6 
#
# 1 92.4893 17.4533 8.9138 0.0000 0.0000 0.0000
# 2 17.4533 96.3216 10.5586 0.0000 0.0000 0.0000
# 3 8.9138 10.5586 64.0013 0.0000 0.0000 0.0000
# 4 0.0000 0.0000 0.0000 12.2113 0.0000 0.0000
# 5 0.0000 0.0000 0.0000 0.0000 20.9737 0.0000
# 6 0.0000 0.0000 0.0000 0.0000 0.0000 26.2824
#
#
#
# Elastic Compliance Matrix: (Units=1/GPa)
#
#
# Indices 1 2 3 4 5 6 
#
# 1 0.011293 -0.001908 -0.001258 0.000000 0.000000 0.000000
# 2 -0.001908 0.010896 -0.001532 0.000000 0.000000 0.000000
# 3 -0.001258 -0.001532 0.016053 0.000000 0.000000 0.000000
# 4 0.000000 0.000000 0.000000 0.081892 0.000000 0.000000
# 5 0.000000 0.000000 0.000000 0.000000 0.047679 0.000000
# 6 0.000000 0.000000 0.000000 0.000000 0.000000 0.038048
#
#
# Mechanical properties :
#
#
# Convention : Reuss Voigt Hill
#
# Bulk Modulus (GPa) = 34.66778 36.29596 35.48187
# Shear Modulus (GPa) = 22.23492 26.28592 24.26042
#
# Velocity S-wave (km/s) = 3.29738 3.58520 3.44430
# Velocity P-wave (km/s) = 5.60797 5.90650 5.75917
#
# Compressibility (1/GPa) = 0.02884523
#
# Stress axis : x y z
#
# Youngs Moduli (GPa) = 88.54693 91.78019 62.29526
#
# Poissons Ratio (x) = 0.17516 0.07837
# Poissons Ratio (y) = 0.16899 0.09542
# Poissons Ratio (z) = 0.11140 0.14058
#
# Static dielectric constant tensor:
#      x y z
#    x 1.759620 0.000000 0.000000 
#    y 0.000000 1.770760 0.000000 
#    z 0.000000 0.000000 1.825750 
# 
# From -- ./inp_files/11525.got.cif
#   From: 2010.05.17/outbox.cif.g08.bks.cpg/sg20_6_cif.got.tgz:11525.got - 2010.06.03 22:52:26.
