data_PCOD9318470
_publ_section_title
;
Structure prediction by ZEFSAII (Michael W. Deem and Ramdas Pophale) SiO2 
 PCOD9318470
Probable space group: C 2 2 21
;
_chemical_formula_sum "Si O2"
_cell_formula_units_Z 56
_cell_length_a 14.670662
_cell_length_b 15.166409
_cell_length_c 11.598587
_cell_angle_alpha 90.000000
_cell_angle_beta 90.000000
_cell_angle_gamma 90.000000
_cell_volume 2580.700224
_symmetry_space_group_name_H-M "C 2 2 21"
_symmetry_group_IT_number 20
_symmetry_cell_setting 'orthorhombic'
loop_
_space_group_symop_operation_xyz
x,y,z
-x,-y,1/2+z
x,-y,-z
-x,y,1/2-z
1/2+x,1/2+y,z
1/2-x,1/2-y,1/2+z
1/2+x,1/2-y,-z
1/2-x,1/2+y,1/2-z
loop_
_atom_site_type_symbol
_atom_site_label
_atom_site_fract_x
_atom_site_fract_y
_atom_site_fract_z
Si Si1 0.092402 0.682002 0.824287
Si Si2 0.290807 0.331655 0.247558
Si Si3 0.693327 0.857592 0.816584
Si Si4 0.783691 0.982000 0.625325
Si Si5 0.346860 0.604534 0.003081
Si Si6 0.037878 0.864844 0.881961
Si Si7 0.954338 0.506571 0.376883
O O1 0.183785 0.693773 0.752164
O O2 0.079518 0.767540 0.903011
O O3 0.101205 0.585070 0.876006
O O4 0.000000 0.679290 0.750000
O O5 0.337083 0.241816 0.289829
O O6 0.300085 0.422893 0.316290
O O7 0.322604 0.352331 0.118285
O O8 0.613050 0.911441 0.876325
O O9 0.724028 0.916478 0.705394
O O10 0.780761 0.856663 0.899768
O O11 0.741702 0.000000 0.500000
O O12 0.880803 0.934154 0.607977
O O13 0.329298 0.500000 0.000000
O O14 0.451890 0.618425 0.037129
O O15 0.000000 0.868682 0.750000
O O16 0.007281 0.500000 0.500000
O O17 0.000000 0.510813 0.250000
#
# Coordination Sequence:
#
# PCOD9318470 Si02
#       7
#     8   8   8   8   8   8   8
#     4  10  20  40  68  98 138 188 244 296 366 445
#     4  12  25  44  71 109 139 195 248 299 372 450
#     4  12  24  45  71 102 144 188 243 303 366 445
#     4  12  26  42  66 104 144 183 238 310 364 433
#     4  12  23  45  76 100 146 197 247 303 371 453
#     4  11  21  43  68 102 137 185 244 301 367 433
#     4  11  25  45  70  98 140 191 243 301 367 449
#
# _framework density 21.699538
#
# number of rings (size 3 to 8) (size 9 to 14) (size 15 to 20)
#    0.000    0.571    5.714    2.571    2.000    2.857 
#    0.000    2.143    0.000    0.000    0.000    0.000 
#    0.000    0.000    0.000    0.000    0.000    0.000 
#
# Total GULP energy -156451.971662 kJ/mol
# GULP energy per Si atom -5587.570417 kJ/mol
# Density = 2.165015 g / cm^3
# Si number density = 21.699538 Si / 1000 Ang^3
#
#
#
# Elastic Constant Matrix: (Units=GPa)
#
#
# Indices 1 2 3 4 5 6 
#
# 1 70.7484 9.7977 9.0313 0.0000 0.0000 0.0000
# 2 9.7977 160.2250 24.0873 0.0000 0.0000 0.0000
# 3 9.0313 24.0873 98.9621 0.0000 0.0000 0.0000
# 4 0.0000 0.0000 0.0000 13.2794 0.0000 0.0000
# 5 0.0000 0.0000 0.0000 0.0000 13.0903 0.0000
# 6 0.0000 0.0000 0.0000 0.0000 0.0000 45.9547
#
#
#
# Elastic Compliance Matrix: (Units=1/GPa)
#
#
# Indices 1 2 3 4 5 6 
#
# 1 0.014378 -0.000708 -0.001140 0.000000 0.000000 0.000000
# 2 -0.000708 0.006513 -0.001521 0.000000 0.000000 0.000000
# 3 -0.001140 -0.001521 0.010579 0.000000 0.000000 0.000000
# 4 0.000000 0.000000 0.000000 0.075305 0.000000 0.000000
# 5 0.000000 0.000000 0.000000 0.000000 0.076393 0.000000
# 6 0.000000 0.000000 0.000000 0.000000 0.000000 0.021761
#
#
# Mechanical properties :
#
#
# Convention : Reuss Voigt Hill
#
# Bulk Modulus (GPa) = 40.43104 46.19646 43.31375
# Shear Modulus (GPa) = 22.73661 33.59948 28.16805
#
# Velocity S-wave (km/s) = 3.24047 3.93924 3.60682
# Velocity P-wave (km/s) = 5.71608 6.48270 6.11142
#
# Compressibility (1/GPa) = 0.02473347
#
# Stress axis : x y z
#
# Youngs Moduli (GPa) = 69.55009 153.53628 94.52658
#
# Poissons Ratio (x) = 0.10868 0.10775
# Poissons Ratio (y) = 0.04923 0.14375
# Poissons Ratio (z) = 0.07928 0.23348
#
# Static dielectric constant tensor:
#      x y z
#    x 1.825230 0.000000 0.000000 
#    y 0.000000 1.834390 0.000000 
#    z 0.000000 0.000000 1.831710 
# 
# From -- ./inp_files/15162.got.cif
#   From: 2010.05.17/outbox.cif.g08.bks.cpg/sg20_8_cif.got.tgz:15162.got - 2010.06.03 22:52:26.
