data_PCOD9318824
_publ_section_title
;
Structure prediction by ZEFSAII (Michael W. Deem and Ramdas Pophale) SiO2 
 PCOD9318824
Probable space group: C 2 2 21
;
_chemical_formula_sum "Si O2"
_cell_formula_units_Z 64
_cell_length_a 19.686896
_cell_length_b 11.558308
_cell_length_c 13.942518
_cell_angle_alpha 90.000000
_cell_angle_beta 90.000000
_cell_angle_gamma 90.000000
_cell_volume 3172.581037
_symmetry_space_group_name_H-M "C 2 2 21"
_symmetry_group_IT_number 20
_symmetry_cell_setting 'orthorhombic'
loop_
_space_group_symop_operation_xyz
x,y,z
-x,-y,1/2+z
x,-y,-z
-x,y,1/2-z
1/2+x,1/2+y,z
1/2-x,1/2-y,1/2+z
1/2+x,1/2-y,-z
1/2-x,1/2+y,1/2-z
loop_
_atom_site_type_symbol
_atom_site_label
_atom_site_fract_x
_atom_site_fract_y
_atom_site_fract_z
Si Si1 0.558039 0.708480 0.810901
Si Si2 0.336971 0.869801 0.472722
Si Si3 0.935886 0.698465 0.811358
Si Si4 0.306954 0.282429 0.706164
Si Si5 0.506323 0.170826 0.010901
Si Si6 0.795057 0.208743 0.651585
Si Si7 0.734732 0.975739 0.611276
Si Si8 0.915098 0.431507 0.825122
O O1 0.500000 0.647172 0.750000
O O2 0.527837 0.726930 0.916414
O O3 0.632530 0.657954 0.817080
O O4 0.571344 0.833450 0.755932
O O5 0.311058 0.822493 0.370676
O O6 0.419843 0.869333 0.472491
O O7 0.309839 0.781418 0.555013
O O8 0.315672 0.000000 0.500000
O O9 0.871044 0.770052 0.776093
O O10 0.924178 0.561972 0.788202
O O11 0.000000 0.738544 0.750000
O O12 0.957105 0.702590 0.923220
O O13 0.239278 0.289500 0.770160
O O14 0.297794 0.396870 0.642691
O O15 0.466678 0.087192 0.085486
O O16 0.742231 0.103943 0.652218
O O17 0.661242 0.923335 0.635131
O O18 0.738737 0.000000 0.500000
#
# Coordination Sequence:
#
# PCOD9318824 Si02
#       8
#     8   8   8   8   8   8   8   8
#     4   9  20  39  63  91 120 165 215 269 330 393
#     4  11  24  41  66  99 132 167 212 269 341 399
#     4  12  22  35  58  94 129 164 208 265 338 387
#     4  12  26  41  63  94 134 176 213 274 322 401
#     4  10  21  36  61  96 133 162 201 275 346 395
#     4  11  24  42  66  91 131 174 217 269 331 396
#     4  12  24  43  61  92 135 179 226 263 326 400
#     4  11  21  35  62  97 131 160 210 276 337 403
#
# _framework density 20.172848999999999
#
# number of rings (size 3 to 8) (size 9 to 14) (size 15 to 20)
#    0.000    1.000    5.000    3.000    5.250    0.000 
#    0.000    0.625    0.000    0.000    0.000    0.000 
#    0.000    0.000    0.000    0.000    0.000    0.000 
#
# Total GULP energy -178449.867602 kJ/mol
# GULP energy per Si atom -5576.558363 kJ/mol
# Density = 2.012693 g / cm^3
# Si number density = 20.172849 Si / 1000 Ang^3
#
#
#
# Elastic Constant Matrix: (Units=GPa)
#
#
# Indices 1 2 3 4 5 6 
#
# 1 93.8746 12.9263 39.7734 0.0000 0.0000 0.0000
# 2 12.9263 33.0821 14.9524 0.0000 0.0000 0.0000
# 3 39.7734 14.9524 110.6019 0.0000 0.0000 0.0000
# 4 0.0000 0.0000 0.0000 14.6267 0.0000 0.0000
# 5 0.0000 0.0000 0.0000 0.0000 49.2508 0.0000
# 6 0.0000 0.0000 0.0000 0.0000 0.0000 28.0952
#
#
#
# Elastic Compliance Matrix: (Units=1/GPa)
#
#
# Indices 1 2 3 4 5 6 
#
# 1 0.012864 -0.003127 -0.004203 0.000000 0.000000 0.000000
# 2 -0.003127 0.032955 -0.003331 0.000000 0.000000 0.000000
# 3 -0.004203 -0.003331 0.011003 0.000000 0.000000 0.000000
# 4 0.000000 0.000000 0.000000 0.068368 0.000000 0.000000
# 5 0.000000 0.000000 0.000000 0.000000 0.020304 0.000000
# 6 0.000000 0.000000 0.000000 0.000000 0.000000 0.035593
#
#
# Mechanical properties :
#
#
# Convention : Reuss Voigt Hill
#
# Bulk Modulus (GPa) = 28.16848 41.42921 34.79885
# Shear Modulus (GPa) = 23.33800 29.72164 26.52982
#
# Velocity S-wave (km/s) = 3.40502 3.84259 3.63040
# Velocity P-wave (km/s) = 5.42704 6.34579 5.90431
#
# Compressibility (1/GPa) = 0.03550067
#
# Stress axis : x y z
#
# Youngs Moduli (GPa) = 77.73689 30.34445 90.88193
#
# Poissons Ratio (x) = 0.09487 0.38200
# Poissons Ratio (y) = 0.24305 0.30272
# Poissons Ratio (z) = 0.32675 0.10107
#
# Static dielectric constant tensor:
#      x y z
#    x 1.734770 0.000000 0.000000 
#    y 0.000000 1.616490 0.000000 
#    z 0.000000 0.000000 1.857760 
# 
# From -- ./inp_files/21520.got.cif
#   From: 2010.05.17/outbox.cif.g08.bks.cpg/sg20_11_cif.got.tgz:21520.got - 2010.06.03 22:52:26.
