data_PCOD9318998
_publ_section_title
;
Structure prediction by ZEFSAII (Michael W. Deem and Ramdas Pophale) SiO2 
 PCOD9318998
Probable space group: C 2 2 21
;
_chemical_formula_sum "Si O2"
_cell_formula_units_Z 40
_cell_length_a 18.817978
_cell_length_b 10.225686
_cell_length_c 10.137357
_cell_angle_alpha 90.000000
_cell_angle_beta 90.000000
_cell_angle_gamma 90.000000
_cell_volume 1950.698501
_symmetry_space_group_name_H-M "C 2 2 21"
_symmetry_group_IT_number 20
_symmetry_cell_setting 'orthorhombic'
loop_
_space_group_symop_operation_xyz
x,y,z
-x,-y,1/2+z
x,-y,-z
-x,y,1/2-z
1/2+x,1/2+y,z
1/2-x,1/2-y,1/2+z
1/2+x,1/2-y,-z
1/2-x,1/2+y,1/2-z
loop_
_atom_site_type_symbol
_atom_site_label
_atom_site_fract_x
_atom_site_fract_y
_atom_site_fract_z
Si Si1 0.580738 0.440260 0.790603
Si Si2 0.910568 0.207329 0.541423
Si Si3 0.962778 0.393741 0.886185
Si Si4 0.316318 0.189423 0.240358
Si Si5 0.215720 0.978386 0.348608
O O1 0.500000 0.417099 0.750000
O O2 0.583390 0.573424 0.875879
O O3 0.635770 0.465855 0.673721
O O4 0.603824 0.325899 0.890171
O O5 0.848651 0.286504 0.613501
O O6 0.984838 0.280882 0.561878
O O7 0.885102 0.341508 0.848759
O O8 0.000000 0.442679 0.750000
O O9 0.958465 0.500000 0.000000
O O10 0.264179 0.066783 0.252481
O O11 0.282848 0.325881 0.191483
O O12 0.235670 0.000000 0.500000
#
# Coordination Sequence:
#
# PCOD9318998 Si02
#       5
#     8   8   8   8   8
#     4  10  21  38  67  95 122 168 219 273 335 404
#     4   9  20  41  64  92 131 164 215 275 336 396
#     4  10  22  43  68  99 136 177 225 287 347 412
#     4  10  24  45  66  93 137 178 221 283 339 407
#     4  11  26  44  66  97 135 179 228 283 345 410
#
# _framework density 20.505475000000001
#
# number of rings (size 3 to 8) (size 9 to 14) (size 15 to 20)
#    0.000    2.000    0.000    3.000    8.400    5.600 
#    3.600    0.000    0.000    0.000    0.000    0.000 
#    0.000    0.000    0.000    0.000    0.000    0.000 
#
# Total GULP energy -111704.614909 kJ/mol
# GULP energy per Si atom -5585.230745 kJ/mol
# Density = 2.045880 g / cm^3
# Si number density = 20.505475 Si / 1000 Ang^3
#
#
#
# Elastic Constant Matrix: (Units=GPa)
#
#
# Indices 1 2 3 4 5 6 
#
# 1 76.2096 61.0639 10.7575 0.0000 0.0000 0.0000
# 2 61.0639 108.6261 45.5529 0.0000 0.0000 0.0000
# 3 10.7575 45.5529 64.2782 0.0000 0.0000 0.0000
# 4 0.0000 0.0000 0.0000 21.9056 0.0000 0.0000
# 5 0.0000 0.0000 0.0000 0.0000 11.1239 0.0000
# 6 0.0000 0.0000 0.0000 0.0000 0.0000 28.0412
#
#
#
# Elastic Compliance Matrix: (Units=1/GPa)
#
#
# Indices 1 2 3 4 5 6 
#
# 1 0.027026 -0.018918 0.008884 0.000000 0.000000 0.000000
# 2 -0.018918 0.026341 -0.015502 0.000000 0.000000 0.000000
# 3 0.008884 -0.015502 0.025056 0.000000 0.000000 0.000000
# 4 0.000000 0.000000 0.000000 0.045651 0.000000 0.000000
# 5 0.000000 0.000000 0.000000 0.000000 0.089897 0.000000
# 6 0.000000 0.000000 0.000000 0.000000 0.000000 0.035662
#
#
# Mechanical properties :
#
#
# Convention : Reuss Voigt Hill
#
# Bulk Modulus (GPa) = 36.56020 53.76248 45.16134
# Shear Modulus (GPa) = 16.13831 20.99677 18.56754
#
# Velocity S-wave (km/s) = 2.80844 3.20341 3.01240
# Velocity P-wave (km/s) = 5.32772 6.32123 5.84562
#
# Compressibility (1/GPa) = 0.02735215
#
# Stress axis : x y z
#
# Youngs Moduli (GPa) = 37.00128 37.96315 39.91020
#
# Poissons Ratio (x) = 0.71819 -0.35456
# Poissons Ratio (y) = 0.70000 0.61867
# Poissons Ratio (z) = -0.32872 0.58849
#
# Static dielectric constant tensor:
#      x y z
#    x 1.724270 0.000000 0.000000 
#    y 0.000000 1.725430 0.000000 
#    z 0.000000 0.000000 1.687600 
# 
# From -- ./inp_files/15551.got.cif
#   From: 2010.05.17/outbox.cif.g08.bks.cpg/sg20_8_cif.got.tgz:15551.got - 2010.06.03 22:52:26.
