data_PCOD9318361
_publ_section_title
;
Structure prediction by ZEFSAII (Michael W. Deem and Ramdas Pophale) SiO2 
 PCOD9318361
Probable space group: C 2 2 21
;
_chemical_formula_sum "Si O2"
_cell_formula_units_Z 60
_cell_length_a 15.129884
_cell_length_b 8.278370
_cell_length_c 23.258745
_cell_angle_alpha 90.000000
_cell_angle_beta 90.000000
_cell_angle_gamma 90.000000
_cell_volume 2913.175902
_symmetry_space_group_name_H-M "C 2 2 21"
_symmetry_group_IT_number 20
_symmetry_cell_setting 'orthorhombic'
loop_
_space_group_symop_operation_xyz
x,y,z
-x,-y,1/2+z
x,-y,-z
-x,y,1/2-z
1/2+x,1/2+y,z
1/2-x,1/2-y,1/2+z
1/2+x,1/2-y,-z
1/2-x,1/2+y,1/2-z
loop_
_atom_site_type_symbol
_atom_site_label
_atom_site_fract_x
_atom_site_fract_y
_atom_site_fract_z
Si Si1 0.064402 0.024407 0.823896
Si Si2 0.374079 0.377561 0.447134
Si Si3 0.690838 0.276085 0.255742
Si Si4 0.000000 0.257377 0.250000
Si Si5 0.180987 0.283200 0.422666
Si Si6 0.433077 0.314598 0.024708
Si Si7 0.653358 0.928846 0.308863
Si Si8 0.863595 0.942807 0.136169
O O1 0.063333 0.857964 0.788231
O O2 0.961411 0.055342 0.836099
O O3 0.109666 0.029209 0.886538
O O4 0.111460 0.157221 0.784203
O O5 0.363778 0.500000 0.500000
O O6 0.282982 0.280800 0.441624
O O7 0.465024 0.278804 0.459114
O O8 0.776926 0.301826 0.217503
O O9 0.699048 0.384428 0.313181
O O10 0.673486 0.098007 0.278869
O O11 0.057145 0.366525 0.292194
O O12 0.114102 0.289776 0.476072
O O13 0.166259 0.426069 0.377113
O O14 0.158932 0.118181 0.388519
O O15 0.373410 0.324929 0.081662
O O16 0.435917 0.500000 0.000000
#
# Coordination Sequence:
#
# PCOD9318361 Si02
#       8
#     8   8   8   4   8   8   8   8
#     4  11  20  40  72  95 135 178 223 273 345 412
#     4  10  22  37  68  99 129 180 232 275 350 412
#     4  12  24  43  65 101 138 179 230 279 343 419
#     4  12  24  42  66 104 136 176 216 284 344 408
#     4  11  20  42  67  98 136 175 235 289 341 414
#     4   8  19  38  63  94 125 176 229 269 338 412
#     4  12  27  40  66 100 138 179 229 282 346 406
#     4  10  20  39  68  95 130 179 223 279 344 402
#
# _framework density 20.596079
#
# number of rings (size 3 to 8) (size 9 to 14) (size 15 to 20)
#    0.000    1.333    4.000    2.400    1.867    1.067 
#    0.000    0.000    0.000    8.800    0.000    0.000 
#    0.000    0.000    0.000    0.000    0.000    0.000 
#
# Total GULP energy -167561.879212 kJ/mol
# GULP energy per Si atom -5585.395974 kJ/mol
# Density = 2.054920 g / cm^3
# Si number density = 20.596079 Si / 1000 Ang^3
#
#
#
# Elastic Constant Matrix: (Units=GPa)
#
#
# Indices 1 2 3 4 5 6 
#
# 1 85.4859 8.0600 32.3309 0.0000 0.0000 0.0000
# 2 8.0600 62.4851 26.0102 0.0000 0.0000 0.0000
# 3 32.3309 26.0102 140.0745 0.0000 0.0000 0.0000
# 4 0.0000 0.0000 0.0000 20.6315 0.0000 0.0000
# 5 0.0000 0.0000 0.0000 0.0000 41.8594 0.0000
# 6 0.0000 0.0000 0.0000 0.0000 0.0000 19.0155
#
#
#
# Elastic Compliance Matrix: (Units=1/GPa)
#
#
# Indices 1 2 3 4 5 6 
#
# 1 0.012829 -0.000458 -0.002876 0.000000 0.000000 0.000000
# 2 -0.000458 0.017361 -0.003118 0.000000 0.000000 0.000000
# 3 -0.002876 -0.003118 0.008382 0.000000 0.000000 0.000000
# 4 0.000000 0.000000 0.000000 0.048470 0.000000 0.000000
# 5 0.000000 0.000000 0.000000 0.000000 0.023890 0.000000
# 6 0.000000 0.000000 0.000000 0.000000 0.000000 0.052589
#
#
# Mechanical properties :
#
#
# Convention : Reuss Voigt Hill
#
# Bulk Modulus (GPa) = 38.95917 46.76088 42.86003
# Shear Modulus (GPa) = 27.03017 31.07757 29.05387
#
# Velocity S-wave (km/s) = 3.62663 3.88868 3.75994
# Velocity P-wave (km/s) = 6.04098 6.55099 6.30115
#
# Compressibility (1/GPa) = 0.02566790
#
# Stress axis : x y z
#
# Youngs Moduli (GPa) = 77.95019 57.60113 119.30497
#
# Poissons Ratio (x) = 0.02636 0.34313
# Poissons Ratio (y) = 0.03567 0.37200
# Poissons Ratio (z) = 0.22419 0.17960
#
# Static dielectric constant tensor:
#      x y z
#    x 1.736200 0.000000 0.000000 
#    y 0.000000 1.744300 0.000000 
#    z 0.000000 0.000000 1.752480 
# 
# From -- ./inp_files/29291.got.cif
#   From: 2010.05.17/outbox.cif.g08.bks.cpg/sg20_15_cif.got.tgz:29291.got - 2010.06.03 22:52:26.
