data_PCOD9318898
_publ_section_title
;
Structure prediction by ZEFSAII (Michael W. Deem and Ramdas Pophale) SiO2 
 PCOD9318898
Probable space group: C 2 2 21
;
_chemical_formula_sum "Si O2"
_cell_formula_units_Z 60
_cell_length_a 9.200024
_cell_length_b 29.146236
_cell_length_c 11.844682
_cell_angle_alpha 90.000000
_cell_angle_beta 90.000000
_cell_angle_gamma 90.000000
_cell_volume 3176.104937
_symmetry_space_group_name_H-M "C 2 2 21"
_symmetry_group_IT_number 20
_symmetry_cell_setting 'orthorhombic'
loop_
_space_group_symop_operation_xyz
x,y,z
-x,-y,1/2+z
x,-y,-z
-x,y,1/2-z
1/2+x,1/2+y,z
1/2-x,1/2-y,1/2+z
1/2+x,1/2-y,-z
1/2-x,1/2+y,1/2-z
loop_
_atom_site_type_symbol
_atom_site_label
_atom_site_fract_x
_atom_site_fract_y
_atom_site_fract_z
Si Si1 0.748133 0.744700 0.745268
Si Si2 0.000000 0.831608 0.250000
Si Si3 0.697871 0.113111 0.128197
Si Si4 0.232380 0.102966 0.119047
Si Si5 0.991433 0.242527 0.072716
Si Si6 0.986451 0.471259 0.882160
Si Si7 0.433675 0.816449 0.884491
Si Si8 0.971756 0.137481 0.995351
O O1 0.642091 0.701262 0.750491
O O2 0.841546 0.751924 0.857807
O O3 0.648256 0.787765 0.712692
O O4 0.871310 0.742813 0.648401
O O5 0.004248 0.861378 0.362474
O O6 0.781780 0.113142 0.247534
O O7 0.620171 0.064460 0.112006
O O8 0.566348 0.149082 0.136740
O O9 0.807900 0.126069 0.030175
O O10 0.338338 0.059226 0.111716
O O11 0.314811 0.147580 0.067833
O O12 0.079123 0.102233 0.057574
O O13 0.983037 0.276553 0.968179
O O14 0.003212 0.189485 0.038101
O O15 0.000000 0.490548 0.750000
O O16 0.990199 0.500000 0.000000
#
# Coordination Sequence:
#
# PCOD9318898 Si02
#       8
#     8   4   8   8   8   8   8   8
#     4  11  24  35  49  76 106 159 215 258 300 342
#     4  12  26  36  52  74 128 172 210 262 300 354
#     4  10  23  37  64  91 116 152 202 250 299 355
#     4  10  21  37  63  92 115 150 202 250 292 360
#     4  11  24  36  52  76 113 164 212 257 304 343
#     4   9  20  44  71 101 123 152 189 244 310 383
#     4  11  20  35  55  79 111 156 210 252 295 342
#     4  12  23  38  54  85 124 161 205 255 305 350
#
# _framework density 18.891064
#
# number of rings (size 3 to 8) (size 9 to 14) (size 15 to 20)
#    0.000    1.333    2.667    4.000    5.600    0.000 
#    2.400    0.667    5.867    0.000    0.000    0.000 
#    0.000    0.000    0.000    0.000    0.000    0.000 
#
# Total GULP energy -167458.551739 kJ/mol
# GULP energy per Si atom -5581.951725 kJ/mol
# Density = 1.884807 g / cm^3
# Si number density = 18.891064 Si / 1000 Ang^3
#
#
#
# Elastic Constant Matrix: (Units=GPa)
#
#
# Indices 1 2 3 4 5 6 
#
# 1 98.7986 15.3420 41.3323 0.0000 0.0000 0.0000
# 2 15.3420 51.2734 43.7962 0.0000 0.0000 0.0000
# 3 41.3323 43.7962 121.0298 0.0000 0.0000 0.0000
# 4 0.0000 0.0000 0.0000 21.7493 0.0000 0.0000
# 5 0.0000 0.0000 0.0000 0.0000 20.6981 0.0000
# 6 0.0000 0.0000 0.0000 0.0000 0.0000 28.3990
#
#
#
# Elastic Compliance Matrix: (Units=1/GPa)
#
#
# Indices 1 2 3 4 5 6 
#
# 1 0.011809 -0.000128 -0.003986 0.000000 0.000000 0.000000
# 2 -0.000128 0.028230 -0.010172 0.000000 0.000000 0.000000
# 3 -0.003986 -0.010172 0.013305 0.000000 0.000000 0.000000
# 4 0.000000 0.000000 0.000000 0.045978 0.000000 0.000000
# 5 0.000000 0.000000 0.000000 0.000000 0.048314 0.000000
# 6 0.000000 0.000000 0.000000 0.000000 0.000000 0.035213
#
#
# Mechanical properties :
#
#
# Convention : Reuss Voigt Hill
#
# Bulk Modulus (GPa) = 40.36992 52.44920 46.40956
# Shear Modulus (GPa) = 22.76057 25.54470 24.15263
#
# Velocity S-wave (km/s) = 3.47484 3.68123 3.57952
# Velocity P-wave (km/s) = 6.12499 6.77443 6.45788
#
# Compressibility (1/GPa) = 0.02477092
#
# Stress axis : x y z
#
# Youngs Moduli (GPa) = 84.67925 35.42337 75.16244
#
# Poissons Ratio (x) = 0.00455 0.29963
# Poissons Ratio (y) = 0.01088 0.76452
# Poissons Ratio (z) = 0.33757 0.36031
#
# Static dielectric constant tensor:
#      x y z
#    x 1.683070 0.000000 0.000000 
#    y 0.000000 1.627220 0.000000 
#    z 0.000000 0.000000 1.147380 
# 
# From -- ./inp_files/13290.got.cif
#   From: 2010.05.17/outbox.cif.g08.bks.cpg/sg20_7_cif.got.tgz:13290.got - 2010.06.03 22:52:26.
