data_PCOD9318767
_publ_section_title
;
Structure prediction by ZEFSAII (Michael W. Deem and Ramdas Pophale) SiO2 
 PCOD9318767
Probable space group: C 2 2 21
;
_chemical_formula_sum "Si O2"
_cell_formula_units_Z 60
_cell_length_a 24.139862
_cell_length_b 11.413575
_cell_length_c 11.053821
_cell_angle_alpha 90.000000
_cell_angle_beta 90.000000
_cell_angle_gamma 90.000000
_cell_volume 3045.572256
_symmetry_space_group_name_H-M "C 2 2 21"
_symmetry_group_IT_number 20
_symmetry_cell_setting 'orthorhombic'
loop_
_space_group_symop_operation_xyz
x,y,z
-x,-y,1/2+z
x,-y,-z
-x,y,1/2-z
1/2+x,1/2+y,z
1/2-x,1/2-y,1/2+z
1/2+x,1/2-y,-z
1/2-x,1/2+y,1/2-z
loop_
_atom_site_type_symbol
_atom_site_label
_atom_site_fract_x
_atom_site_fract_y
_atom_site_fract_z
Si Si1 0.989273 0.075666 0.119160
Si Si2 0.913325 0.738093 0.602257
Si Si3 0.629911 0.688166 0.345035
Si Si4 0.403798 0.000000 0.500000
Si Si5 0.796086 0.034171 0.767625
Si Si6 0.317622 0.914048 0.697001
Si Si7 0.690595 0.229928 0.420139
Si Si8 0.304608 0.313125 0.460593
O O1 0.035208 0.176638 0.116591
O O2 0.000000 0.014146 0.250000
O O3 0.927752 0.128679 0.115169
O O4 0.997696 0.000000 0.000000
O O5 0.885026 0.727200 0.733660
O O6 0.933367 0.617446 0.542679
O O7 0.864230 0.793465 0.521092
O O8 0.668483 0.580842 0.299358
O O9 0.659377 0.755800 0.453571
O O10 0.364941 0.034017 0.386977
O O11 0.810395 0.142467 0.856229
O O12 0.805341 0.077684 0.630599
O O13 0.731882 0.004805 0.786922
O O14 0.335268 0.862410 0.826315
O O15 0.294360 0.801456 0.623396
O O16 0.753762 0.188539 0.445710
#
# Coordination Sequence:
#
# PCOD9318767 Si02
#       8
#     8   8   8   4   8   8   8   8
#     4  10  23  43  69  98 126 164 212 274 331 376
#     4  10  23  41  66  88 124 167 215 264 312 385
#     4  11  23  39  64  93 128 162 204 269 329 378
#     4  10  22  44  64  82 122 170 214 250 306 382
#     4  11  21  35  59  86 127 173 204 256 321 369
#     4  10  21  35  57  85 121 167 201 249 306 375
#     4  11  22  36  55  91 129 160 207 256 319 382
#     4  10  22  34  55  91 125 162 216 249 305 383
#
# _framework density 19.70073
#
# number of rings (size 3 to 8) (size 9 to 14) (size 15 to 20)
#    0.000    1.600    1.333    3.600    7.467    1.600 
#    2.400    0.000    8.800    0.000    0.000    0.000 
#    0.000    0.000    0.000    0.000    0.000    0.000 
#
# Total GULP energy -167635.392788 kJ/mol
# GULP energy per Si atom -5587.846426 kJ/mol
# Density = 1.965589 g / cm^3
# Si number density = 19.700730 Si / 1000 Ang^3
#
#
#
# Elastic Constant Matrix: (Units=GPa)
#
#
# Indices 1 2 3 4 5 6 
#
# 1 42.1536 6.3629 13.0191 0.0000 0.0000 0.0000
# 2 6.3629 48.0739 39.2144 0.0000 0.0000 0.0000
# 3 13.0191 39.2144 106.2469 0.0000 0.0000 0.0000
# 4 0.0000 0.0000 0.0000 30.2200 0.0000 0.0000
# 5 0.0000 0.0000 0.0000 0.0000 25.4750 0.0000
# 6 0.0000 0.0000 0.0000 0.0000 0.0000 6.6279
#
#
#
# Elastic Compliance Matrix: (Units=1/GPa)
#
#
# Indices 1 2 3 4 5 6 
#
# 1 0.024700 -0.001145 -0.002604 0.000000 0.000000 0.000000
# 2 -0.001145 0.029815 -0.010864 0.000000 0.000000 0.000000
# 3 -0.002604 -0.010864 0.013741 0.000000 0.000000 0.000000
# 4 0.000000 0.000000 0.000000 0.033091 0.000000 0.000000
# 5 0.000000 0.000000 0.000000 0.000000 0.039254 0.000000
# 6 0.000000 0.000000 0.000000 0.000000 0.000000 0.150878
#
#
# Mechanical properties :
#
#
# Convention : Reuss Voigt Hill
#
# Bulk Modulus (GPa) = 25.62173 34.85191 30.23682
# Shear Modulus (GPa) = 14.98291 21.65645 18.31968
#
# Velocity S-wave (km/s) = 2.76075 3.31912 3.05273
# Velocity P-wave (km/s) = 4.81623 5.69367 5.27323
#
# Compressibility (1/GPa) = 0.03902937
#
# Stress axis : x y z
#
# Youngs Moduli (GPa) = 40.48609 33.54056 72.77575
#
# Poissons Ratio (x) = 0.03841 0.18951
# Poissons Ratio (y) = 0.04636 0.79063
# Poissons Ratio (z) = 0.10542 0.36438
#
# Static dielectric constant tensor:
#      x y z
#    x 1.639180 0.000000 0.000000 
#    y 0.000000 1.712330 0.000000 
#    z 0.000000 0.000000 1.730420 
# 
# From -- ./inp_files/16363.got.cif
#   From: 2010.05.17/outbox.cif.g08.bks.cpg/sg20_9_cif.got.tgz:16363.got - 2010.06.03 22:52:26.
