data_PCOD9318363
_publ_section_title
;
Structure prediction by ZEFSAII (Michael W. Deem and Ramdas Pophale) SiO2 
 PCOD9318363
Probable space group: C 2 2 21
;
_chemical_formula_sum "Si O2"
_cell_formula_units_Z 40
_cell_length_a 7.259935
_cell_length_b 17.049859
_cell_length_c 12.534029
_cell_angle_alpha 90.000000
_cell_angle_beta 90.000000
_cell_angle_gamma 90.000000
_cell_volume 1551.472990
_symmetry_space_group_name_H-M "C 2 2 21"
_symmetry_group_IT_number 20
_symmetry_cell_setting 'orthorhombic'
loop_
_space_group_symop_operation_xyz
x,y,z
-x,-y,1/2+z
x,-y,-z
-x,y,1/2-z
1/2+x,1/2+y,z
1/2-x,1/2-y,1/2+z
1/2+x,1/2-y,-z
1/2-x,1/2+y,1/2-z
loop_
_atom_site_type_symbol
_atom_site_label
_atom_site_fract_x
_atom_site_fract_y
_atom_site_fract_z
Si Si1 0.139136 0.599464 0.094279
Si Si2 0.917392 0.424460 0.361380
Si Si3 0.921362 0.171134 0.864847
Si Si4 0.573079 0.583568 0.044980
Si Si5 0.709782 0.310432 0.784758
O O1 0.053552 0.517384 0.131514
O O2 0.356264 0.580854 0.075177
O O3 0.162737 0.668249 0.181780
O O4 0.043732 0.614313 0.978407
O O5 0.701310 0.406850 0.354495
O O6 0.000000 0.394523 0.250000
O O7 0.786422 0.245767 0.867413
O O8 0.000000 0.181217 0.750000
O O9 0.068779 0.152048 0.955226
O O10 0.686441 0.610277 0.147257
O O11 0.632664 0.500000 0.000000
O O12 0.500000 0.289277 0.750000
#
# Coordination Sequence:
#
# PCOD9318363 Si02
#       5
#     8   8   8   8   8
#     4   9  19  40  66  98 139 176 227 298 347 413
#     4  10  20  39  68  96 135 180 229 285 355 419
#     4  11  24  40  64 100 138 179 231 294 353 420
#     4  10  20  40  70  99 131 183 239 293 348 421
#     4  10  23  41  70  98 139 186 237 293 364 420
#
# _framework density 25.781952
#
# number of rings (size 3 to 8) (size 9 to 14) (size 15 to 20)
#    0.000    2.000    4.000    0.600    2.800    5.600 
#    0.000   10.000    0.000    0.000    0.000    0.000 
#    0.000    0.000    0.000    0.000    0.000    0.000 
#
# Total GULP energy -111635.273789 kJ/mol
# GULP energy per Si atom -5581.763689 kJ/mol
# Density = 2.572327 g / cm^3
# Si number density = 25.781952 Si / 1000 Ang^3
#
#
#
# Elastic Constant Matrix: (Units=GPa)
#
#
# Indices 1 2 3 4 5 6 
#
# 1 49.1061 22.1832 36.8469 0.0000 0.0000 0.0000
# 2 22.1832 115.2115 65.6618 0.0000 0.0000 0.0000
# 3 36.8469 65.6618 181.1515 0.0000 0.0000 0.0000
# 4 0.0000 0.0000 0.0000 -21.9532 0.0000 0.0000
# 5 0.0000 0.0000 0.0000 0.0000 48.1504 0.0000
# 6 0.0000 0.0000 0.0000 0.0000 0.0000 20.3204
#
#
#
# Elastic Compliance Matrix: (Units=1/GPa)
#
#
# Indices 1 2 3 4 5 6 
#
# 1 0.024535 -0.002369 -0.004132 0.000000 0.000000 0.000000
# 2 -0.002369 0.011168 -0.003566 0.000000 0.000000 0.000000
# 3 -0.004132 -0.003566 0.007653 0.000000 0.000000 0.000000
# 4 0.000000 0.000000 0.000000 -0.045552 0.000000 0.000000
# 5 0.000000 0.000000 0.000000 0.000000 0.020768 0.000000
# 6 0.000000 0.000000 0.000000 0.000000 0.000000 0.049212
#
#
# Mechanical properties :
#
#
# Convention : Reuss Voigt Hill
#
# Bulk Modulus (GPa) = 43.06281 66.09475 54.57878
# Shear Modulus (GPa) = 52.26875 24.02202 38.14538
#
# Velocity S-wave (km/s) = 4.50748 3.05575 3.85065
# Velocity P-wave (km/s) = 6.62033 6.17591 6.40198
#
# Compressibility (1/GPa) = 0.02322190
#
# Stress axis : x y z
#
# Youngs Moduli (GPa) = 40.75888 89.53846 130.66263
#
# Poissons Ratio (x) = 0.21214 0.53985
# Poissons Ratio (y) = 0.09657 0.46598
# Poissons Ratio (z) = 0.16840 0.31932
#
# Static dielectric constant tensor:
#      x y z
#    x 2.694310 0.000000 0.000000 
#    y 0.000000 1.995190 0.000000 
#    z 0.000000 0.000000 2.142960 
# 
# From -- ./inp_files/12667.got.cif
#   From: 2010.05.17/outbox.cif.g08.bks.cpg/sg20_7_cif.got.tgz:12667.got - 2010.06.03 22:52:26.
