data_PCOD9318046
_publ_section_title
;
Structure prediction by ZEFSAII (Michael W. Deem and Ramdas Pophale) SiO2 
 PCOD9318046
Probable space group: C 2 2 21
;
_chemical_formula_sum "Si O2"
_cell_formula_units_Z 48
_cell_length_a 11.227093
_cell_length_b 12.664216
_cell_length_c 15.886327
_cell_angle_alpha 90.000000
_cell_angle_beta 90.000000
_cell_angle_gamma 90.000000
_cell_volume 2258.755001
_symmetry_space_group_name_H-M "C 2 2 21"
_symmetry_group_IT_number 20
_symmetry_cell_setting 'orthorhombic'
loop_
_space_group_symop_operation_xyz
x,y,z
-x,-y,1/2+z
x,-y,-z
-x,y,1/2-z
1/2+x,1/2+y,z
1/2-x,1/2-y,1/2+z
1/2+x,1/2-y,-z
1/2-x,1/2+y,1/2-z
loop_
_atom_site_type_symbol
_atom_site_label
_atom_site_fract_x
_atom_site_fract_y
_atom_site_fract_z
Si Si1 0.890625 0.298693 0.077124
Si Si2 0.104662 0.942240 0.581779
Si Si3 0.000000 0.957343 0.250000
Si Si4 0.443727 0.000000 0.000000
Si Si5 0.808780 0.225545 0.719679
Si Si6 0.398820 0.822028 0.311907
Si Si7 0.129919 0.548846 0.146956
O O1 0.889973 0.178405 0.051624
O O2 0.793840 0.301169 0.151784
O O3 0.030200 0.316465 0.101406
O O4 0.864413 0.398253 0.020147
O O5 0.242281 0.968463 0.602559
O O6 0.056068 0.000000 0.500000
O O7 0.035170 0.971961 0.668268
O O8 0.894780 0.874155 0.271735
O O9 0.526594 0.961770 0.922200
O O10 0.726831 0.235199 0.803422
O O11 0.866934 0.337027 0.692605
O O12 0.500000 0.776046 0.250000
O O13 0.381522 0.946591 0.292974
#
# Coordination Sequence:
#
# PCOD9318046 Si02
#       7
#     8   8   4   4   8   8   8
#     4   9  22  40  66  89 128 169 222 272 325 397
#     4  11  24  43  65  96 136 175 218 267 344 407
#     4  12  26  42  66  98 140 174 212 278 334 406
#     4  10  20  42  64  88 126 176 226 276 330 376
#     4  10  22  38  60  95 129 163 220 268 328 394
#     4   9  18  36  60  87 118 163 214 269 322 382
#     4  10  20  37  63  89 126 169 220 274 324 395
#
# _framework density 21.250644999999999
#
# number of rings (size 3 to 8) (size 9 to 14) (size 15 to 20)
#    0.000    2.000    2.500    0.000    9.333    0.000 
#    1.500    0.000    0.000    0.000    0.000    0.000 
#    0.000    0.000    0.000    0.000    0.000    0.000 
#
# Total GULP energy -133630.927978 kJ/mol
# GULP energy per Si atom -5567.955332 kJ/mol
# Density = 2.120228 g / cm^3
# Si number density = 21.250645 Si / 1000 Ang^3
#
#
#
# Elastic Constant Matrix: (Units=GPa)
#
#
# Indices 1 2 3 4 5 6 
#
# 1 55.7451 22.3500 0.1504 0.0000 0.0000 0.0000
# 2 22.3500 110.6504 40.7307 0.0000 0.0000 0.0000
# 3 0.1504 40.7307 51.6456 0.0000 0.0000 0.0000
# 4 0.0000 0.0000 0.0000 27.0434 0.0000 0.0000
# 5 0.0000 0.0000 0.0000 0.0000 5.4105 0.0000
# 6 0.0000 0.0000 0.0000 0.0000 0.0000 6.5931
#
#
#
# Elastic Compliance Matrix: (Units=1/GPa)
#
#
# Indices 1 2 3 4 5 6 
#
# 1 0.020222 -0.005725 0.004456 0.000000 0.000000 0.000000
# 2 -0.005725 0.014355 -0.011305 0.000000 0.000000 0.000000
# 3 0.004456 -0.011305 0.028265 0.000000 0.000000 0.000000
# 4 0.000000 0.000000 0.000000 0.036978 0.000000 0.000000
# 5 0.000000 0.000000 0.000000 0.000000 0.184827 0.000000
# 6 0.000000 0.000000 0.000000 0.000000 0.000000 0.151674
#
#
# Mechanical properties :
#
#
# Convention : Reuss Voigt Hill
#
# Bulk Modulus (GPa) = 26.52830 38.27816 32.40323
# Shear Modulus (GPa) = 10.54780 18.13005 14.33892
#
# Velocity S-wave (km/s) = 2.23031 2.92405 2.60042
# Velocity P-wave (km/s) = 4.37527 5.42696 4.92924
#
# Compressibility (1/GPa) = 0.03769559
#
# Stress axis : x y z
#
# Youngs Moduli (GPa) = 49.45089 69.66177 35.37920
#
# Poissons Ratio (x) = 0.39881 -0.15765
# Poissons Ratio (y) = 0.28310 0.39995
# Poissons Ratio (z) = -0.22036 0.78750
#
# Static dielectric constant tensor:
#      x y z
#    x 1.795750 0.000000 0.000000 
#    y 0.000000 1.816490 0.000000 
#    z 0.000000 0.000000 1.946840 
# 
# From -- ./inp_files/24291.got.cif
#   From: 2010.05.17/outbox.cif.g08.bks.cpg/sg20_13_cif.got.tgz:24291.got - 2010.06.03 22:52:26.
