data_PCOD9318903
_publ_section_title
;
Structure prediction by ZEFSAII (Michael W. Deem and Ramdas Pophale) SiO2 
 PCOD9318903
Probable space group: C 2 2 21
;
_chemical_formula_sum "Si O2"
_cell_formula_units_Z 40
_cell_length_a 17.695588
_cell_length_b 10.438965
_cell_length_c 11.705146
_cell_angle_alpha 90.000000
_cell_angle_beta 90.000000
_cell_angle_gamma 90.000000
_cell_volume 2162.216986
_symmetry_space_group_name_H-M "C 2 2 21"
_symmetry_group_IT_number 20
_symmetry_cell_setting 'orthorhombic'
loop_
_space_group_symop_operation_xyz
x,y,z
-x,-y,1/2+z
x,-y,-z
-x,y,1/2-z
1/2+x,1/2+y,z
1/2-x,1/2-y,1/2+z
1/2+x,1/2-y,-z
1/2-x,1/2+y,1/2-z
loop_
_atom_site_type_symbol
_atom_site_label
_atom_site_fract_x
_atom_site_fract_y
_atom_site_fract_z
Si Si1 0.763553 0.498844 0.664797
Si Si2 0.611381 0.356525 0.337081
Si Si3 0.197592 0.600749 0.409713
Si Si4 0.822806 0.707993 0.511412
Si Si5 0.055738 0.876791 0.076197
O O1 0.678287 0.543083 0.637296
O O2 0.774260 0.472374 0.797308
O O3 0.815047 0.616288 0.620867
O O4 0.788827 0.375506 0.592479
O O5 0.643513 0.215737 0.367362
O O6 0.591764 0.374352 0.203123
O O7 0.534075 0.374106 0.405952
O O8 0.164124 0.500000 0.500000
O O9 0.268870 0.670625 0.468796
O O10 0.906684 0.755166 0.485612
O O11 0.075043 0.000000 0.000000
#
# Coordination Sequence:
#
# PCOD9318903 Si02
#       5
#     8   8   8   8   8
#     4  10  21  39  63  92 122 163 214 262 312 377
#     4  10  23  40  60  94 129 159 215 266 311 389
#     4  11  22  38  64  94 125 167 214 265 315 379
#     4  10  21  37  64  88 122 164 208 259 314 379
#     4  11  22  41  62  90 127 168 204 265 331 370
#
# _framework density 18.499531000000001
#
# number of rings (size 3 to 8) (size 9 to 14) (size 15 to 20)
#    0.000    1.600    2.000    3.000    8.400    0.000 
#    3.600    0.000    0.000    0.000    0.000    0.000 
#    0.000    0.000    0.000    0.000    0.000    0.000 
#
# Total GULP energy -111632.911929 kJ/mol
# GULP energy per Si atom -5581.645596 kJ/mol
# Density = 1.845743 g / cm^3
# Si number density = 18.499531 Si / 1000 Ang^3
#
#
#
# Elastic Constant Matrix: (Units=GPa)
#
#
# Indices 1 2 3 4 5 6 
#
# 1 107.1015 62.6502 42.6701 0.0000 0.0000 0.0000
# 2 62.6502 102.1695 66.5695 0.0000 0.0000 0.0000
# 3 42.6701 66.5695 84.8240 0.0000 0.0000 0.0000
# 4 0.0000 0.0000 0.0000 31.4468 0.0000 0.0000
# 5 0.0000 0.0000 0.0000 0.0000 22.9352 0.0000
# 6 0.0000 0.0000 0.0000 0.0000 0.0000 26.8854
#
#
#
# Elastic Compliance Matrix: (Units=1/GPa)
#
#
# Indices 1 2 3 4 5 6 
#
# 1 0.014577 -0.008515 -0.000651 0.000000 0.000000 0.000000
# 2 -0.008515 0.025003 -0.015339 0.000000 0.000000 0.000000
# 3 -0.000651 -0.015339 0.024155 0.000000 0.000000 0.000000
# 4 0.000000 0.000000 0.000000 0.031800 0.000000 0.000000
# 5 0.000000 0.000000 0.000000 0.000000 0.043601 0.000000
# 6 0.000000 0.000000 0.000000 0.000000 0.000000 0.037195
#
#
# Mechanical properties :
#
#
# Convention : Reuss Voigt Hill
#
# Bulk Modulus (GPa) = 67.90781 70.87495 69.39138
# Shear Modulus (GPa) = 21.71574 24.40049 23.05811
#
# Velocity S-wave (km/s) = 3.42987 3.63571 3.53429
# Velocity P-wave (km/s) = 7.24382 7.48462 7.36520
#
# Compressibility (1/GPa) = 0.01472585
#
# Stress axis : x y z
#
# Youngs Moduli (GPa) = 68.60191 39.99480 41.40013
#
# Poissons Ratio (x) = 0.34054 0.02693
# Poissons Ratio (y) = 0.58412 0.63505
# Poissons Ratio (z) = 0.04463 0.61349
#
# Static dielectric constant tensor:
#      x y z
#    x 1.627620 0.000000 0.000000 
#    y 0.000000 1.639930 0.000000 
#    z 0.000000 0.000000 1.649780 
# 
# From -- ./inp_files/12715.got.cif
#   From: 2010.05.17/outbox.cif.g08.bks.cpg/sg20_7_cif.got.tgz:12715.got - 2010.06.03 22:52:26.
