data_PCOD9318876
_publ_section_title
;
Structure prediction by ZEFSAII (Michael W. Deem and Ramdas Pophale) SiO2 
 PCOD9318876
Probable space group: C 2 2 21
;
_chemical_formula_sum "Si O2"
_cell_formula_units_Z 44
_cell_length_a 12.674084
_cell_length_b 5.347678
_cell_length_c 26.634686
_cell_angle_alpha 90.000000
_cell_angle_beta 90.000000
_cell_angle_gamma 90.000000
_cell_volume 1805.216987
_symmetry_space_group_name_H-M "C 2 2 21"
_symmetry_group_IT_number 20
_symmetry_cell_setting 'orthorhombic'
loop_
_space_group_symop_operation_xyz
x,y,z
-x,-y,1/2+z
x,-y,-z
-x,y,1/2-z
1/2+x,1/2+y,z
1/2-x,1/2-y,1/2+z
1/2+x,1/2-y,-z
1/2-x,1/2+y,1/2-z
loop_
_atom_site_type_symbol
_atom_site_label
_atom_site_fract_x
_atom_site_fract_y
_atom_site_fract_z
Si Si1 0.772394 0.829428 0.280533
Si Si2 0.977745 0.500000 0.500000
Si Si3 0.980947 0.719876 0.598333
Si Si4 0.142470 0.364948 0.643480
Si Si5 0.486854 0.518870 0.695477
Si Si6 0.857232 0.891038 0.049048
O O1 0.765429 0.086434 0.248621
O O2 0.703546 0.913978 0.328624
O O3 0.893949 0.783493 0.294568
O O4 0.921456 0.632362 0.547600
O O5 0.055877 0.294324 0.524486
O O6 0.035245 0.476959 0.621256
O O7 0.942525 0.861185 0.648276
O O8 0.075908 0.893009 0.576752
O O9 0.200644 0.250148 0.594823
O O10 0.096060 0.151116 0.679767
O O11 0.500000 0.385610 0.750000
O O12 0.799021 0.000000 0.000000
#
# Coordination Sequence:
#
# PCOD9318876 Si02
#       6
#     8   4   8   8   8   8
#     4  12  27  44  64  93 133 177 224 281 333 401
#     4   8  14  30  54  92 120 158 212 264 328 396
#     4   9  18  32  60  88 124 162 215 266 329 399
#     4  10  21  37  60  92 121 172 218 269 331 405
#     4  11  22  39  60  90 126 173 215 276 335 396
#     4   8  15  30  55  90 119 157 208 270 325 396
#
# _framework density 24.373802000000001
#
# number of rings (size 3 to 8) (size 9 to 14) (size 15 to 20)
#    0.000    2.182    1.818    1.091    5.091    0.727 
#    0.000    0.000    2.000    0.000  118.182    0.000 
#    0.000    0.000    0.000    0.000    0.000    0.000 
#
# Total GULP energy -122565.290095 kJ/mol
# GULP energy per Si atom -5571.149550 kJ/mol
# Density = 2.431833 g / cm^3
# Si number density = 24.373802 Si / 1000 Ang^3
#
#
#
# Elastic Constant Matrix: (Units=GPa)
#
#
# Indices 1 2 3 4 5 6 
#
# 1 48.8465 1.0437 20.9226 0.0000 0.0000 0.0000
# 2 1.0437 87.7670 48.2272 0.0000 0.0000 0.0000
# 3 20.9226 48.2272 186.8286 0.0000 0.0000 0.0000
# 4 0.0000 0.0000 0.0000 59.6637 0.0000 0.0000
# 5 0.0000 0.0000 0.0000 0.0000 28.4178 0.0000
# 6 0.0000 0.0000 0.0000 0.0000 0.0000 0.7672
#
#
#
# Elastic Compliance Matrix: (Units=1/GPa)
#
#
# Indices 1 2 3 4 5 6 
#
# 1 0.021621 0.001251 -0.002744 0.000000 0.000000 0.000000
# 2 0.001251 0.013349 -0.003586 0.000000 0.000000 0.000000
# 3 -0.002744 -0.003586 0.006586 0.000000 0.000000 0.000000
# 4 0.000000 0.000000 0.000000 0.016761 0.000000 0.000000
# 5 0.000000 0.000000 0.000000 0.000000 0.035189 0.000000
# 6 0.000000 0.000000 0.000000 0.000000 0.000000 1.303474
#
#
# Mechanical properties :
#
#
# Convention : Reuss Voigt Hill
#
# Bulk Modulus (GPa) = 31.85012 51.53658 41.69335
# Shear Modulus (GPa) = 3.52708 34.65296 19.09002
#
# Velocity S-wave (km/s) = 1.20425 3.77467 2.80164
# Velocity P-wave (km/s) = 3.87677 6.33938 5.25438
#
# Compressibility (1/GPa) = 0.03139706
#
# Stress axis : x y z
#
# Youngs Moduli (GPa) = 46.25133 74.90956 151.84870
#
# Poissons Ratio (x) = -0.09370 0.41670
# Poissons Ratio (y) = -0.05785 0.54454
# Poissons Ratio (z) = 0.12692 0.26863
#
# Static dielectric constant tensor:
#      x y z
#    x 1.927800 0.000000 0.000000 
#    y 0.000000 2.002270 0.000000 
#    z 0.000000 0.000000 2.168660 
# 
# From -- ./inp_files/29764.got.cif
#   From: 2010.05.17/outbox.cif.g08.bks.cpg/sg20_15_cif.got.tgz:29764.got - 2010.06.03 22:52:26.
