data_PCOD9318912
_publ_section_title
;
Structure prediction by ZEFSAII (Michael W. Deem and Ramdas Pophale) SiO2 
 PCOD9318912
Probable space group: C 2 2 21
;
_chemical_formula_sum "Si O2"
_cell_formula_units_Z 48
_cell_length_a 16.329747
_cell_length_b 17.297246
_cell_length_c 8.634851
_cell_angle_alpha 90.000000
_cell_angle_beta 90.000000
_cell_angle_gamma 90.000000
_cell_volume 2438.997000
_symmetry_space_group_name_H-M "C 2 2 21"
_symmetry_group_IT_number 20
_symmetry_cell_setting 'orthorhombic'
loop_
_space_group_symop_operation_xyz
x,y,z
-x,-y,1/2+z
x,-y,-z
-x,y,1/2-z
1/2+x,1/2+y,z
1/2-x,1/2-y,1/2+z
1/2+x,1/2-y,-z
1/2-x,1/2+y,1/2-z
loop_
_atom_site_type_symbol
_atom_site_label
_atom_site_fract_x
_atom_site_fract_y
_atom_site_fract_z
Si Si1 0.326893 0.171101 0.573939
Si Si2 0.610836 0.500000 0.000000
Si Si3 0.000000 0.067279 0.750000
Si Si4 0.031603 0.416095 0.925124
Si Si5 0.356822 0.669439 0.884025
Si Si6 0.117668 0.674225 0.575838
Si Si7 0.300424 0.340370 0.469380
O O1 0.385316 0.133174 0.446011
O O2 0.233120 0.139356 0.558700
O O3 0.371296 0.161952 0.739988
O O4 0.318934 0.263650 0.564057
O O5 0.556173 0.513546 0.851813
O O6 0.657969 0.419700 0.983731
O O7 0.061819 0.117682 0.642277
O O8 0.000000 0.422903 0.750000
O O9 0.044503 0.500000 0.000000
O O10 0.960585 0.370915 0.016573
O O11 0.329983 0.684646 0.704171
O O12 0.381749 0.739665 0.998558
O O13 0.204582 0.642643 0.517893
#
# Coordination Sequence:
#
# PCOD9318912 Si02
#       7
#     8   4   4   8   8   8   8
#     4  10  21  41  63  94 126 164 218 260 317 384
#     4  10  22  38  58  88 124 166 208 264 316 378
#     4  10  22  40  60  90 130 162 216 256 326 366
#     4  12  26  43  63  93 130 165 209 265 327 387
#     4   9  20  39  64  90 126 167 209 265 314 379
#     4  10  21  37  66  93 121 165 212 262 316 385
#     4   9  20  39  62  88 125 166 212 259 322 377
#
# _framework density 19.680221
#
# number of rings (size 3 to 8) (size 9 to 14) (size 15 to 20)
#    0.000    2.000    0.000    2.500    7.000    2.667 
#    4.500    0.000    0.000    0.000    0.000    0.000 
#    0.000    0.000    0.000    0.000    0.000    0.000 
#
# Total GULP energy -133655.454068 kJ/mol
# GULP energy per Si atom -5568.977253 kJ/mol
# Density = 1.963543 g / cm^3
# Si number density = 19.680221 Si / 1000 Ang^3
#
#
#
# Elastic Constant Matrix: (Units=GPa)
#
#
# Indices 1 2 3 4 5 6 
#
# 1 104.0263 54.4138 29.6011 0.0000 0.0000 0.0000
# 2 54.4138 66.6084 19.8412 0.0000 0.0000 0.0000
# 3 29.6011 19.8412 20.8601 0.0000 0.0000 0.0000
# 4 0.0000 0.0000 0.0000 14.3116 0.0000 0.0000
# 5 0.0000 0.0000 0.0000 0.0000 48.3715 0.0000
# 6 0.0000 0.0000 0.0000 0.0000 0.0000 -12.8038
#
#
#
# Elastic Compliance Matrix: (Units=1/GPa)
#
#
# Indices 1 2 3 4 5 6 
#
# 1 0.021018 -0.011562 -0.018829 0.000000 0.000000 0.000000
# 2 -0.011562 0.027308 -0.009568 0.000000 0.000000 0.000000
# 3 -0.018829 -0.009568 0.083758 0.000000 0.000000 0.000000
# 4 0.000000 0.000000 0.000000 0.069873 0.000000 0.000000
# 5 0.000000 0.000000 0.000000 0.000000 0.020673 0.000000
# 6 0.000000 0.000000 0.000000 0.000000 0.000000 -0.078102
#
#
# Mechanical properties :
#
#
# Convention : Reuss Voigt Hill
#
# Bulk Modulus (GPa) = 19.16905 44.35633 31.76269
# Shear Modulus (GPa) = 20.67523 15.81844 18.24684
#
# Velocity S-wave (km/s) = 3.24475 2.83817 3.04824
# Velocity P-wave (km/s) = 4.87845 5.77302 5.34448
#
# Compressibility (1/GPa) = 0.05216742
#
# Stress axis : x y z
#
# Youngs Moduli (GPa) = 47.57734 36.61904 11.93920
#
# Poissons Ratio (x) = 0.42338 0.22480
# Poissons Ratio (y) = 0.55007 0.11423
# Poissons Ratio (z) = 0.89582 0.35037
#
# Static dielectric constant tensor:
#      x y z
#    x 1.747030 0.000000 0.000000 
#    y 0.000000 1.592510 0.000000 
#    z 0.000000 0.000000 1.766230 
# 
# From -- ./inp_files/8478.got.cif
#   From: 2010.05.17/outbox.cif.g08.bks.cpg/sg20_5_cif.got.tgz:8478.got - 2010.06.03 22:52:26.
