data_PCOD9318224
_publ_section_title
;
Structure prediction by ZEFSAII (Michael W. Deem and Ramdas Pophale) SiO2 
 PCOD9318224
Probable space group: C 2 2 21
;
_chemical_formula_sum "Si O2"
_cell_formula_units_Z 44
_cell_length_a 12.139736
_cell_length_b 9.194559
_cell_length_c 17.610653
_cell_angle_alpha 90.000000
_cell_angle_beta 90.000000
_cell_angle_gamma 90.000000
_cell_volume 1965.692615
_symmetry_space_group_name_H-M "C 2 2 21"
_symmetry_group_IT_number 20
_symmetry_cell_setting 'orthorhombic'
loop_
_space_group_symop_operation_xyz
x,y,z
-x,-y,1/2+z
x,-y,-z
-x,y,1/2-z
1/2+x,1/2+y,z
1/2-x,1/2-y,1/2+z
1/2+x,1/2-y,-z
1/2-x,1/2+y,1/2-z
loop_
_atom_site_type_symbol
_atom_site_label
_atom_site_fract_x
_atom_site_fract_y
_atom_site_fract_z
Si Si1 0.109474 0.500000 0.500000
Si Si2 0.570180 0.241424 0.994352
Si Si3 0.578455 0.608868 0.372798
Si Si4 0.921445 0.132283 0.655709
Si Si5 0.321388 0.091888 0.834620
Si Si6 0.500000 0.898017 0.750000
Si Si7 0.253001 0.500000 0.000000
O O1 0.171382 0.456873 0.423225
O O2 0.030126 0.364583 0.518132
O O3 0.590634 0.347317 0.064669
O O4 0.674610 0.137097 0.980448
O O5 0.523447 0.321317 0.920500
O O6 0.523118 0.474839 0.330285
O O7 0.636265 0.741526 0.329501
O O8 0.668569 0.546370 0.431200
O O9 0.805264 0.079645 0.688380
O O10 0.947353 0.291047 0.688100
O O11 0.405144 0.995065 0.787008
#
# Coordination Sequence:
#
# PCOD9318224 Si02
#       7
#     4   8   8   8   8   4   4
#     4   9  20  41  72 104 130 173 228 285 334 406
#     4  10  20  38  66 105 137 169 216 279 348 396
#     4  11  24  39  69 108 136 165 228 286 337 402
#     4  12  25  44  69  99 135 181 226 279 340 413
#     4  11  26  46  73  97 140 183 228 284 348 408
#     4  12  30  50  64  96 144 186 234 274 346 426
#     4  11  20  37  68 106 146 165 210 291 346 396
#
# _framework density 22.383967999999999
#
# number of rings (size 3 to 8) (size 9 to 14) (size 15 to 20)
#    0.000    1.091    5.455    0.000    2.545    5.091 
#    0.000    0.000    0.000    0.000    0.000    0.000 
#    0.000    0.000    0.000    0.000    0.000    0.000 
#
# Total GULP energy -123134.682442 kJ/mol
# GULP energy per Si atom -5597.031020 kJ/mol
# Density = 2.233302 g / cm^3
# Si number density = 22.383968 Si / 1000 Ang^3
#
#
#
# Elastic Constant Matrix: (Units=GPa)
#
#
# Indices 1 2 3 4 5 6 
#
# 1 141.2384 41.3889 19.9685 0.0000 0.0000 0.0000
# 2 41.3889 91.0440 8.7822 0.0000 0.0000 0.0000
# 3 19.9685 8.7822 37.6124 0.0000 0.0000 0.0000
# 4 0.0000 0.0000 0.0000 0.9258 0.0000 0.0000
# 5 0.0000 0.0000 0.0000 0.0000 10.5235 0.0000
# 6 0.0000 0.0000 0.0000 0.0000 0.0000 37.1478
#
#
#
# Elastic Compliance Matrix: (Units=1/GPa)
#
#
# Indices 1 2 3 4 5 6 
#
# 1 0.008659 -0.003574 -0.003763 0.000000 0.000000 0.000000
# 2 -0.003574 0.012712 -0.001071 0.000000 0.000000 0.000000
# 3 -0.003763 -0.001071 0.028835 0.000000 0.000000 0.000000
# 4 0.000000 0.000000 0.000000 1.080161 0.000000 0.000000
# 5 0.000000 0.000000 0.000000 0.000000 0.095025 0.000000
# 6 0.000000 0.000000 0.000000 0.000000 0.000000 0.026920
#
#
# Mechanical properties :
#
#
# Convention : Reuss Voigt Hill
#
# Bulk Modulus (GPa) = 29.94812 45.57489 37.76150
# Shear Modulus (GPa) = 3.90547 23.03643 13.47095
#
# Velocity S-wave (km/s) = 1.32233 3.21151 2.45585
# Velocity P-wave (km/s) = 3.96733 5.84435 4.99481
#
# Compressibility (1/GPa) = 0.03339108
#
# Stress axis : x y z
#
# Youngs Moduli (GPa) = 115.48055 78.66845 34.68035
#
# Poissons Ratio (x) = 0.28113 0.13050
# Poissons Ratio (y) = 0.41269 0.03714
# Poissons Ratio (z) = 0.43454 0.08424
#
# Static dielectric constant tensor:
#      x y z
#    x 1.797680 0.000000 0.000000 
#    y 0.000000 1.827250 0.000000 
#    z 0.000000 0.000000 1.834310 
# 
# From -- ./inp_files/29069.got.cif
#   From: 2010.05.17/outbox.cif.g08.bks.cpg/sg20_15_cif.got.tgz:29069.got - 2010.06.03 22:52:26.
