data_PCOD9318992
_publ_section_title
;
Structure prediction by ZEFSAII (Michael W. Deem and Ramdas Pophale) SiO2 
 PCOD9318992
Probable space group: C 2 2 21
;
_chemical_formula_sum "Si O2"
_cell_formula_units_Z 48
_cell_length_a 8.250685
_cell_length_b 30.024992
_cell_length_c 8.060743
_cell_angle_alpha 90.000000
_cell_angle_beta 90.000000
_cell_angle_gamma 90.000000
_cell_volume 1996.861675
_symmetry_space_group_name_H-M "C 2 2 21"
_symmetry_group_IT_number 20
_symmetry_cell_setting 'orthorhombic'
loop_
_space_group_symop_operation_xyz
x,y,z
-x,-y,1/2+z
x,-y,-z
-x,y,1/2-z
1/2+x,1/2+y,z
1/2-x,1/2-y,1/2+z
1/2+x,1/2-y,-z
1/2-x,1/2+y,1/2-z
loop_
_atom_site_type_symbol
_atom_site_label
_atom_site_fract_x
_atom_site_fract_y
_atom_site_fract_z
Si Si1 0.318487 0.981136 0.309218
Si Si2 0.890582 0.848995 0.583137
Si Si3 0.645278 0.774415 0.476246
Si Si4 0.306589 0.924112 0.763091
Si Si5 0.686393 0.802712 0.104936
Si Si6 0.828668 0.105816 0.906008
O O1 0.500000 0.968508 0.250000
O O2 0.200522 0.938769 0.301468
O O3 0.329884 0.000000 0.500000
O O4 0.263224 0.024330 0.205142
O O5 0.788519 0.804397 0.551841
O O6 0.760389 0.888317 0.610421
O O7 0.000000 0.844442 0.750000
O O8 0.001839 0.868801 0.435501
O O9 0.665095 0.779275 0.280392
O O10 0.467617 0.793695 0.512448
O O11 0.663106 0.723027 0.524627
O O12 0.500000 0.922254 0.750000
O O13 0.226087 0.909988 0.589541
O O14 0.708301 0.854336 0.140755
#
# Coordination Sequence:
#
# PCOD9318992 Si02
#       6
#     8   8   8   8   8   8
#     4   9  19  37  66  95 129 171 219 270 320 387
#     4  10  22  40  69  95 134 170 222 271 329 394
#     4  11  26  44  70  98 132 172 221 273 330 399
#     4   9  18  37  67  95 125 173 224 265 324 386
#     4  11  26  44  67  99 133 172 219 272 333 396
#     4  10  21  38  65  92 135 172 212 275 325 388
#
# _framework density 24.037718999999999
#
# number of rings (size 3 to 8) (size 9 to 14) (size 15 to 20)
#    0.000    2.000    0.000    2.000    9.333    2.667 
#    0.000    0.000   29.333    0.000    0.000    0.000 
#    0.000    0.000    0.000    0.000    0.000    0.000 
#
# Total GULP energy -134191.287453 kJ/mol
# GULP energy per Si atom -5591.303644 kJ/mol
# Density = 2.398301 g / cm^3
# Si number density = 24.037719 Si / 1000 Ang^3
#
#
#
# Elastic Constant Matrix: (Units=GPa)
#
#
# Indices 1 2 3 4 5 6 
#
# 1 77.7170 53.4041 5.4019 0.0000 0.0000 0.0000
# 2 53.4041 168.6523 23.3566 0.0000 0.0000 0.0000
# 3 5.4019 23.3566 36.1376 0.0000 0.0000 0.0000
# 4 0.0000 0.0000 0.0000 15.6939 0.0000 0.0000
# 5 0.0000 0.0000 0.0000 0.0000 26.7771 0.0000
# 6 0.0000 0.0000 0.0000 0.0000 0.0000 39.0898
#
#
#
# Elastic Compliance Matrix: (Units=1/GPa)
#
#
# Indices 1 2 3 4 5 6 
#
# 1 0.016478 -0.005356 0.000999 0.000000 0.000000 0.000000
# 2 -0.005356 0.008253 -0.004534 0.000000 0.000000 0.000000
# 3 0.000999 -0.004534 0.030453 0.000000 0.000000 0.000000
# 4 0.000000 0.000000 0.000000 0.063719 0.000000 0.000000
# 5 0.000000 0.000000 0.000000 0.000000 0.037345 0.000000
# 6 0.000000 0.000000 0.000000 0.000000 0.000000 0.025582
#
#
# Mechanical properties :
#
#
# Convention : Reuss Voigt Hill
#
# Bulk Modulus (GPa) = 26.73641 49.64800 38.19220
# Shear Modulus (GPa) = 23.57592 29.66846 26.62219
#
# Velocity S-wave (km/s) = 3.13515 3.51700 3.33155
# Velocity P-wave (km/s) = 4.92467 6.09847 5.54273
#
# Compressibility (1/GPa) = 0.03740218
#
# Stress axis : x y z
#
# Youngs Moduli (GPa) = 60.68569 121.16409 32.83756
#
# Poissons Ratio (x) = 0.64898 -0.03279
# Poissons Ratio (y) = 0.32504 0.14887
# Poissons Ratio (z) = -0.06060 0.54931
#
# Static dielectric constant tensor:
#      x y z
#    x 2.005290 0.000000 0.000000 
#    y 0.000000 1.882490 0.000000 
#    z 0.000000 0.000000 1.974700 
# 
# From -- ./inp_files/6533.got.cif
#   From: 2010.05.17/outbox.cif.g08.bks.cpg/sg20_4_cif.got.tgz:6533.got - 2010.06.03 22:52:26.
