data_PCOD9318860
_publ_section_title
;
Structure prediction by ZEFSAII (Michael W. Deem and Ramdas Pophale) SiO2 
 PCOD9318860
Probable space group: C 2 2 21
;
_chemical_formula_sum "Si O2"
_cell_formula_units_Z 56
_cell_length_a 22.712433
_cell_length_b 14.575517
_cell_length_c 8.981225
_cell_angle_alpha 90.000000
_cell_angle_beta 90.000000
_cell_angle_gamma 90.000000
_cell_volume 2973.193701
_symmetry_space_group_name_H-M "C 2 2 21"
_symmetry_group_IT_number 20
_symmetry_cell_setting 'orthorhombic'
loop_
_space_group_symop_operation_xyz
x,y,z
-x,-y,1/2+z
x,-y,-z
-x,y,1/2-z
1/2+x,1/2+y,z
1/2-x,1/2-y,1/2+z
1/2+x,1/2-y,-z
1/2-x,1/2+y,1/2-z
loop_
_atom_site_type_symbol
_atom_site_label
_atom_site_fract_x
_atom_site_fract_y
_atom_site_fract_z
Si Si1 0.464322 0.084496 0.395139
Si Si2 0.014182 0.247310 0.425841
Si Si3 0.897203 0.853003 0.528084
Si Si4 0.261022 0.577345 0.116792
Si Si5 0.869410 0.838132 0.058508
Si Si6 0.864433 0.004356 0.727557
Si Si7 0.150303 0.703387 0.161714
O O1 0.500000 0.053950 0.250000
O O2 0.503139 0.156582 0.490524
O O3 0.406324 0.137800 0.341563
O O4 0.448592 0.000000 0.500000
O O5 0.077719 0.207508 0.467312
O O6 0.000000 0.256161 0.250000
O O7 0.963917 0.179805 0.491411
O O8 0.877057 0.926675 0.406504
O O9 0.856642 0.765148 0.489248
O O10 0.892699 0.907109 0.683380
O O11 0.296223 0.520881 0.243604
O O12 0.208615 0.642638 0.165548
O O13 0.239926 0.500000 0.000000
O O14 0.311819 0.638328 0.037816
O O15 0.886521 0.936679 0.131930
O O16 0.853879 0.770911 0.196459
#
# Coordination Sequence:
#
# PCOD9318860 Si02
#       7
#     8   8   8   8   8   8   8
#     4  11  22  41  68  92 126 160 208 265 321 374
#     4  11  22  40  63  96 129 159 205 257 316 386
#     4   9  20  37  59  89 121 163 205 252 315 373
#     4  10  21  37  58  87 125 160 210 258 310 373
#     4  10  21  39  60  90 125 165 204 257 310 372
#     4   9  19  38  56  86 126 158 205 255 300 369
#     4  10  21  37  65  86 119 168 209 257 318 372
#
# _framework density 18.834963999999999
#
# number of rings (size 3 to 8) (size 9 to 14) (size 15 to 20)
#    0.000    2.000    1.429    1.714    2.000    0.000 
#   15.429    0.000    9.429    0.000    0.000    0.000 
#    0.000    0.000    0.000    0.000    0.000    0.000 
#
# Total GULP energy -156051.865134 kJ/mol
# GULP energy per Si atom -5573.280898 kJ/mol
# Density = 1.879209 g / cm^3
# Si number density = 18.834964 Si / 1000 Ang^3
#
#
#
# Elastic Constant Matrix: (Units=GPa)
#
#
# Indices 1 2 3 4 5 6 
#
# 1 62.0612 26.9352 32.6532 0.0000 0.0000 0.0000
# 2 26.9352 72.9094 33.0644 0.0000 0.0000 0.0000
# 3 32.6532 33.0644 76.0943 0.0000 0.0000 0.0000
# 4 0.0000 0.0000 0.0000 37.2044 0.0000 0.0000
# 5 0.0000 0.0000 0.0000 0.0000 18.5606 0.0000
# 6 0.0000 0.0000 0.0000 0.0000 0.0000 45.8480
#
#
#
# Elastic Compliance Matrix: (Units=1/GPa)
#
#
# Indices 1 2 3 4 5 6 
#
# 1 0.022088 -0.004809 -0.007389 0.000000 0.000000 0.000000
# 2 -0.004809 0.018129 -0.005814 0.000000 0.000000 0.000000
# 3 -0.007389 -0.005814 0.018838 0.000000 0.000000 0.000000
# 4 0.000000 0.000000 0.000000 0.026879 0.000000 0.000000
# 5 0.000000 0.000000 0.000000 0.000000 0.053878 0.000000
# 6 0.000000 0.000000 0.000000 0.000000 0.000000 0.021811
#
#
# Mechanical properties :
#
#
# Convention : Reuss Voigt Hill
#
# Bulk Modulus (GPa) = 43.41761 44.04117 43.72939
# Shear Modulus (GPa) = 24.35194 28.21674 26.28434
#
# Velocity S-wave (km/s) = 3.59961 3.87473 3.73970
# Velocity P-wave (km/s) = 6.35436 6.59178 6.47416
#
# Compressibility (1/GPa) = 0.02303213
#
# Stress axis : x y z
#
# Youngs Moduli (GPa) = 45.27373 55.16076 53.08355
#
# Poissons Ratio (x) = 0.26529 0.39221
# Poissons Ratio (y) = 0.21774 0.30861
# Poissons Ratio (z) = 0.33451 0.32068
#
# Static dielectric constant tensor:
#      x y z
#    x 1.611510 0.000000 0.000000 
#    y 0.000000 1.663220 0.000000 
#    z 0.000000 0.000000 1.712230 
# 
# From -- ./inp_files/10198.got.cif
#   From: 2010.05.17/outbox.cif.g08.bks.cpg/sg20_6_cif.got.tgz:10198.got - 2010.06.03 22:52:26.
