data_PCOD9318471
_publ_section_title
;
Structure prediction by ZEFSAII (Michael W. Deem and Ramdas Pophale) SiO2 
 PCOD9318471
Probable space group: C 2 2 21
;
_chemical_formula_sum "Si O2"
_cell_formula_units_Z 60
_cell_length_a 16.099946
_cell_length_b 9.079124
_cell_length_c 18.491872
_cell_angle_alpha 90.000000
_cell_angle_beta 90.000000
_cell_angle_gamma 90.000000
_cell_volume 2703.019916
_symmetry_space_group_name_H-M "C 2 2 21"
_symmetry_group_IT_number 20
_symmetry_cell_setting 'orthorhombic'
loop_
_space_group_symop_operation_xyz
x,y,z
-x,-y,1/2+z
x,-y,-z
-x,y,1/2-z
1/2+x,1/2+y,z
1/2-x,1/2-y,1/2+z
1/2+x,1/2-y,-z
1/2-x,1/2+y,1/2-z
loop_
_atom_site_type_symbol
_atom_site_label
_atom_site_fract_x
_atom_site_fract_y
_atom_site_fract_z
Si Si1 0.935841 0.748746 0.091917
Si Si2 0.808439 0.618426 0.699382
Si Si3 0.015701 0.000000 0.000000
Si Si4 0.463395 0.972258 0.671842
Si Si5 0.115480 0.972038 0.294710
Si Si6 0.404118 0.210920 0.845757
Si Si7 0.203525 0.495739 0.578852
Si Si8 0.368918 0.577341 0.362094
O O1 0.930255 0.839851 0.166300
O O2 0.851679 0.652000 0.086804
O O3 0.006810 0.628882 0.106775
O O4 0.960319 0.862846 0.029140
O O5 0.865021 0.481928 0.674975
O O6 0.712914 0.573920 0.702666
O O7 0.848628 0.661314 0.776677
O O8 0.833472 0.756708 0.648935
O O9 0.072826 0.051104 0.068501
O O10 0.500000 0.924877 0.750000
O O11 0.506237 0.134048 0.662016
O O12 0.098292 0.115369 0.343964
O O13 0.092302 0.020091 0.213336
O O14 0.359378 0.130839 0.911624
O O15 0.240740 0.500000 0.500000
O O16 0.281979 0.509237 0.630253
#
# Coordination Sequence:
#
# PCOD9318471 Si02
#       8
#     8   8   4   8   8   8   8   8
#     4  11  27  45  68 101 136 182 236 288 332 422
#     4  10  20  40  69 101 133 167 229 286 337 407
#     4  12  30  46  64  98 146 186 234 278 350 420
#     4   9  21  40  65  98 136 171 220 279 346 402
#     4  11  23  41  75 102 132 172 236 297 333 400
#     4   9  21  38  64  99 135 175 217 276 346 404
#     4  11  22  43  70  96 139 186 222 278 356 418
#     4  11  24  44  68 101 141 180 228 288 353 407
#
# _framework density 22.197395
#
# number of rings (size 3 to 8) (size 9 to 14) (size 15 to 20)
#    0.000    1.600    3.333    0.000    5.600    2.133 
#    0.000    0.000    0.000    0.000    0.000    0.000 
#    0.000    0.000    0.000    0.000    0.000    0.000 
#
# Total GULP energy -167546.613425 kJ/mol
# GULP energy per Si atom -5584.887114 kJ/mol
# Density = 2.214687 g / cm^3
# Si number density = 22.197395 Si / 1000 Ang^3
#
#
#
# Elastic Constant Matrix: (Units=GPa)
#
#
# Indices 1 2 3 4 5 6 
#
# 1 83.4486 18.4813 14.0807 0.0000 0.0000 0.0000
# 2 18.4813 92.5410 27.8685 0.0000 0.0000 0.0000
# 3 14.0807 27.8685 71.8943 0.0000 0.0000 0.0000
# 4 0.0000 0.0000 0.0000 32.7756 0.0000 0.0000
# 5 0.0000 0.0000 0.0000 0.0000 32.9222 0.0000
# 6 0.0000 0.0000 0.0000 0.0000 0.0000 20.2765
#
#
#
# Elastic Compliance Matrix: (Units=1/GPa)
#
#
# Indices 1 2 3 4 5 6 
#
# 1 0.012720 -0.002027 -0.001706 0.000000 0.000000 0.000000
# 2 -0.002027 0.012557 -0.004471 0.000000 0.000000 0.000000
# 3 -0.001706 -0.004471 0.015976 0.000000 0.000000 0.000000
# 4 0.000000 0.000000 0.000000 0.030510 0.000000 0.000000
# 5 0.000000 0.000000 0.000000 0.000000 0.030375 0.000000
# 6 0.000000 0.000000 0.000000 0.000000 0.000000 0.049318
#
#
# Mechanical properties :
#
#
# Convention : Reuss Voigt Hill
#
# Bulk Modulus (GPa) = 40.24530 40.97166 40.60848
# Shear Modulus (GPa) = 28.38568 29.69176 29.03872
#
# Velocity S-wave (km/s) = 3.57989 3.66132 3.62083
# Velocity P-wave (km/s) = 5.93780 6.03089 5.98453
#
# Compressibility (1/GPa) = 0.02484762
#
# Stress axis : x y z
#
# Youngs Moduli (GPa) = 78.61592 79.63642 62.59267
#
# Poissons Ratio (x) = 0.16140 0.10676
# Poissons Ratio (y) = 0.15933 0.27983
# Poissons Ratio (z) = 0.13409 0.35602
#
# Static dielectric constant tensor:
#      x y z
#    x 1.803080 0.000000 0.000000 
#    y 0.000000 1.826060 0.000000 
#    z 0.000000 0.000000 1.835750 
# 
# From -- ./inp_files/25276.got.cif
#   From: 2010.05.17/outbox.cif.g08.bks.cpg/sg20_13_cif.got.tgz:25276.got - 2010.06.03 22:52:26.
