data_PCOD9318606
_publ_section_title
;
Structure prediction by ZEFSAII (Michael W. Deem and Ramdas Pophale) SiO2 
 PCOD9318606
Probable space group: C 2 2 21
;
_chemical_formula_sum "Si O2"
_cell_formula_units_Z 64
_cell_length_a 21.502257
_cell_length_b 8.510864
_cell_length_c 17.345957
_cell_angle_alpha 90.000000
_cell_angle_beta 90.000000
_cell_angle_gamma 90.000000
_cell_volume 3174.358440
_symmetry_space_group_name_H-M "C 2 2 21"
_symmetry_group_IT_number 20
_symmetry_cell_setting 'orthorhombic'
loop_
_space_group_symop_operation_xyz
x,y,z
-x,-y,1/2+z
x,-y,-z
-x,y,1/2-z
1/2+x,1/2+y,z
1/2-x,1/2-y,1/2+z
1/2+x,1/2-y,-z
1/2-x,1/2+y,1/2-z
loop_
_atom_site_type_symbol
_atom_site_label
_atom_site_fract_x
_atom_site_fract_y
_atom_site_fract_z
Si Si1 0.789080 0.833217 0.034740
Si Si2 0.372891 0.964727 0.919254
Si Si3 0.987781 0.651216 0.162590
Si Si4 0.916347 0.431713 0.413010
Si Si5 0.216970 0.482513 0.166968
Si Si6 0.185978 0.854489 0.056330
Si Si7 0.546900 0.676572 0.979431
Si Si8 0.222854 0.329681 0.328941
O O1 0.831259 0.682201 0.052274
O O2 0.762807 0.877001 0.117503
O O3 0.731328 0.778381 0.980027
O O4 0.814280 0.000000 0.000000
O O5 0.418397 0.911699 0.851467
O O6 0.331014 0.111186 0.888426
O O7 0.408906 0.000000 0.000000
O O8 0.000000 0.710473 0.250000
O O9 0.035408 0.509252 0.145542
O O10 0.001014 0.760770 0.087288
O O11 0.920644 0.500000 0.500000
O O12 0.848254 0.470883 0.379774
O O13 0.939790 0.258422 0.437135
O O14 0.205284 0.403337 0.248529
O O15 0.253040 0.649445 0.176968
O O16 0.114720 0.809800 0.060960
O O17 0.214740 0.907472 0.136700
O O18 0.190069 0.000000 0.000000
O O19 0.530453 0.500000 0.000000
#
# Coordination Sequence:
#
# PCOD9318606 Si02
#       8
#     8   8   8   8   8   8   8   8
#     4  12  21  38  63  94 125 168 210 257 322 399
#     4  12  23  42  62  88 131 174 218 264 329 400
#     4  11  25  44  65  92 129 174 223 272 325 383
#     4  10  20  42  68  92 117 166 226 268 316 394
#     4  12  24  36  61  95 131 162 218 272 331 388
#     4  11  20  39  64  91 130 160 213 260 318 389
#     4  10  22  39  72 100 122 170 222 277 318 382
#     4  12  23  37  57  92 135 171 206 269 336 385
#
# _framework density 20.161553999999999
#
# number of rings (size 3 to 8) (size 9 to 14) (size 15 to 20)
#    0.000    0.750    5.000    4.500    0.000    1.500 
#    0.000    1.875    0.000    0.000    0.000    0.000 
#    0.000    0.000    0.000    0.000    0.000    0.000 
#
# Total GULP energy -178158.432222 kJ/mol
# GULP energy per Si atom -5567.451007 kJ/mol
# Density = 2.011567 g / cm^3
# Si number density = 20.161554 Si / 1000 Ang^3
#
#
#
# Elastic Constant Matrix: (Units=GPa)
#
#
# Indices 1 2 3 4 5 6 
#
# 1 59.1151 21.0541 21.4889 0.0000 0.0000 0.0000
# 2 21.0541 94.7638 22.4682 0.0000 0.0000 0.0000
# 3 21.4889 22.4682 105.4047 0.0000 0.0000 0.0000
# 4 0.0000 0.0000 0.0000 23.8005 0.0000 0.0000
# 5 0.0000 0.0000 0.0000 0.0000 24.4502 0.0000
# 6 0.0000 0.0000 0.0000 0.0000 0.0000 20.4827
#
#
#
# Elastic Compliance Matrix: (Units=1/GPa)
#
#
# Indices 1 2 3 4 5 6 
#
# 1 0.019336 -0.003540 -0.003187 0.000000 0.000000 0.000000
# 2 -0.003540 0.011762 -0.001786 0.000000 0.000000 0.000000
# 3 -0.003187 -0.001786 0.010518 0.000000 0.000000 0.000000
# 4 0.000000 0.000000 0.000000 0.042016 0.000000 0.000000
# 5 0.000000 0.000000 0.000000 0.000000 0.040900 0.000000
# 6 0.000000 0.000000 0.000000 0.000000 0.000000 0.048822
#
#
# Mechanical properties :
#
#
# Convention : Reuss Voigt Hill
#
# Bulk Modulus (GPa) = 40.66759 43.25619 41.96189
# Shear Modulus (GPa) = 25.17934 26.69817 25.93876
#
# Velocity S-wave (km/s) = 3.53778 3.64292 3.59074
# Velocity P-wave (km/s) = 6.07474 6.26066 6.16840
#
# Compressibility (1/GPa) = 0.02458960
#
# Stress axis : x y z
#
# Youngs Moduli (GPa) = 51.71800 85.01635 95.07824
#
# Poissons Ratio (x) = 0.30097 0.30305
# Poissons Ratio (y) = 0.18309 0.16977
# Poissons Ratio (z) = 0.16484 0.15180
#
# Static dielectric constant tensor:
#      x y z
#    x 1.726890 0.000000 0.000000 
#    y 0.000000 1.917450 0.000000 
#    z 0.000000 0.000000 1.755610 
# 
# From -- ./inp_files/25497.got.cif
#   From: 2010.05.17/outbox.cif.g08.bks.cpg/sg20_13_cif.got.tgz:25497.got - 2010.06.03 22:52:26.
