data_PCOD9318806
_publ_section_title
;
Structure prediction by ZEFSAII (Michael W. Deem and Ramdas Pophale) SiO2 
 PCOD9318806
Probable space group: C 2 2 21
;
_chemical_formula_sum "Si O2"
_cell_formula_units_Z 40
_cell_length_a 28.022708
_cell_length_b 8.528770
_cell_length_c 6.921915
_cell_angle_alpha 90.000000
_cell_angle_beta 90.000000
_cell_angle_gamma 90.000000
_cell_volume 1654.332364
_symmetry_space_group_name_H-M "C 2 2 21"
_symmetry_group_IT_number 20
_symmetry_cell_setting 'orthorhombic'
loop_
_space_group_symop_operation_xyz
x,y,z
-x,-y,1/2+z
x,-y,-z
-x,y,1/2-z
1/2+x,1/2+y,z
1/2-x,1/2-y,1/2+z
1/2+x,1/2-y,-z
1/2-x,1/2+y,1/2-z
loop_
_atom_site_type_symbol
_atom_site_label
_atom_site_fract_x
_atom_site_fract_y
_atom_site_fract_z
Si Si1 0.707422 0.160193 0.374929
Si Si2 0.888418 0.179507 0.946387
Si Si3 0.012683 0.682292 0.474026
Si Si4 0.084872 0.816075 0.996771
Si Si5 0.812737 0.806691 0.532079
O O1 0.663980 0.249772 0.479650
O O2 0.762147 0.220817 0.366092
O O3 0.692592 0.188801 0.151572
O O4 0.709728 0.000000 0.500000
O O5 0.899775 0.212217 0.719498
O O6 0.938587 0.234854 0.035233
O O7 0.883982 0.000000 0.000000
O O8 0.021182 0.500000 0.500000
O O9 0.962207 0.726413 0.568341
O O10 0.000000 0.719161 0.250000
O O11 0.134110 0.778532 0.884803
O O12 0.073193 0.000000 0.000000
O O13 0.814354 0.000000 0.500000
#
# Coordination Sequence:
#
# PCOD9318806 Si02
#       5
#     8   8   8   8   8
#     4  10  21  39  62  90 122 159 203 253 301 356
#     4  10  21  36  58  85 116 152 192 240 296 358
#     4  10  21  37  55  80 112 145 187 241 294 349
#     4   9  19  37  57  80 111 148 192 234 287 356
#     4   9  20  39  60  87 122 160 200 248 305 367
#
# _framework density 24.178937999999999
#
# number of rings (size 3 to 8) (size 9 to 14) (size 15 to 20)
#    0.000    2.400    0.000    1.200    0.000    9.600 
#    0.000   13.000    0.000    0.000    0.000    0.000 
#    0.000    0.000    0.000    0.000    0.000    0.000 
#
# Total GULP energy -111387.997925 kJ/mol
# GULP energy per Si atom -5569.399896 kJ/mol
# Density = 2.412391 g / cm^3
# Si number density = 24.178938 Si / 1000 Ang^3
#
#
#
# Elastic Constant Matrix: (Units=GPa)
#
#
# Indices 1 2 3 4 5 6 
#
# 1 257.0260 62.6610 -1.3000 0.0000 0.0000 0.0000
# 2 62.6610 66.5499 -3.2186 0.0000 0.0000 0.0000
# 3 -1.3000 -3.2186 45.4409 0.0000 0.0000 0.0000
# 4 0.0000 0.0000 0.0000 25.2250 0.0000 0.0000
# 5 0.0000 0.0000 0.0000 0.0000 33.4886 0.0000
# 6 0.0000 0.0000 0.0000 0.0000 0.0000 51.7849
#
#
#
# Elastic Compliance Matrix: (Units=1/GPa)
#
#
# Indices 1 2 3 4 5 6 
#
# 1 0.005052 -0.004766 -0.000193 0.000000 0.000000 0.000000
# 2 -0.004766 0.019574 0.001250 0.000000 0.000000 0.000000
# 3 -0.000193 0.001250 0.022090 0.000000 0.000000 0.000000
# 4 0.000000 0.000000 0.000000 0.039643 0.000000 0.000000
# 5 0.000000 0.000000 0.000000 0.000000 0.029861 0.000000
# 6 0.000000 0.000000 0.000000 0.000000 0.000000 0.019311
#
#
# Mechanical properties :
#
#
# Convention : Reuss Voigt Hill
#
# Bulk Modulus (GPa) = 25.44665 53.92238 39.68451
# Shear Modulus (GPa) = 32.04175 42.82465 37.43320
#
# Velocity S-wave (km/s) = 3.64427 4.21307 3.93895
# Velocity P-wave (km/s) = 5.31552 6.78354 6.09390
#
# Compressibility (1/GPa) = 0.03929791
#
# Stress axis : x y z
#
# Youngs Moduli (GPa) = 197.96055 51.08830 45.27013
#
# Poissons Ratio (x) = 0.24347 0.00874
# Poissons Ratio (y) = 0.94341 -0.05659
# Poissons Ratio (z) = 0.03821 -0.06387
#
# Static dielectric constant tensor:
#      x y z
#    x 1.945940 0.000000 0.000000 
#    y 0.000000 1.849450 0.000000 
#    z 0.000000 0.000000 2.067220 
# 
# From -- ./inp_files/10970.got.cif
#   From: 2010.05.17/outbox.cif.g08.bks.cpg/sg20_6_cif.got.tgz:10970.got - 2010.06.03 22:52:26.
