data_PCOD9318551
_publ_section_title
;
Structure prediction by ZEFSAII (Michael W. Deem and Ramdas Pophale) SiO2 
 PCOD9318551
Probable space group: C 2 2 21
;
_chemical_formula_sum "Si O2"
_cell_formula_units_Z 36
_cell_length_a 12.881473
_cell_length_b 12.974261
_cell_length_c 8.112105
_cell_angle_alpha 90.000000
_cell_angle_beta 90.000000
_cell_angle_gamma 90.000000
_cell_volume 1355.756581
_symmetry_space_group_name_H-M "C 2 2 21"
_symmetry_group_IT_number 20
_symmetry_cell_setting 'orthorhombic'
loop_
_space_group_symop_operation_xyz
x,y,z
-x,-y,1/2+z
x,-y,-z
-x,y,1/2-z
1/2+x,1/2+y,z
1/2-x,1/2-y,1/2+z
1/2+x,1/2-y,-z
1/2-x,1/2+y,1/2-z
loop_
_atom_site_type_symbol
_atom_site_label
_atom_site_fract_x
_atom_site_fract_y
_atom_site_fract_z
Si Si1 0.726024 0.066819 0.215960
Si Si2 0.069848 0.500000 0.500000
Si Si3 0.087052 0.719189 0.561711
Si Si4 0.429083 0.407883 0.616887
Si Si5 0.263047 0.162024 0.625548
O O1 0.636586 0.035919 0.341890
O O2 0.819154 0.122880 0.310048
O O3 0.773714 0.954971 0.167406
O O4 0.693145 0.135472 0.059382
O O5 0.024109 0.611484 0.541663
O O6 0.998838 0.810225 0.927943
O O7 0.165980 0.762132 0.419485
O O8 0.161540 0.689709 0.719747
O O9 0.402030 0.500000 0.500000
O O10 0.500000 0.463024 0.750000
#
# Coordination Sequence:
#
# PCOD9318551 Si02
#       5
#     8   4   8   8   8
#     4  10  20  41  69 103 136 179 240 295 362 410
#     4  10  22  42  70  98 138 192 234 280 348 448
#     4  11  23  39  65  99 144 180 237 289 359 423
#     4  12  24  40  68 108 144 174 227 310 365 414
#     4  10  21  38  66 100 138 182 236 293 348 431
#
# _framework density 26.553436999999999
#
# number of rings (size 3 to 8) (size 9 to 14) (size 15 to 20)
#    0.000    1.333    3.333    2.667    0.000    0.000 
#    0.000    2.222    0.000    9.333    2.889    0.000 
#    0.000    0.000    0.000    0.000    0.000    0.000 
#
# Total GULP energy -100276.721609 kJ/mol
# GULP energy per Si atom -5570.928978 kJ/mol
# Density = 2.649300 g / cm^3
# Si number density = 26.553437 Si / 1000 Ang^3
#
#
#
# Elastic Constant Matrix: (Units=GPa)
#
#
# Indices 1 2 3 4 5 6 
#
# 1 135.7838 41.6165 30.2761 0.0000 0.0000 0.0000
# 2 41.6165 157.3042 13.2054 0.0000 0.0000 0.0000
# 3 30.2761 13.2054 44.5232 0.0000 0.0000 0.0000
# 4 0.0000 0.0000 0.0000 89.6959 0.0000 0.0000
# 5 0.0000 0.0000 0.0000 0.0000 40.7135 0.0000
# 6 0.0000 0.0000 0.0000 0.0000 0.0000 28.1342
#
#
#
# Elastic Compliance Matrix: (Units=1/GPa)
#
#
# Indices 1 2 3 4 5 6 
#
# 1 0.009238 -0.001966 -0.005699 0.000000 0.000000 0.000000
# 2 -0.001966 0.006938 -0.000721 0.000000 0.000000 0.000000
# 3 -0.005699 -0.000721 0.026549 0.000000 0.000000 0.000000
# 4 0.000000 0.000000 0.000000 0.011149 0.000000 0.000000
# 5 0.000000 0.000000 0.000000 0.000000 0.024562 0.000000
# 6 0.000000 0.000000 0.000000 0.000000 0.000000 0.035544
#
#
# Mechanical properties :
#
#
# Convention : Reuss Voigt Hill
#
# Bulk Modulus (GPa) = 38.52993 56.42304 47.47649
# Shear Modulus (GPa) = 35.86768 48.54294 42.20531
#
# Velocity S-wave (km/s) = 3.67927 4.28029 3.99111
# Velocity P-wave (km/s) = 5.70887 6.76187 6.25756
#
# Compressibility (1/GPa) = 0.02595385
#
# Stress axis : x y z
#
# Youngs Moduli (GPa) = 108.25167 144.14108 37.66586
#
# Poissons Ratio (x) = 0.28332 0.21465
# Poissons Ratio (y) = 0.21277 0.02716
# Poissons Ratio (z) = 0.61690 0.10394
#
# Static dielectric constant tensor:
#      x y z
#    x 2.033880 0.000000 0.000000 
#    y 0.000000 2.147260 0.000000 
#    z 0.000000 0.000000 2.286570 
# 
# From -- ./inp_files/8041.got.cif
#   From: 2010.05.17/outbox.cif.g08.bks.cpg/sg20_5_cif.got.tgz:8041.got - 2010.06.03 22:52:26.
