data_PCOD9318937
_publ_section_title
;
Structure prediction by ZEFSAII (Michael W. Deem and Ramdas Pophale) SiO2 
 PCOD9318937
Probable space group: C 2 2 21
;
_chemical_formula_sum "Si O2"
_cell_formula_units_Z 64
_cell_length_a 12.649155
_cell_length_b 28.502662
_cell_length_c 8.082043
_cell_angle_alpha 90.000000
_cell_angle_beta 90.000000
_cell_angle_gamma 90.000000
_cell_volume 2913.856056
_symmetry_space_group_name_H-M "C 2 2 21"
_symmetry_group_IT_number 20
_symmetry_cell_setting 'orthorhombic'
loop_
_space_group_symop_operation_xyz
x,y,z
-x,-y,1/2+z
x,-y,-z
-x,y,1/2-z
1/2+x,1/2+y,z
1/2-x,1/2-y,1/2+z
1/2+x,1/2-y,-z
1/2-x,1/2+y,1/2-z
loop_
_atom_site_type_symbol
_atom_site_label
_atom_site_fract_x
_atom_site_fract_y
_atom_site_fract_z
Si Si1 0.469378 0.101320 0.062102
Si Si2 0.898817 0.771543 0.486922
Si Si3 0.260046 0.050394 0.088173
Si Si4 0.673885 0.052666 0.026628
Si Si5 0.064730 0.696542 0.586663
Si Si6 0.736997 0.289812 0.303006
Si Si7 0.648924 0.386098 0.390512
Si Si8 0.420803 0.380126 0.492153
O O1 0.500000 0.088963 0.250000
O O2 0.363910 0.074566 0.006168
O O3 0.576864 0.085932 0.974332
O O4 0.448594 0.156277 0.047201
O O5 0.806345 0.745244 0.588075
O O6 0.865802 0.770547 0.293160
O O7 0.905020 0.825795 0.539337
O O8 0.007373 0.744258 0.529395
O O9 0.289472 0.051515 0.282055
O O10 0.157199 0.083127 0.075235
O O11 0.243980 0.000000 0.000000
O O12 0.773319 0.071059 0.923244
O O13 0.637688 0.000000 0.000000
O O14 0.184103 0.698273 0.650651
O O15 0.000000 0.681233 0.750000
O O16 0.707402 0.335823 0.408764
O O17 0.545297 0.390128 0.503662
O O18 0.610981 0.384245 0.201307
#
# Coordination Sequence:
#
# PCOD9318937 Si02
#       8
#     8   8   8   8   8   8   8   8
#     4  10  22  40  63  95 131 166 215 266 322 382
#     4  10  22  38  59  91 123 168 211 259 317 380
#     4  11  24  43  66  95 129 170 212 268 332 384
#     4  11  23  40  65  96 124 163 217 269 324 389
#     4  10  21  38  59  90 126 169 213 259 318 384
#     4  10  22  39  61  89 125 171 216 257 317 379
#     4  10  22  43  65  88 123 169 215 262 317 381
#     4  10  23  43  64  91 126 165 213 263 319 383
#
# _framework density 21.964020999999999
#
# number of rings (size 3 to 8) (size 9 to 14) (size 15 to 20)
#    0.000    1.750    0.000    4.125    1.750    6.000 
#    6.750    0.000    0.000    0.000    0.000    0.000 
#    0.000    0.000    0.000    0.000    0.000    0.000 
#
# Total GULP energy -178728.926247 kJ/mol
# GULP energy per Si atom -5585.278945 kJ/mol
# Density = 2.191403 g / cm^3
# Si number density = 21.964021 Si / 1000 Ang^3
#
#
#
# Elastic Constant Matrix: (Units=GPa)
#
#
# Indices 1 2 3 4 5 6 
#
# 1 112.3040 37.5897 10.1124 0.0000 0.0000 0.0000
# 2 37.5897 107.3230 11.2117 0.0000 0.0000 0.0000
# 3 10.1124 11.2117 18.4029 0.0000 0.0000 0.0000
# 4 0.0000 0.0000 0.0000 33.9263 0.0000 0.0000
# 5 0.0000 0.0000 0.0000 0.0000 25.9509 0.0000
# 6 0.0000 0.0000 0.0000 0.0000 0.0000 24.7950
#
#
#
# Elastic Compliance Matrix: (Units=1/GPa)
#
#
# Indices 1 2 3 4 5 6 
#
# 1 0.010318 -0.003227 -0.003704 0.000000 0.000000 0.000000
# 2 -0.003227 0.010960 -0.004904 0.000000 0.000000 0.000000
# 3 -0.003704 -0.004904 0.059362 0.000000 0.000000 0.000000
# 4 0.000000 0.000000 0.000000 0.029476 0.000000 0.000000
# 5 0.000000 0.000000 0.000000 0.000000 0.038534 0.000000
# 6 0.000000 0.000000 0.000000 0.000000 0.000000 0.040331
#
#
# Mechanical properties :
#
#
# Convention : Reuss Voigt Hill
#
# Bulk Modulus (GPa) = 17.55285 39.53973 28.54629
# Shear Modulus (GPa) = 21.58509 28.87550 25.23030
#
# Velocity S-wave (km/s) = 3.13828 3.62978 3.39294
# Velocity P-wave (km/s) = 4.59791 5.96726 5.32677
#
# Compressibility (1/GPa) = 0.05697081
#
# Stress axis : x y z
#
# Youngs Moduli (GPa) = 96.91788 91.23902 16.84569
#
# Poissons Ratio (x) = 0.29442 0.06239
# Poissons Ratio (y) = 0.31275 0.08261
# Poissons Ratio (z) = 0.35896 0.44745
#
# Static dielectric constant tensor:
#      x y z
#    x 1.838620 0.000000 0.000000 
#    y 0.000000 1.773290 0.000000 
#    z 0.000000 0.000000 1.895680 
# 
# From -- ./inp_files/7715.got.cif
#   From: 2010.05.17/outbox.cif.g08.bks.cpg/sg20_4_cif.got.tgz:7715.got - 2010.06.03 22:52:26.
