data_PCOD9318108
_publ_section_title
;
Structure prediction by ZEFSAII (Michael W. Deem and Ramdas Pophale) SiO2 
 PCOD9318108
Probable space group: C 2 2 21
;
_chemical_formula_sum "Si O2"
_cell_formula_units_Z 60
_cell_length_a 11.498667
_cell_length_b 9.419399
_cell_length_c 26.482644
_cell_angle_alpha 90.000000
_cell_angle_beta 90.000000
_cell_angle_gamma 90.000000
_cell_volume 2868.349272
_symmetry_space_group_name_H-M "C 2 2 21"
_symmetry_group_IT_number 20
_symmetry_cell_setting 'orthorhombic'
loop_
_space_group_symop_operation_xyz
x,y,z
-x,-y,1/2+z
x,-y,-z
-x,y,1/2-z
1/2+x,1/2+y,z
1/2-x,1/2-y,1/2+z
1/2+x,1/2-y,-z
1/2-x,1/2+y,1/2-z
loop_
_atom_site_type_symbol
_atom_site_label
_atom_site_fract_x
_atom_site_fract_y
_atom_site_fract_z
Si Si1 0.747731 0.863982 0.720398
Si Si2 0.977797 0.410149 0.143526
Si Si3 0.394052 0.831751 0.607523
Si Si4 0.296928 0.466970 0.059259
Si Si5 0.259712 0.671428 0.689490
Si Si6 0.933895 0.041962 0.557968
Si Si7 0.178925 0.787343 0.889415
Si Si8 0.500000 0.974568 0.750000
O O1 0.792572 0.772160 0.767032
O O2 0.766015 0.792884 0.666247
O O3 0.611464 0.885667 0.732836
O O4 0.797801 0.023545 0.715141
O O5 0.999351 0.560520 0.115969
O O6 0.055273 0.293472 0.115872
O O7 0.844701 0.367508 0.151150
O O8 0.027780 0.433367 0.200317
O O9 0.359905 0.752012 0.659258
O O10 0.413982 0.708018 0.567445
O O11 0.285773 0.929273 0.591144
O O12 0.431938 0.487574 0.072043
O O13 0.257016 0.307991 0.073663
O O14 0.281030 0.500000 0.000000
O O15 0.918003 0.000000 0.500000
O O16 0.848534 0.944016 0.590671
#
# Coordination Sequence:
#
# PCOD9318108 Si02
#       8
#     8   8   8   8   8   8   8   4
#     4  11  23  38  62  91 131 166 213 255 312 375
#     4  10  22  39  63  86 128 167 208 252 309 371
#     4  11  22  42  65  92 126 170 207 258 319 379
#     4  10  24  42  65  93 127 164 209 265 322 375
#     4  11  23  41  62  94 128 171 209 257 312 375
#     4  11  24  42  65  95 126 160 213 271 320 379
#     4  11  22  41  64  93 124 168 211 261 314 382
#     4  10  20  38  58  90 126 172 202 254 310 366
#
# _framework density 20.917954000000002
#
# number of rings (size 3 to 8) (size 9 to 14) (size 15 to 20)
#    0.000    1.333    2.667    3.200    5.600    0.000 
#    0.000    0.000    0.000    5.600    0.000    0.000 
#    0.000    0.000    0.000    0.000    0.000    0.000 
#
# Total GULP energy -167660.168576 kJ/mol
# GULP energy per Si atom -5588.672286 kJ/mol
# Density = 2.087034 g / cm^3
# Si number density = 20.917954 Si / 1000 Ang^3
#
#
#
# Elastic Constant Matrix: (Units=GPa)
#
#
# Indices 1 2 3 4 5 6 
#
# 1 54.8229 12.8029 12.2217 0.0000 0.0000 0.0000
# 2 12.8029 79.1523 -4.5017 0.0000 0.0000 0.0000
# 3 12.2217 -4.5017 22.8442 0.0000 0.0000 0.0000
# 4 0.0000 0.0000 0.0000 26.7131 0.0000 0.0000
# 5 0.0000 0.0000 0.0000 0.0000 30.0232 0.0000
# 6 0.0000 0.0000 0.0000 0.0000 0.0000 23.5794
#
#
#
# Elastic Compliance Matrix: (Units=1/GPa)
#
#
# Indices 1 2 3 4 5 6 
#
# 1 0.022061 -0.004288 -0.012648 0.000000 0.000000 0.000000
# 2 -0.004288 0.013610 0.004976 0.000000 0.000000 0.000000
# 3 -0.012648 0.004976 0.051522 0.000000 0.000000 0.000000
# 4 0.000000 0.000000 0.000000 0.037435 0.000000 0.000000
# 5 0.000000 0.000000 0.000000 0.000000 0.033308 0.000000
# 6 0.000000 0.000000 0.000000 0.000000 0.000000 0.042410
#
#
# Mechanical properties :
#
#
# Convention : Reuss Voigt Hill
#
# Bulk Modulus (GPa) = 15.80413 21.98502 18.89458
# Shear Modulus (GPa) = 20.37849 25.14958 22.76403
#
# Velocity S-wave (km/s) = 3.12462 3.47118 3.30245
# Velocity P-wave (km/s) = 4.53755 5.15736 4.85735
#
# Compressibility (1/GPa) = 0.06327460
#
# Stress axis : x y z
#
# Youngs Moduli (GPa) = 45.32786 73.47308 19.40923
#
# Poissons Ratio (x) = 0.31504 0.24549
# Poissons Ratio (y) = 0.19436 -0.09658
# Poissons Ratio (z) = 0.57330 -0.36560
#
# Static dielectric constant tensor:
#      x y z
#    x 1.735020 0.000000 0.000000 
#    y 0.000000 1.775880 0.000000 
#    z 0.000000 0.000000 1.738430 
# 
# From -- ./inp_files/30338.got.cif
#   From: 2010.05.17/outbox.cif.g08.bks.cpg/sg20_16_cif.got.tgz:30338.got - 2010.06.03 22:52:26.
