data_PCOD9318823
_publ_section_title
;
Structure prediction by ZEFSAII (Michael W. Deem and Ramdas Pophale) SiO2 
 PCOD9318823
Probable space group: C 2 2 21
;
_chemical_formula_sum "Si O2"
_cell_formula_units_Z 64
_cell_length_a 19.568259
_cell_length_b 19.197223
_cell_length_c 8.127240
_cell_angle_alpha 90.000000
_cell_angle_beta 90.000000
_cell_angle_gamma 90.000000
_cell_volume 3053.048353
_symmetry_space_group_name_H-M "C 2 2 21"
_symmetry_group_IT_number 20
_symmetry_cell_setting 'orthorhombic'
loop_
_space_group_symop_operation_xyz
x,y,z
-x,-y,1/2+z
x,-y,-z
-x,y,1/2-z
1/2+x,1/2+y,z
1/2-x,1/2-y,1/2+z
1/2+x,1/2-y,-z
1/2-x,1/2+y,1/2-z
loop_
_atom_site_type_symbol
_atom_site_label
_atom_site_fract_x
_atom_site_fract_y
_atom_site_fract_z
Si Si1 0.400404 0.374192 0.827761
Si Si2 0.208675 0.661365 0.799066
Si Si3 0.430405 0.523572 0.689582
Si Si4 0.402063 0.250944 0.580297
Si Si5 0.672375 0.226662 0.266888
Si Si6 0.779008 0.960005 0.328591
Si Si7 0.536476 0.271138 0.424257
Si Si8 0.756610 0.596921 0.362081
O O1 0.423443 0.452172 0.792475
O O2 0.405429 0.326580 0.664340
O O3 0.321094 0.376426 0.873506
O O4 0.443738 0.338351 0.969749
O O5 0.136379 0.699753 0.793811
O O6 0.266332 0.721200 0.812535
O O7 0.232401 0.607898 0.660099
O O8 0.211098 0.612585 0.960926
O O9 0.435836 0.500000 0.500000
O O10 0.500000 0.558474 0.750000
O O11 0.357416 0.561452 0.715634
O O12 0.355969 0.248387 0.414974
O O13 0.478720 0.231055 0.529089
O O14 0.607635 0.233363 0.385656
O O15 0.702269 0.149044 0.256537
O O16 0.784024 0.000000 0.500000
O O17 0.750421 0.018494 0.203204
O O18 0.500000 0.285290 0.250000
#
# Coordination Sequence:
#
# PCOD9318823 Si02
#       8
#     8   8   8   8   8   8   8   8
#     4  11  20  38  60  85 120 159 204 253 305 362
#     4  11  21  38  60  90 119 163 205 255 309 372
#     4  10  23  40  53  78 115 165 210 249 299 365
#     4  10  22  35  59  91 123 152 201 253 314 364
#     4  10  21  36  61  91 121 159 203 256 308 373
#     4  10  24  39  57  83 119 161 211 261 309 368
#     4  10  21  39  57  94 125 158 197 257 318 373
#     4  10  21  37  59  87 121 160 204 257 309 367
#
# _framework density 20.962655000000002
#
# number of rings (size 3 to 8) (size 9 to 14) (size 15 to 20)
#    0.000    1.750    2.500    1.500    5.250    3.000 
#    2.250    0.000    0.000    0.000    0.000   26.250 
#    0.000    0.000    0.000    0.000    0.000    0.000 
#
# Total GULP energy -178884.971663 kJ/mol
# GULP energy per Si atom -5590.155364 kJ/mol
# Density = 2.091494 g / cm^3
# Si number density = 20.962655 Si / 1000 Ang^3
#
#
#
# Elastic Constant Matrix: (Units=GPa)
#
#
# Indices 1 2 3 4 5 6 
#
# 1 119.8285 51.9847 27.5058 0.0000 0.0000 0.0000
# 2 51.9847 68.3908 9.0476 0.0000 0.0000 0.0000
# 3 27.5058 9.0476 48.7023 0.0000 0.0000 0.0000
# 4 0.0000 0.0000 0.0000 30.0622 0.0000 0.0000
# 5 0.0000 0.0000 0.0000 0.0000 25.0406 0.0000
# 6 0.0000 0.0000 0.0000 0.0000 0.0000 -2.3628
#
#
#
# Elastic Compliance Matrix: (Units=1/GPa)
#
#
# Indices 1 2 3 4 5 6 
#
# 1 0.014014 -0.009847 -0.006085 0.000000 0.000000 0.000000
# 2 -0.009847 0.021910 0.001491 0.000000 0.000000 0.000000
# 3 -0.006085 0.001491 0.023693 0.000000 0.000000 0.000000
# 4 0.000000 0.000000 0.000000 0.033264 0.000000 0.000000
# 5 0.000000 0.000000 0.000000 0.000000 0.039935 0.000000
# 6 0.000000 0.000000 0.000000 0.000000 0.000000 -0.423222
#
#
# Mechanical properties :
#
#
# Convention : Reuss Voigt Hill
#
# Bulk Modulus (GPa) = 32.53771 45.99976 39.26873
# Shear Modulus (GPa) = -19.89822 20.44024 0.27101
#
# Velocity S-wave (km/s) = -3.08429 3.12601 0.35995
# Velocity P-wave (km/s) = 1.69460 5.91782 4.35272
#
# Compressibility (1/GPa) = 0.03073357
#
# Stress axis : x y z
#
# Youngs Moduli (GPa) = 71.35662 45.64216 42.20699
#
# Poissons Ratio (x) = 0.44945 0.25685
# Poissons Ratio (y) = 0.70267 -0.06294
# Poissons Ratio (z) = 0.43424 -0.06806
#
# Static dielectric constant tensor:
#      x y z
#    x 1.759360 0.000000 0.000000 
#    y 0.000000 1.734270 0.000000 
#    z 0.000000 0.000000 1.855640 
# 
# From -- ./inp_files/10357.got.cif
#   From: 2010.05.17/outbox.cif.g08.bks.cpg/sg20_6_cif.got.tgz:10357.got - 2010.06.03 22:52:26.
