data_PCOD9318969
_publ_section_title
;
Structure prediction by ZEFSAII (Michael W. Deem and Ramdas Pophale) SiO2 
 PCOD9318969
Probable space group: C 2 2 21
;
_chemical_formula_sum "Si O2"
_cell_formula_units_Z 44
_cell_length_a 30.778290
_cell_length_b 8.293055
_cell_length_c 8.155515
_cell_angle_alpha 90.000000
_cell_angle_beta 90.000000
_cell_angle_gamma 90.000000
_cell_volume 2081.663004
_symmetry_space_group_name_H-M "C 2 2 21"
_symmetry_group_IT_number 20
_symmetry_cell_setting 'orthorhombic'
loop_
_space_group_symop_operation_xyz
x,y,z
-x,-y,1/2+z
x,-y,-z
-x,y,1/2-z
1/2+x,1/2+y,z
1/2-x,1/2-y,1/2+z
1/2+x,1/2-y,-z
1/2-x,1/2+y,1/2-z
loop_
_atom_site_type_symbol
_atom_site_label
_atom_site_fract_x
_atom_site_fract_y
_atom_site_fract_z
Si Si1 0.758414 0.500000 0.500000
Si Si2 0.321884 0.457128 0.771490
Si Si3 0.536088 0.500000 0.500000
Si Si4 0.000000 0.743588 0.250000
Si Si5 0.835084 0.748775 0.445856
Si Si6 0.090752 0.579975 0.241294
Si Si7 0.895223 0.243817 0.090465
O O1 0.726301 0.524090 0.345011
O O2 0.791830 0.646290 0.478454
O O3 0.334675 0.357008 0.608129
O O4 0.332229 0.636181 0.712101
O O5 0.350323 0.353822 0.898910
O O6 0.509898 0.366747 0.398859
O O7 0.567959 0.392897 0.614365
O O8 0.958942 0.630646 0.292366
O O9 0.876963 0.643055 0.399036
O O10 0.100052 0.676001 0.411758
O O11 0.098928 0.392412 0.284138
#
# Coordination Sequence:
#
# PCOD9318969 Si02
#       7
#     4   8   4   4   8   8   8
#     4  12  23  42  62  90 128 168 214 272 343 408
#     4  11  23  40  64  90 126 171 218 275 335 404
#     4  10  21  38  62  92 126 172 226 270 335 410
#     4  10  22  40  62  94 134 176 222 278 340 404
#     4  11  24  40  62  94 126 166 222 276 327 396
#     4  10  22  41  65  96 134 175 225 280 343 410
#     4  10  21  41  66  92 128 174 218 273 343 410
#
# _framework density 21.136945999999998
#
# number of rings (size 3 to 8) (size 9 to 14) (size 15 to 20)
#    0.000    1.455    0.000    6.000    0.000    3.636 
#    0.000   12.727    0.000    0.000    0.000    0.000 
#    0.000    0.000    0.000    0.000    0.000    0.000 
#
# Total GULP energy -122619.299520 kJ/mol
# GULP energy per Si atom -5573.604524 kJ/mol
# Density = 2.108884 g / cm^3
# Si number density = 21.136946 Si / 1000 Ang^3
#
#
#
# Elastic Constant Matrix: (Units=GPa)
#
#
# Indices 1 2 3 4 5 6 
#
# 1 136.2344 59.0000 29.5388 0.0000 0.0000 0.0000
# 2 59.0000 125.1231 18.3632 0.0000 0.0000 0.0000
# 3 29.5388 18.3632 67.9991 0.0000 0.0000 0.0000
# 4 0.0000 0.0000 0.0000 34.0857 0.0000 0.0000
# 5 0.0000 0.0000 0.0000 0.0000 -5.5226 0.0000
# 6 0.0000 0.0000 0.0000 0.0000 0.0000 40.5007
#
#
#
# Elastic Compliance Matrix: (Units=1/GPa)
#
#
# Indices 1 2 3 4 5 6 
#
# 1 0.009829 -0.004174 -0.003143 0.000000 0.000000 0.000000
# 2 -0.004174 0.010094 -0.000913 0.000000 0.000000 0.000000
# 3 -0.003143 -0.000913 0.016318 0.000000 0.000000 0.000000
# 4 0.000000 0.000000 0.000000 0.029338 0.000000 0.000000
# 5 0.000000 0.000000 0.000000 0.000000 -0.181074 0.000000
# 6 0.000000 0.000000 0.000000 0.000000 0.000000 0.024691
#
#
# Mechanical properties :
#
#
# Convention : Reuss Voigt Hill
#
# Bulk Modulus (GPa) = 50.54933 60.35119 55.45026
# Shear Modulus (GPa) = -73.79882 28.64307 -22.57788
#
# Velocity S-wave (km/s) = -5.91527 3.68519 -3.27183
# Velocity P-wave (km/s) = 4.76307 6.83534 3.46664
#
# Compressibility (1/GPa) = 0.01978266
#
# Stress axis : x y z
#
# Youngs Moduli (GPa) = 101.73774 99.06772 61.28276
#
# Poissons Ratio (x) = 0.41347 0.19259
# Poissons Ratio (y) = 0.42461 0.05595
# Poissons Ratio (z) = 0.31973 0.09044
#
# Static dielectric constant tensor:
#      x y z
#    x 1.746580 0.000000 0.000000 
#    y 0.000000 1.970230 0.000000 
#    z 0.000000 0.000000 1.789830 
# 
# From -- ./inp_files/11410.got.cif
#   From: 2010.05.17/outbox.cif.g08.bks.cpg/sg20_6_cif.got.tgz:11410.got - 2010.06.03 22:52:26.
