data_PCOD9318523
_publ_section_title
;
Structure prediction by ZEFSAII (Michael W. Deem and Ramdas Pophale) SiO2 
 PCOD9318523
Probable space group: C 2 2 21
;
_chemical_formula_sum "Si O2"
_cell_formula_units_Z 64
_cell_length_a 7.219542
_cell_length_b 12.419797
_cell_length_c 29.893844
_cell_angle_alpha 90.000000
_cell_angle_beta 90.000000
_cell_angle_gamma 90.000000
_cell_volume 2680.438878
_symmetry_space_group_name_H-M "C 2 2 21"
_symmetry_group_IT_number 20
_symmetry_cell_setting 'orthorhombic'
loop_
_space_group_symop_operation_xyz
x,y,z
-x,-y,1/2+z
x,-y,-z
-x,y,1/2-z
1/2+x,1/2+y,z
1/2-x,1/2-y,1/2+z
1/2+x,1/2-y,-z
1/2-x,1/2+y,1/2-z
loop_
_atom_site_type_symbol
_atom_site_label
_atom_site_fract_x
_atom_site_fract_y
_atom_site_fract_z
Si Si1 0.243415 0.170536 0.650879
Si Si2 0.844721 0.884315 0.487823
Si Si3 0.219165 0.301357 0.739443
Si Si4 0.366286 0.012776 0.792564
Si Si5 0.032204 0.550347 0.951683
Si Si6 0.340951 0.772582 0.166939
Si Si7 0.343143 0.061954 0.365715
Si Si8 0.832242 0.238822 0.940327
O O1 0.217347 0.211523 0.701051
O O2 0.462612 0.196768 0.645608
O O3 0.139223 0.240080 0.613145
O O4 0.211401 0.043230 0.643538
O O5 0.676815 0.905066 0.453275
O O6 0.753582 0.838912 0.533321
O O7 0.988132 0.801728 0.466761
O O8 0.931892 0.000000 0.500000
O O9 0.271593 0.419885 0.722505
O O10 0.337957 0.277033 0.783139
O O11 0.000000 0.310724 0.750000
O O12 0.500000 0.047072 0.750000
O O13 0.265255 0.109316 0.819015
O O14 0.503343 0.955394 0.827703
O O15 0.069080 0.462392 0.913754
O O16 0.178102 0.645290 0.945105
O O17 0.063594 0.500000 0.000000
O O18 0.248695 0.678399 0.138323
#
# Coordination Sequence:
#
# PCOD9318523 Si02
#       8
#     8   8   8   8   8   8   8   8
#     4  10  25  43  68 104 141 182 251 299 357 455
#     4  11  24  45  75 107 146 195 237 303 371 434
#     4  11  22  42  64  99 143 188 240 299 365 434
#     4  10  20  41  64  96 143 182 241 294 356 435
#     4  10  23  44  71 107 143 193 243 301 368 440
#     4  11  21  42  72  93 140 198 225 302 368 417
#     4  10  21  44  68 102 140 186 245 297 363 442
#     4  11  23  47  72 105 150 185 246 304 365 441
#
# _framework density 23.876684999999998
#
# number of rings (size 3 to 8) (size 9 to 14) (size 15 to 20)
#    0.000    1.500    3.750    2.250    0.000    5.000 
#   11.250    0.625    0.000    0.000    0.000    0.000 
#    0.000    0.000    0.000    0.000    0.000    0.000 
#
# Total GULP energy -178837.941053 kJ/mol
# GULP energy per Si atom -5588.685658 kJ/mol
# Density = 2.382234 g / cm^3
# Si number density = 23.876685 Si / 1000 Ang^3
#
#
#
# Elastic Constant Matrix: (Units=GPa)
#
#
# Indices 1 2 3 4 5 6 
#
# 1 43.1719 26.6458 17.8014 0.0000 0.0000 0.0000
# 2 26.6458 104.9514 9.2032 0.0000 0.0000 0.0000
# 3 17.8014 9.2032 108.9052 0.0000 0.0000 0.0000
# 4 0.0000 0.0000 0.0000 44.7320 0.0000 0.0000
# 5 0.0000 0.0000 0.0000 0.0000 38.0763 0.0000
# 6 0.0000 0.0000 0.0000 0.0000 0.0000 31.4348
#
#
#
# Elastic Compliance Matrix: (Units=1/GPa)
#
#
# Indices 1 2 3 4 5 6 
#
# 1 0.029245 -0.007058 -0.004184 0.000000 0.000000 0.000000
# 2 -0.007058 0.011303 0.000199 0.000000 0.000000 0.000000
# 3 -0.004184 0.000199 0.009849 0.000000 0.000000 0.000000
# 4 0.000000 0.000000 0.000000 0.022355 0.000000 0.000000
# 5 0.000000 0.000000 0.000000 0.000000 0.026263 0.000000
# 6 0.000000 0.000000 0.000000 0.000000 0.000000 0.031812
#
#
# Mechanical properties :
#
#
# Convention : Reuss Voigt Hill
#
# Bulk Modulus (GPa) = 35.32290 40.48102 37.90196
# Shear Modulus (GPa) = 30.79764 36.40718 33.60241
#
# Velocity S-wave (km/s) = 3.59536 3.90911 3.75551
# Velocity P-wave (km/s) = 5.66229 6.11276 5.89183
#
# Compressibility (1/GPa) = 0.02831024
#
# Stress axis : x y z
#
# Youngs Moduli (GPa) = 34.19440 88.47422 101.52912
#
# Poissons Ratio (x) = 0.62445 0.42478
# Poissons Ratio (y) = 0.24134 -0.02016
# Poissons Ratio (z) = 0.14306 -0.01756
#
# Static dielectric constant tensor:
#      x y z
#    x 1.936510 0.000000 0.000000 
#    y 0.000000 1.992640 0.000000 
#    z 0.000000 0.000000 1.942670 
# 
# From -- ./inp_files/31067.got.cif
#   From: 2010.05.17/outbox.cif.g08.bks.cpg/sg20_16_cif.got.tgz:31067.got - 2010.06.03 22:52:26.
