data_PCOD9318846
_publ_section_title
;
Structure prediction by ZEFSAII (Michael W. Deem and Ramdas Pophale) SiO2 
 PCOD9318846
Probable space group: C 2 2 21
;
_chemical_formula_sum "Si O2"
_cell_formula_units_Z 64
_cell_length_a 21.937803
_cell_length_b 13.847819
_cell_length_c 7.998697
_cell_angle_alpha 90.000000
_cell_angle_beta 90.000000
_cell_angle_gamma 90.000000
_cell_volume 2429.929962
_symmetry_space_group_name_H-M "C 2 2 21"
_symmetry_group_IT_number 20
_symmetry_cell_setting 'orthorhombic'
loop_
_space_group_symop_operation_xyz
x,y,z
-x,-y,1/2+z
x,-y,-z
-x,y,1/2-z
1/2+x,1/2+y,z
1/2-x,1/2-y,1/2+z
1/2+x,1/2-y,-z
1/2-x,1/2+y,1/2-z
loop_
_atom_site_type_symbol
_atom_site_label
_atom_site_fract_x
_atom_site_fract_y
_atom_site_fract_z
Si Si1 0.933064 0.969488 0.303250
Si Si2 0.747100 0.131704 0.872798
Si Si3 0.225965 0.682429 0.536391
Si Si4 0.427359 0.087964 0.217923
Si Si5 0.386901 0.671336 0.258218
Si Si6 0.931690 0.622444 0.825703
Si Si7 0.368701 0.281824 0.367341
Si Si8 0.244614 0.075858 0.272277
O O1 0.891896 0.876011 0.267692
O O2 0.000000 0.940184 0.250000
O O3 0.926504 0.000000 0.500000
O O4 0.918923 0.070692 0.211381
O O5 0.788757 0.223114 0.926029
O O6 0.701553 0.159639 0.721842
O O7 0.774658 0.033795 0.798734
O O8 0.721852 0.102568 0.055258
O O9 0.296895 0.701840 0.589443
O O10 0.221859 0.597208 0.401294
O O11 0.500000 0.095730 0.250000
O O12 0.392160 0.179275 0.298845
O O13 0.406914 0.977498 0.264311
O O14 0.423726 0.097870 0.019462
O O15 0.409396 0.766317 0.168469
O O16 0.398365 0.701851 0.450119
O O17 0.315876 0.640960 0.239623
O O18 0.000000 0.627772 0.750000
#
# Coordination Sequence:
#
# PCOD9318846 Si02
#       8
#     8   8   8   8   8   8   8   8
#     4  10  21  37  55  89 131 171 215 262 321 389
#     4  11  22  41  69  94 130 168 216 272 346 410
#     4  11  22  42  69  98 129 171 222 278 339 414
#     4  10  21  38  60  90 128 176 224 268 330 395
#     4  10  21  39  61  89 126 170 216 276 331 395
#     4  10  21  37  60  89 126 172 222 274 326 386
#     4  10  22  38  63  91 128 171 215 275 334 399
#     4  10  23  42  65  99 129 170 220 279 348 412
#
# _framework density 26.338208999999999
#
# number of rings (size 3 to 8) (size 9 to 14) (size 15 to 20)
#    0.000    1.750    1.250    2.625    1.750    6.500 
#    2.250    5.000    0.000    0.000    0.000    0.000 
#    0.000    0.000    0.000    0.000    0.000    0.000 
#
# Total GULP energy -178590.575205 kJ/mol
# GULP energy per Si atom -5580.955475 kJ/mol
# Density = 2.627826 g / cm^3
# Si number density = 26.338209 Si / 1000 Ang^3
#
#
#
# Elastic Constant Matrix: (Units=GPa)
#
#
# Indices 1 2 3 4 5 6 
#
# 1 89.1885 67.1721 5.9837 0.0000 0.0000 0.0000
# 2 67.1721 275.7450 72.7516 0.0000 0.0000 0.0000
# 3 5.9837 72.7516 133.9337 0.0000 0.0000 0.0000
# 4 0.0000 0.0000 0.0000 50.6036 0.0000 0.0000
# 5 0.0000 0.0000 0.0000 0.0000 13.5337 0.0000
# 6 0.0000 0.0000 0.0000 0.0000 0.0000 50.6698
#
#
#
# Elastic Compliance Matrix: (Units=1/GPa)
#
#
# Indices 1 2 3 4 5 6 
#
# 1 0.013962 -0.003778 0.001428 0.000000 0.000000 0.000000
# 2 -0.003778 0.005256 -0.002686 0.000000 0.000000 0.000000
# 3 0.001428 -0.002686 0.008862 0.000000 0.000000 0.000000
# 4 0.000000 0.000000 0.000000 0.019761 0.000000 0.000000
# 5 0.000000 0.000000 0.000000 0.000000 0.073890 0.000000
# 6 0.000000 0.000000 0.000000 0.000000 0.000000 0.019736
#
#
# Mechanical properties :
#
#
# Convention : Reuss Voigt Hill
#
# Bulk Modulus (GPa) = 55.53169 87.85356 71.69262
# Shear Modulus (GPa) = 31.73815 46.49208 39.11512
#
# Velocity S-wave (km/s) = 3.47511 4.20598 3.85789
# Velocity P-wave (km/s) = 6.10178 7.55085 6.86466
#
# Compressibility (1/GPa) = 0.01800774
#
# Stress axis : x y z
#
# Youngs Moduli (GPa) = 71.62431 190.27619 112.84697
#
# Poissons Ratio (x) = 0.71886 -0.16119
# Poissons Ratio (y) = 0.27059 0.30310
# Poissons Ratio (z) = -0.10231 0.51108
#
# Static dielectric constant tensor:
#      x y z
#    x 2.107890 0.000000 0.000000 
#    y 0.000000 2.165290 0.000000 
#    z 0.000000 0.000000 2.149320 
# 
# From -- ./inp_files/11611.got.cif
#   From: 2010.05.17/outbox.cif.g08.bks.cpg/sg20_6_cif.got.tgz:11611.got - 2010.06.03 22:52:26.
