data_PCOD9318900
_publ_section_title
;
Structure prediction by ZEFSAII (Michael W. Deem and Ramdas Pophale) SiO2 
 PCOD9318900
Probable space group: C 2 2 21
;
_chemical_formula_sum "Si O2"
_cell_formula_units_Z 64
_cell_length_a 8.061097
_cell_length_b 12.084577
_cell_length_c 29.743688
_cell_angle_alpha 90.000000
_cell_angle_beta 90.000000
_cell_angle_gamma 90.000000
_cell_volume 2897.479802
_symmetry_space_group_name_H-M "C 2 2 21"
_symmetry_group_IT_number 20
_symmetry_cell_setting 'orthorhombic'
loop_
_space_group_symop_operation_xyz
x,y,z
-x,-y,1/2+z
x,-y,-z
-x,y,1/2-z
1/2+x,1/2+y,z
1/2-x,1/2-y,1/2+z
1/2+x,1/2-y,-z
1/2-x,1/2+y,1/2-z
loop_
_atom_site_type_symbol
_atom_site_label
_atom_site_fract_x
_atom_site_fract_y
_atom_site_fract_z
Si Si1 0.200542 0.735942 0.218316
Si Si2 0.581564 0.345596 0.644290
Si Si3 0.082807 0.977354 0.202415
Si Si4 0.745783 0.152470 0.400180
Si Si5 0.303474 0.634131 0.050576
Si Si6 0.601516 0.466492 0.048357
Si Si7 0.484812 0.767362 0.975578
Si Si8 0.618759 0.861633 0.693848
O O1 0.360591 0.720439 0.188007
O O2 0.208505 0.726562 0.272256
O O3 0.073446 0.635544 0.207138
O O4 0.108194 0.846596 0.202594
O O5 0.528322 0.466016 0.663775
O O6 0.417608 0.300423 0.619463
O O7 0.713429 0.345478 0.603975
O O8 0.265055 0.031729 0.199351
O O9 0.000000 0.007659 0.250000
O O10 0.789872 0.025690 0.413775
O O11 0.672150 0.204906 0.444734
O O12 0.624111 0.165482 0.358600
O O13 0.418981 0.524452 0.049132
O O14 0.124299 0.637396 0.026823
O O15 0.416807 0.723404 0.023191
O O16 0.577294 0.336652 0.047982
O O17 0.675867 0.500000 0.000000
#
# Coordination Sequence:
#
# PCOD9318900 Si02
#       8
#     8   8   8   8   8   8   8   8
#     4  11  22  42  63  89 126 169 212 260 327 378
#     4  10  22  39  62  91 126 160 216 261 308 380
#     4  11  21  41  64  86 123 168 203 263 326 374
#     4  10  22  39  61  94 124 166 210 258 312 377
#     4  10  21  37  63  93 119 164 207 255 308 374
#     4   9  20  40  61  88 123 163 206 250 311 373
#     4  11  21  42  65  88 133 167 205 261 319 369
#     4  10  22  37  61  93 122 159 218 258 311 382
#
# _framework density 22.088159999999998
#
# number of rings (size 3 to 8) (size 9 to 14) (size 15 to 20)
#    0.000    1.750    2.500    3.000    0.000    6.000 
#    0.000   20.625    0.000    0.000    0.000    0.000 
#    0.000    0.000    0.000    0.000    0.000    0.000 
#
# Total GULP energy -178371.898616 kJ/mol
# GULP energy per Si atom -5574.121832 kJ/mol
# Density = 2.203789 g / cm^3
# Si number density = 22.088160 Si / 1000 Ang^3
#
#
#
# Elastic Constant Matrix: (Units=GPa)
#
#
# Indices 1 2 3 4 5 6 
#
# 1 64.3813 9.9682 20.8442 0.0000 0.0000 0.0000
# 2 9.9682 59.5853 28.4468 0.0000 0.0000 0.0000
# 3 20.8442 28.4468 122.4854 0.0000 0.0000 0.0000
# 4 0.0000 0.0000 0.0000 25.9247 0.0000 0.0000
# 5 0.0000 0.0000 0.0000 0.0000 45.4182 0.0000
# 6 0.0000 0.0000 0.0000 0.0000 0.0000 27.2950
#
#
#
# Elastic Compliance Matrix: (Units=1/GPa)
#
#
# Indices 1 2 3 4 5 6 
#
# 1 0.016573 -0.001604 -0.002448 0.000000 0.000000 0.000000
# 2 -0.001604 0.019031 -0.004147 0.000000 0.000000 0.000000
# 3 -0.002448 -0.004147 0.009544 0.000000 0.000000 0.000000
# 4 0.000000 0.000000 0.000000 0.038573 0.000000 0.000000
# 5 0.000000 0.000000 0.000000 0.000000 0.022018 0.000000
# 6 0.000000 0.000000 0.000000 0.000000 0.000000 0.036637
#
#
# Mechanical properties :
#
#
# Convention : Reuss Voigt Hill
#
# Bulk Modulus (GPa) = 34.78187 40.55226 37.66706
# Shear Modulus (GPa) = 29.69886 32.20709 30.95298
#
# Velocity S-wave (km/s) = 3.67080 3.82267 3.74751
# Velocity P-wave (km/s) = 5.80925 6.15491 5.98458
#
# Compressibility (1/GPa) = 0.02875061
#
# Stress axis : x y z
#
# Youngs Moduli (GPa) = 60.33789 52.54646 104.77885
#
# Poissons Ratio (x) = 0.08428 0.25649
# Poissons Ratio (y) = 0.09678 0.43451
# Poissons Ratio (z) = 0.14770 0.21790
#
# Static dielectric constant tensor:
#      x y z
#    x 1.858890 0.000000 0.000000 
#    y 0.000000 1.808500 0.000000 
#    z 0.000000 0.000000 1.885020 
# 
# From -- ./inp_files/31081.got.cif
#   From: 2010.05.17/outbox.cif.g08.bks.cpg/sg20_16_cif.got.tgz:31081.got - 2010.06.03 22:52:26.
