data_PCOD9318261
_publ_section_title
;
Structure prediction by ZEFSAII (Michael W. Deem and Ramdas Pophale) SiO2 
 PCOD9318261
Probable space group: C 2 2 21
;
_chemical_formula_sum "Si O2"
_cell_formula_units_Z 48
_cell_length_a 17.236775
_cell_length_b 5.286436
_cell_length_c 25.462677
_cell_angle_alpha 90.000000
_cell_angle_beta 90.000000
_cell_angle_gamma 90.000000
_cell_volume 2320.187338
_symmetry_space_group_name_H-M "C 2 2 21"
_symmetry_group_IT_number 20
_symmetry_cell_setting 'orthorhombic'
loop_
_space_group_symop_operation_xyz
x,y,z
-x,-y,1/2+z
x,-y,-z
-x,y,1/2-z
1/2+x,1/2+y,z
1/2-x,1/2-y,1/2+z
1/2+x,1/2-y,-z
1/2-x,1/2+y,1/2-z
loop_
_atom_site_type_symbol
_atom_site_label
_atom_site_fract_x
_atom_site_fract_y
_atom_site_fract_z
Si Si1 0.785630 0.000000 0.500000
Si Si2 0.478052 0.419576 0.177703
Si Si3 0.623013 0.085859 0.694110
Si Si4 0.618224 0.740049 0.192365
Si Si5 0.422532 0.132140 0.389469
Si Si6 0.767936 0.952640 0.382387
Si Si7 0.391313 0.000000 0.500000
O O1 0.744718 0.993307 0.557086
O O2 0.839140 0.248913 0.498808
O O3 0.426515 0.668049 0.178855
O O4 0.559113 0.508563 0.206307
O O5 0.515500 0.351847 0.121035
O O6 0.426440 0.175404 0.193363
O O7 0.649098 0.139589 0.754146
O O8 0.693660 0.086719 0.653557
O O9 0.683438 0.659400 0.150819
O O10 0.570081 0.945953 0.159705
O O11 0.333980 0.234628 0.386796
O O12 0.436702 0.007794 0.445422
#
# Coordination Sequence:
#
# PCOD9318261 Si02
#       7
#     4   8   8   8   8   8   4
#     4  10  20  42  67  96 129 172 214 272 338 384
#     4  11  26  44  64  95 133 182 209 261 330 404
#     4  12  28  40  68  98 139 172 215 267 341 394
#     4  11  24  42  68  95 131 172 222 267 323 390
#     4  10  22  43  69  97 126 172 225 275 320 388
#     4  10  25  42  70  99 132 169 224 277 327 385
#     4  10  20  38  71  98 121 166 232 282 312 370
#
# _framework density 20.687987
#
# number of rings (size 3 to 8) (size 9 to 14) (size 15 to 20)
#    0.000    1.333    3.333    0.500   11.667    0.000 
#    0.000    0.833    3.667    0.000    0.000    0.000 
#    0.000    0.000    0.000    0.000    0.000    0.000 
#
# Total GULP energy -133736.860068 kJ/mol
# GULP energy per Si atom -5572.369170 kJ/mol
# Density = 2.064090 g / cm^3
# Si number density = 20.687987 Si / 1000 Ang^3
#
#
#
# Elastic Constant Matrix: (Units=GPa)
#
#
# Indices 1 2 3 4 5 6 
#
# 1 46.7328 23.0834 42.6223 0.0000 0.0000 0.0000
# 2 23.0834 113.5856 33.2802 0.0000 0.0000 0.0000
# 3 42.6223 33.2802 158.6679 0.0000 0.0000 0.0000
# 4 0.0000 0.0000 0.0000 34.7212 0.0000 0.0000
# 5 0.0000 0.0000 0.0000 0.0000 8.0909 0.0000
# 6 0.0000 0.0000 0.0000 0.0000 0.0000 9.2613
#
#
#
# Elastic Compliance Matrix: (Units=1/GPa)
#
#
# Indices 1 2 3 4 5 6 
#
# 1 0.029934 -0.003971 -0.007208 0.000000 0.000000 0.000000
# 2 -0.003971 0.009907 -0.001011 0.000000 0.000000 0.000000
# 3 -0.007208 -0.001011 0.008451 0.000000 0.000000 0.000000
# 4 0.000000 0.000000 0.000000 0.028801 0.000000 0.000000
# 5 0.000000 0.000000 0.000000 0.000000 0.123596 0.000000
# 6 0.000000 0.000000 0.000000 0.000000 0.000000 0.107977
#
#
# Mechanical properties :
#
#
# Convention : Reuss Voigt Hill
#
# Bulk Modulus (GPa) = 41.82213 57.43979 49.63096
# Shear Modulus (GPa) = 14.66202 25.08136 19.87169
#
# Velocity S-wave (km/s) = 2.66507 3.48568 3.10262
# Velocity P-wave (km/s) = 5.45249 6.63514 6.07267
#
# Compressibility (1/GPa) = 0.02391079
#
# Stress axis : x y z
#
# Youngs Moduli (GPa) = 33.40695 100.93569 118.33146
#
# Poissons Ratio (x) = 0.40085 0.85294
# Poissons Ratio (y) = 0.13267 0.11966
# Poissons Ratio (z) = 0.24080 0.10207
#
# Static dielectric constant tensor:
#      x y z
#    x 1.741280 0.000000 0.000000 
#    y 0.000000 1.796050 0.000000 
#    z 0.000000 0.000000 1.803710 
# 
# From -- ./inp_files/28375.got.cif
#   From: 2010.05.17/outbox.cif.g08.bks.cpg/sg20_15_cif.got.tgz:28375.got - 2010.06.03 22:52:26.
