data_PCOD9318156
_publ_section_title
;
Structure prediction by ZEFSAII (Michael W. Deem and Ramdas Pophale) SiO2 
 PCOD9318156
Probable space group: C 2 2 21
;
_chemical_formula_sum "Si O2"
_cell_formula_units_Z 64
_cell_length_a 12.038554
_cell_length_b 8.643317
_cell_length_c 27.618581
_cell_angle_alpha 90.000000
_cell_angle_beta 90.000000
_cell_angle_gamma 90.000000
_cell_volume 2873.797271
_symmetry_space_group_name_H-M "C 2 2 21"
_symmetry_group_IT_number 20
_symmetry_cell_setting 'orthorhombic'
loop_
_space_group_symop_operation_xyz
x,y,z
-x,-y,1/2+z
x,-y,-z
-x,y,1/2-z
1/2+x,1/2+y,z
1/2-x,1/2-y,1/2+z
1/2+x,1/2-y,-z
1/2-x,1/2+y,1/2-z
loop_
_atom_site_type_symbol
_atom_site_label
_atom_site_fract_x
_atom_site_fract_y
_atom_site_fract_z
Si Si1 0.118383 0.749260 0.874957
Si Si2 0.358047 0.828601 0.854276
Si Si3 0.196199 0.508291 0.944335
Si Si4 0.210301 0.377063 0.303097
Si Si5 0.596954 0.046999 0.785294
Si Si6 0.616787 0.684725 0.386915
Si Si7 0.438634 0.993051 0.943785
Si Si8 0.549512 0.685564 0.799288
O O1 0.229810 0.796014 0.848744
O O2 0.165157 0.679291 0.925073
O O3 0.082797 0.608772 0.839464
O O4 0.013102 0.861553 0.880601
O O5 0.447748 0.707064 0.835885
O O6 0.365929 0.981672 0.821534
O O7 0.379194 0.870120 0.909811
O O8 0.291798 0.426233 0.912073
O O9 0.069465 0.443580 0.941465
O O10 0.231654 0.500000 0.000000
O O11 0.202007 0.386835 0.244962
O O12 0.165262 0.232651 0.334366
O O13 0.339272 0.395441 0.316928
O O14 0.500000 0.108555 0.750000
O O15 0.593123 0.860936 0.786922
O O16 0.595972 0.841268 0.419528
O O17 0.407984 0.000000 0.000000
O O18 0.500000 0.616812 0.750000
#
# Coordination Sequence:
#
# PCOD9318156 Si02
#       8
#     8   8   8   8   8   8   8   8
#     4  11  23  38  59  92 128 159 202 260 311 377
#     4  11  22  38  58  89 125 158 205 253 310 370
#     4  10  22  41  65  90 116 161 212 261 321 376
#     4  11  21  37  62  87 117 166 204 246 310 369
#     4  11  19  37  61  86 121 164 201 249 307 368
#     4  10  20  38  62  86 117 155 206 249 307 377
#     4   9  20  38  62  86 112 156 203 249 308 370
#     4  11  21  38  60  86 122 160 208 256 297 364
#
# _framework density 22.270187
#
# number of rings (size 3 to 8) (size 9 to 14) (size 15 to 20)
#    0.000    1.500    3.750    3.750    1.750    1.000 
#    0.000    2.500    0.000    0.000    0.000    0.000 
#    0.000    0.000    0.000    0.000    0.000    0.000 
#
# Total GULP energy -178291.261004 kJ/mol
# GULP energy per Si atom -5571.601906 kJ/mol
# Density = 2.221950 g / cm^3
# Si number density = 22.270187 Si / 1000 Ang^3
#
#
#
# Elastic Constant Matrix: (Units=GPa)
#
#
# Indices 1 2 3 4 5 6 
#
# 1 149.8199 31.3708 21.0199 0.0000 0.0000 0.0000
# 2 31.3708 18.9935 8.8923 0.0000 0.0000 0.0000
# 3 21.0199 8.8923 106.1591 0.0000 0.0000 0.0000
# 4 0.0000 0.0000 0.0000 16.4014 0.0000 0.0000
# 5 0.0000 0.0000 0.0000 0.0000 39.5354 0.0000
# 6 0.0000 0.0000 0.0000 0.0000 0.0000 25.0486
#
#
#
# Elastic Compliance Matrix: (Units=1/GPa)
#
#
# Indices 1 2 3 4 5 6 
#
# 1 0.010245 -0.016623 -0.000636 0.000000 0.000000 0.000000
# 2 -0.016623 0.081770 -0.003558 0.000000 0.000000 0.000000
# 3 -0.000636 -0.003558 0.009844 0.000000 0.000000 0.000000
# 4 0.000000 0.000000 0.000000 0.060971 0.000000 0.000000
# 5 0.000000 0.000000 0.000000 0.000000 0.025294 0.000000
# 6 0.000000 0.000000 0.000000 0.000000 0.000000 0.039922
#
#
# Mechanical properties :
#
#
# Convention : Reuss Voigt Hill
#
# Bulk Modulus (GPa) = 16.60439 44.17095 30.38767
# Shear Modulus (GPa) = 17.25601 30.44303 23.84952
#
# Velocity S-wave (km/s) = 2.78663 3.70129 3.27604
# Velocity P-wave (km/s) = 4.22206 6.17602 5.29004
#
# Compressibility (1/GPa) = 0.06022503
#
# Stress axis : x y z
#
# Youngs Moduli (GPa) = 97.61295 12.22937 101.58673
#
# Poissons Ratio (x) = 0.20328 0.06462
# Poissons Ratio (y) = 1.62259 0.36145
# Poissons Ratio (z) = 0.06209 0.04351
#
# Static dielectric constant tensor:
#      x y z
#    x 1.913860 0.000000 0.000000 
#    y 0.000000 1.886580 0.000000 
#    z 0.000000 0.000000 1.827470 
# 
# From -- ./inp_files/31215.got.cif
#   From: 2010.05.17/outbox.cif.g08.bks.cpg/sg20_16_cif.got.tgz:31215.got - 2010.06.03 22:52:26.
