data_PCOD9318621
_publ_section_title
;
Structure prediction by ZEFSAII (Michael W. Deem and Ramdas Pophale) SiO2 
 PCOD9318621
Probable space group: C 2 2 21
;
_chemical_formula_sum "Si O2"
_cell_formula_units_Z 60
_cell_length_a 22.423393
_cell_length_b 5.647036
_cell_length_c 23.873276
_cell_angle_alpha 90.000000
_cell_angle_beta 90.000000
_cell_angle_gamma 90.000000
_cell_volume 3022.970464
_symmetry_space_group_name_H-M "C 2 2 21"
_symmetry_group_IT_number 20
_symmetry_cell_setting 'orthorhombic'
loop_
_space_group_symop_operation_xyz
x,y,z
-x,-y,1/2+z
x,-y,-z
-x,y,1/2-z
1/2+x,1/2+y,z
1/2-x,1/2-y,1/2+z
1/2+x,1/2-y,-z
1/2-x,1/2+y,1/2-z
loop_
_atom_site_type_symbol
_atom_site_label
_atom_site_fract_x
_atom_site_fract_y
_atom_site_fract_z
Si Si1 0.262149 0.943298 0.181464
Si Si2 0.337456 0.790465 0.737587
Si Si3 0.777877 0.000000 0.500000
Si Si4 0.996639 0.097764 0.181918
Si Si5 0.772283 0.169985 0.914975
Si Si6 0.061106 0.592258 0.157514
Si Si7 0.639275 0.453777 0.656797
Si Si8 0.342801 0.874518 0.560674
O O1 0.194605 0.863585 0.190249
O O2 0.312007 0.750189 0.166781
O O3 0.285312 0.037278 0.241446
O O4 0.263723 0.141368 0.134403
O O5 0.394498 0.910680 0.711048
O O6 0.354506 0.637944 0.791687
O O7 0.736360 0.200651 0.473882
O O8 0.821302 0.109970 0.546372
O O9 0.028198 0.338739 0.160212
O O10 0.000000 0.099955 0.250000
O O11 0.928965 0.118628 0.159824
O O12 0.023806 0.840021 0.163314
O O13 0.836675 0.062655 0.901363
O O14 0.716279 0.993120 0.912557
O O15 0.101804 0.605909 0.101908
O O16 0.353667 0.000000 0.500000
#
# Coordination Sequence:
#
# PCOD9318621 Si02
#       8
#     8   8   4   8   8   8   8   8
#     4  11  22  36  60  93 136 166 215 272 350 401
#     4  11  22  35  60  93 130 177 217 280 331 418
#     4  10  20  42  70 100 136 160 220 286 376 416
#     4  12  27  45  66  96 140 196 236 280 333 413
#     4  10  22  37  66  98 129 169 214 280 361 412
#     4  12  27  43  70  97 135 189 244 279 347 401
#     4  11  23  40  58  91 136 174 225 277 333 416
#     4  10  24  43  72 103 131 171 226 302 354 420
#
# _framework density 19.848026999999998
#
# number of rings (size 3 to 8) (size 9 to 14) (size 15 to 20)
#    0.000    1.067    2.667    3.600   11.200    0.000 
#    0.000    0.000    1.467    1.600    0.000    0.000 
#    0.000    0.000    0.000    0.000    0.000    0.000 
#
# Total GULP energy -167466.623803 kJ/mol
# GULP energy per Si atom -5582.220793 kJ/mol
# Density = 1.980285 g / cm^3
# Si number density = 19.848027 Si / 1000 Ang^3
#
#
#
# Elastic Constant Matrix: (Units=GPa)
#
#
# Indices 1 2 3 4 5 6 
#
# 1 132.0982 55.3694 45.5183 0.0000 0.0000 0.0000
# 2 55.3694 89.1907 30.4503 0.0000 0.0000 0.0000
# 3 45.5183 30.4503 81.0350 0.0000 0.0000 0.0000
# 4 0.0000 0.0000 0.0000 28.0653 0.0000 0.0000
# 5 0.0000 0.0000 0.0000 0.0000 34.1147 0.0000
# 6 0.0000 0.0000 0.0000 0.0000 0.0000 32.2853
#
#
#
# Elastic Compliance Matrix: (Units=1/GPa)
#
#
# Indices 1 2 3 4 5 6 
#
# 1 0.011403 -0.005612 -0.004296 0.000000 0.000000 0.000000
# 2 -0.005612 0.015624 -0.002719 0.000000 0.000000 0.000000
# 3 -0.004296 -0.002719 0.015775 0.000000 0.000000 0.000000
# 4 0.000000 0.000000 0.000000 0.035631 0.000000 0.000000
# 5 0.000000 0.000000 0.000000 0.000000 0.029313 0.000000
# 6 0.000000 0.000000 0.000000 0.000000 0.000000 0.030974
#
#
# Mechanical properties :
#
#
# Convention : Reuss Voigt Hill
#
# Bulk Modulus (GPa) = 56.98620 62.77774 59.88197
# Shear Modulus (GPa) = 29.44234 30.29211 29.86723
#
# Velocity S-wave (km/s) = 3.85566 3.91090 3.88338
# Velocity P-wave (km/s) = 6.97102 7.21744 7.09530
#
# Compressibility (1/GPa) = 0.01754811
#
# Stress axis : x y z
#
# Youngs Moduli (GPa) = 87.69731 64.00389 63.39069
#
# Poissons Ratio (x) = 0.35920 0.27234
# Poissons Ratio (y) = 0.49216 0.17234
# Poissons Ratio (z) = 0.37677 0.17400
#
# Static dielectric constant tensor:
#      x y z
#    x 1.672300 0.000000 0.000000 
#    y 0.000000 1.805110 0.000000 
#    z 0.000000 0.000000 1.721390 
# 
# From -- ./inp_files/29543.got.cif
#   From: 2010.05.17/outbox.cif.g08.bks.cpg/sg20_15_cif.got.tgz:29543.got - 2010.06.03 22:52:26.
