data_PCOD9318897
_publ_section_title
;
Structure prediction by ZEFSAII (Michael W. Deem and Ramdas Pophale) SiO2 
 PCOD9318897
Probable space group: C 2 2 21
;
_chemical_formula_sum "Si O2"
_cell_formula_units_Z 64
_cell_length_a 12.394004
_cell_length_b 7.756305
_cell_length_c 27.548099
_cell_angle_alpha 90.000000
_cell_angle_beta 90.000000
_cell_angle_gamma 90.000000
_cell_volume 2648.244905
_symmetry_space_group_name_H-M "C 2 2 21"
_symmetry_group_IT_number 20
_symmetry_cell_setting 'orthorhombic'
loop_
_space_group_symop_operation_xyz
x,y,z
-x,-y,1/2+z
x,-y,-z
-x,y,1/2-z
1/2+x,1/2+y,z
1/2-x,1/2-y,1/2+z
1/2+x,1/2-y,-z
1/2-x,1/2+y,1/2-z
loop_
_atom_site_type_symbol
_atom_site_label
_atom_site_fract_x
_atom_site_fract_y
_atom_site_fract_z
Si Si1 0.656895 0.961149 0.947575
Si Si2 0.220635 0.691274 0.314259
Si Si3 0.018320 0.744543 0.197381
Si Si4 0.246411 0.408696 0.792601
Si Si5 0.590123 0.897691 0.565681
Si Si6 0.670472 0.249064 0.614853
Si Si7 0.500615 0.549916 0.604923
Si Si8 0.189331 0.155046 0.078986
O O1 0.652513 0.147943 0.922735
O O2 0.531030 0.911617 0.954969
O O3 0.726791 0.825155 0.916096
O O4 0.707624 0.000000 0.000000
O O5 0.093288 0.647587 0.314042
O O6 0.271015 0.620522 0.264182
O O7 0.273630 0.634295 0.364545
O O8 0.222690 0.900319 0.309806
O O9 0.041907 0.885162 0.156756
O O10 0.000000 0.827134 0.250000
O O11 0.118099 0.615853 0.200883
O O12 0.297040 0.264890 0.828434
O O13 0.573920 0.710054 0.589490
O O14 0.709064 0.869525 0.542926
O O15 0.577385 0.388668 0.609145
O O16 0.618353 0.073495 0.594631
O O17 0.403517 0.485101 0.571113
#
# Coordination Sequence:
#
# PCOD9318897 Si02
#       8
#     8   8   8   8   8   8   8   8
#     4  12  27  50  78 112 144 191 257 311 376 462
#     4  11  24  40  67 103 145 191 249 299 364 444
#     4  10  21  37  63  91 141 184 237 295 342 424
#     4  11  23  41  68 104 144 192 248 300 369 443
#     4  12  25  47  78 106 145 194 240 304 383 438
#     4  12  25  48  77 106 152 195 246 307 374 457
#     4  12  24  45  75 107 146 197 241 302 373 446
#     4  12  25  46  74 105 153 197 240 311 374 450
#
# _framework density 24.166948999999999
#
# number of rings (size 3 to 8) (size 9 to 14) (size 15 to 20)
#    0.000    0.500    6.250    2.250    5.250    1.000 
#    0.000    3.125    0.000    0.000    0.000    0.000 
#    0.000    0.000    0.000    0.000    0.000    0.000 
#
# Total GULP energy -178660.864445 kJ/mol
# GULP energy per Si atom -5583.152014 kJ/mol
# Density = 2.411194 g / cm^3
# Si number density = 24.166949 Si / 1000 Ang^3
#
#
#
# Elastic Constant Matrix: (Units=GPa)
#
#
# Indices 1 2 3 4 5 6 
#
# 1 91.5403 -8.8881 -2.0892 0.0000 0.0000 0.0000
# 2 -8.8881 84.4577 0.2649 0.0000 0.0000 0.0000
# 3 -2.0892 0.2649 39.2494 0.0000 0.0000 0.0000
# 4 0.0000 0.0000 0.0000 15.5750 0.0000 0.0000
# 5 0.0000 0.0000 0.0000 0.0000 31.4955 0.0000
# 6 0.0000 0.0000 0.0000 0.0000 0.0000 49.6008
#
#
#
# Elastic Compliance Matrix: (Units=1/GPa)
#
#
# Indices 1 2 3 4 5 6 
#
# 1 0.011050 0.001161 0.000580 0.000000 0.000000 0.000000
# 2 0.001161 0.011962 -0.000019 0.000000 0.000000 0.000000
# 3 0.000580 -0.000019 0.025509 0.000000 0.000000 0.000000
# 4 0.000000 0.000000 0.000000 0.064206 0.000000 0.000000
# 5 0.000000 0.000000 0.000000 0.000000 0.031751 0.000000
# 6 0.000000 0.000000 0.000000 0.000000 0.000000 0.020161
#
#
# Mechanical properties :
#
#
# Convention : Reuss Voigt Hill
#
# Bulk Modulus (GPa) = 19.24310 21.53584 20.38947
# Shear Modulus (GPa) = 28.00869 34.39825 31.20347
#
# Velocity S-wave (km/s) = 3.40805 3.77684 3.59717
# Velocity P-wave (km/s) = 4.84420 5.28677 5.07032
#
# Compressibility (1/GPa) = 0.05196668
#
# Stress axis : x y z
#
# Youngs Moduli (GPa) = 90.49671 83.59464 39.20172
#
# Poissons Ratio (x) = -0.09706 -0.02275
# Poissons Ratio (y) = -0.10507 0.00074
# Poissons Ratio (z) = -0.05252 0.00158
#
# Static dielectric constant tensor:
#      x y z
#    x 1.961720 0.000000 0.000000 
#    y 0.000000 1.908170 0.000000 
#    z 0.000000 0.000000 2.015450 
# 
# From -- ./inp_files/31197.got.cif
#   From: 2010.05.17/outbox.cif.g08.bks.cpg/sg20_16_cif.got.tgz:31197.got - 2010.06.03 22:52:26.
