data_PCOD9318109
_publ_section_title
;
Structure prediction by ZEFSAII (Michael W. Deem and Ramdas Pophale) SiO2 
 PCOD9318109
Probable space group: C 2 2 21
;
_chemical_formula_sum "Si O2"
_cell_formula_units_Z 44
_cell_length_a 15.386101
_cell_length_b 14.254480
_cell_length_c 11.024552
_cell_angle_alpha 90.000000
_cell_angle_beta 90.000000
_cell_angle_gamma 90.000000
_cell_volume 2417.914325
_symmetry_space_group_name_H-M "C 2 2 21"
_symmetry_group_IT_number 20
_symmetry_cell_setting 'orthorhombic'
loop_
_space_group_symop_operation_xyz
x,y,z
-x,-y,1/2+z
x,-y,-z
-x,y,1/2-z
1/2+x,1/2+y,z
1/2-x,1/2-y,1/2+z
1/2+x,1/2-y,-z
1/2-x,1/2+y,1/2-z
loop_
_atom_site_type_symbol
_atom_site_label
_atom_site_fract_x
_atom_site_fract_y
_atom_site_fract_z
Si Si1 0.702804 0.385740 0.358192
Si Si2 0.657254 0.223600 0.188604
Si Si3 0.500000 0.084241 0.250000
Si Si4 0.115689 0.688060 0.926103
Si Si5 0.500000 0.310003 0.750000
Si Si6 0.826102 0.103874 0.145713
Si Si7 0.980853 0.500000 0.500000
O O1 0.650772 0.315708 0.271225
O O2 0.800575 0.345464 0.351745
O O3 0.803643 0.995436 0.173455
O O4 0.675915 0.381075 0.499949
O O5 0.582196 0.150773 0.225224
O O6 0.749997 0.170229 0.198764
O O7 0.644910 0.244857 0.045670
O O8 0.476142 0.023558 0.130072
O O9 0.045158 0.744452 0.850476
O O10 0.076129 0.591014 0.973476
O O11 0.579274 0.369782 0.695294
#
# Coordination Sequence:
#
# PCOD9318109 Si02
#       7
#     8   8   4   8   4   8   4
#     4  10  20  42  64  84 123 168 206 248 310 378
#     4  10  21  40  62  90 121 163 209 255 309 380
#     4  10  21  35  62  90 126 156 212 258 322 372
#     4  10  21  38  65  87 122 165 203 258 315 370
#     4  12  23  41  62  96 126 160 210 262 310 370
#     4  10  23  40  64  90 124 166 205 253 322 374
#     4  10  20  38  58  94 120 158 208 260 316 372
#
# _framework density 18.197500999999999
#
# number of rings (size 3 to 8) (size 9 to 14) (size 15 to 20)
#    0.000    1.818    1.818    3.818    5.091    0.727 
#    3.273    0.000    0.000    0.000    0.000    0.000 
#    0.000    0.000    0.000    0.000    0.000    0.000 
#
# Total GULP energy -122633.470480 kJ/mol
# GULP energy per Si atom -5574.248658 kJ/mol
# Density = 1.815608 g / cm^3
# Si number density = 18.197501 Si / 1000 Ang^3
#
#
#
# Elastic Constant Matrix: (Units=GPa)
#
#
# Indices 1 2 3 4 5 6 
#
# 1 109.7420 36.1522 39.7827 0.0000 0.0000 0.0000
# 2 36.1522 117.2016 71.1594 0.0000 0.0000 0.0000
# 3 39.7827 71.1594 80.1986 0.0000 0.0000 0.0000
# 4 0.0000 0.0000 0.0000 29.0429 0.0000 0.0000
# 5 0.0000 0.0000 0.0000 0.0000 28.6757 0.0000
# 6 0.0000 0.0000 0.0000 0.0000 0.0000 26.0681
#
#
#
# Elastic Compliance Matrix: (Units=1/GPa)
#
#
# Indices 1 2 3 4 5 6 
#
# 1 0.011112 -0.000175 -0.005356 0.000000 0.000000 0.000000
# 2 -0.000175 0.018500 -0.016328 0.000000 0.000000 0.000000
# 3 -0.005356 -0.016328 0.029613 0.000000 0.000000 0.000000
# 4 0.000000 0.000000 0.000000 0.034432 0.000000 0.000000
# 5 0.000000 0.000000 0.000000 0.000000 0.034873 0.000000
# 6 0.000000 0.000000 0.000000 0.000000 0.000000 0.038361
#
#
# Mechanical properties :
#
#
# Convention : Reuss Voigt Hill
#
# Bulk Modulus (GPa) = 64.49065 66.81456 65.65260
# Shear Modulus (GPa) = 23.17191 27.42719 25.29955
#
# Velocity S-wave (km/s) = 3.57228 3.88647 3.73269
# Velocity P-wave (km/s) = 7.24784 7.54557 7.39820
#
# Compressibility (1/GPa) = 0.01550612
#
# Stress axis : x y z
#
# Youngs Moduli (GPa) = 89.99423 54.05461 33.76843
#
# Poissons Ratio (x) = 0.00948 0.18088
# Poissons Ratio (y) = 0.01579 0.55136
# Poissons Ratio (z) = 0.48205 0.88259
#
# Static dielectric constant tensor:
#      x y z
#    x 1.623870 0.000000 0.000000 
#    y 0.000000 1.593630 0.000000 
#    z 0.000000 0.000000 1.672030 
# 
# From -- ./inp_files/15006.got.cif
#   From: 2010.05.17/outbox.cif.g08.bks.cpg/sg20_8_cif.got.tgz:15006.got - 2010.06.03 22:52:26.
