data_PCOD9318783
_publ_section_title
;
Structure prediction by ZEFSAII (Michael W. Deem and Ramdas Pophale) SiO2 
 PCOD9318783
Probable space group: C 2 2 21
;
_chemical_formula_sum "Si O2"
_cell_formula_units_Z 64
_cell_length_a 16.560704
_cell_length_b 10.637646
_cell_length_c 15.252673
_cell_angle_alpha 90.000000
_cell_angle_beta 90.000000
_cell_angle_gamma 90.000000
_cell_volume 2687.016221
_symmetry_space_group_name_H-M "C 2 2 21"
_symmetry_group_IT_number 20
_symmetry_cell_setting 'orthorhombic'
loop_
_space_group_symop_operation_xyz
x,y,z
-x,-y,1/2+z
x,-y,-z
-x,y,1/2-z
1/2+x,1/2+y,z
1/2-x,1/2-y,1/2+z
1/2+x,1/2-y,-z
1/2-x,1/2+y,1/2-z
loop_
_atom_site_type_symbol
_atom_site_label
_atom_site_fract_x
_atom_site_fract_y
_atom_site_fract_z
Si Si1 0.311305 0.288631 0.600611
Si Si2 0.648832 0.634650 0.777516
Si Si3 0.510544 0.710807 0.152151
Si Si4 0.246254 0.258009 0.921545
Si Si5 0.146153 0.387558 0.671967
Si Si6 0.579121 0.785910 0.508941
Si Si7 0.490932 0.549435 0.592479
Si Si8 0.723576 0.014308 0.826126
O O1 0.395826 0.321855 0.641419
O O2 0.314014 0.289902 0.496279
O O3 0.237019 0.371278 0.634158
O O4 0.292618 0.145781 0.627839
O O5 0.725822 0.679117 0.835569
O O6 0.625772 0.756630 0.720737
O O7 0.574849 0.599494 0.839326
O O8 0.688082 0.528316 0.717476
O O9 0.500000 0.759492 0.250000
O O10 0.468901 0.574584 0.135895
O O11 0.482059 0.800007 0.072668
O O12 0.227695 0.400191 0.894031
O O13 0.334461 0.238332 0.962544
O O14 0.090946 0.391647 0.584657
O O15 0.156406 0.486151 0.750834
O O16 0.550036 0.660518 0.560731
O O17 0.455059 0.500000 0.500000
#
# Coordination Sequence:
#
# PCOD9318783 Si02
#       8
#     8   8   8   8   8   8   8   8
#     4  10  21  41  62  88 127 163 208 260 315 381
#     4  10  21  35  66  89 128 160 205 263 316 377
#     4  11  25  37  66  90 130 163 206 261 321 385
#     4  10  21  40  65  93 123 166 210 262 310 378
#     4   9  21  39  61  93 121 157 211 263 311 373
#     4  10  23  39  60  89 135 159 203 259 320 380
#     4  10  22  38  57  95 124 160 200 252 332 385
#     4  10  21  36  67  93 117 161 220 257 310 372
#
# _framework density 23.818241
#
# number of rings (size 3 to 8) (size 9 to 14) (size 15 to 20)
#    0.000    2.000    0.000    2.625    8.750    9.000 
#    0.000    0.000   11.000    0.000    0.000    0.000 
#    0.000    0.000    0.000    0.000    0.000    0.000 
#
# Total GULP energy -178856.198533 kJ/mol
# GULP energy per Si atom -5589.256204 kJ/mol
# Density = 2.376403 g / cm^3
# Si number density = 23.818241 Si / 1000 Ang^3
#
#
#
# Elastic Constant Matrix: (Units=GPa)
#
#
# Indices 1 2 3 4 5 6 
#
# 1 61.7459 -6.9755 16.9750 0.0000 0.0000 0.0000
# 2 -6.9755 22.9094 -14.5793 0.0000 0.0000 0.0000
# 3 16.9750 -14.5793 93.2399 0.0000 0.0000 0.0000
# 4 0.0000 0.0000 0.0000 11.2319 0.0000 0.0000
# 5 0.0000 0.0000 0.0000 0.0000 39.3243 0.0000
# 6 0.0000 0.0000 0.0000 0.0000 0.0000 14.5816
#
#
#
# Elastic Compliance Matrix: (Units=1/GPa)
#
#
# Indices 1 2 3 4 5 6 
#
# 1 0.017316 0.003627 -0.002585 0.000000 0.000000 0.000000
# 2 0.003627 0.049234 0.007038 0.000000 0.000000 0.000000
# 3 -0.002585 0.007038 0.012296 0.000000 0.000000 0.000000
# 4 0.000000 0.000000 0.000000 0.089032 0.000000 0.000000
# 5 0.000000 0.000000 0.000000 0.000000 0.025430 0.000000
# 6 0.000000 0.000000 0.000000 0.000000 0.000000 0.068580
#
#
# Mechanical properties :
#
#
# Convention : Reuss Voigt Hill
#
# Bulk Modulus (GPa) = 10.52573 18.74838 14.63705
# Shear Modulus (GPa) = 18.02480 25.19257 21.60869
#
# Velocity S-wave (km/s) = 2.75392 3.25576 3.01530
# Velocity P-wave (km/s) = 3.81325 4.69274 4.27567
#
# Compressibility (1/GPa) = 0.09500528
#
# Stress axis : x y z
#
# Youngs Moduli (GPa) = 57.75034 20.31134 81.32598
#
# Poissons Ratio (x) = -0.07367 0.21025
# Poissons Ratio (y) = -0.20947 -0.57237
# Poissons Ratio (z) = 0.14930 -0.14295
#
# Static dielectric constant tensor:
#      x y z
#    x 1.915640 0.000000 0.000000 
#    y 0.000000 1.912400 0.000000 
#    z 0.000000 0.000000 1.932640 
# 
# From -- ./inp_files/21489.got.cif
#   From: 2010.05.17/outbox.cif.g08.bks.cpg/sg20_11_cif.got.tgz:21489.got - 2010.06.03 22:52:26.
