data_PCOD9318548
_publ_section_title
;
Structure prediction by ZEFSAII (Michael W. Deem and Ramdas Pophale) SiO2 
 PCOD9318548
Probable space group: C 2 2 21
;
_chemical_formula_sum "Si O2"
_cell_formula_units_Z 52
_cell_length_a 7.958228
_cell_length_b 20.462539
_cell_length_c 15.423708
_cell_angle_alpha 90.000000
_cell_angle_beta 90.000000
_cell_angle_gamma 90.000000
_cell_volume 2511.682225
_symmetry_space_group_name_H-M "C 2 2 21"
_symmetry_group_IT_number 20
_symmetry_cell_setting 'orthorhombic'
loop_
_space_group_symop_operation_xyz
x,y,z
-x,-y,1/2+z
x,-y,-z
-x,y,1/2-z
1/2+x,1/2+y,z
1/2-x,1/2-y,1/2+z
1/2+x,1/2-y,-z
1/2-x,1/2+y,1/2-z
loop_
_atom_site_type_symbol
_atom_site_label
_atom_site_fract_x
_atom_site_fract_y
_atom_site_fract_z
Si Si1 0.711380 0.948615 0.427919
Si Si2 0.000000 0.244764 0.750000
Si Si3 0.308836 0.049667 0.572165
Si Si4 0.126968 0.809176 0.066258
Si Si5 0.204864 0.487798 0.746993
Si Si6 0.797855 0.828158 0.967391
Si Si7 0.193717 0.843239 0.732907
O O1 0.510176 0.955329 0.427177
O O2 0.759034 0.873328 0.437521
O O3 0.767823 0.970288 0.333265
O O4 0.775700 0.000000 0.500000
O O5 0.045330 0.204311 0.837809
O O6 0.164758 0.291366 0.735927
O O7 0.244806 0.024423 0.664554
O O8 0.273242 0.122519 0.539229
O O9 0.240562 0.000000 0.500000
O O10 0.220038 0.743493 0.037958
O O11 0.988563 0.821079 0.993904
O O12 0.272552 0.415067 0.730460
O O13 0.000000 0.483212 0.750000
O O14 0.777539 0.853989 0.870015
O O15 0.000000 0.822551 0.750000
#
# Coordination Sequence:
#
# PCOD9318548 Si02
#       7
#     8   4   8   8   8   8   8
#     4  10  24  41  68  97 134 176 229 281 343 405
#     4  10  26  48  68  94 148 174 224 280 340 410
#     4  10  20  41  68  98 134 178 222 282 339 406
#     4  11  26  45  64  97 130 182 222 282 343 403
#     4  10  21  40  68  99 138 175 223 283 342 397
#     4  11  25  42  67  93 135 175 225 278 337 410
#     4  11  24  42  71 104 131 179 228 276 337 410
#
# _framework density 20.703256
#
# number of rings (size 3 to 8) (size 9 to 14) (size 15 to 20)
#    0.000    1.538    2.308    0.923    6.462    1.846 
#    0.000    0.769    0.000    0.000    0.000    0.000 
#    0.000    0.000    0.000    0.000    0.000    0.000 
#
# Total GULP energy -145124.753406 kJ/mol
# GULP energy per Si atom -5581.721285 kJ/mol
# Density = 2.065613 g / cm^3
# Si number density = 20.703256 Si / 1000 Ang^3
#
#
#
# Elastic Constant Matrix: (Units=GPa)
#
#
# Indices 1 2 3 4 5 6 
#
# 1 43.5330 3.9285 6.7343 0.0000 0.0000 0.0000
# 2 3.9285 110.1447 25.0154 0.0000 0.0000 0.0000
# 3 6.7343 25.0154 54.3508 0.0000 0.0000 0.0000
# 4 0.0000 0.0000 0.0000 2.4493 0.0000 0.0000
# 5 0.0000 0.0000 0.0000 0.0000 17.3637 0.0000
# 6 0.0000 0.0000 0.0000 0.0000 0.0000 20.0206
#
#
#
# Elastic Compliance Matrix: (Units=1/GPa)
#
#
# Indices 1 2 3 4 5 6 
#
# 1 0.023424 -0.000197 -0.002812 0.000000 0.000000 0.000000
# 2 -0.000197 0.010140 -0.004643 0.000000 0.000000 0.000000
# 3 -0.002812 -0.004643 0.020884 0.000000 0.000000 0.000000
# 4 0.000000 0.000000 0.000000 0.408280 0.000000 0.000000
# 5 0.000000 0.000000 0.000000 0.000000 0.057591 0.000000
# 6 0.000000 0.000000 0.000000 0.000000 0.000000 0.049948
#
#
# Mechanical properties :
#
#
# Convention : Reuss Voigt Hill
#
# Bulk Modulus (GPa) = 25.54559 31.04278 28.29418
# Shear Modulus (GPa) = 8.35255 19.45674 13.90465
#
# Velocity S-wave (km/s) = 2.01076 3.06893 2.59437
# Velocity P-wave (km/s) = 4.21386 5.25209 4.76136
#
# Compressibility (1/GPa) = 0.03914570
#
# Stress axis : x y z
#
# Youngs Moduli (GPa) = 42.69157 98.61511 47.88294
#
# Poissons Ratio (x) = 0.01942 0.13463
# Poissons Ratio (y) = 0.00841 0.22231
# Poissons Ratio (z) = 0.12004 0.45785
#
# Static dielectric constant tensor:
#      x y z
#    x 1.820140 0.000000 0.000000 
#    y 0.000000 1.605870 0.000000 
#    z 0.000000 0.000000 1.778190 
# 
# From -- ./inp_files/19136.got.cif
#   From: 2010.05.17/outbox.cif.g08.bks.cpg/sg20_10_cif.got.tgz:19136.got - 2010.06.03 22:52:26.
