data_PCOD9318375
_publ_section_title
;
Structure prediction by ZEFSAII (Michael W. Deem and Ramdas Pophale) SiO2 
 PCOD9318375
Probable space group: C 2 2 21
;
_chemical_formula_sum "Si O2"
_cell_formula_units_Z 60
_cell_length_a 27.445933
_cell_length_b 12.077312
_cell_length_c 9.562901
_cell_angle_alpha 90.000000
_cell_angle_beta 90.000000
_cell_angle_gamma 90.000000
_cell_volume 3169.844401
_symmetry_space_group_name_H-M "C 2 2 21"
_symmetry_group_IT_number 20
_symmetry_cell_setting 'orthorhombic'
loop_
_space_group_symop_operation_xyz
x,y,z
-x,-y,1/2+z
x,-y,-z
-x,y,1/2-z
1/2+x,1/2+y,z
1/2-x,1/2-y,1/2+z
1/2+x,1/2-y,-z
1/2-x,1/2+y,1/2-z
loop_
_atom_site_type_symbol
_atom_site_label
_atom_site_fract_x
_atom_site_fract_y
_atom_site_fract_z
Si Si1 0.103510 0.128810 0.172070
Si Si2 0.275730 0.754672 0.568016
Si Si3 0.500000 0.717380 0.250000
Si Si4 0.131606 0.880694 0.150901
Si Si5 0.336127 0.967562 0.654031
Si Si6 0.419947 0.821571 0.763008
Si Si7 0.498198 0.869125 0.523645
Si Si8 0.689924 0.789880 0.239787
O O1 0.139137 0.223728 0.231595
O O2 0.049386 0.145286 0.233188
O O3 0.125480 0.006714 0.197966
O O4 0.106249 0.136134 0.002084
O O5 0.313200 0.661938 0.627532
O O6 0.296057 0.873305 0.621852
O O7 0.280882 0.753709 0.400748
O O8 0.222180 0.736675 0.626197
O O9 0.498107 0.798228 0.383366
O O10 0.105015 0.797868 0.256210
O O11 0.378090 0.911647 0.743292
O O12 0.356080 0.000000 0.500000
O O13 0.317781 0.079148 0.724411
O O14 0.455704 0.832557 0.629643
O O15 0.451466 0.844288 0.898146
O O16 0.493292 0.000000 0.500000
#
# Coordination Sequence:
#
# PCOD9318375 Si02
#       8
#     8   8   4   8   8   8   8   8
#     4  10  22  38  65  88 123 165 206 248 305 361
#     4   9  20  38  62  87 117 154 201 244 309 361
#     4  12  24  42  58  94 124 162 208 254 308 360
#     4   9  19  42  63  86 119 164 205 241 297 383
#     4   9  19  35  62  85 115 158 198 242 309 373
#     4  10  20  40  60  87 114 161 201 243 296 364
#     4  11  24  35  61  87 122 156 200 253 301 352
#     4  10  21  38  62  89 118 158 199 254 301 370
#
# _framework density 18.928374000000002
#
# number of rings (size 3 to 8) (size 9 to 14) (size 15 to 20)
#    0.000    2.133    1.333    2.000    5.600    1.067 
#    4.800    0.000    0.000    0.000    0.000    0.000 
#    0.000    0.000    0.000    0.000    0.000    0.000 
#
# Total GULP energy -167464.610713 kJ/mol
# GULP energy per Si atom -5582.153690 kJ/mol
# Density = 1.888529 g / cm^3
# Si number density = 18.928374 Si / 1000 Ang^3
#
#
#
# Elastic Constant Matrix: (Units=GPa)
#
#
# Indices 1 2 3 4 5 6 
#
# 1 54.3313 12.0689 9.1074 0.0000 0.0000 0.0000
# 2 12.0689 98.6507 9.4346 0.0000 0.0000 0.0000
# 3 9.1074 9.4346 30.7096 0.0000 0.0000 0.0000
# 4 0.0000 0.0000 0.0000 0.5670 0.0000 0.0000
# 5 0.0000 0.0000 0.0000 0.0000 14.9433 0.0000
# 6 0.0000 0.0000 0.0000 0.0000 0.0000 8.2913
#
#
#
# Elastic Compliance Matrix: (Units=1/GPa)
#
#
# Indices 1 2 3 4 5 6 
#
# 1 0.019711 -0.001908 -0.005259 0.000000 0.000000 0.000000
# 2 -0.001908 0.010628 -0.002699 0.000000 0.000000 0.000000
# 3 -0.005259 -0.002699 0.034952 0.000000 0.000000 0.000000
# 4 0.000000 0.000000 0.000000 1.763521 0.000000 0.000000
# 5 0.000000 0.000000 0.000000 0.000000 0.066920 0.000000
# 6 0.000000 0.000000 0.000000 0.000000 0.000000 0.120609
#
#
# Mechanical properties :
#
#
# Convention : Reuss Voigt Hill
#
# Bulk Modulus (GPa) = 21.95027 27.21260 24.58143
# Shear Modulus (GPa) = 2.43752 14.96570 8.70161
#
# Velocity S-wave (km/s) = 1.13603 2.81490 2.14642
# Velocity P-wave (km/s) = 3.65273 4.99727 4.37693
#
# Compressibility (1/GPa) = 0.04555752
#
# Stress axis : x y z
#
# Youngs Moduli (GPa) = 50.73271 94.08744 28.61060
#
# Poissons Ratio (x) = 0.17956 0.15047
# Poissons Ratio (y) = 0.09682 0.07723
# Poissons Ratio (z) = 0.26682 0.25397
#
# Static dielectric constant tensor:
#      x y z
#    x 1.649130 0.000000 0.000000 
#    y 0.000000 1.657200 0.000000 
#    z 0.000000 0.000000 1.644820 
# 
# From -- ./inp_files/7576.got.cif
#   From: 2010.05.17/outbox.cif.g08.bks.cpg/sg20_4_cif.got.tgz:7576.got - 2010.06.03 22:52:26.
