data_PCOD9318781
_publ_section_title
;
Structure prediction by ZEFSAII (Michael W. Deem and Ramdas Pophale) SiO2 
 PCOD9318781
Probable space group: C 2 2 21
;
_chemical_formula_sum "Si O2"
_cell_formula_units_Z 40
_cell_length_a 5.295827
_cell_length_b 18.464632
_cell_length_c 17.798255
_cell_angle_alpha 90.000000
_cell_angle_beta 90.000000
_cell_angle_gamma 90.000000
_cell_volume 1740.411205
_symmetry_space_group_name_H-M "C 2 2 21"
_symmetry_group_IT_number 20
_symmetry_cell_setting 'orthorhombic'
loop_
_space_group_symop_operation_xyz
x,y,z
-x,-y,1/2+z
x,-y,-z
-x,y,1/2-z
1/2+x,1/2+y,z
1/2-x,1/2-y,1/2+z
1/2+x,1/2-y,-z
1/2-x,1/2+y,1/2-z
loop_
_atom_site_type_symbol
_atom_site_label
_atom_site_fract_x
_atom_site_fract_y
_atom_site_fract_z
Si Si1 0.301160 0.482689 0.583183
Si Si2 0.637460 0.218838 0.096708
Si Si3 0.791697 0.573398 0.351838
Si Si4 0.366439 0.189675 0.578166
Si Si5 0.385544 0.575488 0.822215
O O1 0.225151 0.500000 0.500000
O O2 0.072576 0.442575 0.621390
O O3 0.562568 0.437906 0.588511
O O4 0.379852 0.555877 0.624737
O O5 0.698087 0.159019 0.160602
O O6 0.863294 0.276327 0.096562
O O7 0.364300 0.256389 0.100832
O O8 0.644512 0.182193 0.012724
O O9 0.724902 0.504422 0.298772
O O10 0.310003 0.118192 0.626577
O O11 0.500000 0.614106 0.750000
#
# Coordination Sequence:
#
# PCOD9318781 Si02
#       5
#     8   8   8   8   8
#     4  10  21  35  64  96 120 158 208 265 309 373
#     4  10  21  39  61  95 121 160 208 265 310 379
#     4  10  22  38  63  89 129 160 213 261 319 370
#     4  10  22  37  63  91 128 160 206 257 322 376
#     4  10  25  43  63  96 130 171 212 268 324 396
#
# _framework density 22.983074999999999
#
# number of rings (size 3 to 8) (size 9 to 14) (size 15 to 20)
#    1.200    0.800    0.000    3.000    5.600    2.400 
#    0.000    2.000    0.000    0.000    0.000    0.000 
#    0.000    0.000    0.000    0.000    0.000    0.000 
#
# Total GULP energy -111470.336788 kJ/mol
# GULP energy per Si atom -5573.516839 kJ/mol
# Density = 2.293076 g / cm^3
# Si number density = 22.983075 Si / 1000 Ang^3
#
#
#
# Elastic Constant Matrix: (Units=GPa)
#
#
# Indices 1 2 3 4 5 6 
#
# 1 82.3347 10.4799 -0.3604 0.0000 0.0000 0.0000
# 2 10.4799 40.0498 5.1355 0.0000 0.0000 0.0000
# 3 -0.3604 5.1355 41.0971 0.0000 0.0000 0.0000
# 4 0.0000 0.0000 0.0000 7.7320 0.0000 0.0000
# 5 0.0000 0.0000 0.0000 0.0000 -18.3199 0.0000
# 6 0.0000 0.0000 0.0000 0.0000 0.0000 34.5248
#
#
#
# Elastic Compliance Matrix: (Units=1/GPa)
#
#
# Indices 1 2 3 4 5 6 
#
# 1 0.012575 -0.003359 0.000530 0.000000 0.000000 0.000000
# 2 -0.003359 0.026272 -0.003312 0.000000 0.000000 0.000000
# 3 0.000530 -0.003312 0.024751 0.000000 0.000000 0.000000
# 4 0.000000 0.000000 0.000000 0.129333 0.000000 0.000000
# 5 0.000000 0.000000 0.000000 0.000000 -0.054586 0.000000
# 6 0.000000 0.000000 0.000000 0.000000 0.000000 0.028965
#
#
# Mechanical properties :
#
#
# Convention : Reuss Voigt Hill
#
# Bulk Modulus (GPa) = 19.48675 21.55462 20.52069
# Shear Modulus (GPa) = 25.41951 14.66917 20.04434
#
# Velocity S-wave (km/s) = 3.32928 2.52912 2.95640
# Velocity P-wave (km/s) = 4.82452 4.23408 4.53891
#
# Compressibility (1/GPa) = 0.05131691
#
# Stress axis : x y z
#
# Youngs Moduli (GPa) = 79.52058 38.06264 40.40214
#
# Poissons Ratio (x) = 0.12784 -0.02141
# Poissons Ratio (y) = 0.26708 0.13383
# Poissons Ratio (z) = -0.04214 0.12608
#
# Static dielectric constant tensor:
#      x y z
#    x 1.811790 0.000000 0.000000 
#    y 0.000000 1.960640 0.000000 
#    z 0.000000 0.000000 2.073620 
# 
# From -- ./inp_files/22737.got.cif
#   From: 2010.05.17/outbox.cif.g08.bks.cpg/sg20_12_cif.got.tgz:22737.got - 2010.06.03 22:52:26.
