data_PCOD9318812
_publ_section_title
;
Structure prediction by ZEFSAII (Michael W. Deem and Ramdas Pophale) SiO2 
 PCOD9318812
Probable space group: C 2 2 21
;
_chemical_formula_sum "Si O2"
_cell_formula_units_Z 32
_cell_length_a 18.767027
_cell_length_b 16.504589
_cell_length_c 4.880355
_cell_angle_alpha 90.000000
_cell_angle_beta 90.000000
_cell_angle_gamma 90.000000
_cell_volume 1511.651247
_symmetry_space_group_name_H-M "C 2 2 21"
_symmetry_group_IT_number 20
_symmetry_cell_setting 'orthorhombic'
loop_
_space_group_symop_operation_xyz
x,y,z
-x,-y,1/2+z
x,-y,-z
-x,y,1/2-z
1/2+x,1/2+y,z
1/2-x,1/2-y,1/2+z
1/2+x,1/2-y,-z
1/2-x,1/2+y,1/2-z
loop_
_atom_site_type_symbol
_atom_site_label
_atom_site_fract_x
_atom_site_fract_y
_atom_site_fract_z
Si Si1 0.828757 0.000000 0.000000
Si Si2 0.347074 0.738071 0.772489
Si Si3 0.277739 0.000000 0.000000
Si Si4 0.304838 0.838387 0.265507
Si Si5 0.544764 0.623341 0.527625
O O1 0.775294 0.018280 0.249640
O O2 0.883251 0.925458 0.973288
O O3 0.331073 0.813068 0.567139
O O4 0.280475 0.676483 0.730478
O O5 0.423883 0.696329 0.778926
O O6 0.339471 0.770150 0.078649
O O7 0.321070 0.075104 0.870372
O O8 0.500000 0.572432 0.750000
O O9 0.500000 0.639407 0.250000
#
# Coordination Sequence:
#
# PCOD9318812 Si02
#       5
#     4   8   4   8   8
#     4  12  24  37  56  88 130 167 218 248 296 386
#     4  10  21  38  56  85 116 165 209 262 304 370
#     4  12  22  37  62  92 122 167 200 266 324 386
#     4  10  21  36  60  83 120 157 207 261 325 364
#     4  12  24  39  58  84 125 176 218 252 299 371
#
# _framework density 21.168903
#
# number of rings (size 3 to 8) (size 9 to 14) (size 15 to 20)
#    0.000    1.000    2.500    5.250    7.000    0.000 
#    0.000    0.000    0.000    0.000    0.000    5.250 
#    0.000    0.000    0.000    0.000    0.000    0.000 
#
# Total GULP energy -89089.890350 kJ/mol
# GULP energy per Si atom -5568.118147 kJ/mol
# Density = 2.112072 g / cm^3
# Si number density = 21.168903 Si / 1000 Ang^3
#
#
#
# Elastic Constant Matrix: (Units=GPa)
#
#
# Indices 1 2 3 4 5 6 
#
# 1 38.2148 16.0553 23.8393 0.0000 0.0000 0.0000
# 2 16.0553 67.2206 -0.2161 0.0000 0.0000 0.0000
# 3 23.8393 -0.2161 113.1281 0.0000 0.0000 0.0000
# 4 0.0000 0.0000 0.0000 26.7295 0.0000 0.0000
# 5 0.0000 0.0000 0.0000 0.0000 37.5667 0.0000
# 6 0.0000 0.0000 0.0000 0.0000 0.0000 15.8967
#
#
#
# Elastic Compliance Matrix: (Units=1/GPa)
#
#
# Indices 1 2 3 4 5 6 
#
# 1 0.034089 -0.008165 -0.007199 0.000000 0.000000 0.000000
# 2 -0.008165 0.016832 0.001753 0.000000 0.000000 0.000000
# 3 -0.007199 0.001753 0.010360 0.000000 0.000000 0.000000
# 4 0.000000 0.000000 0.000000 0.037412 0.000000 0.000000
# 5 0.000000 0.000000 0.000000 0.000000 0.026619 0.000000
# 6 0.000000 0.000000 0.000000 0.000000 0.000000 0.062906
#
#
# Mechanical properties :
#
#
# Convention : Reuss Voigt Hill
#
# Bulk Modulus (GPa) = 29.36139 33.10228 31.23184
# Shear Modulus (GPa) = 22.04634 27.96424 25.00529
#
# Velocity S-wave (km/s) = 3.23065 3.63851 3.44063
# Velocity P-wave (km/s) = 5.27412 5.77259 5.52897
#
# Compressibility (1/GPa) = 0.03405833
#
# Stress axis : x y z
#
# Youngs Moduli (GPa) = 29.33469 59.40977 96.52556
#
# Poissons Ratio (x) = 0.48509 0.69490
# Poissons Ratio (y) = 0.23952 -0.16919
# Poissons Ratio (z) = 0.21119 -0.10413
#
# Static dielectric constant tensor:
#      x y z
#    x 1.766090 0.000000 0.000000 
#    y 0.000000 1.884520 0.000000 
#    z 0.000000 0.000000 1.758630 
# 
# From -- ./inp_files/2431.got.cif
#   From: 2010.05.17/outbox.cif.g08.bks.cpg/sg20_2_cif.got.tgz:2431.got - 2010.06.03 22:52:26.
