data_PCOD9318650
_publ_section_title
;
Structure prediction by ZEFSAII (Michael W. Deem and Ramdas Pophale) SiO2 
 PCOD9318650
Probable space group: C 2 2 21
;
_chemical_formula_sum "Si O2"
_cell_formula_units_Z 36
_cell_length_a 11.252846
_cell_length_b 15.512157
_cell_length_c 10.333367
_cell_angle_alpha 90.000000
_cell_angle_beta 90.000000
_cell_angle_gamma 90.000000
_cell_volume 1803.750320
_symmetry_space_group_name_H-M "C 2 2 21"
_symmetry_group_IT_number 20
_symmetry_cell_setting 'orthorhombic'
loop_
_space_group_symop_operation_xyz
x,y,z
-x,-y,1/2+z
x,-y,-z
-x,y,1/2-z
1/2+x,1/2+y,z
1/2-x,1/2-y,1/2+z
1/2+x,1/2-y,-z
1/2-x,1/2+y,1/2-z
loop_
_atom_site_type_symbol
_atom_site_label
_atom_site_fract_x
_atom_site_fract_y
_atom_site_fract_z
Si Si1 0.266203 0.000000 0.500000
Si Si2 0.666766 0.202812 0.671248
Si Si3 0.568384 0.672323 0.884568
Si Si4 0.925712 0.663909 0.557360
Si Si5 0.421860 0.608404 0.121061
O O1 0.350954 0.920801 0.467779
O O2 0.175284 0.966544 0.609784
O O3 0.791764 0.160670 0.638816
O O4 0.558232 0.148708 0.610986
O O5 0.643621 0.210533 0.824714
O O6 0.648736 0.300097 0.619280
O O7 0.500000 0.662519 0.750000
O O8 0.561402 0.770625 0.938473
O O9 0.507952 0.614267 0.995834
O O10 0.500000 0.603076 0.250000
#
# Coordination Sequence:
#
# PCOD9318650 Si02
#       5
#     4   8   8   8   8
#     4  12  24  42  64 102 140 170 218 300 338 388
#     4  10  20  43  67  89 131 176 227 267 320 427
#     4  11  22  38  72 100 120 181 235 264 331 428
#     4  10  22  40  64  94 132 172 214 281 340 383
#     4  11  23  42  69  98 139 177 221 285 346 390
#
# _framework density 19.958416
#
# number of rings (size 3 to 8) (size 9 to 14) (size 15 to 20)
#    0.000    1.333    6.667    1.333    3.111    2.667 
#    4.000    1.111    0.000    0.000    0.000    0.000 
#    0.000    0.000    0.000    0.000    0.000    0.000 
#
# Total GULP energy -100486.666871 kJ/mol
# GULP energy per Si atom -5582.592604 kJ/mol
# Density = 1.991299 g / cm^3
# Si number density = 19.958416 Si / 1000 Ang^3
#
#
#
# Elastic Constant Matrix: (Units=GPa)
#
#
# Indices 1 2 3 4 5 6 
#
# 1 132.5185 34.4250 51.5225 0.0000 0.0000 0.0000
# 2 34.4250 60.5203 14.6838 0.0000 0.0000 0.0000
# 3 51.5225 14.6838 120.2060 0.0000 0.0000 0.0000
# 4 0.0000 0.0000 0.0000 13.4402 0.0000 0.0000
# 5 0.0000 0.0000 0.0000 0.0000 18.7698 0.0000
# 6 0.0000 0.0000 0.0000 0.0000 0.0000 40.6235
#
#
#
# Elastic Compliance Matrix: (Units=1/GPa)
#
#
# Indices 1 2 3 4 5 6 
#
# 1 0.010314 -0.004940 -0.003817 0.000000 0.000000 0.000000
# 2 -0.004940 0.019395 -0.000252 0.000000 0.000000 0.000000
# 3 -0.003817 -0.000252 0.009986 0.000000 0.000000 0.000000
# 4 0.000000 0.000000 0.000000 0.074403 0.000000 0.000000
# 5 0.000000 0.000000 0.000000 0.000000 0.053277 0.000000
# 6 0.000000 0.000000 0.000000 0.000000 0.000000 0.024616
#
#
# Mechanical properties :
#
#
# Convention : Reuss Voigt Hill
#
# Bulk Modulus (GPa) = 46.13430 57.16748 51.65089
# Shear Modulus (GPa) = 23.01662 28.74094 25.87878
#
# Velocity S-wave (km/s) = 3.39961 3.79890 3.60479
# Velocity P-wave (km/s) = 6.21089 6.92443 6.57734
#
# Compressibility (1/GPa) = 0.02167585
#
# Stress axis : x y z
#
# Youngs Moduli (GPa) = 96.95951 51.56068 100.14154
#
# Poissons Ratio (x) = 0.25473 0.38225
# Poissons Ratio (y) = 0.47902 0.02520
# Poissons Ratio (z) = 0.37010 0.01297
#
# Static dielectric constant tensor:
#      x y z
#    x 1.709750 0.000000 0.000000 
#    y 0.000000 1.725820 0.000000 
#    z 0.000000 0.000000 1.716240 
# 
# From -- ./inp_files/13785.got.cif
#   From: 2010.05.17/outbox.cif.g08.bks.cpg/sg20_7_cif.got.tgz:13785.got - 2010.06.03 22:52:26.
