data_PCOD9318357
_publ_section_title
;
Structure prediction by ZEFSAII (Michael W. Deem and Ramdas Pophale) SiO2 
 PCOD9318357
Probable space group: C 2 2 21
;
_chemical_formula_sum "Si O2"
_cell_formula_units_Z 48
_cell_length_a 23.264868
_cell_length_b 5.918689
_cell_length_c 15.305498
_cell_angle_alpha 90.000000
_cell_angle_beta 90.000000
_cell_angle_gamma 90.000000
_cell_volume 2107.529091
_symmetry_space_group_name_H-M "C 2 2 21"
_symmetry_group_IT_number 20
_symmetry_cell_setting 'orthorhombic'
loop_
_space_group_symop_operation_xyz
x,y,z
-x,-y,1/2+z
x,-y,-z
-x,y,1/2-z
1/2+x,1/2+y,z
1/2-x,1/2-y,1/2+z
1/2+x,1/2-y,-z
1/2-x,1/2+y,1/2-z
loop_
_atom_site_type_symbol
_atom_site_label
_atom_site_fract_x
_atom_site_fract_y
_atom_site_fract_z
Si Si1 0.842085 0.675732 0.432458
Si Si2 0.542487 0.751889 0.662489
Si Si3 0.418963 0.000000 0.000000
Si Si4 0.861939 0.123076 0.121664
Si Si5 0.389044 0.906111 0.284558
Si Si6 0.440158 0.519084 0.400975
Si Si7 0.234311 0.000000 0.500000
O O1 0.872619 0.500000 0.500000
O O2 0.842891 0.542633 0.341520
O O3 0.879215 0.894153 0.413957
O O4 0.779854 0.698974 0.477000
O O5 0.589160 0.557816 0.643426
O O6 0.482278 0.620053 0.662111
O O7 0.541599 0.902349 0.575428
O O8 0.567951 0.925729 0.733568
O O9 0.381550 0.802449 0.046551
O O10 0.856544 0.261156 0.211145
O O11 0.806888 0.993507 0.083572
O O12 0.426188 0.750040 0.350535
O O13 0.465328 0.500000 0.500000
#
# Coordination Sequence:
#
# PCOD9318357 Si02
#       7
#     8   8   4   8   8   8   4
#     4  10  24  47  68 102 140 195 248 303 373 450
#     4  11  25  42  74 106 151 188 247 310 378 448
#     4  10  20  39  68 106 137 188 240 296 374 438
#     4  11  22  45  70 106 146 187 249 309 375 439
#     4  11  26  47  69 111 143 195 252 311 379 452
#     4  12  24  46  76 106 151 201 249 305 387 467
#     4  10  22  49  72 102 145 194 246 306 378 442
#
# _framework density 22.775486000000001
#
# number of rings (size 3 to 8) (size 9 to 14) (size 15 to 20)
#    0.500    0.667    3.333    2.000    1.167    6.667 
#   10.500    0.000    0.000    0.000    0.000    0.000 
#    0.000    0.000    0.000    0.000    0.000    0.000 
#
# Total GULP energy -133932.402247 kJ/mol
# GULP energy per Si atom -5580.516760 kJ/mol
# Density = 2.272365 g / cm^3
# Si number density = 22.775486 Si / 1000 Ang^3
#
#
#
# Elastic Constant Matrix: (Units=GPa)
#
#
# Indices 1 2 3 4 5 6 
#
# 1 108.5983 41.1242 34.5957 0.0000 0.0000 0.0000
# 2 41.1242 103.6176 59.7990 0.0000 0.0000 0.0000
# 3 34.5957 59.7990 149.3103 0.0000 0.0000 0.0000
# 4 0.0000 0.0000 0.0000 65.6052 0.0000 0.0000
# 5 0.0000 0.0000 0.0000 0.0000 35.2915 0.0000
# 6 0.0000 0.0000 0.0000 0.0000 0.0000 23.0883
#
#
#
# Elastic Compliance Matrix: (Units=1/GPa)
#
#
# Indices 1 2 3 4 5 6 
#
# 1 0.010959 -0.003751 -0.001037 0.000000 0.000000 0.000000
# 2 -0.003751 0.013836 -0.004672 0.000000 0.000000 0.000000
# 3 -0.001037 -0.004672 0.008809 0.000000 0.000000 0.000000
# 4 0.000000 0.000000 0.000000 0.015243 0.000000 0.000000
# 5 0.000000 0.000000 0.000000 0.000000 0.028335 0.000000
# 6 0.000000 0.000000 0.000000 0.000000 0.000000 0.043312
#
#
# Mechanical properties :
#
#
# Convention : Reuss Voigt Hill
#
# Bulk Modulus (GPa) = 68.10322 70.28488 69.19405
# Shear Modulus (GPa) = 34.64787 39.86415 37.25601
#
# Velocity S-wave (km/s) = 3.90459 4.18821 4.04888
# Velocity P-wave (km/s) = 7.09187 7.36987 7.23221
#
# Compressibility (1/GPa) = 0.01468359
#
# Stress axis : x y z
#
# Youngs Moduli (GPa) = 91.24895 72.27533 113.52089
#
# Poissons Ratio (x) = 0.27111 0.11772
# Poissons Ratio (y) = 0.34228 0.53039
# Poissons Ratio (z) = 0.09462 0.33769
#
# Static dielectric constant tensor:
#      x y z
#    x 1.838100 0.000000 0.000000 
#    y 0.000000 1.919290 0.000000 
#    z 0.000000 0.000000 2.002000 
# 
# From -- ./inp_files/22186.got.cif
#   From: 2010.05.17/outbox.cif.g08.bks.cpg/sg20_12_cif.got.tgz:22186.got - 2010.06.03 22:52:26.
