data_PCOD9318380
_publ_section_title
;
Structure prediction by ZEFSAII (Michael W. Deem and Ramdas Pophale) SiO2 
 PCOD9318380
Probable space group: C 2 2 21
;
_chemical_formula_sum "Si O2"
_cell_formula_units_Z 36
_cell_length_a 5.540569
_cell_length_b 14.134602
_cell_length_c 18.715102
_cell_angle_alpha 90.000000
_cell_angle_beta 90.000000
_cell_angle_gamma 90.000000
_cell_volume 1465.649588
_symmetry_space_group_name_H-M "C 2 2 21"
_symmetry_group_IT_number 20
_symmetry_cell_setting 'orthorhombic'
loop_
_space_group_symop_operation_xyz
x,y,z
-x,-y,1/2+z
x,-y,-z
-x,y,1/2-z
1/2+x,1/2+y,z
1/2-x,1/2-y,1/2+z
1/2+x,1/2-y,-z
1/2-x,1/2+y,1/2-z
loop_
_atom_site_type_symbol
_atom_site_label
_atom_site_fract_x
_atom_site_fract_y
_atom_site_fract_z
Si Si1 0.500000 0.932037 0.250000
Si Si2 0.356905 0.502181 0.354619
Si Si3 0.622342 0.148585 0.440838
Si Si4 0.386765 0.600821 0.037309
Si Si5 0.123886 0.814120 0.326661
O O1 0.718747 0.995571 0.279582
O O2 0.382055 0.862891 0.309173
O O3 0.152443 0.541181 0.408668
O O4 0.565714 0.576618 0.377926
O O5 0.466288 0.398162 0.361577
O O6 0.632306 0.223551 0.376682
O O7 0.364596 0.149059 0.477108
O O8 0.871759 0.156311 0.483693
O O9 0.390438 0.500000 0.000000
O O10 0.000000 0.792250 0.250000
#
# Coordination Sequence:
#
# PCOD9318380 Si02
#       5
#     4   8   8   8   8
#     4  10  20  40  60  92 136 168 206 268 338 390
#     4   9  22  37  64  90 131 168 212 265 326 391
#     4  10  23  39  66  91 123 166 216 261 326 387
#     4  10  22  43  66  90 126 171 222 272 323 385
#     4  10  22  39  60  93 132 165 209 270 320 401
#
# _framework density 24.562488999999999
#
# number of rings (size 3 to 8) (size 9 to 14) (size 15 to 20)
#    1.333    0.889    0.000    2.000    7.778    0.000 
#    6.000    2.222    0.000    0.000    0.000    0.000 
#    0.000    0.000    0.000    0.000    0.000    0.000 
#
# Total GULP energy -100339.858845 kJ/mol
# GULP energy per Si atom -5574.436603 kJ/mol
# Density = 2.450658 g / cm^3
# Si number density = 24.562489 Si / 1000 Ang^3
#
#
#
# Elastic Constant Matrix: (Units=GPa)
#
#
# Indices 1 2 3 4 5 6 
#
# 1 175.9657 60.7466 21.0429 0.0000 0.0000 0.0000
# 2 60.7466 123.0873 42.0745 0.0000 0.0000 0.0000
# 3 21.0429 42.0745 57.0582 0.0000 0.0000 0.0000
# 4 0.0000 0.0000 0.0000 58.6284 0.0000 0.0000
# 5 0.0000 0.0000 0.0000 0.0000 -8.6239 0.0000
# 6 0.0000 0.0000 0.0000 0.0000 0.0000 238.0682
#
#
#
# Elastic Compliance Matrix: (Units=1/GPa)
#
#
# Indices 1 2 3 4 5 6 
#
# 1 0.006850 -0.003365 -0.000045 0.000000 0.000000 0.000000
# 2 -0.003365 0.012516 -0.007988 0.000000 0.000000 0.000000
# 3 -0.000045 -0.007988 0.023433 0.000000 0.000000 0.000000
# 4 0.000000 0.000000 0.000000 0.017057 0.000000 0.000000
# 5 0.000000 0.000000 0.000000 0.000000 -0.115957 0.000000
# 6 0.000000 0.000000 0.000000 0.000000 0.000000 0.004200
#
#
# Mechanical properties :
#
#
# Convention : Reuss Voigt Hill
#
# Bulk Modulus (GPa) = 49.99359 67.09324 58.54341
# Shear Modulus (GPa) = -222.83473 73.09770 -74.86852
#
# Velocity S-wave (km/s) = -9.53512 5.46118 -5.52693
# Velocity P-wave (km/s) = 10.04126 8.19394 4.10404
#
# Compressibility (1/GPa) = 0.02000257
#
# Stress axis : x y z
#
# Youngs Moduli (GPa) = 145.98391 79.89968 42.67548
#
# Poissons Ratio (x) = 0.26890 0.00191
# Poissons Ratio (y) = 0.49130 0.34089
# Poissons Ratio (z) = 0.00652 0.63823
#
# Static dielectric constant tensor:
#      x y z
#    x 2.008330 0.000000 0.000000 
#    y 0.000000 1.895240 0.000000 
#    z 0.000000 0.000000 2.005520 
# 
# From -- ./inp_files/25967.got.cif
#   From: 2010.05.17/outbox.cif.g08.bks.cpg/sg20_13_cif.got.tgz:25967.got - 2010.06.03 22:52:26.
