data_PCOD9318231
_publ_section_title
;
Structure prediction by ZEFSAII (Michael W. Deem and Ramdas Pophale) SiO2 
 PCOD9318231
Probable space group: C 2 2 21
;
_chemical_formula_sum "Si O2"
_cell_formula_units_Z 64
_cell_length_a 24.482533
_cell_length_b 7.213995
_cell_length_c 16.914070
_cell_angle_alpha 90.000000
_cell_angle_beta 90.000000
_cell_angle_gamma 90.000000
_cell_volume 2987.310113
_symmetry_space_group_name_H-M "C 2 2 21"
_symmetry_group_IT_number 20
_symmetry_cell_setting 'orthorhombic'
loop_
_space_group_symop_operation_xyz
x,y,z
-x,-y,1/2+z
x,-y,-z
-x,y,1/2-z
1/2+x,1/2+y,z
1/2-x,1/2-y,1/2+z
1/2+x,1/2-y,-z
1/2-x,1/2+y,1/2-z
loop_
_atom_site_type_symbol
_atom_site_label
_atom_site_fract_x
_atom_site_fract_y
_atom_site_fract_z
Si Si1 0.404069 0.399950 0.416909
Si Si2 0.918886 0.327459 0.804406
Si Si3 0.217625 0.901850 0.084651
Si Si4 0.016817 0.394523 0.416622
Si Si5 0.281654 0.016081 0.356208
Si Si6 0.096704 0.504455 0.129255
Si Si7 0.292450 0.169486 0.180295
Si Si8 0.487047 0.457476 0.834630
O O1 0.406807 0.500000 0.500000
O O2 0.343746 0.433296 0.380493
O O3 0.405327 0.179383 0.429279
O O4 0.456447 0.458511 0.367222
O O5 0.954387 0.471336 0.854214
O O6 0.915563 0.403116 0.714778
O O7 0.856811 0.321207 0.834574
O O8 0.947071 0.127916 0.814371
O O9 0.263599 0.999225 0.136341
O O10 0.226915 0.680489 0.080696
O O11 0.218096 0.000000 0.000000
O O12 0.023246 0.500000 0.500000
O O13 0.037162 0.186021 0.398977
O O14 0.952795 0.375884 0.394697
O O15 0.341940 0.928596 0.369308
O O16 0.284039 0.129368 0.273398
O O17 0.237467 0.856221 0.347807
O O18 0.500000 0.361741 0.750000
#
# Coordination Sequence:
#
# PCOD9318231 Si02
#       8
#     8   8   8   8   8   8   8   8
#     4  10  20  38  66  95 129 160 201 270 329 370
#     4  11  24  44  62  91 135 168 209 266 314 382
#     4  10  23  42  65  97 131 165 211 272 327 373
#     4  12  26  42  63  96 130 171 217 266 323 381
#     4  10  22  40  67  98 122 168 216 266 326 377
#     4  10  20  43  63  90 133 157 207 279 315 368
#     4  11  23  42  68  92 130 170 215 264 312 394
#     4  12  23  38  66  95 122 170 214 251 324 392
#
# _framework density 21.423956
#
# number of rings (size 3 to 8) (size 9 to 14) (size 15 to 20)
#    0.000    1.250    3.750    1.875    1.750    2.000 
#    0.000    1.250    0.000    0.000    0.000    0.000 
#    0.000    0.000    0.000    0.000    0.000    0.000 
#
# Total GULP energy -178883.431138 kJ/mol
# GULP energy per Si atom -5590.107223 kJ/mol
# Density = 2.137519 g / cm^3
# Si number density = 21.423956 Si / 1000 Ang^3
#
#
#
# Elastic Constant Matrix: (Units=GPa)
#
#
# Indices 1 2 3 4 5 6 
#
# 1 108.9833 27.3058 26.9657 0.0000 0.0000 0.0000
# 2 27.3058 71.4961 -5.8106 0.0000 0.0000 0.0000
# 3 26.9657 -5.8106 25.0621 0.0000 0.0000 0.0000
# 4 0.0000 0.0000 0.0000 28.1405 0.0000 0.0000
# 5 0.0000 0.0000 0.0000 0.0000 16.1521 0.0000
# 6 0.0000 0.0000 0.0000 0.0000 0.0000 21.2894
#
#
#
# Elastic Compliance Matrix: (Units=1/GPa)
#
#
# Indices 1 2 3 4 5 6 
#
# 1 0.015646 -0.007485 -0.018569 0.000000 0.000000 0.000000
# 2 -0.007485 0.017836 0.012188 0.000000 0.000000 0.000000
# 3 -0.018569 0.012188 0.062707 0.000000 0.000000 0.000000
# 4 0.000000 0.000000 0.000000 0.035536 0.000000 0.000000
# 5 0.000000 0.000000 0.000000 0.000000 0.061912 0.000000
# 6 0.000000 0.000000 0.000000 0.000000 0.000000 0.046972
#
#
# Mechanical properties :
#
#
# Convention : Reuss Voigt Hill
#
# Bulk Modulus (GPa) = 14.60774 33.60703 24.10738
# Shear Modulus (GPa) = 17.17286 23.58842 20.38064
#
# Velocity S-wave (km/s) = 2.83428 3.32178 3.08766
# Velocity P-wave (km/s) = 4.18856 5.51661 4.89781
#
# Compressibility (1/GPa) = 0.06845685
#
# Stress axis : x y z
#
# Youngs Moduli (GPa) = 63.91592 56.06695 15.94731
#
# Poissons Ratio (x) = 0.41963 0.29613
# Poissons Ratio (y) = 0.47838 -0.19437
# Poissons Ratio (z) = 1.18687 -0.68336
#
# Static dielectric constant tensor:
#      x y z
#    x 1.765800 0.000000 0.000000 
#    y 0.000000 1.795820 0.000000 
#    z 0.000000 0.000000 1.820930 
# 
# From -- ./inp_files/25532.got.cif
#   From: 2010.05.17/outbox.cif.g08.bks.cpg/sg20_13_cif.got.tgz:25532.got - 2010.06.03 22:52:26.
