data_PCOD9318023
_publ_section_title
;
Structure prediction by ZEFSAII (Michael W. Deem and Ramdas Pophale) SiO2 
 PCOD9318023
Probable space group: C 2 2 21
;
_chemical_formula_sum "Si O2"
_cell_formula_units_Z 56
_cell_length_a 8.343315
_cell_length_b 14.421951
_cell_length_c 19.658202
_cell_angle_alpha 90.000000
_cell_angle_beta 90.000000
_cell_angle_gamma 90.000000
_cell_volume 2365.410115
_symmetry_space_group_name_H-M "C 2 2 21"
_symmetry_group_IT_number 20
_symmetry_cell_setting 'orthorhombic'
loop_
_space_group_symop_operation_xyz
x,y,z
-x,-y,1/2+z
x,-y,-z
-x,y,1/2-z
1/2+x,1/2+y,z
1/2-x,1/2-y,1/2+z
1/2+x,1/2-y,-z
1/2-x,1/2+y,1/2-z
loop_
_atom_site_type_symbol
_atom_site_label
_atom_site_fract_x
_atom_site_fract_y
_atom_site_fract_z
Si Si1 0.705535 0.625030 0.301530
Si Si2 0.029542 0.200132 0.423834
Si Si3 0.679418 0.511934 0.079587
Si Si4 0.885111 0.062295 0.857214
Si Si5 0.807931 0.637632 0.523952
Si Si6 0.507190 0.901681 0.608316
Si Si7 0.355347 0.242389 0.195944
O O1 0.631844 0.698908 0.354425
O O2 0.615202 0.528244 0.310160
O O3 0.876596 0.593048 0.332426
O O4 0.723550 0.675234 0.229693
O O5 0.922320 0.107363 0.418906
O O6 0.916475 0.287536 0.436381
O O7 0.159184 0.185432 0.484033
O O8 0.565568 0.434044 0.112543
O O9 0.851820 0.523900 0.113677
O O10 0.709171 0.500000 0.000000
O O11 0.770614 0.063384 0.924203
O O12 0.823942 0.150697 0.816357
O O13 0.922855 0.599723 0.464423
O O14 0.589361 0.802630 0.625099
O O15 0.500000 0.240676 0.250000
#
# Coordination Sequence:
#
# PCOD9318023 Si02
#       7
#     8   8   8   8   8   8   8
#     4   9  23  43  67  93 134 181 226 287 335 400
#     4  10  20  37  61  95 138 177 220 284 339 408
#     4  11  22  37  62 101 134 168 221 275 347 414
#     4  11  23  41  69  98 135 180 226 286 343 409
#     4  11  21  39  64 101 138 177 224 277 358 408
#     4  10  23  40  67  93 138 176 217 287 340 408
#     4  10  22  47  66  92 133 183 233 277 337 404
#
# _framework density 23.67454
#
# number of rings (size 3 to 8) (size 9 to 14) (size 15 to 20)
#    0.000    1.714    1.429    2.571    2.000    1.143 
#    2.571   10.000    0.000    3.429    0.000    0.000 
#    0.000    0.000    0.000    0.000    0.000    0.000 
#
# Total GULP energy -156515.576653 kJ/mol
# GULP energy per Si atom -5589.842023 kJ/mol
# Density = 2.362066 g / cm^3
# Si number density = 23.674540 Si / 1000 Ang^3
#
#
#
# Elastic Constant Matrix: (Units=GPa)
#
#
# Indices 1 2 3 4 5 6 
#
# 1 121.4121 28.1618 48.2107 0.0000 0.0000 0.0000
# 2 28.1618 75.6438 44.1011 0.0000 0.0000 0.0000
# 3 48.2107 44.1011 106.6965 0.0000 0.0000 0.0000
# 4 0.0000 0.0000 0.0000 36.2882 0.0000 0.0000
# 5 0.0000 0.0000 0.0000 0.0000 33.1074 0.0000
# 6 0.0000 0.0000 0.0000 0.0000 0.0000 38.0157
#
#
#
# Elastic Compliance Matrix: (Units=1/GPa)
#
#
# Indices 1 2 3 4 5 6 
#
# 1 0.010158 -0.001457 -0.003988 0.000000 0.000000 0.000000
# 2 -0.001457 0.017626 -0.006627 0.000000 0.000000 0.000000
# 3 -0.003988 -0.006627 0.013913 0.000000 0.000000 0.000000
# 4 0.000000 0.000000 0.000000 0.027557 0.000000 0.000000
# 5 0.000000 0.000000 0.000000 0.000000 0.030205 0.000000
# 6 0.000000 0.000000 0.000000 0.000000 0.000000 0.026305
#
#
# Mechanical properties :
#
#
# Convention : Reuss Voigt Hill
#
# Bulk Modulus (GPa) = 56.96730 60.52217 58.74473
# Shear Modulus (GPa) = 32.10105 33.70085 32.90095
#
# Velocity S-wave (km/s) = 3.68629 3.77703 3.73194
# Velocity P-wave (km/s) = 6.49871 6.68139 6.59069
#
# Compressibility (1/GPa) = 0.01755393
#
# Stress axis : x y z
#
# Youngs Moduli (GPa) = 98.44711 56.73473 71.87341
#
# Poissons Ratio (x) = 0.08265 0.28660
# Poissons Ratio (y) = 0.14342 0.47631
# Poissons Ratio (z) = 0.39257 0.37598
#
# Static dielectric constant tensor:
#      x y z
#    x 1.971760 0.000000 0.000000 
#    y 0.000000 1.912650 0.000000 
#    z 0.000000 0.000000 1.899790 
# 
# From -- ./inp_files/26710.got.cif
#   From: 2010.05.17/outbox.cif.g08.bks.cpg/sg20_14_cif.got.tgz:26710.got - 2010.06.03 22:52:26.
