data_PCOD9318672
_publ_section_title
;
Structure prediction by ZEFSAII (Michael W. Deem and Ramdas Pophale) SiO2 
 PCOD9318672
Probable space group: C 2 2 21
;
_chemical_formula_sum "Si O2"
_cell_formula_units_Z 44
_cell_length_a 9.672449
_cell_length_b 25.938979
_cell_length_c 8.338523
_cell_angle_alpha 90.000000
_cell_angle_beta 90.000000
_cell_angle_gamma 90.000000
_cell_volume 2092.080816
_symmetry_space_group_name_H-M "C 2 2 21"
_symmetry_group_IT_number 20
_symmetry_cell_setting 'orthorhombic'
loop_
_space_group_symop_operation_xyz
x,y,z
-x,-y,1/2+z
x,-y,-z
-x,y,1/2-z
1/2+x,1/2+y,z
1/2-x,1/2-y,1/2+z
1/2+x,1/2-y,-z
1/2-x,1/2+y,1/2-z
loop_
_atom_site_type_symbol
_atom_site_label
_atom_site_fract_x
_atom_site_fract_y
_atom_site_fract_z
Si Si1 0.913279 0.352881 0.991083
Si Si2 0.286446 0.143335 0.365280
Si Si3 0.500000 0.304314 0.250000
Si Si4 0.914918 0.762419 0.913625
Si Si5 0.410869 0.560729 0.984175
Si Si6 0.180311 0.102234 0.838750
O O1 0.841906 0.353386 0.816112
O O2 0.076069 0.361579 0.973077
O O3 0.883558 0.297830 0.072760
O O4 0.831562 0.395109 0.091889
O O5 0.210185 0.197023 0.405250
O O6 0.181568 0.095676 0.396636
O O7 0.510530 0.273666 0.415697
O O8 0.370139 0.342601 0.269277
O O9 0.000000 0.771649 0.750000
O O10 0.562181 0.586906 0.967121
O O11 0.337237 0.565802 0.811823
O O12 0.428036 0.500000 0.000000
#
# Coordination Sequence:
#
# PCOD9318672 Si02
#       6
#     8   8   4   8   8   8
#     4  11  28  41  64 104 144 187 227 284 362 421
#     4  11  25  45  64 102 145 176 241 294 342 430
#     4  10  20  44  62 102 138 176 250 280 318 420
#     4  12  26  41  71  99 142 202 230 282 345 422
#     4  10  23  45  74 101 130 181 241 302 351 425
#     4  10  22  44  68  99 143 174 232 301 349 418
#
# _framework density 21.031694000000002
#
# number of rings (size 3 to 8) (size 9 to 14) (size 15 to 20)
#    0.000    1.455    3.636    2.182   10.182    2.909 
#    0.000    4.545    0.000    0.000    0.000    0.000 
#    0.000    0.000    0.000    0.000    0.000    0.000 
#
# Total GULP energy -122904.001226 kJ/mol
# GULP energy per Si atom -5586.545510 kJ/mol
# Density = 2.098383 g / cm^3
# Si number density = 21.031694 Si / 1000 Ang^3
#
#
#
# Elastic Constant Matrix: (Units=GPa)
#
#
# Indices 1 2 3 4 5 6 
#
# 1 89.6141 29.8846 50.1450 0.0000 0.0000 0.0000
# 2 29.8846 78.3283 17.5582 0.0000 0.0000 0.0000
# 3 50.1450 17.5582 93.9484 0.0000 0.0000 0.0000
# 4 0.0000 0.0000 0.0000 20.4670 0.0000 0.0000
# 5 0.0000 0.0000 0.0000 0.0000 32.6372 0.0000
# 6 0.0000 0.0000 0.0000 0.0000 0.0000 -0.2115
#
#
#
# Elastic Compliance Matrix: (Units=1/GPa)
#
#
# Indices 1 2 3 4 5 6 
#
# 1 0.017470 -0.004775 -0.008432 0.000000 0.000000 0.000000
# 2 -0.004775 0.014630 -0.000186 0.000000 0.000000 0.000000
# 3 -0.008432 -0.000186 0.015179 0.000000 0.000000 0.000000
# 4 0.000000 0.000000 0.000000 0.048859 0.000000 0.000000
# 5 0.000000 0.000000 0.000000 0.000000 0.030640 0.000000
# 6 0.000000 0.000000 0.000000 0.000000 0.000000 -4.728989
#
#
# Mechanical properties :
#
#
# Convention : Reuss Voigt Hill
#
# Bulk Modulus (GPa) = 48.79486 50.78516 49.79001
# Shear Modulus (GPa) = -1.09443 21.53207 10.21882
#
# Velocity S-wave (km/s) = -0.72215 3.20315 2.20665
# Velocity P-wave (km/s) = 4.74928 6.15464 5.49706
#
# Compressibility (1/GPa) = 0.02049396
#
# Stress axis : x y z
#
# Youngs Moduli (GPa) = 57.24235 68.35182 65.87874
#
# Poissons Ratio (x) = 0.32638 0.55549
# Poissons Ratio (y) = 0.27333 0.01223
# Poissons Ratio (z) = 0.48267 0.01269
#
# Static dielectric constant tensor:
#      x y z
#    x 1.779210 0.000000 0.000000 
#    y 0.000000 1.809580 0.000000 
#    z 0.000000 0.000000 1.861990 
# 
# From -- ./inp_files/6365.got.cif
#   From: 2010.05.17/outbox.cif.g08.bks.cpg/sg20_4_cif.got.tgz:6365.got - 2010.06.03 22:52:26.
