data_PCOD9318889
_publ_section_title
;
Structure prediction by ZEFSAII (Michael W. Deem and Ramdas Pophale) SiO2 
 PCOD9318889
Probable space group: C 2 2 21
;
_chemical_formula_sum "Si O2"
_cell_formula_units_Z 60
_cell_length_a 31.245427
_cell_length_b 11.779208
_cell_length_c 8.250432
_cell_angle_alpha 90.000000
_cell_angle_beta 90.000000
_cell_angle_gamma 90.000000
_cell_volume 3036.541661
_symmetry_space_group_name_H-M "C 2 2 21"
_symmetry_group_IT_number 20
_symmetry_cell_setting 'orthorhombic'
loop_
_space_group_symop_operation_xyz
x,y,z
-x,-y,1/2+z
x,-y,-z
-x,y,1/2-z
1/2+x,1/2+y,z
1/2-x,1/2-y,1/2+z
1/2+x,1/2-y,-z
1/2-x,1/2+y,1/2-z
loop_
_atom_site_type_symbol
_atom_site_label
_atom_site_fract_x
_atom_site_fract_y
_atom_site_fract_z
Si Si1 0.697334 0.747619 0.204037
Si Si2 0.536175 0.191849 0.430798
Si Si3 0.876370 0.612555 0.556357
Si Si4 0.661686 0.486657 0.689939
Si Si5 0.060483 0.771367 0.113395
Si Si6 0.730978 0.385197 0.105504
Si Si7 0.902468 0.000000 0.500000
Si Si8 0.951293 0.562690 0.789519
O O1 0.653812 0.814263 0.168923
O O2 0.686380 0.633370 0.300928
O O3 0.729904 0.828458 0.299183
O O4 0.714279 0.704427 0.028616
O O5 0.555553 0.281267 0.306919
O O6 0.485148 0.215493 0.438920
O O7 0.559441 0.172023 0.599274
O O8 0.544829 0.065387 0.358094
O O9 0.851679 0.500000 0.500000
O O10 0.898520 0.693329 0.424268
O O11 0.916889 0.562665 0.651652
O O12 0.648557 0.500000 0.500000
O O13 0.694955 0.580298 0.761661
O O14 0.626028 0.485640 0.835456
O O15 0.068850 0.889063 0.026066
O O16 0.740732 0.500000 0.000000
O O17 0.000000 0.587082 0.750000
#
# Coordination Sequence:
#
# PCOD9318889 Si02
#       8
#     8   8   8   8   8   8   4   8
#     4  11  23  42  68  99 137 180 229 292 348 416
#     4  10  21  37  62  90 122 179 220 268 345 401
#     4  12  22  37  62  99 133 171 218 278 345 402
#     4  11  22  43  72  96 131 186 227 275 361 419
#     4  11  21  40  64  87 124 174 226 274 333 404
#     4  10  22  44  67  98 137 179 233 282 352 429
#     4  12  24  46  66  92 140 180 230 292 340 408
#     4  11  19  35  61  94 136 168 217 270 341 425
#
# _framework density 19.759319000000001
#
# number of rings (size 3 to 8) (size 9 to 14) (size 15 to 20)
#    0.000    1.067    7.333    0.800    0.000    3.733 
#    2.400    5.333    1.467    0.000    0.000    0.000 
#    0.000    0.000    0.000    0.000    0.000    0.000 
#
# Total GULP energy -167082.128962 kJ/mol
# GULP energy per Si atom -5569.404299 kJ/mol
# Density = 1.971435 g / cm^3
# Si number density = 19.759319 Si / 1000 Ang^3
#
#
#
# Elastic Constant Matrix: (Units=GPa)
#
#
# Indices 1 2 3 4 5 6 
#
# 1 71.9490 28.2983 33.5336 0.0000 0.0000 0.0000
# 2 28.2983 76.2822 29.9148 0.0000 0.0000 0.0000
# 3 33.5336 29.9148 97.1373 0.0000 0.0000 0.0000
# 4 0.0000 0.0000 0.0000 21.1116 0.0000 0.0000
# 5 0.0000 0.0000 0.0000 0.0000 21.1352 0.0000
# 6 0.0000 0.0000 0.0000 0.0000 0.0000 77.9475
#
#
#
# Elastic Compliance Matrix: (Units=1/GPa)
#
#
# Indices 1 2 3 4 5 6 
#
# 1 0.017999 -0.004823 -0.004728 0.000000 0.000000 0.000000
# 2 -0.004823 0.016202 -0.003325 0.000000 0.000000 0.000000
# 3 -0.004728 -0.003325 0.012951 0.000000 0.000000 0.000000
# 4 0.000000 0.000000 0.000000 0.047367 0.000000 0.000000
# 5 0.000000 0.000000 0.000000 0.000000 0.047314 0.000000
# 6 0.000000 0.000000 0.000000 0.000000 0.000000 0.012829
#
#
# Mechanical properties :
#
#
# Convention : Reuss Voigt Hill
#
# Bulk Modulus (GPa) = 46.72813 47.65131 47.18972
# Shear Modulus (GPa) = 26.65967 34.28031 30.46999
#
# Velocity S-wave (km/s) = 3.67716 4.16972 3.93116
# Velocity P-wave (km/s) = 6.45977 6.88116 6.67379
#
# Compressibility (1/GPa) = 0.02140039
#
# Stress axis : x y z
#
# Youngs Moduli (GPa) = 55.55728 61.72011 77.21434
#
# Poissons Ratio (x) = 0.29767 0.36511
# Poissons Ratio (y) = 0.26795 0.25672
# Poissons Ratio (z) = 0.26270 0.20520
#
# Static dielectric constant tensor:
#      x y z
#    x 1.679180 0.000000 0.000000 
#    y 0.000000 1.717450 0.000000 
#    z 0.000000 0.000000 1.822030 
# 
# From -- ./inp_files/11571.got.cif
#   From: 2010.05.17/outbox.cif.g08.bks.cpg/sg20_6_cif.got.tgz:11571.got - 2010.06.03 22:52:26.
