data_PCOD9318279
_publ_section_title
;
Structure prediction by ZEFSAII (Michael W. Deem and Ramdas Pophale) SiO2 
 PCOD9318279
Probable space group: C 2 2 21
;
_chemical_formula_sum "Si O2"
_cell_formula_units_Z 60
_cell_length_a 12.088128
_cell_length_b 25.517695
_cell_length_c 8.472700
_cell_angle_alpha 90.000000
_cell_angle_beta 90.000000
_cell_angle_gamma 90.000000
_cell_volume 2613.498899
_symmetry_space_group_name_H-M "C 2 2 21"
_symmetry_group_IT_number 20
_symmetry_cell_setting 'orthorhombic'
loop_
_space_group_symop_operation_xyz
x,y,z
-x,-y,1/2+z
x,-y,-z
-x,y,1/2-z
1/2+x,1/2+y,z
1/2-x,1/2-y,1/2+z
1/2+x,1/2-y,-z
1/2-x,1/2+y,1/2-z
loop_
_atom_site_type_symbol
_atom_site_label
_atom_site_fract_x
_atom_site_fract_y
_atom_site_fract_z
Si Si1 0.447382 0.500000 0.500000
Si Si2 0.228649 0.177605 0.660808
Si Si3 0.430531 0.595443 0.949640
Si Si4 0.968043 0.356168 0.426578
Si Si5 0.318959 0.583401 0.283810
Si Si6 0.906748 0.543891 0.370807
Si Si7 0.040795 0.745709 0.433114
Si Si8 0.130890 0.172975 0.988703
O O1 0.531091 0.462120 0.407154
O O2 0.372792 0.539247 0.396765
O O3 0.173654 0.120410 0.635265
O O4 0.349586 0.172253 0.592590
O O5 0.152691 0.220115 0.570701
O O6 0.212349 0.187743 0.846449
O O7 0.397428 0.593414 0.133691
O O8 0.534663 0.633583 0.924852
O O9 0.956432 0.405739 0.539146
O O10 0.000000 0.372393 0.250000
O O11 0.048207 0.312278 0.498974
O O12 0.202097 0.562803 0.221309
O O13 0.311902 0.638849 0.375976
O O14 0.878097 0.500000 0.500000
O O15 0.000000 0.523856 0.250000
O O16 0.000000 0.743890 0.250000
O O17 0.946046 0.777498 0.529935
#
# Coordination Sequence:
#
# PCOD9318279 Si02
#       8
#     4   8   8   8   8   8   8   8
#     4  10  22  34  66 106 136 166 232 286 354 432
#     4  10  22  43  68 102 150 189 222 293 360 420
#     4  10  20  39  61 100 141 178 223 283 353 424
#     4  12  27  47  74 110 138 188 254 300 360 445
#     4  11  24  42  69 104 135 188 229 294 366 427
#     4  12  30  54  73  95 138 195 253 320 363 437
#     4   9  21  44  69 106 148 189 228 283 361 432
#     4   9  20  39  68 103 147 182 216 275 361 437
#
# _framework density 22.957729
#
# number of rings (size 3 to 8) (size 9 to 14) (size 15 to 20)
#    0.000    1.600    1.333    3.600    3.733   10.667 
#    4.800    0.000    0.000    0.000    0.000    0.000 
#    0.000    0.000    0.000    0.000    0.000    0.000 
#
# Total GULP energy -167795.304971 kJ/mol
# GULP energy per Si atom -5593.176832 kJ/mol
# Density = 2.290548 g / cm^3
# Si number density = 22.957729 Si / 1000 Ang^3
#
#
#
# Elastic Constant Matrix: (Units=GPa)
#
#
# Indices 1 2 3 4 5 6 
#
# 1 89.1432 19.0526 28.8585 0.0000 0.0000 0.0000
# 2 19.0526 107.1960 25.2875 0.0000 0.0000 0.0000
# 3 28.8585 25.2875 89.6704 0.0000 0.0000 0.0000
# 4 0.0000 0.0000 0.0000 15.4918 0.0000 0.0000
# 5 0.0000 0.0000 0.0000 0.0000 39.4940 0.0000
# 6 0.0000 0.0000 0.0000 0.0000 0.0000 24.1844
#
#
#
# Elastic Compliance Matrix: (Units=1/GPa)
#
#
# Indices 1 2 3 4 5 6 
#
# 1 0.012712 -0.001387 -0.003700 0.000000 0.000000 0.000000
# 2 -0.001387 0.010145 -0.002415 0.000000 0.000000 0.000000
# 3 -0.003700 -0.002415 0.013024 0.000000 0.000000 0.000000
# 4 0.000000 0.000000 0.000000 0.064550 0.000000 0.000000
# 5 0.000000 0.000000 0.000000 0.000000 0.025320 0.000000
# 6 0.000000 0.000000 0.000000 0.000000 0.000000 0.041349
#
#
# Mechanical properties :
#
#
# Convention : Reuss Voigt Hill
#
# Bulk Modulus (GPa) = 47.89737 48.04518 47.97128
# Shear Modulus (GPa) = 26.44637 30.02144 28.23390
#
# Velocity S-wave (km/s) = 3.39773 3.62011 3.51069
# Velocity P-wave (km/s) = 6.02506 6.20054 6.11343
#
# Compressibility (1/GPa) = 0.02087797
#
# Stress axis : x y z
#
# Youngs Moduli (GPa) = 78.66523 98.57303 76.78314
#
# Poissons Ratio (x) = 0.13668 0.28411
# Poissons Ratio (y) = 0.10907 0.18540
# Poissons Ratio (z) = 0.29107 0.23802
#
# Static dielectric constant tensor:
#      x y z
#    x 1.850280 0.000000 0.000000 
#    y 0.000000 1.848730 0.000000 
#    z 0.000000 0.000000 1.881400 
# 
# From -- ./inp_files/7557.got.cif
#   From: 2010.05.17/outbox.cif.g08.bks.cpg/sg20_4_cif.got.tgz:7557.got - 2010.06.03 22:52:26.
