data_PCOD9318243
_publ_section_title
;
Structure prediction by ZEFSAII (Michael W. Deem and Ramdas Pophale) SiO2 
 PCOD9318243
Probable space group: C 2 2 21
;
_chemical_formula_sum "Si O2"
_cell_formula_units_Z 48
_cell_length_a 11.788427
_cell_length_b 14.123005
_cell_length_c 14.960831
_cell_angle_alpha 90.000000
_cell_angle_beta 90.000000
_cell_angle_gamma 90.000000
_cell_volume 2490.799033
_symmetry_space_group_name_H-M "C 2 2 21"
_symmetry_group_IT_number 20
_symmetry_cell_setting 'orthorhombic'
loop_
_space_group_symop_operation_xyz
x,y,z
-x,-y,1/2+z
x,-y,-z
-x,y,1/2-z
1/2+x,1/2+y,z
1/2-x,1/2-y,1/2+z
1/2+x,1/2-y,-z
1/2-x,1/2+y,1/2-z
loop_
_atom_site_type_symbol
_atom_site_label
_atom_site_fract_x
_atom_site_fract_y
_atom_site_fract_z
Si Si1 0.087570 0.445670 0.361030
Si Si2 0.890050 0.500000 0.500000
Si Si3 0.127699 0.357230 0.728566
Si Si4 0.203228 0.191488 0.069944
Si Si5 0.254600 0.332202 0.914829
Si Si6 0.776135 0.000000 0.500000
Si Si7 0.976226 0.766611 0.844712
O O1 0.113525 0.529530 0.290437
O O2 0.191786 0.451696 0.429347
O O3 0.076910 0.337922 0.328736
O O4 0.975217 0.471760 0.418881
O O5 0.808358 0.582598 0.465096
O O6 0.191161 0.317046 0.639615
O O7 0.202151 0.332173 0.815081
O O8 0.000000 0.322147 0.750000
O O9 0.161777 0.084637 0.049672
O O10 0.097590 0.246540 0.110615
O O11 0.232614 0.242355 0.977853
O O12 0.389637 0.329746 0.901162
O O13 0.000000 0.813938 0.750000
#
# Coordination Sequence:
#
# PCOD9318243 Si02
#       7
#     8   4   8   8   8   4   8
#     4  10  20  38  67  94 121 166 229 280 327 382
#     4  11  22  39  64  98 126 167 225 284 330 388
#     4  11  23  42  67  98 134 170 227 291 331 393
#     4  11  24  42  67  97 137 178 230 274 346 410
#     4  12  25  41  65 102 138 175 223 283 344 401
#     4   9  20  39  64  90 122 175 219 278 332 398
#     4  12  24  41  63  97 136 176 219 273 338 410
#
# _framework density 19.270924000000001
#
# number of rings (size 3 to 8) (size 9 to 14) (size 15 to 20)
#    0.000    1.000    6.667    0.500    2.333    0.667 
#    0.000    0.000    0.000    0.000    0.000    0.000 
#    0.000    0.000    0.000    0.000    0.000    0.000 
#
# Total GULP energy -133787.095862 kJ/mol
# GULP energy per Si atom -5574.462328 kJ/mol
# Density = 1.922706 g / cm^3
# Si number density = 19.270924 Si / 1000 Ang^3
#
#
#
# Elastic Constant Matrix: (Units=GPa)
#
#
# Indices 1 2 3 4 5 6 
#
# 1 76.1878 22.3922 18.4978 0.0000 0.0000 0.0000
# 2 22.3922 81.6868 31.0969 0.0000 0.0000 0.0000
# 3 18.4978 31.0969 95.7649 0.0000 0.0000 0.0000
# 4 0.0000 0.0000 0.0000 30.9611 0.0000 0.0000
# 5 0.0000 0.0000 0.0000 0.0000 28.5008 0.0000
# 6 0.0000 0.0000 0.0000 0.0000 0.0000 -109.5137
#
#
#
# Elastic Compliance Matrix: (Units=1/GPa)
#
#
# Indices 1 2 3 4 5 6 
#
# 1 0.014521 -0.003324 -0.001726 0.000000 0.000000 0.000000
# 2 -0.003324 0.014729 -0.004141 0.000000 0.000000 0.000000
# 3 -0.001726 -0.004141 0.012120 0.000000 0.000000 0.000000
# 4 0.000000 0.000000 0.000000 0.032299 0.000000 0.000000
# 5 0.000000 0.000000 0.000000 0.000000 0.035087 0.000000
# 6 0.000000 0.000000 0.000000 0.000000 0.000000 -0.009131
#
#
# Mechanical properties :
#
#
# Convention : Reuss Voigt Hill
#
# Bulk Modulus (GPa) = 43.49653 44.17924 43.83789
# Shear Modulus (GPa) = 39.78709 2.09982 20.94346
#
# Velocity S-wave (km/s) = 4.54874 1.04499 3.30023
# Velocity P-wave (km/s) = 7.08576 4.94278 6.10898
#
# Compressibility (1/GPa) = 0.02299034
#
# Stress axis : x y z
#
# Youngs Moduli (GPa) = 68.86441 67.89154 82.50680
#
# Poissons Ratio (x) = 0.22565 0.14238
# Poissons Ratio (y) = 0.22888 0.34166
# Poissons Ratio (z) = 0.11883 0.28113
#
# Static dielectric constant tensor:
#      x y z
#    x 1.678250 0.000000 0.000000 
#    y 0.000000 1.684120 0.000000 
#    z 0.000000 0.000000 1.822050 
# 
# From -- ./inp_files/19983.got.cif
#   From: 2010.05.17/outbox.cif.g08.bks.cpg/sg20_10_cif.got.tgz:19983.got - 2010.06.03 22:52:26.
