data_PCOD9318554
_publ_section_title
;
Structure prediction by ZEFSAII (Michael W. Deem and Ramdas Pophale) SiO2 
 PCOD9318554
Probable space group: C 2 2 21
;
_chemical_formula_sum "Si O2"
_cell_formula_units_Z 40
_cell_length_a 7.679248
_cell_length_b 14.532149
_cell_length_c 16.184755
_cell_angle_alpha 90.000000
_cell_angle_beta 90.000000
_cell_angle_gamma 90.000000
_cell_volume 1806.153533
_symmetry_space_group_name_H-M "C 2 2 21"
_symmetry_group_IT_number 20
_symmetry_cell_setting 'orthorhombic'
loop_
_space_group_symop_operation_xyz
x,y,z
-x,-y,1/2+z
x,-y,-z
-x,y,1/2-z
1/2+x,1/2+y,z
1/2-x,1/2-y,1/2+z
1/2+x,1/2-y,-z
1/2-x,1/2+y,1/2-z
loop_
_atom_site_type_symbol
_atom_site_label
_atom_site_fract_x
_atom_site_fract_y
_atom_site_fract_z
Si Si1 0.878367 0.168270 0.181371
Si Si2 0.284247 0.341873 0.373460
Si Si3 0.801303 0.480756 0.272368
Si Si4 0.570008 0.388641 0.505969
Si Si5 0.424377 0.091756 0.553272
O O1 0.726765 0.240399 0.163480
O O2 0.807407 0.072883 0.216441
O O3 0.000000 0.213876 0.250000
O O4 0.981072 0.144259 0.097266
O O5 0.278038 0.415540 0.298464
O O6 0.444212 0.354710 0.434545
O O7 0.103014 0.358386 0.423853
O O8 0.825497 0.433289 0.361391
O O9 0.000000 0.504620 0.250000
O O10 0.570428 0.500000 0.500000
O O11 0.771246 0.357057 0.495917
O O12 0.467017 0.000000 0.500000
#
# Coordination Sequence:
#
# PCOD9318554 Si02
#       5
#     8   8   8   8   8
#     4  12  25  45  67 105 142 179 242 288 343 424
#     4  11  26  44  70 102 140 185 230 289 350 411
#     4  10  22  45  68  95 139 185 226 290 351 407
#     4  11  23  44  71  99 138 187 227 289 351 408
#     4  10  20  41  71  96 136 180 231 277 344 417
#
# _framework density 22.146512000000001
#
# number of rings (size 3 to 8) (size 9 to 14) (size 15 to 20)
#    0.000    1.200    4.000    3.600    2.800    1.600 
#    7.200    0.000    0.000    0.000    0.000    0.000 
#    0.000    0.000    0.000    0.000    0.000    0.000 
#
# Total GULP energy -111859.512208 kJ/mol
# GULP energy per Si atom -5592.975610 kJ/mol
# Density = 2.209611 g / cm^3
# Si number density = 22.146512 Si / 1000 Ang^3
#
#
#
# Elastic Constant Matrix: (Units=GPa)
#
#
# Indices 1 2 3 4 5 6 
#
# 1 45.9079 17.1428 11.7087 0.0000 0.0000 0.0000
# 2 17.1428 87.5371 27.5133 0.0000 0.0000 0.0000
# 3 11.7087 27.5133 105.4898 0.0000 0.0000 0.0000
# 4 0.0000 0.0000 0.0000 24.9391 0.0000 0.0000
# 5 0.0000 0.0000 0.0000 0.0000 42.0567 0.0000
# 6 0.0000 0.0000 0.0000 0.0000 0.0000 10.5224
#
#
#
# Elastic Compliance Matrix: (Units=1/GPa)
#
#
# Indices 1 2 3 4 5 6 
#
# 1 0.023731 -0.004161 -0.001549 0.000000 0.000000 0.000000
# 2 -0.004161 0.013173 -0.002974 0.000000 0.000000 0.000000
# 3 -0.001549 -0.002974 0.010427 0.000000 0.000000 0.000000
# 4 0.000000 0.000000 0.000000 0.040098 0.000000 0.000000
# 5 0.000000 0.000000 0.000000 0.000000 0.023777 0.000000
# 6 0.000000 0.000000 0.000000 0.000000 0.000000 0.095035
#
#
# Mechanical properties :
#
#
# Convention : Reuss Voigt Hill
#
# Bulk Modulus (GPa) = 33.37239 39.07380 36.22310
# Shear Modulus (GPa) = 21.40438 27.67500 24.53969
#
# Velocity S-wave (km/s) = 3.11221 3.53885 3.33237
# Velocity P-wave (km/s) = 5.29303 5.86341 5.58550
#
# Compressibility (1/GPa) = 0.02996489
#
# Stress axis : x y z
#
# Youngs Moduli (GPa) = 42.13827 75.91140 95.90339
#
# Poissons Ratio (x) = 0.31584 0.14854
# Poissons Ratio (y) = 0.17532 0.28521
# Poissons Ratio (z) = 0.06527 0.22576
#
# Static dielectric constant tensor:
#      x y z
#    x 1.813550 0.000000 0.000000 
#    y 0.000000 1.811420 0.000000 
#    z 0.000000 0.000000 1.866630 
# 
# From -- ./inp_files/18512.got.cif
#   From: 2010.05.17/outbox.cif.g08.bks.cpg/sg20_10_cif.got.tgz:18512.got - 2010.06.03 22:52:26.
