data_PCOD9318264
_publ_section_title
;
Structure prediction by ZEFSAII (Michael W. Deem and Ramdas Pophale) SiO2 
 PCOD9318264
Probable space group: C 2 2 21
;
_chemical_formula_sum "Si O2"
_cell_formula_units_Z 44
_cell_length_a 8.950483
_cell_length_b 28.362129
_cell_length_c 8.504834
_cell_angle_alpha 90.000000
_cell_angle_beta 90.000000
_cell_angle_gamma 90.000000
_cell_volume 2158.992538
_symmetry_space_group_name_H-M "C 2 2 21"
_symmetry_group_IT_number 20
_symmetry_cell_setting 'orthorhombic'
loop_
_space_group_symop_operation_xyz
x,y,z
-x,-y,1/2+z
x,-y,-z
-x,y,1/2-z
1/2+x,1/2+y,z
1/2-x,1/2-y,1/2+z
1/2+x,1/2-y,-z
1/2-x,1/2+y,1/2-z
loop_
_atom_site_type_symbol
_atom_site_label
_atom_site_fract_x
_atom_site_fract_y
_atom_site_fract_z
Si Si1 0.000000 0.001657 0.750000
Si Si2 0.452047 0.268970 0.921799
Si Si3 0.596547 0.831952 0.527029
Si Si4 0.451493 0.429612 0.999598
Si Si5 0.221938 0.354221 0.869374
Si Si6 0.380733 0.339503 0.384180
O O1 0.100534 0.037741 0.646630
O O2 0.957345 0.963996 0.616200
O O3 0.500000 0.251474 0.750000
O O4 0.318765 0.307214 0.907942
O O5 0.420735 0.224686 0.031790
O O6 0.588528 0.299553 0.987233
O O7 0.675571 0.851359 0.685983
O O8 0.430283 0.852687 0.530857
O O9 0.702455 0.841695 0.376275
O O10 0.321595 0.399829 0.913710
O O11 0.562436 0.390030 0.061362
O O12 0.500000 0.326335 0.250000
#
# Coordination Sequence:
#
# PCOD9318264 Si02
#       6
#     4   8   8   8   8   8
#     4  10  20  38  74  92 118 156 222 268 338 432
#     4  11  23  38  57  88 126 180 236 274 311 390
#     4  11  23  38  63  91 132 189 219 278 340 386
#     4  10  21  41  65  99 121 164 214 276 341 409
#     4  10  23  40  61  93 135 171 225 287 343 392
#     4  11  23  38  62  91 131 170 224 273 321 400
#
# _framework density 20.379874999999998
#
# number of rings (size 3 to 8) (size 9 to 14) (size 15 to 20)
#    0.000    1.455    2.727    2.182    7.636    1.455 
#    0.000    0.000    0.000   15.273    0.000    0.000 
#    0.000    0.000    0.000    0.000    0.000    0.000 
#
# Total GULP energy -122489.996482 kJ/mol
# GULP energy per Si atom -5567.727113 kJ/mol
# Density = 2.033349 g / cm^3
# Si number density = 20.379875 Si / 1000 Ang^3
#
#
#
# Elastic Constant Matrix: (Units=GPa)
#
#
# Indices 1 2 3 4 5 6 
#
# 1 102.2315 23.9929 22.7318 0.0000 0.0000 0.0000
# 2 23.9929 107.0622 28.6354 0.0000 0.0000 0.0000
# 3 22.7318 28.6354 71.0741 0.0000 0.0000 0.0000
# 4 0.0000 0.0000 0.0000 44.4847 0.0000 0.0000
# 5 0.0000 0.0000 0.0000 0.0000 31.9420 0.0000
# 6 0.0000 0.0000 0.0000 0.0000 0.0000 0.3408
#
#
#
# Elastic Compliance Matrix: (Units=1/GPa)
#
#
# Indices 1 2 3 4 5 6 
#
# 1 0.010792 -0.001676 -0.002777 0.000000 0.000000 0.000000
# 2 -0.001676 0.010729 -0.003787 0.000000 0.000000 0.000000
# 3 -0.002777 -0.003787 0.016483 0.000000 0.000000 0.000000
# 4 0.000000 0.000000 0.000000 0.022480 0.000000 0.000000
# 5 0.000000 0.000000 0.000000 0.000000 0.031307 0.000000
# 6 0.000000 0.000000 0.000000 0.000000 0.000000 2.934476
#
#
# Mechanical properties :
#
#
# Convention : Reuss Voigt Hill
#
# Bulk Modulus (GPa) = 46.45430 47.89865 47.17647
# Shear Modulus (GPa) = 1.63939 29.02066 15.33002
#
# Velocity S-wave (km/s) = 0.89786 3.77767 2.74563
# Velocity P-wave (km/s) = 4.89066 6.52546 5.76629
#
# Compressibility (1/GPa) = 0.02152653
#
# Stress axis : x y z
#
# Youngs Moduli (GPa) = 92.65744 93.20776 60.66706
#
# Poissons Ratio (x) = 0.15622 0.16844
# Poissons Ratio (y) = 0.15529 0.22972
# Poissons Ratio (z) = 0.25727 0.35293
#
# Static dielectric constant tensor:
#      x y z
#    x 1.750730 0.000000 0.000000 
#    y 0.000000 1.690940 0.000000 
#    z 0.000000 0.000000 1.872740 
# 
# From -- ./inp_files/6390.got.cif
#   From: 2010.05.17/outbox.cif.g08.bks.cpg/sg20_4_cif.got.tgz:6390.got - 2010.06.03 22:52:26.
