data_PCOD9318834
_publ_section_title
;
Structure prediction by ZEFSAII (Michael W. Deem and Ramdas Pophale) SiO2 
 PCOD9318834
Probable space group: C 2 2 21
;
_chemical_formula_sum "Si O2"
_cell_formula_units_Z 36
_cell_length_a 5.070764
_cell_length_b 22.155096
_cell_length_c 13.515337
_cell_angle_alpha 90.000000
_cell_angle_beta 90.000000
_cell_angle_gamma 90.000000
_cell_volume 1518.357062
_symmetry_space_group_name_H-M "C 2 2 21"
_symmetry_group_IT_number 20
_symmetry_cell_setting 'orthorhombic'
loop_
_space_group_symop_operation_xyz
x,y,z
-x,-y,1/2+z
x,-y,-z
-x,y,1/2-z
1/2+x,1/2+y,z
1/2-x,1/2-y,1/2+z
1/2+x,1/2-y,-z
1/2-x,1/2+y,1/2-z
loop_
_atom_site_type_symbol
_atom_site_label
_atom_site_fract_x
_atom_site_fract_y
_atom_site_fract_z
Si Si1 0.764875 0.718819 0.958037
Si Si2 0.000000 0.677534 0.750000
Si Si3 0.976901 0.900093 0.956039
Si Si4 0.462562 0.960481 0.900717
Si Si5 0.300169 0.434957 0.164738
O O1 0.840070 0.711457 0.839861
O O2 0.539855 0.768578 0.983949
O O3 0.617851 0.660811 0.005906
O O4 0.817706 0.631410 0.686953
O O5 0.182434 0.930727 0.881398
O O6 0.682508 0.907647 0.913351
O O7 0.944335 0.934911 0.059914
O O8 0.588955 0.012864 0.837792
O O9 0.428996 0.000000 0.000000
O O10 0.500000 0.447322 0.250000
#
# Coordination Sequence:
#
# PCOD9318834 Si02
#       5
#     8   4   8   8   8
#     4  12  26  45  74 102 137 192 248 306 369 409
#     4  12  26  44  74 108 142 176 262 314 350 444
#     4  11  22  42  63  98 137 179 225 289 348 426
#     4  10  21  36  63  95 141 175 206 268 357 429
#     4  11  23  38  72 107 138 173 234 297 358 422
#
# _framework density 23.709838999999999
#
# number of rings (size 3 to 8) (size 9 to 14) (size 15 to 20)
#    0.000    0.889    2.222    7.333    3.111    0.000 
#    0.000    0.000   14.667    0.000    0.000    0.000 
#    0.000    0.000    0.000    0.000    0.000    0.000 
#
# Total GULP energy -100413.513870 kJ/mol
# GULP energy per Si atom -5578.528548 kJ/mol
# Density = 2.365587 g / cm^3
# Si number density = 23.709839 Si / 1000 Ang^3
#
#
#
# Elastic Constant Matrix: (Units=GPa)
#
#
# Indices 1 2 3 4 5 6 
#
# 1 149.6631 37.7500 46.0820 0.0000 0.0000 0.0000
# 2 37.7500 86.4465 41.5445 0.0000 0.0000 0.0000
# 3 46.0820 41.5445 71.5901 0.0000 0.0000 0.0000
# 4 0.0000 0.0000 0.0000 42.7269 0.0000 0.0000
# 5 0.0000 0.0000 0.0000 0.0000 45.1161 0.0000
# 6 0.0000 0.0000 0.0000 0.0000 0.0000 66.6013
#
#
#
# Elastic Compliance Matrix: (Units=1/GPa)
#
#
# Indices 1 2 3 4 5 6 
#
# 1 0.008471 -0.001496 -0.004584 0.000000 0.000000 0.000000
# 2 -0.001496 0.016306 -0.008500 0.000000 0.000000 0.000000
# 3 -0.004584 -0.008500 0.021852 0.000000 0.000000 0.000000
# 4 0.000000 0.000000 0.000000 0.023404 0.000000 0.000000
# 5 0.000000 0.000000 0.000000 0.000000 0.022165 0.000000
# 6 0.000000 0.000000 0.000000 0.000000 0.000000 0.015015
#
#
# Mechanical properties :
#
#
# Convention : Reuss Voigt Hill
#
# Bulk Modulus (GPa) = 57.24585 62.05032 59.64808
# Shear Modulus (GPa) = 35.16306 43.04373 39.10339
#
# Velocity S-wave (km/s) = 3.85523 4.26542 4.06550
# Velocity P-wave (km/s) = 6.63429 7.10534 6.87385
#
# Compressibility (1/GPa) = 0.01746851
#
# Stress axis : x y z
#
# Youngs Moduli (GPa) = 118.05658 61.32792 45.76289
#
# Poissons Ratio (x) = 0.09173 0.20979
# Poissons Ratio (y) = 0.17659 0.38897
# Poissons Ratio (z) = 0.54122 0.52126
#
# Static dielectric constant tensor:
#      x y z
#    x 1.940400 0.000000 0.000000 
#    y 0.000000 2.036990 0.000000 
#    z 0.000000 0.000000 1.898330 
# 
# From -- ./inp_files/17540.got.cif
#   From: 2010.05.17/outbox.cif.g08.bks.cpg/sg20_9_cif.got.tgz:17540.got - 2010.06.03 22:52:26.
