data_PCOD9318094
_publ_section_title
;
Structure prediction by ZEFSAII (Michael W. Deem and Ramdas Pophale) SiO2 
 PCOD9318094
Probable space group: C 2 2 21
;
_chemical_formula_sum "Si O2"
_cell_formula_units_Z 44
_cell_length_a 17.997109
_cell_length_b 14.391140
_cell_length_c 9.432361
_cell_angle_alpha 90.000000
_cell_angle_beta 90.000000
_cell_angle_gamma 90.000000
_cell_volume 2442.971267
_symmetry_space_group_name_H-M "C 2 2 21"
_symmetry_group_IT_number 20
_symmetry_cell_setting 'orthorhombic'
loop_
_space_group_symop_operation_xyz
x,y,z
-x,-y,1/2+z
x,-y,-z
-x,y,1/2-z
1/2+x,1/2+y,z
1/2-x,1/2-y,1/2+z
1/2+x,1/2-y,-z
1/2-x,1/2+y,1/2-z
loop_
_atom_site_type_symbol
_atom_site_label
_atom_site_fract_x
_atom_site_fract_y
_atom_site_fract_z
Si Si1 0.098757 0.109627 0.476136
Si Si2 0.955891 0.160788 0.602219
Si Si3 0.227249 0.930132 0.737620
Si Si4 0.185559 0.277622 0.905509
Si Si5 0.769068 0.145010 0.826717
Si Si6 0.648393 0.500000 0.000000
O O1 0.154973 0.111114 0.344199
O O2 0.148783 0.150512 0.603746
O O3 0.018877 0.157343 0.480043
O O4 0.084532 0.000000 0.500000
O O5 0.899432 0.246041 0.589587
O O6 0.000000 0.159129 0.750000
O O7 0.904873 0.068627 0.587850
O O8 0.295170 0.864524 0.696354
O O9 0.244177 0.034684 0.684055
O O10 0.200694 0.940332 0.897681
O O11 0.229452 0.194265 0.825213
O O12 0.215697 0.304949 0.060389
#
# Coordination Sequence:
#
# PCOD9318094 Si02
#       6
#     8   8   8   8   8   4
#     4   9  17  34  55  77 118 143 175 242 305 348
#     4  12  21  33  55  89 117 149 191 241 305 363
#     4  10  22  38  57  86 119 158 197 242 293 350
#     4  11  21  35  59  85 115 156 198 237 289 357
#     4  10  20  38  56  87 114 154 199 240 292 355
#     4  12  22  34  58  88 122 158 188 238 310 364
#
# _framework density 18.010854999999999
#
# number of rings (size 3 to 8) (size 9 to 14) (size 15 to 20)
#    0.000    1.455    4.545    3.818    0.000    0.000 
#    0.000    0.000    0.000    0.000   23.636    0.000 
#    0.000    0.000    0.000    0.000    0.000    0.000 
#
# Total GULP energy -122706.749869 kJ/mol
# GULP energy per Si atom -5577.579540 kJ/mol
# Density = 1.796986 g / cm^3
# Si number density = 18.010855 Si / 1000 Ang^3
#
#
#
# Elastic Constant Matrix: (Units=GPa)
#
#
# Indices 1 2 3 4 5 6 
#
# 1 104.9692 59.3882 42.1416 0.0000 0.0000 0.0000
# 2 59.3882 87.2889 27.3568 0.0000 0.0000 0.0000
# 3 42.1416 27.3568 86.7517 0.0000 0.0000 0.0000
# 4 0.0000 0.0000 0.0000 32.2296 0.0000 0.0000
# 5 0.0000 0.0000 0.0000 0.0000 26.9245 0.0000
# 6 0.0000 0.0000 0.0000 0.0000 0.0000 44.1515
#
#
#
# Elastic Compliance Matrix: (Units=1/GPa)
#
#
# Indices 1 2 3 4 5 6 
#
# 1 0.017397 -0.010195 -0.005236 0.000000 0.000000 0.000000
# 2 -0.010195 0.018687 -0.000940 0.000000 0.000000 0.000000
# 3 -0.005236 -0.000940 0.014367 0.000000 0.000000 0.000000
# 4 0.000000 0.000000 0.000000 0.031027 0.000000 0.000000
# 5 0.000000 0.000000 0.000000 0.000000 0.037141 0.000000
# 6 0.000000 0.000000 0.000000 0.000000 0.000000 0.022649
#
#
# Mechanical properties :
#
#
# Convention : Reuss Voigt Hill
#
# Bulk Modulus (GPa) = 56.47064 59.64256 58.05660
# Shear Modulus (GPa) = 27.79099 30.66934 29.23017
#
# Velocity S-wave (km/s) = 3.93238 4.13101 4.03292
# Velocity P-wave (km/s) = 7.21387 7.47933 7.34780
#
# Compressibility (1/GPa) = 0.01770832
#
# Stress axis : x y z
#
# Youngs Moduli (GPa) = 57.48211 53.51209 69.60324
#
# Poissons Ratio (x) = 0.54556 0.36443
# Poissons Ratio (y) = 0.58604 0.06546
# Poissons Ratio (z) = 0.30097 0.05033
#
# Static dielectric constant tensor:
#      x y z
#    x 1.613340 0.000000 0.000000 
#    y 0.000000 1.643450 0.000000 
#    z 0.000000 0.000000 1.691260 
# 
# From -- ./inp_files/9263.got.cif
#   From: 2010.05.17/outbox.cif.g08.bks.cpg/sg20_5_cif.got.tgz:9263.got - 2010.06.03 22:52:26.
