data_PCOD9318115
_publ_section_title
;
Structure prediction by ZEFSAII (Michael W. Deem and Ramdas Pophale) SiO2 
 PCOD9318115
Probable space group: C 2 2 21
;
_chemical_formula_sum "Si O2"
_cell_formula_units_Z 64
_cell_length_a 20.048172
_cell_length_b 17.860199
_cell_length_c 8.685409
_cell_angle_alpha 90.000000
_cell_angle_beta 90.000000
_cell_angle_gamma 90.000000
_cell_volume 3109.935254
_symmetry_space_group_name_H-M "C 2 2 21"
_symmetry_group_IT_number 20
_symmetry_cell_setting 'orthorhombic'
loop_
_space_group_symop_operation_xyz
x,y,z
-x,-y,1/2+z
x,-y,-z
-x,y,1/2-z
1/2+x,1/2+y,z
1/2-x,1/2-y,1/2+z
1/2+x,1/2-y,-z
1/2-x,1/2+y,1/2-z
loop_
_atom_site_type_symbol
_atom_site_label
_atom_site_fract_x
_atom_site_fract_y
_atom_site_fract_z
Si Si1 0.577679 0.215308 0.054984
Si Si2 0.959024 0.198731 0.110673
Si Si3 0.814398 0.515612 0.324610
Si Si4 0.368341 0.296659 0.160052
Si Si5 0.337763 0.764005 0.280233
Si Si6 0.272420 0.840054 0.835620
Si Si7 0.454044 0.062014 0.608767
Si Si8 0.759928 0.890535 0.331343
O O1 0.586225 0.246076 0.226217
O O2 0.515787 0.258980 0.982524
O O3 0.644776 0.237271 0.961204
O O4 0.565830 0.129618 0.004650
O O5 0.908097 0.255424 0.195623
O O6 0.000000 0.157869 0.250000
O O7 0.910526 0.166353 0.978008
O O8 0.792791 0.500000 0.500000
O O9 0.813125 0.601519 0.268769
O O10 0.887960 0.478208 0.321703
O O11 0.761491 0.472739 0.218606
O O12 0.315197 0.232351 0.109348
O O13 0.327394 0.358399 0.256382
O O14 0.289426 0.694957 0.242980
O O15 0.299054 0.838456 0.238115
O O16 0.244305 0.879843 0.986818
O O17 0.500000 0.086399 0.750000
O O18 0.488411 0.000000 0.500000
#
# Coordination Sequence:
#
# PCOD9318115 Si02
#       8
#     8   8   8   8   8   8   8   8
#     4  11  21  39  60  87 126 160 211 262 307 369
#     4  10  22  37  60  88 123 158 199 257 309 373
#     4  11  25  40  59  88 124 167 216 259 314 382
#     4  11  22  37  63  92 124 161 210 264 317 372
#     4  10  20  38  59  89 119 157 209 258 318 361
#     4  11  23  37  62  88 124 168 208 265 316 375
#     4  11  24  40  58  84 128 179 216 256 299 373
#     4  11  22  38  60  87 125 163 203 262 318 375
#
# _framework density 20.579208000000001
#
# number of rings (size 3 to 8) (size 9 to 14) (size 15 to 20)
#    0.000    1.250    3.750    3.375    1.750    3.000 
#    0.000    0.000    0.000    0.000    0.000    8.750 
#    0.000    0.000    0.000    0.000    0.000    0.000 
#
# Total GULP energy -178474.457690 kJ/mol
# GULP energy per Si atom -5577.326803 kJ/mol
# Density = 2.053237 g / cm^3
# Si number density = 20.579208 Si / 1000 Ang^3
#
#
#
# Elastic Constant Matrix: (Units=GPa)
#
#
# Indices 1 2 3 4 5 6 
#
# 1 66.6537 8.7791 32.8019 0.0000 0.0000 0.0000
# 2 8.7791 38.9738 11.5619 0.0000 0.0000 0.0000
# 3 32.8019 11.5619 96.2834 0.0000 0.0000 0.0000
# 4 0.0000 0.0000 0.0000 27.6636 0.0000 0.0000
# 5 0.0000 0.0000 0.0000 0.0000 49.9039 0.0000
# 6 0.0000 0.0000 0.0000 0.0000 0.0000 17.3023
#
#
#
# Elastic Compliance Matrix: (Units=1/GPa)
#
#
# Indices 1 2 3 4 5 6 
#
# 1 0.018230 -0.002348 -0.005929 0.000000 0.000000 0.000000
# 2 -0.002348 0.026908 -0.002431 0.000000 0.000000 0.000000
# 3 -0.005929 -0.002431 0.012698 0.000000 0.000000 0.000000
# 4 0.000000 0.000000 0.000000 0.036149 0.000000 0.000000
# 5 0.000000 0.000000 0.000000 0.000000 0.020039 0.000000
# 6 0.000000 0.000000 0.000000 0.000000 0.000000 0.057796
#
#
# Mechanical properties :
#
#
# Convention : Reuss Voigt Hill
#
# Bulk Modulus (GPa) = 27.45700 34.24409 30.85054
# Shear Modulus (GPa) = 24.34580 28.89182 26.61881
#
# Velocity S-wave (km/s) = 3.44325 3.75097 3.60040
# Velocity P-wave (km/s) = 5.40176 5.95281 5.68397
#
# Compressibility (1/GPa) = 0.03642058
#
# Stress axis : x y z
#
# Youngs Moduli (GPa) = 54.85542 37.16314 78.75411
#
# Poissons Ratio (x) = 0.08724 0.46690
# Poissons Ratio (y) = 0.12878 0.19149
# Poissons Ratio (z) = 0.32522 0.09036
#
# Static dielectric constant tensor:
#      x y z
#    x 1.749270 0.000000 0.000000 
#    y 0.000000 1.715240 0.000000 
#    z 0.000000 0.000000 1.818460 
# 
# From -- ./inp_files/10363.got.cif
#   From: 2010.05.17/outbox.cif.g08.bks.cpg/sg20_6_cif.got.tgz:10363.got - 2010.06.03 22:52:26.
