data_PCOD9318547
_publ_section_title
;
Structure prediction by ZEFSAII (Michael W. Deem and Ramdas Pophale) SiO2 
 PCOD9318547
Probable space group: C 2 2 21
;
_chemical_formula_sum "Si O2"
_cell_formula_units_Z 48
_cell_length_a 28.193000
_cell_length_b 8.212507
_cell_length_c 9.021052
_cell_angle_alpha 90.000000
_cell_angle_beta 90.000000
_cell_angle_gamma 90.000000
_cell_volume 2088.691168
_symmetry_space_group_name_H-M "C 2 2 21"
_symmetry_group_IT_number 20
_symmetry_cell_setting 'orthorhombic'
loop_
_space_group_symop_operation_xyz
x,y,z
-x,-y,1/2+z
x,-y,-z
-x,y,1/2-z
1/2+x,1/2+y,z
1/2-x,1/2-y,1/2+z
1/2+x,1/2-y,-z
1/2-x,1/2+y,1/2-z
loop_
_atom_site_type_symbol
_atom_site_label
_atom_site_fract_x
_atom_site_fract_y
_atom_site_fract_z
Si Si1 0.451724 0.865977 0.800559
Si Si2 0.639265 0.926734 0.336400
Si Si3 0.429607 0.330405 0.911486
Si Si4 0.917082 0.957720 0.330284
Si Si5 0.184387 0.935393 0.334333
Si Si6 0.230829 0.425543 0.663130
O O1 0.500000 0.950122 0.750000
O O2 0.446287 0.706060 0.699085
O O3 0.405889 0.977337 0.772964
O O4 0.451026 0.800584 0.972218
O O5 0.621208 0.747016 0.367649
O O6 0.646094 0.000000 0.500000
O O7 0.689179 0.963084 0.261917
O O8 0.444909 0.393708 0.750293
O O9 0.429049 0.500000 0.000000
O O10 0.866010 0.924791 0.251097
O O11 0.910356 0.000000 0.500000
O O12 0.208934 0.755803 0.338953
O O13 0.179226 0.000000 0.500000
O O14 0.220825 0.054847 0.251682
O O15 0.240633 0.500000 0.500000
#
# Coordination Sequence:
#
# PCOD9318547 Si02
#       6
#     8   8   8   8   8   8
#     4  10  20  41  68  97 131 176 224 282 338 408
#     4   9  19  39  65  96 131 172 222 272 335 411
#     4   9  20  39  68  96 126 176 217 272 341 398
#     4  11  24  41  64  96 138 177 228 282 334 408
#     4  12  25  43  67  97 137 179 226 283 349 409
#     4  11  24  41  67 100 133 175 228 276 339 417
#
# _framework density 22.980899999999998
#
# number of rings (size 3 to 8) (size 9 to 14) (size 15 to 20)
#    0.000    1.667    1.667    3.000    9.333    2.000 
#    0.000    9.167    0.000    0.000    0.000    0.000 
#    0.000    0.000    0.000    0.000    0.000    0.000 
#
# Total GULP energy -133959.166040 kJ/mol
# GULP energy per Si atom -5581.631918 kJ/mol
# Density = 2.292859 g / cm^3
# Si number density = 22.980900 Si / 1000 Ang^3
#
#
#
# Elastic Constant Matrix: (Units=GPa)
#
#
# Indices 1 2 3 4 5 6 
#
# 1 127.2296 -1.6905 33.5239 0.0000 0.0000 0.0000
# 2 -1.6905 85.1769 16.4565 0.0000 0.0000 0.0000
# 3 33.5239 16.4565 123.3263 0.0000 0.0000 0.0000
# 4 0.0000 0.0000 0.0000 14.0853 0.0000 0.0000
# 5 0.0000 0.0000 0.0000 0.0000 24.7607 0.0000
# 6 0.0000 0.0000 0.0000 0.0000 0.0000 11.7278
#
#
#
# Elastic Compliance Matrix: (Units=1/GPa)
#
#
# Indices 1 2 3 4 5 6 
#
# 1 0.008499 0.000631 -0.002395 0.000000 0.000000 0.000000
# 2 0.000631 0.012098 -0.001786 0.000000 0.000000 0.000000
# 3 -0.002395 -0.001786 0.008998 0.000000 0.000000 0.000000
# 4 0.000000 0.000000 0.000000 0.070996 0.000000 0.000000
# 5 0.000000 0.000000 0.000000 0.000000 0.040387 0.000000
# 6 0.000000 0.000000 0.000000 0.000000 0.000000 0.085267
#
#
# Mechanical properties :
#
#
# Convention : Reuss Voigt Hill
#
# Bulk Modulus (GPa) = 44.45149 48.03473 46.24311
# Shear Modulus (GPa) = 20.76051 29.27762 25.01907
#
# Velocity S-wave (km/s) = 3.00889 3.57318 3.30311
# Velocity P-wave (km/s) = 5.60857 6.16205 5.89181
#
# Compressibility (1/GPa) = 0.02249643
#
# Stress axis : x y z
#
# Youngs Moduli (GPa) = 117.65889 82.65928 111.13830
#
# Poissons Ratio (x) = -0.05218 0.26613
# Poissons Ratio (y) = -0.07428 0.19849
# Poissons Ratio (z) = 0.28174 0.14762
#
# Static dielectric constant tensor:
#      x y z
#    x 1.921470 0.000000 0.000000 
#    y 0.000000 1.956030 0.000000 
#    z 0.000000 0.000000 1.930160 
# 
# From -- ./inp_files/6554.got.cif
#   From: 2010.05.17/outbox.cif.g08.bks.cpg/sg20_4_cif.got.tgz:6554.got - 2010.06.03 22:52:26.
