data_PCOD9318425
_publ_section_title
;
Structure prediction by ZEFSAII (Michael W. Deem and Ramdas Pophale) SiO2 
 PCOD9318425
Probable space group: C 2 2 21
;
_chemical_formula_sum "Si O2"
_cell_formula_units_Z 40
_cell_length_a 11.163017
_cell_length_b 12.566174
_cell_length_c 12.482654
_cell_angle_alpha 90.000000
_cell_angle_beta 90.000000
_cell_angle_gamma 90.000000
_cell_volume 1751.021940
_symmetry_space_group_name_H-M "C 2 2 21"
_symmetry_group_IT_number 20
_symmetry_cell_setting 'orthorhombic'
loop_
_space_group_symop_operation_xyz
x,y,z
-x,-y,1/2+z
x,-y,-z
-x,y,1/2-z
1/2+x,1/2+y,z
1/2-x,1/2-y,1/2+z
1/2+x,1/2-y,-z
1/2-x,1/2+y,1/2-z
loop_
_atom_site_type_symbol
_atom_site_label
_atom_site_fract_x
_atom_site_fract_y
_atom_site_fract_z
Si Si1 0.099123 0.787866 0.845115
Si Si2 0.875887 0.873536 0.238365
Si Si3 0.712851 0.828253 0.831839
Si Si4 0.123494 0.447954 0.185950
Si Si5 0.587278 0.372759 0.503629
O O1 0.216546 0.831039 0.783495
O O2 0.115678 0.663615 0.877570
O O3 0.000000 0.787888 0.750000
O O4 0.042100 0.851047 0.943691
O O5 0.871039 0.773463 0.317230
O O6 0.748628 0.930798 0.250883
O O7 0.000000 0.939210 0.250000
O O8 0.887717 0.836035 0.116025
O O9 0.816643 0.816816 0.919266
O O10 0.644044 0.935871 0.862152
O O11 0.000000 0.453695 0.250000
O O12 0.608163 0.500000 0.500000
#
# Coordination Sequence:
#
# PCOD9318425 Si02
#       5
#     8   8   8   8   8
#     4   8  19  37  64  92 131 174 223 275 332 406
#     4  11  25  41  67 102 135 177 235 288 338 421
#     4  10  21  41  66  94 138 181 224 288 355 403
#     4  10  20  40  65  93 133 182 214 280 354 399
#     4  11  22  40  70 101 136 188 235 283 344 418
#
# _framework density 22.843802
#
# number of rings (size 3 to 8) (size 9 to 14) (size 15 to 20)
#    0.000    2.000    2.000    1.800    2.800    3.200 
#    0.000    0.000    0.000    0.000    0.000    0.000 
#    0.000    0.000    0.000    0.000    0.000    0.000 
#
# Total GULP energy -111490.294612 kJ/mol
# GULP energy per Si atom -5574.514731 kJ/mol
# Density = 2.279181 g / cm^3
# Si number density = 22.843802 Si / 1000 Ang^3
#
#
#
# Elastic Constant Matrix: (Units=GPa)
#
#
# Indices 1 2 3 4 5 6 
#
# 1 151.7212 0.2858 22.8055 0.0000 0.0000 0.0000
# 2 0.2858 81.2927 4.5044 0.0000 0.0000 0.0000
# 3 22.8055 4.5044 85.2319 0.0000 0.0000 0.0000
# 4 0.0000 0.0000 0.0000 14.7890 0.0000 0.0000
# 5 0.0000 0.0000 0.0000 0.0000 30.6647 0.0000
# 6 0.0000 0.0000 0.0000 0.0000 0.0000 20.3791
#
#
#
# Elastic Compliance Matrix: (Units=1/GPa)
#
#
# Indices 1 2 3 4 5 6 
#
# 1 0.006868 0.000078 -0.001842 0.000000 0.000000 0.000000
# 2 0.000078 0.012338 -0.000673 0.000000 0.000000 0.000000
# 3 -0.001842 -0.000673 0.012261 0.000000 0.000000 0.000000
# 4 0.000000 0.000000 0.000000 0.067618 0.000000 0.000000
# 5 0.000000 0.000000 0.000000 0.000000 0.032611 0.000000
# 6 0.000000 0.000000 0.000000 0.000000 0.000000 0.049070
#
#
# Mechanical properties :
#
#
# Convention : Reuss Voigt Hill
#
# Bulk Modulus (GPa) = 37.60306 41.49302 39.54804
# Shear Modulus (GPa) = 25.70647 32.54322 29.12485
#
# Velocity S-wave (km/s) = 3.35821 3.77848 3.57453
# Velocity P-wave (km/s) = 5.61547 6.10238 5.86398
#
# Compressibility (1/GPa) = 0.02659358
#
# Stress axis : x y z
#
# Youngs Moduli (GPa) = 145.60872 81.04882 81.55913
#
# Poissons Ratio (x) = -0.00631 0.15021
# Poissons Ratio (y) = -0.01134 0.05488
# Poissons Ratio (z) = 0.26817 0.05454
#
# Static dielectric constant tensor:
#      x y z
#    x 1.958530 0.000000 0.000000 
#    y 0.000000 1.877870 0.000000 
#    z 0.000000 0.000000 1.863180 
# 
# From -- ./inp_files/13852.got.cif
#   From: 2010.05.17/outbox.cif.g08.bks.cpg/sg20_7_cif.got.tgz:13852.got - 2010.06.03 22:52:26.
