data_PCOD9318929
_publ_section_title
;
Structure prediction by ZEFSAII (Michael W. Deem and Ramdas Pophale) SiO2 
 PCOD9318929
Probable space group: C 2 2 21
;
_chemical_formula_sum "Si O2"
_cell_formula_units_Z 28
_cell_length_a 12.222226
_cell_length_b 7.263787
_cell_length_c 14.955542
_cell_angle_alpha 90.000000
_cell_angle_beta 90.000000
_cell_angle_gamma 90.000000
_cell_volume 1327.747729
_symmetry_space_group_name_H-M "C 2 2 21"
_symmetry_group_IT_number 20
_symmetry_cell_setting 'orthorhombic'
loop_
_space_group_symop_operation_xyz
x,y,z
-x,-y,1/2+z
x,-y,-z
-x,y,1/2-z
1/2+x,1/2+y,z
1/2-x,1/2-y,1/2+z
1/2+x,1/2-y,-z
1/2-x,1/2+y,1/2-z
loop_
_atom_site_type_symbol
_atom_site_label
_atom_site_fract_x
_atom_site_fract_y
_atom_site_fract_z
Si Si1 0.289803 0.253123 0.619914
Si Si2 0.618223 0.501534 0.725301
Si Si3 0.476946 0.881273 0.152454
Si Si4 0.822683 0.500000 0.000000
O O1 0.319892 0.425060 0.686185
O O2 0.404237 0.148598 0.610868
O O3 0.251121 0.325803 0.524123
O O4 0.198767 0.129187 0.668869
O O5 0.500000 0.588402 0.750000
O O6 0.581423 0.315841 0.672551
O O7 0.500000 0.964728 0.250000
O O8 0.398567 0.985465 0.086317
#
# Coordination Sequence:
#
# PCOD9318929 Si02
#       4
#     8   8   8   4
#     4  10  21  38  59  84 116 151 192 245 294 343
#     4   9  20  39  62  83 112 152 195 241 297 351
#     4   9  22  41  58  86 120 153 197 242 290 352
#     4  12  24  36  60  90 118 156 202 240 288 354
#
# _framework density 21.088343999999999
#
# number of rings (size 3 to 8) (size 9 to 14) (size 15 to 20)
#    0.000    2.857    0.000    3.429    0.000   11.429 
#    0.000    0.000    0.000    0.000    0.000    0.000 
#    0.000    0.000    0.000    0.000    0.000    0.000 
#
# Total GULP energy -78120.635367 kJ/mol
# GULP energy per Si atom -5580.045383 kJ/mol
# Density = 2.104035 g / cm^3
# Si number density = 21.088344 Si / 1000 Ang^3
#
#
#
# Elastic Constant Matrix: (Units=GPa)
#
#
# Indices 1 2 3 4 5 6 
#
# 1 113.5140 13.3902 26.2724 0.0000 0.0000 0.0000
# 2 13.3902 32.3833 0.9891 0.0000 0.0000 0.0000
# 3 26.2724 0.9891 38.6882 0.0000 0.0000 0.0000
# 4 0.0000 0.0000 0.0000-2209.0539 0.0000 0.0000
# 5 0.0000 0.0000 0.0000 0.0000 29.0560 0.0000
# 6 0.0000 0.0000 0.0000 0.0000 0.0000 -70.5656
#
#
#
# Elastic Compliance Matrix: (Units=1/GPa)
#
#
# Indices 1 2 3 4 5 6 
#
# 1 0.011029 -0.004335 -0.007378 0.000000 0.000000 0.000000
# 2 -0.004335 0.032608 0.002110 0.000000 0.000000 0.000000
# 3 -0.007378 0.002110 0.030804 0.000000 0.000000 0.000000
# 4 0.000000 0.000000 0.000000 -0.000453 0.000000 0.000000
# 5 0.000000 0.000000 0.000000 0.000000 0.034416 0.000000
# 6 0.000000 0.000000 0.000000 0.000000 0.000000 -0.014171
#
#
# Mechanical properties :
#
#
# Convention : Reuss Voigt Hill
#
# Bulk Modulus (GPa) = 18.10465 29.54321 23.82393
# Shear Modulus (GPa) = 37.92154 -440.51713 -201.29780
#
# Velocity S-wave (km/s) = 4.24515 -14.46875 -9.78068
# Velocity P-wave (km/s) = 5.71245 16.28148 10.78088
#
# Compressibility (1/GPa) = 0.05523443
#
# Stress axis : x y z
#
# Youngs Moduli (GPa) = 90.67387 30.66724 32.46306
#
# Poissons Ratio (x) = 0.13294 0.23953
# Poissons Ratio (y) = 0.39306 -0.06850
# Poissons Ratio (z) = 0.66903 -0.06471
#
# Static dielectric constant tensor:
#      x y z
#    x 2.323030 0.000000 0.000000 
#    y 0.000000 1.776140 0.000000 
#    z 0.000000 0.000000 1.765740 
# 
# From -- ./inp_files/12403.got.cif
#   From: 2010.05.17/outbox.cif.g08.bks.cpg/sg20_7_cif.got.tgz:12403.got - 2010.06.03 22:52:26.
