data_PCOD9318532
_publ_section_title
;
Structure prediction by ZEFSAII (Michael W. Deem and Ramdas Pophale) SiO2 
 PCOD9318532
Probable space group: C 2 2 21
;
_chemical_formula_sum "Si O2"
_cell_formula_units_Z 64
_cell_length_a 18.960241
_cell_length_b 9.511079
_cell_length_c 16.965564
_cell_angle_alpha 90.000000
_cell_angle_beta 90.000000
_cell_angle_gamma 90.000000
_cell_volume 3059.440025
_symmetry_space_group_name_H-M "C 2 2 21"
_symmetry_group_IT_number 20
_symmetry_cell_setting 'orthorhombic'
loop_
_space_group_symop_operation_xyz
x,y,z
-x,-y,1/2+z
x,-y,-z
-x,y,1/2-z
1/2+x,1/2+y,z
1/2-x,1/2-y,1/2+z
1/2+x,1/2-y,-z
1/2-x,1/2+y,1/2-z
loop_
_atom_site_type_symbol
_atom_site_label
_atom_site_fract_x
_atom_site_fract_y
_atom_site_fract_z
Si Si1 0.607294 0.367524 0.055686
Si Si2 0.285401 0.156134 0.634407
Si Si3 0.349500 0.251940 0.787301
Si Si4 0.349227 0.794037 0.807391
Si Si5 0.960025 0.469793 0.171385
Si Si6 0.780929 0.335449 0.632523
Si Si7 0.079609 0.971766 0.230701
Si Si8 0.925373 0.637567 0.547096
O O1 0.672242 0.263726 0.077422
O O2 0.582366 0.423907 0.140108
O O3 0.552457 0.737376 0.988344
O O4 0.623469 0.500000 0.000000
O O5 0.307214 0.155474 0.726148
O O6 0.215715 0.251696 0.635312
O O7 0.357837 0.201511 0.592504
O O8 0.273141 0.996867 0.607934
O O9 0.420361 0.173843 0.808294
O O10 0.297157 0.274578 0.859228
O O11 0.367229 0.400257 0.747053
O O12 0.316696 0.835010 0.720757
O O13 0.395344 0.656607 0.786090
O O14 0.399679 0.913896 0.843084
O O15 0.000000 0.520961 0.250000
O O16 0.016318 0.426733 0.105420
O O17 0.000000 0.013948 0.250000
O O18 0.901784 0.500000 0.500000
#
# Coordination Sequence:
#
# PCOD9318532 Si02
#       8
#     8   8   8   8   8   8   8   8
#     4  11  26  44  65 102 142 189 231 293 361 436
#     4  11  20  41  67  99 132 176 235 295 351 424
#     4  11  22  38  70 102 132 171 233 298 349 405
#     4  10  22  38  69 102 133 173 233 296 350 412
#     4  12  24  42  70 105 144 188 241 298 357 434
#     4  10  20  41  66 102 137 175 228 295 358 423
#     4  11  24  40  68 101 136 176 231 292 346 416
#     4  12  26  44  70  97 143 193 236 286 371 453
#
# _framework density 20.918861
#
# number of rings (size 3 to 8) (size 9 to 14) (size 15 to 20)
#    0.000    1.000    5.000    1.500    5.250    1.000 
#    0.000    1.875    0.000    0.750    0.000    0.000 
#    0.000    0.000    0.000    0.000    0.000    0.000 
#
# Total GULP energy -178651.204922 kJ/mol
# GULP energy per Si atom -5582.850154 kJ/mol
# Density = 2.087125 g / cm^3
# Si number density = 20.918861 Si / 1000 Ang^3
#
#
#
# Elastic Constant Matrix: (Units=GPa)
#
#
# Indices 1 2 3 4 5 6 
#
# 1 106.6197 32.6785 38.3068 0.0000 0.0000 0.0000
# 2 32.6785 122.7747 39.6923 0.0000 0.0000 0.0000
# 3 38.3068 39.6923 67.2062 0.0000 0.0000 0.0000
# 4 0.0000 0.0000 0.0000 25.7008 0.0000 0.0000
# 5 0.0000 0.0000 0.0000 0.0000 19.3221 0.0000
# 6 0.0000 0.0000 0.0000 0.0000 0.0000 31.7998
#
#
#
# Elastic Compliance Matrix: (Units=1/GPa)
#
#
# Indices 1 2 3 4 5 6 
#
# 1 0.011938 -0.001208 -0.006091 0.000000 0.000000 0.000000
# 2 -0.001208 0.010190 -0.005329 0.000000 0.000000 0.000000
# 3 -0.006091 -0.005329 0.021499 0.000000 0.000000 0.000000
# 4 0.000000 0.000000 0.000000 0.038909 0.000000 0.000000
# 5 0.000000 0.000000 0.000000 0.000000 0.051754 0.000000
# 6 0.000000 0.000000 0.000000 0.000000 0.000000 0.031447
#
#
# Mechanical properties :
#
#
# Convention : Reuss Voigt Hill
#
# Bulk Modulus (GPa) = 54.43847 57.55064 55.99455
# Shear Modulus (GPa) = 25.36577 27.75941 26.56259
#
# Velocity S-wave (km/s) = 3.48599 3.64676 3.56728
# Velocity P-wave (km/s) = 6.50253 6.73074 6.61762
#
# Compressibility (1/GPa) = 0.01836936
#
# Stress axis : x y z
#
# Youngs Moduli (GPa) = 83.76756 98.13993 46.51440
#
# Poissons Ratio (x) = 0.11859 0.28331
# Poissons Ratio (y) = 0.10122 0.24789
# Poissons Ratio (z) = 0.51021 0.52301
#
# Static dielectric constant tensor:
#      x y z
#    x 1.757880 0.000000 0.000000 
#    y 0.000000 1.746210 0.000000 
#    z 0.000000 0.000000 1.805820 
# 
# From -- ./inp_files/27792.got.cif
#   From: 2010.05.17/outbox.cif.g08.bks.cpg/sg20_14_cif.got.tgz:27792.got - 2010.06.03 22:52:26.
