data_PCOD9318629
_publ_section_title
;
Structure prediction by ZEFSAII (Michael W. Deem and Ramdas Pophale) SiO2 
 PCOD9318629
Probable space group: C 2 2 21
;
_chemical_formula_sum "Si O2"
_cell_formula_units_Z 40
_cell_length_a 14.344133
_cell_length_b 10.022096
_cell_length_c 14.625341
_cell_angle_alpha 90.000000
_cell_angle_beta 90.000000
_cell_angle_gamma 90.000000
_cell_volume 2102.513837
_symmetry_space_group_name_H-M "C 2 2 21"
_symmetry_group_IT_number 20
_symmetry_cell_setting 'orthorhombic'
loop_
_space_group_symop_operation_xyz
x,y,z
-x,-y,1/2+z
x,-y,-z
-x,y,1/2-z
1/2+x,1/2+y,z
1/2-x,1/2-y,1/2+z
1/2+x,1/2-y,-z
1/2-x,1/2+y,1/2-z
loop_
_atom_site_type_symbol
_atom_site_label
_atom_site_fract_x
_atom_site_fract_y
_atom_site_fract_z
Si Si1 0.000000 0.175603 0.750000
Si Si2 0.342670 0.754303 0.252276
Si Si3 0.555904 0.860157 0.585354
Si Si4 0.813171 0.957761 0.308281
Si Si5 0.771140 0.500000 0.000000
Si Si6 0.001543 0.332966 0.390103
O O1 0.046326 0.266684 0.671803
O O2 0.081643 0.087229 0.791872
O O3 0.259853 0.859152 0.239930
O O4 0.303922 0.606718 0.268661
O O5 0.408650 0.791959 0.337649
O O6 0.411582 0.767422 0.164359
O O7 0.658772 0.890775 0.544935
O O8 0.501442 0.801918 0.497656
O O9 0.517267 0.006677 0.612900
O O10 0.789080 0.951199 0.415442
#
# Coordination Sequence:
#
# PCOD9318629 Si02
#       6
#     4   8   8   8   4   8
#     4  12  26  40  66 104 134 174 226 282 322 398
#     4  11  22  42  67  97 131 179 218 277 326 403
#     4  10  20  42  70  98 130 177 222 273 332 406
#     4  12  26  42  68  95 142 174 227 270 339 386
#     4  10  22  46  66  94 130 188 214 276 334 404
#     4   9  20  40  68  96 135 175 219 273 339 384
#
# _framework density 19.024844000000002
#
# number of rings (size 3 to 8) (size 9 to 14) (size 15 to 20)
#    0.000    1.600    4.000    3.600    5.600    0.000 
#    0.000    0.000    0.000    0.000    0.000    0.000 
#    0.000    0.000    0.000    0.000    0.000    0.000 
#
# Total GULP energy -111688.928351 kJ/mol
# GULP energy per Si atom -5584.446418 kJ/mol
# Density = 1.898154 g / cm^3
# Si number density = 19.024844 Si / 1000 Ang^3
#
#
#
# Elastic Constant Matrix: (Units=GPa)
#
#
# Indices 1 2 3 4 5 6 
#
# 1 131.4568 57.0664 53.3997 0.0000 0.0000 0.0000
# 2 57.0664 116.9468 59.4805 0.0000 0.0000 0.0000
# 3 53.3997 59.4805 129.2456 0.0000 0.0000 0.0000
# 4 0.0000 0.0000 0.0000 8.7074 0.0000 0.0000
# 5 0.0000 0.0000 0.0000 0.0000 38.5997 0.0000
# 6 0.0000 0.0000 0.0000 0.0000 0.0000 10.3484
#
#
#
# Elastic Compliance Matrix: (Units=1/GPa)
#
#
# Indices 1 2 3 4 5 6 
#
# 1 0.010245 -0.003716 -0.002523 0.000000 0.000000 0.000000
# 2 -0.003716 0.012512 -0.004223 0.000000 0.000000 0.000000
# 3 -0.002523 -0.004223 0.010723 0.000000 0.000000 0.000000
# 4 0.000000 0.000000 0.000000 0.114844 0.000000 0.000000
# 5 0.000000 0.000000 0.000000 0.000000 0.025907 0.000000
# 6 0.000000 0.000000 0.000000 0.000000 0.000000 0.096633
#
#
# Mechanical properties :
#
#
# Convention : Reuss Voigt Hill
#
# Bulk Modulus (GPa) = 79.63909 79.72692 79.68301
# Shear Modulus (GPa) = 16.89344 25.37795 21.13570
#
# Velocity S-wave (km/s) = 2.98311 3.65627 3.33671
# Velocity P-wave (km/s) = 7.33599 7.73448 7.53787
#
# Compressibility (1/GPa) = 0.01255665
#
# Stress axis : x y z
#
# Youngs Moduli (GPa) = 97.60826 79.92289 93.25873
#
# Poissons Ratio (x) = 0.29701 0.23526
# Poissons Ratio (y) = 0.36273 0.39381
# Poissons Ratio (z) = 0.24623 0.33750
#
# Static dielectric constant tensor:
#      x y z
#    x 1.667040 0.000000 0.000000 
#    y 0.000000 1.645260 0.000000 
#    z 0.000000 0.000000 1.669220 
# 
# From -- ./inp_files/20522.got.cif
#   From: 2010.05.17/outbox.cif.g08.bks.cpg/sg20_11_cif.got.tgz:20522.got - 2010.06.03 22:52:26.
