data_PCOD9318723
_publ_section_title
;
Structure prediction by ZEFSAII (Michael W. Deem and Ramdas Pophale) SiO2 
 PCOD9318723
Probable space group: C 2 2 21
;
_chemical_formula_sum "Si O2"
_cell_formula_units_Z 36
_cell_length_a 4.725129
_cell_length_b 20.862086
_cell_length_c 13.128828
_cell_angle_alpha 90.000000
_cell_angle_beta 90.000000
_cell_angle_gamma 90.000000
_cell_volume 1294.187973
_symmetry_space_group_name_H-M "C 2 2 21"
_symmetry_group_IT_number 20
_symmetry_cell_setting 'orthorhombic'
loop_
_space_group_symop_operation_xyz
x,y,z
-x,-y,1/2+z
x,-y,-z
-x,y,1/2-z
1/2+x,1/2+y,z
1/2-x,1/2-y,1/2+z
1/2+x,1/2-y,-z
1/2-x,1/2+y,1/2-z
loop_
_atom_site_type_symbol
_atom_site_label
_atom_site_fract_x
_atom_site_fract_y
_atom_site_fract_z
Si Si1 0.705954 0.951075 0.080101
Si Si2 0.906199 0.874434 0.573602
Si Si3 0.436762 0.792516 0.629330
Si Si4 0.500000 0.466053 0.750000
Si Si5 0.743559 0.828504 0.181102
O O1 0.580628 0.887228 0.129474
O O2 0.804215 0.992459 0.176330
O O3 0.961444 0.919026 0.013771
O O4 0.561125 0.000000 0.000000
O O5 0.617536 0.838113 0.556225
O O6 0.124777 0.818659 0.608083
O O7 0.845006 0.920074 0.670184
O O8 0.500000 0.802239 0.750000
O O9 0.577253 0.722164 0.613626
O O10 0.500000 0.795526 0.250000
O O11 0.000000 0.855354 0.250000
#
# Coordination Sequence:
#
# PCOD9318723 Si02
#       5
#     8   8   8   4   8
#     4  10  24  46  71 106 142 196 243 293 364 434
#     4  11  23  42  72 103 137 185 240 301 353 430
#     4  11  21  42  71 103 139 182 235 295 369 417
#     4  10  20  48  64 100 148 188 240 298 360 434
#     4  11  24  45  74 104 143 187 235 295 369 436
#
# _framework density 27.816669000000001
#
# number of rings (size 3 to 8) (size 9 to 14) (size 15 to 20)
#    0.000    1.333    3.333    2.667    0.000    3.556 
#    8.000    6.667    0.000    0.000    0.000    0.000 
#    0.000    0.000    0.000    0.000    0.000    0.000 
#
# Total GULP energy -100696.555019 kJ/mol
# GULP energy per Si atom -5594.253057 kJ/mol
# Density = 2.775336 g / cm^3
# Si number density = 27.816669 Si / 1000 Ang^3
#
#
#
# Elastic Constant Matrix: (Units=GPa)
#
#
# Indices 1 2 3 4 5 6 
#
# 1 100.7638 29.8066 31.3181 0.0000 0.0000 0.0000
# 2 29.8066 171.2255 54.5464 0.0000 0.0000 0.0000
# 3 31.3181 54.5464 139.4247 0.0000 0.0000 0.0000
# 4 0.0000 0.0000 0.0000 13.9669 0.0000 0.0000
# 5 0.0000 0.0000 0.0000 0.0000 39.3695 0.0000
# 6 0.0000 0.0000 0.0000 0.0000 0.0000 11.3115
#
#
#
# Elastic Compliance Matrix: (Units=1/GPa)
#
#
# Indices 1 2 3 4 5 6 
#
# 1 0.010908 -0.001278 -0.001950 0.000000 0.000000 0.000000
# 2 -0.001278 0.006821 -0.002382 0.000000 0.000000 0.000000
# 3 -0.001950 -0.002382 0.008542 0.000000 0.000000 0.000000
# 4 0.000000 0.000000 0.000000 0.071598 0.000000 0.000000
# 5 0.000000 0.000000 0.000000 0.000000 0.025400 0.000000
# 6 0.000000 0.000000 0.000000 0.000000 0.000000 0.088406
#
#
# Mechanical properties :
#
#
# Convention : Reuss Voigt Hill
#
# Bulk Modulus (GPa) = 66.43428 71.41736 68.92582
# Shear Modulus (GPa) = 21.93824 32.64579 27.29201
#
# Velocity S-wave (km/s) = 2.81138 3.42951 3.13571
# Velocity P-wave (km/s) = 5.87139 6.43522 6.15976
#
# Compressibility (1/GPa) = 0.01505247
#
# Stress axis : x y z
#
# Youngs Moduli (GPa) = 91.67315 146.59790 117.06530
#
# Poissons Ratio (x) = 0.18729 0.22833
# Poissons Ratio (y) = 0.11712 0.27882
# Poissons Ratio (z) = 0.17880 0.34916
#
# Static dielectric constant tensor:
#      x y z
#    x 2.234290 0.000000 0.000000 
#    y 0.000000 2.205600 0.000000 
#    z 0.000000 0.000000 2.200420 
# 
# From -- ./inp_files/17593.got.cif
#   From: 2010.05.17/outbox.cif.g08.bks.cpg/sg20_9_cif.got.tgz:17593.got - 2010.06.03 22:52:26.
