data_PCOD9318352
_publ_section_title
;
Structure prediction by ZEFSAII (Michael W. Deem and Ramdas Pophale) SiO2 
 PCOD9318352
Probable space group: C 2 2 21
;
_chemical_formula_sum "Si O2"
_cell_formula_units_Z 40
_cell_length_a 13.805667
_cell_length_b 6.877585
_cell_length_c 15.937209
_cell_angle_alpha 90.000000
_cell_angle_beta 90.000000
_cell_angle_gamma 90.000000
_cell_volume 1513.232389
_symmetry_space_group_name_H-M "C 2 2 21"
_symmetry_group_IT_number 20
_symmetry_cell_setting 'orthorhombic'
loop_
_space_group_symop_operation_xyz
x,y,z
-x,-y,1/2+z
x,-y,-z
-x,y,1/2-z
1/2+x,1/2+y,z
1/2-x,1/2-y,1/2+z
1/2+x,1/2-y,-z
1/2-x,1/2+y,1/2-z
loop_
_atom_site_type_symbol
_atom_site_label
_atom_site_fract_x
_atom_site_fract_y
_atom_site_fract_z
Si Si1 0.447606 0.807667 0.964273
Si Si2 0.317385 0.331756 0.889618
Si Si3 0.899547 0.250085 0.281093
Si Si4 0.697753 0.218137 0.332830
Si Si5 0.889209 0.329287 0.647856
O O1 0.358216 0.881780 0.908403
O O2 0.522423 0.719761 0.897056
O O3 0.398388 0.691275 0.039611
O O4 0.498634 0.000000 0.000000
O O5 0.347727 0.208358 0.807952
O O6 0.308463 0.555102 0.859202
O O7 0.205007 0.295173 0.910292
O O8 0.809396 0.149733 0.327657
O O9 0.920296 0.444708 0.334263
O O10 0.000000 0.156297 0.250000
O O11 0.644445 0.216646 0.242918
#
# Coordination Sequence:
#
# PCOD9318352 Si02
#       5
#     8   8   8   8   8
#     4  12  24  40  64  93 128 171 213 255 309 374
#     4  10  23  40  63  95 127 159 208 272 317 355
#     4  10  20  39  67  92 120 164 210 246 306 384
#     4  10  22  41  64  94 129 162 209 264 313 368
#     4  10  22  42  67  92 124 170 212 251 309 385
#
# _framework density 26.433479999999999
#
# number of rings (size 3 to 8) (size 9 to 14) (size 15 to 20)
#    0.000    1.600    0.000    4.800    0.000    8.000 
#    0.000    4.000    0.000    2.400    0.000    0.000 
#    0.000    0.000    0.000    0.000    0.000    0.000 
#
# Total GULP energy -111681.553352 kJ/mol
# GULP energy per Si atom -5584.077668 kJ/mol
# Density = 2.637332 g / cm^3
# Si number density = 26.433480 Si / 1000 Ang^3
#
#
#
# Elastic Constant Matrix: (Units=GPa)
#
#
# Indices 1 2 3 4 5 6 
#
# 1 177.1359 -6.3935 53.7205 0.0000 0.0000 0.0000
# 2 -6.3935 51.7786 14.6180 0.0000 0.0000 0.0000
# 3 53.7205 14.6180 101.6093 0.0000 0.0000 0.0000
# 4 0.0000 0.0000 0.0000 35.9285 0.0000 0.0000
# 5 0.0000 0.0000 0.0000 0.0000 53.8526 0.0000
# 6 0.0000 0.0000 0.0000 0.0000 0.0000 24.3254
#
#
#
# Elastic Compliance Matrix: (Units=1/GPa)
#
#
# Indices 1 2 3 4 5 6 
#
# 1 0.006910 0.001964 -0.003936 0.000000 0.000000 0.000000
# 2 0.001964 0.020689 -0.004015 0.000000 0.000000 0.000000
# 3 -0.003936 -0.004015 0.012500 0.000000 0.000000 0.000000
# 4 0.000000 0.000000 0.000000 0.027833 0.000000 0.000000
# 5 0.000000 0.000000 0.000000 0.000000 0.018569 0.000000
# 6 0.000000 0.000000 0.000000 0.000000 0.000000 0.041109
#
#
# Mechanical properties :
#
#
# Convention : Reuss Voigt Hill
#
# Bulk Modulus (GPa) = 35.55408 50.49043 43.02225
# Shear Modulus (GPa) = 33.56630 40.72655 37.14642
#
# Velocity S-wave (km/s) = 3.56735 3.92946 3.75277
# Velocity P-wave (km/s) = 5.51793 6.30317 5.92357
#
# Compressibility (1/GPa) = 0.02812617
#
# Stress axis : x y z
#
# Youngs Moduli (GPa) = 144.71938 48.33471 79.99930
#
# Poissons Ratio (x) = -0.09495 0.31487
# Poissons Ratio (y) = -0.28428 0.32120
# Poissons Ratio (z) = 0.56960 0.19406
#
# Static dielectric constant tensor:
#      x y z
#    x 2.074540 0.000000 0.000000 
#    y 0.000000 2.234170 0.000000 
#    z 0.000000 0.000000 2.010330 
# 
# From -- ./inp_files/20490.got.cif
#   From: 2010.05.17/outbox.cif.g08.bks.cpg/sg20_11_cif.got.tgz:20490.got - 2010.06.03 22:52:26.
