data_PCOD9318668
_publ_section_title
;
Structure prediction by ZEFSAII (Michael W. Deem and Ramdas Pophale) SiO2 
 PCOD9318668
Probable space group: C 2 2 21
;
_chemical_formula_sum "Si O2"
_cell_formula_units_Z 56
_cell_length_a 28.343572
_cell_length_b 5.120544
_cell_length_c 14.049263
_cell_angle_alpha 90.000000
_cell_angle_beta 90.000000
_cell_angle_gamma 90.000000
_cell_volume 2039.032867
_symmetry_space_group_name_H-M "C 2 2 21"
_symmetry_group_IT_number 20
_symmetry_cell_setting 'orthorhombic'
loop_
_space_group_symop_operation_xyz
x,y,z
-x,-y,1/2+z
x,-y,-z
-x,y,1/2-z
1/2+x,1/2+y,z
1/2-x,1/2-y,1/2+z
1/2+x,1/2-y,-z
1/2-x,1/2+y,1/2-z
loop_
_atom_site_type_symbol
_atom_site_label
_atom_site_fract_x
_atom_site_fract_y
_atom_site_fract_z
Si Si1 0.540169 0.279364 0.306513
Si Si2 0.239638 0.500000 0.500000
Si Si3 0.662279 0.370861 0.600193
Si Si4 0.891923 0.369916 0.265001
Si Si5 0.469210 0.873620 0.405086
Si Si6 0.217986 0.168445 0.758647
Si Si7 0.811717 0.570065 0.594076
Si Si8 0.955478 0.000000 0.000000
O O1 0.500000 0.450169 0.250000
O O2 0.564918 0.368507 0.405036
O O3 0.583581 0.154717 0.247109
O O4 0.501894 0.070764 0.345590
O O5 0.203814 0.666149 0.568863
O O6 0.271509 0.267549 0.551305
O O7 0.648807 0.500000 0.500000
O O8 0.621430 0.222722 0.659267
O O9 0.682665 0.588209 0.673871
O O10 0.930589 0.246927 0.335653
O O11 0.843844 0.320076 0.322264
O O12 0.508707 0.694581 0.449454
O O13 0.446398 0.000000 0.500000
O O14 0.199733 0.287849 0.857478
O O15 0.250481 0.412990 0.730289
O O16 0.840318 0.500000 0.500000
#
# Coordination Sequence:
#
# PCOD9318668 Si02
#       8
#     8   4   8   8   8   8   8   4
#     4   9  21  46  77 118 169 211 268 338 423 521
#     4  12  30  61  84 124 174 234 304 368 455 536
#     4  12  31  53  80 119 171 228 293 370 441 536
#     4  11  26  52  80 119 167 215 281 359 438 509
#     4   9  20  46  79 120 166 208 265 337 416 519
#     4  12  29  53  89 118 161 227 296 368 459 541
#     4  12  30  49  84 124 165 219 293 375 447 527
#     4  10  20  43  84 120 150 226 266 324 415 522
#
# _framework density 27.464001
#
# number of rings (size 3 to 8) (size 9 to 14) (size 15 to 20)
#    0.000    1.143    0.000    3.429   16.000    2.286 
#   15.429    0.000    3.143    0.000    0.000    0.000 
#    0.000    0.000    0.000    0.000    0.000    0.000 
#
# Total GULP energy -156197.582271 kJ/mol
# GULP energy per Si atom -5578.485081 kJ/mol
# Density = 2.740149 g / cm^3
# Si number density = 27.464001 Si / 1000 Ang^3
#
#
#
# Elastic Constant Matrix: (Units=GPa)
#
#
# Indices 1 2 3 4 5 6 
#
# 1 115.3518 55.3544 57.7325 0.0000 0.0000 0.0000
# 2 55.3544 108.4223 48.4876 0.0000 0.0000 0.0000
# 3 57.7325 48.4876 220.5795 0.0000 0.0000 0.0000
# 4 0.0000 0.0000 0.0000 63.9982 0.0000 0.0000
# 5 0.0000 0.0000 0.0000 0.0000 72.9170 0.0000
# 6 0.0000 0.0000 0.0000 0.0000 0.0000 47.8903
#
#
#
# Elastic Compliance Matrix: (Units=1/GPa)
#
#
# Indices 1 2 3 4 5 6 
#
# 1 0.012251 -0.005346 -0.002031 0.000000 0.000000 0.000000
# 2 -0.005346 0.012562 -0.001362 0.000000 0.000000 0.000000
# 3 -0.002031 -0.001362 0.005365 0.000000 0.000000 0.000000
# 4 0.000000 0.000000 0.000000 0.015625 0.000000 0.000000
# 5 0.000000 0.000000 0.000000 0.000000 0.013714 0.000000
# 6 0.000000 0.000000 0.000000 0.000000 0.000000 0.020881
#
#
# Mechanical properties :
#
#
# Convention : Reuss Voigt Hill
#
# Bulk Modulus (GPa) = 78.75070 85.27807 82.01439
# Shear Modulus (GPa) = 48.96635 55.81305 52.38970
#
# Velocity S-wave (km/s) = 4.22705 4.51291 4.37232
# Velocity P-wave (km/s) = 7.24985 7.63370 7.44425
#
# Compressibility (1/GPa) = 0.01269830
#
# Stress axis : x y z
#
# Youngs Moduli (GPa) = 81.62322 79.60579 186.40825
#
# Poissons Ratio (x) = 0.42561 0.37865
# Poissons Ratio (y) = 0.43640 0.25389
# Poissons Ratio (z) = 0.16580 0.10842
#
# Static dielectric constant tensor:
#      x y z
#    x 2.238810 0.000000 0.000000 
#    y 0.000000 2.174380 0.000000 
#    z 0.000000 0.000000 1.896710 
# 
# From -- ./inp_files/22320.got.cif
#   From: 2010.05.17/outbox.cif.g08.bks.cpg/sg20_12_cif.got.tgz:22320.got - 2010.06.03 22:52:26.
