data_PCOD9318934
_publ_section_title
;
Structure prediction by ZEFSAII (Michael W. Deem and Ramdas Pophale) SiO2 
 PCOD9318934
Probable space group: C 2 2 21
;
_chemical_formula_sum "Si O2"
_cell_formula_units_Z 32
_cell_length_a 5.441958
_cell_length_b 21.822353
_cell_length_c 11.648847
_cell_angle_alpha 90.000000
_cell_angle_beta 90.000000
_cell_angle_gamma 90.000000
_cell_volume 1383.374301
_symmetry_space_group_name_H-M "C 2 2 21"
_symmetry_group_IT_number 20
_symmetry_cell_setting 'orthorhombic'
loop_
_space_group_symop_operation_xyz
x,y,z
-x,-y,1/2+z
x,-y,-z
-x,y,1/2-z
1/2+x,1/2+y,z
1/2-x,1/2-y,1/2+z
1/2+x,1/2-y,-z
1/2-x,1/2+y,1/2-z
loop_
_atom_site_type_symbol
_atom_site_label
_atom_site_fract_x
_atom_site_fract_y
_atom_site_fract_z
Si Si1 0.407210 0.256602 0.358817
Si Si2 0.905611 0.682150 0.593337
Si Si3 0.029511 0.041093 0.380409
Si Si4 0.969550 0.429459 0.961898
O O1 0.500000 0.218785 0.250000
O O2 0.625823 0.307157 0.367890
O O3 0.410607 0.214533 0.469136
O O4 0.139576 0.285957 0.347139
O O5 0.976990 0.612120 0.572377
O O6 0.792325 0.083799 0.403591
O O7 0.000000 0.013578 0.250000
O O8 0.290528 0.075141 0.382623
O O9 0.040989 0.000000 0.500000
O O10 0.952084 0.500000 0.000000
#
# Coordination Sequence:
#
# PCOD9318934 Si02
#       4
#     8   8   8   8
#     4  10  21  38  61  85 115 156 200 250 302 354
#     4  10  21  39  59  87 119 151 200 249 299 363
#     4  10  21  38  59  85 121 161 204 246 294 358
#     4  10  21  39  60  87 122 158 197 247 307 367
#
# _framework density 23.131843
#
# number of rings (size 3 to 8) (size 9 to 14) (size 15 to 20)
#    0.000    2.000    0.000    3.000    0.000    2.000 
#    0.000   30.000    0.000    0.000    0.000    0.000 
#    0.000    0.000    0.000    0.000    0.000    0.000 
#
# Total GULP energy -89077.730998 kJ/mol
# GULP energy per Si atom -5567.358187 kJ/mol
# Density = 2.307919 g / cm^3
# Si number density = 23.131843 Si / 1000 Ang^3
#
#
#
# Elastic Constant Matrix: (Units=GPa)
#
#
# Indices 1 2 3 4 5 6 
#
# 1 192.0594 9.0478 38.8476 0.0000 0.0000 0.0000
# 2 9.0478 49.8536 -5.0218 0.0000 0.0000 0.0000
# 3 38.8476 -5.0218 115.3100 0.0000 0.0000 0.0000
# 4 0.0000 0.0000 0.0000 -106.3137 0.0000 0.0000
# 5 0.0000 0.0000 0.0000 0.0000 42.7857 0.0000
# 6 0.0000 0.0000 0.0000 0.0000 0.0000 16.4602
#
#
#
# Elastic Compliance Matrix: (Units=1/GPa)
#
#
# Indices 1 2 3 4 5 6 
#
# 1 0.005661 -0.001225 -0.001961 0.000000 0.000000 0.000000
# 2 -0.001225 0.020412 0.001302 0.000000 0.000000 0.000000
# 3 -0.001961 0.001302 0.009389 0.000000 0.000000 0.000000
# 4 0.000000 0.000000 0.000000 -0.009406 0.000000 0.000000
# 5 0.000000 0.000000 0.000000 0.000000 0.023372 0.000000
# 6 0.000000 0.000000 0.000000 0.000000 0.000000 0.060752
#
#
# Mechanical properties :
#
#
# Convention : Reuss Voigt Hill
#
# Bulk Modulus (GPa) = 31.55069 49.21891 40.38480
# Shear Modulus (GPa) = 40.15621 11.54308 25.84964
#
# Velocity S-wave (km/s) = 4.17102 2.23628 3.34652
# Velocity P-wave (km/s) = 6.07171 5.29072 5.69462
#
# Compressibility (1/GPa) = 0.03169503
#
# Stress axis : x y z
#
# Youngs Moduli (GPa) = 176.64806 48.99043 106.50256
#
# Poissons Ratio (x) = 0.06001 0.20880
# Poissons Ratio (y) = 0.21637 -0.13863
# Poissons Ratio (z) = 0.34632 -0.06377
#
# Static dielectric constant tensor:
#      x y z
#    x 1.904780 0.000000 0.000000 
#    y 0.000000 1.860910 0.000000 
#    z 0.000000 0.000000 2.004950 
# 
# From -- ./inp_files/11902.got.cif
#   From: 2010.05.17/outbox.cif.g08.bks.cpg/sg20_6_cif.got.tgz:11902.got - 2010.06.03 22:52:26.
