data_PCOD9318253
_publ_section_title
;
Structure prediction by ZEFSAII (Michael W. Deem and Ramdas Pophale) SiO2 
 PCOD9318253
Probable space group: C 2 2 21
;
_chemical_formula_sum "Si O2"
_cell_formula_units_Z 36
_cell_length_a 10.111013
_cell_length_b 15.609870
_cell_length_c 10.143939
_cell_angle_alpha 90.000000
_cell_angle_beta 90.000000
_cell_angle_gamma 90.000000
_cell_volume 1601.034107
_symmetry_space_group_name_H-M "C 2 2 21"
_symmetry_group_IT_number 20
_symmetry_cell_setting 'orthorhombic'
loop_
_space_group_symop_operation_xyz
x,y,z
-x,-y,1/2+z
x,-y,-z
-x,y,1/2-z
1/2+x,1/2+y,z
1/2-x,1/2-y,1/2+z
1/2+x,1/2-y,-z
1/2-x,1/2+y,1/2-z
loop_
_atom_site_type_symbol
_atom_site_label
_atom_site_fract_x
_atom_site_fract_y
_atom_site_fract_z
Si Si1 0.591937 0.335458 0.632531
Si Si2 0.599510 0.155345 0.557778
Si Si3 0.856551 0.610912 0.225824
Si Si4 0.891982 0.000000 0.000000
Si Si5 0.168286 0.580816 0.827323
O O1 0.500000 0.303223 0.750000
O O2 0.593609 0.256904 0.531954
O O3 0.737286 0.348854 0.692711
O O4 0.536533 0.428065 0.586376
O O5 0.664286 0.112320 0.430863
O O6 0.676726 0.137173 0.694764
O O7 0.452378 0.117359 0.584935
O O8 0.865214 0.514131 0.277180
O O9 0.000000 0.652403 0.250000
O O10 0.798453 0.062611 0.912482
#
# Coordination Sequence:
#
# PCOD9318253 Si02
#       5
#     8   8   8   4   8
#     4  11  25  45  63  95 135 180 210 270 336 392
#     4  11  21  37  69  98 132 163 224 272 324 386
#     4  11  23  40  67 101 129 168 225 270 327 389
#     4  10  24  44  66  86 140 174 222 266 338 388
#     4  10  20  38  69  96 126 171 215 273 326 378
#
# _framework density 22.485467
#
# number of rings (size 3 to 8) (size 9 to 14) (size 15 to 20)
#    0.000    1.333    4.444    3.333    3.111    1.778 
#    8.000    1.111    0.000    0.000    0.000    0.000 
#    0.000    0.000    0.000    0.000    0.000    0.000 
#
# Total GULP energy -100530.099317 kJ/mol
# GULP energy per Si atom -5585.005518 kJ/mol
# Density = 2.243429 g / cm^3
# Si number density = 22.485467 Si / 1000 Ang^3
#
#
#
# Elastic Constant Matrix: (Units=GPa)
#
#
# Indices 1 2 3 4 5 6 
#
# 1 23.5614 39.2275 0.3113 0.0000 0.0000 0.0000
# 2 39.2275 110.8814 11.3897 0.0000 0.0000 0.0000
# 3 0.3113 11.3897 70.3374 0.0000 0.0000 0.0000
# 4 0.0000 0.0000 0.0000 31.3393 0.0000 0.0000
# 5 0.0000 0.0000 0.0000 0.0000 13.6453 0.0000
# 6 0.0000 0.0000 0.0000 0.0000 0.0000 12.0014
#
#
#
# Elastic Compliance Matrix: (Units=1/GPa)
#
#
# Indices 1 2 3 4 5 6 
#
# 1 0.105444 -0.037886 0.005668 0.000000 0.000000 0.000000
# 2 -0.037886 0.022784 -0.003522 0.000000 0.000000 0.000000
# 3 0.005668 -0.003522 0.014762 0.000000 0.000000 0.000000
# 4 0.000000 0.000000 0.000000 0.031909 0.000000 0.000000
# 5 0.000000 0.000000 0.000000 0.000000 0.073285 0.000000
# 6 0.000000 0.000000 0.000000 0.000000 0.000000 0.083323
#
#
# Mechanical properties :
#
#
# Convention : Reuss Voigt Hill
#
# Bulk Modulus (GPa) = 13.98387 34.07080 24.02733
# Shear Modulus (GPa) = 11.71444 21.65399 16.68421
#
# Velocity S-wave (km/s) = 2.28497 3.10663 2.72692
# Velocity P-wave (km/s) = 3.63236 5.29655 4.54133
#
# Compressibility (1/GPa) = 0.07151097
#
# Stress axis : x y z
#
# Youngs Moduli (GPa) = 9.48371 43.89101 67.73977
#
# Poissons Ratio (x) = 1.66286 -0.38397
# Poissons Ratio (y) = 0.35930 0.23856
# Poissons Ratio (z) = -0.05376 0.15457
#
# Static dielectric constant tensor:
#      x y z
#    x 1.860750 0.000000 0.000000 
#    y 0.000000 1.818250 0.000000 
#    z 0.000000 0.000000 1.932710 
# 
# From -- ./inp_files/13811.got.cif
#   From: 2010.05.17/outbox.cif.g08.bks.cpg/sg20_7_cif.got.tgz:13811.got - 2010.06.03 22:52:26.
