data_PCOD9318074
_publ_section_title
;
Structure prediction by ZEFSAII (Michael W. Deem and Ramdas Pophale) SiO2 
 PCOD9318074
Probable space group: C 2 2 21
;
_chemical_formula_sum "Si O2"
_cell_formula_units_Z 56
_cell_length_a 11.805535
_cell_length_b 15.215004
_cell_length_c 14.440642
_cell_angle_alpha 90.000000
_cell_angle_beta 90.000000
_cell_angle_gamma 90.000000
_cell_volume 2593.846344
_symmetry_space_group_name_H-M "C 2 2 21"
_symmetry_group_IT_number 20
_symmetry_cell_setting 'orthorhombic'
loop_
_space_group_symop_operation_xyz
x,y,z
-x,-y,1/2+z
x,-y,-z
-x,y,1/2-z
1/2+x,1/2+y,z
1/2-x,1/2-y,1/2+z
1/2+x,1/2-y,-z
1/2-x,1/2+y,1/2-z
loop_
_atom_site_type_symbol
_atom_site_label
_atom_site_fract_x
_atom_site_fract_y
_atom_site_fract_z
Si Si1 0.049250 0.123218 0.646087
Si Si2 0.125239 0.012071 0.100421
Si Si3 0.474016 0.008135 0.599070
Si Si4 0.453087 0.187746 0.147057
Si Si5 0.703026 0.306266 0.927857
Si Si6 0.699255 0.122241 0.620967
Si Si7 0.687202 0.858939 0.177974
O O1 0.014013 0.217624 0.601155
O O2 0.183708 0.120012 0.650778
O O3 0.000000 0.120987 0.750000
O O4 0.991790 0.039615 0.599497
O O5 0.123271 0.115496 0.109588
O O6 0.212834 0.953152 0.157542
O O7 0.181296 0.000000 0.000000
O O8 0.585847 0.070181 0.591333
O O9 0.392242 0.056058 0.670838
O O10 0.414357 0.000000 0.500000
O O11 0.505106 0.908025 0.619711
O O12 0.500000 0.198463 0.250000
O O13 0.318152 0.185721 0.132890
O O14 0.650826 0.213067 0.899086
O O15 0.745469 0.323954 0.034425
O O16 0.679642 0.175967 0.716077
#
# Coordination Sequence:
#
# PCOD9318074 Si02
#       7
#     8   8   8   8   8   8   8
#     4  10  21  40  63  93 125 169 216 271 328 391
#     4  10  20  38  69  88 122 171 223 256 322 407
#     4  12  23  41  67  99 138 171 222 284 348 396
#     4  10  20  37  67  95 122 169 225 266 323 406
#     4  10  22  43  66  99 125 176 234 260 334 420
#     4  11  20  43  69  91 131 184 221 273 338 402
#     4  11  25  41  67 100 137 168 225 291 335 388
#
# _framework density 21.589559999999999
#
# number of rings (size 3 to 8) (size 9 to 14) (size 15 to 20)
#    0.000    1.429    4.286    1.714    0.000    2.857 
#    0.000    1.429    3.143    0.000    0.000    0.000 
#    0.000    0.000    0.000    0.000    0.000    0.000 
#
# Total GULP energy -155924.582092 kJ/mol
# GULP energy per Si atom -5568.735075 kJ/mol
# Density = 2.154042 g / cm^3
# Si number density = 21.589560 Si / 1000 Ang^3
#
#
#
# Elastic Constant Matrix: (Units=GPa)
#
#
# Indices 1 2 3 4 5 6 
#
# 1 68.6810 47.9550 5.3503 0.0000 0.0000 0.0000
# 2 47.9550 114.6012 28.5364 0.0000 0.0000 0.0000
# 3 5.3503 28.5364 78.9101 0.0000 0.0000 0.0000
# 4 0.0000 0.0000 0.0000 34.3720 0.0000 0.0000
# 5 0.0000 0.0000 0.0000 0.0000 25.7032 0.0000
# 6 0.0000 0.0000 0.0000 0.0000 0.0000 60.5663
#
#
#
# Elastic Compliance Matrix: (Units=1/GPa)
#
#
# Indices 1 2 3 4 5 6 
#
# 1 0.020829 -0.009192 0.001912 0.000000 0.000000 0.000000
# 2 -0.009192 0.013646 -0.004312 0.000000 0.000000 0.000000
# 3 0.001912 -0.004312 0.014102 0.000000 0.000000 0.000000
# 4 0.000000 0.000000 0.000000 0.029093 0.000000 0.000000
# 5 0.000000 0.000000 0.000000 0.000000 0.038906 0.000000
# 6 0.000000 0.000000 0.000000 0.000000 0.000000 0.016511
#
#
# Mechanical properties :
#
#
# Convention : Reuss Voigt Hill
#
# Bulk Modulus (GPa) = 39.37954 47.31952 43.34953
# Shear Modulus (GPa) = 30.35164 36.15167 33.25165
#
# Velocity S-wave (km/s) = 3.75353 4.09650 3.92876
# Velocity P-wave (km/s) = 6.08810 6.65886 6.37987
#
# Compressibility (1/GPa) = 0.02539390
#
# Stress axis : x y z
#
# Youngs Moduli (GPa) = 48.00925 73.28166 70.91078
#
# Poissons Ratio (x) = 0.67361 -0.13557
# Poissons Ratio (y) = 0.44131 0.30574
# Poissons Ratio (z) = -0.09179 0.31596
#
# Static dielectric constant tensor:
#      x y z
#    x 1.697820 0.000000 0.000000 
#    y 0.000000 1.886520 0.000000 
#    z 0.000000 0.000000 1.917060 
# 
# From -- ./inp_files/20057.got.cif
#   From: 2010.05.17/outbox.cif.g08.bks.cpg/sg20_11_cif.got.tgz:20057.got - 2010.06.03 22:52:26.
