data_PCOD9318632
_publ_section_title
;
Structure prediction by ZEFSAII (Michael W. Deem and Ramdas Pophale) SiO2 
 PCOD9318632
Probable space group: C 2 2 21
;
_chemical_formula_sum "Si O2"
_cell_formula_units_Z 32
_cell_length_a 5.616457
_cell_length_b 17.335220
_cell_length_c 12.613883
_cell_angle_alpha 90.000000
_cell_angle_beta 90.000000
_cell_angle_gamma 90.000000
_cell_volume 1228.119407
_symmetry_space_group_name_H-M "C 2 2 21"
_symmetry_group_IT_number 20
_symmetry_cell_setting 'orthorhombic'
loop_
_space_group_symop_operation_xyz
x,y,z
-x,-y,1/2+z
x,-y,-z
-x,y,1/2-z
1/2+x,1/2+y,z
1/2-x,1/2-y,1/2+z
1/2+x,1/2-y,-z
1/2-x,1/2+y,1/2-z
loop_
_atom_site_type_symbol
_atom_site_label
_atom_site_fract_x
_atom_site_fract_y
_atom_site_fract_z
Si Si1 0.500000 0.775349 0.250000
Si Si2 0.969086 0.212085 0.471777
Si Si3 0.254615 0.597812 0.616864
Si Si4 0.743578 0.549975 0.272275
Si Si5 0.379474 0.000000 0.500000
O O1 0.409527 0.726079 0.348677
O O2 0.308873 0.834841 0.199694
O O3 0.741965 0.259314 0.519211
O O4 0.951606 0.131695 0.536780
O O5 0.272738 0.522789 0.691472
O O6 0.044813 0.571990 0.536532
O O7 0.500000 0.592219 0.250000
O O8 0.746003 0.522931 0.393467
O O9 0.000000 0.587810 0.250000
#
# Coordination Sequence:
#
# PCOD9318632 Si02
#       5
#     4   8   8   8   4
#     4  10  20  44  70 104 132 190 226 300 340 418
#     4  10  24  40  72 104 133 185 240 282 351 414
#     4  10  21  41  73  99 141 183 231 287 354 416
#     4  10  22  38  66  99 135 182 224 277 343 416
#     4  10  20  42  72 108 134 188 232 280 356 426
#
# _framework density 26.056100000000001
#
# number of rings (size 3 to 8) (size 9 to 14) (size 15 to 20)
#    0.000    2.000    3.750    0.000    3.500    7.000 
#    0.000    0.000   93.500    0.000    0.000    0.000 
#    0.000    0.000    0.000    0.000    0.000    0.000 
#
# Total GULP energy -89316.752872 kJ/mol
# GULP energy per Si atom -5582.297054 kJ/mol
# Density = 2.599680 g / cm^3
# Si number density = 26.056100 Si / 1000 Ang^3
#
#
#
# Elastic Constant Matrix: (Units=GPa)
#
#
# Indices 1 2 3 4 5 6 
#
# 1 117.8373 16.8531 16.2879 0.0000 0.0000 0.0000
# 2 16.8531 79.8800 35.9409 0.0000 0.0000 0.0000
# 3 16.2879 35.9409 146.3692 0.0000 0.0000 0.0000
# 4 0.0000 0.0000 0.0000 12.5820 0.0000 0.0000
# 5 0.0000 0.0000 0.0000 0.0000 50.6397 0.0000
# 6 0.0000 0.0000 0.0000 0.0000 0.0000 -1.6066
#
#
#
# Elastic Compliance Matrix: (Units=1/GPa)
#
#
# Indices 1 2 3 4 5 6 
#
# 1 0.008795 -0.001591 -0.000588 0.000000 0.000000 0.000000
# 2 -0.001591 0.014361 -0.003349 0.000000 0.000000 0.000000
# 3 -0.000588 -0.003349 0.007720 0.000000 0.000000 0.000000
# 4 0.000000 0.000000 0.000000 0.079478 0.000000 0.000000
# 5 0.000000 0.000000 0.000000 0.000000 0.019747 0.000000
# 6 0.000000 0.000000 0.000000 0.000000 0.000000 -0.622444
#
#
# Mechanical properties :
#
#
# Convention : Reuss Voigt Hill
#
# Bulk Modulus (GPa) = 50.45517 53.58337 52.01927
# Shear Modulus (GPa) = -10.53344 30.65668 10.06162
#
# Velocity S-wave (km/s) = -2.01280 3.43383 1.96721
# Velocity P-wave (km/s) = 3.74223 6.02751 5.01673
#
# Compressibility (1/GPa) = 0.01981957
#
# Stress axis : x y z
#
# Youngs Moduli (GPa) = 113.69962 69.63076 129.53501
#
# Poissons Ratio (x) = 0.11078 0.07617
# Poissons Ratio (y) = 0.18090 0.43387
# Poissons Ratio (z) = 0.06686 0.23322
#
# Static dielectric constant tensor:
#      x y z
#    x 2.202450 0.000000 0.000000 
#    y 0.000000 2.090030 0.000000 
#    z 0.000000 0.000000 1.933050 
# 
# From -- ./inp_files/11931.got.cif
#   From: 2010.05.17/outbox.cif.g08.bks.cpg/sg20_6_cif.got.tgz:11931.got - 2010.06.03 22:52:26.
