data_PCOD9318666
_publ_section_title
;
Structure prediction by ZEFSAII (Michael W. Deem and Ramdas Pophale) SiO2 
 PCOD9318666
Probable space group: C 2 2 21
;
_chemical_formula_sum "Si O2"
_cell_formula_units_Z 56
_cell_length_a 14.387158
_cell_length_b 7.943763
_cell_length_c 19.549320
_cell_angle_alpha 90.000000
_cell_angle_beta 90.000000
_cell_angle_gamma 90.000000
_cell_volume 2234.256074
_symmetry_space_group_name_H-M "C 2 2 21"
_symmetry_group_IT_number 20
_symmetry_cell_setting 'orthorhombic'
loop_
_space_group_symop_operation_xyz
x,y,z
-x,-y,1/2+z
x,-y,-z
-x,y,1/2-z
1/2+x,1/2+y,z
1/2-x,1/2-y,1/2+z
1/2+x,1/2-y,-z
1/2-x,1/2+y,1/2-z
loop_
_atom_site_type_symbol
_atom_site_label
_atom_site_fract_x
_atom_site_fract_y
_atom_site_fract_z
Si Si1 0.230412 0.460265 0.373091
Si Si2 0.101697 0.859720 0.295092
Si Si3 0.474172 0.343655 0.956731
Si Si4 0.215525 0.343073 0.127000
Si Si5 0.579999 0.526836 0.850587
Si Si6 0.605881 0.025666 0.752684
Si Si7 0.088997 0.500000 0.500000
Si Si8 0.711185 0.500000 0.500000
O O1 0.278250 0.643659 0.360743
O O2 0.331219 0.374377 0.383391
O O3 0.173689 0.399357 0.306602
O O4 0.157658 0.491000 0.434065
O O5 0.188741 0.905335 0.339654
O O6 0.110110 0.673354 0.263929
O O7 0.098134 0.986367 0.231119
O O8 0.013045 0.857702 0.344812
O O9 0.534012 0.364721 0.888270
O O10 0.514209 0.500000 0.000000
O O11 0.474549 0.164760 0.993025
O O12 0.362918 0.386769 0.956628
O O13 0.139918 0.433663 0.171964
O O14 0.225503 0.386463 0.048039
O O15 0.500000 0.082228 0.750000
#
# Coordination Sequence:
#
# PCOD9318666 Si02
#       8
#     8   8   8   8   8   8   4   4
#     4  11  26  45  68 109 149 198 257 314 384 469
#     4  10  21  43  70 105 146 197 249 311 388 465
#     4  10  23  44  74 108 149 202 249 313 375 452
#     4  11  22  47  69 108 151 189 255 323 381 458
#     4  11  21  43  70 105 142 198 251 306 383 462
#     4  11  24  44  72 104 148 198 249 323 389 456
#     4  12  26  49  75 108 162 204 262 313 381 464
#     4  10  20  43  75 102 140 200 240 307 373 458
#
# _framework density 25.064271000000002
#
# number of rings (size 3 to 8) (size 9 to 14) (size 15 to 20)
#    0.429    0.857    5.714    0.000    3.000    2.286 
#    7.714    2.857    0.000    0.000    0.000    0.000 
#    0.000    0.000    0.000    0.000    0.000    0.000 
#
# Total GULP energy -156276.243024 kJ/mol
# GULP energy per Si atom -5581.294394 kJ/mol
# Density = 2.500722 g / cm^3
# Si number density = 25.064271 Si / 1000 Ang^3
#
#
#
# Elastic Constant Matrix: (Units=GPa)
#
#
# Indices 1 2 3 4 5 6 
#
# 1 127.3965 5.5483 29.6205 0.0000 0.0000 0.0000
# 2 5.5483 81.7692 10.1392 0.0000 0.0000 0.0000
# 3 29.6205 10.1392 64.1281 0.0000 0.0000 0.0000
# 4 0.0000 0.0000 0.0000 28.2758 0.0000 0.0000
# 5 0.0000 0.0000 0.0000 0.0000 57.4591 0.0000
# 6 0.0000 0.0000 0.0000 0.0000 0.0000 6.2687
#
#
#
# Elastic Compliance Matrix: (Units=1/GPa)
#
#
# Indices 1 2 3 4 5 6 
#
# 1 0.008795 -0.000095 -0.004047 0.000000 0.000000 0.000000
# 2 -0.000095 0.012475 -0.001929 0.000000 0.000000 0.000000
# 3 -0.004047 -0.001929 0.017768 0.000000 0.000000 0.000000
# 4 0.000000 0.000000 0.000000 0.035366 0.000000 0.000000
# 5 0.000000 0.000000 0.000000 0.000000 0.017404 0.000000
# 6 0.000000 0.000000 0.000000 0.000000 0.000000 0.159523
#
#
# Mechanical properties :
#
#
# Convention : Reuss Voigt Hill
#
# Bulk Modulus (GPa) = 37.17959 40.43441 38.80700
# Shear Modulus (GPa) = 18.35284 33.59976 25.97630
#
# Velocity S-wave (km/s) = 2.70891 3.66532 3.22279
# Velocity P-wave (km/s) = 4.96489 5.83781 5.41896
#
# Compressibility (1/GPa) = 0.02689648
#
# Stress axis : x y z
#
# Youngs Moduli (GPa) = 113.70556 80.15947 56.28065
#
# Poissons Ratio (x) = 0.00761 0.22778
# Poissons Ratio (y) = 0.01079 0.10854
# Poissons Ratio (z) = 0.46019 0.15460
#
# Static dielectric constant tensor:
#      x y z
#    x 2.219910 0.000000 0.000000 
#    y 0.000000 2.268170 0.000000 
#    z 0.000000 0.000000 2.029430 
# 
# From -- ./inp_files/27612.got.cif
#   From: 2010.05.17/outbox.cif.g08.bks.cpg/sg20_14_cif.got.tgz:27612.got - 2010.06.03 22:52:26.
