data_PCOD9318262
_publ_section_title
;
Structure prediction by ZEFSAII (Michael W. Deem and Ramdas Pophale) SiO2 
 PCOD9318262
Probable space group: C 2 2 21
;
_chemical_formula_sum "Si O2"
_cell_formula_units_Z 44
_cell_length_a 29.636320
_cell_length_b 13.266376
_cell_length_c 5.230891
_cell_angle_alpha 90.000000
_cell_angle_beta 90.000000
_cell_angle_gamma 90.000000
_cell_volume 2056.611443
_symmetry_space_group_name_H-M "C 2 2 21"
_symmetry_group_IT_number 20
_symmetry_cell_setting 'orthorhombic'
loop_
_space_group_symop_operation_xyz
x,y,z
-x,-y,1/2+z
x,-y,-z
-x,y,1/2-z
1/2+x,1/2+y,z
1/2-x,1/2-y,1/2+z
1/2+x,1/2-y,-z
1/2-x,1/2+y,1/2-z
loop_
_atom_site_type_symbol
_atom_site_label
_atom_site_fract_x
_atom_site_fract_y
_atom_site_fract_z
Si Si1 0.911183 0.805173 0.850591
Si Si2 0.789385 0.000000 0.500000
Si Si3 0.030132 0.500000 0.000000
Si Si4 0.188675 0.811942 0.735023
Si Si5 0.530771 0.500000 0.500000
Si Si6 0.274167 0.895855 0.419133
Si Si7 0.052506 0.712525 0.172314
O O1 0.858039 0.813240 0.911282
O O2 0.937986 0.904528 0.936741
O O3 0.926156 0.780587 0.556908
O O4 0.925428 0.719929 0.050673
O O5 0.819576 0.093700 0.420170
O O6 0.756567 0.055829 0.698346
O O7 0.056825 0.600206 0.065418
O O8 0.000000 0.478084 0.250000
O O9 0.236140 0.846555 0.606872
O O10 0.196064 0.699583 0.841453
O O11 0.500000 0.518860 0.750000
O O12 0.299110 0.000000 0.500000
O O13 0.000000 0.733074 0.250000
#
# Coordination Sequence:
#
# PCOD9318262 Si02
#       7
#     8   4   4   8   4   8   8
#     4  12  27  41  69 103 137 179 227 299 331 426
#     4  10  22  41  68  93 132 182 230 276 340 424
#     4  10  20  38  72  95 119 170 229 268 319 418
#     4  11  24  42  69 102 135 179 242 276 360 411
#     4  12  26  45  66  98 141 186 231 288 363 412
#     4  10  22  43  71  95 134 188 220 290 349 432
#     4  11  23  45  68  95 133 178 225 276 354 405
#
# _framework density 21.394414999999999
#
# number of rings (size 3 to 8) (size 9 to 14) (size 15 to 20)
#    0.000    1.091    1.818    5.455    6.364    0.727 
#    1.636    0.000    0.000    0.000    0.000    0.000 
#    0.000    0.000    0.000    0.000    0.000    0.000 
#
# Total GULP energy -122533.204579 kJ/mol
# GULP energy per Si atom -5569.691117 kJ/mol
# Density = 2.134572 g / cm^3
# Si number density = 21.394415 Si / 1000 Ang^3
#
#
#
# Elastic Constant Matrix: (Units=GPa)
#
#
# Indices 1 2 3 4 5 6 
#
# 1 52.3069 34.9937 -3.3143 0.0000 0.0000 0.0000
# 2 34.9937 161.3481 16.7828 0.0000 0.0000 0.0000
# 3 -3.3143 16.7828 66.1568 0.0000 0.0000 0.0000
# 4 0.0000 0.0000 0.0000 30.3451 0.0000 0.0000
# 5 0.0000 0.0000 0.0000 0.0000 10.9624 0.0000
# 6 0.0000 0.0000 0.0000 0.0000 0.0000 30.7908
#
#
#
# Elastic Compliance Matrix: (Units=1/GPa)
#
#
# Indices 1 2 3 4 5 6 
#
# 1 0.022745 -0.005188 0.002456 0.000000 0.000000 0.000000
# 2 -0.005188 0.007549 -0.002175 0.000000 0.000000 0.000000
# 3 0.002456 -0.002175 0.015790 0.000000 0.000000 0.000000
# 4 0.000000 0.000000 0.000000 0.032954 0.000000 0.000000
# 5 0.000000 0.000000 0.000000 0.000000 0.091221 0.000000
# 6 0.000000 0.000000 0.000000 0.000000 0.000000 0.032477
#
#
# Mechanical properties :
#
#
# Convention : Reuss Voigt Hill
#
# Bulk Modulus (GPa) = 27.57192 41.85958 34.71575
# Shear Modulus (GPa) = 22.25766 29.84296 26.05031
#
# Velocity S-wave (km/s) = 3.22894 3.73888 3.49323
# Velocity P-wave (km/s) = 5.17850 6.18442 5.70368
#
# Compressibility (1/GPa) = 0.03626879
#
# Stress axis : x y z
#
# Youngs Moduli (GPa) = 43.96648 132.46286 63.32960
#
# Poissons Ratio (x) = 0.68726 -0.15551
# Poissons Ratio (y) = 0.22811 0.13774
# Poissons Ratio (z) = -0.10797 0.28811
#
# Static dielectric constant tensor:
#      x y z
#    x 1.871730 0.000000 0.000000 
#    y 0.000000 1.764900 0.000000 
#    z 0.000000 0.000000 1.790840 
# 
# From -- ./inp_files/4232.got.cif
#   From: 2010.05.17/outbox.cif.g08.bks.cpg/sg20_3_cif.got.tgz:4232.got - 2010.06.03 22:52:26.
