data_PCOD9318051
_publ_section_title
;
Structure prediction by ZEFSAII (Michael W. Deem and Ramdas Pophale) SiO2 
 PCOD9318051
Probable space group: C 2 2 21
;
_chemical_formula_sum "Si O2"
_cell_formula_units_Z 64
_cell_length_a 17.486868
_cell_length_b 14.685699
_cell_length_c 13.440151
_cell_angle_alpha 90.000000
_cell_angle_beta 90.000000
_cell_angle_gamma 90.000000
_cell_volume 3451.523244
_symmetry_space_group_name_H-M "C 2 2 21"
_symmetry_group_IT_number 20
_symmetry_cell_setting 'orthorhombic'
loop_
_space_group_symop_operation_xyz
x,y,z
-x,-y,1/2+z
x,-y,-z
-x,y,1/2-z
1/2+x,1/2+y,z
1/2-x,1/2-y,1/2+z
1/2+x,1/2-y,-z
1/2-x,1/2+y,1/2-z
loop_
_atom_site_type_symbol
_atom_site_label
_atom_site_fract_x
_atom_site_fract_y
_atom_site_fract_z
Si Si1 0.536648 0.816171 0.458179
Si Si2 0.884528 0.302246 0.354171
Si Si3 0.196883 0.248497 0.945856
Si Si4 0.658413 0.995833 0.208736
Si Si5 0.926496 0.165823 0.183816
Si Si6 0.306352 0.921627 0.076082
Si Si7 0.055627 0.663898 0.161559
Si Si8 0.705313 0.424813 0.585796
O O1 0.471194 0.836025 0.376238
O O2 0.553646 0.713571 0.421630
O O3 0.614398 0.872350 0.454805
O O4 0.495459 0.832659 0.562345
O O5 0.848356 0.249036 0.448091
O O6 0.843104 0.397477 0.342561
O O7 0.884868 0.241127 0.254754
O O8 0.240706 0.155510 0.919482
O O9 0.131765 0.277325 0.865225
O O10 0.261976 0.327387 0.952734
O O11 0.672640 0.973075 0.322690
O O12 0.586675 0.062313 0.187366
O O13 0.729450 0.045807 0.161348
O O14 0.870357 0.087027 0.151256
O O15 0.000000 0.139831 0.250000
O O16 0.283358 0.000000 0.000000
O O17 0.000000 0.695617 0.250000
O O18 0.697504 0.500000 0.500000
#
# Coordination Sequence:
#
# PCOD9318051 Si02
#       8
#     8   8   8   8   8   8   8   8
#     4  10  21  37  62  90 125 164 204 256 318 386
#     4  10  20  37  64  89 127 168 202 256 326 380
#     4  10  22  42  63  92 133 168 206 265 319 384
#     4  11  23  37  62  97 127 162 204 265 326 384
#     4  10  21  40  66  88 122 168 215 257 316 377
#     4  12  25  40  61 100 128 166 213 260 321 385
#     4  10  23  40  62  95 129 168 204 264 330 377
#     4  11  21  40  64  94 124 164 218 257 315 382
#
# _framework density 18.542538
#
# number of rings (size 3 to 8) (size 9 to 14) (size 15 to 20)
#    0.000    1.500    3.750    0.750    5.250    0.000 
#    4.500    0.000    8.250    0.000    0.000    0.000 
#    0.000    0.000    0.000    0.000    0.000    0.000 
#
# Total GULP energy -178315.616030 kJ/mol
# GULP energy per Si atom -5572.363001 kJ/mol
# Density = 1.850033 g / cm^3
# Si number density = 18.542538 Si / 1000 Ang^3
#
#
#
# Elastic Constant Matrix: (Units=GPa)
#
#
# Indices 1 2 3 4 5 6 
#
# 1 100.5751 44.3440 49.9215 0.0000 0.0000 0.0000
# 2 44.3440 54.0430 47.4742 0.0000 0.0000 0.0000
# 3 49.9215 47.4742 89.7201 0.0000 0.0000 0.0000
# 4 0.0000 0.0000 0.0000 98.0405 0.0000 0.0000
# 5 0.0000 0.0000 0.0000 0.0000 26.2786 0.0000
# 6 0.0000 0.0000 0.0000 0.0000 0.0000 21.6345
#
#
#
# Elastic Compliance Matrix: (Units=1/GPa)
#
#
# Indices 1 2 3 4 5 6 
#
# 1 0.016212 -0.010049 -0.003703 0.000000 0.000000 0.000000
# 2 -0.010049 0.040804 -0.016000 0.000000 0.000000 0.000000
# 3 -0.003703 -0.016000 0.021672 0.000000 0.000000 0.000000
# 4 0.000000 0.000000 0.000000 0.010200 0.000000 0.000000
# 5 0.000000 0.000000 0.000000 0.000000 0.038054 0.000000
# 6 0.000000 0.000000 0.000000 0.000000 0.000000 0.046223
#
#
# Mechanical properties :
#
#
# Convention : Reuss Voigt Hill
#
# Bulk Modulus (GPa) = 52.12523 58.64642 55.38582
# Shear Modulus (GPa) = 20.91501 36.03059 28.47280
#
# Velocity S-wave (km/s) = 3.36214 4.41288 3.92285
# Velocity P-wave (km/s) = 6.57603 7.59351 7.10301
#
# Compressibility (1/GPa) = 0.01918457
#
# Stress axis : x y z
#
# Youngs Moduli (GPa) = 61.68430 24.50711 46.14233
#
# Poissons Ratio (x) = 0.24628 0.17086
# Poissons Ratio (y) = 0.61989 0.73826
# Poissons Ratio (z) = 0.22841 0.39210
#
# Static dielectric constant tensor:
#      x y z
#    x 1.632900 0.000000 0.000000 
#    y 0.000000 1.638920 0.000000 
#    z 0.000000 0.000000 1.662180 
# 
# From -- ./inp_files/15897.got.cif
#   From: 2010.05.17/outbox.cif.g08.bks.cpg/sg20_8_cif.got.tgz:15897.got - 2010.06.03 22:52:26.
