data_PCOD9318947
_publ_section_title
;
Structure prediction by ZEFSAII (Michael W. Deem and Ramdas Pophale) SiO2 
 PCOD9318947
Probable space group: C 2 2 21
;
_chemical_formula_sum "Si O2"
_cell_formula_units_Z 64
_cell_length_a 27.892845
_cell_length_b 9.094145
_cell_length_c 12.223093
_cell_angle_alpha 90.000000
_cell_angle_beta 90.000000
_cell_angle_gamma 90.000000
_cell_volume 3100.529045
_symmetry_space_group_name_H-M "C 2 2 21"
_symmetry_group_IT_number 20
_symmetry_cell_setting 'orthorhombic'
loop_
_space_group_symop_operation_xyz
x,y,z
-x,-y,1/2+z
x,-y,-z
-x,y,1/2-z
1/2+x,1/2+y,z
1/2-x,1/2-y,1/2+z
1/2+x,1/2-y,-z
1/2-x,1/2+y,1/2-z
loop_
_atom_site_type_symbol
_atom_site_label
_atom_site_fract_x
_atom_site_fract_y
_atom_site_fract_z
Si Si1 0.806368 0.553470 0.120268
Si Si2 0.357808 0.187864 0.749620
Si Si3 0.642192 0.312136 0.250380
Si Si4 0.520193 0.620675 0.077009
Si Si5 0.424566 0.082992 0.299445
Si Si6 0.424566 0.582992 0.200555
Si Si7 0.479807 0.879325 0.922991
Si Si8 0.806368 0.053470 0.379732
O O1 0.817035 0.412690 0.196726
O O2 0.835672 0.693650 0.165695
O O3 0.750000 0.588585 0.119445
O O4 0.821150 0.500000 0.000000
O O5 0.388416 0.287643 0.834667
O O6 0.335672 0.306350 0.665695
O O7 0.394835 0.066254 0.705806
O O8 0.611584 0.212357 0.165333
O O9 0.605165 0.433746 0.294194
O O10 0.682965 0.412690 0.196726
O O11 0.471118 0.558037 0.128490
O O12 0.554855 0.639229 0.181346
O O13 0.544045 0.500000 0.000000
O O14 0.500000 0.750000 0.000000
O O15 0.471118 0.058037 0.371510
O O16 0.445145 0.139229 0.181346
O O17 0.455955 0.000000 0.000000
O O18 0.821150 0.000000 0.500000
#
# Coordination Sequence:
#
# PCOD9318947 Si02
#       8
#     8   8   8   8   8   8   8   8
#     4  10  22  41  64  89 117 152 193 244 311 374
#     4  10  21  38  61  86 119 152 194 250 296 357
#     4  10  21  38  61  86 119 152 194 250 296 357
#     4  11  22  36  56  79 117 160 194 240 288 332
#     4  10  22  37  54  86 116 152 204 240 285 353
#     4  10  22  37  54  86 116 152 204 240 285 353
#     4  11  22  36  56  79 117 160 194 240 288 332
#     4  10  22  41  64  89 117 152 193 244 311 374
#
# _framework density 20.641639000000001
#
# number of rings (size 3 to 8) (size 9 to 14) (size 15 to 20)
#    0.000    1.750    0.000    3.750    0.000   14.000 
#    0.000    3.750    0.000   13.500    0.000    0.000 
#    0.000    0.000    0.000    0.000    0.000    0.000 
#
# Total GULP energy -178450.453892 kJ/mol
# GULP energy per Si atom -5576.576684 kJ/mol
# Density = 2.059466 g / cm^3
# Si number density = 20.641639 Si / 1000 Ang^3
#
#
#
# Elastic Constant Matrix: (Units=GPa)
#
#
# Indices 1 2 3 4 5 6 
#
# 1 79.1152 32.0296 19.9733 0.0000 0.0000 0.0000
# 2 32.0296 134.6356 33.2612 0.0000 0.0000 0.0000
# 3 19.9733 33.2612 85.0319 0.0000 0.0000 0.0000
# 4 0.0000 0.0000 0.0000 25.0572 0.0000 0.0000
# 5 0.0000 0.0000 0.0000 0.0000 8.2491 0.0000
# 6 0.0000 0.0000 0.0000 0.0000 0.0000 28.2461
#
#
#
# Elastic Compliance Matrix: (Units=1/GPa)
#
#
# Indices 1 2 3 4 5 6 
#
# 1 0.014367 -0.002861 -0.002256 0.000000 0.000000 0.000000
# 2 -0.002861 0.008792 -0.002767 0.000000 0.000000 0.000000
# 3 -0.002256 -0.002767 0.013372 0.000000 0.000000 0.000000
# 4 0.000000 0.000000 0.000000 0.039909 0.000000 0.000000
# 5 0.000000 0.000000 0.000000 0.000000 0.121225 0.000000
# 6 0.000000 0.000000 0.000000 0.000000 0.000000 0.035403
#
#
# Mechanical properties :
#
#
# Convention : Reuss Voigt Hill
#
# Bulk Modulus (GPa) = 48.15896 52.14564 50.15230
# Shear Modulus (GPa) = 19.54979 26.54505 23.04742
#
# Velocity S-wave (km/s) = 3.08085 3.58997 3.34511
# Velocity P-wave (km/s) = 6.00309 6.51928 6.26650
#
# Compressibility (1/GPa) = 0.02076457
#
# Stress axis : x y z
#
# Youngs Moduli (GPa) = 69.60181 113.74513 74.78036
#
# Poissons Ratio (x) = 0.32539 0.16869
# Poissons Ratio (y) = 0.19911 0.20692
# Poissons Ratio (z) = 0.15701 0.31473
#
# Static dielectric constant tensor:
#      x y z
#    x 1.717550 0.000000 0.000000 
#    y 0.000000 1.846460 0.000000 
#    z 0.000000 0.000000 2.399070 
# 
# From -- ./inp_files/17232.got.cif
#   From: 2010.05.17/outbox.cif.g08.bks.cpg/sg20_9_cif.got.tgz:17232.got - 2010.06.03 22:52:26.
