data_PCOD9318089
_publ_section_title
;
Structure prediction by ZEFSAII (Michael W. Deem and Ramdas Pophale) SiO2 
 PCOD9318089
Probable space group: C 2 2 21
;
_chemical_formula_sum "Si O2"
_cell_formula_units_Z 48
_cell_length_a 5.217165
_cell_length_b 22.342655
_cell_length_c 18.667866
_cell_angle_alpha 90.000000
_cell_angle_beta 90.000000
_cell_angle_gamma 90.000000
_cell_volume 2176.025731
_symmetry_space_group_name_H-M "C 2 2 21"
_symmetry_group_IT_number 20
_symmetry_cell_setting 'orthorhombic'
loop_
_space_group_symop_operation_xyz
x,y,z
-x,-y,1/2+z
x,-y,-z
-x,y,1/2-z
1/2+x,1/2+y,z
1/2-x,1/2-y,1/2+z
1/2+x,1/2-y,-z
1/2-x,1/2+y,1/2-z
loop_
_atom_site_type_symbol
_atom_site_label
_atom_site_fract_x
_atom_site_fract_y
_atom_site_fract_z
Si Si1 0.500000 0.841334 0.250000
Si Si2 0.742158 0.038742 0.072298
Si Si3 0.755542 0.068674 0.475931
Si Si4 0.840819 0.249061 0.902579
Si Si5 0.262908 0.044774 0.705496
Si Si6 0.161757 0.681179 0.549030
Si Si7 0.000000 0.762519 0.250000
O O1 0.251519 0.802509 0.230501
O O2 0.617011 0.889046 0.192725
O O3 0.469257 0.069687 0.081993
O O4 0.798205 0.993575 0.136064
O O5 0.969864 0.085048 0.057016
O O6 0.705614 0.000000 0.000000
O O7 0.670076 0.109746 0.541873
O O8 0.794380 0.000000 0.500000
O O9 0.570333 0.214521 0.910999
O O10 0.903642 0.270345 0.822045
O O11 0.067218 0.202925 0.921450
O O12 0.851893 0.297622 0.965677
O O13 0.500000 0.015646 0.750000
O O14 0.000000 0.051288 0.750000
#
# Coordination Sequence:
#
# PCOD9318089 Si02
#       7
#     4   8   8   8   8   8   4
#     4  10  22  36  56  89 124 161 196 254 318 366
#     4  10  21  35  55  85 116 156 198 245 290 352
#     4  10  21  35  57  93 120 154 200 255 299 362
#     4  10  23  39  65  87 121 163 200 261 303 374
#     4  10  20  38  55  77 121 168 194 241 301 375
#     4  10  21  43  62  89 122 162 207 247 319 363
#     4  12  22  36  56  95 120 147 210 254 318 360
#
# _framework density 22.058561000000001
#
# number of rings (size 3 to 8) (size 9 to 14) (size 15 to 20)
#    0.500    1.333    0.833    3.000    0.000    8.000 
#    3.000    0.000    5.500    0.000    0.000    0.000 
#    0.000    0.000    0.000    0.000    0.000    0.000 
#
# Total GULP energy -133783.697580 kJ/mol
# GULP energy per Si atom -5574.320733 kJ/mol
# Density = 2.200835 g / cm^3
# Si number density = 22.058561 Si / 1000 Ang^3
#
#
#
# Elastic Constant Matrix: (Units=GPa)
#
#
# Indices 1 2 3 4 5 6 
#
# 1 146.1638 -3.8005 7.9182 0.0000 0.0000 0.0000
# 2 -3.8005 30.5659 0.6418 0.0000 0.0000 0.0000
# 3 7.9182 0.6418 102.0276 0.0000 0.0000 0.0000
# 4 0.0000 0.0000 0.0000 20.5877 0.0000 0.0000
# 5 0.0000 0.0000 0.0000 0.0000 30.0890 0.0000
# 6 0.0000 0.0000 0.0000 0.0000 0.0000 18.0465
#
#
#
# Elastic Compliance Matrix: (Units=1/GPa)
#
#
# Indices 1 2 3 4 5 6 
#
# 1 0.006893 0.000868 -0.000540 0.000000 0.000000 0.000000
# 2 0.000868 0.032830 -0.000274 0.000000 0.000000 0.000000
# 3 -0.000540 -0.000274 0.009845 0.000000 0.000000 0.000000
# 4 0.000000 0.000000 0.000000 0.048573 0.000000 0.000000
# 5 0.000000 0.000000 0.000000 0.000000 0.033235 0.000000
# 6 0.000000 0.000000 0.000000 0.000000 0.000000 0.055412
#
#
# Mechanical properties :
#
#
# Convention : Reuss Voigt Hill
#
# Bulk Modulus (GPa) = 20.13022 32.03072 26.08047
# Shear Modulus (GPa) = 24.60156 32.01114 28.30635
#
# Velocity S-wave (km/s) = 3.34321 3.81358 3.58612
# Velocity P-wave (km/s) = 4.90391 5.82610 5.38479
#
# Compressibility (1/GPa) = 0.04967655
#
# Stress axis : x y z
#
# Youngs Moduli (GPa) = 145.06426 30.45999 101.57504
#
# Poissons Ratio (x) = -0.02645 0.05490
# Poissons Ratio (y) = -0.12598 0.02782
# Poissons Ratio (z) = 0.07840 0.00834
#
# Static dielectric constant tensor:
#      x y z
#    x 1.903390 0.000000 0.000000 
#    y 0.000000 1.797770 0.000000 
#    z 0.000000 0.000000 1.863500 
# 
# From -- ./inp_files/22830.got.cif
#   From: 2010.05.17/outbox.cif.g08.bks.cpg/sg20_12_cif.got.tgz:22830.got - 2010.06.03 22:52:26.
