data_PCOD9318056
_publ_section_title
;
Structure prediction by ZEFSAII (Michael W. Deem and Ramdas Pophale) SiO2 
 PCOD9318056
Probable space group: C 2 2 21
;
_chemical_formula_sum "Si O2"
_cell_formula_units_Z 40
_cell_length_a 21.717947
_cell_length_b 10.231927
_cell_length_c 8.615273
_cell_angle_alpha 90.000000
_cell_angle_beta 90.000000
_cell_angle_gamma 90.000000
_cell_volume 1914.455367
_symmetry_space_group_name_H-M "C 2 2 21"
_symmetry_group_IT_number 20
_symmetry_cell_setting 'orthorhombic'
loop_
_space_group_symop_operation_xyz
x,y,z
-x,-y,1/2+z
x,-y,-z
-x,y,1/2-z
1/2+x,1/2+y,z
1/2-x,1/2-y,1/2+z
1/2+x,1/2-y,-z
1/2-x,1/2+y,1/2-z
loop_
_atom_site_type_symbol
_atom_site_label
_atom_site_fract_x
_atom_site_fract_y
_atom_site_fract_z
Si Si1 0.471243 0.638426 0.580673
Si Si2 0.160240 0.224410 0.293280
Si Si3 0.538453 0.128720 0.600223
Si Si4 0.251557 0.641766 0.930524
Si Si5 0.839337 0.948200 0.341598
O O1 0.486672 0.500000 0.500000
O O2 0.500000 0.641419 0.750000
O O3 0.498583 0.759117 0.485537
O O4 0.397553 0.636351 0.604636
O O5 0.103093 0.308733 0.349450
O O6 0.193694 0.284252 0.142435
O O7 0.209902 0.211169 0.432914
O O8 0.137978 0.078780 0.248166
O O9 0.500000 0.088564 0.750000
O O10 0.548702 0.000000 0.500000
O O11 0.296391 0.621112 0.782728
O O12 0.234253 0.500000 0.000000
O O13 0.807492 0.000000 0.500000
#
# Coordination Sequence:
#
# PCOD9318056 Si02
#       5
#     8   8   8   8   8
#     4  11  21  39  67  94 126 169 217 270 322 382
#     4  11  23  42  65  95 131 169 216 270 323 387
#     4  12  27  44  63  95 135 177 221 269 325 386
#     4  10  23  40  65  96 129 168 215 264 324 389
#     4  10  20  37  64  94 123 165 216 267 322 386
#
# _framework density 20.89367
#
# number of rings (size 3 to 8) (size 9 to 14) (size 15 to 20)
#    0.000    1.200    0.000    7.200    0.000    6.400 
#    0.000    4.000    0.000    0.000    0.000    0.000 
#    0.000    0.000    0.000    0.000    0.000    0.000 
#
# Total GULP energy -111863.366732 kJ/mol
# GULP energy per Si atom -5593.168337 kJ/mol
# Density = 2.084611 g / cm^3
# Si number density = 20.893670 Si / 1000 Ang^3
#
#
#
# Elastic Constant Matrix: (Units=GPa)
#
#
# Indices 1 2 3 4 5 6 
#
# 1 107.3672 68.2229 42.9467 0.0000 0.0000 0.0000
# 2 68.2229 91.7057 21.3218 0.0000 0.0000 0.0000
# 3 42.9467 21.3218 114.9982 0.0000 0.0000 0.0000
# 4 0.0000 0.0000 0.0000 30.4516 0.0000 0.0000
# 5 0.0000 0.0000 0.0000 0.0000 23.5138 0.0000
# 6 0.0000 0.0000 0.0000 0.0000 0.0000 33.7264
#
#
#
# Elastic Compliance Matrix: (Units=1/GPa)
#
#
# Indices 1 2 3 4 5 6 
#
# 1 0.020021 -0.013749 -0.004928 0.000000 0.000000 0.000000
# 2 -0.013749 0.020837 0.001271 0.000000 0.000000 0.000000
# 3 -0.004928 0.001271 0.010300 0.000000 0.000000 0.000000
# 4 0.000000 0.000000 0.000000 0.032839 0.000000 0.000000
# 5 0.000000 0.000000 0.000000 0.000000 0.042528 0.000000
# 6 0.000000 0.000000 0.000000 0.000000 0.000000 0.029650
#
#
# Mechanical properties :
#
#
# Convention : Reuss Voigt Hill
#
# Bulk Modulus (GPa) = 61.17036 64.33932 62.75484
# Shear Modulus (GPa) = 25.45360 29.64366 27.54863
#
# Velocity S-wave (km/s) = 3.49412 3.77076 3.63508
# Velocity P-wave (km/s) = 6.75419 7.05824 6.90789
#
# Compressibility (1/GPa) = 0.01634779
#
# Stress axis : x y z
#
# Youngs Moduli (GPa) = 49.94751 47.99173 97.08322
#
# Poissons Ratio (x) = 0.65982 0.47841
# Poissons Ratio (y) = 0.68671 -0.12340
# Poissons Ratio (z) = 0.24613 -0.06100
#
# Static dielectric constant tensor:
#      x y z
#    x 1.739810 0.000000 0.000000 
#    y 0.000000 1.819760 0.000000 
#    z 0.000000 0.000000 1.744760 
# 
# From -- ./inp_files/6052.got.cif
#   From: 2010.05.17/outbox.cif.g08.bks.cpg/sg20_4_cif.got.tgz:6052.got - 2010.06.03 22:52:26.
