data_PCOD9318570
_publ_section_title
;
Structure prediction by ZEFSAII (Michael W. Deem and Ramdas Pophale) SiO2 
 PCOD9318570
Probable space group: C 2 2 21
;
_chemical_formula_sum "Si O2"
_cell_formula_units_Z 60
_cell_length_a 9.495373
_cell_length_b 17.635978
_cell_length_c 17.294271
_cell_angle_alpha 90.000000
_cell_angle_beta 90.000000
_cell_angle_gamma 90.000000
_cell_volume 2896.101896
_symmetry_space_group_name_H-M "C 2 2 21"
_symmetry_group_IT_number 20
_symmetry_cell_setting 'orthorhombic'
loop_
_space_group_symop_operation_xyz
x,y,z
-x,-y,1/2+z
x,-y,-z
-x,y,1/2-z
1/2+x,1/2+y,z
1/2-x,1/2-y,1/2+z
1/2+x,1/2-y,-z
1/2-x,1/2+y,1/2-z
loop_
_atom_site_type_symbol
_atom_site_label
_atom_site_fract_x
_atom_site_fract_y
_atom_site_fract_z
Si Si1 0.641827 0.845133 0.005416
Si Si2 0.355561 0.267641 0.798066
Si Si3 0.719688 0.913636 0.843446
Si Si4 0.500000 0.015919 0.750000
Si Si5 0.230203 0.107846 0.780290
Si Si6 0.330855 0.437005 0.108217
Si Si7 0.166570 0.714224 0.529622
Si Si8 0.626855 0.572017 0.944067
O O1 0.687369 0.909616 0.066359
O O2 0.482300 0.818399 0.005562
O O3 0.662542 0.872480 0.918505
O O4 0.750091 0.775948 0.020688
O O5 0.500000 0.259637 0.750000
O O6 0.287877 0.350669 0.787864
O O7 0.248455 0.198454 0.782382
O O8 0.374752 0.255303 0.889697
O O9 0.596874 0.962400 0.803203
O O10 0.831794 0.973153 0.877731
O O11 0.386625 0.071938 0.788440
O O12 0.168538 0.093149 0.695629
O O13 0.150316 0.066743 0.850792
O O14 0.459745 0.412655 0.053993
O O15 0.274823 0.643790 0.536983
O O16 0.658254 0.500000 0.000000
#
# Coordination Sequence:
#
# PCOD9318570 Si02
#       8
#     8   8   8   4   8   8   8   8
#     4  11  22  42  65  91 131 175 218 278 347 395
#     4  10  20  42  63  93 127 174 221 279 338 404
#     4  10  24  39  63  93 132 164 225 276 343 403
#     4  10  22  42  60  96 128 168 224 280 324 422
#     4  10  22  41  68  91 133 177 226 271 342 406
#     4  11  23  43  66  95 132 180 219 279 340 410
#     4  10  24  40  63  99 130 171 232 279 327 426
#     4  11  24  40  65 100 133 174 223 281 336 404
#
# _framework density 20.717504000000002
#
# number of rings (size 3 to 8) (size 9 to 14) (size 15 to 20)
#    0.000    1.600    0.667    3.200    7.467    3.200 
#   12.000    0.000    0.000    0.000    0.000    0.000 
#    0.000    0.000    0.000    0.000    0.000    0.000 
#
# Total GULP energy -167243.329609 kJ/mol
# GULP energy per Si atom -5574.777654 kJ/mol
# Density = 2.067035 g / cm^3
# Si number density = 20.717504 Si / 1000 Ang^3
#
#
#
# Elastic Constant Matrix: (Units=GPa)
#
#
# Indices 1 2 3 4 5 6 
#
# 1 89.3621 49.6021 19.6865 0.0000 0.0000 0.0000
# 2 49.6021 95.9584 12.1041 0.0000 0.0000 0.0000
# 3 19.6865 12.1041 44.6002 0.0000 0.0000 0.0000
# 4 0.0000 0.0000 0.0000 24.2125 0.0000 0.0000
# 5 0.0000 0.0000 0.0000 0.0000 30.5845 0.0000
# 6 0.0000 0.0000 0.0000 0.0000 0.0000 25.0768
#
#
#
# Elastic Compliance Matrix: (Units=1/GPa)
#
#
# Indices 1 2 3 4 5 6 
#
# 1 0.016797 -0.008022 -0.005237 0.000000 0.000000 0.000000
# 2 -0.008022 0.014622 -0.000427 0.000000 0.000000 0.000000
# 3 -0.005237 -0.000427 0.024849 0.000000 0.000000 0.000000
# 4 0.000000 0.000000 0.000000 0.041301 0.000000 0.000000
# 5 0.000000 0.000000 0.000000 0.000000 0.032696 0.000000
# 6 0.000000 0.000000 0.000000 0.000000 0.000000 0.039878
#
#
# Mechanical properties :
#
#
# Convention : Reuss Voigt Hill
#
# Bulk Modulus (GPa) = 34.60808 43.63404 39.12106
# Shear Modulus (GPa) = 24.13749 25.87662 25.00705
#
# Velocity S-wave (km/s) = 3.41703 3.53798 3.47803
# Velocity P-wave (km/s) = 5.68411 6.14792 5.92056
#
# Compressibility (1/GPa) = 0.02889499
#
# Stress axis : x y z
#
# Youngs Moduli (GPa) = 59.53495 68.39146 40.24304
#
# Poissons Ratio (x) = 0.54863 0.21075
# Poissons Ratio (y) = 0.47758 0.01720
# Poissons Ratio (z) = 0.31179 0.02923
#
# Static dielectric constant tensor:
#      x y z
#    x 1.782650 0.000000 0.000000 
#    y 0.000000 1.798880 0.000000 
#    z 0.000000 0.000000 1.781970 
# 
# From -- ./inp_files/23793.got.cif
#   From: 2010.05.17/outbox.cif.g08.bks.cpg/sg20_12_cif.got.tgz:23793.got - 2010.06.03 22:52:26.
