data_PCOD9318366
_publ_section_title
;
Structure prediction by ZEFSAII (Michael W. Deem and Ramdas Pophale) SiO2 
 PCOD9318366
Probable space group: C 2 2 21
;
_chemical_formula_sum "Si O2"
_cell_formula_units_Z 28
_cell_length_a 15.070384
_cell_length_b 12.068298
_cell_length_c 6.657402
_cell_angle_alpha 90.000000
_cell_angle_beta 90.000000
_cell_angle_gamma 90.000000
_cell_volume 1210.807566
_symmetry_space_group_name_H-M "C 2 2 21"
_symmetry_group_IT_number 20
_symmetry_cell_setting 'orthorhombic'
loop_
_space_group_symop_operation_xyz
x,y,z
-x,-y,1/2+z
x,-y,-z
-x,y,1/2-z
1/2+x,1/2+y,z
1/2-x,1/2-y,1/2+z
1/2+x,1/2-y,-z
1/2-x,1/2+y,1/2-z
loop_
_atom_site_type_symbol
_atom_site_label
_atom_site_fract_x
_atom_site_fract_y
_atom_site_fract_z
Si Si1 0.789775 0.000000 0.500000
Si Si2 0.801121 0.390466 0.622310
Si Si3 0.919164 0.813732 0.469609
Si Si4 0.391669 0.629855 0.055714
O O1 0.729202 0.066136 0.341510
O O2 0.856941 0.085796 0.610097
O O3 0.826345 0.500000 0.500000
O O4 0.876036 0.299514 0.602138
O O5 0.711033 0.340402 0.522504
O O6 0.906080 0.837618 0.709977
O O7 0.024994 0.816825 0.444468
O O8 0.400487 0.500000 0.000000
#
# Coordination Sequence:
#
# PCOD9318366 Si02
#       4
#     4   8   8   8
#     4  10  22  38  66 102 140 178 238 288 360 420
#     4  10  23  40  69 100 143 187 236 296 363 434
#     4  10  20  39  69 107 141 183 239 301 359 428
#     4   9  19  40  69 106 138 182 239 303 354 421
#
# _framework density 23.125060999999999
#
# number of rings (size 3 to 8) (size 9 to 14) (size 15 to 20)
#    0.000    2.286    1.429    0.000    8.000    0.000 
#    0.000    0.000    3.143    0.000    3.714    0.000 
#    0.000    0.000    0.000    0.000    0.000    0.000 
#
# Total GULP energy -78207.802683 kJ/mol
# GULP energy per Si atom -5586.271620 kJ/mol
# Density = 2.307243 g / cm^3
# Si number density = 23.125061 Si / 1000 Ang^3
#
#
#
# Elastic Constant Matrix: (Units=GPa)
#
#
# Indices 1 2 3 4 5 6 
#
# 1 169.6917 97.1533 38.1633 0.0000 0.0000 0.0000
# 2 97.1533 138.8088 40.8343 0.0000 0.0000 0.0000
# 3 38.1633 40.8343 121.5242 0.0000 0.0000 0.0000
# 4 0.0000 0.0000 0.0000 26.6352 0.0000 0.0000
# 5 0.0000 0.0000 0.0000 0.0000 30.1796 0.0000
# 6 0.0000 0.0000 0.0000 0.0000 0.0000 46.5446
#
#
#
# Elastic Compliance Matrix: (Units=1/GPa)
#
#
# Indices 1 2 3 4 5 6 
#
# 1 0.009915 -0.006685 -0.000868 0.000000 0.000000 0.000000
# 2 -0.006685 0.012501 -0.002101 0.000000 0.000000 0.000000
# 3 -0.000868 -0.002101 0.009207 0.000000 0.000000 0.000000
# 4 0.000000 0.000000 0.000000 0.037544 0.000000 0.000000
# 5 0.000000 0.000000 0.000000 0.000000 0.033135 0.000000
# 6 0.000000 0.000000 0.000000 0.000000 0.000000 0.021485
#
#
# Mechanical properties :
#
#
# Convention : Reuss Voigt Hill
#
# Bulk Modulus (GPa) = 81.19185 86.92517 84.05851
# Shear Modulus (GPa) = 33.96740 37.59680 35.78210
#
# Velocity S-wave (km/s) = 3.83672 4.03650 3.93788
# Velocity P-wave (km/s) = 7.40361 7.70683 7.55674
#
# Compressibility (1/GPa) = 0.01231651
#
# Stress axis : x y z
#
# Youngs Moduli (GPa) = 100.85481 79.99455 108.60861
#
# Poissons Ratio (x) = 0.53472 0.09423
# Poissons Ratio (y) = 0.67417 0.22822
# Poissons Ratio (z) = 0.08751 0.16809
#
# Static dielectric constant tensor:
#      x y z
#    x 1.835210 0.000000 0.000000 
#    y 0.000000 1.826990 0.000000 
#    z 0.000000 0.000000 2.128000 
# 
# From -- ./inp_files/7785.got.cif
#   From: 2010.05.17/outbox.cif.g08.bks.cpg/sg20_4_cif.got.tgz:7785.got - 2010.06.03 22:52:26.
