data_PCOD9318692
_publ_section_title
;
Structure prediction by ZEFSAII (Michael W. Deem and Ramdas Pophale) SiO2 
 PCOD9318692
Probable space group: C 2 2 21
;
_chemical_formula_sum "Si O2"
_cell_formula_units_Z 56
_cell_length_a 5.879383
_cell_length_b 13.084432
_cell_length_c 29.693019
_cell_angle_alpha 90.000000
_cell_angle_beta 90.000000
_cell_angle_gamma 90.000000
_cell_volume 2284.236059
_symmetry_space_group_name_H-M "C 2 2 21"
_symmetry_group_IT_number 20
_symmetry_cell_setting 'orthorhombic'
loop_
_space_group_symop_operation_xyz
x,y,z
-x,-y,1/2+z
x,-y,-z
-x,y,1/2-z
1/2+x,1/2+y,z
1/2-x,1/2-y,1/2+z
1/2+x,1/2-y,-z
1/2-x,1/2+y,1/2-z
loop_
_atom_site_type_symbol
_atom_site_label
_atom_site_fract_x
_atom_site_fract_y
_atom_site_fract_z
Si Si1 0.452143 0.414958 0.674896
Si Si2 0.470975 0.311829 0.388757
Si Si3 0.417541 0.967660 0.139561
Si Si4 0.924109 0.000000 0.500000
Si Si5 0.500000 0.414761 0.250000
Si Si6 0.778353 0.779732 0.479374
Si Si7 0.695913 0.200505 0.808301
Si Si8 0.798394 0.010056 0.085282
O O1 0.512458 0.505800 0.708900
O O2 0.464776 0.299565 0.691877
O O3 0.583206 0.434006 0.627968
O O4 0.187531 0.439944 0.666843
O O5 0.346730 0.247446 0.427861
O O6 0.598993 0.273975 0.344070
O O7 0.652783 0.386893 0.412979
O O8 0.280816 0.390819 0.372953
O O9 0.578949 0.898248 0.169654
O O10 0.533701 0.014295 0.095488
O O11 0.782955 0.096367 0.517467
O O12 0.088640 0.041643 0.460695
O O13 0.706568 0.337540 0.260611
O O14 0.516531 0.751917 0.493924
#
# Coordination Sequence:
#
# PCOD9318692 Si02
#       8
#     8   8   8   4   4   8   8   8
#     4  11  25  43  70 100 135 181 236 285 356 437
#     4   9  21  44  67  99 143 180 237 294 351 421
#     4  10  20  44  71  93 139 185 225 295 354 418
#     4  10  24  44  72 104 150 190 244 298 368 430
#     4  12  24  50  58 108 140 166 240 300 350 444
#     4  11  27  44  70 109 146 196 249 306 358 436
#     4  11  25  43  73  96 135 181 230 287 364 425
#     4   9  20  44  66 104 138 184 231 297 351 430
#
# _framework density 24.515854999999998
#
# number of rings (size 3 to 8) (size 9 to 14) (size 15 to 20)
#    0.000    1.714    4.286    0.000    8.000    5.714 
#    2.571    0.000    0.000    0.000    0.000    0.000 
#    0.000    0.000    0.000    0.000    0.000    0.000 
#
# Total GULP energy -156117.376968 kJ/mol
# GULP energy per Si atom -5575.620606 kJ/mol
# Density = 2.446006 g / cm^3
# Si number density = 24.515855 Si / 1000 Ang^3
#
#
#
# Elastic Constant Matrix: (Units=GPa)
#
#
# Indices 1 2 3 4 5 6 
#
# 1 72.4460 28.5411 10.7538 0.0000 0.0000 0.0000
# 2 28.5411 118.4173 27.9846 0.0000 0.0000 0.0000
# 3 10.7538 27.9846 92.3284 0.0000 0.0000 0.0000
# 4 0.0000 0.0000 0.0000 33.0735 0.0000 0.0000
# 5 0.0000 0.0000 0.0000 0.0000 26.7124 0.0000
# 6 0.0000 0.0000 0.0000 0.0000 0.0000 23.8705
#
#
#
# Elastic Compliance Matrix: (Units=1/GPa)
#
#
# Indices 1 2 3 4 5 6 
#
# 1 0.015295 -0.003517 -0.000715 0.000000 0.000000 0.000000
# 2 -0.003517 0.009905 -0.002593 0.000000 0.000000 0.000000
# 3 -0.000715 -0.002593 0.011700 0.000000 0.000000 0.000000
# 4 0.000000 0.000000 0.000000 0.030236 0.000000 0.000000
# 5 0.000000 0.000000 0.000000 0.000000 0.037436 0.000000
# 6 0.000000 0.000000 0.000000 0.000000 0.000000 0.041893
#
#
# Mechanical properties :
#
#
# Convention : Reuss Voigt Hill
#
# Bulk Modulus (GPa) = 43.01114 46.41673 44.71393
# Shear Modulus (GPa) = 29.78578 31.12543 30.45560
#
# Velocity S-wave (km/s) = 3.48941 3.56702 3.52843
# Velocity P-wave (km/s) = 5.81523 5.99494 5.90577
#
# Compressibility (1/GPa) = 0.02324979
#
# Stress axis : x y z
#
# Youngs Moduli (GPa) = 65.37951 100.95746 85.46996
#
# Poissons Ratio (x) = 0.35511 0.06114
# Poissons Ratio (y) = 0.22997 0.22158
# Poissons Ratio (z) = 0.04677 0.26174
#
# Static dielectric constant tensor:
#      x y z
#    x 2.046300 0.000000 0.000000 
#    y 0.000000 1.946330 0.000000 
#    z 0.000000 0.000000 2.061570 
# 
# From -- ./inp_files/30776.got.cif
#   From: 2010.05.17/outbox.cif.g08.bks.cpg/sg20_16_cif.got.tgz:30776.got - 2010.06.03 22:52:26.
