data_PCOD9318040
_publ_section_title
;
Structure prediction by ZEFSAII (Michael W. Deem and Ramdas Pophale) SiO2 
 PCOD9318040
Probable space group: C 2 2 21
;
_chemical_formula_sum "Si O2"
_cell_formula_units_Z 60
_cell_length_a 5.220353
_cell_length_b 27.092492
_cell_length_c 18.271591
_cell_angle_alpha 90.000000
_cell_angle_beta 90.000000
_cell_angle_gamma 90.000000
_cell_volume 2584.194453
_symmetry_space_group_name_H-M "C 2 2 21"
_symmetry_group_IT_number 20
_symmetry_cell_setting 'orthorhombic'
loop_
_space_group_symop_operation_xyz
x,y,z
-x,-y,1/2+z
x,-y,-z
-x,y,1/2-z
1/2+x,1/2+y,z
1/2-x,1/2-y,1/2+z
1/2+x,1/2-y,-z
1/2-x,1/2+y,1/2-z
loop_
_atom_site_type_symbol
_atom_site_label
_atom_site_fract_x
_atom_site_fract_y
_atom_site_fract_z
Si Si1 0.018405 0.678227 0.668595
Si Si2 0.737800 0.569138 0.830897
Si Si3 0.489022 0.951349 0.475420
Si Si4 0.501264 0.355727 0.581652
Si Si5 0.876804 0.870442 0.079533
Si Si6 0.000000 0.489768 0.750000
Si Si7 0.806624 0.750397 0.950072
Si Si8 0.973722 0.411508 0.879428
O O1 0.749183 0.673298 0.625695
O O2 0.000000 0.699756 0.750000
O O3 0.120364 0.622005 0.679381
O O4 0.193672 0.708008 0.611767
O O5 0.472732 0.590195 0.860534
O O6 0.853532 0.542270 0.902143
O O7 0.775396 0.529706 0.766883
O O8 0.345094 0.900939 0.459959
O O9 0.639579 0.939873 0.549248
O O10 0.331931 0.000000 0.500000
O O11 0.453139 0.358609 0.492220
O O12 0.597255 0.299916 0.589947
O O13 0.247397 0.370019 0.627352
O O14 0.743563 0.389264 0.605954
O O15 0.989350 0.452001 0.682949
O O16 0.533744 0.759648 0.989967
#
# Coordination Sequence:
#
# PCOD9318040 Si02
#       8
#     8   8   8   8   8   4   8   8
#     4  11  25  46  66 110 150 183 239 316 395 451
#     4  11  22  44  67  97 143 184 239 308 374 440
#     4  10  20  37  62  94 128 177 241 287 354 425
#     4  11  23  47  75 102 144 189 254 314 350 448
#     4  10  22  40  71  98 137 190 239 311 369 439
#     4  12  26  46  68 106 148 202 250 306 382 464
#     4  12  25  46  81 112 142 195 254 303 378 462
#     4  11  25  45  69 102 142 194 247 302 368 438
#
# _framework density 23.218069
#
# number of rings (size 3 to 8) (size 9 to 14) (size 15 to 20)
#    0.000    1.067    4.667    1.600    1.867    3.733 
#    7.200    0.000    0.000    0.000    0.000    0.000 
#    0.000    0.000    0.000    0.000    0.000    0.000 
#
# Total GULP energy -167111.490937 kJ/mol
# GULP energy per Si atom -5570.383031 kJ/mol
# Density = 2.316522 g / cm^3
# Si number density = 23.218069 Si / 1000 Ang^3
#
#
#
# Elastic Constant Matrix: (Units=GPa)
#
#
# Indices 1 2 3 4 5 6 
#
# 1 71.2213 7.4745 39.3632 0.0000 0.0000 0.0000
# 2 7.4745 89.2677 42.9120 0.0000 0.0000 0.0000
# 3 39.3632 42.9120 87.3741 0.0000 0.0000 0.0000
# 4 0.0000 0.0000 0.0000 43.7793 0.0000 0.0000
# 5 0.0000 0.0000 0.0000 0.0000 2.5226 0.0000
# 6 0.0000 0.0000 0.0000 0.0000 0.0000 -61.7842
#
#
#
# Elastic Compliance Matrix: (Units=1/GPa)
#
#
# Indices 1 2 3 4 5 6 
#
# 1 0.019446 0.003381 -0.010421 0.000000 0.000000 0.000000
# 2 0.003381 0.015252 -0.009014 0.000000 0.000000 0.000000
# 3 -0.010421 -0.009014 0.020567 0.000000 0.000000 0.000000
# 4 0.000000 0.000000 0.000000 0.022842 0.000000 0.000000
# 5 0.000000 0.000000 0.000000 0.000000 0.396424 0.000000
# 6 0.000000 0.000000 0.000000 0.000000 0.000000 -0.016185
#
#
# Mechanical properties :
#
#
# Convention : Reuss Voigt Hill
#
# Bulk Modulus (GPa) = 43.18364 47.48471 45.33418
# Shear Modulus (GPa) = 10.03669 7.44442 8.74055
#
# Velocity S-wave (km/s) = 2.08139 1.79256 1.94235
# Velocity P-wave (km/s) = 4.94123 4.97799 4.95964
#
# Compressibility (1/GPa) = 0.02315692
#
# Stress axis : x y z
#
# Youngs Moduli (GPa) = 51.42569 65.56350 48.62138
#
# Poissons Ratio (x) = -0.22170 0.50669
# Poissons Ratio (y) = -0.17389 0.43829
# Poissons Ratio (z) = 0.53592 0.59101
#
# Static dielectric constant tensor:
#      x y z
#    x 1.974400 0.000000 0.000000 
#    y 0.000000 1.982390 0.000000 
#    z 0.000000 0.000000 1.938960 
# 
# From -- ./inp_files/22997.got.cif
#   From: 2010.05.17/outbox.cif.g08.bks.cpg/sg20_12_cif.got.tgz:22997.got - 2010.06.03 22:52:26.
