data_PCOD9318289
_publ_section_title
;
Structure prediction by ZEFSAII (Michael W. Deem and Ramdas Pophale) SiO2 
 PCOD9318289
Probable space group: C 2 2 21
;
_chemical_formula_sum "Si O2"
_cell_formula_units_Z 56
_cell_length_a 5.194706
_cell_length_b 32.266511
_cell_length_c 16.059603
_cell_angle_alpha 90.000000
_cell_angle_beta 90.000000
_cell_angle_gamma 90.000000
_cell_volume 2691.830972
_symmetry_space_group_name_H-M "C 2 2 21"
_symmetry_group_IT_number 20
_symmetry_cell_setting 'orthorhombic'
loop_
_space_group_symop_operation_xyz
x,y,z
-x,-y,1/2+z
x,-y,-z
-x,y,1/2-z
1/2+x,1/2+y,z
1/2-x,1/2-y,1/2+z
1/2+x,1/2-y,-z
1/2-x,1/2+y,1/2-z
loop_
_atom_site_type_symbol
_atom_site_label
_atom_site_fract_x
_atom_site_fract_y
_atom_site_fract_z
Si Si1 0.989661 0.108977 0.350356
Si Si2 0.509896 0.162116 0.150388
Si Si3 0.503199 0.248247 0.055107
Si Si4 0.000004 0.833826 0.149306
Si Si5 0.083407 0.982451 0.590760
Si Si6 0.499618 0.883921 0.148371
Si Si7 0.586057 0.977377 0.345413
O O1 0.719496 0.130456 0.370491
O O2 0.000000 0.100865 0.250000
O O3 0.218874 0.140795 0.370150
O O4 0.030962 0.065886 0.396897
O O5 0.500000 0.168793 0.250000
O O6 0.475963 0.205614 0.105136
O O7 0.463442 0.288383 0.112708
O O8 0.286562 0.249568 0.984160
O O9 0.770317 0.864435 0.122536
O O10 0.000000 0.831754 0.250000
O O11 0.269133 0.853892 0.122023
O O12 0.026285 0.000000 0.500000
O O13 0.379610 0.992733 0.610954
O O14 0.877328 0.006906 0.647828
O O15 0.500000 0.884776 0.250000
O O16 0.449551 0.930814 0.120100
O O17 0.500000 0.976564 0.250000
#
# Coordination Sequence:
#
# PCOD9318289 Si02
#       7
#     8   8   8   8   8   8   8
#     4  10  21  41  68  92 119 166 221 264 305 370
#     4  10  22  43  68  91 120 164 218 264 304 366
#     4  12  25  42  59  94 128 157 203 250 323 379
#     4  10  20  39  62  86 120 162 204 249 295 364
#     4  12  25  42  60  99 135 165 211 266 338 382
#     4   9  19  36  61  92 115 150 207 245 292 361
#     4  11  22  41  66  90 124 171 217 259 304 378
#
# _framework density 20.803684000000001
#
# number of rings (size 3 to 8) (size 9 to 14) (size 15 to 20)
#    0.000    1.429    0.000    5.571    0.000    3.429 
#   15.429    5.714    0.000    0.000    0.000    0.000 
#    0.000    0.000    0.000    0.000    0.000    0.000 
#
# Total GULP energy -156664.078587 kJ/mol
# GULP energy per Si atom -5595.145664 kJ/mol
# Density = 2.075633 g / cm^3
# Si number density = 20.803684 Si / 1000 Ang^3
#
#
#
# Elastic Constant Matrix: (Units=GPa)
#
#
# Indices 1 2 3 4 5 6 
#
# 1 69.2416 -5.6832 -6.3554 0.0000 0.0000 0.0000
# 2 -5.6832 121.2836 18.2701 0.0000 0.0000 0.0000
# 3 -6.3554 18.2701 21.4965 0.0000 0.0000 0.0000
# 4 0.0000 0.0000 0.0000 -39.4799 0.0000 0.0000
# 5 0.0000 0.0000 0.0000 0.0000 21.4848 0.0000
# 6 0.0000 0.0000 0.0000 0.0000 0.0000 51.2478
#
#
#
# Elastic Compliance Matrix: (Units=1/GPa)
#
#
# Indices 1 2 3 4 5 6 
#
# 1 0.014845 0.000040 0.004355 0.000000 0.000000 0.000000
# 2 0.000040 0.009456 -0.008025 0.000000 0.000000 0.000000
# 3 0.004355 -0.008025 0.054627 0.000000 0.000000 0.000000
# 4 0.000000 0.000000 0.000000 -0.025329 0.000000 0.000000
# 5 0.000000 0.000000 0.000000 0.000000 0.046545 0.000000
# 6 0.000000 0.000000 0.000000 0.000000 0.000000 0.019513
#
#
# Mechanical properties :
#
#
# Convention : Reuss Voigt Hill
#
# Bulk Modulus (GPa) = 13.95314 24.94274 19.44794
# Shear Modulus (GPa) = 33.15510 20.36989 26.76250
#
# Velocity S-wave (km/s) = 3.99646 3.13253 3.59058
# Velocity P-wave (km/s) = 5.29313 5.00992 5.15347
#
# Compressibility (1/GPa) = 0.07166845
#
# Stress axis : x y z
#
# Youngs Moduli (GPa) = 67.36184 105.75451 18.30581
#
# Poissons Ratio (x) = -0.00418 -0.07973
# Poissons Ratio (y) = -0.00266 0.14690
# Poissons Ratio (z) = -0.29339 0.84867
#
# Static dielectric constant tensor:
#      x y z
#    x 1.745170 0.000000 0.000000 
#    y 0.000000 1.692930 0.000000 
#    z 0.000000 0.000000 1.758670 
# 
# From -- ./inp_files/17943.got.cif
#   From: 2010.05.17/outbox.cif.g08.bks.cpg/sg20_9_cif.got.tgz:17943.got - 2010.06.03 22:52:26.
