data_PCOD9318460
_publ_section_title
;
Structure prediction by ZEFSAII (Michael W. Deem and Ramdas Pophale) SiO2 
 PCOD9318460
Probable space group: C 2 2 21
;
_chemical_formula_sum "Si O2"
_cell_formula_units_Z 56
_cell_length_a 4.923023
_cell_length_b 20.007525
_cell_length_c 24.786429
_cell_angle_alpha 90.000000
_cell_angle_beta 90.000000
_cell_angle_gamma 90.000000
_cell_volume 2441.401433
_symmetry_space_group_name_H-M "C 2 2 21"
_symmetry_group_IT_number 20
_symmetry_cell_setting 'orthorhombic'
loop_
_space_group_symop_operation_xyz
x,y,z
-x,-y,1/2+z
x,-y,-z
-x,y,1/2-z
1/2+x,1/2+y,z
1/2-x,1/2-y,1/2+z
1/2+x,1/2-y,-z
1/2-x,1/2+y,1/2-z
loop_
_atom_site_type_symbol
_atom_site_label
_atom_site_fract_x
_atom_site_fract_y
_atom_site_fract_z
Si Si1 0.438000 0.128091 0.311672
Si Si2 0.924723 0.381669 0.996003
Si Si3 0.256783 0.937191 0.590545
Si Si4 0.294219 0.727357 0.699650
Si Si5 0.342288 0.684200 0.405444
Si Si6 0.697898 0.818885 0.142099
Si Si7 0.418719 0.419008 0.065349
O O1 0.500000 0.109589 0.250000
O O2 0.326255 0.066256 0.346098
O O3 0.242020 0.193082 0.303949
O O4 0.675141 0.157048 0.352126
O O5 0.713155 0.398607 0.043216
O O6 0.218365 0.385759 0.022012
O O7 0.834192 0.319026 0.960274
O O8 0.972033 0.434176 0.946316
O O9 0.085659 0.868301 0.585575
O O10 0.100354 0.001669 0.570286
O O11 0.500000 0.717147 0.750000
O O12 0.499016 0.707739 0.652511
O O13 0.016986 0.686699 0.691039
O O14 0.423859 0.760974 0.396460
O O15 0.773913 0.890586 0.119174
#
# Coordination Sequence:
#
# PCOD9318460 Si02
#       7
#     8   8   8   8   8   8   8
#     4   9  20  38  66 101 129 167 217 278 335 386
#     4  11  25  42  64  93 124 181 225 269 322 401
#     4  11  23  41  66  96 131 171 225 276 326 397
#     4  10  20  40  68  93 124 169 219 265 323 402
#     4  10  22  40  68  92 134 166 225 274 326 392
#     4  11  23  42  62  98 131 167 216 276 333 391
#     4  12  27  40  66  92 134 176 224 270 336 395
#
# _framework density 22.937646000000001
#
# number of rings (size 3 to 8) (size 9 to 14) (size 15 to 20)
#    0.000    1.429    2.857    1.714    6.000    1.714 
#    0.000    1.429    0.000    0.000    0.000    0.000 
#    0.000    0.000    0.000    0.000    0.000    0.000 
#
# Total GULP energy -155869.609203 kJ/mol
# GULP energy per Si atom -5566.771757 kJ/mol
# Density = 2.288544 g / cm^3
# Si number density = 22.937646 Si / 1000 Ang^3
#
#
#
# Elastic Constant Matrix: (Units=GPa)
#
#
# Indices 1 2 3 4 5 6 
#
# 1 105.0303 12.7263 4.7149 0.0000 0.0000 0.0000
# 2 12.7263 50.1231 -5.4361 0.0000 0.0000 0.0000
# 3 4.7149 -5.4361 48.1633 0.0000 0.0000 0.0000
# 4 0.0000 0.0000 0.0000 11.4764 0.0000 0.0000
# 5 0.0000 0.0000 0.0000 0.0000 36.7512 0.0000
# 6 0.0000 0.0000 0.0000 0.0000 0.0000 11.5308
#
#
#
# Elastic Compliance Matrix: (Units=1/GPa)
#
#
# Indices 1 2 3 4 5 6 
#
# 1 0.009899 -0.002651 -0.001268 0.000000 0.000000 0.000000
# 2 -0.002651 0.020908 0.002619 0.000000 0.000000 0.000000
# 3 -0.001268 0.002619 0.021183 0.000000 0.000000 0.000000
# 4 0.000000 0.000000 0.000000 0.087135 0.000000 0.000000
# 5 0.000000 0.000000 0.000000 0.000000 0.027210 0.000000
# 6 0.000000 0.000000 0.000000 0.000000 0.000000 0.086724
#
#
# Mechanical properties :
#
#
# Convention : Reuss Voigt Hill
#
# Bulk Modulus (GPa) = 20.24701 25.25853 22.75277
# Shear Modulus (GPa) = 18.37407 24.70577 21.53992
#
# Velocity S-wave (km/s) = 2.83334 3.28546 3.06774
# Velocity P-wave (km/s) = 4.42153 5.04262 4.74225
#
# Compressibility (1/GPa) = 0.04939001
#
# Stress axis : x y z
#
# Youngs Moduli (GPa) = 101.01815 47.82844 47.20876
#
# Poissons Ratio (x) = 0.12679 0.05987
# Poissons Ratio (y) = 0.26780 -0.12366
# Poissons Ratio (z) = 0.12812 -0.12528
#
# Static dielectric constant tensor:
#      x y z
#    x 1.937580 0.000000 0.000000 
#    y 0.000000 1.869440 0.000000 
#    z 0.000000 0.000000 2.111240 
# 
# From -- ./inp_files/28419.got.cif
#   From: 2010.05.17/outbox.cif.g08.bks.cpg/sg20_15_cif.got.tgz:28419.got - 2010.06.03 22:52:26.
