data_PCOD9318127
_publ_section_title
;
Structure prediction by ZEFSAII (Michael W. Deem and Ramdas Pophale) SiO2 
 PCOD9318127
Probable space group: C 2 2 21
;
_chemical_formula_sum "Si O2"
_cell_formula_units_Z 40
_cell_length_a 15.301843
_cell_length_b 12.361664
_cell_length_c 8.107018
_cell_angle_alpha 90.000000
_cell_angle_beta 90.000000
_cell_angle_gamma 90.000000
_cell_volume 1533.493057
_symmetry_space_group_name_H-M "C 2 2 21"
_symmetry_group_IT_number 20
_symmetry_cell_setting 'orthorhombic'
loop_
_space_group_symop_operation_xyz
x,y,z
-x,-y,1/2+z
x,-y,-z
-x,y,1/2-z
1/2+x,1/2+y,z
1/2-x,1/2-y,1/2+z
1/2+x,1/2-y,-z
1/2-x,1/2+y,1/2-z
loop_
_atom_site_type_symbol
_atom_site_label
_atom_site_fract_x
_atom_site_fract_y
_atom_site_fract_z
Si Si1 0.961294 0.500000 0.500000
Si Si2 0.774789 0.000000 0.500000
Si Si3 0.419252 0.500000 0.000000
Si Si4 0.074660 0.154560 0.091217
Si Si5 0.000000 0.334445 0.250000
Si Si6 0.272837 0.362188 0.184257
Si Si7 0.147526 0.676502 0.127918
O O1 0.012587 0.592138 0.592980
O O2 0.905134 0.435486 0.639272
O O3 0.840814 0.918478 0.592405
O O4 0.736849 0.926587 0.348391
O O5 0.487539 0.416894 0.916588
O O6 0.356698 0.568806 0.879751
O O7 0.077696 0.249869 0.225375
O O8 0.081068 0.227845 0.926607
O O9 0.299793 0.239237 0.232418
O O10 0.210246 0.352685 0.026364
#
# Coordination Sequence:
#
# PCOD9318127 Si02
#       7
#     4   4   4   8   4   8   8
#     4  10  23  40  60  86 127 172 216 260 317 394
#     4   9  20  40  66  96 128 163 216 277 338 390
#     4  11  23  42  76 106 127 169 226 279 347 402
#     4   9  20  39  67  99 130 163 217 284 335 390
#     4  10  20  38  60  86 126 170 210 258 314 378
#     4  11  24  41  66  98 133 175 221 278 337 399
#     4  10  24  43  62  93 136 176 220 273 331 394
#
# _framework density 26.084240999999999
#
# number of rings (size 3 to 8) (size 9 to 14) (size 15 to 20)
#    0.000    2.000    0.000    1.800    0.000   19.200 
#    0.000    4.000    0.000    2.400    0.000    0.000 
#    0.000    0.000    0.000    0.000    0.000    0.000 
#
# Total GULP energy -111613.046622 kJ/mol
# GULP energy per Si atom -5580.652331 kJ/mol
# Density = 2.602487 g / cm^3
# Si number density = 26.084241 Si / 1000 Ang^3
#
#
#
# Elastic Constant Matrix: (Units=GPa)
#
#
# Indices 1 2 3 4 5 6 
#
# 1 87.0911 52.7866 40.7366 0.0000 0.0000 0.0000
# 2 52.7866 158.9336 51.4701 0.0000 0.0000 0.0000
# 3 40.7366 51.4701 95.2422 0.0000 0.0000 0.0000
# 4 0.0000 0.0000 0.0000 79.7458 0.0000 0.0000
# 5 0.0000 0.0000 0.0000 0.0000 37.8607 0.0000
# 6 0.0000 0.0000 0.0000 0.0000 0.0000 67.2714
#
#
#
# Elastic Compliance Matrix: (Units=1/GPa)
#
#
# Indices 1 2 3 4 5 6 
#
# 1 0.016014 -0.003758 -0.004818 0.000000 0.000000 0.000000
# 2 -0.003758 0.008509 -0.002991 0.000000 0.000000 0.000000
# 3 -0.004818 -0.002991 0.014177 0.000000 0.000000 0.000000
# 4 0.000000 0.000000 0.000000 0.012540 0.000000 0.000000
# 5 0.000000 0.000000 0.000000 0.000000 0.026413 0.000000
# 6 0.000000 0.000000 0.000000 0.000000 0.000000 0.014865
#
#
# Mechanical properties :
#
#
# Convention : Reuss Voigt Hill
#
# Bulk Modulus (GPa) = 64.24876 70.13929 67.19402
# Shear Modulus (GPa) = 41.37702 50.06047 45.71874
#
# Velocity S-wave (km/s) = 3.98714 4.38560 4.19111
# Velocity P-wave (km/s) = 6.77356 7.25207 7.01690
#
# Compressibility (1/GPa) = 0.01556450
#
# Stress axis : x y z
#
# Youngs Moduli (GPa) = 62.44554 117.52648 70.53835
#
# Poissons Ratio (x) = 0.44170 0.33988
# Poissons Ratio (y) = 0.23469 0.21096
# Poissons Ratio (z) = 0.30089 0.35149
#
# Static dielectric constant tensor:
#      x y z
#    x 2.139250 0.000000 0.000000 
#    y 0.000000 2.041860 0.000000 
#    z 0.000000 0.000000 2.139750 
# 
# From -- ./inp_files/9177.got.cif
#   From: 2010.05.17/outbox.cif.g08.bks.cpg/sg20_5_cif.got.tgz:9177.got - 2010.06.03 22:52:26.
