data_PCOD9318039
_publ_section_title
;
Structure prediction by ZEFSAII (Michael W. Deem and Ramdas Pophale) SiO2 
 PCOD9318039
Probable space group: C 2 2 21
;
_chemical_formula_sum "Si O2"
_cell_formula_units_Z 56
_cell_length_a 15.160766
_cell_length_b 13.344481
_cell_length_c 12.419718
_cell_angle_alpha 90.000000
_cell_angle_beta 90.000000
_cell_angle_gamma 90.000000
_cell_volume 2512.664866
_symmetry_space_group_name_H-M "C 2 2 21"
_symmetry_group_IT_number 20
_symmetry_cell_setting 'orthorhombic'
loop_
_space_group_symop_operation_xyz
x,y,z
-x,-y,1/2+z
x,-y,-z
-x,y,1/2-z
1/2+x,1/2+y,z
1/2-x,1/2-y,1/2+z
1/2+x,1/2-y,-z
1/2-x,1/2+y,1/2-z
loop_
_atom_site_type_symbol
_atom_site_label
_atom_site_fract_x
_atom_site_fract_y
_atom_site_fract_z
Si Si1 0.825439 0.763157 0.369892
Si Si2 0.489738 0.950897 0.376450
Si Si3 0.862092 0.037380 0.714457
Si Si4 0.093504 0.757639 0.900117
Si Si5 0.673682 0.891177 0.475531
Si Si6 0.233572 0.628217 0.305464
Si Si7 0.983754 0.049345 0.102960
O O1 0.887247 0.751512 0.472360
O O2 0.737857 0.815130 0.417209
O O3 0.803537 0.663563 0.307365
O O4 0.859151 0.843851 0.282448
O O5 0.500000 0.995880 0.250000
O O6 0.427884 0.853614 0.360837
O O7 0.586523 0.910836 0.408964
O O8 0.465160 0.000000 0.500000
O O9 0.768157 0.984785 0.708717
O O10 0.923741 0.010955 0.613221
O O11 0.916906 0.980941 0.804704
O O12 0.179054 0.807759 0.841891
O O13 0.011615 0.835021 0.889848
O O14 0.662800 0.856075 0.599348
O O15 0.717104 0.000000 0.500000
O O16 0.939998 0.000000 0.000000
#
# Coordination Sequence:
#
# PCOD9318039 Si02
#       7
#     8   8   8   8   8   8   8
#     4  11  21  40  64  94 131 170 218 278 334 404
#     4  11  26  46  69  98 132 180 230 286 335 402
#     4  10  21  37  62  91 125 165 215 271 329 410
#     4  10  23  40  67  93 131 173 227 278 331 418
#     4  10  21  40  68  88 124 176 221 264 334 409
#     4  10  22  39  63  96 125 177 220 267 340 406
#     4  10  20  37  62  93 125 166 210 274 346 395
#
# _framework density 22.287095999999998
#
# number of rings (size 3 to 8) (size 9 to 14) (size 15 to 20)
#    0.000    1.714    2.857    0.857    6.000    3.429 
#    5.143    0.000    0.000    0.000    0.000    0.000 
#    0.000    0.000    0.000    0.000    0.000    0.000 
#
# Total GULP energy -155892.624755 kJ/mol
# GULP energy per Si atom -5567.593741 kJ/mol
# Density = 2.223637 g / cm^3
# Si number density = 22.287096 Si / 1000 Ang^3
#
#
#
# Elastic Constant Matrix: (Units=GPa)
#
#
# Indices 1 2 3 4 5 6 
#
# 1 29.4479 -15.4323 11.5299 0.0000 0.0000 0.0000
# 2 -15.4323 40.0117 1.8594 0.0000 0.0000 0.0000
# 3 11.5299 1.8594 119.3856 0.0000 0.0000 0.0000
# 4 0.0000 0.0000 0.0000 36.0712 0.0000 0.0000
# 5 0.0000 0.0000 0.0000 0.0000 23.3961 0.0000
# 6 0.0000 0.0000 0.0000 0.0000 0.0000 5.5033
#
#
#
# Elastic Compliance Matrix: (Units=1/GPa)
#
#
# Indices 1 2 3 4 5 6 
#
# 1 0.044967 0.017558 -0.004616 0.000000 0.000000 0.000000
# 2 0.017558 0.031867 -0.002192 0.000000 0.000000 0.000000
# 3 -0.004616 -0.002192 0.008856 0.000000 0.000000 0.000000
# 4 0.000000 0.000000 0.000000 0.027723 0.000000 0.000000
# 5 0.000000 0.000000 0.000000 0.000000 0.042742 0.000000
# 6 0.000000 0.000000 0.000000 0.000000 0.000000 0.181708
#
#
# Mechanical properties :
#
#
# Convention : Reuss Voigt Hill
#
# Bulk Modulus (GPa) = 9.32927 20.52881 14.92904
# Shear Modulus (GPa) = 14.20078 25.72000 19.96039
#
# Velocity S-wave (km/s) = 2.52697 3.40079 2.99591
# Velocity P-wave (km/s) = 3.56499 4.96503 4.32208
#
# Compressibility (1/GPa) = 0.10718947
#
# Stress axis : x y z
#
# Youngs Moduli (GPa) = 22.23848 31.38080 112.91538
#
# Poissons Ratio (x) = -0.55099 0.52125
# Poissons Ratio (y) = -0.39046 0.24751
# Poissons Ratio (z) = 0.10266 0.06879
#
# Static dielectric constant tensor:
#      x y z
#    x 1.837270 0.000000 0.000000 
#    y 0.000000 1.864030 0.000000 
#    z 0.000000 0.000000 2.478360 
# 
# From -- ./inp_files/15138.got.cif
#   From: 2010.05.17/outbox.cif.g08.bks.cpg/sg20_8_cif.got.tgz:15138.got - 2010.06.03 22:52:26.
