data_PCOD9318772
_publ_section_title
;
Structure prediction by ZEFSAII (Michael W. Deem and Ramdas Pophale) SiO2 
 PCOD9318772
Probable space group: C 2 2 21
;
_chemical_formula_sum "Si O2"
_cell_formula_units_Z 56
_cell_length_a 5.324394
_cell_length_b 27.479948
_cell_length_c 16.538900
_cell_angle_alpha 90.000000
_cell_angle_beta 90.000000
_cell_angle_gamma 90.000000
_cell_volume 2419.873776
_symmetry_space_group_name_H-M "C 2 2 21"
_symmetry_group_IT_number 20
_symmetry_cell_setting 'orthorhombic'
loop_
_space_group_symop_operation_xyz
x,y,z
-x,-y,1/2+z
x,-y,-z
-x,y,1/2-z
1/2+x,1/2+y,z
1/2-x,1/2-y,1/2+z
1/2+x,1/2-y,-z
1/2-x,1/2+y,1/2-z
loop_
_atom_site_type_symbol
_atom_site_label
_atom_site_fract_x
_atom_site_fract_y
_atom_site_fract_z
Si Si1 0.420792 0.543665 0.430860
Si Si2 0.500000 0.568038 0.250000
Si Si3 0.416285 0.923371 0.174262
Si Si4 0.500000 0.862513 0.750000
Si Si5 0.482077 0.308857 0.018430
Si Si6 0.080174 0.557122 0.005939
Si Si7 0.481526 0.199515 0.083769
Si Si8 0.581880 0.631477 0.673709
O O1 0.390462 0.500000 0.500000
O O2 0.479853 0.536778 0.334818
O O3 0.651806 0.575689 0.463994
O O4 0.147372 0.568215 0.434382
O O5 0.749422 0.602925 0.254628
O O6 0.500000 0.957229 0.250000
O O7 0.628992 0.881262 0.184065
O O8 0.123444 0.911969 0.178752
O O9 0.482071 0.934638 0.083338
O O10 0.516767 0.826604 0.671070
O O11 0.478194 0.258301 0.070418
O O12 0.469780 0.347781 0.087890
O O13 0.732148 0.314807 0.965917
O O14 0.237235 0.313136 0.963114
O O15 0.130740 0.500000 0.000000
O O16 0.500000 0.664119 0.750000
#
# Coordination Sequence:
#
# PCOD9318772 Si02
#       8
#     8   4   8   4   8   8   8   8
#     4  10  23  44  63  94 123 163 217 262 324 389
#     4  12  26  44  68  98 136 171 224 275 340 400
#     4  10  21  37  55  89 122 150 202 255 314 370
#     4  12  26  42  66 102 136 175 218 275 336 390
#     4  10  21  40  62  89 124 173 216 259 313 375
#     4  10  21  40  61  89 119 161 207 251 322 386
#     4  10  23  40  60  92 128 168 219 257 313 381
#     4  10  21  35  59  88 118 158 200 254 311 363
#
# _framework density 23.141704000000001
#
# number of rings (size 3 to 8) (size 9 to 14) (size 15 to 20)
#    0.000    1.714    0.000    3.429    1.000    6.857 
#   10.286    0.000    0.000    0.000    0.000    0.000 
#    0.000    0.000    0.000    0.000    0.000    0.000 
#
# Total GULP energy -155917.365623 kJ/mol
# GULP energy per Si atom -5568.477344 kJ/mol
# Density = 2.308903 g / cm^3
# Si number density = 23.141704 Si / 1000 Ang^3
#
#
#
# Elastic Constant Matrix: (Units=GPa)
#
#
# Indices 1 2 3 4 5 6 
#
# 1 187.6355 29.7169 52.2474 0.0000 0.0000 0.0000
# 2 29.7169 61.7689 40.8272 0.0000 0.0000 0.0000
# 3 52.2474 40.8272 194.1464 0.0000 0.0000 0.0000
# 4 0.0000 0.0000 0.0000 23.0523 0.0000 0.0000
# 5 0.0000 0.0000 0.0000 0.0000 52.3630 0.0000
# 6 0.0000 0.0000 0.0000 0.0000 0.0000 18.7118
#
#
#
# Elastic Compliance Matrix: (Units=1/GPa)
#
#
# Indices 1 2 3 4 5 6 
#
# 1 0.005989 -0.002109 -0.001168 0.000000 0.000000 0.000000
# 2 -0.002109 0.019546 -0.003543 0.000000 0.000000 0.000000
# 3 -0.001168 -0.003543 0.006210 0.000000 0.000000 0.000000
# 4 0.000000 0.000000 0.000000 0.043380 0.000000 0.000000
# 5 0.000000 0.000000 0.000000 0.000000 0.019097 0.000000
# 6 0.000000 0.000000 0.000000 0.000000 0.000000 0.053442
#
#
# Mechanical properties :
#
#
# Convention : Reuss Voigt Hill
#
# Bulk Modulus (GPa) = 55.23427 76.57043 65.90235
# Shear Modulus (GPa) = 29.87954 40.20937 35.04445
#
# Velocity S-wave (km/s) = 3.59716 4.17289 3.89568
# Velocity P-wave (km/s) = 6.41658 7.50845 6.98388
#
# Compressibility (1/GPa) = 0.01810470
#
# Stress axis : x y z
#
# Youngs Moduli (GPa) = 166.97885 51.16230 161.02778
#
# Poissons Ratio (x) = 0.10791 0.18810
# Poissons Ratio (y) = 0.35217 0.57047
# Poissons Ratio (z) = 0.19505 0.18125
#
# Static dielectric constant tensor:
#      x y z
#    x 1.891970 0.000000 0.000000 
#    y 0.000000 1.934110 0.000000 
#    z 0.000000 0.000000 2.038310 
# 
# From -- ./inp_files/17992.got.cif
#   From: 2010.05.17/outbox.cif.g08.bks.cpg/sg20_9_cif.got.tgz:17992.got - 2010.06.03 22:52:26.
