data_PCOD9318708
_publ_section_title
;
Structure prediction by ZEFSAII (Michael W. Deem and Ramdas Pophale) SiO2 
 PCOD9318708
Probable space group: C 2 2 21
;
_chemical_formula_sum "Si O2"
_cell_formula_units_Z 56
_cell_length_a 9.640724
_cell_length_b 19.753220
_cell_length_c 13.172211
_cell_angle_alpha 90.000000
_cell_angle_beta 90.000000
_cell_angle_gamma 90.000000
_cell_volume 2508.454508
_symmetry_space_group_name_H-M "C 2 2 21"
_symmetry_group_IT_number 20
_symmetry_cell_setting 'orthorhombic'
loop_
_space_group_symop_operation_xyz
x,y,z
-x,-y,1/2+z
x,-y,-z
-x,y,1/2-z
1/2+x,1/2+y,z
1/2-x,1/2-y,1/2+z
1/2+x,1/2-y,-z
1/2-x,1/2+y,1/2-z
loop_
_atom_site_type_symbol
_atom_site_label
_atom_site_fract_x
_atom_site_fract_y
_atom_site_fract_z
Si Si1 0.500000 0.739963 0.250000
Si Si2 0.000000 0.769935 0.250000
Si Si3 0.652208 0.943228 0.731757
Si Si4 0.877893 0.578576 0.012848
Si Si5 0.647305 0.554451 0.861306
Si Si6 0.615409 0.168661 0.930394
Si Si7 0.870131 0.887464 0.153732
Si Si8 0.268395 0.818311 0.647183
O O1 0.414388 0.784028 0.333449
O O2 0.387649 0.698221 0.183306
O O3 0.052578 0.815230 0.346546
O O4 0.127754 0.724996 0.215655
O O5 0.500000 0.976645 0.750000
O O6 0.625626 0.900027 0.629648
O O7 0.698428 0.896769 0.824805
O O8 0.773796 0.991817 0.690937
O O9 0.928977 0.500000 0.000000
O O10 0.726287 0.574913 0.962384
O O11 0.972862 0.631312 0.955472
O O12 0.666620 0.608946 0.772641
O O13 0.481634 0.554877 0.873808
O O14 0.728128 0.111333 0.903438
O O15 0.686423 0.199036 0.031873
#
# Coordination Sequence:
#
# PCOD9318708 Si02
#       8
#     4   4   8   8   8   8   8   8
#     4  12  30  46  69 109 136 184 252 296 336 438
#     4  10  20  46  63  91 138 176 236 274 358 410
#     4  11  22  43  66  98 138 183 229 285 353 428
#     4  10  22  40  69 102 132 182 230 282 356 426
#     4   9  22  41  68  95 134 174 225 283 345 414
#     4  12  25  43  69 101 140 180 232 293 355 421
#     4  10  23  42  66 101 130 181 225 293 342 414
#     4  12  26  45  68 101 138 193 231 299 356 418
#
# _framework density 22.324501999999999
#
# number of rings (size 3 to 8) (size 9 to 14) (size 15 to 20)
#    0.000    1.429    3.571    0.857    8.000    3.429 
#    0.000    7.857    0.000    0.000    0.000    0.000 
#    0.000    0.000    0.000    0.000    0.000    0.000 
#
# Total GULP energy -156056.620099 kJ/mol
# GULP energy per Si atom -5573.450718 kJ/mol
# Density = 2.227369 g / cm^3
# Si number density = 22.324502 Si / 1000 Ang^3
#
#
#
# Elastic Constant Matrix: (Units=GPa)
#
#
# Indices 1 2 3 4 5 6 
#
# 1 99.9548 9.0383 30.5758 0.0000 0.0000 0.0000
# 2 9.0383 21.5081 2.1186 0.0000 0.0000 0.0000
# 3 30.5758 2.1186 99.3051 0.0000 0.0000 0.0000
# 4 0.0000 0.0000 0.0000 19.1141 0.0000 0.0000
# 5 0.0000 0.0000 0.0000 0.0000 28.0560 0.0000
# 6 0.0000 0.0000 0.0000 0.0000 0.0000 31.0590
#
#
#
# Elastic Compliance Matrix: (Units=1/GPa)
#
#
# Indices 1 2 3 4 5 6 
#
# 1 0.011459 -0.004477 -0.003433 0.000000 0.000000 0.000000
# 2 -0.004477 0.048341 0.000347 0.000000 0.000000 0.000000
# 3 -0.003433 0.000347 0.011120 0.000000 0.000000 0.000000
# 4 0.000000 0.000000 0.000000 0.052317 0.000000 0.000000
# 5 0.000000 0.000000 0.000000 0.000000 0.035643 0.000000
# 6 0.000000 0.000000 0.000000 0.000000 0.000000 0.032197
#
#
# Mechanical properties :
#
#
# Convention : Reuss Voigt Hill
#
# Bulk Modulus (GPa) = 17.92296 33.80372 25.86334
# Shear Modulus (GPa) = 22.24181 27.58149 24.91165
#
# Velocity S-wave (km/s) = 3.15984 3.51875 3.34412
# Velocity P-wave (km/s) = 4.62154 5.62883 5.14987
#
# Compressibility (1/GPa) = 0.05579437
#
# Stress axis : x y z
#
# Youngs Moduli (GPa) = 87.26398 20.68621 89.93196
#
# Poissons Ratio (x) = 0.09262 0.30872
# Poissons Ratio (y) = 0.39072 -0.03123
# Poissons Ratio (z) = 0.29956 -0.00718
#
# Static dielectric constant tensor:
#      x y z
#    x 1.904750 0.000000 0.000000 
#    y 0.000000 1.894600 0.000000 
#    z 0.000000 0.000000 1.864900 
# 
# From -- ./inp_files/19237.got.cif
#   From: 2010.05.17/outbox.cif.g08.bks.cpg/sg20_10_cif.got.tgz:19237.got - 2010.06.03 22:52:26.
