data_PCOD9318595
_publ_section_title
;
Structure prediction by ZEFSAII (Michael W. Deem and Ramdas Pophale) SiO2 
 PCOD9318595
Probable space group: C 2 2 21
;
_chemical_formula_sum "Si O2"
_cell_formula_units_Z 40
_cell_length_a 19.731575
_cell_length_b 10.906079
_cell_length_c 7.996062
_cell_angle_alpha 90.000000
_cell_angle_beta 90.000000
_cell_angle_gamma 90.000000
_cell_volume 1720.705492
_symmetry_space_group_name_H-M "C 2 2 21"
_symmetry_group_IT_number 20
_symmetry_cell_setting 'orthorhombic'
loop_
_space_group_symop_operation_xyz
x,y,z
-x,-y,1/2+z
x,-y,-z
-x,y,1/2-z
1/2+x,1/2+y,z
1/2-x,1/2-y,1/2+z
1/2+x,1/2-y,-z
1/2-x,1/2+y,1/2-z
loop_
_atom_site_type_symbol
_atom_site_label
_atom_site_fract_x
_atom_site_fract_y
_atom_site_fract_z
Si Si1 0.161783 0.000000 0.500000
Si Si2 0.051032 0.830387 0.596897
Si Si3 0.375903 0.089477 0.341749
Si Si4 0.736329 0.786201 0.050607
Si Si5 0.500000 0.733294 0.750000
Si Si6 0.160621 0.362200 0.371032
O O1 0.110669 0.929156 0.621743
O O2 0.209556 0.896354 0.421511
O O3 0.090357 0.701183 0.580363
O O4 0.000000 0.828668 0.750000
O O5 0.016311 0.845796 0.415506
O O6 0.311646 0.169841 0.398915
O O7 0.437144 0.178720 0.297613
O O8 0.355332 0.997481 0.193336
O O9 0.279498 0.168004 0.001048
O O10 0.812245 0.713936 0.709017
O O11 0.607506 0.000000 0.000000
#
# Coordination Sequence:
#
# PCOD9318595 Si02
#       6
#     4   8   8   8   4   8
#     4  10  22  44  70  98 134 178 228 284 342 402
#     4  11  26  47  68 100 135 180 231 286 331 410
#     4  10  22  40  65  98 138 176 220 279 332 401
#     4  10  20  42  66  96 135 173 220 288 327 405
#     4  12  28  42  74  98 138 186 226 272 346 408
#     4  10  22  40  66  94 134 169 221 271 342 391
#
# _framework density 23.246279999999999
#
# number of rings (size 3 to 8) (size 9 to 14) (size 15 to 20)
#    0.000    1.600    3.000    2.400   11.200    0.000 
#    0.000    0.000    0.000    0.000    0.000    0.000 
#    0.000    0.000    0.000    0.000    0.000    0.000 
#
# Total GULP energy -111870.319422 kJ/mol
# GULP energy per Si atom -5593.515971 kJ/mol
# Density = 2.319337 g / cm^3
# Si number density = 23.246280 Si / 1000 Ang^3
#
#
#
# Elastic Constant Matrix: (Units=GPa)
#
#
# Indices 1 2 3 4 5 6 
#
# 1 123.5732 36.9470 33.9994 0.0000 0.0000 0.0000
# 2 36.9470 65.5621 7.5748 0.0000 0.0000 0.0000
# 3 33.9994 7.5748 97.8140 0.0000 0.0000 0.0000
# 4 0.0000 0.0000 0.0000 34.2424 0.0000 0.0000
# 5 0.0000 0.0000 0.0000 0.0000 45.5854 0.0000
# 6 0.0000 0.0000 0.0000 0.0000 0.0000 31.0473
#
#
#
# Elastic Compliance Matrix: (Units=1/GPa)
#
#
# Indices 1 2 3 4 5 6 
#
# 1 0.010680 -0.005640 -0.003275 0.000000 0.000000 0.000000
# 2 -0.005640 0.018369 0.000538 0.000000 0.000000 0.000000
# 3 -0.003275 0.000538 0.011320 0.000000 0.000000 0.000000
# 4 0.000000 0.000000 0.000000 0.029204 0.000000 0.000000
# 5 0.000000 0.000000 0.000000 0.000000 0.021937 0.000000
# 6 0.000000 0.000000 0.000000 0.000000 0.000000 0.032209
#
#
# Mechanical properties :
#
#
# Convention : Reuss Voigt Hill
#
# Bulk Modulus (GPa) = 42.34783 49.33242 45.84013
# Shear Modulus (GPa) = 33.70516 36.07024 34.88770
#
# Velocity S-wave (km/s) = 3.81191 3.94338 3.87820
# Velocity P-wave (km/s) = 6.13439 6.48085 6.31000
#
# Compressibility (1/GPa) = 0.02361396
#
# Stress axis : x y z
#
# Youngs Moduli (GPa) = 93.63375 54.43944 88.33643
#
# Poissons Ratio (x) = 0.30705 0.28934
# Poissons Ratio (y) = 0.52811 -0.04752
# Poissons Ratio (z) = 0.30670 -0.02929
#
# Static dielectric constant tensor:
#      x y z
#    x 1.830800 0.000000 0.000000 
#    y 0.000000 1.860720 0.000000 
#    z 0.000000 0.000000 1.962710 
# 
# From -- ./inp_files/7253.got.cif
#   From: 2010.05.17/outbox.cif.g08.bks.cpg/sg20_4_cif.got.tgz:7253.got - 2010.06.03 22:52:26.
