data_PCOD9318061
_publ_section_title
;
Structure prediction by ZEFSAII (Michael W. Deem and Ramdas Pophale) SiO2 
 PCOD9318061
Probable space group: C 2 2 21
;
_chemical_formula_sum "Si O2"
_cell_formula_units_Z 48
_cell_length_a 17.386897
_cell_length_b 7.574754
_cell_length_c 15.694253
_cell_angle_alpha 90.000000
_cell_angle_beta 90.000000
_cell_angle_gamma 90.000000
_cell_volume 2066.956153
_symmetry_space_group_name_H-M "C 2 2 21"
_symmetry_group_IT_number 20
_symmetry_cell_setting 'orthorhombic'
loop_
_space_group_symop_operation_xyz
x,y,z
-x,-y,1/2+z
x,-y,-z
-x,y,1/2-z
1/2+x,1/2+y,z
1/2-x,1/2-y,1/2+z
1/2+x,1/2-y,-z
1/2-x,1/2+y,1/2-z
loop_
_atom_site_type_symbol
_atom_site_label
_atom_site_fract_x
_atom_site_fract_y
_atom_site_fract_z
Si Si1 0.176215 0.198338 0.845238
Si Si2 0.001557 0.842110 0.337233
Si Si3 0.207102 0.397462 0.208733
Si Si4 0.569501 0.281032 0.691948
Si Si5 0.499354 0.796981 0.482502
Si Si6 0.676888 0.792897 0.027371
O O1 0.089140 0.131319 0.852897
O O2 0.178915 0.405085 0.815722
O O3 0.220544 0.095393 0.771578
O O4 0.207881 0.194564 0.942713
O O5 0.029560 0.779401 0.428796
O O6 0.000000 0.727361 0.250000
O O7 0.053645 0.009555 0.313596
O O8 0.145113 0.290951 0.264491
O O9 0.218084 0.293958 0.118974
O O10 0.500000 0.210366 0.750000
O O11 0.556657 0.224406 0.595203
O O12 0.412523 0.732931 0.459377
O O13 0.487897 0.000000 0.500000
O O14 0.676632 0.000000 0.000000
#
# Coordination Sequence:
#
# PCOD9318061 Si02
#       6
#     8   8   8   8   8   8
#     4  10  24  42  68  97 135 179 221 279 347 405
#     4  10  24  42  65  94 136 177 226 273 340 398
#     4  11  23  42  69  97 136 174 228 282 337 404
#     4  11  23  39  67  99 131 173 230 277 335 393
#     4  10  20  37  65  94 134 173 225 278 336 396
#     4   8  17  39  61  90 122 176 218 262 327 406
#
# _framework density 23.222553000000001
#
# number of rings (size 3 to 8) (size 9 to 14) (size 15 to 20)
#    0.000    2.000    1.667    1.500    7.000    0.000 
#    3.000    2.500    0.000    0.000    0.000    0.000 
#    0.000    0.000    0.000    0.000    0.000    0.000 
#
# Total GULP energy -133921.497592 kJ/mol
# GULP energy per Si atom -5580.062400 kJ/mol
# Density = 2.316970 g / cm^3
# Si number density = 23.222553 Si / 1000 Ang^3
#
#
#
# Elastic Constant Matrix: (Units=GPa)
#
#
# Indices 1 2 3 4 5 6 
#
# 1 48.5283 15.2641 34.6044 0.0000 0.0000 0.0000
# 2 15.2641 75.3035 36.5213 0.0000 0.0000 0.0000
# 3 34.6044 36.5213 231.2020 0.0000 0.0000 0.0000
# 4 0.0000 0.0000 0.0000 5225.1805 0.0000 0.0000
# 5 0.0000 0.0000 0.0000 0.0000 56.3043 0.0000
# 6 0.0000 0.0000 0.0000 0.0000 0.0000 10.2943
#
#
#
# Elastic Compliance Matrix: (Units=1/GPa)
#
#
# Indices 1 2 3 4 5 6 
#
# 1 0.023827 -0.003357 -0.003036 0.000000 0.000000 0.000000
# 2 -0.003357 0.014854 -0.001844 0.000000 0.000000 0.000000
# 3 -0.003036 -0.001844 0.005071 0.000000 0.000000 0.000000
# 4 0.000000 0.000000 0.000000 0.000191 0.000000 0.000000
# 5 0.000000 0.000000 0.000000 0.000000 0.017761 0.000000
# 6 0.000000 0.000000 0.000000 0.000000 0.000000 0.097141
#
#
# Mechanical properties :
#
#
# Convention : Reuss Voigt Hill
#
# Bulk Modulus (GPa) = 36.65942 58.64594 47.65268
# Shear Modulus (GPa) = 27.11306 1076.26543 551.68925
#
# Velocity S-wave (km/s) = 3.42062 21.55141 15.42990
# Velocity P-wave (km/s) = 5.60547 25.38883 18.38497
#
# Compressibility (1/GPa) = 0.02727812
#
# Stress axis : x y z
#
# Youngs Moduli (GPa) = 41.96840 67.31992 197.20405
#
# Poissons Ratio (x) = 0.22602 0.59870
# Poissons Ratio (y) = 0.14091 0.36363
# Poissons Ratio (z) = 0.12741 0.12413
#
# Static dielectric constant tensor:
#      x y z
#    x 1.110730 0.000000 0.000000 
#    y 0.000000 1.930420 0.000000 
#    z 0.000000 0.000000 1.848460 
# 
# From -- ./inp_files/21643.got.cif
#   From: 2010.05.17/outbox.cif.g08.bks.cpg/sg20_11_cif.got.tgz:21643.got - 2010.06.03 22:52:26.
