data_PCOD9318648
_publ_section_title
;
Structure prediction by ZEFSAII (Michael W. Deem and Ramdas Pophale) SiO2 
 PCOD9318648
Probable space group: C 2 2 21
;
_chemical_formula_sum "Si O2"
_cell_formula_units_Z 44
_cell_length_a 7.820895
_cell_length_b 30.627645
_cell_length_c 8.325989
_cell_angle_alpha 90.000000
_cell_angle_beta 90.000000
_cell_angle_gamma 90.000000
_cell_volume 1994.370734
_symmetry_space_group_name_H-M "C 2 2 21"
_symmetry_group_IT_number 20
_symmetry_cell_setting 'orthorhombic'
loop_
_space_group_symop_operation_xyz
x,y,z
-x,-y,1/2+z
x,-y,-z
-x,y,1/2-z
1/2+x,1/2+y,z
1/2-x,1/2-y,1/2+z
1/2+x,1/2-y,-z
1/2-x,1/2+y,1/2-z
loop_
_atom_site_type_symbol
_atom_site_label
_atom_site_fract_x
_atom_site_fract_y
_atom_site_fract_z
Si Si1 0.000000 0.540967 0.250000
Si Si2 0.582770 0.409324 0.009396
Si Si3 0.241215 0.389697 0.829936
Si Si4 0.224076 0.292455 0.712738
Si Si5 0.441045 0.271711 0.999005
Si Si6 0.257826 0.500000 0.500000
Si Si7 0.000000 0.157704 0.750000
O O1 0.905675 0.575559 0.367219
O O2 0.865351 0.513029 0.148467
O O3 0.389368 0.397777 0.958553
O O4 0.685487 0.402366 0.845255
O O5 0.623995 0.459153 0.051224
O O6 0.621727 0.374632 0.148557
O O7 0.195973 0.339641 0.793431
O O8 0.390379 0.289409 0.592688
O O9 0.073228 0.272306 0.604340
O O10 0.298227 0.265186 0.862457
O O11 0.403095 0.309763 0.128271
#
# Coordination Sequence:
#
# PCOD9318648 Si02
#       7
#     4   8   8   8   8   4   4
#     4  10  24  41  70  94 140 160 218 283 360 404
#     4  10  21  39  67  91 131 171 232 264 338 425
#     4  10  20  43  64  93 128 185 213 270 347 420
#     4  11  22  42  62  97 132 179 222 281 332 413
#     4  11  23  38  65  93 135 170 230 274 336 395
#     4  10  24  44  64 100 128 176 214 294 340 416
#     4  12  20  37  62  98 120 178 220 281 310 408
#
# _framework density 22.062096
#
# number of rings (size 3 to 8) (size 9 to 14) (size 15 to 20)
#    0.000    1.455    3.636    2.182    0.000    7.273 
#    0.000    0.000    0.000    0.000    0.000    0.000 
#    0.000    0.000    0.000    0.000    0.000    0.000 
#
# Total GULP energy -122618.086348 kJ/mol
# GULP energy per Si atom -5573.549379 kJ/mol
# Density = 2.201188 g / cm^3
# Si number density = 22.062096 Si / 1000 Ang^3
#
#
#
# Elastic Constant Matrix: (Units=GPa)
#
#
# Indices 1 2 3 4 5 6 
#
# 1 74.5243 36.7135 20.1745 0.0000 0.0000 0.0000
# 2 36.7135 164.6525 48.3408 0.0000 0.0000 0.0000
# 3 20.1745 48.3408 99.2470 0.0000 0.0000 0.0000
# 4 0.0000 0.0000 0.0000 28.2631 0.0000 0.0000
# 5 0.0000 0.0000 0.0000 0.0000 28.2386 0.0000
# 6 0.0000 0.0000 0.0000 0.0000 0.0000 28.8538
#
#
#
# Elastic Compliance Matrix: (Units=1/GPa)
#
#
# Indices 1 2 3 4 5 6 
#
# 1 0.015314 -0.002918 -0.001692 0.000000 0.000000 0.000000
# 2 -0.002918 0.007643 -0.003129 0.000000 0.000000 0.000000
# 3 -0.001692 -0.003129 0.011944 0.000000 0.000000 0.000000
# 4 0.000000 0.000000 0.000000 0.035382 0.000000 0.000000
# 5 0.000000 0.000000 0.000000 0.000000 0.035412 0.000000
# 6 0.000000 0.000000 0.000000 0.000000 0.000000 0.034657
#
#
# Mechanical properties :
#
#
# Convention : Reuss Voigt Hill
#
# Bulk Modulus (GPa) = 51.48661 60.98682 56.23672
# Shear Modulus (GPa) = 30.80621 32.61744 31.71183
#
# Velocity S-wave (km/s) = 3.74082 3.84922 3.79541
# Velocity P-wave (km/s) = 6.48430 6.88902 6.68972
#
# Compressibility (1/GPa) = 0.01942252
#
# Stress axis : x y z
#
# Youngs Moduli (GPa) = 65.30012 130.84163 83.72371
#
# Poissons Ratio (x) = 0.38179 0.14163
# Poissons Ratio (y) = 0.19054 0.26201
# Poissons Ratio (z) = 0.11047 0.40947
#
# Static dielectric constant tensor:
#      x y z
#    x 1.937700 0.000000 0.000000 
#    y 0.000000 1.857190 0.000000 
#    z 0.000000 0.000000 1.854250 
# 
# From -- ./inp_files/6422.got.cif
#   From: 2010.05.17/outbox.cif.g08.bks.cpg/sg20_4_cif.got.tgz:6422.got - 2010.06.03 22:52:26.
