data_PCOD9318166
_publ_section_title
;
Structure prediction by ZEFSAII (Michael W. Deem and Ramdas Pophale) SiO2 
 PCOD9318166
Probable space group: C 2 2 21
;
_chemical_formula_sum "Si O2"
_cell_formula_units_Z 56
_cell_length_a 11.360936
_cell_length_b 19.591764
_cell_length_c 11.749397
_cell_angle_alpha 90.000000
_cell_angle_beta 90.000000
_cell_angle_gamma 90.000000
_cell_volume 2615.189913
_symmetry_space_group_name_H-M "C 2 2 21"
_symmetry_group_IT_number 20
_symmetry_cell_setting 'orthorhombic'
loop_
_space_group_symop_operation_xyz
x,y,z
-x,-y,1/2+z
x,-y,-z
-x,y,1/2-z
1/2+x,1/2+y,z
1/2-x,1/2-y,1/2+z
1/2+x,1/2-y,-z
1/2-x,1/2+y,1/2-z
loop_
_atom_site_type_symbol
_atom_site_label
_atom_site_fract_x
_atom_site_fract_y
_atom_site_fract_z
Si Si1 0.241556 0.566959 0.289723
Si Si2 0.500000 0.611181 0.250000
Si Si3 0.768456 0.794358 0.361874
Si Si4 0.149204 0.647473 0.096185
Si Si5 0.621052 0.815892 0.565060
Si Si6 0.962387 0.868133 0.497936
Si Si7 0.692951 0.339635 0.383772
Si Si8 0.797071 0.000000 0.500000
O O1 0.378690 0.568918 0.253432
O O2 0.171004 0.580819 0.173795
O O3 0.204306 0.632355 0.366473
O O4 0.225507 0.506615 0.381703
O O5 0.497405 0.649679 0.371720
O O6 0.779255 0.712263 0.348613
O O7 0.654900 0.817260 0.432552
O O8 0.881882 0.810845 0.440564
O O9 0.777553 0.838478 0.248282
O O10 0.012029 0.665025 0.093063
O O11 0.202764 0.642004 0.969988
O O12 0.653009 0.738838 0.597100
O O13 0.882229 0.935069 0.496880
O O14 0.078401 0.880825 0.423565
#
# Coordination Sequence:
#
# PCOD9318166 Si02
#       8
#     8   4   8   8   8   8   8   4
#     4  11  21  42  65  95 133 175 237 282 339 419
#     4  10  20  38  62  92 132 172 222 282 322 404
#     4  11  22  39  60  98 141 179 228 287 346 420
#     4  11  23  38  64  98 140 179 229 293 348 422
#     4  11  22  39  63  96 138 182 233 285 359 407
#     4  11  21  42  63  96 137 176 233 280 349 406
#     4  11  23  38  59  99 144 176 229 291 358 407
#     4  10  24  42  68  96 130 186 224 278 338 420
#
# _framework density 21.413359
#
# number of rings (size 3 to 8) (size 9 to 14) (size 15 to 20)
#    0.000    1.143    7.143    0.857    0.000    0.571 
#   10.286    0.000    0.000    4.286    0.000    0.000 
#    0.000    0.000    0.000    0.000    0.000    0.000 
#
# Total GULP energy -156222.428391 kJ/mol
# GULP energy per Si atom -5579.372443 kJ/mol
# Density = 2.136462 g / cm^3
# Si number density = 21.413359 Si / 1000 Ang^3
#
#
#
# Elastic Constant Matrix: (Units=GPa)
#
#
# Indices 1 2 3 4 5 6 
#
# 1 89.3165 13.2452 30.9362 0.0000 0.0000 0.0000
# 2 13.2452 34.6421 16.3607 0.0000 0.0000 0.0000
# 3 30.9362 16.3607 171.0629 0.0000 0.0000 0.0000
# 4 0.0000 0.0000 0.0000 32.7721 0.0000 0.0000
# 5 0.0000 0.0000 0.0000 0.0000 24.7257 0.0000
# 6 0.0000 0.0000 0.0000 0.0000 0.0000 20.3031
#
#
#
# Elastic Compliance Matrix: (Units=1/GPa)
#
#
# Indices 1 2 3 4 5 6 
#
# 1 0.012419 -0.003862 -0.001877 0.000000 0.000000 0.000000
# 2 -0.003862 0.031433 -0.002308 0.000000 0.000000 0.000000
# 3 -0.001877 -0.002308 0.006406 0.000000 0.000000 0.000000
# 4 0.000000 0.000000 0.000000 0.030514 0.000000 0.000000
# 5 0.000000 0.000000 0.000000 0.000000 0.040444 0.000000
# 6 0.000000 0.000000 0.000000 0.000000 0.000000 0.049254
#
#
# Mechanical properties :
#
#
# Convention : Reuss Voigt Hill
#
# Bulk Modulus (GPa) = 29.26969 46.23399 37.75184
# Shear Modulus (GPa) = 25.25888 31.19214 28.22551
#
# Velocity S-wave (km/s) = 3.43823 3.82077 3.63454
# Velocity P-wave (km/s) = 5.42775 6.41112 5.93982
#
# Compressibility (1/GPa) = 0.03416503
#
# Stress axis : x y z
#
# Youngs Moduli (GPa) = 80.52295 31.81350 156.10617
#
# Poissons Ratio (x) = 0.12286 0.29294
# Poissons Ratio (y) = 0.31098 0.36028
# Poissons Ratio (z) = 0.15110 0.07342
#
# Static dielectric constant tensor:
#      x y z
#    x 1.773960 0.000000 0.000000 
#    y 0.000000 1.822330 0.000000 
#    z 0.000000 0.000000 1.859780 
# 
# From -- ./inp_files/14471.got.cif
#   From: 2010.05.17/outbox.cif.g08.bks.cpg/sg20_8_cif.got.tgz:14471.got - 2010.06.03 22:52:26.
