data_PCOD9318324
_publ_section_title
;
Structure prediction by ZEFSAII (Michael W. Deem and Ramdas Pophale) SiO2 
 PCOD9318324
Probable space group: C 2 2 21
;
_chemical_formula_sum "Si O2"
_cell_formula_units_Z 64
_cell_length_a 19.294784
_cell_length_b 31.217253
_cell_length_c 5.069725
_cell_angle_alpha 90.000000
_cell_angle_beta 90.000000
_cell_angle_gamma 90.000000
_cell_volume 3053.648239
_symmetry_space_group_name_H-M "C 2 2 21"
_symmetry_group_IT_number 20
_symmetry_cell_setting 'orthorhombic'
loop_
_space_group_symop_operation_xyz
x,y,z
-x,-y,1/2+z
x,-y,-z
-x,y,1/2-z
1/2+x,1/2+y,z
1/2-x,1/2-y,1/2+z
1/2+x,1/2-y,-z
1/2-x,1/2+y,1/2-z
loop_
_atom_site_type_symbol
_atom_site_label
_atom_site_fract_x
_atom_site_fract_y
_atom_site_fract_z
Si Si1 0.573585 0.123778 0.392454
Si Si2 0.573585 0.376222 0.107546
Si Si3 0.750000 0.093381 0.000000
Si Si4 0.672207 0.952731 0.605459
Si Si5 0.641501 0.659627 0.375685
Si Si6 0.295970 0.250000 0.750002
Si Si7 0.141501 0.340373 0.124314
Si Si8 0.172207 0.952731 0.105459
O O1 0.500000 0.119287 0.250000
O O2 0.608713 0.078133 0.456376
O O3 0.581395 0.148737 0.666754
O O4 0.620094 0.148186 0.173657
O O5 0.500000 0.380714 0.250000
O O6 0.620093 0.351814 0.326343
O O7 0.608714 0.421868 0.043625
O O8 0.581395 0.351263 0.833246
O O9 0.707201 0.127982 0.822049
O O10 0.810323 0.060331 0.907213
O O11 0.689677 0.060331 0.092787
O O12 0.792799 0.127982 0.177952
O O13 0.750000 0.942293 0.500000
O O14 0.658303 0.000000 0.500000
O O15 0.661694 0.708697 0.342718
O O16 0.249999 0.263579 0.500004
O O17 0.338306 0.208697 0.657282
O O18 0.158304 0.000000 0.000000
#
# Coordination Sequence:
#
# PCOD9318324 Si02
#       8
#     8   8   8   8   8   8   8   8
#     4  11  24  45  66  92 136 187 228 269 343 421
#     4  11  24  45  66  92 136 187 228 269 343 421
#     4  10  20  39  64  98 136 168 218 286 355 404
#     4  10  21  38  64  96 127 165 224 288 343 398
#     4  11  23  41  66  98 133 179 218 283 340 413
#     4  12  24  38  67 108 143 164 226 294 346 398
#     4  11  23  41  66  98 133 179 218 283 340 413
#     4  10  21  38  64  96 127 165 224 288 343 398
#
# _framework density 20.958535000000001
#
# number of rings (size 3 to 8) (size 9 to 14) (size 15 to 20)
#    0.000    1.250    3.750    2.250    3.500    2.000 
#    0.000    6.250    0.000    0.000    0.000    0.000 
#    0.000    0.000    0.000    0.000    0.000    0.000 
#
# Total GULP energy -178206.053946 kJ/mol
# GULP energy per Si atom -5568.939186 kJ/mol
# Density = 2.091083 g / cm^3
# Si number density = 20.958535 Si / 1000 Ang^3
#
#
#
# Elastic Constant Matrix: (Units=GPa)
#
#
# Indices 1 2 3 4 5 6 
#
# 1 84.9780 47.2981 9.4764 0.0000 0.0000 0.0000
# 2 47.2981 182.0017 26.4700 0.0000 0.0000 0.0000
# 3 9.4764 26.4700 63.8954 0.0000 0.0000 0.0000
# 4 0.0000 0.0000 0.0000 31.1313 0.0000 0.0000
# 5 0.0000 0.0000 0.0000 0.0000 37.6556 0.0000
# 6 0.0000 0.0000 0.0000 0.0000 0.0000 -30.1216
#
#
#
# Elastic Compliance Matrix: (Units=1/GPa)
#
#
# Indices 1 2 3 4 5 6 
#
# 1 0.013779 -0.003494 -0.000596 0.000000 0.000000 0.000000
# 2 -0.003494 0.006733 -0.002271 0.000000 0.000000 0.000000
# 3 -0.000596 -0.002271 0.016680 0.000000 0.000000 0.000000
# 4 0.000000 0.000000 0.000000 0.032122 0.000000 0.000000
# 5 0.000000 0.000000 0.000000 0.000000 0.026556 0.000000
# 6 0.000000 0.000000 0.000000 0.000000 0.000000 -0.033199
#
#
# Mechanical properties :
#
#
# Convention : Reuss Voigt Hill
#
# Bulk Modulus (GPa) = 40.86767 55.26268 48.06517
# Shear Modulus (GPa) = 59.84430 24.24177 42.04304
#
# Velocity S-wave (km/s) = 5.34936 3.40465 4.48371
# Velocity P-wave (km/s) = 7.59578 6.47151 7.05607
#
# Compressibility (1/GPa) = 0.02446922
#
# Stress axis : x y z
#
# Youngs Moduli (GPa) = 72.57395 148.52671 59.95283
#
# Poissons Ratio (x) = 0.51898 0.03573
# Poissons Ratio (y) = 0.25359 0.13615
# Poissons Ratio (z) = 0.04326 0.33730
#
# Static dielectric constant tensor:
#      x y z
#    x 1.795150 0.000000 0.000000 
#    y 0.000000 1.727280 0.000000 
#    z 0.000000 0.000000 2.254540 
# 
# From -- ./inp_files/3394.got.cif
#   From: 2010.05.17/outbox.cif.g08.bks.cpg/sg20_2_cif.got.tgz:3394.got - 2010.06.03 22:52:26.
