data_PCOD9318235
_publ_section_title
;
Structure prediction by ZEFSAII (Michael W. Deem and Ramdas Pophale) SiO2 
 PCOD9318235
Probable space group: C 2 2 21
;
_chemical_formula_sum "Si O2"
_cell_formula_units_Z 48
_cell_length_a 32.207635
_cell_length_b 8.984827
_cell_length_c 8.434241
_cell_angle_alpha 90.000000
_cell_angle_beta 90.000000
_cell_angle_gamma 90.000000
_cell_volume 2440.700901
_symmetry_space_group_name_H-M "C 2 2 21"
_symmetry_group_IT_number 20
_symmetry_cell_setting 'orthorhombic'
loop_
_space_group_symop_operation_xyz
x,y,z
-x,-y,1/2+z
x,-y,-z
-x,y,1/2-z
1/2+x,1/2+y,z
1/2-x,1/2-y,1/2+z
1/2+x,1/2-y,-z
1/2-x,1/2+y,1/2-z
loop_
_atom_site_type_symbol
_atom_site_label
_atom_site_fract_x
_atom_site_fract_y
_atom_site_fract_z
Si Si1 0.587087 0.000000 0.500000
Si Si2 0.906658 0.000000 0.000000
Si Si3 0.275984 0.132496 0.280629
Si Si4 0.951657 0.243347 0.212305
Si Si5 0.861342 0.744885 0.187262
Si Si6 0.114588 0.677322 0.963203
Si Si7 0.796348 0.694987 0.649007
O O1 0.559533 0.887406 0.395619
O O2 0.616199 0.898616 0.610819
O O3 0.934698 0.900235 0.882347
O O4 0.877543 0.112945 0.904817
O O5 0.311895 0.220785 0.186650
O O6 0.230489 0.175031 0.223882
O O7 0.283206 0.173062 0.465193
O O8 0.284680 0.958065 0.264010
O O9 0.925946 0.267535 0.374059
O O10 0.000000 0.232980 0.250000
O O11 0.876303 0.753390 0.369129
O O12 0.154184 0.710427 0.851157
O O13 0.113864 0.500000 0.000000
#
# Coordination Sequence:
#
# PCOD9318235 Si02
#       7
#     4   4   8   8   8   8   8
#     4  10  20  38  66  96 124 162 214 264 308 378
#     4  10  26  44  58  98 134 164 204 262 336 388
#     4  10  21  37  58  87 121 161 209 259 303 378
#     4  11  25  41  67  97 128 167 211 265 326 383
#     4  10  21  41  66  90 128 168 211 255 319 379
#     4  11  20  43  68  89 125 171 214 263 318 379
#     4  10  21  38  58  87 124 159 209 259 317 366
#
# _framework density 19.666482999999999
#
# number of rings (size 3 to 8) (size 9 to 14) (size 15 to 20)
#    0.000    1.667    5.000    0.000    1.167    9.333 
#    0.000    6.667    0.000    0.000    0.000    0.000 
#    0.000    0.000    0.000    0.000    0.000    0.000 
#
# Total GULP energy -134170.190275 kJ/mol
# GULP energy per Si atom -5590.424595 kJ/mol
# Density = 1.962172 g / cm^3
# Si number density = 19.666483 Si / 1000 Ang^3
#
#
#
# Elastic Constant Matrix: (Units=GPa)
#
#
# Indices 1 2 3 4 5 6 
#
# 1 150.8323 55.9195 43.5227 0.0000 0.0000 0.0000
# 2 55.9195 91.3982 32.6790 0.0000 0.0000 0.0000
# 3 43.5227 32.6790 43.6521 0.0000 0.0000 0.0000
# 4 0.0000 0.0000 0.0000 27.2367 0.0000 0.0000
# 5 0.0000 0.0000 0.0000 0.0000 32.6268 0.0000
# 6 0.0000 0.0000 0.0000 0.0000 0.0000 10.7027
#
#
#
# Elastic Compliance Matrix: (Units=1/GPa)
#
#
# Indices 1 2 3 4 5 6 
#
# 1 0.010070 -0.003511 -0.007412 0.000000 0.000000 0.000000
# 2 -0.003511 0.016164 -0.008600 0.000000 0.000000 0.000000
# 3 -0.007412 -0.008600 0.036737 0.000000 0.000000 0.000000
# 4 0.000000 0.000000 0.000000 0.036715 0.000000 0.000000
# 5 0.000000 0.000000 0.000000 0.000000 0.030650 0.000000
# 6 0.000000 0.000000 0.000000 0.000000 0.000000 0.093435
#
#
# Mechanical properties :
#
#
# Convention : Reuss Voigt Hill
#
# Bulk Modulus (GPa) = 41.79785 61.12500 51.46142
# Shear Modulus (GPa) = 18.46433 24.36399 21.41416
#
# Velocity S-wave (km/s) = 3.06743 3.52356 3.30338
# Velocity P-wave (km/s) = 5.81764 6.90668 6.38542
#
# Compressibility (1/GPa) = 0.02392468
#
# Stress axis : x y z
#
# Youngs Moduli (GPa) = 99.30174 61.86479 27.22077
#
# Poissons Ratio (x) = 0.21722 0.20176
# Poissons Ratio (y) = 0.34866 0.23410
# Poissons Ratio (z) = 0.73602 0.53205
#
# Static dielectric constant tensor:
#      x y z
#    x 1.653830 0.000000 0.000000 
#    y 0.000000 1.675770 0.000000 
#    z 0.000000 0.000000 1.702640 
# 
# From -- ./inp_files/11497.got.cif
#   From: 2010.05.17/outbox.cif.g08.bks.cpg/sg20_6_cif.got.tgz:11497.got - 2010.06.03 22:52:26.
