data_PCOD9318092
_publ_section_title
;
Structure prediction by ZEFSAII (Michael W. Deem and Ramdas Pophale) SiO2 
 PCOD9318092
Probable space group: C 2 2 21
;
_chemical_formula_sum "Si O2"
_cell_formula_units_Z 64
_cell_length_a 16.876900
_cell_length_b 21.797503
_cell_length_c 7.633082
_cell_angle_alpha 90.000000
_cell_angle_beta 90.000000
_cell_angle_gamma 90.000000
_cell_volume 2808.014533
_symmetry_space_group_name_H-M "C 2 2 21"
_symmetry_group_IT_number 20
_symmetry_cell_setting 'orthorhombic'
loop_
_space_group_symop_operation_xyz
x,y,z
-x,-y,1/2+z
x,-y,-z
-x,y,1/2-z
1/2+x,1/2+y,z
1/2-x,1/2-y,1/2+z
1/2+x,1/2-y,-z
1/2-x,1/2+y,1/2-z
loop_
_atom_site_type_symbol
_atom_site_label
_atom_site_fract_x
_atom_site_fract_y
_atom_site_fract_z
Si Si1 0.329147 0.566232 0.085903
Si Si2 0.069714 0.362581 0.361431
Si Si3 0.917552 0.735211 0.154323
Si Si4 0.687599 0.855848 0.805008
Si Si5 0.208387 0.430541 0.441721
Si Si6 0.022493 0.144640 0.458498
Si Si7 0.120065 0.065687 0.006391
Si Si8 0.548401 0.058658 0.079947
O O1 0.261680 0.620026 0.079461
O O2 0.413321 0.590780 0.018719
O O3 0.347455 0.563564 0.294507
O O4 0.308229 0.500000 0.000000
O O5 0.094169 0.309475 0.491095
O O6 0.148657 0.398844 0.304132
O O7 0.000000 0.332602 0.250000
O O8 0.019254 0.415625 0.454962
O O9 0.841530 0.715009 0.275195
O O10 0.000000 0.717532 0.250000
O O11 0.938272 0.799985 0.065877
O O12 0.701081 0.888840 0.616456
O O13 0.609676 0.888449 0.879583
O O14 0.186741 0.500000 0.500000
O O15 0.300533 0.431604 0.389735
O O16 0.000000 0.156348 0.250000
O O17 0.938646 0.120944 0.531640
O O18 0.077401 0.000000 0.000000
O O19 0.500000 0.039811 0.250000
O O20 0.590434 0.000000 0.000000
#
# Coordination Sequence:
#
# PCOD9318092 Si02
#       8
#     8   8   8   8   8   8   8   8
#     4  10  21  39  63  96 132 161 209 276 336 407
#     4  11  21  34  56  82 121 166 211 261 319 389
#     4  11  21  42  61  83 122 166 215 268 311 388
#     4  10  20  38  56  81 125 163 196 256 320 371
#     4   9  18  33  54  83 124 157 200 256 320 379
#     4  10  22  40  67  93 120 169 223 269 334 395
#     4   9  19  38  62  92 130 164 203 272 337 398
#     4  12  21  33  53  84 118 160 210 255 314 388
#
# _framework density 22.791905
#
# number of rings (size 3 to 8) (size 9 to 14) (size 15 to 20)
#    0.000    1.750    3.750    1.875    1.750    1.000 
#    2.250    5.000    0.000    0.000    0.000    0.000 
#    0.000    0.000    0.000    0.000    0.000    0.000 
#
# Total GULP energy -178184.148621 kJ/mol
# GULP energy per Si atom -5568.254644 kJ/mol
# Density = 2.274003 g / cm^3
# Si number density = 22.791905 Si / 1000 Ang^3
#
#
#
# Elastic Constant Matrix: (Units=GPa)
#
#
# Indices 1 2 3 4 5 6 
#
# 1 124.0162 51.6238 15.4165 0.0000 0.0000 0.0000
# 2 51.6238 93.9843 5.2712 0.0000 0.0000 0.0000
# 3 15.4165 5.2712 24.5271 0.0000 0.0000 0.0000
# 4 0.0000 0.0000 0.0000 78.6796 0.0000 0.0000
# 5 0.0000 0.0000 0.0000 0.0000 17.1840 0.0000
# 6 0.0000 0.0000 0.0000 0.0000 0.0000 36.1273
#
#
#
# Elastic Compliance Matrix: (Units=1/GPa)
#
#
# Indices 1 2 3 4 5 6 
#
# 1 0.011212 -0.005834 -0.005794 0.000000 0.000000 0.000000
# 2 -0.005834 0.013805 0.000700 0.000000 0.000000 0.000000
# 3 -0.005794 0.000700 0.044262 0.000000 0.000000 0.000000
# 4 0.000000 0.000000 0.000000 0.012710 0.000000 0.000000
# 5 0.000000 0.000000 0.000000 0.000000 0.058194 0.000000
# 6 0.000000 0.000000 0.000000 0.000000 0.000000 0.027680
#
#
# Mechanical properties :
#
#
# Convention : Reuss Voigt Hill
#
# Bulk Modulus (GPa) = 21.08604 43.01675 32.05139
# Shear Modulus (GPa) = 24.32783 37.74591 31.03687
#
# Velocity S-wave (km/s) = 3.27064 4.07395 3.69419
# Velocity P-wave (km/s) = 4.85122 6.40657 5.68236
#
# Compressibility (1/GPa) = 0.04742475
#
# Stress axis : x y z
#
# Youngs Moduli (GPa) = 89.19023 72.43696 22.59253
#
# Poissons Ratio (x) = 0.42257 0.13089
# Poissons Ratio (y) = 0.52030 -0.01581
# Poissons Ratio (z) = 0.51673 -0.05069
#
# Static dielectric constant tensor:
#      x y z
#    x 1.461300 0.000000 0.000000 
#    y 0.000000 1.858520 0.000000 
#    z 0.000000 0.000000 1.985030 
# 
# From -- ./inp_files/9631.got.cif
#   From: 2010.05.17/outbox.cif.g08.bks.cpg/sg20_5_cif.got.tgz:9631.got - 2010.06.03 22:52:26.
