data_PCOD9318949
_publ_section_title
;
Structure prediction by ZEFSAII (Michael W. Deem and Ramdas Pophale) SiO2 
 PCOD9318949
Probable space group: C 2 2 21
;
_chemical_formula_sum "Si O2"
_cell_formula_units_Z 40
_cell_length_a 13.154440
_cell_length_b 15.663106
_cell_length_c 8.752530
_cell_angle_alpha 90.000000
_cell_angle_beta 90.000000
_cell_angle_gamma 90.000000
_cell_volume 1803.365925
_symmetry_space_group_name_H-M "C 2 2 21"
_symmetry_group_IT_number 20
_symmetry_cell_setting 'orthorhombic'
loop_
_space_group_symop_operation_xyz
x,y,z
-x,-y,1/2+z
x,-y,-z
-x,y,1/2-z
1/2+x,1/2+y,z
1/2-x,1/2-y,1/2+z
1/2+x,1/2-y,-z
1/2-x,1/2+y,1/2-z
loop_
_atom_site_type_symbol
_atom_site_label
_atom_site_fract_x
_atom_site_fract_y
_atom_site_fract_z
Si Si1 0.000000 0.018605 0.250000
Si Si2 0.149877 0.866707 0.959837
Si Si3 0.640480 0.831415 0.034765
Si Si4 0.500000 0.946847 0.250000
Si Si5 0.181690 0.921935 0.310897
Si Si6 0.669730 0.927926 0.732770
O O1 0.926993 0.076391 0.357138
O O2 0.929216 0.956192 0.148076
O O3 0.119560 0.768213 0.948951
O O4 0.262327 0.881052 0.890857
O O5 0.163699 0.892967 0.135946
O O6 0.562977 0.887495 0.135182
O O7 0.755500 0.852405 0.094059
O O8 0.632349 0.862707 0.861001
O O9 0.419844 0.011759 0.173866
O O10 0.254145 0.004821 0.313970
#
# Coordination Sequence:
#
# PCOD9318949 Si02
#       6
#     4   8   8   4   8   8
#     4  10  21  38  61  88 122 164 202 240 299 374
#     4  11  23  41  64  94 125 158 204 261 308 353
#     4  11  23  41  64  94 125 158 204 261 308 353
#     4  10  21  38  61  88 122 164 202 240 299 374
#     4  10  22  40  63  90 122 165 206 245 303 374
#     4  10  22  40  63  90 122 165 206 245 303 374
#
# _framework density 22.180745999999999
#
# number of rings (size 3 to 8) (size 9 to 14) (size 15 to 20)
#    0.000    1.600    0.000    6.600    0.000   12.800 
#    0.000   12.000    0.000    0.000    0.000    0.000 
#    0.000    0.000    0.000    0.000    0.000    0.000 
#
# Total GULP energy -111779.757746 kJ/mol
# GULP energy per Si atom -5588.987887 kJ/mol
# Density = 2.213026 g / cm^3
# Si number density = 22.180746 Si / 1000 Ang^3
#
#
#
# Elastic Constant Matrix: (Units=GPa)
#
#
# Indices 1 2 3 4 5 6 
#
# 1 115.4427 45.6272 35.5582 0.0000 0.0000 0.0000
# 2 45.6272 103.6406 44.6955 0.0000 0.0000 0.0000
# 3 35.5582 44.6955 123.6830 0.0000 0.0000 0.0000
# 4 0.0000 0.0000 0.0000 -4.9131 0.0000 0.0000
# 5 0.0000 0.0000 0.0000 0.0000 26.4527 0.0000
# 6 0.0000 0.0000 0.0000 0.0000 0.0000 24.1293
#
#
#
# Elastic Compliance Matrix: (Units=1/GPa)
#
#
# Indices 1 2 3 4 5 6 
#
# 1 0.010760 -0.004031 -0.001637 0.000000 0.000000 0.000000
# 2 -0.004031 0.012940 -0.003517 0.000000 0.000000 0.000000
# 3 -0.001637 -0.003517 0.009827 0.000000 0.000000 0.000000
# 4 0.000000 0.000000 0.000000 -0.203536 0.000000 0.000000
# 5 0.000000 0.000000 0.000000 0.000000 0.037803 0.000000
# 6 0.000000 0.000000 0.000000 0.000000 0.000000 0.041443
#
#
# Mechanical properties :
#
#
# Convention : Reuss Voigt Hill
#
# Bulk Modulus (GPa) = 65.97779 66.05868 66.01823
# Shear Modulus (GPa) = -74.25015 23.59278 -25.32868
#
# Velocity S-wave (km/s) = -5.79204 3.26492 -3.38290
# Velocity P-wave (km/s) = 3.86267 6.63774 3.81703
#
# Compressibility (1/GPa) = 0.01515662
#
# Stress axis : x y z
#
# Youngs Moduli (GPa) = 92.93988 77.27825 101.76290
#
# Poissons Ratio (x) = 0.31151 0.16655
# Poissons Ratio (y) = 0.37465 0.35793
# Poissons Ratio (z) = 0.15211 0.27181
#
# Static dielectric constant tensor:
#      x y z
#    x 1.861880 0.000000 0.000000 
#    y 0.000000 1.778630 0.000000 
#    z 0.000000 0.000000 1.828190 
# 
# From -- ./inp_files/8144.got.cif
#   From: 2010.05.17/outbox.cif.g08.bks.cpg/sg20_5_cif.got.tgz:8144.got - 2010.06.03 22:52:26.
