data_PCOD9318030
_publ_section_title
;
Structure prediction by ZEFSAII (Michael W. Deem and Ramdas Pophale) SiO2 
 PCOD9318030
Probable space group: C 2 2 21
;
_chemical_formula_sum "Si O2"
_cell_formula_units_Z 40
_cell_length_a 17.506757
_cell_length_b 7.602020
_cell_length_c 10.591604
_cell_angle_alpha 90.000000
_cell_angle_beta 90.000000
_cell_angle_gamma 90.000000
_cell_volume 1409.601803
_symmetry_space_group_name_H-M "C 2 2 21"
_symmetry_group_IT_number 20
_symmetry_cell_setting 'orthorhombic'
loop_
_space_group_symop_operation_xyz
x,y,z
-x,-y,1/2+z
x,-y,-z
-x,y,1/2-z
1/2+x,1/2+y,z
1/2-x,1/2-y,1/2+z
1/2+x,1/2-y,-z
1/2-x,1/2+y,1/2-z
loop_
_atom_site_type_symbol
_atom_site_label
_atom_site_fract_x
_atom_site_fract_y
_atom_site_fract_z
Si Si1 0.655885 0.888433 0.137467
Si Si2 0.702744 0.485385 0.760374
Si Si3 0.433139 0.298942 0.000694
Si Si4 0.310703 0.000000 0.000000
Si Si5 0.909346 0.823315 0.410424
Si Si6 0.000000 0.625756 0.750000
O O1 0.670290 0.709238 0.220680
O O2 0.737234 0.984408 0.149509
O O3 0.578888 0.966339 0.203250
O O4 0.633957 0.819230 0.997828
O O5 0.634786 0.623639 0.783677
O O6 0.756679 0.516697 0.881103
O O7 0.474910 0.244155 0.869256
O O8 0.407485 0.500000 0.000000
O O9 0.502036 0.277903 0.099235
O O10 0.364768 0.166274 0.017898
O O11 0.908687 0.000000 0.500000
#
# Coordination Sequence:
#
# PCOD9318030 Si02
#       6
#     8   8   8   4   8   4
#     4  10  20  37  62  85 122 164 203 257 314 371
#     4  11  21  41  61  91 126 163 206 264 320 371
#     4  10  22  41  67  92 128 172 213 258 320 381
#     4  12  22  42  66  96 130 166 208 276 310 370
#     4   8  17  39  62  79 122 170 199 247 320 370
#     4  10  20  40  64  88 124 172 214 252 314 386
#
# _framework density 28.376809000000002
#
# number of rings (size 3 to 8) (size 9 to 14) (size 15 to 20)
#    0.000    2.000    5.000    1.200    0.000    1.600 
#    7.200    1.000    0.000    0.000    0.000    0.000 
#    0.000    0.000    0.000    0.000    0.000    0.000 
#
# Total GULP energy -112302.819572 kJ/mol
# GULP energy per Si atom -5615.140979 kJ/mol
# Density = 2.831222 g / cm^3
# Si number density = 28.376809 Si / 1000 Ang^3
#
#
#
# Elastic Constant Matrix: (Units=GPa)
#
#
# Indices 1 2 3 4 5 6 
#
# 1 228.5684 55.8766 60.0145 0.0000 0.0000 0.0000
# 2 55.8766 96.7234 13.5058 0.0000 0.0000 0.0000
# 3 60.0145 13.5058 115.1185 0.0000 0.0000 0.0000
# 4 0.0000 0.0000 0.0000 39.3745 0.0000 0.0000
# 5 0.0000 0.0000 0.0000 0.0000 54.4768 0.0000
# 6 0.0000 0.0000 0.0000 0.0000 0.0000 48.9969
#
#
#
# Elastic Compliance Matrix: (Units=1/GPa)
#
#
# Indices 1 2 3 4 5 6 
#
# 1 0.005807 -0.002981 -0.002678 0.000000 0.000000 0.000000
# 2 -0.002981 0.012041 0.000141 0.000000 0.000000 0.000000
# 3 -0.002678 0.000141 0.010066 0.000000 0.000000 0.000000
# 4 0.000000 0.000000 0.000000 0.025397 0.000000 0.000000
# 5 0.000000 0.000000 0.000000 0.000000 0.018356 0.000000
# 6 0.000000 0.000000 0.000000 0.000000 0.000000 0.020409
#
#
# Mechanical properties :
#
#
# Convention : Reuss Voigt Hill
#
# Bulk Modulus (GPa) = 59.24237 77.68936 68.46587
# Shear Modulus (GPa) = 45.98241 49.30386 47.64313
#
# Velocity S-wave (km/s) = 4.02981 4.17282 4.10194
# Velocity P-wave (km/s) = 6.52494 7.11715 6.82747
#
# Compressibility (1/GPa) = 0.01687981
#
# Stress axis : x y z
#
# Youngs Moduli (GPa) = 172.21336 83.04997 99.34430
#
# Poissons Ratio (x) = 0.24754 0.26600
# Poissons Ratio (y) = 0.51331 -0.01403
# Poissons Ratio (z) = 0.46111 -0.01173
#
# Static dielectric constant tensor:
#      x y z
#    x 2.130120 0.000000 0.000000 
#    y 0.000000 2.279350 0.000000 
#    z 0.000000 0.000000 2.222320 
# 
# From -- ./inp_files/15598.got.cif
#   From: 2010.05.17/outbox.cif.g08.bks.cpg/sg20_8_cif.got.tgz:15598.got - 2010.06.03 22:52:26.
