data_PCOD9318379
_publ_section_title
;
Structure prediction by ZEFSAII (Michael W. Deem and Ramdas Pophale) SiO2 
 PCOD9318379
Probable space group: C 2 2 21
;
_chemical_formula_sum "Si O2"
_cell_formula_units_Z 52
_cell_length_a 22.892988
_cell_length_b 5.467516
_cell_length_c 18.232942
_cell_angle_alpha 90.000000
_cell_angle_beta 90.000000
_cell_angle_gamma 90.000000
_cell_volume 2282.176840
_symmetry_space_group_name_H-M "C 2 2 21"
_symmetry_group_IT_number 20
_symmetry_cell_setting 'orthorhombic'
loop_
_space_group_symop_operation_xyz
x,y,z
-x,-y,1/2+z
x,-y,-z
-x,y,1/2-z
1/2+x,1/2+y,z
1/2-x,1/2-y,1/2+z
1/2+x,1/2-y,-z
1/2-x,1/2+y,1/2-z
loop_
_atom_site_type_symbol
_atom_site_label
_atom_site_fract_x
_atom_site_fract_y
_atom_site_fract_z
Si Si1 0.689910 0.436579 0.107935
Si Si2 0.169324 0.124698 0.728220
Si Si3 0.557299 0.046857 0.231957
Si Si4 0.116654 0.558071 0.919252
Si Si5 0.905446 0.752980 0.857199
Si Si6 0.881196 0.000000 0.000000
Si Si7 0.811407 0.614415 0.087355
O O1 0.699234 0.427513 0.195522
O O2 0.660085 0.176609 0.088822
O O3 0.753726 0.460286 0.073947
O O4 0.650419 0.677719 0.086790
O O5 0.115372 0.302980 0.747683
O O6 0.204860 0.231292 0.660433
O O7 0.140893 0.884754 0.694994
O O8 0.500000 0.208202 0.250000
O O9 0.571579 0.957572 0.149443
O O10 0.549287 0.847166 0.297726
O O11 0.089976 0.500000 0.000000
O O12 0.869414 0.533442 0.892309
O O13 0.918460 0.923111 0.927858
O O14 0.836307 0.208051 0.974122
#
# Coordination Sequence:
#
# PCOD9318379 Si02
#       7
#     8   8   8   8   8   4   8
#     4  11  24  40  66  94 137 181 217 264 332 394
#     4   9  21  38  60  95 127 160 222 275 323 391
#     4  10  22  44  69  92 122 170 220 280 349 404
#     4  11  25  44  64  99 136 171 222 277 330 403
#     4  10  20  40  60  92 127 166 215 276 322 399
#     4  10  22  38  58  92 138 166 224 266 326 386
#     4  10  23  35  63  91 133 179 218 264 320 396
#
# _framework density 22.785263
#
# number of rings (size 3 to 8) (size 9 to 14) (size 15 to 20)
#    0.000    1.846    1.538    0.923    7.538    1.846 
#    0.000    4.615    0.000    0.000    0.000    0.000 
#    0.000    0.000    0.000    0.000    0.000    0.000 
#
# Total GULP energy -144871.467790 kJ/mol
# GULP energy per Si atom -5571.979530 kJ/mol
# Density = 2.273340 g / cm^3
# Si number density = 22.785263 Si / 1000 Ang^3
#
#
#
# Elastic Constant Matrix: (Units=GPa)
#
#
# Indices 1 2 3 4 5 6 
#
# 1 43.0721 -0.9179 26.4704 0.0000 0.0000 0.0000
# 2 -0.9179 74.0613 14.2700 0.0000 0.0000 0.0000
# 3 26.4704 14.2700 175.9333 0.0000 0.0000 0.0000
# 4 0.0000 0.0000 0.0000 32.0607 0.0000 0.0000
# 5 0.0000 0.0000 0.0000 0.0000 -29.2112 0.0000
# 6 0.0000 0.0000 0.0000 0.0000 0.0000 73.7165
#
#
#
# Elastic Compliance Matrix: (Units=1/GPa)
#
#
# Indices 1 2 3 4 5 6 
#
# 1 0.025667 0.001079 -0.003949 0.000000 0.000000 0.000000
# 2 0.001079 0.013762 -0.001279 0.000000 0.000000 0.000000
# 3 -0.003949 -0.001279 0.006382 0.000000 0.000000 0.000000
# 4 0.000000 0.000000 0.000000 0.031191 0.000000 0.000000
# 5 0.000000 0.000000 0.000000 0.000000 -0.034233 0.000000
# 6 0.000000 0.000000 0.000000 0.000000 0.000000 0.013565
#
#
# Mechanical properties :
#
#
# Convention : Reuss Voigt Hill
#
# Bulk Modulus (GPa) = 26.65725 41.41240 34.03482
# Shear Modulus (GPa) = 64.82073 32.19616 48.50844
#
# Velocity S-wave (km/s) = 5.33950 3.76310 4.61905
# Velocity P-wave (km/s) = 7.05255 6.09063 6.58917
#
# Compressibility (1/GPa) = 0.03751325
#
# Stress axis : x y z
#
# Youngs Moduli (GPa) = 38.96060 72.66348 156.69360
#
# Poissons Ratio (x) = -0.07841 0.61883
# Poissons Ratio (y) = -0.04204 0.20035
# Poissons Ratio (z) = 0.15387 0.09291
#
# Static dielectric constant tensor:
#      x y z
#    x 1.901910 0.000000 0.000000 
#    y 0.000000 1.983540 0.000000 
#    z 0.000000 0.000000 1.894820 
# 
# From -- ./inp_files/25683.got.cif
#   From: 2010.05.17/outbox.cif.g08.bks.cpg/sg20_13_cif.got.tgz:25683.got - 2010.06.03 22:52:26.
