data_PCOD9318055
_publ_section_title
;
Structure prediction by ZEFSAII (Michael W. Deem and Ramdas Pophale) SiO2 
 PCOD9318055
Probable space group: C 2 2 21
;
_chemical_formula_sum "Si O2"
_cell_formula_units_Z 52
_cell_length_a 19.079150
_cell_length_b 8.406103
_cell_length_c 15.874795
_cell_angle_alpha 90.000000
_cell_angle_beta 90.000000
_cell_angle_gamma 90.000000
_cell_volume 2546.020260
_symmetry_space_group_name_H-M "C 2 2 21"
_symmetry_group_IT_number 20
_symmetry_cell_setting 'orthorhombic'
loop_
_space_group_symop_operation_xyz
x,y,z
-x,-y,1/2+z
x,-y,-z
-x,y,1/2-z
1/2+x,1/2+y,z
1/2-x,1/2-y,1/2+z
1/2+x,1/2-y,-z
1/2-x,1/2+y,1/2-z
loop_
_atom_site_type_symbol
_atom_site_label
_atom_site_fract_x
_atom_site_fract_y
_atom_site_fract_z
Si Si1 0.864836 0.000000 0.000000
Si Si2 0.633025 0.832984 0.546319
Si Si3 0.698148 0.310173 0.943200
Si Si4 0.833118 0.157867 0.621924
Si Si5 0.210924 0.099450 0.328808
Si Si6 0.672567 0.876858 0.216080
Si Si7 0.582546 0.170621 0.259948
O O1 0.823581 0.981442 0.910511
O O2 0.900439 0.173275 0.993571
O O3 0.718073 0.813755 0.537411
O O4 0.611079 0.826036 0.644228
O O5 0.615439 0.000000 0.500000
O O6 0.684942 0.474704 0.894130
O O7 0.679750 0.171653 0.880171
O O8 0.649531 0.295743 0.025180
O O9 0.768783 0.276033 0.639075
O O10 0.885178 0.195001 0.698237
O O11 0.164271 0.219942 0.273196
O O12 0.253366 0.972049 0.271672
O O13 0.611514 0.001669 0.228370
O O14 0.500000 0.179458 0.250000
#
# Coordination Sequence:
#
# PCOD9318055 Si02
#       7
#     4   8   8   8   8   8   8
#     4  12  22  34  64 100 136 164 204 266 366 406
#     4  12  23  43  69 102 141 167 221 293 347 420
#     4  11  19  37  66 108 128 158 206 287 365 399
#     4  10  20  37  64  92 136 162 211 275 337 401
#     4  11  19  34  56 101 126 161 203 271 350 405
#     4  11  22  33  65  92 132 164 216 275 340 410
#     4  11  27  47  61  89 133 193 233 272 327 405
#
# _framework density 20.424033000000001
#
# number of rings (size 3 to 8) (size 9 to 14) (size 15 to 20)
#    0.000    0.923    4.615    4.615    2.154    1.846 
#    2.769    2.308    0.000    0.000    0.000    0.000 
#    0.000    0.000    0.000    0.000    0.000    0.000 
#
# Total GULP energy -144919.507948 kJ/mol
# GULP energy per Si atom -5573.827229 kJ/mol
# Density = 2.037755 g / cm^3
# Si number density = 20.424033 Si / 1000 Ang^3
#
#
#
# Elastic Constant Matrix: (Units=GPa)
#
#
# Indices 1 2 3 4 5 6 
#
# 1 40.9429 0.3348 21.6080 0.0000 0.0000 0.0000
# 2 0.3348 118.1414 38.3304 0.0000 0.0000 0.0000
# 3 21.6080 38.3304 122.6443 0.0000 0.0000 0.0000
# 4 0.0000 0.0000 0.0000 55.4833 0.0000 0.0000
# 5 0.0000 0.0000 0.0000 0.0000 4.2846 0.0000
# 6 0.0000 0.0000 0.0000 0.0000 0.0000 9.7686
#
#
#
# Elastic Compliance Matrix: (Units=1/GPa)
#
#
# Indices 1 2 3 4 5 6 
#
# 1 0.027212 0.001645 -0.005309 0.000000 0.000000 0.000000
# 2 0.001645 0.009519 -0.003265 0.000000 0.000000 0.000000
# 3 -0.005309 -0.003265 0.010109 0.000000 0.000000 0.000000
# 4 0.000000 0.000000 0.000000 0.018023 0.000000 0.000000
# 5 0.000000 0.000000 0.000000 0.000000 0.233392 0.000000
# 6 0.000000 0.000000 0.000000 0.000000 0.000000 0.102369
#
#
# Mechanical properties :
#
#
# Convention : Reuss Voigt Hill
#
# Bulk Modulus (GPa) = 30.31740 44.69721 37.50731
# Shear Modulus (GPa) = 11.75151 28.67099 20.21125
#
# Velocity S-wave (km/s) = 2.40130 3.75078 3.14917
# Velocity P-wave (km/s) = 4.75022 6.37887 5.62381
#
# Compressibility (1/GPa) = 0.03298436
#
# Stress axis : x y z
#
# Youngs Moduli (GPa) = 36.74785 105.05253 98.91843
#
# Poissons Ratio (x) = -0.17284 0.52512
# Poissons Ratio (y) = -0.06046 0.32296
# Poissons Ratio (z) = 0.19508 0.34298
#
# Static dielectric constant tensor:
#      x y z
#    x 1.695220 0.000000 0.000000 
#    y 0.000000 1.789470 0.000000 
#    z 0.000000 0.000000 1.813450 
# 
# From -- ./inp_files/21695.got.cif
#   From: 2010.05.17/outbox.cif.g08.bks.cpg/sg20_11_cif.got.tgz:21695.got - 2010.06.03 22:52:26.
