data_PCOD9318370
_publ_section_title
;
Structure prediction by ZEFSAII (Michael W. Deem and Ramdas Pophale) SiO2 
 PCOD9318370
Probable space group: C 2 2 21
;
_chemical_formula_sum "Si O2"
_cell_formula_units_Z 48
_cell_length_a 9.081880
_cell_length_b 25.809526
_cell_length_c 10.956408
_cell_angle_alpha 90.000000
_cell_angle_beta 90.000000
_cell_angle_gamma 90.000000
_cell_volume 2568.171276
_symmetry_space_group_name_H-M "C 2 2 21"
_symmetry_group_IT_number 20
_symmetry_cell_setting 'orthorhombic'
loop_
_space_group_symop_operation_xyz
x,y,z
-x,-y,1/2+z
x,-y,-z
-x,y,1/2-z
1/2+x,1/2+y,z
1/2-x,1/2-y,1/2+z
1/2+x,1/2-y,-z
1/2-x,1/2+y,1/2-z
loop_
_atom_site_type_symbol
_atom_site_label
_atom_site_fract_x
_atom_site_fract_y
_atom_site_fract_z
Si Si1 0.000000 0.859484 0.750000
Si Si2 0.500000 0.051240 0.750000
Si Si3 0.500000 0.158600 0.250000
Si Si4 0.177024 0.310498 0.102051
Si Si5 0.239743 0.804916 0.912797
Si Si6 0.843775 0.649925 0.851628
Si Si7 0.752263 0.604962 0.413057
Si Si8 0.115012 0.500000 0.000000
O O1 0.107944 0.823299 0.827251
O O2 0.105446 0.893368 0.665572
O O3 0.374758 0.092741 0.795947
O O4 0.466651 0.017657 0.627411
O O5 0.608025 0.191151 0.336993
O O6 0.390752 0.123553 0.330721
O O7 0.207391 0.253917 0.050154
O O8 0.222935 0.315448 0.243344
O O9 0.004138 0.326485 0.110571
O O10 0.256582 0.352758 0.019812
O O11 0.251072 0.844012 0.026438
O O12 0.789525 0.549596 0.466050
#
# Coordination Sequence:
#
# PCOD9318370 Si02
#       8
#     4   4   4   8   8   8   8   4
#     4  10  26  41  56  92 128 166 207 254 318 382
#     4  10  21  39  68 108 120 158 216 290 316 374
#     4  10  21  38  60  94 118 160 215 250 298 382
#     4  10  21  35  60  90 124 156 202 251 310 374
#     4  11  22  37  64  86 131 171 200 253 315 383
#     4  10  20  40  58  94 129 156 208 268 305 382
#     4  11  22  41  60  88 123 158 208 259 307 376
#     4  12  20  40  70  90 126 164 212 272 342 364
#
# _framework density 18.690342000000001
#
# number of rings (size 3 to 8) (size 9 to 14) (size 15 to 20)
#    0.000    1.667    5.000    1.500    7.000    1.333 
#    0.000    1.667    0.000    2.000    0.000    0.000 
#    0.000    0.000    0.000    0.000    0.000    0.000 
#
# Total GULP energy -133817.929169 kJ/mol
# GULP energy per Si atom -5575.747049 kJ/mol
# Density = 1.864780 g / cm^3
# Si number density = 18.690342 Si / 1000 Ang^3
#
#
#
# Elastic Constant Matrix: (Units=GPa)
#
#
# Indices 1 2 3 4 5 6 
#
# 1 75.4728 20.1219 42.4734 0.0000 0.0000 0.0000
# 2 20.1219 105.3301 43.4799 0.0000 0.0000 0.0000
# 3 42.4734 43.4799 124.1404 0.0000 0.0000 0.0000
# 4 0.0000 0.0000 0.0000 31.3959 0.0000 0.0000
# 5 0.0000 0.0000 0.0000 0.0000 28.1810 0.0000
# 6 0.0000 0.0000 0.0000 0.0000 0.0000 9.1473
#
#
#
# Elastic Compliance Matrix: (Units=1/GPa)
#
#
# Indices 1 2 3 4 5 6 
#
# 1 0.016492 -0.000960 -0.005306 0.000000 0.000000 0.000000
# 2 -0.000960 0.011155 -0.003578 0.000000 0.000000 0.000000
# 3 -0.005306 -0.003578 0.011124 0.000000 0.000000 0.000000
# 4 0.000000 0.000000 0.000000 0.031851 0.000000 0.000000
# 5 0.000000 0.000000 0.000000 0.000000 0.035485 0.000000
# 6 0.000000 0.000000 0.000000 0.000000 0.000000 0.109322
#
#
# Mechanical properties :
#
#
# Convention : Reuss Voigt Hill
#
# Bulk Modulus (GPa) = 52.40775 57.45485 54.93130
# Shear Modulus (GPa) = 20.70577 27.00273 23.85425
#
# Velocity S-wave (km/s) = 3.33202 3.80510 3.57639
# Velocity P-wave (km/s) = 6.55012 7.07900 6.81969
#
# Compressibility (1/GPa) = 0.01908115
#
# Stress axis : x y z
#
# Youngs Moduli (GPa) = 60.63558 89.64985 89.89421
#
# Poissons Ratio (x) = 0.08608 0.47700
# Poissons Ratio (y) = 0.05822 0.32167
# Poissons Ratio (z) = 0.32175 0.32080
#
# Static dielectric constant tensor:
#      x y z
#    x 1.643000 0.000000 0.000000 
#    y 0.000000 1.622820 0.000000 
#    z 0.000000 0.000000 1.704160 
# 
# From -- ./inp_files/13163.got.cif
#   From: 2010.05.17/outbox.cif.g08.bks.cpg/sg20_7_cif.got.tgz:13163.got - 2010.06.03 22:52:26.
