data_PCOD9318368
_publ_section_title
;
Structure prediction by ZEFSAII (Michael W. Deem and Ramdas Pophale) SiO2 
 PCOD9318368
Probable space group: C 2 2 21
;
_chemical_formula_sum "Si O2"
_cell_formula_units_Z 56
_cell_length_a 9.905941
_cell_length_b 13.847186
_cell_length_c 16.465493
_cell_angle_alpha 90.000000
_cell_angle_beta 90.000000
_cell_angle_gamma 90.000000
_cell_volume 2258.561920
_symmetry_space_group_name_H-M "C 2 2 21"
_symmetry_group_IT_number 20
_symmetry_cell_setting 'orthorhombic'
loop_
_space_group_symop_operation_xyz
x,y,z
-x,-y,1/2+z
x,-y,-z
-x,y,1/2-z
1/2+x,1/2+y,z
1/2-x,1/2-y,1/2+z
1/2+x,1/2-y,-z
1/2-x,1/2+y,1/2-z
loop_
_atom_site_type_symbol
_atom_site_label
_atom_site_fract_x
_atom_site_fract_y
_atom_site_fract_z
Si Si1 0.142746 0.257013 0.640744
Si Si2 0.271407 0.001738 0.688752
Si Si3 0.043796 0.421539 0.059691
Si Si4 0.109152 0.764648 0.539183
Si Si5 0.476285 0.530965 0.086716
Si Si6 0.827013 0.271405 0.674831
Si Si7 0.779468 0.518161 0.125370
O O1 0.166690 0.210723 0.550917
O O2 0.202188 0.236985 0.731927
O O3 0.186713 0.368106 0.625701
O O4 0.981690 0.247315 0.654660
O O5 0.118757 0.009224 0.657019
O O6 0.316034 0.889476 0.674002
O O7 0.282232 0.017457 0.782957
O O8 0.367103 0.073314 0.639791
O O9 0.004704 0.317248 0.027221
O O10 0.898303 0.466079 0.079615
O O11 0.109829 0.500000 0.000000
O O12 0.036217 0.853792 0.583279
O O13 0.226309 0.736011 0.603738
O O14 0.421072 0.500000 0.000000
O O15 0.869935 0.999817 0.593578
#
# Coordination Sequence:
#
# PCOD9318368 Si02
#       7
#     8   8   8   8   8   8   8
#     4  10  20  39  70  98 139 185 230 292 362 423
#     4  10  21  44  68  97 137 185 228 291 353 426
#     4  12  22  41  72 107 136 181 237 289 363 434
#     4  11  25  42  73 103 142 185 241 305 354 430
#     4  11  26  46  68 100 140 187 243 292 361 423
#     4   9  20  41  68  99 135 184 238 284 358 429
#     4  11  22  42  69 100 137 185 229 291 355 431
#
# _framework density 24.794536999999998
#
# number of rings (size 3 to 8) (size 9 to 14) (size 15 to 20)
#    0.000    1.429    2.857    1.714    2.000    1.143 
#    2.571    7.143    0.000    0.000    0.000    0.000 
#    0.000    0.000    0.000    0.000    0.000    0.000 
#
# Total GULP energy -156758.216416 kJ/mol
# GULP energy per Si atom -5598.507729 kJ/mol
# Density = 2.473810 g / cm^3
# Si number density = 24.794537 Si / 1000 Ang^3
#
#
#
# Elastic Constant Matrix: (Units=GPa)
#
#
# Indices 1 2 3 4 5 6 
#
# 1 112.8718 11.4474 37.4174 0.0000 0.0000 0.0000
# 2 11.4474 53.3677 13.9986 0.0000 0.0000 0.0000
# 3 37.4174 13.9986 165.2230 0.0000 0.0000 0.0000
# 4 0.0000 0.0000 0.0000 32.9652 0.0000 0.0000
# 5 0.0000 0.0000 0.0000 0.0000 46.8928 0.0000
# 6 0.0000 0.0000 0.0000 0.0000 0.0000 11.0639
#
#
#
# Elastic Compliance Matrix: (Units=1/GPa)
#
#
# Indices 1 2 3 4 5 6 
#
# 1 0.009701 -0.001539 -0.002067 0.000000 0.000000 0.000000
# 2 -0.001539 0.019408 -0.001296 0.000000 0.000000 0.000000
# 3 -0.002067 -0.001296 0.006630 0.000000 0.000000 0.000000
# 4 0.000000 0.000000 0.000000 0.030335 0.000000 0.000000
# 5 0.000000 0.000000 0.000000 0.000000 0.021325 0.000000
# 6 0.000000 0.000000 0.000000 0.000000 0.000000 0.090384
#
#
# Mechanical properties :
#
#
# Convention : Reuss Voigt Hill
#
# Bulk Modulus (GPa) = 38.55559 50.79880 44.67719
# Shear Modulus (GPa) = 25.48018 36.09098 30.78558
#
# Velocity S-wave (km/s) = 3.20918 3.81937 3.52750
# Velocity P-wave (km/s) = 5.41439 6.32317 5.88634
#
# Compressibility (1/GPa) = 0.02593658
#
# Stress axis : x y z
#
# Youngs Moduli (GPa) = 103.08514 51.52537 150.82468
#
# Poissons Ratio (x) = 0.07929 0.31168
# Poissons Ratio (y) = 0.15862 0.19545
# Poissons Ratio (z) = 0.21303 0.06677
#
# Static dielectric constant tensor:
#      x y z
#    x 1.907330 0.000000 0.000000 
#    y 0.000000 2.047650 0.000000 
#    z 0.000000 0.000000 2.111040 
# 
# From -- ./inp_files/25297.got.cif
#   From: 2010.05.17/outbox.cif.g08.bks.cpg/sg20_13_cif.got.tgz:25297.got - 2010.06.03 22:52:26.
