data_PCOD9318388
_publ_section_title
;
Structure prediction by ZEFSAII (Michael W. Deem and Ramdas Pophale) SiO2 
 PCOD9318388
Probable space group: C 2 2 21
;
_chemical_formula_sum "Si O2"
_cell_formula_units_Z 52
_cell_length_a 9.363512
_cell_length_b 16.285300
_cell_length_c 17.591847
_cell_angle_alpha 90.000000
_cell_angle_beta 90.000000
_cell_angle_gamma 90.000000
_cell_volume 2682.538563
_symmetry_space_group_name_H-M "C 2 2 21"
_symmetry_group_IT_number 20
_symmetry_cell_setting 'orthorhombic'
loop_
_space_group_symop_operation_xyz
x,y,z
-x,-y,1/2+z
x,-y,-z
-x,y,1/2-z
1/2+x,1/2+y,z
1/2-x,1/2-y,1/2+z
1/2+x,1/2-y,-z
1/2-x,1/2+y,1/2-z
loop_
_atom_site_type_symbol
_atom_site_label
_atom_site_fract_x
_atom_site_fract_y
_atom_site_fract_z
Si Si1 0.388123 0.007538 0.897334
Si Si2 0.262211 0.244902 0.439040
Si Si3 0.017568 0.357815 0.498887
Si Si4 0.732762 0.406728 0.651965
Si Si5 0.500000 0.948183 0.750000
Si Si6 0.910769 0.911819 0.403097
Si Si7 0.643085 0.500000 0.500000
Si Si8 0.500000 0.498074 0.250000
O O1 0.229113 0.033231 0.920521
O O2 0.431164 0.921775 0.936306
O O3 0.405130 0.000401 0.807868
O O4 0.487322 0.081434 0.926889
O O5 0.138270 0.289295 0.486025
O O6 0.369342 0.186580 0.485519
O O7 0.197134 0.185116 0.375298
O O8 0.359165 0.318435 0.406536
O O9 0.725885 0.461672 0.573319
O O10 0.620506 0.444832 0.711130
O O11 0.885134 0.403858 0.695323
O O12 0.036975 0.932277 0.462394
O O13 0.952510 0.940541 0.319238
#
# Coordination Sequence:
#
# PCOD9318388 Si02
#       8
#     8   8   8   8   4   8   4   4
#     4  10  21  40  67  87 122 176 208 249 312 391
#     4  11  22  38  61  95 122 157 204 270 312 362
#     4  10  22  40  63  89 123 162 214 256 309 370
#     4  11  24  40  67  93 126 163 216 263 316 375
#     4  12  22  39  65  94 128 166 210 260 312 389
#     4  10  20  40  62  89 123 162 209 253 322 371
#     4  10  22  40  68  92 118 172 222 262 292 394
#     4  10  22  43  63  86 120 166 210 250 310 391
#
# _framework density 19.384623999999999
#
# number of rings (size 3 to 8) (size 9 to 14) (size 15 to 20)
#    0.000    1.538    3.077    2.769    2.154    1.846 
#    0.000    3.077    0.000    0.000    0.000    0.000 
#    0.000    0.000    0.000    0.000    0.000    0.000 
#
# Total GULP energy -144976.875774 kJ/mol
# GULP energy per Si atom -5576.033684 kJ/mol
# Density = 1.934050 g / cm^3
# Si number density = 19.384624 Si / 1000 Ang^3
#
#
#
# Elastic Constant Matrix: (Units=GPa)
#
#
# Indices 1 2 3 4 5 6 
#
# 1 74.0354 29.5197 20.3521 0.0000 0.0000 0.0000
# 2 29.5197 74.4653 26.5429 0.0000 0.0000 0.0000
# 3 20.3521 26.5429 97.6482 0.0000 0.0000 0.0000
# 4 0.0000 0.0000 0.0000 15.9175 0.0000 0.0000
# 5 0.0000 0.0000 0.0000 0.0000 37.6129 0.0000
# 6 0.0000 0.0000 0.0000 0.0000 0.0000 33.5968
#
#
#
# Elastic Compliance Matrix: (Units=1/GPa)
#
#
# Indices 1 2 3 4 5 6 
#
# 1 0.016330 -0.005825 -0.001820 0.000000 0.000000 0.000000
# 2 -0.005825 0.016947 -0.003393 0.000000 0.000000 0.000000
# 3 -0.001820 -0.003393 0.011542 0.000000 0.000000 0.000000
# 4 0.000000 0.000000 0.000000 0.062824 0.000000 0.000000
# 5 0.000000 0.000000 0.000000 0.000000 0.026587 0.000000
# 6 0.000000 0.000000 0.000000 0.000000 0.000000 0.029765
#
#
# Mechanical properties :
#
#
# Convention : Reuss Voigt Hill
#
# Bulk Modulus (GPa) = 43.96667 44.33090 44.14879
# Shear Modulus (GPa) = 25.81955 28.74106 27.28030
#
# Velocity S-wave (km/s) = 3.65356 3.85473 3.75549
# Velocity P-wave (km/s) = 6.36620 6.53687 6.45210
#
# Compressibility (1/GPa) = 0.02274450
#
# Stress axis : x y z
#
# Youngs Moduli (GPa) = 61.23740 59.00599 86.63694
#
# Poissons Ratio (x) = 0.34369 0.15770
# Poissons Ratio (y) = 0.35669 0.29393
# Poissons Ratio (z) = 0.11147 0.20019
#
# Static dielectric constant tensor:
#      x y z
#    x 1.737450 0.000000 0.000000 
#    y 0.000000 1.656820 0.000000 
#    z 0.000000 0.000000 1.691490 
# 
# From -- ./inp_files/23740.got.cif
#   From: 2010.05.17/outbox.cif.g08.bks.cpg/sg20_12_cif.got.tgz:23740.got - 2010.06.03 22:52:26.
