data_PCOD9318453
_publ_section_title
;
Structure prediction by ZEFSAII (Michael W. Deem and Ramdas Pophale) SiO2 
 PCOD9318453
Probable space group: C 2 2 21
;
_chemical_formula_sum "Si O2"
_cell_formula_units_Z 44
_cell_length_a 18.343189
_cell_length_b 11.452777
_cell_length_c 8.912234
_cell_angle_alpha 90.000000
_cell_angle_beta 90.000000
_cell_angle_gamma 90.000000
_cell_volume 1872.286157
_symmetry_space_group_name_H-M "C 2 2 21"
_symmetry_group_IT_number 20
_symmetry_cell_setting 'orthorhombic'
loop_
_space_group_symop_operation_xyz
x,y,z
-x,-y,1/2+z
x,-y,-z
-x,y,1/2-z
1/2+x,1/2+y,z
1/2-x,1/2-y,1/2+z
1/2+x,1/2-y,-z
1/2-x,1/2+y,1/2-z
loop_
_atom_site_type_symbol
_atom_site_label
_atom_site_fract_x
_atom_site_fract_y
_atom_site_fract_z
Si Si1 0.700943 0.601552 0.298208
Si Si2 0.379004 0.167507 0.740581
Si Si3 0.053952 0.810372 0.013153
Si Si4 0.418444 0.000000 0.000000
Si Si5 0.426552 0.500000 0.000000
Si Si6 0.820154 0.000000 0.500000
Si Si7 0.000000 0.355655 0.750000
Si Si8 0.316228 0.000000 0.500000
O O1 0.682603 0.733746 0.258357
O O2 0.627730 0.538652 0.365173
O O3 0.723601 0.530436 0.149524
O O4 0.762868 0.592705 0.421760
O O5 0.440271 0.239030 0.643394
O O6 0.385766 0.108063 0.903450
O O7 0.361046 0.063632 0.626944
O O8 0.981349 0.890726 0.023883
O O9 0.054071 0.725536 0.155067
O O10 0.124506 0.892329 0.021656
O O11 0.463280 0.935308 0.872577
#
# Coordination Sequence:
#
# PCOD9318453 Si02
#       8
#     8   8   8   4   4   4   4   4
#     4  10  23  42  67  96 129 171 222 279 330 383
#     4  11  25  44  64  92 131 175 222 274 331 391
#     4  10  21  38  65  96 133 165 203 266 334 401
#     4  12  26  40  60  88 128 174 222 266 322 396
#     4  10  20  40  68 102 132 165 212 265 330 398
#     4   9  20  36  60  98 126 156 208 269 338 393
#     4  12  22  36  58  88 126 170 208 252 320 398
#     4  11  26  46  66  92 130 177 232 274 320 397
#
# _framework density 23.500681
#
# number of rings (size 3 to 8) (size 9 to 14) (size 15 to 20)
#    0.000    1.455    0.000    4.364    0.000   15.273 
#    0.000    0.000    0.000    0.000    0.000    0.000 
#    0.000    0.000    0.000    0.000    0.000    0.000 
#
# Total GULP energy -123004.868853 kJ/mol
# GULP energy per Si atom -5591.130402 kJ/mol
# Density = 2.344719 g / cm^3
# Si number density = 23.500681 Si / 1000 Ang^3
#
#
#
# Elastic Constant Matrix: (Units=GPa)
#
#
# Indices 1 2 3 4 5 6 
#
# 1 25.0672 15.8080 12.6278 0.0000 0.0000 0.0000
# 2 15.8080 112.9931 46.2553 0.0000 0.0000 0.0000
# 3 12.6278 46.2553 143.1453 0.0000 0.0000 0.0000
# 4 0.0000 0.0000 0.0000 60.9935 0.0000 0.0000
# 5 0.0000 0.0000 0.0000 0.0000 27.0705 0.0000
# 6 0.0000 0.0000 0.0000 0.0000 0.0000 -2.5986
#
#
#
# Elastic Compliance Matrix: (Units=1/GPa)
#
#
# Indices 1 2 3 4 5 6 
#
# 1 0.044345 -0.005304 -0.002198 0.000000 0.000000 0.000000
# 2 -0.005304 0.010834 -0.003033 0.000000 0.000000 0.000000
# 3 -0.002198 -0.003033 0.008160 0.000000 0.000000 0.000000
# 4 0.000000 0.000000 0.000000 0.016395 0.000000 0.000000
# 5 0.000000 0.000000 0.000000 0.000000 0.036941 0.000000
# 6 0.000000 0.000000 0.000000 0.000000 0.000000 -0.384827
#
#
# Mechanical properties :
#
#
# Convention : Reuss Voigt Hill
#
# Bulk Modulus (GPa) = 23.65830 47.84308 35.75069
# Shear Modulus (GPa) = -21.45985 30.86074 4.70045
#
# Velocity S-wave (km/s) = -3.02513 3.62772 1.41579
# Velocity P-wave (km/s) = 1.45360 6.16032 4.23300
#
# Compressibility (1/GPa) = 0.04226847
#
# Stress axis : x y z
#
# Youngs Moduli (GPa) = 22.55049 92.30468 122.55170
#
# Poissons Ratio (x) = 0.48960 0.26937
# Poissons Ratio (y) = 0.11961 0.37168
# Poissons Ratio (z) = 0.04957 0.27994
#
# Static dielectric constant tensor:
#      x y z
#    x 1.914930 0.000000 0.000000 
#    y 0.000000 1.890390 0.000000 
#    z 0.000000 0.000000 1.937530 
# 
# From -- ./inp_files/10631.got.cif
#   From: 2010.05.17/outbox.cif.g08.bks.cpg/sg20_6_cif.got.tgz:10631.got - 2010.06.03 22:52:26.
