data_PCOD9318416
_publ_section_title
;
Structure prediction by ZEFSAII (Michael W. Deem and Ramdas Pophale) SiO2 
 PCOD9318416
Probable space group: C 2 2 21
;
_chemical_formula_sum "Si O2"
_cell_formula_units_Z 40
_cell_length_a 19.225296
_cell_length_b 12.018438
_cell_length_c 8.152600
_cell_angle_alpha 90.000000
_cell_angle_beta 90.000000
_cell_angle_gamma 90.000000
_cell_volume 1883.723679
_symmetry_space_group_name_H-M "C 2 2 21"
_symmetry_group_IT_number 20
_symmetry_cell_setting 'orthorhombic'
loop_
_space_group_symop_operation_xyz
x,y,z
-x,-y,1/2+z
x,-y,-z
-x,y,1/2-z
1/2+x,1/2+y,z
1/2-x,1/2-y,1/2+z
1/2+x,1/2-y,-z
1/2-x,1/2+y,1/2-z
loop_
_atom_site_type_symbol
_atom_site_label
_atom_site_fract_x
_atom_site_fract_y
_atom_site_fract_z
Si Si1 0.186119 0.459047 0.738454
Si Si2 0.667920 0.741638 0.908378
Si Si3 0.579953 0.335511 0.780450
Si Si4 0.828377 0.322004 0.080703
Si Si5 0.339633 0.468901 0.191555
O O1 0.164442 0.373997 0.879141
O O2 0.164124 0.586906 0.727065
O O3 0.157570 0.393109 0.580806
O O4 0.270056 0.473781 0.731613
O O5 0.749417 0.719229 0.944495
O O6 0.657412 0.659239 0.750456
O O7 0.615469 0.704387 0.050428
O O8 0.500000 0.309320 0.750000
O O9 0.622851 0.277349 0.633607
O O10 0.594848 0.466539 0.765536
O O11 0.335051 0.500000 0.000000
#
# Coordination Sequence:
#
# PCOD9318416 Si02
#       5
#     8   8   8   8   8
#     4  10  21  37  66  98 125 165 224 283 312 377
#     4  11  21  39  67  97 129 174 224 267 324 388
#     4  12  26  43  64  97 140 176 214 272 339 397
#     4  10  20  40  64  96 130 167 225 268 323 388
#     4  11  23  38  65  99 132 172 221 273 331 388
#
# _framework density 21.234537
#
# number of rings (size 3 to 8) (size 9 to 14) (size 15 to 20)
#    0.000    1.200    4.000    1.800    5.600    1.600 
#    0.000    7.000    0.000    0.000    0.000    0.000 
#    0.000    0.000    0.000    0.000    0.000    0.000 
#
# Total GULP energy -111578.419220 kJ/mol
# GULP energy per Si atom -5578.920961 kJ/mol
# Density = 2.118621 g / cm^3
# Si number density = 21.234537 Si / 1000 Ang^3
#
#
#
# Elastic Constant Matrix: (Units=GPa)
#
#
# Indices 1 2 3 4 5 6 
#
# 1 98.6869 29.2982 27.0764 0.0000 0.0000 0.0000
# 2 29.2982 89.4706 0.7400 0.0000 0.0000 0.0000
# 3 27.0764 0.7400 71.8660 0.0000 0.0000 0.0000
# 4 0.0000 0.0000 0.0000 33.3572 0.0000 0.0000
# 5 0.0000 0.0000 0.0000 0.0000 21.6555 0.0000
# 6 0.0000 0.0000 0.0000 0.0000 0.0000 -19.8828
#
#
#
# Elastic Compliance Matrix: (Units=1/GPa)
#
#
# Indices 1 2 3 4 5 6 
#
# 1 0.012647 -0.004102 -0.004723 0.000000 0.000000 0.000000
# 2 -0.004102 0.012508 0.001417 0.000000 0.000000 0.000000
# 3 -0.004723 0.001417 0.015679 0.000000 0.000000 0.000000
# 4 0.000000 0.000000 0.000000 0.029979 0.000000 0.000000
# 5 0.000000 0.000000 0.000000 0.000000 0.046178 0.000000
# 6 0.000000 0.000000 0.000000 0.000000 0.000000 -0.050295
#
#
# Mechanical properties :
#
#
# Convention : Reuss Voigt Hill
#
# Bulk Modulus (GPa) = 38.43409 41.58364 40.00886
# Shear Modulus (GPa) = 55.44168 20.55324 37.99746
#
# Velocity S-wave (km/s) = 5.11526 3.11451 4.23474
# Velocity P-wave (km/s) = 7.28196 5.70606 6.54164
#
# Compressibility (1/GPa) = 0.02601857
#
# Stress axis : x y z
#
# Youngs Moduli (GPa) = 79.07242 79.94590 63.77765
#
# Poissons Ratio (x) = 0.32796 0.30119
# Poissons Ratio (y) = 0.32437 -0.09036
# Poissons Ratio (z) = 0.37342 -0.11326
#
# Static dielectric constant tensor:
#      x y z
#    x 1.711180 0.000000 0.000000 
#    y 0.000000 1.822680 0.000000 
#    z 0.000000 0.000000 1.882060 
# 
# From -- ./inp_files/7022.got.cif
#   From: 2010.05.17/outbox.cif.g08.bks.cpg/sg20_4_cif.got.tgz:7022.got - 2010.06.03 22:52:26.
