data_PCOD9318882
_publ_section_title
;
Structure prediction by ZEFSAII (Michael W. Deem and Ramdas Pophale) SiO2 
 PCOD9318882
Probable space group: C 2 2 21
;
_chemical_formula_sum "Si O2"
_cell_formula_units_Z 56
_cell_length_a 4.874962
_cell_length_b 31.377590
_cell_length_c 16.905039
_cell_angle_alpha 90.000000
_cell_angle_beta 90.000000
_cell_angle_gamma 90.000000
_cell_volume 2585.871834
_symmetry_space_group_name_H-M "C 2 2 21"
_symmetry_group_IT_number 20
_symmetry_cell_setting 'orthorhombic'
loop_
_space_group_symop_operation_xyz
x,y,z
-x,-y,1/2+z
x,-y,-z
-x,y,1/2-z
1/2+x,1/2+y,z
1/2-x,1/2-y,1/2+z
1/2+x,1/2-y,-z
1/2-x,1/2+y,1/2-z
loop_
_atom_site_type_symbol
_atom_site_label
_atom_site_fract_x
_atom_site_fract_y
_atom_site_fract_z
Si Si1 0.102168 0.021260 0.339637
Si Si2 0.894247 0.520011 0.913262
Si Si3 0.496181 0.389572 0.573451
Si Si4 0.512473 0.886839 0.036139
Si Si5 0.108408 0.706103 0.573473
Si Si6 0.896052 0.258038 0.895489
Si Si7 0.733432 0.173029 0.199046
O O1 0.044848 0.067086 0.378698
O O2 0.000000 0.021708 0.250000
O O3 0.411735 0.005820 0.353049
O O4 0.916753 0.988535 0.389272
O O5 0.948548 0.570087 0.917392
O O6 0.946342 0.500000 0.000000
O O7 0.186445 0.385355 0.541924
O O8 0.620614 0.352391 0.627853
O O9 0.679396 0.389718 0.495020
O O10 0.467925 0.842877 0.082106
O O11 0.415771 0.716262 0.598156
O O12 0.089253 0.718083 0.480196
O O13 0.908094 0.740065 0.615965
O O14 0.042452 0.289449 0.834890
O O15 0.500000 0.147172 0.250000
O O16 0.000000 0.185697 0.250000
#
# Coordination Sequence:
#
# PCOD9318882 Si02
#       7
#     8   8   8   8   8   8   8
#     4  12  25  43  64  95 135 177 215 262 326 401
#     4  12  23  43  67  95 129 175 221 271 322 384
#     4  12  23  39  62  96 134 168 206 257 330 392
#     4  12  23  38  68  96 129 159 216 277 319 371
#     4  10  21  37  61  88 117 156 197 272 309 354
#     4  10  21  38  60  85 122 158 207 242 312 372
#     4  12  25  39  60  91 134 173 205 247 316 398
#
# _framework density 21.656140000000001
#
# number of rings (size 3 to 8) (size 9 to 14) (size 15 to 20)
#    0.000    0.571    4.286    4.714    4.000    1.143 
#    0.000    0.000    0.000    8.571    0.000    0.000 
#    0.000    0.000    0.000    0.000    0.000    0.000 
#
# Total GULP energy -156621.275699 kJ/mol
# GULP energy per Si atom -5593.616989 kJ/mol
# Density = 2.160685 g / cm^3
# Si number density = 21.656140 Si / 1000 Ang^3
#
#
#
# Elastic Constant Matrix: (Units=GPa)
#
#
# Indices 1 2 3 4 5 6 
#
# 1 76.0605 -15.3718 -5.9480 0.0000 0.0000 0.0000
# 2 -15.3718 101.6418 -1.5145 0.0000 0.0000 0.0000
# 3 -5.9480 -1.5145 21.5868 0.0000 0.0000 0.0000
# 4 0.0000 0.0000 0.0000 -91.0519 0.0000 0.0000
# 5 0.0000 0.0000 0.0000 0.0000 31.7313 0.0000
# 6 0.0000 0.0000 0.0000 0.0000 0.0000 39.8126
#
#
#
# Elastic Compliance Matrix: (Units=1/GPa)
#
#
# Indices 1 2 3 4 5 6 
#
# 1 0.013895 0.002161 0.003980 0.000000 0.000000 0.000000
# 2 0.002161 0.010185 0.001310 0.000000 0.000000 0.000000
# 3 0.003980 0.001310 0.047513 0.000000 0.000000 0.000000
# 4 0.000000 0.000000 0.000000 -0.010983 0.000000 0.000000
# 5 0.000000 0.000000 0.000000 0.000000 0.031515 0.000000
# 6 0.000000 0.000000 0.000000 0.000000 0.000000 0.025118
#
#
# Mechanical properties :
#
#
# Convention : Reuss Voigt Hill
#
# Bulk Modulus (GPa) = 11.56131 17.06893 14.31512
# Shear Modulus (GPa) = 38.11771 10.90664 24.51218
#
# Velocity S-wave (km/s) = 4.19995 2.24660 3.36799
# Velocity P-wave (km/s) = 5.37304 3.82473 4.66359
#
# Compressibility (1/GPa) = 0.08649542
#
# Stress axis : x y z
#
# Youngs Moduli (GPa) = 71.96632 98.18574 21.04679
#
# Poissons Ratio (x) = -0.21216 -0.08377
# Poissons Ratio (y) = -0.15550 -0.02757
# Poissons Ratio (z) = -0.28645 -0.12862
#
# Static dielectric constant tensor:
#      x y z
#    x 1.771530 0.000000 0.000000 
#    y 0.000000 1.779010 0.000000 
#    z 0.000000 0.000000 1.780980 
# 
# From -- ./inp_files/17972.got.cif
#   From: 2010.05.17/outbox.cif.g08.bks.cpg/sg20_9_cif.got.tgz:17972.got - 2010.06.03 22:52:26.
