data_PCOD9318144
_publ_section_title
;
Structure prediction by ZEFSAII (Michael W. Deem and Ramdas Pophale) SiO2 
 PCOD9318144
Probable space group: C 2 2 21
;
_chemical_formula_sum "Si O2"
_cell_formula_units_Z 36
_cell_length_a 7.556940
_cell_length_b 12.277541
_cell_length_c 21.102914
_cell_angle_alpha 90.000000
_cell_angle_beta 90.000000
_cell_angle_gamma 90.000000
_cell_volume 1957.941881
_symmetry_space_group_name_H-M "C 2 2 21"
_symmetry_group_IT_number 20
_symmetry_cell_setting 'orthorhombic'
loop_
_space_group_symop_operation_xyz
x,y,z
-x,-y,1/2+z
x,-y,-z
-x,y,1/2-z
1/2+x,1/2+y,z
1/2-x,1/2-y,1/2+z
1/2+x,1/2-y,-z
1/2-x,1/2+y,1/2-z
loop_
_atom_site_type_symbol
_atom_site_label
_atom_site_fract_x
_atom_site_fract_y
_atom_site_fract_z
Si Si1 0.204404 0.687799 0.422080
Si Si2 0.644410 0.673904 0.942240
Si Si3 0.731144 0.017186 0.658645
Si Si4 0.449743 0.765927 0.144064
Si Si5 0.500000 0.590858 0.250000
O O1 0.293584 0.646284 0.487151
O O2 0.151742 0.588400 0.375975
O O3 0.355848 0.755159 0.385283
O O4 0.036789 0.760678 0.439409
O O5 0.640088 0.571109 0.894733
O O6 0.802848 0.745264 0.910944
O O7 0.845998 0.980678 0.718416
O O8 0.592607 0.113945 0.671443
O O9 0.428757 0.671621 0.195560
#
# Coordination Sequence:
#
# PCOD9318144 Si02
#       5
#     8   8   8   8   4
#     4  11  19  40  62  87 125 145 189 254 295 355
#     4  10  20  38  61  88 115 153 192 237 306 354
#     4   9  22  39  58  86 119 151 199 240 287 352
#     4   9  22  40  58  88 117 156 197 244 292 349
#     4  10  20  42  60  80 124 158 200 250 282 342
#
# _framework density 18.386652999999999
#
# number of rings (size 3 to 8) (size 9 to 14) (size 15 to 20)
#    1.333    0.889    2.222    0.667    0.000    3.556 
#   12.000    0.000    0.000    0.000    0.000    0.000 
#    0.000    0.000    0.000    0.000    0.000    0.000 
#
# Total GULP energy -100203.594172 kJ/mol
# GULP energy per Si atom -5566.866343 kJ/mol
# Density = 1.834480 g / cm^3
# Si number density = 18.386653 Si / 1000 Ang^3
#
#
#
# Elastic Constant Matrix: (Units=GPa)
#
#
# Indices 1 2 3 4 5 6 
#
# 1 57.1348 27.4843 -3.6432 0.0000 0.0000 0.0000
# 2 27.4843 59.5749 4.8119 0.0000 0.0000 0.0000
# 3 -3.6432 4.8119 28.6664 0.0000 0.0000 0.0000
# 4 0.0000 0.0000 0.0000 30.9003 0.0000 0.0000
# 5 0.0000 0.0000 0.0000 0.0000 25.6409 0.0000
# 6 0.0000 0.0000 0.0000 0.0000 0.0000 20.7748
#
#
#
# Elastic Compliance Matrix: (Units=1/GPa)
#
#
# Indices 1 2 3 4 5 6 
#
# 1 0.023127 -0.011057 0.004795 0.000000 0.000000 0.000000
# 2 -0.011057 0.022302 -0.005149 0.000000 0.000000 0.000000
# 3 0.004795 -0.005149 0.036358 0.000000 0.000000 0.000000
# 4 0.000000 0.000000 0.000000 0.032362 0.000000 0.000000
# 5 0.000000 0.000000 0.000000 0.000000 0.039000 0.000000
# 6 0.000000 0.000000 0.000000 0.000000 0.000000 0.048135
#
#
# Mechanical properties :
#
#
# Convention : Reuss Voigt Hill
#
# Bulk Modulus (GPa) = 16.95885 22.52025 19.73955
# Shear Modulus (GPa) = 20.51190 23.24474 21.87832
#
# Velocity S-wave (km/s) = 3.34366 3.55944 3.45324
# Velocity P-wave (km/s) = 4.91429 5.40070 5.16323
#
# Compressibility (1/GPa) = 0.05896626
#
# Stress axis : x y z
#
# Youngs Moduli (GPa) = 43.23948 44.83822 27.50448
#
# Poissons Ratio (x) = 0.49576 -0.13189
# Poissons Ratio (y) = 0.47809 0.14162
# Poissons Ratio (z) = -0.20734 0.23087
#
# Static dielectric constant tensor:
#      x y z
#    x 1.598380 0.000000 0.000000 
#    y 0.000000 1.637930 0.000000 
#    z 0.000000 0.000000 1.647330 
# 
# From -- ./inp_files/25934.got.cif
#   From: 2010.05.17/outbox.cif.g08.bks.cpg/sg20_13_cif.got.tgz:25934.got - 2010.06.03 22:52:26.
