data_PCOD9318376
_publ_section_title
;
Structure prediction by ZEFSAII (Michael W. Deem and Ramdas Pophale) SiO2 
 PCOD9318376
Probable space group: C 2 2 21
;
_chemical_formula_sum "Si O2"
_cell_formula_units_Z 60
_cell_length_a 12.631840
_cell_length_b 8.967757
_cell_length_c 28.579541
_cell_angle_alpha 90.000000
_cell_angle_beta 90.000000
_cell_angle_gamma 90.000000
_cell_volume 3237.469587
_symmetry_space_group_name_H-M "C 2 2 21"
_symmetry_group_IT_number 20
_symmetry_cell_setting 'orthorhombic'
loop_
_space_group_symop_operation_xyz
x,y,z
-x,-y,1/2+z
x,-y,-z
-x,y,1/2-z
1/2+x,1/2+y,z
1/2-x,1/2-y,1/2+z
1/2+x,1/2-y,-z
1/2-x,1/2+y,1/2-z
loop_
_atom_site_type_symbol
_atom_site_label
_atom_site_fract_x
_atom_site_fract_y
_atom_site_fract_z
Si Si1 0.527085 0.488009 0.828324
Si Si2 0.257659 0.501354 0.443844
Si Si3 0.846027 0.509982 0.317475
Si Si4 0.650947 0.405845 0.740819
Si Si5 0.624756 0.238472 0.887536
Si Si6 0.103200 0.241576 0.891461
Si Si7 0.500000 0.125585 0.750000
Si Si8 0.992341 0.495672 0.944964
O O1 0.623879 0.475423 0.791219
O O2 0.422684 0.485448 0.797570
O O3 0.540924 0.343155 0.860536
O O4 0.534532 0.630380 0.860320
O O5 0.277487 0.500000 0.500000
O O6 0.302932 0.650394 0.418367
O O7 0.315149 0.361069 0.419713
O O8 0.132322 0.488107 0.436030
O O9 0.768519 0.564127 0.276291
O O10 0.817687 0.360643 0.347265
O O11 0.846294 0.641578 0.355301
O O12 0.959748 0.472921 0.293526
O O13 0.599807 0.238496 0.741329
O O14 0.560943 0.122762 0.919594
O O15 0.032030 0.337987 0.925857
O O16 0.010488 0.500000 0.000000
#
# Coordination Sequence:
#
# PCOD9318376 Si02
#       8
#     8   8   8   8   8   8   4   8
#     4   9  20  39  57  84 121 153 197 241 289 341
#     4  10  22  41  64  87 119 157 191 242 309 359
#     4  11  23  37  63  87 118 165 197 244 301 329
#     4  10  21  38  61  79 122 161 195 239 293 345
#     4  10  20  40  60  87 118 155 194 245 290 356
#     4  10  23  37  58  96 114 148 206 248 279 360
#     4  10  22  44  52  88 124 158 198 242 292 348
#     4  10  22  40  62  87 118 154 190 246 305 351
#
# _framework density 18.532992
#
# number of rings (size 3 to 8) (size 9 to 14) (size 15 to 20)
#    0.000    2.133    2.667    0.800    5.600    1.067 
#    4.800    0.000    0.000    8.000    0.000    0.000 
#    0.000    0.000    0.000    0.000    0.000    0.000 
#
# Total GULP energy -167256.517480 kJ/mol
# GULP energy per Si atom -5575.217249 kJ/mol
# Density = 1.849081 g / cm^3
# Si number density = 18.532992 Si / 1000 Ang^3
#
#
#
# Elastic Constant Matrix: (Units=GPa)
#
#
# Indices 1 2 3 4 5 6 
#
# 1 43.6102 29.2847 42.7397 0.0000 0.0000 0.0000
# 2 29.2847 113.4060 45.5362 0.0000 0.0000 0.0000
# 3 42.7397 45.5362 93.7272 0.0000 0.0000 0.0000
# 4 0.0000 0.0000 0.0000 26.0530 0.0000 0.0000
# 5 0.0000 0.0000 0.0000 0.0000 11.5497 0.0000
# 6 0.0000 0.0000 0.0000 0.0000 0.0000 31.4097
#
#
#
# Elastic Compliance Matrix: (Units=1/GPa)
#
#
# Indices 1 2 3 4 5 6 
#
# 1 0.042871 -0.004001 -0.017605 0.000000 0.000000 0.000000
# 2 -0.004001 0.011328 -0.003679 0.000000 0.000000 0.000000
# 3 -0.017605 -0.003679 0.020485 0.000000 0.000000 0.000000
# 4 0.000000 0.000000 0.000000 0.038383 0.000000 0.000000
# 5 0.000000 0.000000 0.000000 0.000000 0.086582 0.000000
# 6 0.000000 0.000000 0.000000 0.000000 0.000000 0.031837
#
#
# Mechanical properties :
#
#
# Convention : Reuss Voigt Hill
#
# Bulk Modulus (GPa) = 41.47184 53.98496 47.72840
# Shear Modulus (GPa) = 17.23561 22.68133 19.95847
#
# Velocity S-wave (km/s) = 3.05289 3.50213 3.28520
# Velocity P-wave (km/s) = 5.90362 6.74875 6.34028
#
# Compressibility (1/GPa) = 0.02411275
#
# Stress axis : x y z
#
# Youngs Moduli (GPa) = 23.32558 88.27328 48.81678
#
# Poissons Ratio (x) = 0.35322 0.85944
# Poissons Ratio (y) = 0.09334 0.17960
# Poissons Ratio (z) = 0.41065 0.32477
#
# Static dielectric constant tensor:
#      x y z
#    x 1.638710 0.000000 0.000000 
#    y 0.000000 1.666750 0.000000 
#    z 0.000000 0.000000 1.643720 
# 
# From -- ./inp_files/31172.got.cif
#   From: 2010.05.17/outbox.cif.g08.bks.cpg/sg20_16_cif.got.tgz:31172.got - 2010.06.03 22:52:26.
