data_PCOD9318232
_publ_section_title
;
Structure prediction by ZEFSAII (Michael W. Deem and Ramdas Pophale) SiO2 
 PCOD9318232
Probable space group: C 2 2 21
;
_chemical_formula_sum "Si O2"
_cell_formula_units_Z 40
_cell_length_a 5.695924
_cell_length_b 21.304902
_cell_length_c 14.271680
_cell_angle_alpha 90.000000
_cell_angle_beta 90.000000
_cell_angle_gamma 90.000000
_cell_volume 1731.884104
_symmetry_space_group_name_H-M "C 2 2 21"
_symmetry_group_IT_number 20
_symmetry_cell_setting 'orthorhombic'
loop_
_space_group_symop_operation_xyz
x,y,z
-x,-y,1/2+z
x,-y,-z
-x,y,1/2-z
1/2+x,1/2+y,z
1/2-x,1/2-y,1/2+z
1/2+x,1/2-y,-z
1/2-x,1/2+y,1/2-z
loop_
_atom_site_type_symbol
_atom_site_label
_atom_site_fract_x
_atom_site_fract_y
_atom_site_fract_z
Si Si1 0.643683 0.516890 0.111164
Si Si2 0.840479 0.123760 0.660216
Si Si3 0.677300 0.323832 0.484938
Si Si4 0.501315 0.238168 0.648431
Si Si5 0.633861 0.057227 0.074865
O O1 0.690139 0.450798 0.162778
O O2 0.384082 0.546791 0.129330
O O3 0.883213 0.555851 0.127216
O O4 0.635287 0.500000 0.000000
O O5 0.962817 0.139085 0.561036
O O6 0.000000 0.139939 0.750000
O O7 0.622736 0.170396 0.661748
O O8 0.631833 0.281624 0.574592
O O9 0.852801 0.378280 0.516984
O O10 0.759124 0.277868 0.402223
O O11 0.500000 0.268568 0.750000
O O12 0.626814 0.000000 0.000000
#
# Coordination Sequence:
#
# PCOD9318232 Si02
#       5
#     8   8   8   8   8
#     4  10  20  38  66  95 132 174 231 297 358 425
#     4  12  24  42  69 103 140 190 251 303 362 445
#     4  12  24  43  70 101 145 198 232 312 376 432
#     4  12  26  43  71 104 144 191 255 304 372 450
#     4  10  20  38  68  96 133 182 233 285 369 439
#
# _framework density 23.096232000000001
#
# number of rings (size 3 to 8) (size 9 to 14) (size 15 to 20)
#    0.000    0.800    8.000    2.400    0.000    0.000 
#    0.000    1.000    0.000    2.400    0.000    0.000 
#    0.000    0.000    0.000    0.000    0.000    0.000 
#
# Total GULP energy -111679.141590 kJ/mol
# GULP energy per Si atom -5583.957080 kJ/mol
# Density = 2.304366 g / cm^3
# Si number density = 23.096232 Si / 1000 Ang^3
#
#
#
# Elastic Constant Matrix: (Units=GPa)
#
#
# Indices 1 2 3 4 5 6 
#
# 1 124.1507 6.5913 30.8335 0.0000 0.0000 0.0000
# 2 6.5913 54.2058 33.2486 0.0000 0.0000 0.0000
# 3 30.8335 33.2486 112.3692 0.0000 0.0000 0.0000
# 4 0.0000 0.0000 0.0000 28.5010 0.0000 0.0000
# 5 0.0000 0.0000 0.0000 0.0000 21.4699 0.0000
# 6 0.0000 0.0000 0.0000 0.0000 0.0000 38.1760
#
#
#
# Elastic Compliance Matrix: (Units=1/GPa)
#
#
# Indices 1 2 3 4 5 6 
#
# 1 0.008655 0.000494 -0.002521 0.000000 0.000000 0.000000
# 2 0.000494 0.022567 -0.006813 0.000000 0.000000 0.000000
# 3 -0.002521 -0.006813 0.011607 0.000000 0.000000 0.000000
# 4 0.000000 0.000000 0.000000 0.035087 0.000000 0.000000
# 5 0.000000 0.000000 0.000000 0.000000 0.046577 0.000000
# 6 0.000000 0.000000 0.000000 0.000000 0.000000 0.026194
#
#
# Mechanical properties :
#
#
# Convention : Reuss Voigt Hill
#
# Bulk Modulus (GPa) = 39.76346 48.00806 43.88576
# Shear Modulus (GPa) = 28.28874 32.29952 30.29413
#
# Velocity S-wave (km/s) = 3.50354 3.74368 3.62560
# Velocity P-wave (km/s) = 5.79829 6.28634 6.04724
#
# Compressibility (1/GPa) = 0.02514871
#
# Stress axis : x y z
#
# Youngs Moduli (GPa) = 115.54560 44.31252 86.15650
#
# Poissons Ratio (x) = -0.02189 0.21719
# Poissons Ratio (y) = -0.05707 0.58697
# Poissons Ratio (z) = 0.29128 0.30189
#
# Static dielectric constant tensor:
#      x y z
#    x 2.033530 0.000000 0.000000 
#    y 0.000000 1.849660 0.000000 
#    z 0.000000 0.000000 1.893460 
# 
# From -- ./inp_files/17640.got.cif
#   From: 2010.05.17/outbox.cif.g08.bks.cpg/sg20_9_cif.got.tgz:17640.got - 2010.06.03 22:52:26.
