data_PCOD9318837
_publ_section_title
;
Structure prediction by ZEFSAII (Michael W. Deem and Ramdas Pophale) SiO2 
 PCOD9318837
Probable space group: C 2 2 21
;
_chemical_formula_sum "Si O2"
_cell_formula_units_Z 52
_cell_length_a 11.639930
_cell_length_b 8.033077
_cell_length_c 26.623688
_cell_angle_alpha 90.000000
_cell_angle_beta 90.000000
_cell_angle_gamma 90.000000
_cell_volume 2489.433409
_symmetry_space_group_name_H-M "C 2 2 21"
_symmetry_group_IT_number 20
_symmetry_cell_setting 'orthorhombic'
loop_
_space_group_symop_operation_xyz
x,y,z
-x,-y,1/2+z
x,-y,-z
-x,y,1/2-z
1/2+x,1/2+y,z
1/2-x,1/2-y,1/2+z
1/2+x,1/2-y,-z
1/2-x,1/2+y,1/2-z
loop_
_atom_site_type_symbol
_atom_site_label
_atom_site_fract_x
_atom_site_fract_y
_atom_site_fract_z
Si Si1 0.123062 0.243305 0.626736
Si Si2 0.032830 0.413924 0.802089
Si Si3 0.659233 0.806297 0.306793
Si Si4 0.049284 0.500000 0.500000
Si Si5 0.774152 0.575726 0.912013
Si Si6 0.213610 0.034749 0.718669
Si Si7 0.474748 0.645389 0.541050
O O1 0.209713 0.388193 0.609754
O O2 0.174212 0.159178 0.675861
O O3 0.081054 0.133705 0.580338
O O4 0.004253 0.321351 0.647823
O O5 0.163228 0.464989 0.799412
O O6 0.000000 0.320782 0.750000
O O7 0.949937 0.574446 0.801937
O O8 0.694203 0.805898 0.365123
O O9 0.760674 0.887466 0.272853
O O10 0.634444 0.627106 0.283306
O O11 0.131711 0.425806 0.456378
O O12 0.981411 0.336837 0.520230
O O13 0.648547 0.613107 0.933120
O O14 0.487972 0.500000 0.500000
#
# Coordination Sequence:
#
# PCOD9318837 Si02
#       7
#     8   8   8   4   8   8   8
#     4  10  23  40  62  92 127 159 211 262 315 384
#     4   9  19  38  58  85 123 160 201 253 307 374
#     4  10  21  36  64  91 127 165 211 251 319 386
#     4  10  24  46  66  92 132 162 218 284 318 380
#     4  10  21  45  64  91 129 166 208 277 317 377
#     4  11  21  39  62  94 127 170 202 256 316 383
#     4  11  24  45  67  94 125 170 218 268 330 383
#
# _framework density 20.888287999999999
#
# number of rings (size 3 to 8) (size 9 to 14) (size 15 to 20)
#    0.000    1.846    0.769    3.692    2.154    1.231 
#    9.692    8.462    0.000    0.000    0.000    0.000 
#    0.000    0.000    0.000    0.000    0.000    0.000 
#
# Total GULP energy -145106.673998 kJ/mol
# GULP energy per Si atom -5581.025923 kJ/mol
# Density = 2.084075 g / cm^3
# Si number density = 20.888288 Si / 1000 Ang^3
#
#
#
# Elastic Constant Matrix: (Units=GPa)
#
#
# Indices 1 2 3 4 5 6 
#
# 1 68.2478 23.2527 30.7459 0.0000 0.0000 0.0000
# 2 23.2527 61.4111 41.1486 0.0000 0.0000 0.0000
# 3 30.7459 41.1486 118.5084 0.0000 0.0000 0.0000
# 4 0.0000 0.0000 0.0000 40.3510 0.0000 0.0000
# 5 0.0000 0.0000 0.0000 0.0000 30.1858 0.0000
# 6 0.0000 0.0000 0.0000 0.0000 0.0000 9.8796
#
#
#
# Elastic Compliance Matrix: (Units=1/GPa)
#
#
# Indices 1 2 3 4 5 6 
#
# 1 0.017570 -0.004689 -0.002930 0.000000 0.000000 0.000000
# 2 -0.004689 0.022472 -0.006586 0.000000 0.000000 0.000000
# 3 -0.002930 -0.006586 0.011485 0.000000 0.000000 0.000000
# 4 0.000000 0.000000 0.000000 0.024783 0.000000 0.000000
# 5 0.000000 0.000000 0.000000 0.000000 0.033128 0.000000
# 6 0.000000 0.000000 0.000000 0.000000 0.000000 0.101218
#
#
# Mechanical properties :
#
#
# Convention : Reuss Voigt Hill
#
# Bulk Modulus (GPa) = 43.25957 48.71796 45.98877
# Shear Modulus (GPa) = 20.26143 26.28463 23.27303
#
# Velocity S-wave (km/s) = 3.11784 3.55116 3.34153
# Velocity P-wave (km/s) = 5.80657 6.33941 6.07883
#
# Compressibility (1/GPa) = 0.02311627
#
# Stress axis : x y z
#
# Youngs Moduli (GPa) = 56.91428 44.49897 87.06770
#
# Poissons Ratio (x) = 0.20868 0.25512
# Poissons Ratio (y) = 0.26690 0.57345
# Poissons Ratio (z) = 0.16677 0.29308
#
# Static dielectric constant tensor:
#      x y z
#    x 1.717980 0.000000 0.000000 
#    y 0.000000 1.793660 0.000000 
#    z 0.000000 0.000000 1.764310 
# 
# From -- ./inp_files/30286.got.cif
#   From: 2010.05.17/outbox.cif.g08.bks.cpg/sg20_16_cif.got.tgz:30286.got - 2010.06.03 22:52:26.
