data_PCOD9318591
_publ_section_title
;
Structure prediction by ZEFSAII (Michael W. Deem and Ramdas Pophale) SiO2 
 PCOD9318591
Probable space group: C 2 2 21
;
_chemical_formula_sum "Si O2"
_cell_formula_units_Z 48
_cell_length_a 7.380189
_cell_length_b 15.106002
_cell_length_c 17.995290
_cell_angle_alpha 90.000000
_cell_angle_beta 90.000000
_cell_angle_gamma 90.000000
_cell_volume 2006.207601
_symmetry_space_group_name_H-M "C 2 2 21"
_symmetry_group_IT_number 20
_symmetry_cell_setting 'orthorhombic'
loop_
_space_group_symop_operation_xyz
x,y,z
-x,-y,1/2+z
x,-y,-z
-x,y,1/2-z
1/2+x,1/2+y,z
1/2-x,1/2-y,1/2+z
1/2+x,1/2-y,-z
1/2-x,1/2+y,1/2-z
loop_
_atom_site_type_symbol
_atom_site_label
_atom_site_fract_x
_atom_site_fract_y
_atom_site_fract_z
Si Si1 0.829679 0.708940 0.849319
Si Si2 0.262061 0.369822 0.018139
Si Si3 0.500000 0.055470 0.750000
Si Si4 0.000000 0.806301 0.250000
Si Si5 0.957060 0.118688 0.385493
Si Si6 0.173002 0.033439 0.664095
Si Si7 0.141933 0.324839 0.521728
O O1 0.651479 0.738633 0.802779
O O2 0.978390 0.787973 0.850260
O O3 0.790074 0.682240 0.935363
O O4 0.913811 0.622348 0.810728
O O5 0.259935 0.442191 0.081875
O O6 0.064020 0.354874 0.984019
O O7 0.408265 0.388967 0.955652
O O8 0.240026 0.117902 0.078256
O O9 0.342070 0.000083 0.711808
O O10 0.110919 0.873593 0.302118
O O11 0.173101 0.225021 0.549879
O O12 0.007943 0.034674 0.336724
#
# Coordination Sequence:
#
# PCOD9318591 Si02
#       7
#     8   8   4   4   8   8   8
#     4  10  21  40  65  94 117 176 220 256 318 390
#     4  11  21  40  68  96 128 170 214 271 327 391
#     4  10  20  42  66  84 132 178 214 256 312 404
#     4  10  24  40  68  84 132 180 214 264 314 402
#     4  11  24  40  65  99 131 163 215 280 328 383
#     4  11  23  43  61  97 134 169 216 270 336 381
#     4  11  20  40  70  95 126 166 220 269 321 389
#
# _framework density 23.925739
#
# number of rings (size 3 to 8) (size 9 to 14) (size 15 to 20)
#    0.000    1.333    5.000    1.500    2.333    1.333 
#    6.000    1.667    0.000    0.000    0.000    0.000 
#    0.000    0.000    0.000    0.000    0.000    0.000 
#
# Total GULP energy -134235.194521 kJ/mol
# GULP energy per Si atom -5593.133105 kJ/mol
# Density = 2.387128 g / cm^3
# Si number density = 23.925739 Si / 1000 Ang^3
#
#
#
# Elastic Constant Matrix: (Units=GPa)
#
#
# Indices 1 2 3 4 5 6 
#
# 1 90.0101 -6.0596 -11.3438 0.0000 0.0000 0.0000
# 2 -6.0596 40.9898 -0.8288 0.0000 0.0000 0.0000
# 3 -11.3438 -0.8288 41.8478 0.0000 0.0000 0.0000
# 4 0.0000 0.0000 0.0000 -16.4795 0.0000 0.0000
# 5 0.0000 0.0000 0.0000 0.0000 47.0612 0.0000
# 6 0.0000 0.0000 0.0000 0.0000 0.0000 -7.2118
#
#
#
# Elastic Compliance Matrix: (Units=1/GPa)
#
#
# Indices 1 2 3 4 5 6 
#
# 1 0.011632 0.001784 0.003188 0.000000 0.000000 0.000000
# 2 0.001784 0.024680 0.000972 0.000000 0.000000 0.000000
# 3 0.003188 0.000972 0.024780 0.000000 0.000000 0.000000
# 4 0.000000 0.000000 0.000000 -0.060681 0.000000 0.000000
# 5 0.000000 0.000000 0.000000 0.000000 0.021249 0.000000
# 6 0.000000 0.000000 0.000000 0.000000 0.000000 -0.138662
#
#
# Mechanical properties :
#
#
# Convention : Reuss Voigt Hill
#
# Bulk Modulus (GPa) = 13.70224 15.15370 14.42797
# Shear Modulus (GPa) = -47.81692 17.41263 -15.20215
#
# Velocity S-wave (km/s) = -4.47537 2.70066 -2.52343
# Velocity P-wave (km/s) = 4.57885 4.00901 1.56424
#
# Compressibility (1/GPa) = 0.07298078
#
# Stress axis : x y z
#
# Youngs Moduli (GPa) = 85.97125 40.51915 40.35564
#
# Poissons Ratio (x) = -0.07229 -0.12867
# Poissons Ratio (y) = -0.15337 -0.03924
# Poissons Ratio (z) = -0.27411 -0.03940
#
# Static dielectric constant tensor:
#      x y z
#    x 1.914300 0.000000 0.000000 
#    y 0.000000 1.919880 0.000000 
#    z 0.000000 0.000000 2.016590 
# 
# From -- ./inp_files/26798.got.cif
#   From: 2010.05.17/outbox.cif.g08.bks.cpg/sg20_14_cif.got.tgz:26798.got - 2010.06.03 22:52:26.
