data_PCOD9319985
_publ_section_title
;
Structure prediction by ZEFSAII (Michael W. Deem and Ramdas Pophale) SiO2 
 PCOD9319985
Probable space group: C 2 2 21
;
_chemical_formula_sum "Si O2"
_cell_formula_units_Z 44
_cell_length_a 27.249972
_cell_length_b 5.111156
_cell_length_c 12.971172
_cell_angle_alpha 90.000000
_cell_angle_beta 90.000000
_cell_angle_gamma 90.000000
_cell_volume 1806.610022
_symmetry_space_group_name_H-M "C 2 2 21"
_symmetry_group_IT_number 20
_symmetry_cell_setting 'orthorhombic'
loop_
_space_group_symop_operation_xyz
x,y,z
-x,-y,1/2+z
x,-y,-z
-x,y,1/2-z
1/2+x,1/2+y,z
1/2-x,1/2-y,1/2+z
1/2+x,1/2-y,-z
1/2-x,1/2+y,1/2-z
loop_
_atom_site_type_symbol
_atom_site_label
_atom_site_fract_x
_atom_site_fract_y
_atom_site_fract_z
Si Si1 0.207380 0.500000 0.500000
Si Si2 0.600338 0.654211 0.301883
Si Si3 0.470050 0.000000 0.500000
Si Si4 0.309934 0.328900 0.185302
Si Si5 0.217403 0.402839 0.892901
Si Si6 0.942880 0.660837 0.285186
Si Si7 0.459921 0.500000 0.000000
O O1 0.176229 0.339636 0.584144
O O2 0.243602 0.309617 0.435983
O O3 0.657550 0.589782 0.310938
O O4 0.585420 0.953144 0.286609
O O5 0.573970 0.538159 0.401869
O O6 0.578129 0.454072 0.216504
O O7 0.439327 0.968920 0.603091
O O8 0.505067 0.250577 0.498575
O O9 0.252648 0.383154 0.161342
O O10 0.314387 0.203598 0.298618
O O11 0.192958 0.500000 0.000000
O O12 0.000000 0.666811 0.250000
#
# Coordination Sequence:
#
# PCOD9319985 Si02
#       7
#     4   8   4   8   8   8   4
#     4  10  22  41  68  97 136 176 236 275 356 417
#     4  12  27  41  71 105 140 172 233 292 345 408
#     4  12  24  43  76  88 135 180 231 266 350 421
#     4  11  24  42  70 101 140 179 232 298 349 420
#     4  10  22  43  69  97 133 190 228 280 356 428
#     4  12  24  48  67 100 135 184 224 281 354 419
#     4  12  22  40  68 107 125 176 223 291 340 404
#
# _framework density 24.355005999999999
#
# number of rings (size 3 to 8) (size 9 to 14) (size 15 to 20)
#    0.000    0.727    5.455    1.636    6.364    0.727 
#    1.636    0.000    0.000    0.000    0.000    0.000 
#    0.000    0.000    0.000    0.000    0.000    0.000 
#
# Total GULP energy -123131.905868 kJ/mol
# GULP energy per Si atom -5596.904812 kJ/mol
# Density = 2.429957 g / cm^3
# Si number density = 24.355006 Si / 1000 Ang^3
#
#
#
# Elastic Constant Matrix: (Units=GPa)
#
#
# Indices 1 2 3 4 5 6 
#
# 1 57.5292 15.3230 8.7115 0.0000 0.0000 0.0000
# 2 15.3230 99.0609 5.1213 0.0000 0.0000 0.0000
# 3 8.7115 5.1213 111.7836 0.0000 0.0000 0.0000
# 4 0.0000 0.0000 0.0000 25.7249 0.0000 0.0000
# 5 0.0000 0.0000 0.0000 0.0000 8.0281 0.0000
# 6 0.0000 0.0000 0.0000 0.0000 0.0000 24.0003
#
#
#
# Elastic Compliance Matrix: (Units=1/GPa)
#
#
# Indices 1 2 3 4 5 6 
#
# 1 0.018316 -0.002766 -0.001301 0.000000 0.000000 0.000000
# 2 -0.002766 0.010536 -0.000267 0.000000 0.000000 0.000000
# 3 -0.001301 -0.000267 0.009059 0.000000 0.000000 0.000000
# 4 0.000000 0.000000 0.000000 0.038873 0.000000 0.000000
# 5 0.000000 0.000000 0.000000 0.000000 0.124563 0.000000
# 6 0.000000 0.000000 0.000000 0.000000 0.000000 0.041666
#
#
# Mechanical properties :
#
#
# Convention : Reuss Voigt Hill
#
# Bulk Modulus (GPa) = 34.19450 36.29836 35.24643
# Shear Modulus (GPa) = 19.12557 27.49849 23.31203
#
# Velocity S-wave (km/s) = 2.80533 3.36381 3.09718
# Velocity P-wave (km/s) = 4.95618 5.47934 5.22431
#
# Compressibility (1/GPa) = 0.02924447
#
# Stress axis : x y z
#
# Youngs Moduli (GPa) = 54.59657 94.90855 110.38180
#
# Poissons Ratio (x) = 0.26251 0.14357
# Poissons Ratio (y) = 0.15101 0.02949
# Poissons Ratio (z) = 0.07101 0.02536
#
# Static dielectric constant tensor:
#      x y z
#    x 1.912010 0.000000 0.000000 
#    y 0.000000 1.985570 0.000000 
#    z 0.000000 0.000000 2.014080 
# 
# From -- ./inp_files/22137.got.cif
#   From: 2010.05.17/outbox.cif.g08.bks.cpg/sg20_12_cif.got.tgz:22137.got - 2010.06.03 22:52:26.
