data_PCOD9319090
_publ_section_title
;
Structure prediction by ZEFSAII (Michael W. Deem and Ramdas Pophale) SiO2 
 PCOD9319090
Probable space group: C 2 2 21
;
_chemical_formula_sum "Si O2"
_cell_formula_units_Z 52
_cell_length_a 27.222672
_cell_length_b 7.825837
_cell_length_c 11.353014
_cell_angle_alpha 90.000000
_cell_angle_beta 90.000000
_cell_angle_gamma 90.000000
_cell_volume 2418.648303
_symmetry_space_group_name_H-M "C 2 2 21"
_symmetry_group_IT_number 20
_symmetry_cell_setting 'orthorhombic'
loop_
_space_group_symop_operation_xyz
x,y,z
-x,-y,1/2+z
x,-y,-z
-x,y,1/2-z
1/2+x,1/2+y,z
1/2-x,1/2-y,1/2+z
1/2+x,1/2-y,-z
1/2-x,1/2+y,1/2-z
loop_
_atom_site_type_symbol
_atom_site_label
_atom_site_fract_x
_atom_site_fract_y
_atom_site_fract_z
Si Si1 0.131508 0.464350 0.342410
Si Si2 0.274756 0.362650 0.280865
Si Si3 0.477554 0.958611 0.126736
Si Si4 0.354864 0.558425 0.129829
Si Si5 0.809798 0.504530 0.637485
Si Si6 0.714114 0.000000 0.500000
Si Si7 0.030844 0.048237 0.365360
O O1 0.142913 0.265086 0.370480
O O2 0.138944 0.466421 0.202671
O O3 0.172712 0.575912 0.409640
O O4 0.078202 0.526306 0.376726
O O5 0.318060 0.480331 0.227103
O O6 0.231009 0.363133 0.184454
O O7 0.250100 0.420646 0.403589
O O8 0.292014 0.175500 0.312810
O O9 0.500000 0.021068 0.250000
O O10 0.472805 0.754065 0.136361
O O11 0.501412 0.000000 0.000000
O O12 0.411502 0.499648 0.147492
O O13 0.337992 0.500000 0.000000
O O14 0.813132 0.500000 0.500000
O O15 0.000000 0.986712 0.250000
O O16 0.015281 0.000000 0.500000
#
# Coordination Sequence:
#
# PCOD9319090 Si02
#       7
#     8   8   8   8   8   4   8
#     4  10  22  40  62  85 125 166 202 252 317 369
#     4  11  24  38  61  85 120 159 208 251 309 358
#     4  10  21  39  65  94 126 163 211 261 316 382
#     4  10  22  39  63  90 122 158 211 255 306 376
#     4  11  26  40  59  87 123 159 208 258 303 373
#     4  10  22  36  60  82 112 162 200 242 298 366
#     4   9  20  40  63  92 124 164 207 259 316 379
#
# _framework density 21.499611999999999
#
# number of rings (size 3 to 8) (size 9 to 14) (size 15 to 20)
#    0.000    1.846    0.769    2.308   10.769    2.462 
#    1.385    1.538    0.000    0.000    0.000    0.000 
#    0.000    0.000    0.000    0.000    0.000    0.000 
#
# Total GULP energy -144943.137354 kJ/mol
# GULP energy per Si atom -5574.736052 kJ/mol
# Density = 2.145068 g / cm^3
# Si number density = 21.499612 Si / 1000 Ang^3
#
#
#
# Elastic Constant Matrix: (Units=GPa)
#
#
# Indices 1 2 3 4 5 6 
#
# 1 78.0676 7.0513 62.0085 0.0000 0.0000 0.0000
# 2 7.0513 42.3343 20.4608 0.0000 0.0000 0.0000
# 3 62.0085 20.4608 220.9857 0.0000 0.0000 0.0000
# 4 0.0000 0.0000 0.0000 26.2712 0.0000 0.0000
# 5 0.0000 0.0000 0.0000 0.0000 31.8787 0.0000
# 6 0.0000 0.0000 0.0000 0.0000 0.0000 3.5401
#
#
#
# Elastic Compliance Matrix: (Units=1/GPa)
#
#
# Indices 1 2 3 4 5 6 
#
# 1 0.016495 -0.000534 -0.004579 0.000000 0.000000 0.000000
# 2 -0.000534 0.024745 -0.002141 0.000000 0.000000 0.000000
# 3 -0.004579 -0.002141 0.006008 0.000000 0.000000 0.000000
# 4 0.000000 0.000000 0.000000 0.038064 0.000000 0.000000
# 5 0.000000 0.000000 0.000000 0.000000 0.031369 0.000000
# 6 0.000000 0.000000 0.000000 0.000000 0.000000 0.282480
#
#
# Mechanical properties :
#
#
# Convention : Reuss Voigt Hill
#
# Bulk Modulus (GPa) = 30.54423 57.82543 44.18483
# Shear Modulus (GPa) = 11.77625 29.12913 20.45269
#
# Velocity S-wave (km/s) = 2.34293 3.68485 3.08767
# Velocity P-wave (km/s) = 4.64293 6.71257 5.77128
#
# Compressibility (1/GPa) = 0.03273941
#
# Stress axis : x y z
#
# Youngs Moduli (GPa) = 60.62555 40.41158 166.43696
#
# Poissons Ratio (x) = 0.02159 0.76210
# Poissons Ratio (y) = 0.03239 0.35638
# Poissons Ratio (z) = 0.27760 0.08653
#
# Static dielectric constant tensor:
#      x y z
#    x 1.833410 0.000000 0.000000 
#    y 0.000000 1.833390 0.000000 
#    z 0.000000 0.000000 1.861640 
# 
# From -- ./inp_files/17005.got.cif
#   From: 2010.05.17/outbox.cif.g08.bks.cpg/sg20_9_cif.got.tgz:17005.got - 2010.06.03 22:52:26.
