data_PCOD9319717
_publ_section_title
;
Structure prediction by ZEFSAII (Michael W. Deem and Ramdas Pophale) SiO2 
 PCOD9319717
Probable space group: C 2 2 21
;
_chemical_formula_sum "Si O2"
_cell_formula_units_Z 60
_cell_length_a 17.620870
_cell_length_b 8.419252
_cell_length_c 18.518915
_cell_angle_alpha 90.000000
_cell_angle_beta 90.000000
_cell_angle_gamma 90.000000
_cell_volume 2747.365209
_symmetry_space_group_name_H-M "C 2 2 21"
_symmetry_group_IT_number 20
_symmetry_cell_setting 'orthorhombic'
loop_
_space_group_symop_operation_xyz
x,y,z
-x,-y,1/2+z
x,-y,-z
-x,y,1/2-z
1/2+x,1/2+y,z
1/2-x,1/2-y,1/2+z
1/2+x,1/2-y,-z
1/2-x,1/2+y,1/2-z
loop_
_atom_site_type_symbol
_atom_site_label
_atom_site_fract_x
_atom_site_fract_y
_atom_site_fract_z
Si Si1 0.176234 0.985527 0.126035
Si Si2 0.929597 0.580900 0.706595
Si Si3 0.559837 0.500000 0.000000
Si Si4 0.174002 0.367332 0.437429
Si Si5 0.768273 0.431108 0.573517
Si Si6 0.501921 0.152743 0.946209
Si Si7 0.647224 0.221251 0.208465
Si Si8 0.772011 0.702346 0.679502
O O1 0.262506 0.922439 0.119476
O O2 0.138302 0.909087 0.196761
O O3 0.189352 0.170740 0.127725
O O4 0.117630 0.950394 0.063078
O O5 0.922036 0.393202 0.723494
O O6 0.844444 0.638746 0.724099
O O7 0.000000 0.650866 0.750000
O O8 0.945994 0.617158 0.622977
O O9 0.517225 0.332876 0.977673
O O10 0.181471 0.500000 0.500000
O O11 0.204933 0.191349 0.454922
O O12 0.085834 0.355992 0.419442
O O13 0.804146 0.500000 0.500000
O O14 0.824251 0.340723 0.629277
O O15 0.737836 0.567537 0.627524
O O16 0.510434 0.000000 0.000000
O O17 0.712076 0.213144 0.268822
#
# Coordination Sequence:
#
# PCOD9319717 Si02
#       8
#     8   8   4   8   8   8   8   8
#     4  11  21  40  69  97 135 175 241 290 347 416
#     4  11  25  45  68  98 140 192 234 288 372 432
#     4  12  24  44  70 106 138 176 240 298 350 426
#     4  10  22  40  64 103 136 179 224 297 361 422
#     4  10  22  38  67 103 135 178 244 296 352 422
#     4  11  26  47  71 100 147 185 229 300 369 425
#     4  10  24  41  67  98 137 185 238 292 352 433
#     4  11  23  43  67 104 137 186 233 297 360 427
#
# _framework density 21.839106000000001
#
# number of rings (size 3 to 8) (size 9 to 14) (size 15 to 20)
#    0.000    1.333    2.000    3.200    8.400    2.133 
#    0.000    2.000    0.000    0.000    0.000    0.000 
#    0.000    0.000    0.000    0.000    0.000    0.000 
#
# Total GULP energy -167042.501556 kJ/mol
# GULP energy per Si atom -5568.083385 kJ/mol
# Density = 2.178940 g / cm^3
# Si number density = 21.839106 Si / 1000 Ang^3
#
#
#
# Elastic Constant Matrix: (Units=GPa)
#
#
# Indices 1 2 3 4 5 6 
#
# 1 115.4263 46.7969 34.3326 0.0000 0.0000 0.0000
# 2 46.7969 117.9150 18.1989 0.0000 0.0000 0.0000
# 3 34.3326 18.1989 62.2372 0.0000 0.0000 0.0000
# 4 0.0000 0.0000 0.0000 35.5501 0.0000 0.0000
# 5 0.0000 0.0000 0.0000 0.0000 8.0438 0.0000
# 6 0.0000 0.0000 0.0000 0.0000 0.0000 25.2768
#
#
#
# Elastic Compliance Matrix: (Units=1/GPa)
#
#
# Indices 1 2 3 4 5 6 
#
# 1 0.011836 -0.003864 -0.005399 0.000000 0.000000 0.000000
# 2 -0.003864 0.010143 -0.000834 0.000000 0.000000 0.000000
# 3 -0.005399 -0.000834 0.019290 0.000000 0.000000 0.000000
# 4 0.000000 0.000000 0.000000 0.028129 0.000000 0.000000
# 5 0.000000 0.000000 0.000000 0.000000 0.124320 0.000000
# 6 0.000000 0.000000 0.000000 0.000000 0.000000 0.039562
#
#
# Mechanical properties :
#
#
# Convention : Reuss Voigt Hill
#
# Bulk Modulus (GPa) = 47.45284 54.91504 51.18394
# Shear Modulus (GPa) = 19.19382 26.85746 23.02564
#
# Velocity S-wave (km/s) = 2.96780 3.51064 3.25057
# Velocity P-wave (km/s) = 5.78959 6.45234 6.12992
#
# Compressibility (1/GPa) = 0.02107356
#
# Stress axis : x y z
#
# Youngs Moduli (GPa) = 84.48697 98.59022 51.84011
#
# Poissons Ratio (x) = 0.38096 0.27991
# Poissons Ratio (y) = 0.32646 0.04325
# Poissons Ratio (z) = 0.45618 0.08226
#
# Static dielectric constant tensor:
#      x y z
#    x 1.775040 0.000000 0.000000 
#    y 0.000000 2.020770 0.000000 
#    z 0.000000 0.000000 1.840810 
# 
# From -- ./inp_files/25280.got.cif
#   From: 2010.05.17/outbox.cif.g08.bks.cpg/sg20_13_cif.got.tgz:25280.got - 2010.06.03 22:52:26.
