data_PCOD9319474
_publ_section_title
;
Structure prediction by ZEFSAII (Michael W. Deem and Ramdas Pophale) SiO2 
 PCOD9319474
Probable space group: C 2 2 21
;
_chemical_formula_sum "Si O2"
_cell_formula_units_Z 60
_cell_length_a 27.477647
_cell_length_b 9.999083
_cell_length_c 9.614175
_cell_angle_alpha 90.000000
_cell_angle_beta 90.000000
_cell_angle_gamma 90.000000
_cell_volume 2641.506820
_symmetry_space_group_name_H-M "C 2 2 21"
_symmetry_group_IT_number 20
_symmetry_cell_setting 'orthorhombic'
loop_
_space_group_symop_operation_xyz
x,y,z
-x,-y,1/2+z
x,-y,-z
-x,y,1/2-z
1/2+x,1/2+y,z
1/2-x,1/2-y,1/2+z
1/2+x,1/2-y,-z
1/2-x,1/2+y,1/2-z
loop_
_atom_site_type_symbol
_atom_site_label
_atom_site_fract_x
_atom_site_fract_y
_atom_site_fract_z
Si Si1 0.785843 0.500000 0.500000
Si Si2 0.667099 0.420491 0.123320
Si Si3 0.648735 0.875925 0.314078
Si Si4 0.224634 0.759722 0.895200
Si Si5 0.536978 0.402320 0.629135
Si Si6 0.961745 0.595714 0.866376
Si Si7 0.678464 0.153401 0.254747
Si Si8 0.349763 0.595913 0.129196
O O1 0.752582 0.379052 0.450953
O O2 0.819772 0.425933 0.609666
O O3 0.650749 0.292033 0.216759
O O4 0.766553 0.686056 0.202634
O O5 0.679120 0.533526 0.238523
O O6 0.709290 0.353725 0.024992
O O7 0.678148 0.806879 0.184992
O O8 0.591235 0.891716 0.295655
O O9 0.658070 0.750417 0.417310
O O10 0.663735 0.027152 0.349858
O O11 0.137970 0.000000 0.000000
O O12 0.531621 0.500000 0.500000
O O13 0.500000 0.440429 0.750000
O O14 0.525987 0.248037 0.589951
O O15 0.593399 0.409167 0.676616
O O16 0.000000 0.550340 0.750000
O O17 0.959743 0.500000 0.000000
O O18 0.346047 0.500000 0.000000
#
# Coordination Sequence:
#
# PCOD9319474 Si02
#       8
#     4   8   8   8   8   8   8   8
#     4   8  20  40  60  88 130 166 228 272 330 400
#     4  11  23  42  63  96 130 174 239 282 342 416
#     4  10  22  44  70  98 141 185 231 291 356 421
#     4  10  21  43  65  93 134 176 229 286 337 418
#     4   9  20  40  67 100 138 174 220 282 356 427
#     4  10  23  47  69 104 139 180 237 297 353 430
#     4  10  23  42  66  97 135 183 230 287 344 415
#     4  10  22  43  66  94 140 183 225 292 350 415
#
# _framework density 22.714307999999999
#
# number of rings (size 3 to 8) (size 9 to 14) (size 15 to 20)
#    0.000    2.133    1.333    0.000    3.733    4.267 
#   21.600    0.000    0.000    0.000    0.000    0.000 
#    0.000    0.000    0.000    0.000    0.000    0.000 
#
# Total GULP energy -167011.125798 kJ/mol
# GULP energy per Si atom -5567.037527 kJ/mol
# Density = 2.266261 g / cm^3
# Si number density = 22.714308 Si / 1000 Ang^3
#
#
#
# Elastic Constant Matrix: (Units=GPa)
#
#
# Indices 1 2 3 4 5 6 
#
# 1 91.1695 33.9495 37.3930 0.0000 0.0000 0.0000
# 2 33.9495 179.5815 48.1253 0.0000 0.0000 0.0000
# 3 37.3930 48.1253 94.3780 0.0000 0.0000 0.0000
# 4 0.0000 0.0000 0.0000 47.8907 0.0000 0.0000
# 5 0.0000 0.0000 0.0000 0.0000 10.2800 0.0000
# 6 0.0000 0.0000 0.0000 0.0000 0.0000 -7.4320
#
#
#
# Elastic Compliance Matrix: (Units=1/GPa)
#
#
# Indices 1 2 3 4 5 6 
#
# 1 0.013347 -0.001281 -0.004635 0.000000 0.000000 0.000000
# 2 -0.001281 0.006573 -0.002844 0.000000 0.000000 0.000000
# 3 -0.004635 -0.002844 0.013882 0.000000 0.000000 0.000000
# 4 0.000000 0.000000 0.000000 0.020881 0.000000 0.000000
# 5 0.000000 0.000000 0.000000 0.000000 0.097277 0.000000
# 6 0.000000 0.000000 0.000000 0.000000 0.000000 -0.134554
#
#
# Mechanical properties :
#
#
# Convention : Reuss Voigt Hill
#
# Bulk Modulus (GPa) = 61.41790 67.11831 64.26810
# Shear Modulus (GPa) = 123.90935 26.52516 75.21725
#
# Velocity S-wave (km/s) = 7.39389 3.42098 5.76076
# Velocity P-wave (km/s) = 9.99954 6.72437 8.52080
#
# Compressibility (1/GPa) = 0.01628190
#
# Stress axis : x y z
#
# Youngs Moduli (GPa) = 74.92575 152.14083 72.03454
#
# Poissons Ratio (x) = 0.19491 0.33386
# Poissons Ratio (y) = 0.09599 0.20487
# Poissons Ratio (z) = 0.34726 0.43270
#
# Static dielectric constant tensor:
#      x y z
#    x 1.825440 0.000000 0.000000 
#    y 0.000000 2.028780 0.000000 
#    z 0.000000 0.000000 2.071280 
# 
# From -- ./inp_files/17071.got.cif
#   From: 2010.05.17/outbox.cif.g08.bks.cpg/sg20_9_cif.got.tgz:17071.got - 2010.06.03 22:52:26.
