data_PCOD9319463
_publ_section_title
;
Structure prediction by ZEFSAII (Michael W. Deem and Ramdas Pophale) SiO2 
 PCOD9319463
Probable space group: C 2 2 21
;
_chemical_formula_sum "Si O2"
_cell_formula_units_Z 56
_cell_length_a 11.152825
_cell_length_b 14.614109
_cell_length_c 17.873794
_cell_angle_alpha 90.000000
_cell_angle_beta 90.000000
_cell_angle_gamma 90.000000
_cell_volume 2913.224664
_symmetry_space_group_name_H-M "C 2 2 21"
_symmetry_group_IT_number 20
_symmetry_cell_setting 'orthorhombic'
loop_
_space_group_symop_operation_xyz
x,y,z
-x,-y,1/2+z
x,-y,-z
-x,y,1/2-z
1/2+x,1/2+y,z
1/2-x,1/2-y,1/2+z
1/2+x,1/2-y,-z
1/2-x,1/2+y,1/2-z
loop_
_atom_site_type_symbol
_atom_site_label
_atom_site_fract_x
_atom_site_fract_y
_atom_site_fract_z
Si Si1 0.716930 0.500000 0.000000
Si Si2 0.776871 0.917410 0.799518
Si Si3 0.547809 0.204515 0.169498
Si Si4 0.026146 0.156975 0.966682
Si Si5 0.684525 0.905730 0.639239
Si Si6 0.000000 0.200775 0.250000
Si Si7 0.372976 0.757731 0.393358
Si Si8 0.272178 0.562787 0.932119
O O1 0.629598 0.581648 0.974850
O O2 0.796306 0.471372 0.930041
O O3 0.676687 0.843061 0.823595
O O4 0.733711 0.947557 0.716689
O O5 0.901628 0.864969 0.788086
O O6 0.786861 0.998449 0.859323
O O7 0.500000 0.240543 0.250000
O O8 0.545617 0.280989 0.106171
O O9 0.450814 0.126914 0.148868
O O10 0.898811 0.106689 0.958263
O O11 0.041670 0.218798 0.041035
O O12 0.765902 0.815917 0.621047
O O13 0.941626 0.260459 0.315033
O O14 0.316148 0.853681 0.415599
O O15 0.227425 0.500000 0.000000
#
# Coordination Sequence:
#
# PCOD9319463 Si02
#       8
#     4   8   8   8   8   4   8   8
#     4  10  22  40  62  96 124 164 206 262 310 366
#     4  10  23  40  66  93 127 166 211 271 310 365
#     4  10  21  43  63  89 127 169 205 255 321 379
#     4  11  22  38  66  94 125 163 214 256 313 382
#     4   9  20  43  63  89 130 164 206 257 318 377
#     4  10  22  46  66  88 128 172 214 258 324 376
#     4  10  22  42  64  90 126 168 208 261 318 379
#     4  12  23  40  64  98 126 162 216 263 316 376
#
# _framework density 19.222684999999998
#
# number of rings (size 3 to 8) (size 9 to 14) (size 15 to 20)
#    0.000    1.714    2.143    1.714    4.000    1.143 
#    7.714    0.000    0.000    0.000    0.000    0.000 
#    0.000    0.000    0.000    0.000    0.000    0.000 
#
# Total GULP energy -156449.666861 kJ/mol
# GULP energy per Si atom -5587.488102 kJ/mol
# Density = 1.917893 g / cm^3
# Si number density = 19.222685 Si / 1000 Ang^3
#
#
#
# Elastic Constant Matrix: (Units=GPa)
#
#
# Indices 1 2 3 4 5 6 
#
# 1 85.6744 29.0140 40.6521 0.0000 0.0000 0.0000
# 2 29.0140 73.0443 81.8132 0.0000 0.0000 0.0000
# 3 40.6521 81.8132 154.6162 0.0000 0.0000 0.0000
# 4 0.0000 0.0000 0.0000 46.1440 0.0000 0.0000
# 5 0.0000 0.0000 0.0000 0.0000 25.1855 0.0000
# 6 0.0000 0.0000 0.0000 0.0000 0.0000 -2.7012
#
#
#
# Elastic Compliance Matrix: (Units=1/GPa)
#
#
# Indices 1 2 3 4 5 6 
#
# 1 0.013681 -0.003450 -0.001771 0.000000 0.000000 0.000000
# 2 -0.003450 0.034479 -0.017337 0.000000 0.000000 0.000000
# 3 -0.001771 -0.017337 0.016107 0.000000 0.000000 0.000000
# 4 0.000000 0.000000 0.000000 0.021671 0.000000 0.000000
# 5 0.000000 0.000000 0.000000 0.000000 0.039705 0.000000
# 6 0.000000 0.000000 0.000000 0.000000 0.000000 -0.370206
#
#
# Mechanical properties :
#
#
# Convention : Reuss Voigt Hill
#
# Bulk Modulus (GPa) = 52.21956 68.47705 60.34831
# Shear Modulus (GPa) = -25.89852 24.51604 -0.69124
#
# Velocity S-wave (km/s) = -3.67453 3.57511 -0.60031
# Velocity P-wave (km/s) = 3.03673 7.26238 5.56614
#
# Compressibility (1/GPa) = 0.01914991
#
# Stress axis : x y z
#
# Youngs Moduli (GPa) = 73.09380 29.00303 62.08441
#
# Poissons Ratio (x) = 0.10006 0.10998
# Poissons Ratio (y) = 0.25218 1.07636
# Poissons Ratio (z) = 0.12948 0.50283
#
# Static dielectric constant tensor:
#      x y z
#    x 1.659240 0.000000 0.000000 
#    y 0.000000 1.636530 0.000000 
#    z 0.000000 0.000000 1.672680 
# 
# From -- ./inp_files/20080.got.cif
#   From: 2010.05.17/outbox.cif.g08.bks.cpg/sg20_11_cif.got.tgz:20080.got - 2010.06.03 22:52:26.
