data_PCOD9319294
_publ_section_title
;
Structure prediction by ZEFSAII (Michael W. Deem and Ramdas Pophale) SiO2 
 PCOD9319294
Probable space group: C 2 2 21
;
_chemical_formula_sum "Si O2"
_cell_formula_units_Z 48
_cell_length_a 6.493737
_cell_length_b 12.658269
_cell_length_c 25.898133
_cell_angle_alpha 90.000000
_cell_angle_beta 90.000000
_cell_angle_gamma 90.000000
_cell_volume 2128.812800
_symmetry_space_group_name_H-M "C 2 2 21"
_symmetry_group_IT_number 20
_symmetry_cell_setting 'orthorhombic'
loop_
_space_group_symop_operation_xyz
x,y,z
-x,-y,1/2+z
x,-y,-z
-x,y,1/2-z
1/2+x,1/2+y,z
1/2-x,1/2-y,1/2+z
1/2+x,1/2-y,-z
1/2-x,1/2+y,1/2-z
loop_
_atom_site_type_symbol
_atom_site_label
_atom_site_fract_x
_atom_site_fract_y
_atom_site_fract_z
Si Si1 0.535590 0.298900 0.070100
Si Si2 0.597542 0.866751 0.365949
Si Si3 0.761080 0.998377 0.102332
Si Si4 0.486226 0.391381 0.530377
Si Si5 0.766751 0.181890 0.366542
Si Si6 0.410416 0.499500 0.306567
O O1 0.763305 0.331276 0.086256
O O2 0.370412 0.394629 0.078177
O O3 0.454945 0.220866 0.114478
O O4 0.525763 0.292611 0.008253
O O5 0.467121 0.968835 0.382488
O O6 0.428584 0.776822 0.354098
O O7 0.763835 0.901873 0.322997
O O8 0.794003 0.085940 0.058098
O O9 0.898160 0.014504 0.153664
O O10 0.425428 0.500000 0.500000
O O11 0.347057 0.372783 0.580511
O O12 0.775489 0.103345 0.318547
O O13 0.500000 0.489854 0.250000
#
# Coordination Sequence:
#
# PCOD9319294 Si02
#       6
#     8   8   8   8   8   8
#     4   9  19  36  57  91 124 159 212 247 313 385
#     4  10  21  41  64  87 127 173 203 272 329 381
#     4   8  18  39  60  86 126 158 209 263 315 388
#     4   9  18  36  58  86 127 167 208 257 311 389
#     4  10  22  39  58  93 132 161 217 271 313 403
#     4  10  22  43  64  91 124 165 222 276 334 399
#
# _framework density 22.547778999999998
#
# number of rings (size 3 to 8) (size 9 to 14) (size 15 to 20)
#    0.000    2.667    0.000    1.000    2.333    3.333 
#    9.000   24.167    0.000    0.000    0.000    0.000 
#    0.000    0.000    0.000    0.000    0.000    0.000 
#
# Total GULP energy -133789.773521 kJ/mol
# GULP energy per Si atom -5574.573897 kJ/mol
# Density = 2.249646 g / cm^3
# Si number density = 22.547779 Si / 1000 Ang^3
#
#
#
# Elastic Constant Matrix: (Units=GPa)
#
#
# Indices 1 2 3 4 5 6 
#
# 1 82.1844 4.3807 2.9060 0.0000 0.0000 0.0000
# 2 4.3807 53.6312 2.1025 0.0000 0.0000 0.0000
# 3 2.9060 2.1025 67.8665 0.0000 0.0000 0.0000
# 4 0.0000 0.0000 0.0000 25.0265 0.0000 0.0000
# 5 0.0000 0.0000 0.0000 0.0000 11.4447 0.0000
# 6 0.0000 0.0000 0.0000 0.0000 0.0000 32.6151
#
#
#
# Elastic Compliance Matrix: (Units=1/GPa)
#
#
# Indices 1 2 3 4 5 6 
#
# 1 0.012237 -0.000980 -0.000494 0.000000 0.000000 0.000000
# 2 -0.000980 0.018747 -0.000539 0.000000 0.000000 0.000000
# 3 -0.000494 -0.000539 0.014773 0.000000 0.000000 0.000000
# 4 0.000000 0.000000 0.000000 0.039958 0.000000 0.000000
# 5 0.000000 0.000000 0.000000 0.000000 0.087377 0.000000
# 6 0.000000 0.000000 0.000000 0.000000 0.000000 0.030661
#
#
# Mechanical properties :
#
#
# Convention : Reuss Voigt Hill
#
# Bulk Modulus (GPa) = 23.96255 24.71784 24.34020
# Shear Modulus (GPa) = 22.55421 26.77012 24.66216
#
# Velocity S-wave (km/s) = 3.16616 3.44940 3.31081
# Velocity P-wave (km/s) = 4.90067 5.18177 5.04318
#
# Compressibility (1/GPa) = 0.04173179
#
# Stress axis : x y z
#
# Youngs Moduli (GPa) = 81.71630 53.34175 67.69271
#
# Poissons Ratio (x) = 0.05229 0.03342
# Poissons Ratio (y) = 0.08010 0.03647
# Poissons Ratio (z) = 0.04034 0.02874
#
# Static dielectric constant tensor:
#      x y z
#    x 1.861940 0.000000 0.000000 
#    y 0.000000 2.054200 0.000000 
#    z 0.000000 0.000000 1.805960 
# 
# From -- ./inp_files/29830.got.cif
#   From: 2010.05.17/outbox.cif.g08.bks.cpg/sg20_15_cif.got.tgz:29830.got - 2010.06.03 22:52:26.
