data_PCOD9319068
_publ_section_title
;
Structure prediction by ZEFSAII (Michael W. Deem and Ramdas Pophale) SiO2 
 PCOD9319068
Probable space group: C 2 2 21
;
_chemical_formula_sum "Si O2"
_cell_formula_units_Z 48
_cell_length_a 13.810450
_cell_length_b 18.659079
_cell_length_c 9.123965
_cell_angle_alpha 90.000000
_cell_angle_beta 90.000000
_cell_angle_gamma 90.000000
_cell_volume 2351.157073
_symmetry_space_group_name_H-M "C 2 2 21"
_symmetry_group_IT_number 20
_symmetry_cell_setting 'orthorhombic'
loop_
_space_group_symop_operation_xyz
x,y,z
-x,-y,1/2+z
x,-y,-z
-x,y,1/2-z
1/2+x,1/2+y,z
1/2-x,1/2-y,1/2+z
1/2+x,1/2-y,-z
1/2-x,1/2+y,1/2-z
loop_
_atom_site_type_symbol
_atom_site_label
_atom_site_fract_x
_atom_site_fract_y
_atom_site_fract_z
Si Si1 0.468092 0.572615 0.082608
Si Si2 0.245560 0.454929 0.864866
Si Si3 0.546161 0.926921 0.410854
Si Si4 0.238461 0.396356 0.272636
Si Si5 0.866980 0.340387 0.519901
Si Si6 0.426357 0.686090 0.618521
O O1 0.500000 0.570908 0.250000
O O2 0.351388 0.570755 0.085224
O O3 0.499321 0.500000 0.000000
O O4 0.513588 0.639811 0.999379
O O5 0.252926 0.517544 0.746571
O O6 0.199024 0.500000 0.000000
O O7 0.180347 0.385301 0.845987
O O8 0.500000 0.942855 0.250000
O O9 0.649819 0.890241 0.385210
O O10 0.471473 0.873877 0.487843
O O11 0.555536 0.000000 0.500000
O O12 0.200008 0.358910 0.122170
O O13 0.338682 0.362150 0.320621
O O14 0.879847 0.257382 0.551233
O O15 0.500000 0.704097 0.750000
#
# Coordination Sequence:
#
# PCOD9319068 Si02
#       6
#     8   8   8   8   8   8
#     4  11  23  41  67  94 128 173 222 272 329 398
#     4   9  18  38  65  89 121 164 208 261 326 385
#     4  10  21  39  64  91 122 158 208 266 325 394
#     4  10  22  41  64  91 125 166 221 273 318 391
#     4  10  22  39  62  92 128 169 206 267 342 393
#     4  12  26  42  63  95 133 172 218 273 335 409
#
# _framework density 20.415479000000001
#
# number of rings (size 3 to 8) (size 9 to 14) (size 15 to 20)
#    0.000    1.667    0.000    7.000    0.000   10.000 
#    0.000    0.000    0.000    0.000    0.000    0.000 
#    0.000    0.000    0.000    0.000    0.000    0.000 
#
# Total GULP energy -134067.452649 kJ/mol
# GULP energy per Si atom -5586.143860 kJ/mol
# Density = 2.036901 g / cm^3
# Si number density = 20.415479 Si / 1000 Ang^3
#
#
#
# Elastic Constant Matrix: (Units=GPa)
#
#
# Indices 1 2 3 4 5 6 
#
# 1 121.2626 52.9526 24.4776 0.0000 0.0000 0.0000
# 2 52.9526 146.7553 43.2804 0.0000 0.0000 0.0000
# 3 24.4776 43.2804 63.0786 0.0000 0.0000 0.0000
# 4 0.0000 0.0000 0.0000 17.5554 0.0000 0.0000
# 5 0.0000 0.0000 0.0000 0.0000 16.6961 0.0000
# 6 0.0000 0.0000 0.0000 0.0000 0.0000 152.0254
#
#
#
# Elastic Compliance Matrix: (Units=1/GPa)
#
#
# Indices 1 2 3 4 5 6 
#
# 1 0.009941 -0.003071 -0.001751 0.000000 0.000000 0.000000
# 2 -0.003071 0.009491 -0.005321 0.000000 0.000000 0.000000
# 3 -0.001751 -0.005321 0.020183 0.000000 0.000000 0.000000
# 4 0.000000 0.000000 0.000000 0.056963 0.000000 0.000000
# 5 0.000000 0.000000 0.000000 0.000000 0.059894 0.000000
# 6 0.000000 0.000000 0.000000 0.000000 0.000000 0.006578
#
#
# Mechanical properties :
#
#
# Convention : Reuss Voigt Hill
#
# Bulk Modulus (GPa) = 51.72942 63.61311 57.67126
# Shear Modulus (GPa) = 26.34667 51.28111 38.81389
#
# Velocity S-wave (km/s) = 3.59628 5.01730 4.36500
# Velocity P-wave (km/s) = 6.52975 8.04930 7.32902
#
# Compressibility (1/GPa) = 0.01933136
#
# Stress axis : x y z
#
# Youngs Moduli (GPa) = 100.59553 105.36147 49.54594
#
# Poissons Ratio (x) = 0.32352 0.08674
# Poissons Ratio (y) = 0.30888 0.26362
# Poissons Ratio (z) = 0.17611 0.56059
#
# Static dielectric constant tensor:
#      x y z
#    x 1.728950 0.000000 0.000000 
#    y 0.000000 1.708040 0.000000 
#    z 0.000000 0.000000 1.387780 
# 
# From -- ./inp_files/8435.got.cif
#   From: 2010.05.17/outbox.cif.g08.bks.cpg/sg20_5_cif.got.tgz:8435.got - 2010.06.03 22:52:26.
