data_PCOD9319923
_publ_section_title
;
Structure prediction by ZEFSAII (Michael W. Deem and Ramdas Pophale) SiO2 
 PCOD9319923
Probable space group: C 2 2 21
;
_chemical_formula_sum "Si O2"
_cell_formula_units_Z 48
_cell_length_a 12.196155
_cell_length_b 24.623103
_cell_length_c 6.716304
_cell_angle_alpha 90.000000
_cell_angle_beta 90.000000
_cell_angle_gamma 90.000000
_cell_volume 2016.954319
_symmetry_space_group_name_H-M "C 2 2 21"
_symmetry_group_IT_number 20
_symmetry_cell_setting 'orthorhombic'
loop_
_space_group_symop_operation_xyz
x,y,z
-x,-y,1/2+z
x,-y,-z
-x,y,1/2-z
1/2+x,1/2+y,z
1/2-x,1/2-y,1/2+z
1/2+x,1/2-y,-z
1/2-x,1/2+y,1/2-z
loop_
_atom_site_type_symbol
_atom_site_label
_atom_site_fract_x
_atom_site_fract_y
_atom_site_fract_z
Si Si1 0.912920 0.683259 0.875181
Si Si2 0.190902 0.875402 0.233936
Si Si3 0.415549 0.166755 0.374087
Si Si4 0.800479 0.443840 0.578855
Si Si5 0.387756 0.412425 0.664028
Si Si6 0.333236 0.304726 0.910879
O O1 0.942734 0.677020 0.126130
O O2 0.885013 0.747287 0.868484
O O3 0.555201 0.826502 0.124455
O O4 0.801338 0.646766 0.872198
O O5 0.228479 0.918815 0.398552
O O6 0.143231 0.825932 0.365140
O O7 0.113753 0.901583 0.069775
O O8 0.388323 0.102085 0.372425
O O9 0.298122 0.198118 0.385469
O O10 0.847242 0.500000 0.500000
O O11 0.716394 0.447283 0.763066
O O12 0.500000 0.435755 0.750000
O O13 0.372492 0.352715 0.764969
#
# Coordination Sequence:
#
# PCOD9319923 Si02
#       6
#     8   8   8   8   8   8
#     4  12  21  39  63  91 132 176 229 262 333 398
#     4  10  23  42  66  92 137 173 217 285 335 402
#     4  10  22  41  61  91 133 176 224 279 327 400
#     4  10  23  46  66  98 135 167 228 287 339 403
#     4  10  22  44  66  97 133 166 223 270 340 417
#     4  10  24  37  60  97 134 177 219 277 320 408
#
# _framework density 23.798257
#
# number of rings (size 3 to 8) (size 9 to 14) (size 15 to 20)
#    0.000    2.000    3.333    2.500    4.667    4.667 
#    6.000    0.000    0.000    0.000    0.000    0.000 
#    0.000    0.000    0.000    0.000    0.000    0.000 
#
# Total GULP energy -134135.150850 kJ/mol
# GULP energy per Si atom -5588.964619 kJ/mol
# Density = 2.374409 g / cm^3
# Si number density = 23.798257 Si / 1000 Ang^3
#
#
#
# Elastic Constant Matrix: (Units=GPa)
#
#
# Indices 1 2 3 4 5 6 
#
# 1 88.3841 3.4967 26.3451 0.0000 0.0000 0.0000
# 2 3.4967 82.0338 2.4742 0.0000 0.0000 0.0000
# 3 26.3451 2.4742 173.8985 0.0000 0.0000 0.0000
# 4 0.0000 0.0000 0.0000 12.3118 0.0000 0.0000
# 5 0.0000 0.0000 0.0000 0.0000 46.5691 0.0000
# 6 0.0000 0.0000 0.0000 0.0000 0.0000 2.5107
#
#
#
# Elastic Compliance Matrix: (Units=1/GPa)
#
#
# Indices 1 2 3 4 5 6 
#
# 1 0.011866 -0.000452 -0.001791 0.000000 0.000000 0.000000
# 2 -0.000452 0.012213 -0.000105 0.000000 0.000000 0.000000
# 3 -0.001791 -0.000105 0.006023 0.000000 0.000000 0.000000
# 4 0.000000 0.000000 0.000000 0.081223 0.000000 0.000000
# 5 0.000000 0.000000 0.000000 0.000000 0.021473 0.000000
# 6 0.000000 0.000000 0.000000 0.000000 0.000000 0.398290
#
#
# Mechanical properties :
#
#
# Convention : Reuss Voigt Hill
#
# Bulk Modulus (GPa) = 39.36189 45.43870 42.40030
# Shear Modulus (GPa) = 9.18691 33.07837 21.13264
#
# Velocity S-wave (km/s) = 1.96690 3.73225 2.98315
# Velocity P-wave (km/s) = 4.66197 6.14065 5.45168
#
# Compressibility (1/GPa) = 0.02540528
#
# Stress axis : x y z
#
# Youngs Moduli (GPa) = 84.27404 81.88315 166.02070
#
# Poissons Ratio (x) = 0.03699 0.29738
# Poissons Ratio (y) = 0.03807 0.01748
# Poissons Ratio (z) = 0.15096 0.00862
#
# Static dielectric constant tensor:
#      x y z
#    x 1.913010 0.000000 0.000000 
#    y 0.000000 1.817820 0.000000 
#    z 0.000000 0.000000 1.996570 
# 
# From -- ./inp_files/3842.got.cif
#   From: 2010.05.17/outbox.cif.g08.bks.cpg/sg20_2_cif.got.tgz:3842.got - 2010.06.03 22:52:26.
