data_PCOD9319757
_publ_section_title
;
Structure prediction by ZEFSAII (Michael W. Deem and Ramdas Pophale) SiO2 
 PCOD9319757
Probable space group: C 2 2 21
;
_chemical_formula_sum "Si O2"
_cell_formula_units_Z 60
_cell_length_a 26.291537
_cell_length_b 10.351484
_cell_length_c 9.251184
_cell_angle_alpha 90.000000
_cell_angle_beta 90.000000
_cell_angle_gamma 90.000000
_cell_volume 2517.769161
_symmetry_space_group_name_H-M "C 2 2 21"
_symmetry_group_IT_number 20
_symmetry_cell_setting 'orthorhombic'
loop_
_space_group_symop_operation_xyz
x,y,z
-x,-y,1/2+z
x,-y,-z
-x,y,1/2-z
1/2+x,1/2+y,z
1/2-x,1/2-y,1/2+z
1/2+x,1/2-y,-z
1/2-x,1/2+y,1/2-z
loop_
_atom_site_type_symbol
_atom_site_label
_atom_site_fract_x
_atom_site_fract_y
_atom_site_fract_z
Si Si1 0.884883 0.151533 0.484866
Si Si2 0.576353 0.000000 0.000000
Si Si3 0.444898 0.797110 0.715847
Si Si4 0.095389 0.745872 0.498642
Si Si5 0.797018 0.861567 0.075980
Si Si6 0.252897 0.881242 0.112636
Si Si7 0.852964 0.648657 0.718277
Si Si8 0.008421 0.879067 0.907063
O O1 0.902147 0.207640 0.639876
O O2 0.843698 0.225005 0.385504
O O3 0.937614 0.192007 0.401763
O O4 0.874020 0.000000 0.500000
O O5 0.543235 0.906262 0.901593
O O6 0.615431 0.059234 0.886297
O O7 0.500000 0.735321 0.750000
O O8 0.419052 0.843227 0.863044
O O9 0.142848 0.835668 0.452134
O O10 0.113512 0.680133 0.643121
O O11 0.042723 0.817202 0.535198
O O12 0.786420 0.859920 0.251254
O O13 0.767756 0.746384 0.984948
O O14 0.784158 0.000000 0.000000
O O15 0.302563 0.909734 0.211842
O O16 0.243484 0.000000 0.000000
O O17 0.000000 0.928602 0.750000
O O18 0.021913 0.000000 0.000000
#
# Coordination Sequence:
#
# PCOD9319757 Si02
#       8
#     8   4   8   8   8   8   8   8
#     4  10  22  39  63 100 144 185 236 290 362 430
#     4  10  26  42  66  96 136 184 244 294 356 420
#     4  11  24  42  61  97 135 190 237 288 351 423
#     4  11  24  41  68  99 144 179 239 295 356 432
#     4  11  26  49  76 112 147 191 246 308 376 445
#     4  11  26  48  81 109 148 192 247 307 390 449
#     4  10  24  45  68 105 135 186 242 297 365 436
#     4  11  22  36  64  94 143 191 228 283 347 426
#
# _framework density 23.830618999999999
#
# number of rings (size 3 to 8) (size 9 to 14) (size 15 to 20)
#    0.000    1.333    2.667    1.200    8.400    5.333 
#    0.000    1.333    0.000    0.000    0.000    0.000 
#    0.000    0.000    0.000    0.000    0.000    0.000 
#
# Total GULP energy -167251.362938 kJ/mol
# GULP energy per Si atom -5575.045431 kJ/mol
# Density = 2.377638 g / cm^3
# Si number density = 23.830619 Si / 1000 Ang^3
#
#
#
# Elastic Constant Matrix: (Units=GPa)
#
#
# Indices 1 2 3 4 5 6 
#
# 1 107.9429 6.1135 38.8215 0.0000 0.0000 0.0000
# 2 6.1135 75.9163 49.9587 0.0000 0.0000 0.0000
# 3 38.8215 49.9587 190.0193 0.0000 0.0000 0.0000
# 4 0.0000 0.0000 0.0000 34.5359 0.0000 0.0000
# 5 0.0000 0.0000 0.0000 0.0000 42.3312 0.0000
# 6 0.0000 0.0000 0.0000 0.0000 0.0000 2.4819
#
#
#
# Elastic Compliance Matrix: (Units=1/GPa)
#
#
# Indices 1 2 3 4 5 6 
#
# 1 0.010026 0.000654 -0.002220 0.000000 0.000000 0.000000
# 2 0.000654 0.015971 -0.004333 0.000000 0.000000 0.000000
# 3 -0.002220 -0.004333 0.006855 0.000000 0.000000 0.000000
# 4 0.000000 0.000000 0.000000 0.028955 0.000000 0.000000
# 5 0.000000 0.000000 0.000000 0.000000 0.023623 0.000000
# 6 0.000000 0.000000 0.000000 0.000000 0.000000 0.402911
#
#
# Mechanical properties :
#
#
# Convention : Reuss Voigt Hill
#
# Bulk Modulus (GPa) = 47.49734 62.62954 55.06344
# Shear Modulus (GPa) = 9.85888 34.46879 22.16383
#
# Velocity S-wave (km/s) = 2.03618 3.80729 3.05299
# Velocity P-wave (km/s) = 5.05000 6.75762 5.96523
#
# Compressibility (1/GPa) = 0.02105381
#
# Stress axis : x y z
#
# Youngs Moduli (GPa) = 99.74464 62.61395 145.87298
#
# Poissons Ratio (x) = -0.04093 0.32385
# Poissons Ratio (y) = -0.06520 0.63200
# Poissons Ratio (z) = 0.22144 0.27128
#
# Static dielectric constant tensor:
#      x y z
#    x 2.031950 0.000000 0.000000 
#    y 0.000000 1.977850 0.000000 
#    z 0.000000 0.000000 1.911480 
# 
# From -- ./inp_files/11138.got.cif
#   From: 2010.05.17/outbox.cif.g08.bks.cpg/sg20_6_cif.got.tgz:11138.got - 2010.06.03 22:52:26.
