data_PCOD9319195
_publ_section_title
;
Structure prediction by ZEFSAII (Michael W. Deem and Ramdas Pophale) SiO2 
 PCOD9319195
Probable space group: C 2 2 21
;
_chemical_formula_sum "Si O2"
_cell_formula_units_Z 52
_cell_length_a 9.156508
_cell_length_b 17.666387
_cell_length_c 16.030933
_cell_angle_alpha 90.000000
_cell_angle_beta 90.000000
_cell_angle_gamma 90.000000
_cell_volume 2593.202419
_symmetry_space_group_name_H-M "C 2 2 21"
_symmetry_group_IT_number 20
_symmetry_cell_setting 'orthorhombic'
loop_
_space_group_symop_operation_xyz
x,y,z
-x,-y,1/2+z
x,-y,-z
-x,y,1/2-z
1/2+x,1/2+y,z
1/2-x,1/2-y,1/2+z
1/2+x,1/2-y,-z
1/2-x,1/2+y,1/2-z
loop_
_atom_site_type_symbol
_atom_site_label
_atom_site_fract_x
_atom_site_fract_y
_atom_site_fract_z
Si Si1 0.974702 0.845524 0.968682
Si Si2 0.226739 0.134269 0.154508
Si Si3 0.340953 0.020609 0.274041
Si Si4 0.500000 0.127533 0.750000
Si Si5 0.299568 0.926408 0.542010
Si Si6 0.026572 0.288031 0.904050
Si Si7 0.819464 0.235906 0.187011
O O1 0.125505 0.870902 0.926732
O O2 0.859903 0.909755 0.995039
O O3 0.892037 0.804503 0.891999
O O4 0.995548 0.785981 0.041963
O O5 0.244391 0.052116 0.198370
O O6 0.379650 0.173366 0.129561
O O7 0.162865 0.189296 0.226920
O O8 0.500000 0.054084 0.250000
O O9 0.286167 0.054999 0.359885
O O10 0.380920 0.932322 0.286399
O O11 0.599342 0.183703 0.695386
O O12 0.397857 0.851705 0.537082
O O13 0.368177 0.000000 0.500000
O O14 0.146705 0.265325 0.834442
#
# Coordination Sequence:
#
# PCOD9319195 Si02
#       7
#     8   8   8   4   8   8   8
#     4  11  24  39  65  95 132 169 216 271 338 391
#     4  12  19  42  69  94 126 177 224 263 322 414
#     4  10  21  40  64  92 124 172 220 263 329 396
#     4  10  22  38  62  98 118 156 222 278 316 370
#     4  11  24  43  62  91 134 174 214 272 338 392
#     4  11  23  40  66  98 131 170 219 271 339 394
#     4  11  21  40  67  95 124 168 223 272 311 387
#
# _framework density 20.052427000000002
#
# number of rings (size 3 to 8) (size 9 to 14) (size 15 to 20)
#    0.462    0.615    6.154    2.308    2.154    1.231 
#    2.769    0.769    0.000    0.000    0.000    0.000 
#    0.000    0.000    0.000    0.000    0.000    0.000 
#
# Total GULP energy -144886.845981 kJ/mol
# GULP energy per Si atom -5572.570999 kJ/mol
# Density = 2.000679 g / cm^3
# Si number density = 20.052427 Si / 1000 Ang^3
#
#
#
# Elastic Constant Matrix: (Units=GPa)
#
#
# Indices 1 2 3 4 5 6 
#
# 1 80.6394 17.4405 3.4938 0.0000 0.0000 0.0000
# 2 17.4405 97.5561 1.8494 0.0000 0.0000 0.0000
# 3 3.4938 1.8494 25.0706 0.0000 0.0000 0.0000
# 4 0.0000 0.0000 0.0000 26.6514 0.0000 0.0000
# 5 0.0000 0.0000 0.0000 0.0000 18.5392 0.0000
# 6 0.0000 0.0000 0.0000 0.0000 0.0000 0.8760
#
#
#
# Elastic Compliance Matrix: (Units=1/GPa)
#
#
# Indices 1 2 3 4 5 6 
#
# 1 0.012967 -0.002287 -0.001638 0.000000 0.000000 0.000000
# 2 -0.002287 0.010668 -0.000468 0.000000 0.000000 0.000000
# 3 -0.001638 -0.000468 0.040150 0.000000 0.000000 0.000000
# 4 0.000000 0.000000 0.000000 0.037522 0.000000 0.000000
# 5 0.000000 0.000000 0.000000 0.000000 0.053940 0.000000
# 6 0.000000 0.000000 0.000000 0.000000 0.000000 1.141564
#
#
# Mechanical properties :
#
#
# Convention : Reuss Voigt Hill
#
# Bulk Modulus (GPa) = 18.18252 27.64815 22.91533
# Shear Modulus (GPa) = 3.77664 21.24547 12.51105
#
# Velocity S-wave (km/s) = 1.37385 3.25852 2.50054
# Velocity P-wave (km/s) = 3.40643 5.28915 4.44854
#
# Compressibility (1/GPa) = 0.05499789
#
# Stress axis : x y z
#
# Youngs Moduli (GPa) = 77.12179 93.73607 24.90643
#
# Poissons Ratio (x) = 0.21438 0.04080
# Poissons Ratio (y) = 0.17638 0.01166
# Poissons Ratio (z) = 0.12635 0.04389
#
# Static dielectric constant tensor:
#      x y z
#    x 1.773770 0.000000 0.000000 
#    y 0.000000 1.734430 0.000000 
#    z 0.000000 0.000000 1.696960 
# 
# From -- ./inp_files/23685.got.cif
#   From: 2010.05.17/outbox.cif.g08.bks.cpg/sg20_12_cif.got.tgz:23685.got - 2010.06.03 22:52:26.
