data_PCOD9319385
_publ_section_title
;
Structure prediction by ZEFSAII (Michael W. Deem and Ramdas Pophale) SiO2 
 PCOD9319385
Probable space group: C 2 2 21
;
_chemical_formula_sum "Si O2"
_cell_formula_units_Z 64
_cell_length_a 11.914273
_cell_length_b 30.686128
_cell_length_c 8.607506
_cell_angle_alpha 90.000000
_cell_angle_beta 90.000000
_cell_angle_gamma 90.000000
_cell_volume 3146.929210
_symmetry_space_group_name_H-M "C 2 2 21"
_symmetry_group_IT_number 20
_symmetry_cell_setting 'orthorhombic'
loop_
_space_group_symop_operation_xyz
x,y,z
-x,-y,1/2+z
x,-y,-z
-x,y,1/2-z
1/2+x,1/2+y,z
1/2-x,1/2-y,1/2+z
1/2+x,1/2-y,-z
1/2-x,1/2+y,1/2-z
loop_
_atom_site_type_symbol
_atom_site_label
_atom_site_fract_x
_atom_site_fract_y
_atom_site_fract_z
Si Si1 0.856383 0.618869 0.412037
Si Si2 0.195892 0.902035 0.120315
Si Si3 0.055776 0.816029 0.099330
Si Si4 0.746235 0.723723 0.110745
Si Si5 0.108332 0.359961 0.558819
Si Si6 0.525851 0.452059 0.930012
Si Si7 0.325531 0.307122 0.948982
Si Si8 0.791059 0.049714 0.938386
O O1 0.866713 0.617595 0.225518
O O2 0.759742 0.652916 0.455811
O O3 0.813159 0.574036 0.483257
O O4 0.976842 0.635168 0.472084
O O5 0.116096 0.860534 0.157240
O O6 0.207953 0.937573 0.256520
O O7 0.315097 0.882762 0.070052
O O8 0.133239 0.923797 0.973936
O O9 0.000000 0.794603 0.250000
O O10 0.149980 0.788132 0.013511
O O11 0.952706 0.822086 0.979593
O O12 0.847362 0.689325 0.081954
O O13 0.694613 0.714973 0.280623
O O14 0.788817 0.771874 0.077261
O O15 0.500000 0.455508 0.750000
O O16 0.543181 0.500000 0.000000
O O17 0.412801 0.433070 0.006101
O O18 0.789240 0.000000 0.000000
#
# Coordination Sequence:
#
# PCOD9319385 Si02
#       8
#     8   8   8   8   8   8   8   8
#     4  10  21  42  64  86 122 176 209 264 325 383
#     4  11  22  39  62  92 125 163 209 264 320 387
#     4  11  22  38  60  87 124 164 211 265 318 383
#     4  10  23  39  59  95 127 169 217 270 325 386
#     4   9  22  41  62  87 127 167 218 260 317 386
#     4  11  21  35  58  87 120 155 196 254 315 376
#     4  11  22  38  64  91 128 169 217 270 326 389
#     4  11  23  40  62  93 129 161 211 267 324 388
#
# _framework density 20.337287
#
# number of rings (size 3 to 8) (size 9 to 14) (size 15 to 20)
#    0.000    1.500    0.000    6.000    1.750    3.500 
#    0.000    3.125    0.000    0.000    0.000    0.000 
#    0.000    0.000    0.000    0.000    0.000    0.000 
#
# Total GULP energy -178795.297388 kJ/mol
# GULP energy per Si atom -5587.353043 kJ/mol
# Density = 2.029100 g / cm^3
# Si number density = 20.337287 Si / 1000 Ang^3
#
#
#
# Elastic Constant Matrix: (Units=GPa)
#
#
# Indices 1 2 3 4 5 6 
#
# 1 108.6334 21.6381 4.0101 0.0000 0.0000 0.0000
# 2 21.6381 56.2682 24.2128 0.0000 0.0000 0.0000
# 3 4.0101 24.2128 63.5505 0.0000 0.0000 0.0000
# 4 0.0000 0.0000 0.0000 29.2508 0.0000 0.0000
# 5 0.0000 0.0000 0.0000 0.0000 30.7691 0.0000
# 6 0.0000 0.0000 0.0000 0.0000 0.0000 19.3055
#
#
#
# Elastic Compliance Matrix: (Units=1/GPa)
#
#
# Indices 1 2 3 4 5 6 
#
# 1 0.010022 -0.004284 0.001000 0.000000 0.000000 0.000000
# 2 -0.004284 0.023088 -0.008526 0.000000 0.000000 0.000000
# 3 0.001000 -0.008526 0.018921 0.000000 0.000000 0.000000
# 4 0.000000 0.000000 0.000000 0.034187 0.000000 0.000000
# 5 0.000000 0.000000 0.000000 0.000000 0.032500 0.000000
# 6 0.000000 0.000000 0.000000 0.000000 0.000000 0.051799
#
#
# Mechanical properties :
#
#
# Convention : Reuss Voigt Hill
#
# Bulk Modulus (GPa) = 35.19905 36.46380 35.83142
# Shear Modulus (GPa) = 24.55696 27.77117 26.16407
#
# Velocity S-wave (km/s) = 3.47866 3.69932 3.59068
# Velocity P-wave (km/s) = 5.78619 6.01789 5.90318
#
# Compressibility (1/GPa) = 0.02840986
#
# Stress axis : x y z
#
# Youngs Moduli (GPa) = 99.78358 43.31162 52.85136
#
# Poissons Ratio (x) = 0.18555 -0.05285
# Poissons Ratio (y) = 0.42748 0.45063
# Poissons Ratio (z) = -0.09977 0.36929
#
# Static dielectric constant tensor:
#      x y z
#    x 1.696000 0.000000 0.000000 
#    y 0.000000 1.725500 0.000000 
#    z 0.000000 0.000000 1.761280 
# 
# From -- ./inp_files/7698.got.cif
#   From: 2010.05.17/outbox.cif.g08.bks.cpg/sg20_4_cif.got.tgz:7698.got - 2010.06.03 22:52:26.
