data_PCOD9319893
_publ_section_title
;
Structure prediction by ZEFSAII (Michael W. Deem and Ramdas Pophale) SiO2 
 PCOD9319893
Probable space group: C 2 2 21
;
_chemical_formula_sum "Si O2"
_cell_formula_units_Z 52
_cell_length_a 6.577760
_cell_length_b 16.965780
_cell_length_c 24.298180
_cell_angle_alpha 90.000000
_cell_angle_beta 90.000000
_cell_angle_gamma 90.000000
_cell_volume 2711.599840
_symmetry_space_group_name_H-M "C 2 2 21"
_symmetry_group_IT_number 20
_symmetry_cell_setting 'orthorhombic'
loop_
_space_group_symop_operation_xyz
x,y,z
-x,-y,1/2+z
x,-y,-z
-x,y,1/2-z
1/2+x,1/2+y,z
1/2-x,1/2-y,1/2+z
1/2+x,1/2-y,-z
1/2-x,1/2+y,1/2-z
loop_
_atom_site_type_symbol
_atom_site_label
_atom_site_fract_x
_atom_site_fract_y
_atom_site_fract_z
Si Si1 0.750859 0.647199 0.102400
Si Si2 0.272739 0.068919 0.648001
Si Si3 0.121432 0.461011 0.700258
Si Si4 0.087865 0.047894 0.443681
Si Si5 0.981247 0.289927 0.418628
Si Si6 0.148519 0.707355 0.044907
Si Si7 0.500000 0.444515 0.250000
O O1 0.826749 0.602057 0.155008
O O2 0.638910 0.581894 0.064886
O O3 0.585378 0.713485 0.115751
O O4 0.936421 0.691760 0.074162
O O5 0.377126 0.136251 0.610649
O O6 0.120363 0.095487 0.697924
O O7 0.462856 0.024379 0.675997
O O8 0.156825 0.007413 0.607325
O O9 0.324964 0.502765 0.721784
O O10 0.000000 0.421819 0.750000
O O11 0.227353 0.125807 0.448098
O O12 0.105005 0.000000 0.500000
O O13 0.892767 0.280179 0.480407
O O14 0.222928 0.279523 0.428893
#
# Coordination Sequence:
#
# PCOD9319893 Si02
#       7
#     8   8   8   8   8   8   4
#     4  11  23  41  60  93 129 174 206 261 327 386
#     4  11  22  41  66  96 124 169 218 274 326 387
#     4  10  22  40  69  91 119 169 222 272 319 379
#     4  11  22  36  65  97 128 168 221 263 323 398
#     4  11  24  38  63  92 134 171 206 260 325 388
#     4  11  22  40  58  95 136 167 209 256 319 396
#     4  10  22  44  68  92 128 158 226 280 326 370
#
# _framework density 19.176871999999999
#
# number of rings (size 3 to 8) (size 9 to 14) (size 15 to 20)
#    0.000    1.231    6.154    0.000    0.000    3.077 
#    1.385    0.000    5.077    0.000    0.000    0.000 
#    0.000    0.000    0.000    0.000    0.000    0.000 
#
# Total GULP energy -144977.747748 kJ/mol
# GULP energy per Si atom -5576.067221 kJ/mol
# Density = 1.913322 g / cm^3
# Si number density = 19.176872 Si / 1000 Ang^3
#
#
#
# Elastic Constant Matrix: (Units=GPa)
#
#
# Indices 1 2 3 4 5 6 
#
# 1 116.0276 17.9116 39.8010 0.0000 0.0000 0.0000
# 2 17.9116 38.6234 2.2949 0.0000 0.0000 0.0000
# 3 39.8010 2.2949 65.6013 0.0000 0.0000 0.0000
# 4 0.0000 0.0000 0.0000 19.2794 0.0000 0.0000
# 5 0.0000 0.0000 0.0000 0.0000 26.7465 0.0000
# 6 0.0000 0.0000 0.0000 0.0000 0.0000 24.0944
#
#
#
# Elastic Compliance Matrix: (Units=1/GPa)
#
#
# Indices 1 2 3 4 5 6 
#
# 1 0.011792 -0.005054 -0.006978 0.000000 0.000000 0.000000
# 2 -0.005054 0.028111 0.002083 0.000000 0.000000 0.000000
# 3 -0.006978 0.002083 0.019404 0.000000 0.000000 0.000000
# 4 0.000000 0.000000 0.000000 0.051869 0.000000 0.000000
# 5 0.000000 0.000000 0.000000 0.000000 0.037388 0.000000
# 6 0.000000 0.000000 0.000000 0.000000 0.000000 0.041503
#
#
# Mechanical properties :
#
#
# Convention : Reuss Voigt Hill
#
# Bulk Modulus (GPa) = 25.37433 37.80748 31.59090
# Shear Modulus (GPa) = 22.41121 24.70705 23.55913
#
# Velocity S-wave (km/s) = 3.42227 3.59329 3.50882
# Velocity P-wave (km/s) = 5.37368 6.08059 5.73803
#
# Compressibility (1/GPa) = 0.03940991
#
# Stress axis : x y z
#
# Youngs Moduli (GPa) = 84.79988 35.57312 51.53511
#
# Poissons Ratio (x) = 0.17979 0.35960
# Poissons Ratio (y) = 0.42859 -0.10735
# Poissons Ratio (z) = 0.59172 -0.07410
#
# Static dielectric constant tensor:
#      x y z
#    x 1.737720 0.000000 0.000000 
#    y 0.000000 1.650010 0.000000 
#    z 0.000000 0.000000 1.702480 
# 
# From -- ./inp_files/29903.got.cif
#   From: 2010.05.17/outbox.cif.g08.bks.cpg/sg20_15_cif.got.tgz:29903.got - 2010.06.03 22:52:26.
