data_PCOD9319913
_publ_section_title
;
Structure prediction by ZEFSAII (Michael W. Deem and Ramdas Pophale) SiO2 
 PCOD9319913
Probable space group: C 2 2 21
;
_chemical_formula_sum "Si O2"
_cell_formula_units_Z 36
_cell_length_a 5.719045
_cell_length_b 22.059096
_cell_length_c 13.948486
_cell_angle_alpha 90.000000
_cell_angle_beta 90.000000
_cell_angle_gamma 90.000000
_cell_volume 1759.698628
_symmetry_space_group_name_H-M "C 2 2 21"
_symmetry_group_IT_number 20
_symmetry_cell_setting 'orthorhombic'
loop_
_space_group_symop_operation_xyz
x,y,z
-x,-y,1/2+z
x,-y,-z
-x,y,1/2-z
1/2+x,1/2+y,z
1/2-x,1/2-y,1/2+z
1/2+x,1/2-y,-z
1/2-x,1/2+y,1/2-z
loop_
_atom_site_type_symbol
_atom_site_label
_atom_site_fract_x
_atom_site_fract_y
_atom_site_fract_z
Si Si1 0.677438 0.500000 0.000000
Si Si2 0.251907 0.176286 0.306047
Si Si3 0.351145 0.684401 0.653533
Si Si4 0.015752 0.571290 0.642761
Si Si5 0.627655 0.385075 0.499708
O O1 0.833509 0.523190 0.913930
O O2 0.537234 0.440352 0.969273
O O3 0.500000 0.164620 0.250000
O O4 0.262927 0.247353 0.335209
O O5 0.251563 0.139239 0.405435
O O6 0.000000 0.166310 0.250000
O O7 0.500000 0.671280 0.750000
O O8 0.144542 0.636030 0.648743
O O9 0.498157 0.669578 0.557184
O O10 0.000000 0.548843 0.750000
O O11 0.785969 0.584070 0.581956
#
# Coordination Sequence:
#
# PCOD9319913 Si02
#       5
#     4   8   8   8   8
#     4  10  26  46  66 102 138 180 256 292 364 424
#     4  11  28  47  70 110 154 193 236 296 368 437
#     4  10  22  40  73 106 140 178 237 293 360 436
#     4  11  22  44  72 100 136 185 241 303 352 428
#     4  11  25  46  70 104 141 193 241 297 359 430
#
# _framework density 20.45805
#
# number of rings (size 3 to 8) (size 9 to 14) (size 15 to 20)
#    0.000    1.333    2.222    1.333   12.444    0.000 
#    8.000    0.000    0.000    0.000    0.000    0.000 
#    0.000    0.000    0.000    0.000    0.000    0.000 
#
# Total GULP energy -100471.390493 kJ/mol
# GULP energy per Si atom -5581.743916 kJ/mol
# Density = 2.041149 g / cm^3
# Si number density = 20.458050 Si / 1000 Ang^3
#
#
#
# Elastic Constant Matrix: (Units=GPa)
#
#
# Indices 1 2 3 4 5 6 
#
# 1 74.3590 23.7201 39.7250 0.0000 0.0000 0.0000
# 2 23.7201 50.2318 65.5225 0.0000 0.0000 0.0000
# 3 39.7250 65.5225 124.8955 0.0000 0.0000 0.0000
# 4 0.0000 0.0000 0.0000 -8.7242 0.0000 0.0000
# 5 0.0000 0.0000 0.0000 0.0000 32.4094 0.0000
# 6 0.0000 0.0000 0.0000 0.0000 0.0000 82.8885
#
#
#
# Elastic Compliance Matrix: (Units=1/GPa)
#
#
# Indices 1 2 3 4 5 6 
#
# 1 0.016340 -0.002967 -0.003640 0.000000 0.000000 0.000000
# 2 -0.002967 0.063600 -0.032422 0.000000 0.000000 0.000000
# 3 -0.003640 -0.032422 0.026174 0.000000 0.000000 0.000000
# 4 0.000000 0.000000 0.000000 -0.114624 0.000000 0.000000
# 5 0.000000 0.000000 0.000000 0.000000 0.030855 0.000000
# 6 0.000000 0.000000 0.000000 0.000000 0.000000 0.012064
#
#
# Mechanical properties :
#
#
# Convention : Reuss Voigt Hill
#
# Bulk Modulus (GPa) = 35.64518 56.38017 46.01268
# Shear Modulus (GPa) = 41.04403 29.34932 35.19667
#
# Velocity S-wave (km/s) = 4.48398 3.79173 4.15231
# Velocity P-wave (km/s) = 6.65353 6.84020 6.74751
#
# Compressibility (1/GPa) = 0.02805428
#
# Stress axis : x y z
#
# Youngs Moduli (GPa) = 61.20092 15.72319 38.20608
#
# Poissons Ratio (x) = 0.04665 0.13909
# Poissons Ratio (y) = 0.18159 1.23872
# Poissons Ratio (z) = 0.22280 0.50978
#
# Static dielectric constant tensor:
#      x y z
#    x 1.786200 0.000000 0.000000 
#    y 0.000000 1.697200 0.000000 
#    z 0.000000 0.000000 1.614600 
# 
# From -- ./inp_files/12068.got.cif
#   From: 2010.05.17/outbox.cif.g08.bks.cpg/sg20_7_cif.got.tgz:12068.got - 2010.06.03 22:52:26.
