data_PCOD9319932
_publ_section_title
;
Structure prediction by ZEFSAII (Michael W. Deem and Ramdas Pophale) SiO2 
 PCOD9319932
Probable space group: C 2 2 21
;
_chemical_formula_sum "Si O2"
_cell_formula_units_Z 56
_cell_length_a 30.642600
_cell_length_b 5.150201
_cell_length_c 14.878764
_cell_angle_alpha 90.000000
_cell_angle_beta 90.000000
_cell_angle_gamma 90.000000
_cell_volume 2348.100312
_symmetry_space_group_name_H-M "C 2 2 21"
_symmetry_group_IT_number 20
_symmetry_cell_setting 'orthorhombic'
loop_
_space_group_symop_operation_xyz
x,y,z
-x,-y,1/2+z
x,-y,-z
-x,y,1/2-z
1/2+x,1/2+y,z
1/2-x,1/2-y,1/2+z
1/2+x,1/2-y,-z
1/2-x,1/2+y,1/2-z
loop_
_atom_site_type_symbol
_atom_site_label
_atom_site_fract_x
_atom_site_fract_y
_atom_site_fract_z
Si Si1 0.876089 0.837811 0.858263
Si Si2 0.243008 0.210819 0.629937
Si Si3 0.791415 0.206124 0.663184
Si Si4 0.125531 0.648859 0.248261
Si Si5 0.033799 0.000000 0.000000
Si Si6 0.176126 0.500000 0.500000
Si Si7 0.968568 0.770374 0.317656
Si Si8 0.465277 0.120808 0.912851
O O1 0.861445 0.637828 0.780379
O O2 0.928000 0.792983 0.868120
O O3 0.869139 0.132026 0.826590
O O4 0.851573 0.713589 0.943542
O O5 0.224160 0.212490 0.731976
O O6 0.281670 0.421616 0.627319
O O7 0.206726 0.328964 0.565076
O O8 0.262039 0.923909 0.614142
O O9 0.842248 0.274165 0.668197
O O10 0.074257 0.650962 0.227124
O O11 0.002203 0.782714 0.961736
O O12 0.053031 0.100605 0.906646
O O13 0.000000 0.937883 0.250000
O O14 0.006214 0.572368 0.351937
O O15 0.441225 0.000000 0.000000
#
# Coordination Sequence:
#
# PCOD9319932 Si02
#       8
#     8   8   8   8   4   4   8   8
#     4  12  26  41  69 113 150 183 240 298 384 448
#     4  10  23  41  71  95 141 177 230 278 372 438
#     4  10  22  45  66  98 133 192 229 284 340 452
#     4  12  26  44  71 105 141 200 251 298 355 448
#     4  10  24  42  67 100 136 204 258 313 364 442
#     4  12  26  44  75 116 146 180 226 323 388 452
#     4  11  23  42  71 104 145 204 255 308 374 440
#     4  10  22  41  62  98 149 192 238 307 371 436
#
# _framework density 23.849065
#
# number of rings (size 3 to 8) (size 9 to 14) (size 15 to 20)
#    0.000    1.143    3.571    1.714    8.000    2.857 
#    0.000    0.714    6.286    0.000    0.000    0.000 
#    0.000    0.000    0.000    0.000    0.000    0.000 
#
# Total GULP energy -156341.347203 kJ/mol
# GULP energy per Si atom -5583.619543 kJ/mol
# Density = 2.379478 g / cm^3
# Si number density = 23.849065 Si / 1000 Ang^3
#
#
#
# Elastic Constant Matrix: (Units=GPa)
#
#
# Indices 1 2 3 4 5 6 
#
# 1 100.3671 1.3418 20.3588 0.0000 0.0000 0.0000
# 2 1.3418 60.2878 12.6287 0.0000 0.0000 0.0000
# 3 20.3588 12.6287 62.9894 0.0000 0.0000 0.0000
# 4 0.0000 0.0000 0.0000 26.0151 0.0000 0.0000
# 5 0.0000 0.0000 0.0000 0.0000 37.1599 0.0000
# 6 0.0000 0.0000 0.0000 0.0000 0.0000 -2.6149
#
#
#
# Elastic Compliance Matrix: (Units=1/GPa)
#
#
# Indices 1 2 3 4 5 6 
#
# 1 0.010677 0.000507 -0.003553 0.000000 0.000000 0.000000
# 2 0.000507 0.017338 -0.003640 0.000000 0.000000 0.000000
# 3 -0.003553 -0.003640 0.017754 0.000000 0.000000 0.000000
# 4 0.000000 0.000000 0.000000 0.038439 0.000000 0.000000
# 5 0.000000 0.000000 0.000000 0.000000 0.026911 0.000000
# 6 0.000000 0.000000 0.000000 0.000000 0.000000 -0.382420
#
#
# Mechanical properties :
#
#
# Convention : Reuss Voigt Hill
#
# Bulk Modulus (GPa) = 30.86664 32.47812 31.67238
# Shear Modulus (GPa) = -20.23229 24.73302 2.25036
#
# Velocity S-wave (km/s) = -2.91580 3.22384 0.97244
# Velocity P-wave (km/s) = 1.27857 5.24455 3.81707
#
# Compressibility (1/GPa) = 0.03239744
#
# Stress axis : x y z
#
# Youngs Moduli (GPa) = 93.65698 57.67583 56.32646
#
# Poissons Ratio (x) = -0.02921 0.20010
# Poissons Ratio (y) = -0.04744 0.20502
# Poissons Ratio (z) = 0.33272 0.20993
#
# Static dielectric constant tensor:
#      x y z
#    x 1.879910 0.000000 0.000000 
#    y 0.000000 1.904880 0.000000 
#    z 0.000000 0.000000 1.953070 
# 
# From -- ./inp_files/22318.got.cif
#   From: 2010.05.17/outbox.cif.g08.bks.cpg/sg20_12_cif.got.tgz:22318.got - 2010.06.03 22:52:26.
