data_PCOD9319188
_publ_section_title
;
Structure prediction by ZEFSAII (Michael W. Deem and Ramdas Pophale) SiO2 
 PCOD9319188
Probable space group: C 2 2 21
;
_chemical_formula_sum "Si O2"
_cell_formula_units_Z 28
_cell_length_a 7.975329
_cell_length_b 32.664154
_cell_length_c 5.060442
_cell_angle_alpha 90.000000
_cell_angle_beta 90.000000
_cell_angle_gamma 90.000000
_cell_volume 1318.282460
_symmetry_space_group_name_H-M "C 2 2 21"
_symmetry_group_IT_number 20
_symmetry_cell_setting 'orthorhombic'
loop_
_space_group_symop_operation_xyz
x,y,z
-x,-y,1/2+z
x,-y,-z
-x,y,1/2-z
1/2+x,1/2+y,z
1/2-x,1/2-y,1/2+z
1/2+x,1/2-y,-z
1/2-x,1/2+y,1/2-z
loop_
_atom_site_type_symbol
_atom_site_label
_atom_site_fract_x
_atom_site_fract_y
_atom_site_fract_z
Si Si1 0.304361 0.353780 0.723496
Si Si2 0.303086 0.591727 0.777030
Si Si3 0.324852 0.766728 0.635109
Si Si4 0.000000 0.470849 0.250000
O O1 0.500000 0.341897 0.750000
O O2 0.276545 0.371362 0.431754
O O3 0.198537 0.314487 0.803076
O O4 0.276106 0.390347 0.930820
O O5 0.500000 0.579043 0.750000
O O6 0.165778 0.557225 0.722237
O O7 0.500000 0.751834 0.750000
O O8 0.304144 0.756784 0.328387
O O9 0.980209 0.500000 0.500000
#
# Coordination Sequence:
#
# PCOD9319188 Si02
#       4
#     8   8   8   4
#     4  10  21  40  64  89 121 163 210 264 308 376
#     4  10  23  41  65  93 125 163 209 256 318 380
#     4  12  25  40  62  92 130 173 216 271 327 381
#     4  12  26  42  66  96 128 162 206 264 316 388
#
# _framework density 21.239757999999998
#
# number of rings (size 3 to 8) (size 9 to 14) (size 15 to 20)
#    0.000    1.143    0.000    6.000    4.000    3.429 
#    0.000    0.000    0.000    0.000    0.000    0.000 
#    0.000    0.000    0.000    0.000    0.000    0.000 
#
# Total GULP energy -78314.278435 kJ/mol
# GULP energy per Si atom -5593.877031 kJ/mol
# Density = 2.119141 g / cm^3
# Si number density = 21.239758 Si / 1000 Ang^3
#
#
#
# Elastic Constant Matrix: (Units=GPa)
#
#
# Indices 1 2 3 4 5 6 
#
# 1 72.0686 40.1936 -1.6800 0.0000 0.0000 0.0000
# 2 40.1936 67.2460 -7.8935 0.0000 0.0000 0.0000
# 3 -1.6800 -7.8935 68.9899 0.0000 0.0000 0.0000
# 4 0.0000 0.0000 0.0000 27.3820 0.0000 0.0000
# 5 0.0000 0.0000 0.0000 0.0000 24.1737 0.0000
# 6 0.0000 0.0000 0.0000 0.0000 0.0000 23.3707
#
#
#
# Elastic Compliance Matrix: (Units=1/GPa)
#
#
# Indices 1 2 3 4 5 6 
#
# 1 0.020873 -0.012585 -0.000932 0.000000 0.000000 0.000000
# 2 -0.012585 0.022662 0.002286 0.000000 0.000000 0.000000
# 3 -0.000932 0.002286 0.014734 0.000000 0.000000 0.000000
# 4 0.000000 0.000000 0.000000 0.036520 0.000000 0.000000
# 5 0.000000 0.000000 0.000000 0.000000 0.041367 0.000000
# 6 0.000000 0.000000 0.000000 0.000000 0.000000 0.042789
#
#
# Mechanical properties :
#
#
# Convention : Reuss Voigt Hill
#
# Bulk Modulus (GPa) = 27.92752 29.94941 28.93846
# Shear Modulus (GPa) = 23.43660 26.83091 25.13375
#
# Velocity S-wave (km/s) = 3.32540 3.55806 3.44370
# Velocity P-wave (km/s) = 5.28409 5.56875 5.42829
#
# Compressibility (1/GPa) = 0.03580698
#
# Stress axis : x y z
#
# Youngs Moduli (GPa) = 47.90882 44.12763 67.87121
#
# Poissons Ratio (x) = 0.55536 0.06323
# Poissons Ratio (y) = 0.60295 -0.15518
# Poissons Ratio (z) = 0.04463 -0.10089
#
# Static dielectric constant tensor:
#      x y z
#    x 1.810880 0.000000 0.000000 
#    y 0.000000 1.712440 0.000000 
#    z 0.000000 0.000000 1.725920 
# 
# From -- ./inp_files/424.got.cif
#   From: 2010.05.17/outbox.cif.g08.bks.cpg/sg20_1_cif.got.tgz:424.got - 2010.06.03 22:52:26.
