data_PCOD9319785
_publ_section_title
;
Structure prediction by ZEFSAII (Michael W. Deem and Ramdas Pophale) SiO2 
 PCOD9319785
Probable space group: C 2 2 21
;
_chemical_formula_sum "Si O2"
_cell_formula_units_Z 60
_cell_length_a 8.610542
_cell_length_b 10.963502
_cell_length_c 26.675038
_cell_angle_alpha 90.000000
_cell_angle_beta 90.000000
_cell_angle_gamma 90.000000
_cell_volume 2518.168786
_symmetry_space_group_name_H-M "C 2 2 21"
_symmetry_group_IT_number 20
_symmetry_cell_setting 'orthorhombic'
loop_
_space_group_symop_operation_xyz
x,y,z
-x,-y,1/2+z
x,-y,-z
-x,y,1/2-z
1/2+x,1/2+y,z
1/2-x,1/2-y,1/2+z
1/2+x,1/2-y,-z
1/2-x,1/2+y,1/2-z
loop_
_atom_site_type_symbol
_atom_site_label
_atom_site_fract_x
_atom_site_fract_y
_atom_site_fract_z
Si Si1 0.797731 0.000000 0.500000
Si Si2 0.817973 0.822280 0.242499
Si Si3 0.796289 0.787580 0.638919
Si Si4 0.881704 0.276458 0.960276
Si Si5 0.790853 0.652169 0.463555
Si Si6 0.654566 0.076487 0.216926
Si Si7 0.837756 0.463208 0.388940
Si Si8 0.520694 0.550955 0.405554
O O1 0.683666 0.116863 0.496455
O O2 0.909739 0.012691 0.451341
O O3 0.777043 0.754898 0.190243
O O4 0.740350 0.956284 0.239515
O O5 0.768560 0.712164 0.280688
O O6 0.000000 0.843762 0.250000
O O7 0.671737 0.810096 0.595243
O O8 0.896083 0.672176 0.618635
O O9 0.912140 0.901210 0.638694
O O10 0.789229 0.160345 0.982539
O O11 0.064317 0.257520 0.963545
O O12 0.875503 0.466892 0.559986
O O13 0.641140 0.653812 0.426978
O O14 0.500000 0.087398 0.250000
O O15 0.618749 0.043420 0.159294
O O16 0.647449 0.454532 0.386778
#
# Coordination Sequence:
#
# PCOD9319785 Si02
#       8
#     4   8   8   8   8   8   8   8
#     4  10  22  40  56  92 126 174 228 274 330 404
#     4  10  24  43  72 102 143 180 235 295 365 422
#     4  10  22  42  67  97 131 180 231 282 348 425
#     4  11  23  38  63  94 134 178 227 278 344 412
#     4  10  24  39  64  93 136 179 225 284 342 417
#     4  10  23  45  69 103 139 178 235 294 360 436
#     4   9  23  41  68  93 132 177 226 284 358 405
#     4   9  22  41  64  92 132 175 227 277 335 414
#
# _framework density 23.826837999999999
#
# number of rings (size 3 to 8) (size 9 to 14) (size 15 to 20)
#    0.800    1.333    0.000    1.600    7.467    8.000 
#    0.000    2.667    0.000    0.000    0.000    0.000 
#    0.000    0.000    0.000    0.000    0.000    0.000 
#
# Total GULP energy -167190.315116 kJ/mol
# GULP energy per Si atom -5573.010504 kJ/mol
# Density = 2.377261 g / cm^3
# Si number density = 23.826838 Si / 1000 Ang^3
#
#
#
# Elastic Constant Matrix: (Units=GPa)
#
#
# Indices 1 2 3 4 5 6 
#
# 1 73.6639 19.8068 21.1198 0.0000 0.0000 0.0000
# 2 19.8068 98.2213 7.8088 0.0000 0.0000 0.0000
# 3 21.1198 7.8088 42.5531 0.0000 0.0000 0.0000
# 4 0.0000 0.0000 0.0000 35.8938 0.0000 0.0000
# 5 0.0000 0.0000 0.0000 0.0000 31.2737 0.0000
# 6 0.0000 0.0000 0.0000 0.0000 0.0000 31.1346
#
#
#
# Elastic Compliance Matrix: (Units=1/GPa)
#
#
# Indices 1 2 3 4 5 6 
#
# 1 0.016513 -0.002718 -0.007697 0.000000 0.000000 0.000000
# 2 -0.002718 0.010779 -0.000629 0.000000 0.000000 0.000000
# 3 -0.007697 -0.000629 0.027435 0.000000 0.000000 0.000000
# 4 0.000000 0.000000 0.000000 0.027860 0.000000 0.000000
# 5 0.000000 0.000000 0.000000 0.000000 0.031976 0.000000
# 6 0.000000 0.000000 0.000000 0.000000 0.000000 0.032119
#
#
# Mechanical properties :
#
#
# Convention : Reuss Voigt Hill
#
# Bulk Modulus (GPa) = 30.63747 34.65658 32.64703
# Shear Modulus (GPa) = 27.83203 30.70728 29.26966
#
# Velocity S-wave (km/s) = 3.42145 3.59384 3.50870
# Velocity P-wave (km/s) = 5.33804 5.63894 5.49055
#
# Compressibility (1/GPa) = 0.03263977
#
# Stress axis : x y z
#
# Youngs Moduli (GPa) = 60.55957 92.77132 36.44914
#
# Poissons Ratio (x) = 0.25215 0.28054
# Poissons Ratio (y) = 0.16460 0.02293
# Poissons Ratio (z) = 0.46611 0.05836
#
# Static dielectric constant tensor:
#      x y z
#    x 1.870270 0.000000 0.000000 
#    y 0.000000 2.046290 0.000000 
#    z 0.000000 0.000000 1.904290 
# 
# From -- ./inp_files/30156.got.cif
#   From: 2010.05.17/outbox.cif.g08.bks.cpg/sg20_16_cif.got.tgz:30156.got - 2010.06.03 22:52:26.
