data_PCOD9319302
_publ_section_title
;
Structure prediction by ZEFSAII (Michael W. Deem and Ramdas Pophale) SiO2 
 PCOD9319302
Probable space group: C 2 2 21
;
_chemical_formula_sum "Si O2"
_cell_formula_units_Z 48
_cell_length_a 9.309641
_cell_length_b 13.880338
_cell_length_c 17.704310
_cell_angle_alpha 90.000000
_cell_angle_beta 90.000000
_cell_angle_gamma 90.000000
_cell_volume 2287.768001
_symmetry_space_group_name_H-M "C 2 2 21"
_symmetry_group_IT_number 20
_symmetry_cell_setting 'orthorhombic'
loop_
_space_group_symop_operation_xyz
x,y,z
-x,-y,1/2+z
x,-y,-z
-x,y,1/2-z
1/2+x,1/2+y,z
1/2-x,1/2-y,1/2+z
1/2+x,1/2-y,-z
1/2-x,1/2+y,1/2-z
loop_
_atom_site_type_symbol
_atom_site_label
_atom_site_fract_x
_atom_site_fract_y
_atom_site_fract_z
Si Si1 0.445696 0.262516 0.627968
Si Si2 0.216941 0.173202 0.272251
Si Si3 0.130274 0.889344 0.016684
Si Si4 0.652446 0.983824 0.288104
Si Si5 0.447715 0.935071 0.062879
Si Si6 0.604962 0.333832 0.183455
O O1 0.324586 0.278242 0.691837
O O2 0.587402 0.305636 0.669777
O O3 0.414440 0.322682 0.552573
O O4 0.466985 0.151433 0.602966
O O5 0.252823 0.063080 0.253825
O O6 0.358299 0.222030 0.306725
O O7 0.303524 0.887685 0.027648
O O8 0.064994 0.858559 0.097755
O O9 0.091507 0.000000 0.000000
O O10 0.500000 0.967140 0.250000
O O11 0.612056 0.009217 0.374118
O O12 0.746175 0.888519 0.298578
O O13 0.524394 0.000000 0.000000
O O14 0.500000 0.364482 0.250000
#
# Coordination Sequence:
#
# PCOD9319302 Si02
#       6
#     8   8   8   8   8   8
#     4  11  22  40  69  96 131 175 229 275 335 405
#     4  11  23  40  67  95 130 176 225 280 331 394
#     4  10  22  40  63  93 131 174 217 272 341 395
#     4  11  23  42  69  94 131 173 222 269 335 401
#     4  10  21  41  64  91 129 175 217 271 336 396
#     4  11  24  42  66 101 135 171 225 280 332 405
#
# _framework density 20.981148999999998
#
# number of rings (size 3 to 8) (size 9 to 14) (size 15 to 20)
#    0.000    1.333    3.333    4.500    4.667    4.000 
#    0.000    0.000    0.000    0.000    0.000    0.000 
#    0.000    0.000    0.000    0.000    0.000    0.000 
#
# Total GULP energy -133978.295642 kJ/mol
# GULP energy per Si atom -5582.428985 kJ/mol
# Density = 2.093340 g / cm^3
# Si number density = 20.981149 Si / 1000 Ang^3
#
#
#
# Elastic Constant Matrix: (Units=GPa)
#
#
# Indices 1 2 3 4 5 6 
#
# 1 29.4612 -3.2132 36.5818 0.0000 0.0000 0.0000
# 2 -3.2132 83.4943 43.3631 0.0000 0.0000 0.0000
# 3 36.5818 43.3631 168.2223 0.0000 0.0000 0.0000
# 4 0.0000 0.0000 0.0000 43.6657 0.0000 0.0000
# 5 0.0000 0.0000 0.0000 0.0000 20.9998 0.0000
# 6 0.0000 0.0000 0.0000 0.0000 0.0000 11.2898
#
#
#
# Elastic Compliance Matrix: (Units=1/GPa)
#
#
# Indices 1 2 3 4 5 6 
#
# 1 0.051825 0.009060 -0.013605 0.000000 0.000000 0.000000
# 2 0.009060 0.015412 -0.005943 0.000000 0.000000 0.000000
# 3 -0.013605 -0.005943 0.010435 0.000000 0.000000 0.000000
# 4 0.000000 0.000000 0.000000 0.022901 0.000000 0.000000
# 5 0.000000 0.000000 0.000000 0.000000 0.047619 0.000000
# 6 0.000000 0.000000 0.000000 0.000000 0.000000 0.088576
#
#
# Mechanical properties :
#
#
# Convention : Reuss Voigt Hill
#
# Bulk Modulus (GPa) = 17.63792 48.29345 32.96569
# Shear Modulus (GPa) = 18.07381 28.82080 23.44731
#
# Velocity S-wave (km/s) = 2.93820 3.71030 3.34659
# Velocity P-wave (km/s) = 4.46492 6.43604 5.53887
#
# Compressibility (1/GPa) = 0.05669602
#
# Stress axis : x y z
#
# Youngs Moduli (GPa) = 19.29573 64.88392 95.83002
#
# Poissons Ratio (x) = -0.58788 1.30381
# Poissons Ratio (y) = -0.17483 0.56953
# Poissons Ratio (z) = 0.26253 0.38561
#
# Static dielectric constant tensor:
#      x y z
#    x 1.763620 0.000000 0.000000 
#    y 0.000000 1.751970 0.000000 
#    z 0.000000 0.000000 1.789940 
# 
# From -- ./inp_files/23476.got.cif
#   From: 2010.05.17/outbox.cif.g08.bks.cpg/sg20_12_cif.got.tgz:23476.got - 2010.06.03 22:52:26.
