data_PCOD9319638
_publ_section_title
;
Structure prediction by ZEFSAII (Michael W. Deem and Ramdas Pophale) SiO2 
 PCOD9319638
Probable space group: C 2 2 21
;
_chemical_formula_sum "Si O2"
_cell_formula_units_Z 64
_cell_length_a 8.620739
_cell_length_b 22.363754
_cell_length_c 14.105217
_cell_angle_alpha 90.000000
_cell_angle_beta 90.000000
_cell_angle_gamma 90.000000
_cell_volume 2719.374213
_symmetry_space_group_name_H-M "C 2 2 21"
_symmetry_group_IT_number 20
_symmetry_cell_setting 'orthorhombic'
loop_
_space_group_symop_operation_xyz
x,y,z
-x,-y,1/2+z
x,-y,-z
-x,y,1/2-z
1/2+x,1/2+y,z
1/2-x,1/2-y,1/2+z
1/2+x,1/2-y,-z
1/2-x,1/2+y,1/2-z
loop_
_atom_site_type_symbol
_atom_site_label
_atom_site_fract_x
_atom_site_fract_y
_atom_site_fract_z
Si Si1 0.645415 0.039543 0.095339
Si Si2 0.550795 0.882704 0.484027
Si Si3 0.303653 0.762248 0.095145
Si Si4 0.008879 0.960530 0.636952
Si Si5 0.374663 0.420912 0.454443
Si Si6 0.175399 0.809220 0.280832
Si Si7 0.142019 0.416794 0.184633
Si Si8 0.520131 0.706822 0.543197
O O1 0.821964 0.060986 0.102045
O O2 0.644092 0.988176 0.176254
O O3 0.514050 0.090362 0.083070
O O4 0.627142 0.000000 0.000000
O O5 0.626857 0.817828 0.467422
O O6 0.689363 0.924266 0.440128
O O7 0.401727 0.888486 0.416647
O O8 0.290943 0.779395 0.205298
O O9 0.126635 0.750788 0.063433
O O10 0.417701 0.710190 0.063193
O O11 0.000000 0.955884 0.750000
O O12 0.889907 0.926105 0.568788
O O13 0.971022 0.028290 0.600504
O O14 0.448199 0.357439 0.430410
O O15 0.211455 0.880017 0.279494
O O16 0.167073 0.784121 0.387266
O O17 0.000000 0.797379 0.250000
O O18 0.000000 0.399268 0.250000
#
# Coordination Sequence:
#
# PCOD9319638 Si02
#       8
#     8   8   8   8   8   8   8   8
#     4  10  22  37  54  94 129 164 209 261 329 386
#     4  10  23  40  60  90 133 168 210 268 335 385
#     4  10  22  42  65  99 128 174 216 274 338 387
#     4  11  24  40  67  94 130 179 221 267 333 391
#     4  10  23  43  64  94 134 173 220 277 327 399
#     4  10  22  41  64 100 133 167 224 279 329 392
#     4  11  22  34  62  96 126 166 215 269 321 384
#     4  10  23  40  68  95 130 173 218 276 336 390
#
# _framework density 23.534825999999999
#
# number of rings (size 3 to 8) (size 9 to 14) (size 15 to 20)
#    0.000    1.750    2.500    0.750   10.500    3.000 
#    0.000    2.500    0.000    5.250    0.000    0.000 
#    0.000    0.000    0.000    0.000    0.000    0.000 
#
# Total GULP energy -178365.246448 kJ/mol
# GULP energy per Si atom -5573.913952 kJ/mol
# Density = 2.348126 g / cm^3
# Si number density = 23.534826 Si / 1000 Ang^3
#
#
#
# Elastic Constant Matrix: (Units=GPa)
#
#
# Indices 1 2 3 4 5 6 
#
# 1 83.2577 17.6005 11.8633 0.0000 0.0000 0.0000
# 2 17.6005 25.1232 7.0711 0.0000 0.0000 0.0000
# 3 11.8633 7.0711 75.3231 0.0000 0.0000 0.0000
# 4 0.0000 0.0000 0.0000 29.0599 0.0000 0.0000
# 5 0.0000 0.0000 0.0000 0.0000 36.8113 0.0000
# 6 0.0000 0.0000 0.0000 0.0000 0.0000 34.9975
#
#
#
# Elastic Compliance Matrix: (Units=1/GPa)
#
#
# Indices 1 2 3 4 5 6 
#
# 1 0.014230 -0.009591 -0.001341 0.000000 0.000000 0.000000
# 2 -0.009591 0.047349 -0.002934 0.000000 0.000000 0.000000
# 3 -0.001341 -0.002934 0.013763 0.000000 0.000000 0.000000
# 4 0.000000 0.000000 0.000000 0.034412 0.000000 0.000000
# 5 0.000000 0.000000 0.000000 0.000000 0.027166 0.000000
# 6 0.000000 0.000000 0.000000 0.000000 0.000000 0.028573
#
#
# Mechanical properties :
#
#
# Convention : Reuss Voigt Hill
#
# Bulk Modulus (GPa) = 21.00463 28.53043 24.76753
# Shear Modulus (GPa) = 23.91259 29.98498 26.94878
#
# Velocity S-wave (km/s) = 3.19101 3.57328 3.38754
# Velocity P-wave (km/s) = 4.74563 5.40124 5.08402
#
# Compressibility (1/GPa) = 0.04760854
#
# Stress axis : x y z
#
# Youngs Moduli (GPa) = 70.27636 21.11966 72.65972
#
# Poissons Ratio (x) = 0.20257 0.09742
# Poissons Ratio (y) = 0.67405 0.21321
# Poissons Ratio (z) = 0.09422 0.06197
#
# Static dielectric constant tensor:
#      x y z
#    x 1.894880 0.000000 0.000000 
#    y 0.000000 1.978120 0.000000 
#    z 0.000000 0.000000 2.017580 
# 
# From -- ./inp_files/19379.got.cif
#   From: 2010.05.17/outbox.cif.g08.bks.cpg/sg20_10_cif.got.tgz:19379.got - 2010.06.03 22:52:26.
