data_PCOD9319636
_publ_section_title
;
Structure prediction by ZEFSAII (Michael W. Deem and Ramdas Pophale) SiO2 
 PCOD9319636
Probable space group: C 2 2 21
;
_chemical_formula_sum "Si O2"
_cell_formula_units_Z 48
_cell_length_a 16.721985
_cell_length_b 14.521027
_cell_length_c 9.075516
_cell_angle_alpha 90.000000
_cell_angle_beta 90.000000
_cell_angle_gamma 90.000000
_cell_volume 2203.720386
_symmetry_space_group_name_H-M "C 2 2 21"
_symmetry_group_IT_number 20
_symmetry_cell_setting 'orthorhombic'
loop_
_space_group_symop_operation_xyz
x,y,z
-x,-y,1/2+z
x,-y,-z
-x,y,1/2-z
1/2+x,1/2+y,z
1/2-x,1/2-y,1/2+z
1/2+x,1/2-y,-z
1/2-x,1/2+y,1/2-z
loop_
_atom_site_type_symbol
_atom_site_label
_atom_site_fract_x
_atom_site_fract_y
_atom_site_fract_z
Si Si1 0.747303 0.142349 0.728203
Si Si2 0.404692 0.959995 0.343207
Si Si3 0.582547 0.373277 0.795217
Si Si4 0.671919 0.709070 0.467482
Si Si5 0.998595 0.701730 0.542732
Si Si6 0.000000 0.620825 0.250000
Si Si7 0.318612 0.500000 0.500000
O O1 0.660213 0.110506 0.783746
O O2 0.737579 0.228604 0.616534
O O3 0.774641 0.055528 0.629998
O O4 0.798253 0.170212 0.874948
O O5 0.481661 0.898781 0.391184
O O6 0.374459 0.000000 0.500000
O O7 0.427252 0.046501 0.239436
O O8 0.500000 0.422220 0.750000
O O9 0.640326 0.363883 0.654260
O O10 0.551008 0.276609 0.865400
O O11 0.627576 0.424821 0.921503
O O12 0.590984 0.770707 0.477526
O O13 0.970521 0.687690 0.377262
#
# Coordination Sequence:
#
# PCOD9319636 Si02
#       7
#     8   8   8   8   8   4   4
#     4  12  27  43  70 103 150 185 234 294 367 444
#     4  10  22  40  66 104 147 182 225 298 359 440
#     4  10  24  49  71  96 136 188 244 308 346 424
#     4  11  25  45  73  98 139 191 236 292 369 423
#     4  10  22  43  72 100 139 184 245 293 349 430
#     4  10  22  36  72 106 136 178 238 288 368 430
#     4  12  30  44  68 106 142 186 248 292 368 436
#
# _framework density 21.781345999999999
#
# number of rings (size 3 to 8) (size 9 to 14) (size 15 to 20)
#    0.000    1.333    1.667    2.000    8.167    4.000 
#    0.000    0.000    0.000    0.000    0.000    0.000 
#    0.000    0.000    0.000    0.000    0.000    0.000 
#
# Total GULP energy -133736.088579 kJ/mol
# GULP energy per Si atom -5572.337024 kJ/mol
# Density = 2.173177 g / cm^3
# Si number density = 21.781346 Si / 1000 Ang^3
#
#
#
# Elastic Constant Matrix: (Units=GPa)
#
#
# Indices 1 2 3 4 5 6 
#
# 1 77.8810 39.3238 42.0349 0.0000 0.0000 0.0000
# 2 39.3238 59.4246 60.8349 0.0000 0.0000 0.0000
# 3 42.0349 60.8349 133.8096 0.0000 0.0000 0.0000
# 4 0.0000 0.0000 0.0000 8.8562 0.0000 0.0000
# 5 0.0000 0.0000 0.0000 0.0000 31.0805 0.0000
# 6 0.0000 0.0000 0.0000 0.0000 0.0000 0.8477
#
#
#
# Elastic Compliance Matrix: (Units=1/GPa)
#
#
# Indices 1 2 3 4 5 6 
#
# 1 0.019300 -0.012280 -0.000480 0.000000 0.000000 0.000000
# 2 -0.012280 0.039293 -0.014007 0.000000 0.000000 0.000000
# 3 -0.000480 -0.014007 0.013992 0.000000 0.000000 0.000000
# 4 0.000000 0.000000 0.000000 0.112915 0.000000 0.000000
# 5 0.000000 0.000000 0.000000 0.000000 0.032174 0.000000
# 6 0.000000 0.000000 0.000000 0.000000 0.000000 1.179665
#
#
# Mechanical properties :
#
#
# Convention : Reuss Voigt Hill
#
# Bulk Modulus (GPa) = 52.48837 61.72252 57.10544
# Shear Modulus (GPa) = 3.43118 16.75167 10.09143
#
# Velocity S-wave (km/s) = 1.25647 2.77624 2.15479
# Velocity P-wave (km/s) = 5.12397 6.21897 5.69784
#
# Compressibility (1/GPa) = 0.01905184
#
# Stress axis : x y z
#
# Youngs Moduli (GPa) = 51.81462 25.44960 71.46999
#
# Poissons Ratio (x) = 0.31253 0.03428
# Poissons Ratio (y) = 0.63630 1.00105
# Poissons Ratio (z) = 0.02485 0.35646
#
# Static dielectric constant tensor:
#      x y z
#    x 1.878910 0.000000 0.000000 
#    y 0.000000 1.794890 0.000000 
#    z 0.000000 0.000000 2.041870 
# 
# From -- ./inp_files/9385.got.cif
#   From: 2010.05.17/outbox.cif.g08.bks.cpg/sg20_5_cif.got.tgz:9385.got - 2010.06.03 22:52:26.
