data_PCOD9319141
_publ_section_title
;
Structure prediction by ZEFSAII (Michael W. Deem and Ramdas Pophale) SiO2 
 PCOD9319141
Probable space group: C 2 2 21
;
_chemical_formula_sum "Si O2"
_cell_formula_units_Z 44
_cell_length_a 5.505521
_cell_length_b 24.965903
_cell_length_c 14.377047
_cell_angle_alpha 90.000000
_cell_angle_beta 90.000000
_cell_angle_gamma 90.000000
_cell_volume 1976.129470
_symmetry_space_group_name_H-M "C 2 2 21"
_symmetry_group_IT_number 20
_symmetry_cell_setting 'orthorhombic'
loop_
_space_group_symop_operation_xyz
x,y,z
-x,-y,1/2+z
x,-y,-z
-x,y,1/2-z
1/2+x,1/2+y,z
1/2-x,1/2-y,1/2+z
1/2+x,1/2-y,-z
1/2-x,1/2+y,1/2-z
loop_
_atom_site_type_symbol
_atom_site_label
_atom_site_fract_x
_atom_site_fract_y
_atom_site_fract_z
Si Si1 0.000000 0.801925 0.250000
Si Si2 0.010292 0.256187 0.055816
Si Si3 0.748255 0.364452 0.393153
Si Si4 0.280129 0.443728 0.941733
Si Si5 0.500000 0.264088 0.750000
Si Si6 0.222293 0.523750 0.393486
Si Si7 0.500000 0.056406 0.750000
O O1 0.020669 0.837450 0.342318
O O2 0.244686 0.767943 0.246080
O O3 0.058863 0.317079 0.090217
O O4 0.008860 0.215157 0.143874
O O5 0.253405 0.246144 0.995813
O O6 0.688702 0.395623 0.486430
O O7 0.851065 0.406823 0.320092
O O8 0.518559 0.448783 0.879232
O O9 0.019662 0.439931 0.892275
O O10 0.266219 0.500000 0.000000
O O11 0.233444 0.500000 0.500000
O O12 0.172312 0.479118 0.315925
#
# Coordination Sequence:
#
# PCOD9319141 Si02
#       7
#     4   8   8   8   4   8   4
#     4  10  22  34  60 104 128 159 219 290 324 376
#     4  11  24  43  67 104 138 177 219 292 358 398
#     4  11  23  38  68  99 135 176 227 278 338 398
#     4  10  21  40  55  89 136 173 210 260 323 402
#     4  10  21  44  64  98 139 160 227 280 342 417
#     4  10  22  39  56  93 136 176 206 271 327 392
#     4  12  23  40  70 102 135 177 230 288 330 383
#
# _framework density 22.265746
#
# number of rings (size 3 to 8) (size 9 to 14) (size 15 to 20)
#    0.000    1.455    3.636    4.364    5.091    5.091 
#    0.000    0.000    0.000    4.364    0.000    1.273 
#    0.000    0.000    0.000    0.000    0.000    0.000 
#
# Total GULP energy -122768.452557 kJ/mol
# GULP energy per Si atom -5580.384207 kJ/mol
# Density = 2.221507 g / cm^3
# Si number density = 22.265746 Si / 1000 Ang^3
#
#
#
# Elastic Constant Matrix: (Units=GPa)
#
#
# Indices 1 2 3 4 5 6 
#
# 1 140.2223 3.1393 20.3630 0.0000 0.0000 0.0000
# 2 3.1393 12.5292 12.2888 0.0000 0.0000 0.0000
# 3 20.3630 12.2888 99.4494 0.0000 0.0000 0.0000
# 4 0.0000 0.0000 0.0000 36.8666 0.0000 0.0000
# 5 0.0000 0.0000 0.0000 0.0000 38.7566 0.0000
# 6 0.0000 0.0000 0.0000 0.0000 0.0000 12.5408
#
#
#
# Elastic Compliance Matrix: (Units=1/GPa)
#
#
# Indices 1 2 3 4 5 6 
#
# 1 0.007352 -0.000416 -0.001454 0.000000 0.000000 0.000000
# 2 -0.000416 0.090844 -0.011140 0.000000 0.000000 0.000000
# 3 -0.001454 -0.011140 0.011730 0.000000 0.000000 0.000000
# 4 0.000000 0.000000 0.000000 0.027125 0.000000 0.000000
# 5 0.000000 0.000000 0.000000 0.000000 0.025802 0.000000
# 6 0.000000 0.000000 0.000000 0.000000 0.000000 0.079740
#
#
# Mechanical properties :
#
#
# Convention : Reuss Voigt Hill
#
# Bulk Modulus (GPa) = 11.91818 35.97591 23.94704
# Shear Modulus (GPa) = 16.85875 32.06012 24.45944
#
# Velocity S-wave (km/s) = 2.75464 3.79870 3.31799
# Velocity P-wave (km/s) = 3.93468 5.95254 5.04552
#
# Compressibility (1/GPa) = 0.08390546
#
# Stress axis : x y z
#
# Youngs Moduli (GPa) = 136.01753 11.00783 85.25391
#
# Poissons Ratio (x) = 0.00458 0.12396
# Poissons Ratio (y) = 0.05659 0.94976
# Poissons Ratio (z) = 0.19777 0.12263
#
# Static dielectric constant tensor:
#      x y z
#    x 1.826660 0.000000 0.000000 
#    y 0.000000 1.839440 0.000000 
#    z 0.000000 0.000000 1.939700 
# 
# From -- ./inp_files/17743.got.cif
#   From: 2010.05.17/outbox.cif.g08.bks.cpg/sg20_9_cif.got.tgz:17743.got - 2010.06.03 22:52:26.
