data_PCOD9319127
_publ_section_title
;
Structure prediction by ZEFSAII (Michael W. Deem and Ramdas Pophale) SiO2 
 PCOD9319127
Probable space group: C 2 2 21
;
_chemical_formula_sum "Si O2"
_cell_formula_units_Z 56
_cell_length_a 5.717508
_cell_length_b 29.311446
_cell_length_c 13.040889
_cell_angle_alpha 90.000000
_cell_angle_beta 90.000000
_cell_angle_gamma 90.000000
_cell_volume 2185.502074
_symmetry_space_group_name_H-M "C 2 2 21"
_symmetry_group_IT_number 20
_symmetry_cell_setting 'orthorhombic'
loop_
_space_group_symop_operation_xyz
x,y,z
-x,-y,1/2+z
x,-y,-z
-x,y,1/2-z
1/2+x,1/2+y,z
1/2-x,1/2-y,1/2+z
1/2+x,1/2-y,-z
1/2-x,1/2+y,1/2-z
loop_
_atom_site_type_symbol
_atom_site_label
_atom_site_fract_x
_atom_site_fract_y
_atom_site_fract_z
Si Si1 0.617686 0.792812 0.636635
Si Si2 0.120184 0.383616 0.894384
Si Si3 0.500000 0.833970 0.250000
Si Si4 0.603232 0.020278 0.383331
Si Si5 0.500000 0.338587 0.750000
Si Si6 0.637218 0.613846 0.606129
Si Si7 0.889986 0.797181 0.364212
Si Si8 0.097215 0.012692 0.620932
O O1 0.500000 0.792508 0.750000
O O2 0.518757 0.837258 0.582379
O O3 0.517676 0.746495 0.586709
O O4 0.883848 0.805192 0.664544
O O5 0.954010 0.426146 0.872902
O O6 0.304843 0.369727 0.805629
O O7 0.246938 0.396766 0.998194
O O8 0.680762 0.866464 0.189797
O O9 0.618329 0.801100 0.335430
O O10 0.618429 0.000000 0.500000
O O11 0.865276 0.013224 0.341958
O O12 0.363158 0.996856 0.342850
O O13 0.458352 0.654993 0.586525
O O14 0.535007 0.565653 0.637900
O O15 0.000000 0.798560 0.250000
O O16 0.111690 0.000000 0.500000
#
# Coordination Sequence:
#
# PCOD9319127 Si02
#       8
#     8   8   4   8   4   8   8   8
#     4   9  21  42  67 100 138 186 236 294 373 436
#     4  11  23  42  70 106 138 192 245 304 370 457
#     4  10  24  43  74  98 150 192 246 302 381 446
#     4  10  21  39  69 102 132 187 248 291 372 440
#     4  10  24  43  74  98 150 192 246 302 381 446
#     4  11  23  42  70 106 138 192 245 304 370 457
#     4   9  21  42  67 100 138 186 236 294 373 436
#     4  10  21  39  69 102 132 187 248 291 372 440
#
# _framework density 25.623404000000001
#
# number of rings (size 3 to 8) (size 9 to 14) (size 15 to 20)
#    0.000    2.000    2.857    0.000    4.000   10.286 
#    5.143    0.000    9.429    0.000    0.000    0.000 
#    0.000    0.000    0.000    0.000    0.000    0.000 
#
# Total GULP energy -156408.624596 kJ/mol
# GULP energy per Si atom -5586.022307 kJ/mol
# Density = 2.556508 g / cm^3
# Si number density = 25.623404 Si / 1000 Ang^3
#
#
#
# Elastic Constant Matrix: (Units=GPa)
#
#
# Indices 1 2 3 4 5 6 
#
# 1 165.7618 83.4300 33.0483 0.0000 0.0000 0.0000
# 2 83.4300 233.8012 13.1166 0.0000 0.0000 0.0000
# 3 33.0483 13.1166 83.5559 0.0000 0.0000 0.0000
# 4 0.0000 0.0000 0.0000 26.7951 0.0000 0.0000
# 5 0.0000 0.0000 0.0000 0.0000 39.4846 0.0000
# 6 0.0000 0.0000 0.0000 0.0000 0.0000 18.7303
#
#
#
# Elastic Compliance Matrix: (Units=1/GPa)
#
#
# Indices 1 2 3 4 5 6 
#
# 1 0.007919 -0.002674 -0.002713 0.000000 0.000000 0.000000
# 2 -0.002674 0.005218 0.000238 0.000000 0.000000 0.000000
# 3 -0.002713 0.000238 0.013003 0.000000 0.000000 0.000000
# 4 0.000000 0.000000 0.000000 0.037320 0.000000 0.000000
# 5 0.000000 0.000000 0.000000 0.000000 0.025326 0.000000
# 6 0.000000 0.000000 0.000000 0.000000 0.000000 0.053389
#
#
# Mechanical properties :
#
#
# Convention : Reuss Voigt Hill
#
# Bulk Modulus (GPa) = 63.11175 82.47877 72.79526
# Shear Modulus (GPa) = 31.69493 40.57028 36.13261
#
# Velocity S-wave (km/s) = 3.52085 3.98342 3.75926
# Velocity P-wave (km/s) = 6.41970 7.30860 6.87852
#
# Compressibility (1/GPa) = 0.01584491
#
# Stress axis : x y z
#
# Youngs Moduli (GPa) = 126.27389 191.64914 76.90249
#
# Poissons Ratio (x) = 0.51242 0.20860
# Poissons Ratio (y) = 0.33763 -0.01834
# Poissons Ratio (z) = 0.34252 -0.04570
#
# Static dielectric constant tensor:
#      x y z
#    x 2.093830 0.000000 0.000000 
#    y 0.000000 2.035260 0.000000 
#    z 0.000000 0.000000 2.180630 
# 
# From -- ./inp_files/18027.got.cif
#   From: 2010.05.17/outbox.cif.g08.bks.cpg/sg20_10_cif.got.tgz:18027.got - 2010.06.03 22:52:26.
