data_PCOD9319888
_publ_section_title
;
Structure prediction by ZEFSAII (Michael W. Deem and Ramdas Pophale) SiO2 
 PCOD9319888
Probable space group: C 2 2 21
;
_chemical_formula_sum "Si O2"
_cell_formula_units_Z 48
_cell_length_a 18.432912
_cell_length_b 6.590349
_cell_length_c 17.746848
_cell_angle_alpha 90.000000
_cell_angle_beta 90.000000
_cell_angle_gamma 90.000000
_cell_volume 2155.875083
_symmetry_space_group_name_H-M "C 2 2 21"
_symmetry_group_IT_number 20
_symmetry_cell_setting 'orthorhombic'
loop_
_space_group_symop_operation_xyz
x,y,z
-x,-y,1/2+z
x,-y,-z
-x,y,1/2-z
1/2+x,1/2+y,z
1/2-x,1/2-y,1/2+z
1/2+x,1/2-y,-z
1/2-x,1/2+y,1/2-z
loop_
_atom_site_type_symbol
_atom_site_label
_atom_site_fract_x
_atom_site_fract_y
_atom_site_fract_z
Si Si1 0.515144 0.000000 0.000000
Si Si2 0.921426 0.173122 0.613596
Si Si3 0.674919 0.568791 0.587701
Si Si4 0.727282 0.783802 0.829893
Si Si5 0.033019 0.129704 0.422904
Si Si6 0.348353 0.049522 0.181473
Si Si7 0.500000 0.100827 0.250000
O O1 0.467956 0.863985 0.056556
O O2 0.559638 0.169482 0.046081
O O3 0.836028 0.174527 0.623523
O O4 0.962841 0.267332 0.684983
O O5 0.956482 0.950420 0.607289
O O6 0.684056 0.500000 0.500000
O O7 0.746063 0.490879 0.630910
O O8 0.603489 0.450728 0.619448
O O9 0.656447 0.801526 0.608663
O O10 0.691298 0.826821 0.749262
O O11 0.797054 0.642127 0.828250
O O12 0.038848 0.000000 0.500000
O O13 0.429677 0.996621 0.211016
#
# Coordination Sequence:
#
# PCOD9319888 Si02
#       7
#     4   8   8   8   8   8   4
#     4  10  22  40  68  94 134 168 228 270 332 400
#     4  10  22  42  63  95 130 174 218 278 333 397
#     4  11  24  42  68  99 136 179 231 285 344 406
#     4  11  25  42  69  95 137 180 219 285 345 404
#     4   9  20  40  65  93 128 170 219 278 328 396
#     4  11  23  47  66  98 136 175 230 282 342 415
#     4  10  22  42  70  92 130 170 224 280 332 404
#
# _framework density 22.264741000000001
#
# number of rings (size 3 to 8) (size 9 to 14) (size 15 to 20)
#    0.000    1.667    3.333    0.000    3.500    2.000 
#    6.000    1.667    0.000    0.000    0.000    0.000 
#    0.000    0.000    0.000    0.000    0.000    0.000 
#
# Total GULP energy -133844.588877 kJ/mol
# GULP energy per Si atom -5576.857870 kJ/mol
# Density = 2.221407 g / cm^3
# Si number density = 22.264741 Si / 1000 Ang^3
#
#
#
# Elastic Constant Matrix: (Units=GPa)
#
#
# Indices 1 2 3 4 5 6 
#
# 1 141.1087 32.1286 13.5196 0.0000 0.0000 0.0000
# 2 32.1286 70.6282 11.6312 0.0000 0.0000 0.0000
# 3 13.5196 11.6312 75.2494 0.0000 0.0000 0.0000
# 4 0.0000 0.0000 0.0000 22.3996 0.0000 0.0000
# 5 0.0000 0.0000 0.0000 0.0000 28.2351 0.0000
# 6 0.0000 0.0000 0.0000 0.0000 0.0000 32.7824
#
#
#
# Elastic Compliance Matrix: (Units=1/GPa)
#
#
# Indices 1 2 3 4 5 6 
#
# 1 0.007964 -0.003476 -0.000894 0.000000 0.000000 0.000000
# 2 -0.003476 0.016045 -0.001856 0.000000 0.000000 0.000000
# 3 -0.000894 -0.001856 0.013737 0.000000 0.000000 0.000000
# 4 0.000000 0.000000 0.000000 0.044644 0.000000 0.000000
# 5 0.000000 0.000000 0.000000 0.000000 0.035417 0.000000
# 6 0.000000 0.000000 0.000000 0.000000 0.000000 0.030504
#
#
# Mechanical properties :
#
#
# Convention : Reuss Voigt Hill
#
# Bulk Modulus (GPa) = 39.53205 44.61612 42.07409
# Shear Modulus (GPa) = 29.55227 31.99721 30.77474
#
# Velocity S-wave (km/s) = 3.64718 3.79506 3.72185
# Velocity P-wave (km/s) = 5.96070 6.26783 6.11619
#
# Compressibility (1/GPa) = 0.02529593
#
# Stress axis : x y z
#
# Youngs Moduli (GPa) = 125.57012 62.32374 72.79867
#
# Poissons Ratio (x) = 0.21661 0.06505
# Poissons Ratio (y) = 0.43642 0.13509
# Poissons Ratio (z) = 0.11221 0.11565
#
# Static dielectric constant tensor:
#      x y z
#    x 1.845670 0.000000 0.000000 
#    y 0.000000 1.836330 0.000000 
#    z 0.000000 0.000000 1.907190 
# 
# From -- ./inp_files/27867.got.cif
#   From: 2010.05.17/outbox.cif.g08.bks.cpg/sg20_14_cif.got.tgz:27867.got - 2010.06.03 22:52:26.
