data_PCOD9319972
_publ_section_title
;
Structure prediction by ZEFSAII (Michael W. Deem and Ramdas Pophale) SiO2 
 PCOD9319972
Probable space group: C 2 2 21
;
_chemical_formula_sum "Si O2"
_cell_formula_units_Z 40
_cell_length_a 19.621573
_cell_length_b 11.779116
_cell_length_c 7.001970
_cell_angle_alpha 90.000000
_cell_angle_beta 90.000000
_cell_angle_gamma 90.000000
_cell_volume 1618.328807
_symmetry_space_group_name_H-M "C 2 2 21"
_symmetry_group_IT_number 20
_symmetry_cell_setting 'orthorhombic'
loop_
_space_group_symop_operation_xyz
x,y,z
-x,-y,1/2+z
x,-y,-z
-x,y,1/2-z
1/2+x,1/2+y,z
1/2-x,1/2-y,1/2+z
1/2+x,1/2-y,-z
1/2-x,1/2+y,1/2-z
loop_
_atom_site_type_symbol
_atom_site_label
_atom_site_fract_x
_atom_site_fract_y
_atom_site_fract_z
Si Si1 0.435289 0.077132 0.839006
Si Si2 0.021107 0.186381 0.527606
Si Si3 0.691255 0.180610 0.751824
Si Si4 0.666861 0.687927 0.611396
Si Si5 0.127946 0.131558 0.023445
O O1 0.500000 0.015296 0.750000
O O2 0.376124 0.111142 0.695323
O O3 0.465759 0.190039 0.937952
O O4 0.403656 0.000000 0.000000
O O5 0.097651 0.133136 0.522376
O O6 0.000000 0.189198 0.750000
O O7 0.953121 0.136356 0.429694
O O8 0.686270 0.204680 0.523278
O O9 0.759664 0.132278 0.843865
O O10 0.675945 0.307635 0.825377
O O11 0.641951 0.704090 0.830088
O O12 0.145500 0.000000 0.000000
#
# Coordination Sequence:
#
# PCOD9319972 Si02
#       5
#     8   8   8   8   8
#     4  11  22  39  67  96 130 176 233 285 348 403
#     4   9  20  42  63  93 129 173 219 287 335 401
#     4  11  22  43  69  95 142 184 224 291 347 406
#     4  10  22  41  67  94 137 182 225 277 347 407
#     4  11  23  43  72 101 137 183 232 285 353 420
#
# _framework density 24.716856
#
# number of rings (size 3 to 8) (size 9 to 14) (size 15 to 20)
#    0.000    1.600    4.000    0.600    0.000    1.600 
#   21.600    0.000    0.000    0.000    0.000    0.000 
#    0.000    0.000    0.000    0.000    0.000    0.000 
#
# Total GULP energy -111389.543757 kJ/mol
# GULP energy per Si atom -5569.477188 kJ/mol
# Density = 2.466060 g / cm^3
# Si number density = 24.716856 Si / 1000 Ang^3
#
#
#
# Elastic Constant Matrix: (Units=GPa)
#
#
# Indices 1 2 3 4 5 6 
#
# 1 216.6102 17.9691 19.3179 0.0000 0.0000 0.0000
# 2 17.9691 67.6149 16.2105 0.0000 0.0000 0.0000
# 3 19.3179 16.2105 61.9282 0.0000 0.0000 0.0000
# 4 0.0000 0.0000 0.0000 13.2534 0.0000 0.0000
# 5 0.0000 0.0000 0.0000 0.0000 40.6172 0.0000
# 6 0.0000 0.0000 0.0000 0.0000 0.0000 -0.0645
#
#
#
# Elastic Compliance Matrix: (Units=1/GPa)
#
#
# Indices 1 2 3 4 5 6 
#
# 1 0.004809 -0.000980 -0.001244 0.000000 0.000000 0.000000
# 2 -0.000980 0.015980 -0.003877 0.000000 0.000000 0.000000
# 3 -0.001244 -0.003877 0.017551 0.000000 0.000000 0.000000
# 4 0.000000 0.000000 0.000000 0.075453 0.000000 0.000000
# 5 0.000000 0.000000 0.000000 0.000000 0.024620 0.000000
# 6 0.000000 0.000000 0.000000 0.000000 0.000000-15.510377
#
#
# Mechanical properties :
#
#
# Convention : Reuss Voigt Hill
#
# Bulk Modulus (GPa) = 38.25891 50.34981 44.30436
# Shear Modulus (GPa) = -0.32571 30.27160 14.97294
#
# Velocity S-wave (km/s) = -0.36340 3.50342 2.46393
# Velocity P-wave (km/s) = 3.91617 6.06466 5.10473
#
# Compressibility (1/GPa) = 0.02613770
#
# Stress axis : x y z
#
# Youngs Moduli (GPa) = 207.95317 62.57986 56.97820
#
# Poissons Ratio (x) = 0.06132 0.07086
# Poissons Ratio (y) = 0.20376 0.22092
# Poissons Ratio (z) = 0.25860 0.24264
#
# Static dielectric constant tensor:
#      x y z
#    x 2.042030 0.000000 0.000000 
#    y 0.000000 1.901950 0.000000 
#    z 0.000000 0.000000 2.054100 
# 
# From -- ./inp_files/9968.got.cif
#   From: 2010.05.17/outbox.cif.g08.bks.cpg/sg20_5_cif.got.tgz:9968.got - 2010.06.03 22:52:26.
