data_PCOD9319663
_publ_section_title
;
Structure prediction by ZEFSAII (Michael W. Deem and Ramdas Pophale) SiO2 
 PCOD9319663
Probable space group: C 2 2 21
;
_chemical_formula_sum "Si O2"
_cell_formula_units_Z 48
_cell_length_a 9.077304
_cell_length_b 10.997630
_cell_length_c 21.288147
_cell_angle_alpha 90.000000
_cell_angle_beta 90.000000
_cell_angle_gamma 90.000000
_cell_volume 2125.170825
_symmetry_space_group_name_H-M "C 2 2 21"
_symmetry_group_IT_number 20
_symmetry_cell_setting 'orthorhombic'
loop_
_space_group_symop_operation_xyz
x,y,z
-x,-y,1/2+z
x,-y,-z
-x,y,1/2-z
1/2+x,1/2+y,z
1/2-x,1/2-y,1/2+z
1/2+x,1/2-y,-z
1/2-x,1/2+y,1/2-z
loop_
_atom_site_type_symbol
_atom_site_label
_atom_site_fract_x
_atom_site_fract_y
_atom_site_fract_z
Si Si1 0.750006 0.095384 0.836712
Si Si2 0.000000 0.207811 0.750000
Si Si3 0.749982 0.186357 0.976040
Si Si4 0.502089 0.000000 0.000000
Si Si5 0.249994 0.184306 0.332916
Si Si6 0.749981 0.398455 0.066116
Si Si7 0.500000 0.792203 0.250000
Si Si8 0.502125 0.500000 0.500000
O O1 0.892695 0.128523 0.794623
O O2 0.749986 0.171888 0.901155
O O3 0.607332 0.128512 0.794612
O O4 0.750005 0.953835 0.856034
O O5 0.893784 0.291780 0.708783
O O6 0.607909 0.116040 0.003067
O O7 0.749981 0.321509 0.001246
O O8 0.892055 0.116041 0.003067
O O9 0.397906 0.023077 0.939568
O O10 0.250016 0.294876 0.382301
O O11 0.106186 0.208233 0.291230
O O12 0.602058 0.476924 0.060432
#
# Coordination Sequence:
#
# PCOD9319663 Si02
#       8
#     8   4   8   4   8   8   4   4
#     4  11  23  41  63  88 120 158 204 253 301 359
#     4  10  24  42  62  88 116 158 208 254 302 348
#     4  11  22  38  62  90 123 160 197 244 304 364
#     4  10  22  38  56  88 124 154 192 236 292 360
#     4  11  22  41  64  87 120 158 202 252 299 356
#     4  11  23  39  61  91 125 159 197 245 304 364
#     4  10  24  42  62  88 116 158 208 254 302 348
#     4  10  22  38  56  88 124 154 192 236 292 360
#
# _framework density 22.58642
#
# number of rings (size 3 to 8) (size 9 to 14) (size 15 to 20)
#    0.000    1.333    0.000    6.000    0.000    2.667 
#    0.000   13.333    0.000    0.000    0.000    0.000 
#    0.000    0.000    0.000    0.000    0.000    0.000 
#
# Total GULP energy -134250.299816 kJ/mol
# GULP energy per Si atom -5593.762492 kJ/mol
# Density = 2.253501 g / cm^3
# Si number density = 22.586420 Si / 1000 Ang^3
#
#
#
# Elastic Constant Matrix: (Units=GPa)
#
#
# Indices 1 2 3 4 5 6 
#
# 1 139.9465 8.5711 32.8765 0.0000 0.0000 0.0000
# 2 8.5711 38.1894 20.2302 0.0000 0.0000 0.0000
# 3 32.8765 20.2302 117.5879 0.0000 0.0000 0.0000
# 4 0.0000 0.0000 0.0000 34.5323 0.0000 0.0000
# 5 0.0000 0.0000 0.0000 0.0000 8.2170 0.0000
# 6 0.0000 0.0000 0.0000 0.0000 0.0000 108.9430
#
#
#
# Elastic Compliance Matrix: (Units=1/GPa)
#
#
# Indices 1 2 3 4 5 6 
#
# 1 0.007662 -0.000643 -0.002032 0.000000 0.000000 0.000000
# 2 -0.000643 0.028865 -0.004786 0.000000 0.000000 0.000000
# 3 -0.002032 -0.004786 0.009896 0.000000 0.000000 0.000000
# 4 0.000000 0.000000 0.000000 0.028958 0.000000 0.000000
# 5 0.000000 0.000000 0.000000 0.000000 0.121698 0.000000
# 6 0.000000 0.000000 0.000000 0.000000 0.000000 0.009179
#
#
# Mechanical properties :
#
#
# Convention : Reuss Voigt Hill
#
# Bulk Modulus (GPa) = 31.74539 46.56438 39.15488
# Shear Modulus (GPa) = 21.58136 45.94153 33.76144
#
# Velocity S-wave (km/s) = 3.09447 4.51492 3.87042
# Velocity P-wave (km/s) = 5.18201 6.91666 6.11120
#
# Compressibility (1/GPa) = 0.03150064
#
# Stress axis : x y z
#
# Youngs Moduli (GPa) = 130.50968 34.64391 101.05383
#
# Poissons Ratio (x) = 0.02229 0.20530
# Poissons Ratio (y) = 0.08398 0.48366
# Poissons Ratio (z) = 0.26514 0.16581
#
# Static dielectric constant tensor:
#      x y z
#    x 1.863780 0.000000 0.000000 
#    y 0.000000 1.780680 0.000000 
#    z 0.000000 0.000000 1.854480 
# 
# From -- ./inp_files/28777.got.cif
#   From: 2010.05.17/outbox.cif.g08.bks.cpg/sg20_15_cif.got.tgz:28777.got - 2010.06.03 22:52:26.
