data_PCOD9319901
_publ_section_title
;
Structure prediction by ZEFSAII (Michael W. Deem and Ramdas Pophale) SiO2 
 PCOD9319901
Probable space group: C 2 2 21
;
_chemical_formula_sum "Si O2"
_cell_formula_units_Z 32
_cell_length_a 5.758177
_cell_length_b 24.507239
_cell_length_c 10.506126
_cell_angle_alpha 90.000000
_cell_angle_beta 90.000000
_cell_angle_gamma 90.000000
_cell_volume 1482.593192
_symmetry_space_group_name_H-M "C 2 2 21"
_symmetry_group_IT_number 20
_symmetry_cell_setting 'orthorhombic'
loop_
_space_group_symop_operation_xyz
x,y,z
-x,-y,1/2+z
x,-y,-z
-x,y,1/2-z
1/2+x,1/2+y,z
1/2-x,1/2-y,1/2+z
1/2+x,1/2-y,-z
1/2-x,1/2+y,1/2-z
loop_
_atom_site_type_symbol
_atom_site_label
_atom_site_fract_x
_atom_site_fract_y
_atom_site_fract_z
Si Si1 0.500000 0.754802 0.250000
Si Si2 0.632544 0.152801 0.923456
Si Si3 0.746009 0.348815 0.709360
Si Si4 0.500000 0.404950 0.250000
Si Si5 0.123402 0.541961 0.613249
O O1 0.498629 0.794138 0.371920
O O2 0.287466 0.712408 0.264775
O O3 0.813457 0.133919 0.815676
O O4 0.467792 0.100578 0.932638
O O5 0.753884 0.158878 0.058191
O O6 0.500000 0.377215 0.750000
O O7 0.000000 0.370962 0.750000
O O8 0.610790 0.445324 0.146486
O O9 0.086253 0.500000 0.500000
O O10 0.000000 0.528470 0.750000
#
# Coordination Sequence:
#
# PCOD9319901 Si02
#       5
#     4   8   8   4   8
#     4  10  24  38  68  97 132 187 222 280 340 414
#     4  11  23  43  67  95 137 177 229 287 344 418
#     4  10  27  41  64 102 141 184 227 282 343 409
#     4  10  22  40  70  97 126 179 232 280 360 406
#     4  10  23  44  68  97 133 178 232 294 353 425
#
# _framework density 21.583801999999999
#
# number of rings (size 3 to 8) (size 9 to 14) (size 15 to 20)
#    0.750    1.000    3.750    0.000    8.750    5.000 
#    0.000    0.000    0.000    0.000    0.000    0.000 
#    0.000    0.000    0.000    0.000    0.000    0.000 
#
# Total GULP energy -89155.936171 kJ/mol
# GULP energy per Si atom -5572.246011 kJ/mol
# Density = 2.153468 g / cm^3
# Si number density = 21.583802 Si / 1000 Ang^3
#
#
#
# Elastic Constant Matrix: (Units=GPa)
#
#
# Indices 1 2 3 4 5 6 
#
# 1 85.6964 -0.9315 -2.5571 0.0000 0.0000 0.0000
# 2 -0.9315 43.1517 7.1978 0.0000 0.0000 0.0000
# 3 -2.5571 7.1978 73.2778 0.0000 0.0000 0.0000
# 4 0.0000 0.0000 0.0000 39.3395 0.0000 0.0000
# 5 0.0000 0.0000 0.0000 0.0000 29.8300 0.0000
# 6 0.0000 0.0000 0.0000 0.0000 0.0000 -7.8807
#
#
#
# Elastic Compliance Matrix: (Units=1/GPa)
#
#
# Indices 1 2 3 4 5 6 
#
# 1 0.011683 0.000187 0.000389 0.000000 0.000000 0.000000
# 2 0.000187 0.023563 -0.002308 0.000000 0.000000 0.000000
# 3 0.000389 -0.002308 0.013887 0.000000 0.000000 0.000000
# 4 0.000000 0.000000 0.000000 0.025420 0.000000 0.000000
# 5 0.000000 0.000000 0.000000 0.000000 0.033523 0.000000
# 6 0.000000 0.000000 0.000000 0.000000 0.000000 -0.126893
#
#
# Mechanical properties :
#
#
# Convention : Reuss Voigt Hill
#
# Bulk Modulus (GPa) = 21.89625 23.28271 22.58948
# Shear Modulus (GPa) = -38163.48603 25.48555 -19069.00024
#
# Velocity S-wave (km/s) = -133.11621 3.43996 -94.09594
# Velocity P-wave (km/s) = 153.67628 5.15639 108.60435
#
# Compressibility (1/GPa) = 0.04566991
#
# Stress axis : x y z
#
# Youngs Moduli (GPa) = 85.59631 42.43931 72.00982
#
# Poissons Ratio (x) = -0.00795 -0.02803
# Poissons Ratio (y) = -0.01603 0.16620
# Poissons Ratio (z) = -0.03332 0.09795
#
# Static dielectric constant tensor:
#      x y z
#    x 1.921050 0.000000 0.000000 
#    y 0.000000 1.761030 0.000000 
#    z 0.000000 0.000000 1.837850 
# 
# From -- ./inp_files/5182.got.cif
#   From: 2010.05.17/outbox.cif.g08.bks.cpg/sg20_3_cif.got.tgz:5182.got - 2010.06.03 22:52:26.
