data_PCOD9319666
_publ_section_title
;
Structure prediction by ZEFSAII (Michael W. Deem and Ramdas Pophale) SiO2 
 PCOD9319666
Probable space group: C 2 2 21
;
_chemical_formula_sum "Si O2"
_cell_formula_units_Z 44
_cell_length_a 9.888052
_cell_length_b 26.785578
_cell_length_c 7.092557
_cell_angle_alpha 90.000000
_cell_angle_beta 90.000000
_cell_angle_gamma 90.000000
_cell_volume 1878.514704
_symmetry_space_group_name_H-M "C 2 2 21"
_symmetry_group_IT_number 20
_symmetry_cell_setting 'orthorhombic'
loop_
_space_group_symop_operation_xyz
x,y,z
-x,-y,1/2+z
x,-y,-z
-x,y,1/2-z
1/2+x,1/2+y,z
1/2-x,1/2-y,1/2+z
1/2+x,1/2-y,-z
1/2-x,1/2+y,1/2-z
loop_
_atom_site_type_symbol
_atom_site_label
_atom_site_fract_x
_atom_site_fract_y
_atom_site_fract_z
Si Si1 0.775790 0.398919 0.546749
Si Si2 0.791354 0.590923 0.002401
Si Si3 0.815333 0.288822 0.581894
Si Si4 0.500000 0.069413 0.750000
Si Si5 0.996564 0.941883 0.528962
Si Si6 0.110478 0.298845 0.482563
O O1 0.804076 0.411551 0.768796
O O2 0.740882 0.340226 0.531174
O O3 0.906841 0.408513 0.420661
O O4 0.648023 0.429200 0.468851
O O5 0.632791 0.587747 0.955212
O O6 0.849264 0.644580 0.931410
O O7 0.877281 0.550336 0.884489
O O8 0.865328 0.297054 0.793390
O O9 0.716872 0.241874 0.588019
O O10 0.951931 0.285638 0.455518
O O11 0.000000 0.930347 0.750000
O O12 0.969116 0.000000 0.500000
#
# Coordination Sequence:
#
# PCOD9319666 Si02
#       6
#     8   8   8   4   8   8
#     4  10  23  43  65  96 134 173 218 274 336 388
#     4  10  23  43  65  96 134 173 218 274 336 388
#     4  10  22  38  58  88 129 168 214 266 319 384
#     4  12  22  38  76  90 126 174 214 268 328 398
#     4  10  24  46  73  96 134 172 220 282 331 399
#     4  10  22  38  58  88 129 168 214 266 319 384
#
# _framework density 23.422761000000001
#
# number of rings (size 3 to 8) (size 9 to 14) (size 15 to 20)
#    0.000    1.818    1.818    0.545    7.636    0.727 
#    0.000    0.909    0.000    0.000    0.000    0.000 
#    0.000    0.000    0.000    0.000    0.000    0.000 
#
# Total GULP energy -122671.063382 kJ/mol
# GULP energy per Si atom -5575.957426 kJ/mol
# Density = 2.336945 g / cm^3
# Si number density = 23.422761 Si / 1000 Ang^3
#
#
#
# Elastic Constant Matrix: (Units=GPa)
#
#
# Indices 1 2 3 4 5 6 
#
# 1 141.5985 29.1435 1.5673 0.0000 0.0000 0.0000
# 2 29.1435 44.1979 -13.9333 0.0000 0.0000 0.0000
# 3 1.5673 -13.9333 96.9022 0.0000 0.0000 0.0000
# 4 0.0000 0.0000 0.0000 26.1219 0.0000 0.0000
# 5 0.0000 0.0000 0.0000 0.0000 39.1829 0.0000
# 6 0.0000 0.0000 0.0000 0.0000 0.0000 -23.0297
#
#
#
# Elastic Compliance Matrix: (Units=1/GPa)
#
#
# Indices 1 2 3 4 5 6 
#
# 1 0.008256 -0.005746 -0.000960 0.000000 0.000000 0.000000
# 2 -0.005746 0.027699 0.004076 0.000000 0.000000 0.000000
# 3 -0.000960 0.004076 0.010921 0.000000 0.000000 0.000000
# 4 0.000000 0.000000 0.000000 0.038282 0.000000 0.000000
# 5 0.000000 0.000000 0.000000 0.000000 0.025521 0.000000
# 6 0.000000 0.000000 0.000000 0.000000 0.000000 -0.043422
#
#
# Mechanical properties :
#
#
# Convention : Reuss Voigt Hill
#
# Bulk Modulus (GPa) = 24.02934 35.13929 29.58432
# Shear Modulus (GPa) = 57.87745 26.18308 42.03027
#
# Velocity S-wave (km/s) = 4.97630 3.34705 4.24065
# Velocity P-wave (km/s) = 6.58022 5.47465 6.05273
#
# Compressibility (1/GPa) = 0.04161578
#
# Stress axis : x y z
#
# Youngs Moduli (GPa) = 121.13133 36.10202 91.56459
#
# Poissons Ratio (x) = 0.20745 0.08788
# Poissons Ratio (y) = 0.69604 -0.37319
# Poissons Ratio (z) = 0.11626 -0.14714
#
# Static dielectric constant tensor:
#      x y z
#    x 1.732150 0.000000 0.000000 
#    y 0.000000 1.899500 0.000000 
#    z 0.000000 0.000000 1.964380 
# 
# From -- ./inp_files/6381.got.cif
#   From: 2010.05.17/outbox.cif.g08.bks.cpg/sg20_4_cif.got.tgz:6381.got - 2010.06.03 22:52:26.
