data_PCOD9319242
_publ_section_title
;
Structure prediction by ZEFSAII (Michael W. Deem and Ramdas Pophale) SiO2 
 PCOD9319242
Probable space group: C 2 2 21
;
_chemical_formula_sum "Si O2"
_cell_formula_units_Z 40
_cell_length_a 23.258632
_cell_length_b 8.529220
_cell_length_c 9.753502
_cell_angle_alpha 90.000000
_cell_angle_beta 90.000000
_cell_angle_gamma 90.000000
_cell_volume 1934.880115
_symmetry_space_group_name_H-M "C 2 2 21"
_symmetry_group_IT_number 20
_symmetry_cell_setting 'orthorhombic'
loop_
_space_group_symop_operation_xyz
x,y,z
-x,-y,1/2+z
x,-y,-z
-x,y,1/2-z
1/2+x,1/2+y,z
1/2-x,1/2-y,1/2+z
1/2+x,1/2-y,-z
1/2-x,1/2+y,1/2-z
loop_
_atom_site_type_symbol
_atom_site_label
_atom_site_fract_x
_atom_site_fract_y
_atom_site_fract_z
Si Si1 0.374736 0.356907 0.800361
Si Si2 0.886283 0.675903 0.541983
Si Si3 0.277093 0.347599 0.597094
Si Si4 0.644899 0.829490 0.569473
Si Si5 0.433288 0.680010 0.719046
O O1 0.399339 0.222187 0.698719
O O2 0.310187 0.382074 0.739568
O O3 0.372099 0.296660 0.953825
O O4 0.410068 0.513131 0.771539
O O5 0.899235 0.500000 0.500000
O O6 0.818041 0.715216 0.530458
O O7 0.918992 0.793401 0.440133
O O8 0.280282 0.500000 0.500000
O O9 0.211032 0.303829 0.613026
O O10 0.603358 0.808481 0.697554
O O11 0.641203 0.000000 0.500000
O O12 0.500000 0.695545 0.750000
#
# Coordination Sequence:
#
# PCOD9319242 Si02
#       5
#     8   8   8   8   8
#     4  10  22  42  64  95 129 177 218 266 324 395
#     4  10  21  40  68  95 127 173 216 272 332 380
#     4   9  20  40  67  95 136 164 214 265 337 396
#     4  11  25  41  66 104 135 167 218 279 332 385
#     4  12  26  45  67  94 135 182 226 265 323 402
#
# _framework density 20.673116
#
# number of rings (size 3 to 8) (size 9 to 14) (size 15 to 20)
#    1.200    0.400    2.000    2.400    2.800    5.600 
#    0.000    2.000    0.000    0.000    0.000    0.000 
#    0.000    0.000    0.000    0.000    0.000    0.000 
#
# Total GULP energy -111651.704234 kJ/mol
# GULP energy per Si atom -5582.585212 kJ/mol
# Density = 2.062606 g / cm^3
# Si number density = 20.673116 Si / 1000 Ang^3
#
#
#
# Elastic Constant Matrix: (Units=GPa)
#
#
# Indices 1 2 3 4 5 6 
#
# 1 96.1448 -0.7071 9.9976 0.0000 0.0000 0.0000
# 2 -0.7071 51.9238 -21.1345 0.0000 0.0000 0.0000
# 3 9.9976 -21.1345 61.4199 0.0000 0.0000 0.0000
# 4 0.0000 0.0000 0.0000 33.9209 0.0000 0.0000
# 5 0.0000 0.0000 0.0000 0.0000 38.2096 0.0000
# 6 0.0000 0.0000 0.0000 0.0000 0.0000 12.5154
#
#
#
# Elastic Compliance Matrix: (Units=1/GPa)
#
#
# Indices 1 2 3 4 5 6 
#
# 1 0.010599 -0.000649 -0.001948 0.000000 0.000000 0.000000
# 2 -0.000649 0.022435 0.007826 0.000000 0.000000 0.000000
# 3 -0.001948 0.007826 0.019291 0.000000 0.000000 0.000000
# 4 0.000000 0.000000 0.000000 0.029480 0.000000 0.000000
# 5 0.000000 0.000000 0.000000 0.000000 0.026171 0.000000
# 6 0.000000 0.000000 0.000000 0.000000 0.000000 0.079902
#
#
# Mechanical properties :
#
#
# Convention : Reuss Voigt Hill
#
# Bulk Modulus (GPa) = 15.92807 20.64451 18.28629
# Shear Modulus (GPa) = 25.20800 31.68468 28.44634
#
# Velocity S-wave (km/s) = 3.49572 3.91916 3.71348
# Velocity P-wave (km/s) = 4.90050 5.52155 5.22027
#
# Compressibility (1/GPa) = 0.06278224
#
# Stress axis : x y z
#
# Youngs Moduli (GPa) = 94.35016 44.57245 51.83689
#
# Poissons Ratio (x) = 0.02892 0.10100
# Poissons Ratio (y) = 0.06121 -0.40565
# Poissons Ratio (z) = 0.18384 -0.34880
#
# Static dielectric constant tensor:
#      x y z
#    x 1.700270 0.000000 0.000000 
#    y 0.000000 1.733050 0.000000 
#    z 0.000000 0.000000 1.735410 
# 
# From -- ./inp_files/10501.got.cif
#   From: 2010.05.17/outbox.cif.g08.bks.cpg/sg20_6_cif.got.tgz:10501.got - 2010.06.03 22:52:26.
