data_PCOD9319072
_publ_section_title
;
Structure prediction by ZEFSAII (Michael W. Deem and Ramdas Pophale) SiO2 
 PCOD9319072
Probable space group: C 2 2 21
;
_chemical_formula_sum "Si O2"
_cell_formula_units_Z 32
_cell_length_a 34.021228
_cell_length_b 4.864576
_cell_length_c 8.386809
_cell_angle_alpha 90.000000
_cell_angle_beta 90.000000
_cell_angle_gamma 90.000000
_cell_volume 1388.007238
_symmetry_space_group_name_H-M "C 2 2 21"
_symmetry_group_IT_number 20
_symmetry_cell_setting 'orthorhombic'
loop_
_space_group_symop_operation_xyz
x,y,z
-x,-y,1/2+z
x,-y,-z
-x,y,1/2-z
1/2+x,1/2+y,z
1/2-x,1/2-y,1/2+z
1/2+x,1/2-y,-z
1/2-x,1/2+y,1/2-z
loop_
_atom_site_type_symbol
_atom_site_label
_atom_site_fract_x
_atom_site_fract_y
_atom_site_fract_z
Si Si1 0.529226 0.261824 0.390403
Si Si2 0.266817 0.920412 0.824865
Si Si3 0.097518 0.961415 0.814456
Si Si4 0.849390 0.457857 0.685248
O O1 0.510132 0.500000 0.500000
O O2 0.500000 0.169388 0.250000
O O3 0.565267 0.419697 0.305060
O O4 0.539429 0.000000 0.500000
O O5 0.240024 0.101198 0.707497
O O6 0.311703 0.005402 0.792709
O O7 0.254165 0.000000 0.000000
O O8 0.112821 0.653448 0.785525
O O9 0.136024 0.148591 0.795006
O O10 0.085198 0.000000 0.000000
O O11 0.838148 0.500000 0.500000
#
# Coordination Sequence:
#
# PCOD9319072 Si02
#       4
#     8   8   8   8
#     4  12  26  44  68  98 133 173 216 267 319 382
#     4  12  25  42  65  94 130 172 219 271 324 385
#     4  10  22  41  66  94 129 169 212 263 323 384
#     4  10  21  39  64  94 128 168 212 265 325 385
#
# _framework density 23.054635000000001
#
# number of rings (size 3 to 8) (size 9 to 14) (size 15 to 20)
#    0.000    1.000    0.000    6.750    0.000    8.000 
#    0.000    0.000    0.000    0.000    0.000    0.000 
#    0.000    0.000    0.000    0.000    0.000    0.000 
#
# Total GULP energy -89548.183992 kJ/mol
# GULP energy per Si atom -5596.761499 kJ/mol
# Density = 2.300216 g / cm^3
# Si number density = 23.054635 Si / 1000 Ang^3
#
#
#
# Elastic Constant Matrix: (Units=GPa)
#
#
# Indices 1 2 3 4 5 6 
#
# 1 60.4776 -5.9601 22.0744 0.0000 0.0000 0.0000
# 2 -5.9601 86.7016 19.8467 0.0000 0.0000 0.0000
# 3 22.0744 19.8467 84.5170 0.0000 0.0000 0.0000
# 4 0.0000 0.0000 0.0000 40.2007 0.0000 0.0000
# 5 0.0000 0.0000 0.0000 0.0000 20.3371 0.0000
# 6 0.0000 0.0000 0.0000 0.0000 0.0000 11.4807
#
#
#
# Elastic Compliance Matrix: (Units=1/GPa)
#
#
# Indices 1 2 3 4 5 6 
#
# 1 0.018798 0.002553 -0.005509 0.000000 0.000000 0.000000
# 2 0.002553 0.012536 -0.003611 0.000000 0.000000 0.000000
# 3 -0.005509 -0.003611 0.014119 0.000000 0.000000 0.000000
# 4 0.000000 0.000000 0.000000 0.024875 0.000000 0.000000
# 5 0.000000 0.000000 0.000000 0.000000 0.049171 0.000000
# 6 0.000000 0.000000 0.000000 0.000000 0.000000 0.087103
#
#
# Mechanical properties :
#
#
# Convention : Reuss Voigt Hill
#
# Bulk Modulus (GPa) = 30.94147 33.73536 32.33841
# Shear Modulus (GPa) = 21.69131 27.45272 24.57202
#
# Velocity S-wave (km/s) = 3.07068 3.45449 3.26823
# Velocity P-wave (km/s) = 5.10119 5.52955 5.31969
#
# Compressibility (1/GPa) = 0.03231909
#
# Stress axis : x y z
#
# Youngs Moduli (GPa) = 53.19848 79.77129 70.82798
#
# Poissons Ratio (x) = -0.20368 0.39020
# Poissons Ratio (y) = -0.13583 0.25573
# Poissons Ratio (z) = 0.29308 0.28802
#
# Static dielectric constant tensor:
#      x y z
#    x 1.809420 0.000000 0.000000 
#    y 0.000000 1.807110 0.000000 
#    z 0.000000 0.000000 1.862160 
# 
# From -- ./inp_files/11240.got.cif
#   From: 2010.05.17/outbox.cif.g08.bks.cpg/sg20_6_cif.got.tgz:11240.got - 2010.06.03 22:52:26.
