data_PCOD9319299
_publ_section_title
;
Structure prediction by ZEFSAII (Michael W. Deem and Ramdas Pophale) SiO2 
 PCOD9319299
Probable space group: C 2 2 21
;
_chemical_formula_sum "Si O2"
_cell_formula_units_Z 60
_cell_length_a 11.910430
_cell_length_b 31.432963
_cell_length_c 7.675204
_cell_angle_alpha 90.000000
_cell_angle_beta 90.000000
_cell_angle_gamma 90.000000
_cell_volume 2873.443683
_symmetry_space_group_name_H-M "C 2 2 21"
_symmetry_group_IT_number 20
_symmetry_cell_setting 'orthorhombic'
loop_
_space_group_symop_operation_xyz
x,y,z
-x,-y,1/2+z
x,-y,-z
-x,y,1/2-z
1/2+x,1/2+y,z
1/2-x,1/2-y,1/2+z
1/2+x,1/2-y,-z
1/2-x,1/2+y,1/2-z
loop_
_atom_site_type_symbol
_atom_site_label
_atom_site_fract_x
_atom_site_fract_y
_atom_site_fract_z
Si Si1 0.020320 0.698162 0.959810
Si Si2 0.704952 0.840530 0.490486
Si Si3 0.068702 0.870630 0.530449
Si Si4 0.356395 0.410717 0.609568
Si Si5 0.557593 0.706062 0.938906
Si Si6 0.686361 0.873389 0.111119
Si Si7 0.230823 0.000000 0.000000
Si Si8 0.876618 0.530814 0.666856
O O1 0.902128 0.686130 0.051060
O O2 0.000000 0.702042 0.750000
O O3 0.111399 0.660867 0.992815
O O4 0.058823 0.744343 0.020398
O O5 0.745199 0.881967 0.593663
O O6 0.815992 0.811888 0.460447
O O7 0.665529 0.860560 0.309452
O O8 0.104761 0.897862 0.698116
O O9 0.180783 0.869024 0.419045
O O10 0.952283 0.893559 0.475498
O O11 0.024887 0.822569 0.559576
O O12 0.337255 0.459637 0.571861
O O13 0.500000 0.699299 0.750000
O O14 0.651764 0.922220 0.095236
O O15 0.299280 0.017121 0.831276
O O16 0.867582 0.500000 0.500000
O O17 0.000000 0.530639 0.750000
#
# Coordination Sequence:
#
# PCOD9319299 Si02
#       8
#     8   8   8   8   8   8   4   8
#     4  10  25  38  63  97 128 177 223 277 337 412
#     4  10  21  41  64  90 134 172 216 278 345 395
#     4  10  23  44  65  96 135 177 226 272 359 411
#     4  10  23  43  67  98 132 177 218 293 343 412
#     4  11  23  39  65  96 130 177 230 281 337 417
#     4  11  22  45  66  95 138 178 223 277 348 418
#     4  12  24  46  72 106 140 176 248 286 348 430
#     4  12  25  44  74 103 139 188 234 292 357 424
#
# _framework density 20.880870000000002
#
# number of rings (size 3 to 8) (size 9 to 14) (size 15 to 20)
#    0.000    1.333    3.333    2.000    5.600    1.067 
#    6.000    0.667    0.000    0.000    0.000    0.000 
#    0.000    0.000    0.000    0.000    0.000    0.000 
#
# Total GULP energy -167304.548146 kJ/mol
# GULP energy per Si atom -5576.818272 kJ/mol
# Density = 2.083334 g / cm^3
# Si number density = 20.880870 Si / 1000 Ang^3
#
#
#
# Elastic Constant Matrix: (Units=GPa)
#
#
# Indices 1 2 3 4 5 6 
#
# 1 70.6656 64.5797 10.9927 0.0000 0.0000 0.0000
# 2 64.5797 210.3991 31.1247 0.0000 0.0000 0.0000
# 3 10.9927 31.1247 38.7257 0.0000 0.0000 0.0000
# 4 0.0000 0.0000 0.0000 31.4740 0.0000 0.0000
# 5 0.0000 0.0000 0.0000 0.0000 26.2599 0.0000
# 6 0.0000 0.0000 0.0000 0.0000 0.0000 26.5685
#
#
#
# Elastic Compliance Matrix: (Units=1/GPa)
#
#
# Indices 1 2 3 4 5 6 
#
# 1 0.019692 -0.005921 -0.000831 0.000000 0.000000 0.000000
# 2 -0.005921 0.007175 -0.004086 0.000000 0.000000 0.000000
# 3 -0.000831 -0.004086 0.029342 0.000000 0.000000 0.000000
# 4 0.000000 0.000000 0.000000 0.031772 0.000000 0.000000
# 5 0.000000 0.000000 0.000000 0.000000 0.038081 0.000000
# 6 0.000000 0.000000 0.000000 0.000000 0.000000 0.037639
#
#
# Mechanical properties :
#
#
# Convention : Reuss Voigt Hill
#
# Bulk Modulus (GPa) = 28.95743 59.24273 44.10008
# Shear Modulus (GPa) = 25.39533 31.06670 28.23101
#
# Velocity S-wave (km/s) = 3.49119 3.86139 3.68095
# Velocity P-wave (km/s) = 5.49083 6.95082 6.26351
#
# Compressibility (1/GPa) = 0.03453345
#
# Stress axis : x y z
#
# Youngs Moduli (GPa) = 50.78283 139.37771 34.08064
#
# Poissons Ratio (x) = 0.82529 0.02831
# Poissons Ratio (y) = 0.30070 0.13924
# Poissons Ratio (z) = 0.04218 0.56946
#
# Static dielectric constant tensor:
#      x y z
#    x 1.829690 0.000000 0.000000 
#    y 0.000000 1.727000 0.000000 
#    z 0.000000 0.000000 1.802090 
# 
# From -- ./inp_files/7639.got.cif
#   From: 2010.05.17/outbox.cif.g08.bks.cpg/sg20_4_cif.got.tgz:7639.got - 2010.06.03 22:52:26.
