data_PCOD9319726
_publ_section_title
;
Structure prediction by ZEFSAII (Michael W. Deem and Ramdas Pophale) SiO2 
 PCOD9319726
Probable space group: C 2 2 21
;
_chemical_formula_sum "Si O2"
_cell_formula_units_Z 28
_cell_length_a 14.343866
_cell_length_b 11.043436
_cell_length_c 7.370645
_cell_angle_alpha 90.000000
_cell_angle_beta 90.000000
_cell_angle_gamma 90.000000
_cell_volume 1167.551194
_symmetry_space_group_name_H-M "C 2 2 21"
_symmetry_group_IT_number 20
_symmetry_cell_setting 'orthorhombic'
loop_
_space_group_symop_operation_xyz
x,y,z
-x,-y,1/2+z
x,-y,-z
-x,y,1/2-z
1/2+x,1/2+y,z
1/2-x,1/2-y,1/2+z
1/2+x,1/2-y,-z
1/2-x,1/2+y,1/2-z
loop_
_atom_site_type_symbol
_atom_site_label
_atom_site_fract_x
_atom_site_fract_y
_atom_site_fract_z
Si Si1 0.487390 0.800750 0.437590
Si Si2 0.632209 0.000000 0.500000
Si Si3 0.691381 0.815688 0.819148
Si Si4 0.133630 0.866436 0.438356
O O1 0.500000 0.729052 0.250000
O O2 0.389770 0.835493 0.529148
O O3 0.542042 0.714156 0.572854
O O4 0.559568 0.910337 0.401799
O O5 0.681093 0.085472 0.346286
O O6 0.683838 0.677379 0.746266
O O7 0.791088 0.828083 0.910342
O O8 0.109926 0.000000 0.500000
#
# Coordination Sequence:
#
# PCOD9319726 Si02
#       4
#     8   4   8   8
#     4  11  23  43  69 100 141 186 240 297 363 425
#     4  10  22  38  70 102 134 184 234 306 348 422
#     4  11  25  44  70 103 146 185 251 293 365 431
#     4  11  26  43  67 103 138 188 236 297 363 426
#
# _framework density 23.981816999999999
#
# number of rings (size 3 to 8) (size 9 to 14) (size 15 to 20)
#    0.000    1.143    0.000    6.857   14.000    2.286 
#    0.000    0.000    0.000    0.000    0.000    0.000 
#    0.000    0.000    0.000    0.000    0.000    0.000 
#
# Total GULP energy -77995.574619 kJ/mol
# GULP energy per Si atom -5571.112473 kJ/mol
# Density = 2.392723 g / cm^3
# Si number density = 23.981817 Si / 1000 Ang^3
#
#
#
# Elastic Constant Matrix: (Units=GPa)
#
#
# Indices 1 2 3 4 5 6 
#
# 1 93.1154 15.5184 41.1186 0.0000 0.0000 0.0000
# 2 15.5184 83.4918 -4.9243 0.0000 0.0000 0.0000
# 3 41.1186 -4.9243 119.1644 0.0000 0.0000 0.0000
# 4 0.0000 0.0000 0.0000 100.2493 0.0000 0.0000
# 5 0.0000 0.0000 0.0000 0.0000 38.8069 0.0000
# 6 0.0000 0.0000 0.0000 0.0000 0.0000 -17.6535
#
#
#
# Elastic Compliance Matrix: (Units=1/GPa)
#
#
# Indices 1 2 3 4 5 6 
#
# 1 0.013268 -0.002743 -0.004692 0.000000 0.000000 0.000000
# 2 -0.002743 0.012573 0.001466 0.000000 0.000000 0.000000
# 3 -0.004692 0.001466 0.010071 0.000000 0.000000 0.000000
# 4 0.000000 0.000000 0.000000 0.009975 0.000000 0.000000
# 5 0.000000 0.000000 0.000000 0.000000 0.025769 0.000000
# 6 0.000000 0.000000 0.000000 0.000000 0.000000 -0.056646
#
#
# Mechanical properties :
#
#
# Convention : Reuss Voigt Hill
#
# Bulk Modulus (GPa) = 41.70833 44.35522 43.03178
# Shear Modulus (GPa) = 143.10317 40.55114 91.82716
#
# Velocity S-wave (km/s) = 7.73312 4.11653 6.19463
# Velocity P-wave (km/s) = 9.85719 6.41326 8.31547
#
# Compressibility (1/GPa) = 0.02397602
#
# Stress axis : x y z
#
# Youngs Moduli (GPa) = 75.36792 79.53243 99.29270
#
# Poissons Ratio (x) = 0.21814 0.46585
# Poissons Ratio (y) = 0.20672 -0.14556
# Poissons Ratio (z) = 0.35360 -0.11660
#
# Static dielectric constant tensor:
#      x y z
#    x 1.610400 0.000000 0.000000 
#    y 0.000000 2.085870 0.000000 
#    z 0.000000 0.000000 2.432070 
# 
# From -- ./inp_files/7779.got.cif
#   From: 2010.05.17/outbox.cif.g08.bks.cpg/sg20_4_cif.got.tgz:7779.got - 2010.06.03 22:52:26.
