data_PCOD9319037
_publ_section_title
;
Structure prediction by ZEFSAII (Michael W. Deem and Ramdas Pophale) SiO2 
 PCOD9319037
Probable space group: C 2 2 21
;
_chemical_formula_sum "Si O2"
_cell_formula_units_Z 40
_cell_length_a 8.778938
_cell_length_b 8.333419
_cell_length_c 23.688842
_cell_angle_alpha 90.000000
_cell_angle_beta 90.000000
_cell_angle_gamma 90.000000
_cell_volume 1733.041776
_symmetry_space_group_name_H-M "C 2 2 21"
_symmetry_group_IT_number 20
_symmetry_cell_setting 'orthorhombic'
loop_
_space_group_symop_operation_xyz
x,y,z
-x,-y,1/2+z
x,-y,-z
-x,y,1/2-z
1/2+x,1/2+y,z
1/2-x,1/2-y,1/2+z
1/2+x,1/2-y,-z
1/2-x,1/2+y,1/2-z
loop_
_atom_site_type_symbol
_atom_site_label
_atom_site_fract_x
_atom_site_fract_y
_atom_site_fract_z
Si Si1 0.827932 0.823843 0.434971
Si Si2 0.681755 0.662974 0.534558
Si Si3 0.822448 0.847729 0.764392
Si Si4 0.172994 0.507532 0.865205
Si Si5 0.179569 0.523080 0.667298
O O1 0.731026 0.804158 0.492305
O O2 0.811882 0.657731 0.400365
O O3 0.768973 0.958018 0.391597
O O4 0.003980 0.838170 0.451086
O O5 0.714534 0.500000 0.500000
O O6 0.775389 0.647645 0.592522
O O7 0.786703 0.679837 0.794584
O O8 0.000000 0.854735 0.750000
O O9 0.777524 0.981626 0.810642
O O10 0.729452 0.877527 0.707076
O O11 0.999194 0.523939 0.846016
#
# Coordination Sequence:
#
# PCOD9319037 Si02
#       5
#     8   8   8   8   8
#     4  10  22  38  62  90 122 161 202 251 306 362
#     4  10  21  39  61  90 123 157 201 248 300 367
#     4  11  23  39  60  87 119 159 205 254 308 366
#     4  10  22  39  59  87 121 158 203 252 304 366
#     4  11  24  41  62  90 123 163 206 255 309 363
#
# _framework density 23.080805999999999
#
# number of rings (size 3 to 8) (size 9 to 14) (size 15 to 20)
#    0.000    1.600    0.000    4.200    0.000    8.000 
#    0.000    0.000    0.000    0.000    0.000    0.000 
#    0.000    0.000    0.000    0.000    0.000    0.000 
#
# Total GULP energy -111956.063828 kJ/mol
# GULP energy per Si atom -5597.803191 kJ/mol
# Density = 2.302827 g / cm^3
# Si number density = 23.080806 Si / 1000 Ang^3
#
#
#
# Elastic Constant Matrix: (Units=GPa)
#
#
# Indices 1 2 3 4 5 6 
#
# 1 81.9187 -14.2923 25.2510 0.0000 0.0000 0.0000
# 2 -14.2923 60.1910 32.0574 0.0000 0.0000 0.0000
# 3 25.2510 32.0574 135.4579 0.0000 0.0000 0.0000
# 4 0.0000 0.0000 0.0000 39.6798 0.0000 0.0000
# 5 0.0000 0.0000 0.0000 0.0000 61.9592 0.0000
# 6 0.0000 0.0000 0.0000 0.0000 0.0000 25.8191
#
#
#
# Elastic Compliance Matrix: (Units=1/GPa)
#
#
# Indices 1 2 3 4 5 6 
#
# 1 0.014409 0.005552 -0.004000 0.000000 0.000000 0.000000
# 2 0.005552 0.021149 -0.006040 0.000000 0.000000 0.000000
# 3 -0.004000 -0.006040 0.009557 0.000000 0.000000 0.000000
# 4 0.000000 0.000000 0.000000 0.025202 0.000000 0.000000
# 5 0.000000 0.000000 0.000000 0.000000 0.016140 0.000000
# 6 0.000000 0.000000 0.000000 0.000000 0.000000 0.038731
#
#
# Mechanical properties :
#
#
# Convention : Reuss Voigt Hill
#
# Bulk Modulus (GPa) = 27.67118 40.39996 34.03557
# Shear Modulus (GPa) = 34.19743 41.12841 37.66292
#
# Velocity S-wave (km/s) = 3.85338 4.22587 4.04392
# Velocity P-wave (km/s) = 5.64030 6.43058 6.04836
#
# Compressibility (1/GPa) = 0.03613869
#
# Stress axis : x y z
#
# Youngs Moduli (GPa) = 69.40238 47.28387 104.63099
#
# Poissons Ratio (x) = -0.26250 0.41850
# Poissons Ratio (y) = -0.38530 0.63197
# Poissons Ratio (z) = 0.27760 0.28559
#
# Static dielectric constant tensor:
#      x y z
#    x 1.770710 0.000000 0.000000 
#    y 0.000000 1.908180 0.000000 
#    z 0.000000 0.000000 1.876140 
# 
# From -- ./inp_files/23180.got.cif
#   From: 2010.05.17/outbox.cif.g08.bks.cpg/sg20_12_cif.got.tgz:23180.got - 2010.06.03 22:52:26.
