data_PCOD9319610
_publ_section_title
;
Structure prediction by ZEFSAII (Michael W. Deem and Ramdas Pophale) SiO2 
 PCOD9319610
Probable space group: C 2 2 21
;
_chemical_formula_sum "Si O2"
_cell_formula_units_Z 60
_cell_length_a 5.457841
_cell_length_b 15.117878
_cell_length_c 31.671958
_cell_angle_alpha 90.000000
_cell_angle_beta 90.000000
_cell_angle_gamma 90.000000
_cell_volume 2613.284115
_symmetry_space_group_name_H-M "C 2 2 21"
_symmetry_group_IT_number 20
_symmetry_cell_setting 'orthorhombic'
loop_
_space_group_symop_operation_xyz
x,y,z
-x,-y,1/2+z
x,-y,-z
-x,y,1/2-z
1/2+x,1/2+y,z
1/2-x,1/2-y,1/2+z
1/2+x,1/2-y,-z
1/2-x,1/2+y,1/2-z
loop_
_atom_site_type_symbol
_atom_site_label
_atom_site_fract_x
_atom_site_fract_y
_atom_site_fract_z
Si Si1 0.039609 0.449198 0.701125
Si Si2 0.677905 0.339658 0.509535
Si Si3 0.500385 0.244284 0.428479
Si Si4 0.044955 0.665727 0.702001
Si Si5 0.449207 0.000000 0.000000
Si Si6 0.955564 0.165990 0.840683
Si Si7 0.042304 0.953962 0.655875
Si Si8 0.809591 0.924139 0.567856
O O1 0.045515 0.557539 0.700346
O O2 0.802281 0.420552 0.673731
O O3 0.000000 0.423248 0.750000
O O4 0.301303 0.421032 0.681450
O O5 0.652785 0.289265 0.466045
O O6 0.746030 0.275430 0.548197
O O7 0.884207 0.413623 0.505326
O O8 0.436870 0.388122 0.525361
O O9 0.493242 0.304448 0.388029
O O10 0.621123 0.150334 0.416862
O O11 0.812234 0.696667 0.674591
O O12 0.000000 0.692018 0.750000
O O13 0.311121 0.696421 0.686613
O O14 0.320532 0.992051 0.046349
O O15 0.951739 0.059787 0.837919
O O16 0.994681 0.939519 0.606085
#
# Coordination Sequence:
#
# PCOD9319610 Si02
#       8
#     8   8   8   8   4   8   8   8
#     4   9  18  36  61  94 128 162 203 266 325 382
#     4  11  24  44  63  90 124 176 215 271 324 389
#     4  11  25  41  63  89 128 171 219 258 325 391
#     4   9  18  36  60  93 129 160 205 263 326 376
#     4  10  26  40  68  90 124 166 218 276 326 378
#     4  10  22  35  63  97 124 165 211 269 315 383
#     4  10  22  36  63  96 128 161 215 266 321 381
#     4  11  25  43  60  93 126 174 208 272 325 386
#
# _framework density 22.959613999999998
#
# number of rings (size 3 to 8) (size 9 to 14) (size 15 to 20)
#    0.000    1.867    1.333    1.200    9.333    5.333 
#    0.000    0.000    0.000    3.200    0.000    0.000 
#    0.000    0.000    0.000    0.000    0.000    0.000 
#
# Total GULP energy -167623.386913 kJ/mol
# GULP energy per Si atom -5587.446230 kJ/mol
# Density = 2.290736 g / cm^3
# Si number density = 22.959614 Si / 1000 Ang^3
#
#
#
# Elastic Constant Matrix: (Units=GPa)
#
#
# Indices 1 2 3 4 5 6 
#
# 1 72.5785 3.2225 7.6694 0.0000 0.0000 0.0000
# 2 3.2225 21.7340 -4.7398 0.0000 0.0000 0.0000
# 3 7.6694 -4.7398 60.2932 0.0000 0.0000 0.0000
# 4 0.0000 0.0000 0.0000 18.1070 0.0000 0.0000
# 5 0.0000 0.0000 0.0000 0.0000 46.7523 0.0000
# 6 0.0000 0.0000 0.0000 0.0000 0.0000 6.4970
#
#
#
# Elastic Compliance Matrix: (Units=1/GPa)
#
#
# Indices 1 2 3 4 5 6 
#
# 1 0.014101 -0.002525 -0.001992 0.000000 0.000000 0.000000
# 2 -0.002525 0.047266 0.004037 0.000000 0.000000 0.000000
# 3 -0.001992 0.004037 0.017156 0.000000 0.000000 0.000000
# 4 0.000000 0.000000 0.000000 0.055227 0.000000 0.000000
# 5 0.000000 0.000000 0.000000 0.000000 0.021389 0.000000
# 6 0.000000 0.000000 0.000000 0.000000 0.000000 0.153918
#
#
# Mechanical properties :
#
#
# Convention : Reuss Voigt Hill
#
# Bulk Modulus (GPa) = 12.89291 18.54552 15.71921
# Shear Modulus (GPa) = 14.88662 24.16817 19.52739
#
# Velocity S-wave (km/s) = 2.54910 3.24796 2.91952
# Velocity P-wave (km/s) = 3.78041 4.70751 4.26920
#
# Compressibility (1/GPa) = 0.07756202
#
# Stress axis : x y z
#
# Youngs Moduli (GPa) = 70.91788 21.15701 58.28737
#
# Poissons Ratio (x) = 0.05343 0.11612
# Poissons Ratio (y) = 0.17908 -0.23530
# Poissons Ratio (z) = 0.14128 -0.08541
#
# Static dielectric constant tensor:
#      x y z
#    x 1.943120 0.000000 0.000000 
#    y 0.000000 1.922090 0.000000 
#    z 0.000000 0.000000 1.796970 
# 
# From -- ./inp_files/29923.got.cif
#   From: 2010.05.17/outbox.cif.g08.bks.cpg/sg20_15_cif.got.tgz:29923.got - 2010.06.03 22:52:26.
