data_PCOD9319968
_publ_section_title
;
Structure prediction by ZEFSAII (Michael W. Deem and Ramdas Pophale) SiO2 
 PCOD9319968
Probable space group: C 2 2 21
;
_chemical_formula_sum "Si O2"
_cell_formula_units_Z 60
_cell_length_a 8.195123
_cell_length_b 14.192775
_cell_length_c 24.256009
_cell_angle_alpha 90.000000
_cell_angle_beta 90.000000
_cell_angle_gamma 90.000000
_cell_volume 2821.253684
_symmetry_space_group_name_H-M "C 2 2 21"
_symmetry_group_IT_number 20
_symmetry_cell_setting 'orthorhombic'
loop_
_space_group_symop_operation_xyz
x,y,z
-x,-y,1/2+z
x,-y,-z
-x,y,1/2-z
1/2+x,1/2+y,z
1/2-x,1/2-y,1/2+z
1/2+x,1/2-y,-z
1/2-x,1/2+y,1/2-z
loop_
_atom_site_type_symbol
_atom_site_label
_atom_site_fract_x
_atom_site_fract_y
_atom_site_fract_z
Si Si1 0.941259 0.512880 0.414158
Si Si2 0.062167 0.004075 0.610181
Si Si3 0.383235 0.810667 0.095221
Si Si4 0.503621 0.707574 0.624064
Si Si5 0.392663 0.829293 0.977555
Si Si6 0.940152 0.834496 0.812877
Si Si7 0.145243 0.000000 0.000000
Si Si8 0.445368 0.126059 0.307760
O O1 0.747942 0.507697 0.408975
O O2 0.998471 0.560672 0.357551
O O3 0.040504 0.415034 0.413862
O O4 0.974567 0.590473 0.461453
O O5 0.059480 0.104477 0.639177
O O6 0.956558 0.012855 0.555261
O O7 0.997000 0.923108 0.650916
O O8 0.188467 0.800870 0.106445
O O9 0.462445 0.755580 0.146710
O O10 0.416314 0.770363 0.033802
O O11 0.601638 0.756576 0.573460
O O12 0.521614 0.773698 0.676945
O O13 0.243176 0.901882 0.988557
O O14 0.747725 0.857656 0.808699
O O15 0.000000 0.824591 0.750000
O O16 0.500000 0.087499 0.250000
#
# Coordination Sequence:
#
# PCOD9319968 Si02
#       8
#     8   8   8   8   8   8   4   8
#     4  10  22  41  66  96 134 170 217 267 329 390
#     4  11  25  42  63  99 130 171 217 266 321 389
#     4  11  22  42  64  92 128 173 213 264 325 389
#     4  10  23  41  64  95 128 165 218 262 323 385
#     4  11  22  42  63  95 132 176 207 265 322 389
#     4  10  25  44  64  92 129 167 218 273 321 379
#     4  12  24  40  66  98 134 174 212 260 326 386
#     4   9  21  42  66  89 123 169 216 268 325 384
#
# _framework density 21.267140999999999
#
# number of rings (size 3 to 8) (size 9 to 14) (size 15 to 20)
#    0.000    1.600    2.667    0.800    3.733    7.467 
#    0.000    5.333    0.000    0.000    0.000    0.000 
#    0.000    0.000    0.000    0.000    0.000    0.000 
#
# Total GULP energy -167293.653997 kJ/mol
# GULP energy per Si atom -5576.455133 kJ/mol
# Density = 2.121874 g / cm^3
# Si number density = 21.267141 Si / 1000 Ang^3
#
#
#
# Elastic Constant Matrix: (Units=GPa)
#
#
# Indices 1 2 3 4 5 6 
#
# 1 33.3737 12.8467 19.6748 0.0000 0.0000 0.0000
# 2 12.8467 68.7903 14.6783 0.0000 0.0000 0.0000
# 3 19.6748 14.6783 84.0373 0.0000 0.0000 0.0000
# 4 0.0000 0.0000 0.0000 18.0750 0.0000 0.0000
# 5 0.0000 0.0000 0.0000 0.0000 31.7614 0.0000
# 6 0.0000 0.0000 0.0000 0.0000 0.0000 21.4066
#
#
#
# Elastic Compliance Matrix: (Units=1/GPa)
#
#
# Indices 1 2 3 4 5 6 
#
# 1 0.036456 -0.005180 -0.007630 0.000000 0.000000 0.000000
# 2 -0.005180 0.015836 -0.001553 0.000000 0.000000 0.000000
# 3 -0.007630 -0.001553 0.013957 0.000000 0.000000 0.000000
# 4 0.000000 0.000000 0.000000 0.055325 0.000000 0.000000
# 5 0.000000 0.000000 0.000000 0.000000 0.031485 0.000000
# 6 0.000000 0.000000 0.000000 0.000000 0.000000 0.046714
#
#
# Mechanical properties :
#
#
# Convention : Reuss Voigt Hill
#
# Bulk Modulus (GPa) = 26.65117 31.17788 28.91452
# Shear Modulus (GPa) = 20.74624 23.51538 22.13081
#
# Velocity S-wave (km/s) = 3.12670 3.32884 3.22935
# Velocity P-wave (km/s) = 5.05903 5.42833 5.24693
#
# Compressibility (1/GPa) = 0.03752181
#
# Stress axis : x y z
#
# Youngs Moduli (GPa) = 27.43027 63.14833 71.64773
#
# Poissons Ratio (x) = 0.32711 0.54669
# Poissons Ratio (y) = 0.14209 0.11128
# Poissons Ratio (z) = 0.20930 0.09808
#
# Static dielectric constant tensor:
#      x y z
#    x 1.805550 0.000000 0.000000 
#    y 0.000000 1.805870 0.000000 
#    z 0.000000 0.000000 1.783630 
# 
# From -- ./inp_files/29299.got.cif
#   From: 2010.05.17/outbox.cif.g08.bks.cpg/sg20_15_cif.got.tgz:29299.got - 2010.06.03 22:52:26.
