data_PCOD9319458
_publ_section_title
;
Structure prediction by ZEFSAII (Michael W. Deem and Ramdas Pophale) SiO2 
 PCOD9319458
Probable space group: C 2 2 21
;
_chemical_formula_sum "Si O2"
_cell_formula_units_Z 48
_cell_length_a 7.961450
_cell_length_b 17.357360
_cell_length_c 14.670506
_cell_angle_alpha 90.000000
_cell_angle_beta 90.000000
_cell_angle_gamma 90.000000
_cell_volume 2027.313612
_symmetry_space_group_name_H-M "C 2 2 21"
_symmetry_group_IT_number 20
_symmetry_cell_setting 'orthorhombic'
loop_
_space_group_symop_operation_xyz
x,y,z
-x,-y,1/2+z
x,-y,-z
-x,y,1/2-z
1/2+x,1/2+y,z
1/2-x,1/2-y,1/2+z
1/2+x,1/2-y,-z
1/2-x,1/2+y,1/2-z
loop_
_atom_site_type_symbol
_atom_site_label
_atom_site_fract_x
_atom_site_fract_y
_atom_site_fract_z
Si Si1 0.201258 0.854389 0.009936
Si Si2 0.500000 0.997425 0.250000
Si Si3 0.776682 0.253597 0.171285
Si Si4 0.666035 0.424921 0.686510
Si Si5 0.667523 0.780045 0.130284
Si Si6 0.458456 0.500000 0.000000
Si Si7 0.051281 0.423872 0.056691
O O1 0.171519 0.799354 0.096972
O O2 0.388773 0.887922 0.009377
O O3 0.191477 0.798230 0.924201
O O4 0.075150 0.925053 0.013314
O O5 0.673789 0.043712 0.241998
O O6 0.497748 0.948333 0.158111
O O7 0.781514 0.161798 0.159136
O O8 0.734852 0.276779 0.274703
O O9 0.969205 0.279222 0.153727
O O10 0.500000 0.421574 0.750000
O O11 0.627810 0.477831 0.597943
O O12 0.690518 0.857018 0.069935
O O13 0.093386 0.500000 0.000000
#
# Coordination Sequence:
#
# PCOD9319458 Si02
#       7
#     8   4   8   8   8   4   8
#     4  11  22  42  75 108 151 197 258 316 385 459
#     4  12  30  48  78 118 154 204 258 336 398 470
#     4  10  21  42  73 103 148 206 248 313 385 460
#     4  12  26  50  81 113 159 208 265 324 398 474
#     4  10  21  43  70 102 143 207 253 302 386 460
#     4  12  24  46  78 116 144 212 266 326 394 472
#     4  11  25  44  72 108 151 196 247 318 389 458
#
# _framework density 23.676652000000001
#
# number of rings (size 3 to 8) (size 9 to 14) (size 15 to 20)
#    0.000    1.000    4.167    3.000    5.833    0.000 
#    0.000    0.000   12.833    0.000    0.000    0.000 
#    0.000    0.000    0.000    0.000    0.000    0.000 
#
# Total GULP energy -134335.646021 kJ/mol
# GULP energy per Si atom -5597.318584 kJ/mol
# Density = 2.362276 g / cm^3
# Si number density = 23.676652 Si / 1000 Ang^3
#
#
#
# Elastic Constant Matrix: (Units=GPa)
#
#
# Indices 1 2 3 4 5 6 
#
# 1 77.7904 38.9396 35.5630 0.0000 0.0000 0.0000
# 2 38.9396 154.5364 57.7990 0.0000 0.0000 0.0000
# 3 35.5630 57.7990 139.5312 0.0000 0.0000 0.0000
# 4 0.0000 0.0000 0.0000 51.4029 0.0000 0.0000
# 5 0.0000 0.0000 0.0000 0.0000 31.2941 0.0000
# 6 0.0000 0.0000 0.0000 0.0000 0.0000 -20.6369
#
#
#
# Elastic Compliance Matrix: (Units=1/GPa)
#
#
# Indices 1 2 3 4 5 6 
#
# 1 0.015567 -0.002886 -0.002772 0.000000 0.000000 0.000000
# 2 -0.002886 0.008192 -0.002658 0.000000 0.000000 0.000000
# 3 -0.002772 -0.002658 0.008975 0.000000 0.000000 0.000000
# 4 0.000000 0.000000 0.000000 0.019454 0.000000 0.000000
# 5 0.000000 0.000000 0.000000 0.000000 0.031955 0.000000
# 6 0.000000 0.000000 0.000000 0.000000 0.000000 -0.048457
#
#
# Mechanical properties :
#
#
# Convention : Reuss Voigt Hill
#
# Bulk Modulus (GPa) = 62.10516 70.71791 66.41154
# Shear Modulus (GPa) = 86.67795 28.38246 57.53021
#
# Velocity S-wave (km/s) = 6.05710 3.46606 4.93468
# Velocity P-wave (km/s) = 8.67211 6.77873 7.78321
#
# Compressibility (1/GPa) = 0.01610172
#
# Stress axis : x y z
#
# Youngs Moduli (GPa) = 64.23890 122.06695 111.42674
#
# Poissons Ratio (x) = 0.35224 0.30891
# Poissons Ratio (y) = 0.18537 0.29618
# Poissons Ratio (z) = 0.17809 0.32446
#
# Static dielectric constant tensor:
#      x y z
#    x 1.930380 0.000000 0.000000 
#    y 0.000000 1.919480 0.000000 
#    z 0.000000 0.000000 1.918870 
# 
# From -- ./inp_files/18929.got.cif
#   From: 2010.05.17/outbox.cif.g08.bks.cpg/sg20_10_cif.got.tgz:18929.got - 2010.06.03 22:52:26.
