data_PCOD9319409
_publ_section_title
;
Structure prediction by ZEFSAII (Michael W. Deem and Ramdas Pophale) SiO2 
 PCOD9319409
Probable space group: C 2 2 21
;
_chemical_formula_sum "Si O2"
_cell_formula_units_Z 40
_cell_length_a 22.163009
_cell_length_b 10.200654
_cell_length_c 7.809438
_cell_angle_alpha 90.000000
_cell_angle_beta 90.000000
_cell_angle_gamma 90.000000
_cell_volume 1765.535770
_symmetry_space_group_name_H-M "C 2 2 21"
_symmetry_group_IT_number 20
_symmetry_cell_setting 'orthorhombic'
loop_
_space_group_symop_operation_xyz
x,y,z
-x,-y,1/2+z
x,-y,-z
-x,y,1/2-z
1/2+x,1/2+y,z
1/2-x,1/2-y,1/2+z
1/2+x,1/2-y,-z
1/2-x,1/2+y,1/2-z
loop_
_atom_site_type_symbol
_atom_site_label
_atom_site_fract_x
_atom_site_fract_y
_atom_site_fract_z
Si Si1 0.503351 0.500000 0.000000
Si Si2 0.417947 0.281183 0.061883
Si Si3 0.171272 0.406185 0.164724
Si Si4 0.111787 0.140698 0.173775
Si Si5 0.809543 0.078716 0.818137
Si Si6 0.096495 0.500000 0.500000
O O1 0.460319 0.596452 0.889217
O O2 0.549444 0.600037 0.088404
O O3 0.404684 0.317466 0.865996
O O4 0.354617 0.298819 0.159858
O O5 0.439164 0.131070 0.059506
O O6 0.143747 0.268654 0.101595
O O7 0.240971 0.386377 0.219635
O O8 0.135997 0.458497 0.333308
O O9 0.168537 0.500000 0.000000
O O10 0.158258 0.020554 0.188227
O O11 0.808934 0.000000 0.000000
#
# Coordination Sequence:
#
# PCOD9319409 Si02
#       6
#     4   8   8   8   8   4
#     4  12  22  41  70  92 135 178 240 282 330 412
#     4  10  21  42  66  94 137 185 226 288 343 404
#     4  10  23  44  66 103 148 172 227 297 344 420
#     4  10  22  40  64  99 132 181 232 284 341 410
#     4   9  19  39  64  94 134 180 220 281 345 401
#     4  10  24  43  70  98 139 190 224 280 374 396
#
# _framework density 22.656012
#
# number of rings (size 3 to 8) (size 9 to 14) (size 15 to 20)
#    0.000    2.000    3.000    0.600    2.800    2.400 
#    9.000    0.000    4.400    0.000    0.000    0.000 
#    0.000    0.000    0.000    0.000    0.000    0.000 
#
# Total GULP energy -111657.374278 kJ/mol
# GULP energy per Si atom -5582.868714 kJ/mol
# Density = 2.260445 g / cm^3
# Si number density = 22.656012 Si / 1000 Ang^3
#
#
#
# Elastic Constant Matrix: (Units=GPa)
#
#
# Indices 1 2 3 4 5 6 
#
# 1 92.6348 40.5838 5.1098 0.0000 0.0000 0.0000
# 2 40.5838 148.1830 -2.7104 0.0000 0.0000 0.0000
# 3 5.1098 -2.7104 59.8871 0.0000 0.0000 0.0000
# 4 0.0000 0.0000 0.0000 24.0945 0.0000 0.0000
# 5 0.0000 0.0000 0.0000 0.0000 22.9942 0.0000
# 6 0.0000 0.0000 0.0000 0.0000 0.0000 -12.8642
#
#
#
# Elastic Compliance Matrix: (Units=1/GPa)
#
#
# Indices 1 2 3 4 5 6 
#
# 1 0.012354 -0.003405 -0.001208 0.000000 0.000000 0.000000
# 2 -0.003405 0.007693 0.000639 0.000000 0.000000 0.000000
# 3 -0.001208 0.000639 0.016830 0.000000 0.000000 0.000000
# 4 0.000000 0.000000 0.000000 0.041503 0.000000 0.000000
# 5 0.000000 0.000000 0.000000 0.000000 0.043489 0.000000
# 6 0.000000 0.000000 0.000000 0.000000 0.000000 -0.077735
#
#
# Mechanical properties :
#
#
# Convention : Reuss Voigt Hill
#
# Bulk Modulus (GPa) = 34.57018 42.96349 38.76684
# Shear Modulus (GPa) = 81.00361 24.02637 52.51499
#
# Velocity S-wave (km/s) = 5.98593 3.26004 4.81971
# Velocity P-wave (km/s) = 7.94147 5.75978 6.93693
#
# Compressibility (1/GPa) = 0.02892666
#
# Stress axis : x y z
#
# Youngs Moduli (GPa) = 80.94755 129.99211 59.41736
#
# Poissons Ratio (x) = 0.44269 0.07179
# Poissons Ratio (y) = 0.27567 -0.03795
# Poissons Ratio (z) = 0.09780 -0.08303
#
# Static dielectric constant tensor:
#      x y z
#    x 1.840840 0.000000 0.000000 
#    y 0.000000 1.905980 0.000000 
#    z 0.000000 0.000000 11.993300 
# 
# From -- ./inp_files/11008.got.cif
#   From: 2010.05.17/outbox.cif.g08.bks.cpg/sg20_6_cif.got.tgz:11008.got - 2010.06.03 22:52:26.
