data_PCOD9319224
_publ_section_title
;
Structure prediction by ZEFSAII (Michael W. Deem and Ramdas Pophale) SiO2 
 PCOD9319224
Probable space group: C 2 2 21
;
_chemical_formula_sum "Si O2"
_cell_formula_units_Z 48
_cell_length_a 9.327299
_cell_length_b 17.366696
_cell_length_c 14.584416
_cell_angle_alpha 90.000000
_cell_angle_beta 90.000000
_cell_angle_gamma 90.000000
_cell_volume 2362.447383
_symmetry_space_group_name_H-M "C 2 2 21"
_symmetry_group_IT_number 20
_symmetry_cell_setting 'orthorhombic'
loop_
_space_group_symop_operation_xyz
x,y,z
-x,-y,1/2+z
x,-y,-z
-x,y,1/2-z
1/2+x,1/2+y,z
1/2-x,1/2-y,1/2+z
1/2+x,1/2-y,-z
1/2-x,1/2+y,1/2-z
loop_
_atom_site_type_symbol
_atom_site_label
_atom_site_fract_x
_atom_site_fract_y
_atom_site_fract_z
Si Si1 0.259194 0.064026 0.921460
Si Si2 0.949020 0.579217 0.648282
Si Si3 0.885422 0.602024 0.326575
Si Si4 0.055318 0.165791 0.028478
Si Si5 0.861010 0.058846 0.298849
Si Si6 0.717351 0.175566 0.986632
O O1 0.414000 0.101576 0.914153
O O2 0.232175 0.013295 0.831839
O O3 0.130436 0.120759 0.944153
O O4 0.265140 0.000000 0.000000
O O5 0.925904 0.486826 0.649522
O O6 0.814649 0.618666 0.598894
O O7 0.000000 0.603341 0.750000
O O8 0.734870 0.604381 0.273279
O O9 0.864972 0.646235 0.421669
O O10 0.000000 0.629432 0.250000
O O11 0.087338 0.111798 0.116804
O O12 0.145907 0.243507 0.039593
O O13 0.886849 0.178415 0.010129
O O14 0.000000 0.027362 0.250000
#
# Coordination Sequence:
#
# PCOD9319224 Si02
#       6
#     8   8   8   8   8   8
#     4  10  21  40  66  93 128 167 209 265 325 380
#     4  11  23  41  68 100 128 170 216 269 321 388
#     4  11  23  42  71 101 126 174 218 273 330 387
#     4  11  27  43  65  93 133 183 211 272 331 391
#     4  11  22  42  69  98 130 162 225 275 325 385
#     4  12  26  45  64  95 137 175 223 266 330 395
#
# _framework density 20.317912
#
# number of rings (size 3 to 8) (size 9 to 14) (size 15 to 20)
#    0.000    1.000    5.000    2.500    7.000    2.000 
#    3.000    0.833    0.000    0.000    0.000    0.000 
#    0.000    0.000    0.000    0.000    0.000    0.000 
#
# Total GULP energy -133966.348153 kJ/mol
# GULP energy per Si atom -5581.931173 kJ/mol
# Density = 2.027167 g / cm^3
# Si number density = 20.317912 Si / 1000 Ang^3
#
#
#
# Elastic Constant Matrix: (Units=GPa)
#
#
# Indices 1 2 3 4 5 6 
#
# 1 123.9441 15.3953 18.6268 0.0000 0.0000 0.0000
# 2 15.3953 47.4416 11.0180 0.0000 0.0000 0.0000
# 3 18.6268 11.0180 43.9898 0.0000 0.0000 0.0000
# 4 0.0000 0.0000 0.0000 6.0820 0.0000 0.0000
# 5 0.0000 0.0000 0.0000 0.0000 40.1735 0.0000
# 6 0.0000 0.0000 0.0000 0.0000 0.0000 28.3690
#
#
#
# Elastic Compliance Matrix: (Units=1/GPa)
#
#
# Indices 1 2 3 4 5 6 
#
# 1 0.008812 -0.002116 -0.003201 0.000000 0.000000 0.000000
# 2 -0.002116 0.022889 -0.004837 0.000000 0.000000 0.000000
# 3 -0.003201 -0.004837 0.025300 0.000000 0.000000 0.000000
# 4 0.000000 0.000000 0.000000 0.164421 0.000000 0.000000
# 5 0.000000 0.000000 0.000000 0.000000 0.024892 0.000000
# 6 0.000000 0.000000 0.000000 0.000000 0.000000 0.035250
#
#
# Mechanical properties :
#
#
# Convention : Reuss Voigt Hill
#
# Bulk Modulus (GPa) = 27.25408 33.93951 30.59680
# Shear Modulus (GPa) = 15.91842 26.28059 21.09950
#
# Velocity S-wave (km/s) = 2.80208 3.60038 3.22602
# Velocity P-wave (km/s) = 4.88997 5.83303 5.38219
#
# Compressibility (1/GPa) = 0.03669175
#
# Stress axis : x y z
#
# Youngs Moduli (GPa) = 113.48022 43.68995 39.52642
#
# Poissons Ratio (x) = 0.09245 0.12654
# Poissons Ratio (y) = 0.24014 0.19118
# Poissons Ratio (z) = 0.36329 0.21132
#
# Static dielectric constant tensor:
#      x y z
#    x 1.763760 0.000000 0.000000 
#    y 0.000000 1.706750 0.000000 
#    z 0.000000 0.000000 1.760030 
# 
# From -- ./inp_files/18840.got.cif
#   From: 2010.05.17/outbox.cif.g08.bks.cpg/sg20_10_cif.got.tgz:18840.got - 2010.06.03 22:52:26.
