data_PCOD9319759
_publ_section_title
;
Structure prediction by ZEFSAII (Michael W. Deem and Ramdas Pophale) SiO2 
 PCOD9319759
Probable space group: C 2 2 21
;
_chemical_formula_sum "Si O2"
_cell_formula_units_Z 40
_cell_length_a 8.668372
_cell_length_b 12.484820
_cell_length_c 18.493519
_cell_angle_alpha 90.000000
_cell_angle_beta 90.000000
_cell_angle_gamma 90.000000
_cell_volume 2001.425292
_symmetry_space_group_name_H-M "C 2 2 21"
_symmetry_group_IT_number 20
_symmetry_cell_setting 'orthorhombic'
loop_
_space_group_symop_operation_xyz
x,y,z
-x,-y,1/2+z
x,-y,-z
-x,y,1/2-z
1/2+x,1/2+y,z
1/2-x,1/2-y,1/2+z
1/2+x,1/2-y,-z
1/2-x,1/2+y,1/2-z
loop_
_atom_site_type_symbol
_atom_site_label
_atom_site_fract_x
_atom_site_fract_y
_atom_site_fract_z
Si Si1 0.858908 0.126516 0.656212
Si Si2 0.211109 0.180540 0.683838
Si Si3 0.334996 0.890428 0.456984
Si Si4 0.072397 0.882502 0.830123
Si Si5 0.871257 0.752698 0.943524
O O1 0.774295 0.145146 0.733113
O O2 0.763767 0.185856 0.594799
O O3 0.030345 0.174780 0.665083
O O4 0.875785 0.999615 0.644410
O O5 0.299239 0.101946 0.628296
O O6 0.288808 0.296582 0.673634
O O7 0.199599 0.818135 0.490605
O O8 0.494501 0.827842 0.466670
O O9 0.337837 0.000000 0.500000
O O10 0.000000 0.893783 0.750000
O O11 0.947364 0.833045 0.885044
#
# Coordination Sequence:
#
# PCOD9319759 Si02
#       5
#     8   8   8   8   8
#     4  11  22  40  66  92 128 164 211 265 313 368
#     4  10  22  39  63  96 123 163 213 254 313 380
#     4  11  25  42  64  91 130 169 209 259 321 377
#     4  11  21  40  66  93 126 164 206 265 316 365
#     4  11  25  42  65  93 129 166 217 257 313 383
#
# _framework density 19.985755999999999
#
# number of rings (size 3 to 8) (size 9 to 14) (size 15 to 20)
#    0.000    1.200    4.000    2.400    0.000    4.800 
#    0.000    7.000    0.000    0.000    0.000    0.000 
#    0.000    0.000    0.000    0.000    0.000    0.000 
#
# Total GULP energy -111852.196537 kJ/mol
# GULP energy per Si atom -5592.609827 kJ/mol
# Density = 1.994027 g / cm^3
# Si number density = 19.985756 Si / 1000 Ang^3
#
#
#
# Elastic Constant Matrix: (Units=GPa)
#
#
# Indices 1 2 3 4 5 6 
#
# 1 34.4220 6.8576 -9.2479 0.0000 0.0000 0.0000
# 2 6.8576 75.5440 10.8830 0.0000 0.0000 0.0000
# 3 -9.2479 10.8830 51.7973 0.0000 0.0000 0.0000
# 4 0.0000 0.0000 0.0000 -15.8324 0.0000 0.0000
# 5 0.0000 0.0000 0.0000 0.0000 35.7811 0.0000
# 6 0.0000 0.0000 0.0000 0.0000 0.0000 1.7590
#
#
#
# Elastic Compliance Matrix: (Units=1/GPa)
#
#
# Indices 1 2 3 4 5 6 
#
# 1 0.031532 -0.003788 0.006426 0.000000 0.000000 0.000000
# 2 -0.003788 0.014106 -0.003640 0.000000 0.000000 0.000000
# 3 0.006426 -0.003640 0.021218 0.000000 0.000000 0.000000
# 4 0.000000 0.000000 0.000000 -0.063162 0.000000 0.000000
# 5 0.000000 0.000000 0.000000 0.000000 0.027948 0.000000
# 6 0.000000 0.000000 0.000000 0.000000 0.000000 0.568507
#
#
# Mechanical properties :
#
#
# Convention : Reuss Voigt Hill
#
# Bulk Modulus (GPa) = 15.41995 19.86096 17.64045
# Shear Modulus (GPa) = 8.01576 14.55958 11.28767
#
# Velocity S-wave (km/s) = 2.00486 2.70200 2.37910
# Velocity P-wave (km/s) = 3.61822 4.43774 4.04877
#
# Compressibility (1/GPa) = 0.06485104
#
# Stress axis : x y z
#
# Youngs Moduli (GPa) = 31.71362 70.89398 47.12969
#
# Poissons Ratio (x) = 0.26855 -0.30284
# Poissons Ratio (y) = 0.12013 0.17155
# Poissons Ratio (z) = -0.20378 0.25805
#
# Static dielectric constant tensor:
#      x y z
#    x 1.690570 0.000000 0.000000 
#    y 0.000000 1.668450 0.000000 
#    z 0.000000 0.000000 1.731710 
# 
# From -- ./inp_files/23163.got.cif
#   From: 2010.05.17/outbox.cif.g08.bks.cpg/sg20_12_cif.got.tgz:23163.got - 2010.06.03 22:52:26.
