data_PCOD9319249
_publ_section_title
;
Structure prediction by ZEFSAII (Michael W. Deem and Ramdas Pophale) SiO2 
 PCOD9319249
Probable space group: C 2 2 21
;
_chemical_formula_sum "Si O2"
_cell_formula_units_Z 36
_cell_length_a 11.310343
_cell_length_b 24.405664
_cell_length_c 5.057292
_cell_angle_alpha 90.000000
_cell_angle_beta 90.000000
_cell_angle_gamma 90.000000
_cell_volume 1395.996834
_symmetry_space_group_name_H-M "C 2 2 21"
_symmetry_group_IT_number 20
_symmetry_cell_setting 'orthorhombic'
loop_
_space_group_symop_operation_xyz
x,y,z
-x,-y,1/2+z
x,-y,-z
-x,y,1/2-z
1/2+x,1/2+y,z
1/2-x,1/2-y,1/2+z
1/2+x,1/2-y,-z
1/2-x,1/2+y,1/2-z
loop_
_atom_site_type_symbol
_atom_site_label
_atom_site_fract_x
_atom_site_fract_y
_atom_site_fract_z
Si Si1 0.580951 0.500000 0.000000
Si Si2 0.121100 0.122814 0.912155
Si Si3 0.072754 0.500000 0.500000
Si Si4 0.328611 0.262861 0.602224
Si Si5 0.000000 0.309422 0.750000
Si Si6 0.129390 0.617636 0.626471
O O1 0.500000 0.508555 0.750000
O O2 0.632497 0.561904 0.039386
O O3 0.128196 0.174324 0.107755
O O4 0.244176 0.131957 0.748542
O O5 0.000000 0.126674 0.750000
O O6 0.138402 0.552271 0.605788
O O7 0.000000 0.521439 0.250000
O O8 0.277907 0.245516 0.886929
O O9 0.436731 0.227972 0.473305
O O10 0.104926 0.349070 0.642829
O O11 0.000000 0.625870 0.750000
#
# Coordination Sequence:
#
# PCOD9319249 Si02
#       6
#     4   8   4   8   4   8
#     4  10  25  50  77 112 153 202 255 318 377 454
#     4  11  24  49  74 110 148 203 252 315 378 460
#     4  10  21  40  69 106 139 190 243 310 381 446
#     4  12  27  46  73 106 151 197 252 312 383 455
#     4  12  24  44  70 106 144 198 246 314 374 460
#     4  11  23  45  71 104 149 189 251 310 381 449
#
# _framework density 25.788025000000001
#
# number of rings (size 3 to 8) (size 9 to 14) (size 15 to 20)
#    0.000    0.889    4.444    2.000    0.000    3.556 
#    8.000   11.111    0.000    0.000    0.000    0.000 
#    0.000    0.000    0.000    0.000    0.000    0.000 
#
# Total GULP energy -100428.983630 kJ/mol
# GULP energy per Si atom -5579.387979 kJ/mol
# Density = 2.572933 g / cm^3
# Si number density = 25.788025 Si / 1000 Ang^3
#
#
#
# Elastic Constant Matrix: (Units=GPa)
#
#
# Indices 1 2 3 4 5 6 
#
# 1 173.1535 3.3974 8.5378 0.0000 0.0000 0.0000
# 2 3.3974 210.7566 -7.4085 0.0000 0.0000 0.0000
# 3 8.5378 -7.4085 64.1394 0.0000 0.0000 0.0000
# 4 0.0000 0.0000 0.0000 21.9572 0.0000 0.0000
# 5 0.0000 0.0000 0.0000 0.0000 30.7585 0.0000
# 6 0.0000 0.0000 0.0000 0.0000 0.0000 28.2094
#
#
#
# Elastic Compliance Matrix: (Units=1/GPa)
#
#
# Indices 1 2 3 4 5 6 
#
# 1 0.005816 -0.000121 -0.000788 0.000000 0.000000 0.000000
# 2 -0.000121 0.004767 0.000567 0.000000 0.000000 0.000000
# 3 -0.000788 0.000567 0.015761 0.000000 0.000000 0.000000
# 4 0.000000 0.000000 0.000000 0.045543 0.000000 0.000000
# 5 0.000000 0.000000 0.000000 0.000000 0.032511 0.000000
# 6 0.000000 0.000000 0.000000 0.000000 0.000000 0.035449
#
#
# Mechanical properties :
#
#
# Convention : Reuss Voigt Hill
#
# Bulk Modulus (GPa) = 38.97328 50.78920 44.88124
# Shear Modulus (GPa) = 33.53747 45.75323 39.64535
#
# Velocity S-wave (km/s) = 3.61016 4.21670 3.92517
# Velocity P-wave (km/s) = 5.70293 6.59129 6.16314
#
# Compressibility (1/GPa) = 0.02565861
#
# Stress axis : x y z
#
# Youngs Moduli (GPa) = 171.92546 209.78921 63.44599
#
# Poissons Ratio (x) = 0.02548 0.05001
# Poissons Ratio (y) = 0.02088 -0.03596
# Poissons Ratio (z) = 0.13553 -0.11890
#
# Static dielectric constant tensor:
#      x y z
#    x 2.093690 0.000000 0.000000 
#    y 0.000000 2.056520 0.000000 
#    z 0.000000 0.000000 2.044490 
# 
# From -- ./inp_files/1256.got.cif
#   From: 2010.05.17/outbox.cif.g08.bks.cpg/sg20_1_cif.got.tgz:1256.got - 2010.06.03 22:52:26.
