data_PCOD9319038
_publ_section_title
;
Structure prediction by ZEFSAII (Michael W. Deem and Ramdas Pophale) SiO2 
 PCOD9319038
Probable space group: C 2 2 21
;
_chemical_formula_sum "Si O2"
_cell_formula_units_Z 52
_cell_length_a 11.303799
_cell_length_b 28.352260
_cell_length_c 8.600366
_cell_angle_alpha 90.000000
_cell_angle_beta 90.000000
_cell_angle_gamma 90.000000
_cell_volume 2756.316234
_symmetry_space_group_name_H-M "C 2 2 21"
_symmetry_group_IT_number 20
_symmetry_cell_setting 'orthorhombic'
loop_
_space_group_symop_operation_xyz
x,y,z
-x,-y,1/2+z
x,-y,-z
-x,y,1/2-z
1/2+x,1/2+y,z
1/2-x,1/2-y,1/2+z
1/2+x,1/2-y,-z
1/2-x,1/2+y,1/2-z
loop_
_atom_site_type_symbol
_atom_site_label
_atom_site_fract_x
_atom_site_fract_y
_atom_site_fract_z
Si Si1 0.135395 0.000000 0.500000
Si Si2 0.596884 0.282460 0.386909
Si Si3 0.724861 0.369333 0.232044
Si Si4 0.611891 0.657494 0.322202
Si Si5 0.000000 0.064063 0.750000
Si Si6 0.000000 0.617092 0.250000
Si Si7 0.701232 0.085072 0.035106
Si Si8 0.304017 0.179577 0.080567
O O1 0.053676 0.969691 0.383388
O O2 0.227599 0.962548 0.571062
O O3 0.500000 0.275545 0.250000
O O4 0.687885 0.320343 0.315082
O O5 0.559010 0.307969 0.546626
O O6 0.652124 0.232946 0.437842
O O7 0.607070 0.400895 0.201534
O O8 0.803008 0.400862 0.351705
O O9 0.779854 0.351078 0.072735
O O10 0.500000 0.630751 0.250000
O O11 0.707337 0.623841 0.399966
O O12 0.687167 0.682181 0.187286
O O13 0.923114 0.588206 0.376172
O O14 0.905868 0.650947 0.168277
#
# Coordination Sequence:
#
# PCOD9319038 Si02
#       8
#     4   8   8   8   4   4   8   8
#     4  10  22  38  64 100 120 152 208 258 330 404
#     4  11  20  37  57  84 127 164 211 262 295 370
#     4  10  21  39  61  90 127 169 204 264 332 364
#     4  10  22  35  57  88 117 163 203 255 319 361
#     4  10  22  39  66  96 130 158 196 279 338 394
#     4  10  22  43  58  82 122 168 206 255 302 378
#     4   9  22  41  62  87 123 161 204 260 316 381
#     4  11  22  37  60  85 123 167 218 250 303 378
#
# _framework density 18.865760000000002
#
# number of rings (size 3 to 8) (size 9 to 14) (size 15 to 20)
#    0.000    1.846    1.538    1.846    5.385    1.846 
#    5.538    3.077    0.000    0.000    0.000    0.000 
#    0.000    0.000    0.000    0.000    0.000    0.000 
#
# Total GULP energy -144834.448591 kJ/mol
# GULP energy per Si atom -5570.555715 kJ/mol
# Density = 1.882282 g / cm^3
# Si number density = 18.865760 Si / 1000 Ang^3
#
#
#
# Elastic Constant Matrix: (Units=GPa)
#
#
# Indices 1 2 3 4 5 6 
#
# 1 100.7962 37.4407 58.0443 0.0000 0.0000 0.0000
# 2 37.4407 88.8859 32.6137 0.0000 0.0000 0.0000
# 3 58.0443 32.6137 104.4976 0.0000 0.0000 0.0000
# 4 0.0000 0.0000 0.0000 22.2757 0.0000 0.0000
# 5 0.0000 0.0000 0.0000 0.0000 49.9407 0.0000
# 6 0.0000 0.0000 0.0000 0.0000 0.0000 54.1437
#
#
#
# Elastic Compliance Matrix: (Units=1/GPa)
#
#
# Indices 1 2 3 4 5 6 
#
# 1 0.015672 -0.003848 -0.007504 0.000000 0.000000 0.000000
# 2 -0.003848 0.013650 -0.002123 0.000000 0.000000 0.000000
# 3 -0.007504 -0.002123 0.014400 0.000000 0.000000 0.000000
# 4 0.000000 0.000000 0.000000 0.044892 0.000000 0.000000
# 5 0.000000 0.000000 0.000000 0.000000 0.020024 0.000000
# 6 0.000000 0.000000 0.000000 0.000000 0.000000 0.018469
#
#
# Mechanical properties :
#
#
# Convention : Reuss Voigt Hill
#
# Bulk Modulus (GPa) = 59.62135 61.15298 60.38717
# Shear Modulus (GPa) = 31.31903 36.34408 33.83155
#
# Velocity S-wave (km/s) = 4.07885 4.39390 4.23931
# Velocity P-wave (km/s) = 7.33855 7.63066 7.48603
#
# Compressibility (1/GPa) = 0.01677251
#
# Stress axis : x y z
#
# Youngs Moduli (GPa) = 63.81001 73.25964 69.44290
#
# Poissons Ratio (x) = 0.28189 0.52110
# Poissons Ratio (y) = 0.24553 0.14742
# Poissons Ratio (z) = 0.47883 0.15552
#
# Static dielectric constant tensor:
#      x y z
#    x 1.656540 0.000000 0.000000 
#    y 0.000000 1.324020 0.000000 
#    z 0.000000 0.000000 1.700010 
# 
# From -- ./inp_files/7546.got.cif
#   From: 2010.05.17/outbox.cif.g08.bks.cpg/sg20_4_cif.got.tgz:7546.got - 2010.06.03 22:52:26.
