data_PCOD9319193
_publ_section_title
;
Structure prediction by ZEFSAII (Michael W. Deem and Ramdas Pophale) SiO2 
 PCOD9319193
Probable space group: C 2 2 21
;
_chemical_formula_sum "Si O2"
_cell_formula_units_Z 48
_cell_length_a 8.775155
_cell_length_b 15.646017
_cell_length_c 16.661791
_cell_angle_alpha 90.000000
_cell_angle_beta 90.000000
_cell_angle_gamma 90.000000
_cell_volume 2287.600995
_symmetry_space_group_name_H-M "C 2 2 21"
_symmetry_group_IT_number 20
_symmetry_cell_setting 'orthorhombic'
loop_
_space_group_symop_operation_xyz
x,y,z
-x,-y,1/2+z
x,-y,-z
-x,y,1/2-z
1/2+x,1/2+y,z
1/2-x,1/2-y,1/2+z
1/2+x,1/2-y,-z
1/2-x,1/2+y,1/2-z
loop_
_atom_site_type_symbol
_atom_site_label
_atom_site_fract_x
_atom_site_fract_y
_atom_site_fract_z
Si Si1 0.457311 0.000000 0.500000
Si Si2 0.992522 0.876905 0.653373
Si Si3 0.682791 0.142291 0.442414
Si Si4 0.659323 0.797765 0.377938
Si Si5 0.000000 0.419553 0.250000
Si Si6 0.725429 0.018095 0.143175
Si Si7 0.935024 0.301002 0.663389
O O1 0.572645 0.061477 0.454073
O O2 0.341373 0.965950 0.432440
O O3 0.063774 0.790147 0.616407
O O4 0.095186 0.962076 0.640310
O O5 0.000000 0.863947 0.750000
O O6 0.826824 0.881536 0.612428
O O7 0.707829 0.172204 0.533432
O O8 0.576509 0.210501 0.396260
O O9 0.561497 0.862615 0.324010
O O10 0.816509 0.775678 0.333480
O O11 0.856387 0.475853 0.280321
O O12 0.660395 0.115029 0.138465
O O13 0.000000 0.319143 0.750000
#
# Coordination Sequence:
#
# PCOD9319193 Si02
#       7
#     4   8   8   8   4   8   8
#     4  10  22  40  64  92 126 182 224 278 338 410
#     4  11  24  41  68 102 136 180 234 285 342 432
#     4  11  22  40  67  92 138 174 228 282 347 401
#     4  11  23  40  65 101 132 176 228 283 341 402
#     4  12  22  42  70  96 140 172 234 292 342 406
#     4  10  22  41  65  93 129 182 222 277 345 412
#     4  10  21  40  64  90 126 181 220 260 343 417
#
# _framework density 20.982680999999999
#
# number of rings (size 3 to 8) (size 9 to 14) (size 15 to 20)
#    0.000    1.333    3.333    3.000    2.333    0.667 
#    0.000    4.167    0.000    0.000    0.000    0.000 
#    0.000    0.000    0.000    0.000    0.000    0.000 
#
# Total GULP energy -133745.037550 kJ/mol
# GULP energy per Si atom -5572.709898 kJ/mol
# Density = 2.093492 g / cm^3
# Si number density = 20.982681 Si / 1000 Ang^3
#
#
#
# Elastic Constant Matrix: (Units=GPa)
#
#
# Indices 1 2 3 4 5 6 
#
# 1 97.4905 36.9985 30.6877 0.0000 0.0000 0.0000
# 2 36.9985 43.2333 8.2905 0.0000 0.0000 0.0000
# 3 30.6877 8.2905 90.0731 0.0000 0.0000 0.0000
# 4 0.0000 0.0000 0.0000 -16.7195 0.0000 0.0000
# 5 0.0000 0.0000 0.0000 0.0000 33.7052 0.0000
# 6 0.0000 0.0000 0.0000 0.0000 0.0000 24.9470
#
#
#
# Elastic Compliance Matrix: (Units=1/GPa)
#
#
# Indices 1 2 3 4 5 6 
#
# 1 0.016796 -0.013515 -0.004478 0.000000 0.000000 0.000000
# 2 -0.013515 0.034421 0.001436 0.000000 0.000000 0.000000
# 3 -0.004478 0.001436 0.012496 0.000000 0.000000 0.000000
# 4 0.000000 0.000000 0.000000 -0.059810 0.000000 0.000000
# 5 0.000000 0.000000 0.000000 0.000000 0.029669 0.000000
# 6 0.000000 0.000000 0.000000 0.000000 0.000000 0.040085
#
#
# Mechanical properties :
#
#
# Convention : Reuss Voigt Hill
#
# Bulk Modulus (GPa) = 32.68142 42.52781 37.60461
# Shear Modulus (GPa) = 42.74577 18.70790 30.72683
#
# Velocity S-wave (km/s) = 4.51842 2.98919 3.83089
# Velocity P-wave (km/s) = 6.54452 5.67677 6.12603
#
# Compressibility (1/GPa) = 0.03059843
#
# Stress axis : x y z
#
# Youngs Moduli (GPa) = 59.53704 29.05201 80.02764
#
# Poissons Ratio (x) = 0.39264 0.35840
# Poissons Ratio (y) = 0.80466 -0.11495
# Poissons Ratio (z) = 0.26664 -0.04173
#
# Static dielectric constant tensor:
#      x y z
#    x 2.332900 0.000000 0.000000 
#    y 0.000000 1.780480 0.000000 
#    z 0.000000 0.000000 1.837180 
# 
# From -- ./inp_files/18962.got.cif
#   From: 2010.05.17/outbox.cif.g08.bks.cpg/sg20_10_cif.got.tgz:18962.got - 2010.06.03 22:52:26.
