data_PCOD9319164
_publ_section_title
;
Structure prediction by ZEFSAII (Michael W. Deem and Ramdas Pophale) SiO2 
 PCOD9319164
Probable space group: C 2 2 21
;
_chemical_formula_sum "Si O2"
_cell_formula_units_Z 48
_cell_length_a 8.442357
_cell_length_b 16.917752
_cell_length_c 14.779306
_cell_angle_alpha 90.000000
_cell_angle_beta 90.000000
_cell_angle_gamma 90.000000
_cell_volume 2110.864755
_symmetry_space_group_name_H-M "C 2 2 21"
_symmetry_group_IT_number 20
_symmetry_cell_setting 'orthorhombic'
loop_
_space_group_symop_operation_xyz
x,y,z
-x,-y,1/2+z
x,-y,-z
-x,y,1/2-z
1/2+x,1/2+y,z
1/2-x,1/2-y,1/2+z
1/2+x,1/2-y,-z
1/2-x,1/2+y,1/2-z
loop_
_atom_site_type_symbol
_atom_site_label
_atom_site_fract_x
_atom_site_fract_y
_atom_site_fract_z
Si Si1 0.080653 0.965772 0.347629
Si Si2 0.683335 0.728890 0.895090
Si Si3 0.745761 0.954236 0.415501
Si Si4 0.328301 0.307034 0.057372
Si Si5 0.674861 0.281106 0.788878
Si Si6 0.823015 0.557759 0.239822
O O1 0.156465 0.895153 0.404455
O O2 0.215090 0.029140 0.323577
O O3 0.000000 0.940584 0.250000
O O4 0.923826 0.989137 0.402031
O O5 0.740880 0.640069 0.921052
O O6 0.498344 0.731957 0.919930
O O7 0.713442 0.744383 0.789482
O O8 0.780409 0.792274 0.954217
O O9 0.659590 0.981581 0.324566
O O10 0.672746 0.000000 0.500000
O O11 0.196647 0.264677 0.118367
O O12 0.500000 0.276378 0.750000
O O13 0.724491 0.371371 0.803972
O O14 0.000000 0.588598 0.250000
#
# Coordination Sequence:
#
# PCOD9319164 Si02
#       6
#     8   8   8   8   8   8
#     4   9  20  39  62  86 119 162 202 241 300 367
#     4  11  24  39  63  95 125 162 207 252 305 367
#     4  10  21  40  62  87 121 160 199 244 300 362
#     4  11  22  40  62  91 127 161 202 255 305 363
#     4  12  24  41  63  88 124 166 208 255 308 363
#     4  11  23  39  62  89 119 157 202 253 306 364
#
# _framework density 22.739495000000002
#
# number of rings (size 3 to 8) (size 9 to 14) (size 15 to 20)
#    0.000    1.333    0.000    8.000    0.000    8.000 
#    0.000    0.833    0.000    0.000    0.000    0.000 
#    0.000    0.000    0.000    0.000    0.000    0.000 
#
# Total GULP energy -134140.453041 kJ/mol
# GULP energy per Si atom -5589.185543 kJ/mol
# Density = 2.268774 g / cm^3
# Si number density = 22.739495 Si / 1000 Ang^3
#
#
#
# Elastic Constant Matrix: (Units=GPa)
#
#
# Indices 1 2 3 4 5 6 
#
# 1 48.5192 1.0002 -23.0675 0.0000 0.0000 0.0000
# 2 1.0002 65.9597 -0.3530 0.0000 0.0000 0.0000
# 3 -23.0675 -0.3530 66.4773 0.0000 0.0000 0.0000
# 4 0.0000 0.0000 0.0000 16.8150 0.0000 0.0000
# 5 0.0000 0.0000 0.0000 0.0000 14.4277 0.0000
# 6 0.0000 0.0000 0.0000 0.0000 0.0000 23.8434
#
#
#
# Elastic Compliance Matrix: (Units=1/GPa)
#
#
# Indices 1 2 3 4 5 6 
#
# 1 0.024689 -0.000329 0.008565 0.000000 0.000000 0.000000
# 2 -0.000329 0.015166 -0.000033 0.000000 0.000000 0.000000
# 3 0.008565 -0.000033 0.018015 0.000000 0.000000 0.000000
# 4 0.000000 0.000000 0.000000 0.059471 0.000000 0.000000
# 5 0.000000 0.000000 0.000000 0.000000 0.069311 0.000000
# 6 0.000000 0.000000 0.000000 0.000000 0.000000 0.041940
#
#
# Mechanical properties :
#
#
# Convention : Reuss Voigt Hill
#
# Bulk Modulus (GPa) = 13.46317 15.12394 14.29356
# Shear Modulus (GPa) = 21.10202 24.57565 22.83883
#
# Velocity S-wave (km/s) = 3.04960 3.29104 3.17262
# Velocity P-wave (km/s) = 4.28177 4.59420 4.44073
#
# Compressibility (1/GPa) = 0.07427671
#
# Stress axis : x y z
#
# Youngs Moduli (GPa) = 40.50309 65.93880 55.51004
#
# Poissons Ratio (x) = 0.02166 -0.47547
# Poissons Ratio (y) = 0.01331 0.00186
# Poissons Ratio (z) = -0.34693 0.00221
#
# Static dielectric constant tensor:
#      x y z
#    x 1.919550 0.000000 0.000000 
#    y 0.000000 1.817030 0.000000 
#    z 0.000000 0.000000 1.867010 
# 
# From -- ./inp_files/18892.got.cif
#   From: 2010.05.17/outbox.cif.g08.bks.cpg/sg20_10_cif.got.tgz:18892.got - 2010.06.03 22:52:26.
