data_PCOD9319437
_publ_section_title
;
Structure prediction by ZEFSAII (Michael W. Deem and Ramdas Pophale) SiO2 
 PCOD9319437
Probable space group: C 2 2 21
;
_chemical_formula_sum "Si O2"
_cell_formula_units_Z 64
_cell_length_a 9.053566
_cell_length_b 13.876043
_cell_length_c 24.083324
_cell_angle_alpha 90.000000
_cell_angle_beta 90.000000
_cell_angle_gamma 90.000000
_cell_volume 3025.531907
_symmetry_space_group_name_H-M "C 2 2 21"
_symmetry_group_IT_number 20
_symmetry_cell_setting 'orthorhombic'
loop_
_space_group_symop_operation_xyz
x,y,z
-x,-y,1/2+z
x,-y,-z
-x,y,1/2-z
1/2+x,1/2+y,z
1/2-x,1/2-y,1/2+z
1/2+x,1/2-y,-z
1/2-x,1/2+y,1/2-z
loop_
_atom_site_type_symbol
_atom_site_label
_atom_site_fract_x
_atom_site_fract_y
_atom_site_fract_z
Si Si1 0.067132 0.464451 0.597467
Si Si2 0.140175 0.102769 0.277259
Si Si3 0.024841 0.750335 0.861201
Si Si4 0.193100 0.450839 0.155161
Si Si5 0.117937 0.658084 0.298868
Si Si6 0.264559 0.847374 0.071335
Si Si7 0.724407 0.207929 0.449297
Si Si8 0.449395 0.665196 0.881315
O O1 0.112357 0.434389 0.660488
O O2 0.170802 0.545261 0.571688
O O3 0.096654 0.370836 0.561338
O O4 0.900615 0.500048 0.605875
O O5 0.064451 0.176144 0.321170
O O6 0.222841 0.164701 0.229694
O O7 0.000000 0.048973 0.250000
O O8 0.270132 0.031387 0.298470
O O9 0.897199 0.713089 0.902419
O O10 0.102826 0.651228 0.835578
O O11 0.149627 0.798244 0.901418
O O12 0.360605 0.425765 0.139683
O O13 0.079014 0.748998 0.337441
O O14 0.000000 0.655298 0.250000
O O15 0.120477 0.845713 0.109178
O O16 0.221079 0.808223 0.010976
O O17 0.639529 0.306684 0.437254
#
# Coordination Sequence:
#
# PCOD9319437 Si02
#       8
#     8   8   8   8   8   8   8   8
#     4  10  22  41  64  92 132 171 219 284 323 411
#     4  12  24  42  70  94 133 186 223 277 351 403
#     4  10  24  45  66  99 141 172 226 284 337 418
#     4  10  23  44  62  96 134 171 220 279 333 404
#     4  11  22  43  63  93 132 177 218 269 347 406
#     4  11  22  40  70  98 128 176 217 278 353 399
#     4  10  21  42  69  93 134 173 218 275 347 409
#     4  10  23  40  65  98 134 164 227 279 324 426
#
# _framework density 21.153305
#
# number of rings (size 3 to 8) (size 9 to 14) (size 15 to 20)
#    0.000    1.500    1.250    4.125    5.250    0.500 
#   11.250    0.000    5.500    0.000    0.000    0.000 
#    0.000    0.000    0.000    0.000    0.000    0.000 
#
# Total GULP energy -178331.864314 kJ/mol
# GULP energy per Si atom -5572.870760 kJ/mol
# Density = 2.110516 g / cm^3
# Si number density = 21.153305 Si / 1000 Ang^3
#
#
#
# Elastic Constant Matrix: (Units=GPa)
#
#
# Indices 1 2 3 4 5 6 
#
# 1 98.6518 6.6037 20.7774 0.0000 0.0000 0.0000
# 2 6.6037 46.7784 16.0532 0.0000 0.0000 0.0000
# 3 20.7774 16.0532 55.9452 0.0000 0.0000 0.0000
# 4 0.0000 0.0000 0.0000 20.2884 0.0000 0.0000
# 5 0.0000 0.0000 0.0000 0.0000 32.6846 0.0000
# 6 0.0000 0.0000 0.0000 0.0000 0.0000 13.5520
#
#
#
# Elastic Compliance Matrix: (Units=1/GPa)
#
#
# Indices 1 2 3 4 5 6 
#
# 1 0.010998 -0.000167 -0.004037 0.000000 0.000000 0.000000
# 2 -0.000167 0.023715 -0.006743 0.000000 0.000000 0.000000
# 3 -0.004037 -0.006743 0.021309 0.000000 0.000000 0.000000
# 4 0.000000 0.000000 0.000000 0.049289 0.000000 0.000000
# 5 0.000000 0.000000 0.000000 0.000000 0.030595 0.000000
# 6 0.000000 0.000000 0.000000 0.000000 0.000000 0.073790
#
#
# Mechanical properties :
#
#
# Convention : Reuss Voigt Hill
#
# Bulk Modulus (GPa) = 29.30118 32.02709 30.66414
# Shear Modulus (GPa) = 20.57910 23.83442 22.20676
#
# Velocity S-wave (km/s) = 3.12245 3.36035 3.24358
# Velocity P-wave (km/s) = 5.18473 5.49811 5.34372
#
# Compressibility (1/GPa) = 0.03412832
#
# Stress axis : x y z
#
# Youngs Moduli (GPa) = 90.92556 42.16750 46.92957
#
# Poissons Ratio (x) = 0.00706 0.18943
# Poissons Ratio (y) = 0.01522 0.31643
# Poissons Ratio (z) = 0.36702 0.28432
#
# Static dielectric constant tensor:
#      x y z
#    x 1.762580 0.000000 0.000000 
#    y 0.000000 1.809700 0.000000 
#    z 0.000000 0.000000 1.826400 
# 
# From -- ./inp_files/28898.got.cif
#   From: 2010.05.17/outbox.cif.g08.bks.cpg/sg20_15_cif.got.tgz:28898.got - 2010.06.03 22:52:26.
