data_PCOD9319154
_publ_section_title
;
Structure prediction by ZEFSAII (Michael W. Deem and Ramdas Pophale) SiO2 
 PCOD9319154
Probable space group: C 2 2 21
;
_chemical_formula_sum "Si O2"
_cell_formula_units_Z 48
_cell_length_a 24.403840
_cell_length_b 5.257232
_cell_length_c 17.903406
_cell_angle_alpha 90.000000
_cell_angle_beta 90.000000
_cell_angle_gamma 90.000000
_cell_volume 2296.946988
_symmetry_space_group_name_H-M "C 2 2 21"
_symmetry_group_IT_number 20
_symmetry_cell_setting 'orthorhombic'
loop_
_space_group_symop_operation_xyz
x,y,z
-x,-y,1/2+z
x,-y,-z
-x,y,1/2-z
1/2+x,1/2+y,z
1/2-x,1/2-y,1/2+z
1/2+x,1/2-y,-z
1/2-x,1/2+y,1/2-z
loop_
_atom_site_type_symbol
_atom_site_label
_atom_site_fract_x
_atom_site_fract_y
_atom_site_fract_z
Si Si1 0.000000 0.597907 0.250000
Si Si2 0.401161 0.500000 0.500000
Si Si3 0.193942 0.628291 0.688935
Si Si4 0.027794 0.500000 0.500000
Si Si5 0.261418 0.876458 0.351938
Si Si6 0.071568 0.745914 0.639784
Si Si7 0.670508 0.000000 0.000000
Si Si8 0.519987 0.625336 0.882245
O O1 0.034020 0.424674 0.306176
O O2 0.039408 0.762740 0.196151
O O3 0.365924 0.249252 0.480501
O O4 0.438574 0.557659 0.426136
O O5 0.219772 0.363893 0.657483
O O6 0.199397 0.634973 0.779020
O O7 0.132591 0.696621 0.665496
O O8 0.229722 0.859471 0.657662
O O9 0.065248 0.665058 0.553897
O O10 0.990898 0.665139 0.445077
O O11 0.293562 0.900706 0.429784
O O12 0.039756 0.013556 0.638884
#
# Coordination Sequence:
#
# PCOD9319154 Si02
#       8
#     4   4   8   4   8   8   4   8
#     4  10  26  38  64 100 146 178 242 276 328 446
#     4  12  26  42  74 100 145 191 220 290 360 412
#     4  10  24  45  73  93 137 180 226 293 363 396
#     4  10  21  40  61  92 142 173 230 277 336 412
#     4  10  24  48  66 101 133 170 240 302 335 423
#     4  11  23  40  67  98 133 193 222 284 353 422
#     4  12  27  44  75 104 133 184 240 289 360 410
#     4  11  23  44  62 101 149 180 233 284 337 441
#
# _framework density 20.897303000000001
#
# number of rings (size 3 to 8) (size 9 to 14) (size 15 to 20)
#    0.000    1.333    1.667    2.000    9.333    2.667 
#    0.000    0.000    0.000    0.000    0.000    0.000 
#    0.000    0.000    0.000    0.000    0.000    0.000 
#
# Total GULP energy -133899.505394 kJ/mol
# GULP energy per Si atom -5579.146058 kJ/mol
# Density = 2.084974 g / cm^3
# Si number density = 20.897303 Si / 1000 Ang^3
#
#
#
# Elastic Constant Matrix: (Units=GPa)
#
#
# Indices 1 2 3 4 5 6 
#
# 1 67.3117 12.0935 46.4273 0.0000 0.0000 0.0000
# 2 12.0935 99.4524 35.1007 0.0000 0.0000 0.0000
# 3 46.4273 35.1007 141.5271 0.0000 0.0000 0.0000
# 4 0.0000 0.0000 0.0000 32.4019 0.0000 0.0000
# 5 0.0000 0.0000 0.0000 0.0000 -5.1927 0.0000
# 6 0.0000 0.0000 0.0000 0.0000 0.0000 20.4989
#
#
#
# Elastic Compliance Matrix: (Units=1/GPa)
#
#
# Indices 1 2 3 4 5 6 
#
# 1 0.019202 -0.000122 -0.006269 0.000000 0.000000 0.000000
# 2 -0.000122 0.011020 -0.002693 0.000000 0.000000 0.000000
# 3 -0.006269 -0.002693 0.009790 0.000000 0.000000 0.000000
# 4 0.000000 0.000000 0.000000 0.030862 0.000000 0.000000
# 5 0.000000 0.000000 0.000000 0.000000 -0.192577 0.000000
# 6 0.000000 0.000000 0.000000 0.000000 0.000000 0.048783
#
#
# Mechanical properties :
#
#
# Convention : Reuss Voigt Hill
#
# Bulk Modulus (GPa) = 45.77910 55.05936 50.41923
# Shear Modulus (GPa) = -105.33314 23.85292 -40.74011
#
# Velocity S-wave (km/s) = -7.10736 3.38218 -4.42015
# Velocity P-wave (km/s) = 6.73784 6.45422 1.36776
#
# Compressibility (1/GPa) = 0.02184403
#
# Stress axis : x y z
#
# Youngs Moduli (GPa) = 52.07780 90.74051 102.14365
#
# Poissons Ratio (x) = 0.01112 0.64031
# Poissons Ratio (y) = 0.00638 0.27508
# Poissons Ratio (z) = 0.32646 0.24437
#
# Static dielectric constant tensor:
#      x y z
#    x 1.831600 0.000000 0.000000 
#    y 0.000000 1.872430 0.000000 
#    z 0.000000 0.000000 1.772760 
# 
# From -- ./inp_files/25604.got.cif
#   From: 2010.05.17/outbox.cif.g08.bks.cpg/sg20_13_cif.got.tgz:25604.got - 2010.06.03 22:52:26.
