data_PCOD9319062
_publ_section_title
;
Structure prediction by ZEFSAII (Michael W. Deem and Ramdas Pophale) SiO2 
 PCOD9319062
Probable space group: C 2 2 21
;
_chemical_formula_sum "Si O2"
_cell_formula_units_Z 56
_cell_length_a 29.808487
_cell_length_b 14.268067
_cell_length_c 5.932239
_cell_angle_alpha 90.000000
_cell_angle_beta 90.000000
_cell_angle_gamma 90.000000
_cell_volume 2523.037542
_symmetry_space_group_name_H-M "C 2 2 21"
_symmetry_group_IT_number 20
_symmetry_cell_setting 'orthorhombic'
loop_
_space_group_symop_operation_xyz
x,y,z
-x,-y,1/2+z
x,-y,-z
-x,y,1/2-z
1/2+x,1/2+y,z
1/2-x,1/2-y,1/2+z
1/2+x,1/2-y,-z
1/2-x,1/2+y,1/2-z
loop_
_atom_site_type_symbol
_atom_site_label
_atom_site_fract_x
_atom_site_fract_y
_atom_site_fract_z
Si Si1 0.305295 0.264240 0.133313
Si Si2 0.735044 0.884167 0.325091
Si Si3 0.523394 0.223767 0.000235
Si Si4 0.867326 0.871728 0.833865
Si Si5 0.815148 0.000000 0.500000
Si Si6 0.679739 0.000000 0.000000
Si Si7 0.873066 0.692667 0.512343
Si Si8 0.546084 0.571301 0.172474
O O1 0.254353 0.302413 0.162005
O O2 0.338849 0.236462 0.331620
O O3 0.298801 0.169547 0.987976
O O4 0.332459 0.349899 0.026065
O O5 0.780971 0.917177 0.436956
O O6 0.713651 0.974874 0.205331
O O7 0.500000 0.194825 0.750000
O O8 0.531786 0.334284 0.957796
O O9 0.500000 0.209778 0.250000
O O10 0.573692 0.182806 0.029042
O O11 0.845398 0.954201 0.690631
O O12 0.870547 0.770417 0.709654
O O13 0.919073 0.900266 0.867805
O O14 0.647792 0.089548 0.972954
O O15 0.500000 0.526010 0.250000
O O16 0.568303 0.500000 0.000000
#
# Coordination Sequence:
#
# PCOD9319062 Si02
#       8
#     8   8   8   8   4   4   8   8
#     4  12  24  44  69  97 139 193 229 303 358 434
#     4  12  24  41  68  96 138 179 243 291 363 418
#     4  10  24  44  73 104 142 187 230 293 370 443
#     4  11  23  44  64  97 141 177 233 281 355 429
#     4  12  22  42  62  98 132 186 228 292 342 434
#     4  12  24  46  66 104 126 182 240 304 352 432
#     4  11  25  45  72 100 139 180 235 296 363 426
#     4  10  21  39  63  97 137 180 230 292 349 438
#
# _framework density 22.19547
#
# number of rings (size 3 to 8) (size 9 to 14) (size 15 to 20)
#    0.000    0.857    3.571    3.857    6.000    0.000 
#    2.571    0.714    0.000    0.000    0.000    0.000 
#    0.000    0.000    0.000    0.000    0.000    0.000 
#
# Total GULP energy -155934.407845 kJ/mol
# GULP energy per Si atom -5569.085994 kJ/mol
# Density = 2.214495 g / cm^3
# Si number density = 22.195470 Si / 1000 Ang^3
#
#
#
# Elastic Constant Matrix: (Units=GPa)
#
#
# Indices 1 2 3 4 5 6 
#
# 1 150.6101 18.8773 42.9187 0.0000 0.0000 0.0000
# 2 18.8773 69.6412 15.9945 0.0000 0.0000 0.0000
# 3 42.9187 15.9945 50.1332 0.0000 0.0000 0.0000
# 4 0.0000 0.0000 0.0000 33.5590 0.0000 0.0000
# 5 0.0000 0.0000 0.0000 0.0000 54.8156 0.0000
# 6 0.0000 0.0000 0.0000 0.0000 0.0000 29.8750
#
#
#
# Elastic Compliance Matrix: (Units=1/GPa)
#
#
# Indices 1 2 3 4 5 6 
#
# 1 0.008814 -0.000708 -0.007320 0.000000 0.000000 0.000000
# 2 -0.000708 0.015552 -0.004355 0.000000 0.000000 0.000000
# 3 -0.007320 -0.004355 0.027603 0.000000 0.000000 0.000000
# 4 0.000000 0.000000 0.000000 0.029798 0.000000 0.000000
# 5 0.000000 0.000000 0.000000 0.000000 0.018243 0.000000
# 6 0.000000 0.000000 0.000000 0.000000 0.000000 0.033473
#
#
# Mechanical properties :
#
#
# Convention : Reuss Voigt Hill
#
# Bulk Modulus (GPa) = 36.76203 47.32949 42.04576
# Shear Modulus (GPa) = 29.88334 36.48951 33.18642
#
# Velocity S-wave (km/s) = 3.67327 4.05903 3.87096
# Velocity P-wave (km/s) = 5.88128 6.58315 6.24209
#
# Compressibility (1/GPa) = 0.02720198
#
# Stress axis : x y z
#
# Youngs Moduli (GPa) = 113.45123 64.30225 36.22793
#
# Poissons Ratio (x) = 0.04553 0.26519
# Poissons Ratio (y) = 0.08033 0.15779
# Poissons Ratio (z) = 0.83046 0.28006
#
# Static dielectric constant tensor:
#      x y z
#    x 1.834000 0.000000 0.000000 
#    y 0.000000 1.706420 0.000000 
#    z 0.000000 0.000000 1.999150 
# 
# From -- ./inp_files/4721.got.cif
#   From: 2010.05.17/outbox.cif.g08.bks.cpg/sg20_3_cif.got.tgz:4721.got - 2010.06.03 22:52:26.
