data_PCOD9319529
_publ_section_title
;
Structure prediction by ZEFSAII (Michael W. Deem and Ramdas Pophale) SiO2 
 PCOD9319529
Probable space group: C 2 2 21
;
_chemical_formula_sum "Si O2"
_cell_formula_units_Z 48
_cell_length_a 8.788794
_cell_length_b 29.537813
_cell_length_c 7.667858
_cell_angle_alpha 90.000000
_cell_angle_beta 90.000000
_cell_angle_gamma 90.000000
_cell_volume 1990.589384
_symmetry_space_group_name_H-M "C 2 2 21"
_symmetry_group_IT_number 20
_symmetry_cell_setting 'orthorhombic'
loop_
_space_group_symop_operation_xyz
x,y,z
-x,-y,1/2+z
x,-y,-z
-x,y,1/2-z
1/2+x,1/2+y,z
1/2-x,1/2-y,1/2+z
1/2+x,1/2-y,-z
1/2-x,1/2+y,1/2-z
loop_
_atom_site_type_symbol
_atom_site_label
_atom_site_fract_x
_atom_site_fract_y
_atom_site_fract_z
Si Si1 0.500000 0.958354 0.750000
Si Si2 0.813433 0.697356 0.617708
Si Si3 0.612279 0.231831 0.498579
Si Si4 0.795659 0.603531 0.482691
Si Si5 0.844841 0.836455 0.670671
Si Si6 0.523921 0.423501 0.959717
Si Si7 0.741847 0.000000 0.500000
O O1 0.571439 0.927594 0.905433
O O2 0.633607 0.987442 0.662384
O O3 0.652298 0.717297 0.556772
O O4 0.846377 0.718649 0.804236
O O5 0.833354 0.643353 0.617784
O O6 0.937142 0.718018 0.482778
O O7 0.725811 0.199681 0.392637
O O8 0.737459 0.633059 0.316779
O O9 0.645280 0.575921 0.538097
O O10 0.904382 0.873196 0.530390
O O11 0.000000 0.816382 0.750000
O O12 0.500000 0.432882 0.750000
O O13 0.645168 0.458281 0.031999
#
# Coordination Sequence:
#
# PCOD9319529 Si02
#       7
#     4   8   8   8   8   8   4
#     4  12  24  44  74 104 146 178 232 294 370 412
#     4  11  26  42  67 102 143 183 240 281 354 404
#     4  11  25  43  66 102 143 188 234 294 335 417
#     4  10  21  44  70  98 133 191 229 289 352 426
#     4   9  19  40  71  92 131 180 236 281 345 404
#     4   9  20  43  70  94 130 184 228 284 350 424
#     4  12  24  46  72 106 136 186 234 296 358 438
#
# _framework density 24.11346
#
# number of rings (size 3 to 8) (size 9 to 14) (size 15 to 20)
#    0.000    2.000    3.333    2.000    7.000    2.667 
#    3.000    0.000    0.000    0.000    0.000    0.000 
#    0.000    0.000    0.000    0.000    0.000    0.000 
#
# Total GULP energy -134243.900225 kJ/mol
# GULP energy per Si atom -5593.495843 kJ/mol
# Density = 2.405858 g / cm^3
# Si number density = 24.113460 Si / 1000 Ang^3
#
#
#
# Elastic Constant Matrix: (Units=GPa)
#
#
# Indices 1 2 3 4 5 6 
#
# 1 99.2523 41.6493 20.0111 0.0000 0.0000 0.0000
# 2 41.6493 95.2805 31.1138 0.0000 0.0000 0.0000
# 3 20.0111 31.1138 47.7056 0.0000 0.0000 0.0000
# 4 0.0000 0.0000 0.0000 25.0694 0.0000 0.0000
# 5 0.0000 0.0000 0.0000 0.0000 29.7537 0.0000
# 6 0.0000 0.0000 0.0000 0.0000 0.0000 54.1587
#
#
#
# Elastic Compliance Matrix: (Units=1/GPa)
#
#
# Indices 1 2 3 4 5 6 
#
# 1 0.012508 -0.004770 -0.002136 0.000000 0.000000 0.000000
# 2 -0.004770 0.015155 -0.007883 0.000000 0.000000 0.000000
# 3 -0.002136 -0.007883 0.026999 0.000000 0.000000 0.000000
# 4 0.000000 0.000000 0.000000 0.039889 0.000000 0.000000
# 5 0.000000 0.000000 0.000000 0.000000 0.033609 0.000000
# 6 0.000000 0.000000 0.000000 0.000000 0.000000 0.018464
#
#
# Mechanical properties :
#
#
# Convention : Reuss Voigt Hill
#
# Bulk Modulus (GPa) = 39.86596 47.53189 43.69892
# Shear Modulus (GPa) = 27.09110 31.76063 29.42587
#
# Velocity S-wave (km/s) = 3.35548 3.63317 3.49708
# Velocity P-wave (km/s) = 5.61969 6.11183 5.87092
#
# Compressibility (1/GPa) = 0.02508406
#
# Stress axis : x y z
#
# Youngs Moduli (GPa) = 79.95186 65.98655 37.03836
#
# Poissons Ratio (x) = 0.31475 0.07910
# Poissons Ratio (y) = 0.38137 0.29197
# Poissons Ratio (z) = 0.17074 0.52017
#
# Static dielectric constant tensor:
#      x y z
#    x 1.971900 0.000000 0.000000 
#    y 0.000000 1.971880 0.000000 
#    z 0.000000 0.000000 1.971780 
# 
# From -- ./inp_files/6598.got.cif
#   From: 2010.05.17/outbox.cif.g08.bks.cpg/sg20_4_cif.got.tgz:6598.got - 2010.06.03 22:52:26.
