data_PCOD9319167
_publ_section_title
;
Structure prediction by ZEFSAII (Michael W. Deem and Ramdas Pophale) SiO2 
 PCOD9319167
Probable space group: C 2 2 21
;
_chemical_formula_sum "Si O2"
_cell_formula_units_Z 56
_cell_length_a 8.530531
_cell_length_b 13.805703
_cell_length_c 22.139701
_cell_angle_alpha 90.000000
_cell_angle_beta 90.000000
_cell_angle_gamma 90.000000
_cell_volume 2607.392087
_symmetry_space_group_name_H-M "C 2 2 21"
_symmetry_group_IT_number 20
_symmetry_cell_setting 'orthorhombic'
loop_
_space_group_symop_operation_xyz
x,y,z
-x,-y,1/2+z
x,-y,-z
-x,y,1/2-z
1/2+x,1/2+y,z
1/2-x,1/2-y,1/2+z
1/2+x,1/2-y,-z
1/2-x,1/2+y,1/2-z
loop_
_atom_site_type_symbol
_atom_site_label
_atom_site_fract_x
_atom_site_fract_y
_atom_site_fract_z
Si Si1 0.725448 0.823782 0.388354
Si Si2 0.092508 0.973265 0.887400
Si Si3 0.741012 0.357880 0.778119
Si Si4 0.679921 0.892745 0.519139
Si Si5 0.753999 0.988437 0.843021
Si Si6 0.018518 0.340124 0.869320
Si Si7 0.577571 0.837257 0.195252
O O1 0.695358 0.827457 0.460066
O O2 0.843851 0.738896 0.368959
O O3 0.559970 0.817916 0.353002
O O4 0.817037 0.925116 0.378505
O O5 0.144013 0.911595 0.829931
O O6 0.157737 0.922063 0.947474
O O7 0.907029 0.980377 0.883558
O O8 0.734331 0.423813 0.718385
O O9 0.655131 0.255172 0.772549
O O10 0.909349 0.339451 0.809976
O O11 0.584900 0.835778 0.570487
O O12 0.614235 0.000000 0.500000
O O13 0.600251 0.944568 0.873455
O O14 0.718345 0.099807 0.830563
O O15 0.500000 0.897918 0.250000
#
# Coordination Sequence:
#
# PCOD9319167 Si02
#       7
#     8   8   8   8   8   8   8
#     4  11  23  42  65  91 125 164 207 256 308 364
#     4  10  21  40  62  90 123 160 205 254 307 366
#     4  11  23  40  62  92 127 161 204 256 309 370
#     4   9  21  42  62  85 123 164 206 258 304 358
#     4  12  23  39  63  91 124 163 203 252 311 370
#     4  11  23  39  62  91 123 162 207 254 308 368
#     4  12  24  40  63  92 125 162 205 252 310 372
#
# _framework density 21.477398999999998
#
# number of rings (size 3 to 8) (size 9 to 14) (size 15 to 20)
#    0.000    1.143    0.000    8.571    0.000    3.429 
#    0.000   12.143    0.000    0.000    0.000    0.000 
#    0.000    0.000    0.000    0.000    0.000    0.000 
#
# Total GULP energy -156423.383932 kJ/mol
# GULP energy per Si atom -5586.549426 kJ/mol
# Density = 2.142852 g / cm^3
# Si number density = 21.477399 Si / 1000 Ang^3
#
#
#
# Elastic Constant Matrix: (Units=GPa)
#
#
# Indices 1 2 3 4 5 6 
#
# 1 111.5495 21.5904 48.0388 0.0000 0.0000 0.0000
# 2 21.5904 52.2576 6.2906 0.0000 0.0000 0.0000
# 3 48.0388 6.2906 98.2643 0.0000 0.0000 0.0000
# 4 0.0000 0.0000 0.0000 26.3620 0.0000 0.0000
# 5 0.0000 0.0000 0.0000 0.0000 26.0525 0.0000
# 6 0.0000 0.0000 0.0000 0.0000 0.0000 34.1691
#
#
#
# Elastic Compliance Matrix: (Units=1/GPa)
#
#
# Indices 1 2 3 4 5 6 
#
# 1 0.012277 -0.004384 -0.005721 0.000000 0.000000 0.000000
# 2 -0.004384 0.020850 0.000808 0.000000 0.000000 0.000000
# 3 -0.005721 0.000808 0.012922 0.000000 0.000000 0.000000
# 4 0.000000 0.000000 0.000000 0.037933 0.000000 0.000000
# 5 0.000000 0.000000 0.000000 0.000000 0.038384 0.000000
# 6 0.000000 0.000000 0.000000 0.000000 0.000000 0.029266
#
#
# Mechanical properties :
#
#
# Convention : Reuss Voigt Hill
#
# Bulk Modulus (GPa) = 36.42263 45.99012 41.20637
# Shear Modulus (GPa) = 27.87423 29.72680 28.80052
#
# Velocity S-wave (km/s) = 3.60646 3.72438 3.66590
# Velocity P-wave (km/s) = 5.85982 6.32095 6.09475
#
# Compressibility (1/GPa) = 0.02745546
#
# Stress axis : x y z
#
# Youngs Moduli (GPa) = 81.45373 47.96222 77.38832
#
# Poissons Ratio (x) = 0.21024 0.44276
# Poissons Ratio (y) = 0.35706 -0.06255
# Poissons Ratio (z) = 0.46602 -0.03877
#
# Static dielectric constant tensor:
#      x y z
#    x 1.864130 0.000000 0.000000 
#    y 0.000000 1.833350 0.000000 
#    z 0.000000 0.000000 1.775150 
# 
# From -- ./inp_files/26745.got.cif
#   From: 2010.05.17/outbox.cif.g08.bks.cpg/sg20_14_cif.got.tgz:26745.got - 2010.06.03 22:52:26.
