data_PCOD9319382
_publ_section_title
;
Structure prediction by ZEFSAII (Michael W. Deem and Ramdas Pophale) SiO2 
 PCOD9319382
Probable space group: C 2 2 21
;
_chemical_formula_sum "Si O2"
_cell_formula_units_Z 56
_cell_length_a 6.182004
_cell_length_b 17.644341
_cell_length_c 24.222253
_cell_angle_alpha 90.000000
_cell_angle_beta 90.000000
_cell_angle_gamma 90.000000
_cell_volume 2642.100056
_symmetry_space_group_name_H-M "C 2 2 21"
_symmetry_group_IT_number 20
_symmetry_cell_setting 'orthorhombic'
loop_
_space_group_symop_operation_xyz
x,y,z
-x,-y,1/2+z
x,-y,-z
-x,y,1/2-z
1/2+x,1/2+y,z
1/2-x,1/2-y,1/2+z
1/2+x,1/2-y,-z
1/2-x,1/2+y,1/2-z
loop_
_atom_site_type_symbol
_atom_site_label
_atom_site_fract_x
_atom_site_fract_y
_atom_site_fract_z
Si Si1 0.386283 0.380591 0.110637
Si Si2 0.095737 0.109265 0.367022
Si Si3 0.583702 0.846700 0.017074
Si Si4 0.246768 0.048826 0.047837
Si Si5 0.618447 0.491872 0.194979
Si Si6 0.765462 0.756968 0.416131
Si Si7 0.535588 0.018811 0.858028
O O1 0.537201 0.441312 0.142661
O O2 0.533081 0.305559 0.107352
O O3 0.286688 0.385938 0.048336
O O4 0.165539 0.402521 0.143206
O O5 0.935405 0.094309 0.418924
O O6 0.185625 0.193202 0.373320
O O7 0.950156 0.078861 0.316745
O O8 0.295757 0.050552 0.363616
O O9 0.435204 0.807869 0.063923
O O10 0.664249 0.785549 0.972520
O O11 0.424900 0.899772 0.982125
O O12 0.385780 0.995082 0.088349
O O13 0.139122 0.000000 0.000000
O O14 0.500000 0.465461 0.250000
O O15 0.874798 0.487340 0.193086
#
# Coordination Sequence:
#
# PCOD9319382 Si02
#       7
#     8   8   8   8   8   8   8
#     4  11  24  39  63  97 134 177 226 284 338 414
#     4  10  24  38  63  95 129 171 220 281 333 415
#     4  12  23  36  59  92 139 192 222 264 333 417
#     4  11  22  35  60  94 135 177 231 271 324 396
#     4  10  24  48  76  97 122 171 242 307 359 396
#     4  12  24  38  58  95 144 185 220 260 345 424
#     4  10  21  42  63  98 126 164 229 286 329 400
#
# _framework density 21.195260999999999
#
# number of rings (size 3 to 8) (size 9 to 14) (size 15 to 20)
#    0.000    1.143    4.286    1.714    4.000    2.857 
#    0.000    0.000    6.286    0.000    0.000    0.000 
#    0.000    0.000    0.000    0.000    0.000    0.000 
#
# Total GULP energy -155971.444731 kJ/mol
# GULP energy per Si atom -5570.408740 kJ/mol
# Density = 2.114702 g / cm^3
# Si number density = 21.195261 Si / 1000 Ang^3
#
#
#
# Elastic Constant Matrix: (Units=GPa)
#
#
# Indices 1 2 3 4 5 6 
#
# 1 111.8670 54.6456 38.9991 0.0000 0.0000 0.0000
# 2 54.6456 78.4955 42.0847 0.0000 0.0000 0.0000
# 3 38.9991 42.0847 48.3715 0.0000 0.0000 0.0000
# 4 0.0000 0.0000 0.0000 12.8757 0.0000 0.0000
# 5 0.0000 0.0000 0.0000 0.0000 32.1989 0.0000
# 6 0.0000 0.0000 0.0000 0.0000 0.0000 57.5098
#
#
#
# Elastic Compliance Matrix: (Units=1/GPa)
#
#
# Indices 1 2 3 4 5 6 
#
# 1 0.014249 -0.007048 -0.005356 0.000000 0.000000 0.000000
# 2 -0.007048 0.027364 -0.018125 0.000000 0.000000 0.000000
# 3 -0.005356 -0.018125 0.040761 0.000000 0.000000 0.000000
# 4 0.000000 0.000000 0.000000 0.077666 0.000000 0.000000
# 5 0.000000 0.000000 0.000000 0.000000 0.031057 0.000000
# 6 0.000000 0.000000 0.000000 0.000000 0.000000 0.017388
#
#
# Mechanical properties :
#
#
# Convention : Reuss Voigt Hill
#
# Bulk Modulus (GPa) = 46.91416 56.68809 51.80112
# Shear Modulus (GPa) = 18.07346 27.38384 22.72865
#
# Velocity S-wave (km/s) = 2.92329 3.59831 3.27822
# Velocity P-wave (km/s) = 5.79452 6.63834 6.23073
#
# Compressibility (1/GPa) = 0.02131553
#
# Stress axis : x y z
#
# Youngs Moduli (GPa) = 70.17796 36.54485 24.53335
#
# Poissons Ratio (x) = 0.25757 0.13141
# Poissons Ratio (y) = 0.49463 0.44466
# Poissons Ratio (z) = 0.37590 0.66236
#
# Static dielectric constant tensor:
#      x y z
#    x 1.852330 0.000000 0.000000 
#    y 0.000000 1.805590 0.000000 
#    z 0.000000 0.000000 1.805770 
# 
# From -- ./inp_files/28432.got.cif
#   From: 2010.05.17/outbox.cif.g08.bks.cpg/sg20_15_cif.got.tgz:28432.got - 2010.06.03 22:52:26.
