data_PCOD9319160
_publ_section_title
;
Structure prediction by ZEFSAII (Michael W. Deem and Ramdas Pophale) SiO2 
 PCOD9319160
Probable space group: C 2 2 21
;
_chemical_formula_sum "Si O2"
_cell_formula_units_Z 48
_cell_length_a 5.087101
_cell_length_b 24.079367
_cell_length_c 20.853564
_cell_angle_alpha 90.000000
_cell_angle_beta 90.000000
_cell_angle_gamma 90.000000
_cell_volume 2554.440054
_symmetry_space_group_name_H-M "C 2 2 21"
_symmetry_group_IT_number 20
_symmetry_cell_setting 'orthorhombic'
loop_
_space_group_symop_operation_xyz
x,y,z
-x,-y,1/2+z
x,-y,-z
-x,y,1/2-z
1/2+x,1/2+y,z
1/2-x,1/2-y,1/2+z
1/2+x,1/2-y,-z
1/2-x,1/2+y,1/2-z
loop_
_atom_site_type_symbol
_atom_site_label
_atom_site_fract_x
_atom_site_fract_y
_atom_site_fract_z
Si Si1 0.429272 0.032655 0.824465
Si Si2 0.756683 0.820242 0.705238
Si Si3 0.677621 0.562994 0.477891
Si Si4 0.824416 0.418797 0.891047
Si Si5 0.914975 0.907082 0.118583
Si Si6 0.755000 0.693261 0.705362
O O1 0.500000 0.040535 0.750000
O O2 0.689103 0.049303 0.862879
O O3 0.186544 0.070585 0.849949
O O4 0.372589 0.968627 0.840680
O O5 0.500000 0.821085 0.750000
O O6 0.717804 0.861938 0.646921
O O7 0.806527 0.756546 0.683621
O O8 0.000000 0.837574 0.750000
O O9 0.730749 0.500000 0.500000
O O10 0.435078 0.564497 0.429551
O O11 0.586373 0.595366 0.541833
O O12 0.934234 0.584657 0.440957
O O13 0.815050 0.849846 0.149894
O O14 0.500000 0.694504 0.750000
O O15 0.000000 0.675525 0.750000
#
# Coordination Sequence:
#
# PCOD9319160 Si02
#       6
#     8   8   8   8   8   8
#     4  12  23  35  58  88 119 147 194 256 301 353
#     4  10  22  41  64  88 119 155 194 249 307 355
#     4  12  23  41  59  84 125 169 198 237 300 362
#     4  12  23  40  61  88 119 159 204 240 300 364
#     4  12  23  38  59  87 119 158 201 241 298 360
#     4  10  21  40  62  86 118 154 194 246 307 355
#
# _framework density 18.790811999999999
#
# number of rings (size 3 to 8) (size 9 to 14) (size 15 to 20)
#    0.000    0.667    3.333    6.000    0.000    1.333 
#    0.000    1.667    0.000    0.000    0.000    0.000 
#    0.000    0.000    0.000    0.000    0.000    0.000 
#
# Total GULP energy -134163.371485 kJ/mol
# GULP energy per Si atom -5590.140479 kJ/mol
# Density = 1.874804 g / cm^3
# Si number density = 18.790812 Si / 1000 Ang^3
#
#
#
# Elastic Constant Matrix: (Units=GPa)
#
#
# Indices 1 2 3 4 5 6 
#
# 1 120.4133 10.1634 41.3870 0.0000 0.0000 0.0000
# 2 10.1634 92.2137 68.7767 0.0000 0.0000 0.0000
# 3 41.3870 68.7767 113.6566 0.0000 0.0000 0.0000
# 4 0.0000 0.0000 0.0000 26.8134 0.0000 0.0000
# 5 0.0000 0.0000 0.0000 0.0000 38.0053 0.0000
# 6 0.0000 0.0000 0.0000 0.0000 0.0000 13.4571
#
#
#
# Elastic Compliance Matrix: (Units=1/GPa)
#
#
# Indices 1 2 3 4 5 6 
#
# 1 0.009904 0.002913 -0.005369 0.000000 0.000000 0.000000
# 2 0.002913 0.020622 -0.013539 0.000000 0.000000 0.000000
# 3 -0.005369 -0.013539 0.018947 0.000000 0.000000 0.000000
# 4 0.000000 0.000000 0.000000 0.037295 0.000000 0.000000
# 5 0.000000 0.000000 0.000000 0.000000 0.026312 0.000000
# 6 0.000000 0.000000 0.000000 0.000000 0.000000 0.074310
#
#
# Mechanical properties :
#
#
# Convention : Reuss Voigt Hill
#
# Bulk Modulus (GPa) = 57.20435 62.99307 60.09871
# Shear Modulus (GPa) = 22.20165 29.38558 25.79361
#
# Velocity S-wave (km/s) = 3.44105 3.95882 3.70898
# Velocity P-wave (km/s) = 6.80416 7.38190 7.09891
#
# Compressibility (1/GPa) = 0.01748119
#
# Stress axis : x y z
#
# Youngs Moduli (GPa) = 100.96571 48.49287 52.77953
#
# Poissons Ratio (x) = -0.14126 0.28339
# Poissons Ratio (y) = -0.29412 0.71461
# Poissons Ratio (z) = 0.54212 0.65657
#
# Static dielectric constant tensor:
#      x y z
#    x 1.655090 0.000000 0.000000 
#    y 0.000000 1.666320 0.000000 
#    z 0.000000 0.000000 1.721090 
# 
# From -- ./inp_files/22818.got.cif
#   From: 2010.05.17/outbox.cif.g08.bks.cpg/sg20_12_cif.got.tgz:22818.got - 2010.06.03 22:52:26.
