data_PCOD9319047
_publ_section_title
;
Structure prediction by ZEFSAII (Michael W. Deem and Ramdas Pophale) SiO2 
 PCOD9319047
Probable space group: C 2 2 21
;
_chemical_formula_sum "Si O2"
_cell_formula_units_Z 52
_cell_length_a 6.654898
_cell_length_b 19.701603
_cell_length_c 21.420121
_cell_angle_alpha 90.000000
_cell_angle_beta 90.000000
_cell_angle_gamma 90.000000
_cell_volume 2808.438298
_symmetry_space_group_name_H-M "C 2 2 21"
_symmetry_group_IT_number 20
_symmetry_cell_setting 'orthorhombic'
loop_
_space_group_symop_operation_xyz
x,y,z
-x,-y,1/2+z
x,-y,-z
-x,y,1/2-z
1/2+x,1/2+y,z
1/2-x,1/2-y,1/2+z
1/2+x,1/2-y,-z
1/2-x,1/2+y,1/2-z
loop_
_atom_site_type_symbol
_atom_site_label
_atom_site_fract_x
_atom_site_fract_y
_atom_site_fract_z
Si Si1 0.624182 0.138457 0.688333
Si Si2 0.114632 0.387359 0.916804
Si Si3 0.920716 0.070833 0.974506
Si Si4 0.127340 0.759386 0.589538
Si Si5 0.500000 0.428846 0.250000
Si Si6 0.193547 0.526024 0.850747
Si Si7 0.773780 0.825344 0.524694
O O1 0.500000 0.160630 0.750000
O O2 0.625062 0.197675 0.637482
O O3 0.498115 0.073494 0.663374
O O4 0.848505 0.116392 0.708150
O O5 0.217506 0.318518 0.891788
O O6 0.126586 0.450637 0.870030
O O7 0.896471 0.369672 0.942599
O O8 0.247744 0.408846 0.976604
O O9 0.818203 0.058464 0.908279
O O10 0.088284 0.127991 0.980199
O O11 0.008713 0.000000 0.000000
O O12 0.183823 0.731633 0.520594
O O13 0.910665 0.792811 0.578450
O O14 0.652289 0.471756 0.292899
#
# Coordination Sequence:
#
# PCOD9319047 Si02
#       7
#     8   8   8   8   4   8   8
#     4  10  23  40  64  88 117 163 215 263 305 371
#     4  10  22  37  55  90 126 160 198 246 315 374
#     4   9  20  35  57  91 120 153 194 241 306 375
#     4  11  22  37  59  90 125 163 203 249 310 376
#     4  10  22  42  66  86 114 158 216 260 316 346
#     4  10  21  39  62  89 121 157 210 261 305 370
#     4  11  21  34  58  88 126 161 193 246 311 371
#
# _framework density 18.515629000000001
#
# number of rings (size 3 to 8) (size 9 to 14) (size 15 to 20)
#    0.000    1.846    1.538    1.846    2.154    9.231 
#    1.385    0.000    5.077    0.000    0.000    0.000 
#    0.000    0.000    0.000    0.000    0.000    0.000 
#
# Total GULP energy -145164.353656 kJ/mol
# GULP energy per Si atom -5583.244371 kJ/mol
# Density = 1.847349 g / cm^3
# Si number density = 18.515629 Si / 1000 Ang^3
#
#
#
# Elastic Constant Matrix: (Units=GPa)
#
#
# Indices 1 2 3 4 5 6 
#
# 1 96.5740 68.2075 25.3231 0.0000 0.0000 0.0000
# 2 68.2075 118.3342 50.7329 0.0000 0.0000 0.0000
# 3 25.3231 50.7329 61.3339 0.0000 0.0000 0.0000
# 4 0.0000 0.0000 0.0000 32.4286 0.0000 0.0000
# 5 0.0000 0.0000 0.0000 0.0000 14.0812 0.0000
# 6 0.0000 0.0000 0.0000 0.0000 0.0000 -5.3680
#
#
#
# Elastic Compliance Matrix: (Units=1/GPa)
#
#
# Indices 1 2 3 4 5 6 
#
# 1 0.017584 -0.010881 0.001741 0.000000 0.000000 0.000000
# 2 -0.010881 0.019828 -0.011908 0.000000 0.000000 0.000000
# 3 0.001741 -0.011908 0.025435 0.000000 0.000000 0.000000
# 4 0.000000 0.000000 0.000000 0.030837 0.000000 0.000000
# 5 0.000000 0.000000 0.000000 0.000000 0.071017 0.000000
# 6 0.000000 0.000000 0.000000 0.000000 0.000000 -0.186288
#
#
# Mechanical properties :
#
#
# Convention : Reuss Voigt Hill
#
# Bulk Modulus (GPa) = 48.19414 62.75211 55.47313
# Shear Modulus (GPa) = 182.30588 17.02693 99.66641
#
# Velocity S-wave (km/s) = 9.93349 3.03578 7.34473
# Velocity P-wave (km/s) = 12.55592 6.80095 10.09713
#
# Compressibility (1/GPa) = 0.02074941
#
# Stress axis : x y z
#
# Youngs Moduli (GPa) = 56.87139 50.43345 39.31519
#
# Poissons Ratio (x) = 0.54879 -0.06845
# Poissons Ratio (y) = 0.61885 0.46818
# Poissons Ratio (z) = -0.09901 0.60058
#
# Static dielectric constant tensor:
#      x y z
#    x 1.633640 0.000000 0.000000 
#    y 0.000000 1.637980 0.000000 
#    z 0.000000 0.000000 1.628280 
# 
# From -- ./inp_files/26112.got.cif
#   From: 2010.05.17/outbox.cif.g08.bks.cpg/sg20_14_cif.got.tgz:26112.got - 2010.06.03 22:52:26.
