data_PCOD9319776
_publ_section_title
;
Structure prediction by ZEFSAII (Michael W. Deem and Ramdas Pophale) SiO2 
 PCOD9319776
Probable space group: C 2 2 21
;
_chemical_formula_sum "Si O2"
_cell_formula_units_Z 60
_cell_length_a 16.061232
_cell_length_b 8.564282
_cell_length_c 19.302429
_cell_angle_alpha 90.000000
_cell_angle_beta 90.000000
_cell_angle_gamma 90.000000
_cell_volume 2655.105474
_symmetry_space_group_name_H-M "C 2 2 21"
_symmetry_group_IT_number 20
_symmetry_cell_setting 'orthorhombic'
loop_
_space_group_symop_operation_xyz
x,y,z
-x,-y,1/2+z
x,-y,-z
-x,y,1/2-z
1/2+x,1/2+y,z
1/2-x,1/2-y,1/2+z
1/2+x,1/2-y,-z
1/2-x,1/2+y,1/2-z
loop_
_atom_site_type_symbol
_atom_site_label
_atom_site_fract_x
_atom_site_fract_y
_atom_site_fract_z
Si Si1 0.005695 0.096982 0.666994
Si Si2 0.835211 0.500000 0.500000
Si Si3 0.831926 0.697497 0.135553
Si Si4 0.572421 0.331094 0.031929
Si Si5 0.229706 0.520635 0.850602
Si Si6 0.886707 0.809011 0.843671
Si Si7 0.902980 0.323584 0.007056
Si Si8 0.594444 0.978518 0.256131
O O1 0.083759 0.206135 0.649337
O O2 0.000000 0.098888 0.750000
O O3 0.930926 0.149410 0.616128
O O4 0.035851 0.925006 0.645342
O O5 0.882899 0.330870 0.507540
O O6 0.779480 0.494095 0.432127
O O7 0.832308 0.677553 0.052639
O O8 0.848147 0.550182 0.183313
O O9 0.756953 0.801575 0.162798
O O10 0.476305 0.297939 0.010432
O O11 0.599525 0.500000 0.000000
O O12 0.304062 0.407994 0.827634
O O13 0.142561 0.490225 0.814306
O O14 0.908641 0.699837 0.779512
O O15 0.874347 0.715510 0.915619
O O16 0.938047 0.500000 0.000000
O O17 0.500000 0.037839 0.250000
#
# Coordination Sequence:
#
# PCOD9319776 Si02
#       8
#     8   4   8   8   8   8   8   8
#     4  10  22  39  68 105 142 182 236 296 367 440
#     4  12  28  46  72 102 148 198 248 310 368 432
#     4  10  23  42  68  98 135 186 230 295 359 431
#     4  11  24  42  68 109 152 187 241 315 371 429
#     4  11  27  48  66 100 152 184 245 300 374 438
#     4  11  23  45  73 103 143 195 234 305 373 442
#     4  11  20  39  73 104 138 184 256 294 367 446
#     4  12  26  42  73 107 140 189 247 300 364 448
#
# _framework density 22.597971999999999
#
# number of rings (size 3 to 8) (size 9 to 14) (size 15 to 20)
#    0.000    1.067    3.333    2.400    7.467    1.067 
#    2.400    0.000    0.000    0.000    0.000    0.000 
#    0.000    0.000    0.000    0.000    0.000    0.000 
#
# Total GULP energy -167437.336437 kJ/mol
# GULP energy per Si atom -5581.244548 kJ/mol
# Density = 2.254654 g / cm^3
# Si number density = 22.597972 Si / 1000 Ang^3
#
#
#
# Elastic Constant Matrix: (Units=GPa)
#
#
# Indices 1 2 3 4 5 6 
#
# 1 52.9965 15.3263 7.3384 0.0000 0.0000 0.0000
# 2 15.3263 117.3676 17.0226 0.0000 0.0000 0.0000
# 3 7.3384 17.0226 111.7493 0.0000 0.0000 0.0000
# 4 0.0000 0.0000 0.0000 34.1757 0.0000 0.0000
# 5 0.0000 0.0000 0.0000 0.0000 11.1147 0.0000
# 6 0.0000 0.0000 0.0000 0.0000 0.0000 -9.0844
#
#
#
# Elastic Compliance Matrix: (Units=1/GPa)
#
#
# Indices 1 2 3 4 5 6 
#
# 1 0.019702 -0.002439 -0.000922 0.000000 0.000000 0.000000
# 2 -0.002439 0.009015 -0.001213 0.000000 0.000000 0.000000
# 3 -0.000922 -0.001213 0.009194 0.000000 0.000000 0.000000
# 4 0.000000 0.000000 0.000000 0.029261 0.000000 0.000000
# 5 0.000000 0.000000 0.000000 0.000000 0.089971 0.000000
# 6 0.000000 0.000000 0.000000 0.000000 0.000000 -0.110079
#
#
# Mechanical properties :
#
#
# Convention : Reuss Voigt Hill
#
# Bulk Modulus (GPa) = 34.76787 40.16532 37.46659
# Shear Modulus (GPa) = 75.98814 23.40293 49.69553
#
# Velocity S-wave (km/s) = 5.80509 3.22160 4.69456
# Velocity P-wave (km/s) = 7.76858 5.62590 6.78239
#
# Compressibility (1/GPa) = 0.02876219
#
# Stress axis : x y z
#
# Youngs Moduli (GPa) = 50.75570 110.93029 108.76720
#
# Poissons Ratio (x) = 0.27056 0.10031
# Poissons Ratio (y) = 0.12379 0.13194
# Poissons Ratio (z) = 0.04681 0.13456
#
# Static dielectric constant tensor:
#      x y z
#    x 1.804420 0.000000 0.000000 
#    y 0.000000 1.906720 0.000000 
#    z 0.000000 0.000000 1.890860 
# 
# From -- ./inp_files/25290.got.cif
#   From: 2010.05.17/outbox.cif.g08.bks.cpg/sg20_13_cif.got.tgz:25290.got - 2010.06.03 22:52:26.
