data_PCOD9319756
_publ_section_title
;
Structure prediction by ZEFSAII (Michael W. Deem and Ramdas Pophale) SiO2 
 PCOD9319756
Probable space group: C 2 2 21
;
_chemical_formula_sum "Si O2"
_cell_formula_units_Z 20
_cell_length_a 9.924267
_cell_length_b 15.713494
_cell_length_c 5.050364
_cell_angle_alpha 90.000000
_cell_angle_beta 90.000000
_cell_angle_gamma 90.000000
_cell_volume 787.578559
_symmetry_space_group_name_H-M "C 2 2 21"
_symmetry_group_IT_number 20
_symmetry_cell_setting 'orthorhombic'
loop_
_space_group_symop_operation_xyz
x,y,z
-x,-y,1/2+z
x,-y,-z
-x,y,1/2-z
1/2+x,1/2+y,z
1/2-x,1/2-y,1/2+z
1/2+x,1/2-y,-z
1/2-x,1/2+y,1/2-z
loop_
_atom_site_type_symbol
_atom_site_label
_atom_site_fract_x
_atom_site_fract_y
_atom_site_fract_z
Si Si1 0.336916 0.761987 0.906314
Si Si2 0.500000 0.361960 0.750000
Si Si3 0.789767 0.556141 0.240565
O O1 0.244300 0.717787 0.681260
O O2 0.360303 0.852497 0.769290
O O3 0.454799 0.701366 0.013170
O O4 0.368720 0.419129 0.703475
O O5 0.804123 0.500000 0.500000
O O6 0.839278 0.500000 0.000000
#
# Coordination Sequence:
#
# PCOD9319756 Si02
#       3
#     8   4   8
#     4  10  22  39  62  96 135 175 219 271 332 403
#     4  10  22  40  66  94 130 178 222 262 332 410
#     4  11  22  38  62  97 132 166 216 283 333 378
#
# _framework density 25.394289000000001
#
# number of rings (size 3 to 8) (size 9 to 14) (size 15 to 20)
#    0.000    1.600    0.000    6.000    0.000   12.800 
#    0.000    0.000    0.000   21.600    0.000   11.200 
#    0.000    0.000    0.000    0.000    0.000    0.000 
#
# Total GULP energy -55956.550086 kJ/mol
# GULP energy per Si atom -5595.655009 kJ/mol
# Density = 2.533649 g / cm^3
# Si number density = 25.394289 Si / 1000 Ang^3
#
#
#
# Elastic Constant Matrix: (Units=GPa)
#
#
# Indices 1 2 3 4 5 6 
#
# 1 105.3857 -12.7540 28.5032 0.0000 0.0000 0.0000
# 2 -12.7540 159.5533 64.6951 0.0000 0.0000 0.0000
# 3 28.5032 64.6951 211.3143 0.0000 0.0000 0.0000
# 4 0.0000 0.0000 0.0000 72.9789 0.0000 0.0000
# 5 0.0000 0.0000 0.0000 0.0000 38.1180 0.0000
# 6 0.0000 0.0000 0.0000 0.0000 0.0000 156.2238
#
#
#
# Elastic Compliance Matrix: (Units=1/GPa)
#
#
# Indices 1 2 3 4 5 6 
#
# 1 0.010179 0.001565 -0.001852 0.000000 0.000000 0.000000
# 2 0.001565 0.007396 -0.002475 0.000000 0.000000 0.000000
# 3 -0.001852 -0.002475 0.005740 0.000000 0.000000 0.000000
# 4 0.000000 0.000000 0.000000 0.013703 0.000000 0.000000
# 5 0.000000 0.000000 0.000000 0.000000 0.026234 0.000000
# 6 0.000000 0.000000 0.000000 0.000000 0.000000 0.006401
#
#
# Mechanical properties :
#
#
# Convention : Reuss Voigt Hill
#
# Bulk Modulus (GPa) = 56.21210 70.79355 63.50282
# Shear Modulus (GPa) = 61.64527 79.85140 70.74833
#
# Velocity S-wave (km/s) = 4.93234 5.61363 5.28398
# Velocity P-wave (km/s) = 7.39061 8.36394 7.89229
#
# Compressibility (1/GPa) = 0.01778977
#
# Stress axis : x y z
#
# Youngs Moduli (GPa) = 98.23927 135.20245 174.21649
#
# Poissons Ratio (x) = -0.21154 0.32266
# Poissons Ratio (y) = -0.15371 0.43127
# Poissons Ratio (z) = 0.18194 0.33469
#
# Static dielectric constant tensor:
#      x y z
#    x 2.136560 0.000000 0.000000 
#    y 0.000000 1.911620 0.000000 
#    z 0.000000 0.000000 1.923010 
# 
# From -- ./inp_files/47.got.cif
#   From: 2010.05.17/outbox.cif.g08.bks.cpg/sg20_1_cif.got.tgz:47.got - 2010.06.03 22:52:26.
