data_PCOD9319960
_publ_section_title
;
Structure prediction by ZEFSAII (Michael W. Deem and Ramdas Pophale) SiO2 
 PCOD9319960
Probable space group: C 2 2 21
;
_chemical_formula_sum "Si O2"
_cell_formula_units_Z 36
_cell_length_a 18.580864
_cell_length_b 10.588083
_cell_length_c 8.127445
_cell_angle_alpha 90.000000
_cell_angle_beta 90.000000
_cell_angle_gamma 90.000000
_cell_volume 1598.958827
_symmetry_space_group_name_H-M "C 2 2 21"
_symmetry_group_IT_number 20
_symmetry_cell_setting 'orthorhombic'
loop_
_space_group_symop_operation_xyz
x,y,z
-x,-y,1/2+z
x,-y,-z
-x,y,1/2-z
1/2+x,1/2+y,z
1/2-x,1/2-y,1/2+z
1/2+x,1/2-y,-z
1/2-x,1/2+y,1/2-z
loop_
_atom_site_type_symbol
_atom_site_label
_atom_site_fract_x
_atom_site_fract_y
_atom_site_fract_z
Si Si1 0.196729 0.884910 0.890143
Si Si2 0.500000 0.198543 0.750000
Si Si3 0.864452 0.387317 0.873477
Si Si4 0.375809 0.134568 0.491916
Si Si5 0.106335 0.139096 0.437688
O O1 0.279841 0.915527 0.853613
O O2 0.156835 0.875516 0.718796
O O3 0.176551 0.753055 0.979631
O O4 0.168060 0.000000 0.000000
O O5 0.436730 0.134077 0.638264
O O6 0.465377 0.291087 0.882031
O O7 0.903204 0.368885 0.697276
O O8 0.892185 0.500000 0.000000
O O9 0.861666 0.246435 0.946239
O O10 0.335956 0.000000 0.500000
O O11 0.092578 0.000000 0.500000
#
# Coordination Sequence:
#
# PCOD9319960 Si02
#       5
#     8   4   8   8   8
#     4  10  22  41  65  97 133 167 207 259 326 395
#     4  10  26  44  60  90 128 170 220 266 320 382
#     4  11  23  40  66  99 131 165 209 266 330 389
#     4  11  24  43  66  90 128 173 217 269 321 383
#     4  11  24  41  64  93 124 166 217 265 318 378
#
# _framework density 22.514652000000002
#
# number of rings (size 3 to 8) (size 9 to 14) (size 15 to 20)
#    0.000    1.333    0.000    5.333    0.000   16.000 
#    0.000    0.000    0.000    0.000    0.000    0.000 
#    0.000    0.000    0.000    0.000    0.000    0.000 
#
# Total GULP energy -100337.621513 kJ/mol
# GULP energy per Si atom -5574.312306 kJ/mol
# Density = 2.246341 g / cm^3
# Si number density = 22.514652 Si / 1000 Ang^3
#
#
#
# Elastic Constant Matrix: (Units=GPa)
#
#
# Indices 1 2 3 4 5 6 
#
# 1 14.3312 13.6213 -3.2153 0.0000 0.0000 0.0000
# 2 13.6213 173.2912 58.8572 0.0000 0.0000 0.0000
# 3 -3.2153 58.8572 125.5116 0.0000 0.0000 0.0000
# 4 0.0000 0.0000 0.0000 51.5734 0.0000 0.0000
# 5 0.0000 0.0000 0.0000 0.0000 -1.8413 0.0000
# 6 0.0000 0.0000 0.0000 0.0000 0.0000 19.6628
#
#
#
# Elastic Compliance Matrix: (Units=1/GPa)
#
#
# Indices 1 2 3 4 5 6 
#
# 1 0.078878 -0.008191 0.005862 0.000000 0.000000 0.000000
# 2 -0.008191 0.007714 -0.003827 0.000000 0.000000 0.000000
# 3 0.005862 -0.003827 0.009912 0.000000 0.000000 0.000000
# 4 0.000000 0.000000 0.000000 0.019390 0.000000 0.000000
# 5 0.000000 0.000000 0.000000 0.000000 -0.543107 0.000000
# 6 0.000000 0.000000 0.000000 0.000000 0.000000 0.050857
#
#
# Mechanical properties :
#
#
# Convention : Reuss Voigt Hill
#
# Bulk Modulus (GPa) = 11.87764 50.18449 31.03106
# Shear Modulus (GPa) = -14.88195 30.13704 7.62754
#
# Velocity S-wave (km/s) = -2.57376 3.66259 1.84260
# Velocity P-wave (km/s) = 1.88291 6.34226 4.28245
#
# Compressibility (1/GPa) = 0.08419184
#
# Stress axis : x y z
#
# Youngs Moduli (GPa) = 12.67774 129.62708 100.88392
#
# Poissons Ratio (x) = 1.06178 -0.59136
# Poissons Ratio (y) = 0.10384 0.38613
# Poissons Ratio (z) = -0.07431 0.49614
#
# Static dielectric constant tensor:
#      x y z
#    x 1.651830 0.000000 0.000000 
#    y 0.000000 1.876410 0.000000 
#    z 0.000000 0.000000 1.872760 
# 
# From -- ./inp_files/5934.got.cif
#   From: 2010.05.17/outbox.cif.g08.bks.cpg/sg20_3_cif.got.tgz:5934.got - 2010.06.03 22:52:26.
