data_PCOD9319439
_publ_section_title
;
Structure prediction by ZEFSAII (Michael W. Deem and Ramdas Pophale) SiO2 
 PCOD9319439
Probable space group: C 2 2 21
;
_chemical_formula_sum "Si O2"
_cell_formula_units_Z 56
_cell_length_a 9.337366
_cell_length_b 20.141484
_cell_length_c 14.412415
_cell_angle_alpha 90.000000
_cell_angle_beta 90.000000
_cell_angle_gamma 90.000000
_cell_volume 2710.519943
_symmetry_space_group_name_H-M "C 2 2 21"
_symmetry_group_IT_number 20
_symmetry_cell_setting 'orthorhombic'
loop_
_space_group_symop_operation_xyz
x,y,z
-x,-y,1/2+z
x,-y,-z
-x,y,1/2-z
1/2+x,1/2+y,z
1/2-x,1/2-y,1/2+z
1/2+x,1/2-y,-z
1/2-x,1/2+y,1/2-z
loop_
_atom_site_type_symbol
_atom_site_label
_atom_site_fract_x
_atom_site_fract_y
_atom_site_fract_z
Si Si1 0.069560 0.042260 0.594492
Si Si2 0.613210 0.855509 0.326544
Si Si3 0.509756 0.813957 0.983699
Si Si4 0.176305 0.811579 0.455593
Si Si5 0.135285 0.617467 0.305943
Si Si6 0.672416 0.259340 0.253513
Si Si7 0.213319 0.983792 0.212178
O O1 0.113546 0.116081 0.564184
O O2 0.071502 0.000000 0.500000
O O3 0.172250 0.017354 0.678539
O O4 0.917043 0.039859 0.646690
O O5 0.500000 0.832559 0.250000
O O6 0.539078 0.852590 0.425215
O O7 0.747626 0.805162 0.320093
O O8 0.664993 0.929109 0.302567
O O9 0.681644 0.813114 0.981488
O O10 0.444455 0.739771 0.989751
O O11 0.432556 0.849799 0.897742
O O12 0.222261 0.784233 0.354362
O O13 0.198636 0.680552 0.249873
O O14 0.243454 0.557563 0.318611
O O15 0.000000 0.589468 0.250000
O O16 0.500000 0.268574 0.250000
#
# Coordination Sequence:
#
# PCOD9319439 Si02
#       7
#     8   8   8   8   8   8   8
#     4  11  26  44  73  97 144 189 235 290 351 424
#     4  12  23  43  70 103 135 182 233 296 343 426
#     4  11  27  41  73 105 139 184 236 297 358 416
#     4  11  24  46  66 106 136 180 239 282 354 426
#     4  10  25  44  66  99 139 185 232 294 351 416
#     4  10  21  42  69  96 138 185 227 290 358 409
#     4  11  25  46  68 104 136 191 239 286 358 422
#
# _framework density 20.660242
#
# number of rings (size 3 to 8) (size 9 to 14) (size 15 to 20)
#    0.000    1.143    2.857    1.286   12.000    1.143 
#    2.571    0.000    0.000    0.000    0.000    0.000 
#    0.000    0.000    0.000    0.000    0.000    0.000 
#
# Total GULP energy -156481.985494 kJ/mol
# GULP energy per Si atom -5588.642339 kJ/mol
# Density = 2.061322 g / cm^3
# Si number density = 20.660242 Si / 1000 Ang^3
#
#
#
# Elastic Constant Matrix: (Units=GPa)
#
#
# Indices 1 2 3 4 5 6 
#
# 1 89.5618 72.0373 26.4289 0.0000 0.0000 0.0000
# 2 72.0373 115.3348 25.7708 0.0000 0.0000 0.0000
# 3 26.4289 25.7708 112.0953 0.0000 0.0000 0.0000
# 4 0.0000 0.0000 0.0000 24.2649 0.0000 0.0000
# 5 0.0000 0.0000 0.0000 0.0000 33.1500 0.0000
# 6 0.0000 0.0000 0.0000 0.0000 0.0000 25.7617
#
#
#
# Elastic Compliance Matrix: (Units=1/GPa)
#
#
# Indices 1 2 3 4 5 6 
#
# 1 0.022955 -0.013839 -0.002230 0.000000 0.000000 0.000000
# 2 -0.013839 0.017483 -0.000757 0.000000 0.000000 0.000000
# 3 -0.002230 -0.000757 0.009621 0.000000 0.000000 0.000000
# 4 0.000000 0.000000 0.000000 0.041212 0.000000 0.000000
# 5 0.000000 0.000000 0.000000 0.000000 0.030166 0.000000
# 6 0.000000 0.000000 0.000000 0.000000 0.000000 0.038817
#
#
# Mechanical properties :
#
#
# Convention : Reuss Voigt Hill
#
# Bulk Modulus (GPa) = 60.95076 62.82954 61.89015
# Shear Modulus (GPa) = 25.07837 29.48565 27.28201
#
# Velocity S-wave (km/s) = 3.48781 3.78189 3.63782
# Velocity P-wave (km/s) = 6.76648 7.03897 6.90407
#
# Compressibility (1/GPa) = 0.01640669
#
# Stress axis : x y z
#
# Youngs Moduli (GPa) = 43.56374 57.19763 103.94145
#
# Poissons Ratio (x) = 0.79156 0.23184
# Poissons Ratio (y) = 0.60288 0.07864
# Poissons Ratio (z) = 0.09717 0.04327
#
# Static dielectric constant tensor:
#      x y z
#    x 1.762630 0.000000 0.000000 
#    y 0.000000 1.714530 0.000000 
#    z 0.000000 0.000000 1.743180 
# 
# From -- ./inp_files/19208.got.cif
#   From: 2010.05.17/outbox.cif.g08.bks.cpg/sg20_10_cif.got.tgz:19208.got - 2010.06.03 22:52:26.
