data_PCOD9319312
_publ_section_title
;
Structure prediction by ZEFSAII (Michael W. Deem and Ramdas Pophale) SiO2 
 PCOD9319312
Probable space group: C 2 2 21
;
_chemical_formula_sum "Si O2"
_cell_formula_units_Z 40
_cell_length_a 9.893177
_cell_length_b 11.807077
_cell_length_c 14.199719
_cell_angle_alpha 90.000000
_cell_angle_beta 90.000000
_cell_angle_gamma 90.000000
_cell_volume 1658.662114
_symmetry_space_group_name_H-M "C 2 2 21"
_symmetry_group_IT_number 20
_symmetry_cell_setting 'orthorhombic'
loop_
_space_group_symop_operation_xyz
x,y,z
-x,-y,1/2+z
x,-y,-z
-x,y,1/2-z
1/2+x,1/2+y,z
1/2-x,1/2-y,1/2+z
1/2+x,1/2-y,-z
1/2-x,1/2+y,1/2-z
loop_
_atom_site_type_symbol
_atom_site_label
_atom_site_fract_x
_atom_site_fract_y
_atom_site_fract_z
Si Si1 0.189884 0.949343 0.402849
Si Si2 0.789645 0.753664 0.486194
Si Si3 0.794496 0.500000 0.000000
Si Si4 0.500000 0.447098 0.750000
Si Si5 0.013090 0.501103 0.148366
Si Si6 0.475851 0.743380 0.108616
O O1 0.225362 0.818218 0.425903
O O2 0.336674 0.009646 0.392231
O O3 0.126709 0.000000 0.500000
O O4 0.104983 0.975921 0.308981
O O5 0.683016 0.717621 0.405130
O O6 0.947843 0.737106 0.508744
O O7 0.785853 0.888963 0.474709
O O8 0.894611 0.458825 0.918376
O O9 0.454464 0.356576 0.668822
O O10 0.986155 0.366107 0.154602
O O11 0.000000 0.554804 0.250000
#
# Coordination Sequence:
#
# PCOD9319312 Si02
#       6
#     8   8   4   4   8   8
#     4  11  23  44  65  95 140 180 217 289 349 405
#     4  10  23  43  66  95 134 170 227 276 348 399
#     4  10  22  40  68 100 122 172 222 280 322 414
#     4  12  24  40  68  98 136 184 232 278 350 418
#     4  10  21  41  65  93 130 175 222 269 340 408
#     4  10  22  43  68  97 129 178 224 283 342 409
#
# _framework density 24.115821
#
# number of rings (size 3 to 8) (size 9 to 14) (size 15 to 20)
#    0.000    1.600    4.000    0.000    2.800    1.600 
#    5.400    0.000    0.000    0.000    0.000    0.000 
#    0.000    0.000    0.000    0.000    0.000    0.000 
#
# Total GULP energy -111364.848874 kJ/mol
# GULP energy per Si atom -5568.242444 kJ/mol
# Density = 2.406093 g / cm^3
# Si number density = 24.115821 Si / 1000 Ang^3
#
#
#
# Elastic Constant Matrix: (Units=GPa)
#
#
# Indices 1 2 3 4 5 6 
#
# 1 53.6559 6.0022 19.4587 0.0000 0.0000 0.0000
# 2 6.0022 99.4467 -19.9898 0.0000 0.0000 0.0000
# 3 19.4587 -19.9898 73.5277 0.0000 0.0000 0.0000
# 4 0.0000 0.0000 0.0000 25.7863 0.0000 0.0000
# 5 0.0000 0.0000 0.0000 0.0000 33.0367 0.0000
# 6 0.0000 0.0000 0.0000 0.0000 0.0000 43.2986
#
#
#
# Elastic Compliance Matrix: (Units=1/GPa)
#
#
# Indices 1 2 3 4 5 6 
#
# 1 0.021209 -0.002548 -0.006305 0.000000 0.000000 0.000000
# 2 -0.002548 0.010943 0.003649 0.000000 0.000000 0.000000
# 3 -0.006305 0.003649 0.016261 0.000000 0.000000 0.000000
# 4 0.000000 0.000000 0.000000 0.038780 0.000000 0.000000
# 5 0.000000 0.000000 0.000000 0.000000 0.030269 0.000000
# 6 0.000000 0.000000 0.000000 0.000000 0.000000 0.023095
#
#
# Mechanical properties :
#
#
# Convention : Reuss Voigt Hill
#
# Bulk Modulus (GPa) = 26.31199 26.39696 26.35448
# Shear Modulus (GPa) = 30.55597 35.16825 32.86211
#
# Velocity S-wave (km/s) = 3.56343 3.82292 3.69545
# Velocity P-wave (km/s) = 5.27874 5.51869 5.40005
#
# Compressibility (1/GPa) = 0.03800549
#
# Stress axis : x y z
#
# Youngs Moduli (GPa) = 47.14983 91.38322 61.49642
#
# Poissons Ratio (x) = 0.23280 0.38776
# Poissons Ratio (y) = 0.12012 -0.22441
# Poissons Ratio (z) = 0.29730 -0.33348
#
# Static dielectric constant tensor:
#      x y z
#    x 1.963060 0.000000 0.000000 
#    y 0.000000 1.952530 0.000000 
#    z 0.000000 0.000000 1.985140 
# 
# From -- ./inp_files/13938.got.cif
#   From: 2010.05.17/outbox.cif.g08.bks.cpg/sg20_7_cif.got.tgz:13938.got - 2010.06.03 22:52:26.
