data_PCOD9319787
_publ_section_title
;
Structure prediction by ZEFSAII (Michael W. Deem and Ramdas Pophale) SiO2 
 PCOD9319787
Probable space group: C 2 2 21
;
_chemical_formula_sum "Si O2"
_cell_formula_units_Z 56
_cell_length_a 11.135951
_cell_length_b 10.813368
_cell_length_c 23.572335
_cell_angle_alpha 90.000000
_cell_angle_beta 90.000000
_cell_angle_gamma 90.000000
_cell_volume 2838.513074
_symmetry_space_group_name_H-M "C 2 2 21"
_symmetry_group_IT_number 20
_symmetry_cell_setting 'orthorhombic'
loop_
_space_group_symop_operation_xyz
x,y,z
-x,-y,1/2+z
x,-y,-z
-x,y,1/2-z
1/2+x,1/2+y,z
1/2-x,1/2-y,1/2+z
1/2+x,1/2-y,-z
1/2-x,1/2+y,1/2-z
loop_
_atom_site_type_symbol
_atom_site_label
_atom_site_fract_x
_atom_site_fract_y
_atom_site_fract_z
Si Si1 0.540644 0.528527 0.121768
Si Si2 0.780997 0.123971 0.163071
Si Si3 0.204147 0.189335 0.048911
Si Si4 0.123107 0.607116 0.871514
Si Si5 0.050669 0.447511 0.563381
Si Si6 0.636329 0.276284 0.077983
Si Si7 0.126812 0.827927 0.781316
O O1 0.409991 0.573586 0.141548
O O2 0.587628 0.616307 0.071437
O O3 0.557235 0.389713 0.101001
O O4 0.626544 0.556289 0.175824
O O5 0.734276 0.235168 0.124068
O O6 0.782274 0.161972 0.229174
O O7 0.692405 0.010380 0.152237
O O8 0.191145 0.326040 0.075780
O O9 0.319798 0.115647 0.072198
O O10 0.200935 0.191061 0.981147
O O11 0.126510 0.709680 0.822334
O O12 0.995212 0.555651 0.894240
O O13 0.050041 0.500000 0.500000
O O14 0.951834 0.339035 0.567137
O O15 0.000000 0.826373 0.750000
#
# Coordination Sequence:
#
# PCOD9319787 Si02
#       7
#     8   8   8   8   8   8   8
#     4  10  22  40  59  92 123 158 215 252 313 382
#     4  10  23  40  65  92 122 171 204 263 320 371
#     4  11  23  38  63  95 125 170 203 261 318 381
#     4  10  22  43  62  92 129 159 214 262 315 378
#     4  11  22  39  61  90 132 161 207 262 313 380
#     4  11  23  38  63  92 126 167 208 256 322 378
#     4   9  21  40  63  85 121 165 205 261 315 366
#
# _framework density 19.728638
#
# number of rings (size 3 to 8) (size 9 to 14) (size 15 to 20)
#    0.000    1.714    1.429    2.143    4.000    4.571 
#    5.143    0.000    0.000    0.000    0.000    0.000 
#    0.000    0.000    0.000    0.000    0.000    0.000 
#
# Total GULP energy -156234.257668 kJ/mol
# GULP energy per Si atom -5579.794917 kJ/mol
# Density = 1.968374 g / cm^3
# Si number density = 19.728638 Si / 1000 Ang^3
#
#
#
# Elastic Constant Matrix: (Units=GPa)
#
#
# Indices 1 2 3 4 5 6 
#
# 1 43.2239 12.6135 3.8074 0.0000 0.0000 0.0000
# 2 12.6135 63.1262 17.9252 0.0000 0.0000 0.0000
# 3 3.8074 17.9252 88.2608 0.0000 0.0000 0.0000
# 4 0.0000 0.0000 0.0000 32.7808 0.0000 0.0000
# 5 0.0000 0.0000 0.0000 0.0000 27.1608 0.0000
# 6 0.0000 0.0000 0.0000 0.0000 0.0000 27.4290
#
#
#
# Elastic Compliance Matrix: (Units=1/GPa)
#
#
# Indices 1 2 3 4 5 6 
#
# 1 0.024568 -0.004890 -0.000067 0.000000 0.000000 0.000000
# 2 -0.004890 0.017784 -0.003401 0.000000 0.000000 0.000000
# 3 -0.000067 -0.003401 0.012024 0.000000 0.000000 0.000000
# 4 0.000000 0.000000 0.000000 0.030506 0.000000 0.000000
# 5 0.000000 0.000000 0.000000 0.000000 0.036818 0.000000
# 6 0.000000 0.000000 0.000000 0.000000 0.000000 0.036458
#
#
# Mechanical properties :
#
#
# Convention : Reuss Voigt Hill
#
# Bulk Modulus (GPa) = 26.55294 29.25589 27.90442
# Shear Modulus (GPa) = 26.67718 28.15844 27.41781
#
# Velocity S-wave (km/s) = 3.68122 3.78204 3.73197
# Velocity P-wave (km/s) = 5.61755 5.82522 5.72233
#
# Compressibility (1/GPa) = 0.03766061
#
# Stress axis : x y z
#
# Youngs Moduli (GPa) = 40.70291 56.22999 83.16954
#
# Poissons Ratio (x) = 0.27497 0.00554
# Poissons Ratio (y) = 0.19904 0.28285
# Poissons Ratio (z) = 0.00271 0.19123
#
# Static dielectric constant tensor:
#      x y z
#    x 1.700000 0.000000 0.000000 
#    y 0.000000 1.714760 0.000000 
#    z 0.000000 0.000000 1.704010 
# 
# From -- ./inp_files/27167.got.cif
#   From: 2010.05.17/outbox.cif.g08.bks.cpg/sg20_14_cif.got.tgz:27167.got - 2010.06.03 22:52:26.
