data_PCOD9319633
_publ_section_title
;
Structure prediction by ZEFSAII (Michael W. Deem and Ramdas Pophale) SiO2 
 PCOD9319633
Probable space group: C 2 2 21
;
_chemical_formula_sum "Si O2"
_cell_formula_units_Z 32
_cell_length_a 16.569194
_cell_length_b 16.562746
_cell_length_c 5.282290
_cell_angle_alpha 90.000000
_cell_angle_beta 90.000000
_cell_angle_gamma 90.000000
_cell_volume 1449.625984
_symmetry_space_group_name_H-M "C 2 2 21"
_symmetry_group_IT_number 20
_symmetry_cell_setting 'orthorhombic'
loop_
_space_group_symop_operation_xyz
x,y,z
-x,-y,1/2+z
x,-y,-z
-x,y,1/2-z
1/2+x,1/2+y,z
1/2-x,1/2-y,1/2+z
1/2+x,1/2-y,-z
1/2-x,1/2+y,1/2-z
loop_
_atom_site_type_symbol
_atom_site_label
_atom_site_fract_x
_atom_site_fract_y
_atom_site_fract_z
Si Si1 0.163655 0.418143 0.127369
Si Si2 0.273313 0.702456 0.037586
Si Si3 0.500000 0.055770 0.750000
Si Si4 0.411415 0.413376 0.852516
Si Si5 0.210613 0.000000 0.000000
O O1 0.207418 0.367181 0.914369
O O2 0.232190 0.447610 0.319253
O O3 0.079321 0.387263 0.231822
O O4 0.135115 0.500000 0.000000
O O5 0.239110 0.737747 0.772338
O O6 0.361141 0.659470 0.013845
O O7 0.518388 0.000000 0.500000
O O8 0.500000 0.391285 0.750000
O O9 0.349797 0.437477 0.631546
O O10 0.419291 0.500000 0.000000
#
# Coordination Sequence:
#
# PCOD9319633 Si02
#       5
#     8   8   4   8   4
#     4  11  22  41  72  99 130 185 240 294 339 427
#     4  12  27  46  71 102 150 195 228 285 380 454
#     4  10  22  36  66 104 124 160 228 294 326 386
#     4  12  25  43  77 111 138 188 254 317 359 424
#     4  12  18  40  74 106 134 172 242 308 366 408
#
# _framework density 22.074660000000002
#
# number of rings (size 3 to 8) (size 9 to 14) (size 15 to 20)
#    0.000    0.500    7.500    1.500    0.000    0.000 
#    2.250    0.000    5.500    0.000    0.000    0.000 
#    0.000    0.000    0.000    0.000    0.000    0.000 
#
# Total GULP energy -89134.598137 kJ/mol
# GULP energy per Si atom -5570.912384 kJ/mol
# Density = 2.202442 g / cm^3
# Si number density = 22.074660 Si / 1000 Ang^3
#
#
#
# Elastic Constant Matrix: (Units=GPa)
#
#
# Indices 1 2 3 4 5 6 
#
# 1 210.6905 22.3372 19.4450 0.0000 0.0000 0.0000
# 2 22.3372 53.3677 -4.9156 0.0000 0.0000 0.0000
# 3 19.4450 -4.9156 55.7936 0.0000 0.0000 0.0000
# 4 0.0000 0.0000 0.0000 24.0294 0.0000 0.0000
# 5 0.0000 0.0000 0.0000 0.0000 500.7373 0.0000
# 6 0.0000 0.0000 0.0000 0.0000 0.0000 0.2512
#
#
#
# Elastic Compliance Matrix: (Units=1/GPa)
#
#
# Indices 1 2 3 4 5 6 
#
# 1 0.005182 -0.002354 -0.002013 0.000000 0.000000 0.000000
# 2 -0.002354 0.019961 0.002579 0.000000 0.000000 0.000000
# 3 -0.002013 0.002579 0.018852 0.000000 0.000000 0.000000
# 4 0.000000 0.000000 0.000000 0.041616 0.000000 0.000000
# 5 0.000000 0.000000 0.000000 0.000000 0.001997 0.000000
# 6 0.000000 0.000000 0.000000 0.000000 0.000000 3.981600
#
#
# Mechanical properties :
#
#
# Convention : Reuss Voigt Hill
#
# Bulk Modulus (GPa) = 24.74164 43.73168 34.23666
# Shear Modulus (GPa) = 1.22361 123.86926 62.54643
#
# Velocity S-wave (km/s) = 0.74533 7.49904 5.32875
# Velocity P-wave (km/s) = 3.46023 9.73831 7.30780
#
# Compressibility (1/GPa) = 0.04041769
#
# Stress axis : x y z
#
# Youngs Moduli (GPa) = 192.98661 50.09806 53.04450
#
# Poissons Ratio (x) = 0.11794 0.10680
# Poissons Ratio (y) = 0.45434 -0.13681
# Poissons Ratio (z) = 0.38854 -0.12921
#
# Static dielectric constant tensor:
#      x y z
#    x 1.853330 0.000000 0.000000 
#    y 0.000000 1.118310 0.000000 
#    z 0.000000 0.000000 1.914620 
# 
# From -- ./inp_files/1598.got.cif
#   From: 2010.05.17/outbox.cif.g08.bks.cpg/sg20_1_cif.got.tgz:1598.got - 2010.06.03 22:52:26.
