data_PCOD9319391
_publ_section_title
;
Structure prediction by ZEFSAII (Michael W. Deem and Ramdas Pophale) SiO2 
 PCOD9319391
Probable space group: C 2 2 21
;
_chemical_formula_sum "Si O2"
_cell_formula_units_Z 40
_cell_length_a 24.676769
_cell_length_b 8.876748
_cell_length_c 8.257277
_cell_angle_alpha 90.000000
_cell_angle_beta 90.000000
_cell_angle_gamma 90.000000
_cell_volume 1808.752067
_symmetry_space_group_name_H-M "C 2 2 21"
_symmetry_group_IT_number 20
_symmetry_cell_setting 'orthorhombic'
loop_
_space_group_symop_operation_xyz
x,y,z
-x,-y,1/2+z
x,-y,-z
-x,y,1/2-z
1/2+x,1/2+y,z
1/2-x,1/2-y,1/2+z
1/2+x,1/2-y,-z
1/2-x,1/2+y,1/2-z
loop_
_atom_site_type_symbol
_atom_site_label
_atom_site_fract_x
_atom_site_fract_y
_atom_site_fract_z
Si Si1 0.714942 0.923675 0.741625
Si Si2 0.406828 0.906548 0.838306
Si Si3 0.077068 0.299398 0.153489
Si Si4 0.469033 0.321989 0.987806
Si Si5 0.800492 0.268240 0.416805
O O1 0.657541 0.880521 0.661555
O O2 0.765604 0.874169 0.635630
O O3 0.711820 0.098973 0.786899
O O4 0.716871 0.834314 0.911036
O O5 0.420284 0.021432 0.693123
O O6 0.439428 0.752896 0.858567
O O7 0.421324 0.000000 0.000000
O O8 0.065821 0.217647 0.326104
O O9 0.134873 0.249065 0.085166
O O10 0.026930 0.255237 0.042389
O O11 0.474801 0.500000 0.000000
#
# Coordination Sequence:
#
# PCOD9319391 Si02
#       5
#     8   8   8   8   8
#     4  10  23  41  65  96 127 169 213 269 325 387
#     4   9  20  42  67  90 124 176 219 260 319 407
#     4   9  21  45  60  91 130 169 214 269 318 406
#     4  10  21  42  64  94 131 166 215 274 334 382
#     4  10  23  43  64  94 130 165 219 268 322 394
#
# _framework density 22.114695000000001
#
# number of rings (size 3 to 8) (size 9 to 14) (size 15 to 20)
#    0.000    2.400    0.000    0.000    8.400    1.600 
#   50.400    0.000    0.000    0.000    0.000    0.000 
#    0.000    0.000    0.000    0.000    0.000    0.000 
#
# Total GULP energy -111888.501106 kJ/mol
# GULP energy per Si atom -5594.425055 kJ/mol
# Density = 2.206436 g / cm^3
# Si number density = 22.114695 Si / 1000 Ang^3
#
#
#
# Elastic Constant Matrix: (Units=GPa)
#
#
# Indices 1 2 3 4 5 6 
#
# 1 105.5304 63.3064 23.4702 0.0000 0.0000 0.0000
# 2 63.3064 65.0451 16.8447 0.0000 0.0000 0.0000
# 3 23.4702 16.8447 48.8832 0.0000 0.0000 0.0000
# 4 0.0000 0.0000 0.0000 20.7354 0.0000 0.0000
# 5 0.0000 0.0000 0.0000 0.0000 35.5317 0.0000
# 6 0.0000 0.0000 0.0000 0.0000 0.0000 32.8101
#
#
#
# Elastic Compliance Matrix: (Units=1/GPa)
#
#
# Indices 1 2 3 4 5 6 
#
# 1 0.023369 -0.021782 -0.003714 0.000000 0.000000 0.000000
# 2 -0.021782 0.037184 -0.002355 0.000000 0.000000 0.000000
# 3 -0.003714 -0.002355 0.023052 0.000000 0.000000 0.000000
# 4 0.000000 0.000000 0.000000 0.048227 0.000000 0.000000
# 5 0.000000 0.000000 0.000000 0.000000 0.028144 0.000000
# 6 0.000000 0.000000 0.000000 0.000000 0.000000 0.030478
#
#
# Mechanical properties :
#
#
# Convention : Reuss Voigt Hill
#
# Bulk Modulus (GPa) = 35.84004 47.41125 41.62565
# Shear Modulus (GPa) = 19.57276 25.53793 22.55535
#
# Velocity S-wave (km/s) = 2.97822 3.40191 3.19709
# Velocity P-wave (km/s) = 5.29792 6.07586 5.70018
#
# Compressibility (1/GPa) = 0.02790175
#
# Stress axis : x y z
#
# Youngs Moduli (GPa) = 42.79175 26.89332 43.38089
#
# Poissons Ratio (x) = 0.58580 0.16112
# Poissons Ratio (y) = 0.93211 0.10216
# Poissons Ratio (z) = 0.15893 0.06333
#
# Static dielectric constant tensor:
#      x y z
#    x 1.765490 0.000000 0.000000 
#    y 0.000000 1.806650 0.000000 
#    z 0.000000 0.000000 1.873920 
# 
# From -- ./inp_files/6066.got.cif
#   From: 2010.05.17/outbox.cif.g08.bks.cpg/sg20_4_cif.got.tgz:6066.got - 2010.06.03 22:52:26.
