data_PCOD9319686
_publ_section_title
;
Structure prediction by ZEFSAII (Michael W. Deem and Ramdas Pophale) SiO2 
 PCOD9319686
Probable space group: C 2 2 21
;
_chemical_formula_sum "Si O2"
_cell_formula_units_Z 60
_cell_length_a 16.318807
_cell_length_b 14.102077
_cell_length_c 12.076518
_cell_angle_alpha 90.000000
_cell_angle_beta 90.000000
_cell_angle_gamma 90.000000
_cell_volume 2779.157891
_symmetry_space_group_name_H-M "C 2 2 21"
_symmetry_group_IT_number 20
_symmetry_cell_setting 'orthorhombic'
loop_
_space_group_symop_operation_xyz
x,y,z
-x,-y,1/2+z
x,-y,-z
-x,y,1/2-z
1/2+x,1/2+y,z
1/2-x,1/2-y,1/2+z
1/2+x,1/2-y,-z
1/2-x,1/2+y,1/2-z
loop_
_atom_site_type_symbol
_atom_site_label
_atom_site_fract_x
_atom_site_fract_y
_atom_site_fract_z
Si Si1 0.193459 0.442422 0.359463
Si Si2 0.225810 0.880984 0.926680
Si Si3 0.990534 0.501797 0.133622
Si Si4 0.500000 0.414483 0.750000
Si Si5 0.952711 0.843603 0.516965
Si Si6 0.600652 0.553602 0.605935
Si Si7 0.281043 0.706104 0.785076
Si Si8 0.932115 0.702317 0.337244
O O1 0.260419 0.526473 0.351873
O O2 0.207484 0.390081 0.476434
O O3 0.108088 0.497101 0.364148
O O4 0.213772 0.361909 0.270783
O O5 0.138696 0.883702 0.986610
O O6 0.238305 0.785285 0.859667
O O7 0.950584 0.591198 0.337378
O O8 0.000000 0.439830 0.250000
O O9 0.007831 0.500000 0.000000
O O10 0.476545 0.351267 0.644812
O O11 0.572131 0.482591 0.703242
O O12 0.950852 0.741962 0.458936
O O13 0.016405 0.903742 0.444583
O O14 0.639207 0.500000 0.500000
O O15 0.658997 0.636570 0.647211
O O16 0.342997 0.761993 0.701517
O O17 0.000000 0.742189 0.250000
#
# Coordination Sequence:
#
# PCOD9319686 Si02
#       8
#     8   8   8   4   8   8   8   8
#     4  11  25  46  74 101 148 198 243 313 390 458
#     4  11  24  43  71 102 145 189 249 300 390 454
#     4  11  25  48  75 108 149 204 254 312 381 458
#     4  10  22  38  62 100 138 174 234 302 378 422
#     4  11  22  40  65 104 137 182 239 309 363 449
#     4  10  22  39  68  98 138 184 239 304 377 445
#     4  12  24  47  72 104 143 195 254 307 373 465
#     4  11  22  41  74 101 134 193 255 293 363 458
#
# _framework density 21.589274
#
# number of rings (size 3 to 8) (size 9 to 14) (size 15 to 20)
#    0.000    1.067    4.000    3.200    5.600    1.067 
#   10.800    0.667    0.000    0.000    0.000    0.000 
#    0.000    0.000    0.000    0.000    0.000    0.000 
#
# Total GULP energy -167083.970302 kJ/mol
# GULP energy per Si atom -5569.465677 kJ/mol
# Density = 2.154014 g / cm^3
# Si number density = 21.589274 Si / 1000 Ang^3
#
#
#
# Elastic Constant Matrix: (Units=GPa)
#
#
# Indices 1 2 3 4 5 6 
#
# 1 48.0666 7.0249 22.1653 0.0000 0.0000 0.0000
# 2 7.0249 92.4860 40.0523 0.0000 0.0000 0.0000
# 3 22.1653 40.0523 142.3230 0.0000 0.0000 0.0000
# 4 0.0000 0.0000 0.0000 41.7050 0.0000 0.0000
# 5 0.0000 0.0000 0.0000 0.0000 27.8103 0.0000
# 6 0.0000 0.0000 0.0000 0.0000 0.0000 7.6644
#
#
#
# Elastic Compliance Matrix: (Units=1/GPa)
#
#
# Indices 1 2 3 4 5 6 
#
# 1 0.022418 -0.000217 -0.003430 0.000000 0.000000 0.000000
# 2 -0.000217 0.012315 -0.003432 0.000000 0.000000 0.000000
# 3 -0.003430 -0.003432 0.008526 0.000000 0.000000 0.000000
# 4 0.000000 0.000000 0.000000 0.023978 0.000000 0.000000
# 5 0.000000 0.000000 0.000000 0.000000 0.035958 0.000000
# 6 0.000000 0.000000 0.000000 0.000000 0.000000 0.130474
#
#
# Mechanical properties :
#
#
# Convention : Reuss Voigt Hill
#
# Bulk Modulus (GPa) = 34.36339 46.81783 40.59061
# Shear Modulus (GPa) = 19.41535 29.67815 24.54675
#
# Velocity S-wave (km/s) = 3.00210 3.71168 3.37558
# Velocity P-wave (km/s) = 5.28850 6.33257 5.83394
#
# Compressibility (1/GPa) = 0.02910074
#
# Stress axis : x y z
#
# Youngs Moduli (GPa) = 44.60691 81.20067 117.28440
#
# Poissons Ratio (x) = 0.01764 0.40231
# Poissons Ratio (y) = 0.00969 0.40250
# Poissons Ratio (z) = 0.15301 0.27867
#
# Static dielectric constant tensor:
#      x y z
#    x 1.822440 0.000000 0.000000 
#    y 0.000000 1.816300 0.000000 
#    z 0.000000 0.000000 1.816640 
# 
# From -- ./inp_files/15863.got.cif
#   From: 2010.05.17/outbox.cif.g08.bks.cpg/sg20_8_cif.got.tgz:15863.got - 2010.06.03 22:52:26.
