data_PCOD9319440
_publ_section_title
;
Structure prediction by ZEFSAII (Michael W. Deem and Ramdas Pophale) SiO2 
 PCOD9319440
Probable space group: C 2 2 21
;
_chemical_formula_sum "Si O2"
_cell_formula_units_Z 64
_cell_length_a 5.213410
_cell_length_b 17.114462
_cell_length_c 30.024012
_cell_angle_alpha 90.000000
_cell_angle_beta 90.000000
_cell_angle_gamma 90.000000
_cell_volume 2678.883684
_symmetry_space_group_name_H-M "C 2 2 21"
_symmetry_group_IT_number 20
_symmetry_cell_setting 'orthorhombic'
loop_
_space_group_symop_operation_xyz
x,y,z
-x,-y,1/2+z
x,-y,-z
-x,y,1/2-z
1/2+x,1/2+y,z
1/2-x,1/2-y,1/2+z
1/2+x,1/2-y,-z
1/2-x,1/2+y,1/2-z
loop_
_atom_site_type_symbol
_atom_site_label
_atom_site_fract_x
_atom_site_fract_y
_atom_site_fract_z
Si Si1 0.645421 0.191111 0.564406
Si Si2 0.443285 0.862502 0.814321
Si Si3 0.328313 0.771626 0.206491
Si Si4 0.433647 0.435455 0.835056
Si Si5 0.616110 0.608940 0.851360
Si Si6 0.739735 0.134171 0.071157
Si Si7 0.729352 0.243647 0.872227
Si Si8 0.752440 0.586570 0.020170
O O1 0.722402 0.130975 0.604262
O O2 0.801898 0.272118 0.566729
O O3 0.368881 0.224694 0.578886
O O4 0.667031 0.147053 0.518542
O O5 0.161158 0.896766 0.805279
O O6 0.387950 0.821937 0.862581
O O7 0.590544 0.788756 0.792191
O O8 0.656349 0.929642 0.811652
O O9 0.500000 0.766757 0.250000
O O10 0.244841 0.859238 0.194000
O O11 0.492870 0.749375 0.162614
O O12 0.531747 0.520686 0.847695
O O13 0.362636 0.392342 0.881601
O O14 0.378140 0.667419 0.856439
O O15 0.972790 0.110716 0.037868
O O16 0.481207 0.090024 0.056411
O O17 0.738583 0.500000 0.000000
#
# Coordination Sequence:
#
# PCOD9319440 Si02
#       8
#     8   8   8   8   8   8   8   8
#     4  11  24  43  66  96 134 175 240 276 341 421
#     4  11  22  43  68 100 130 176 225 276 331 409
#     4  10  22  45  72 103 139 180 231 283 342 418
#     4  12  24  43  70 101 140 174 236 283 345 415
#     4  10  25  39  71 101 137 183 224 285 349 410
#     4  12  25  43  67  94 131 185 227 291 347 402
#     4  10  21  42  69  99 126 184 225 281 333 411
#     4  12  28  43  62  97 137 179 229 292 359 407
#
# _framework density 23.890550000000001
#
# number of rings (size 3 to 8) (size 9 to 14) (size 15 to 20)
#    0.000    1.000    2.500    4.125    8.750    2.000 
#    0.000    1.250    0.000    0.000    0.000    0.000 
#    0.000    0.000    0.000    0.000    0.000    0.000 
#
# Total GULP energy -178723.153029 kJ/mol
# GULP energy per Si atom -5585.098532 kJ/mol
# Density = 2.383617 g / cm^3
# Si number density = 23.890550 Si / 1000 Ang^3
#
#
#
# Elastic Constant Matrix: (Units=GPa)
#
#
# Indices 1 2 3 4 5 6 
#
# 1 120.0229 10.0549 4.7937 0.0000 0.0000 0.0000
# 2 10.0549 105.9408 -3.9074 0.0000 0.0000 0.0000
# 3 4.7937 -3.9074 55.6416 0.0000 0.0000 0.0000
# 4 0.0000 0.0000 0.0000 -10.7824 0.0000 0.0000
# 5 0.0000 0.0000 0.0000 0.0000 22.2382 0.0000
# 6 0.0000 0.0000 0.0000 0.0000 0.0000 38.5791
#
#
#
# Elastic Compliance Matrix: (Units=1/GPa)
#
#
# Indices 1 2 3 4 5 6 
#
# 1 0.008433 -0.000829 -0.000785 0.000000 0.000000 0.000000
# 2 -0.000829 0.009545 0.000742 0.000000 0.000000 0.000000
# 3 -0.000785 0.000742 0.018092 0.000000 0.000000 0.000000
# 4 0.000000 0.000000 0.000000 -0.092743 0.000000 0.000000
# 5 0.000000 0.000000 0.000000 0.000000 0.044968 0.000000
# 6 0.000000 0.000000 0.000000 0.000000 0.000000 0.025921
#
#
# Mechanical properties :
#
#
# Convention : Reuss Voigt Hill
#
# Bulk Modulus (GPa) = 29.13309 33.72084 31.42697
# Shear Modulus (GPa) = 182.47412 28.05123 105.26267
#
# Velocity S-wave (km/s) = 8.74900 3.43031 6.64500
# Velocity P-wave (km/s) = 10.69022 5.46212 8.48869
#
# Compressibility (1/GPa) = 0.03432523
#
# Stress axis : x y z
#
# Youngs Moduli (GPa) = 118.58794 104.76355 55.27346
#
# Poissons Ratio (x) = 0.08688 0.04337
# Poissons Ratio (y) = 0.09834 -0.04100
# Poissons Ratio (z) = 0.09306 -0.07771
#
# Static dielectric constant tensor:
#      x y z
#    x 2.009850 0.000000 0.000000 
#    y 0.000000 1.895230 0.000000 
#    z 0.000000 0.000000 1.957700 
# 
# From -- ./inp_files/30853.got.cif
#   From: 2010.05.17/outbox.cif.g08.bks.cpg/sg20_16_cif.got.tgz:30853.got - 2010.06.03 22:52:26.
