data_PCOD9319434
_publ_section_title
;
Structure prediction by ZEFSAII (Michael W. Deem and Ramdas Pophale) SiO2 
 PCOD9319434
Probable space group: C 2 2 21
;
_chemical_formula_sum "Si O2"
_cell_formula_units_Z 32
_cell_length_a 21.323036
_cell_length_b 9.150785
_cell_length_c 7.170929
_cell_angle_alpha 90.000000
_cell_angle_beta 90.000000
_cell_angle_gamma 90.000000
_cell_volume 1399.209723
_symmetry_space_group_name_H-M "C 2 2 21"
_symmetry_group_IT_number 20
_symmetry_cell_setting 'orthorhombic'
loop_
_space_group_symop_operation_xyz
x,y,z
-x,-y,1/2+z
x,-y,-z
-x,y,1/2-z
1/2+x,1/2+y,z
1/2-x,1/2-y,1/2+z
1/2+x,1/2-y,-z
1/2-x,1/2+y,1/2-z
loop_
_atom_site_type_symbol
_atom_site_label
_atom_site_fract_x
_atom_site_fract_y
_atom_site_fract_z
Si Si1 0.175693 0.738515 0.709893
Si Si2 0.500000 0.872315 0.750000
Si Si3 0.296161 0.446599 0.280555
Si Si4 0.413264 0.333853 0.457400
Si Si5 0.603093 0.000000 0.500000
O O1 0.237436 0.651244 0.773899
O O2 0.145061 0.639106 0.551489
O O3 0.196059 0.903982 0.666404
O O4 0.124684 0.762110 0.872516
O O5 0.529030 0.766568 0.905313
O O6 0.557087 0.965102 0.670773
O O7 0.287139 0.500000 0.500000
O O8 0.361063 0.356561 0.294732
O O9 0.433803 0.500000 0.500000
#
# Coordination Sequence:
#
# PCOD9319434 Si02
#       5
#     8   4   8   8   4
#     4  10  21  42  68  98 133 164 218 267 328 385
#     4  12  26  44  64  90 134 178 216 264 316 384
#     4   9  20  40  64 102 132 162 209 269 327 386
#     4   9  23  43  65  95 129 170 218 266 320 386
#     4  12  26  42  64  96 130 176 220 262 318 390
#
# _framework density 22.870051
#
# number of rings (size 3 to 8) (size 9 to 14) (size 15 to 20)
#    0.000    2.500    1.250    1.500    3.500    4.000 
#    4.500   10.000    0.000    0.000    0.000    0.000 
#    0.000    0.000    0.000    0.000    0.000    0.000 
#
# Total GULP energy -89458.143812 kJ/mol
# GULP energy per Si atom -5591.133988 kJ/mol
# Density = 2.281800 g / cm^3
# Si number density = 22.870051 Si / 1000 Ang^3
#
#
#
# Elastic Constant Matrix: (Units=GPa)
#
#
# Indices 1 2 3 4 5 6 
#
# 1 53.5079 34.8536 3.4348 0.0000 0.0000 0.0000
# 2 34.8536 131.5192 47.7187 0.0000 0.0000 0.0000
# 3 3.4348 47.7187 40.8891 0.0000 0.0000 0.0000
# 4 0.0000 0.0000 0.0000 37.3632 0.0000 0.0000
# 5 0.0000 0.0000 0.0000 0.0000 -75.5377 0.0000
# 6 0.0000 0.0000 0.0000 0.0000 0.0000 11.9168
#
#
#
# Elastic Compliance Matrix: (Units=1/GPa)
#
#
# Indices 1 2 3 4 5 6 
#
# 1 0.024587 -0.010001 0.009606 0.000000 0.000000 0.000000
# 2 -0.010001 0.017255 -0.019297 0.000000 0.000000 0.000000
# 3 0.009606 -0.019297 0.046170 0.000000 0.000000 0.000000
# 4 0.000000 0.000000 0.000000 0.026764 0.000000 0.000000
# 5 0.000000 0.000000 0.000000 0.000000 -0.013238 0.000000
# 6 0.000000 0.000000 0.000000 0.000000 0.000000 0.083915
#
#
# Mechanical properties :
#
#
# Convention : Reuss Voigt Hill
#
# Bulk Modulus (GPa) = 20.56452 44.21450 32.38951
# Shear Modulus (GPa) = 20.74286 4.07573 12.40930
#
# Velocity S-wave (km/s) = 3.01489 1.33641 2.33191
# Velocity P-wave (km/s) = 4.59683 4.66436 4.63072
#
# Compressibility (1/GPa) = 0.04862745
#
# Stress axis : x y z
#
# Youngs Moduli (GPa) = 40.67256 57.95270 21.65902
#
# Poissons Ratio (x) = 0.57959 -0.20806
# Poissons Ratio (y) = 0.40677 0.41796
# Poissons Ratio (z) = -0.39071 1.11834
#
# Static dielectric constant tensor:
#      x y z
#    x 1.791510 0.000000 0.000000 
#    y 0.000000 1.822810 0.000000 
#    z 0.000000 0.000000 1.980680 
# 
# From -- ./inp_files/5823.got.cif
#   From: 2010.05.17/outbox.cif.g08.bks.cpg/sg20_3_cif.got.tgz:5823.got - 2010.06.03 22:52:26.
