data_PCOD9319229
_publ_section_title
;
Structure prediction by ZEFSAII (Michael W. Deem and Ramdas Pophale) SiO2 
 PCOD9319229
Probable space group: C 2 2 21
;
_chemical_formula_sum "Si O2"
_cell_formula_units_Z 56
_cell_length_a 29.214001
_cell_length_b 15.311941
_cell_length_c 5.198687
_cell_angle_alpha 90.000000
_cell_angle_beta 90.000000
_cell_angle_gamma 90.000000
_cell_volume 2325.492575
_symmetry_space_group_name_H-M "C 2 2 21"
_symmetry_group_IT_number 20
_symmetry_cell_setting 'orthorhombic'
loop_
_space_group_symop_operation_xyz
x,y,z
-x,-y,1/2+z
x,-y,-z
-x,y,1/2-z
1/2+x,1/2+y,z
1/2-x,1/2-y,1/2+z
1/2+x,1/2-y,-z
1/2-x,1/2+y,1/2-z
loop_
_atom_site_type_symbol
_atom_site_label
_atom_site_fract_x
_atom_site_fract_y
_atom_site_fract_z
Si Si1 0.238851 0.133000 0.454433
Si Si2 0.626909 0.241290 0.326862
Si Si3 0.786697 0.660325 0.957417
Si Si4 0.928891 0.732060 0.664062
Si Si5 0.069839 0.000000 0.500000
Si Si6 0.156587 0.928714 0.215748
Si Si7 0.552710 0.038051 0.746962
Si Si8 0.000000 0.866491 0.750000
O O1 0.227804 0.236895 0.442855
O O2 0.255812 0.112030 0.169721
O O3 0.193986 0.084008 0.557429
O O4 0.277367 0.122597 0.675475
O O5 0.663111 0.170351 0.425714
O O6 0.601667 0.268562 0.595047
O O7 0.649428 0.324297 0.170493
O O8 0.595097 0.206650 0.101941
O O9 0.948162 0.641608 0.770000
O O10 0.967626 0.801785 0.590517
O O11 0.105947 0.039304 0.702622
O O12 0.035546 0.073175 0.398615
O O13 0.170234 0.000000 0.000000
O O14 0.500000 0.004725 0.750000
O O15 0.576793 0.000000 0.500000
O O16 0.575103 0.000000 0.000000
#
# Coordination Sequence:
#
# PCOD9319229 Si02
#       8
#     8   8   8   8   4   8   8   4
#     4   9  19  35  65  90 124 155 213 279 358 409
#     4  11  24  41  68  99 138 182 244 288 364 424
#     4   9  18  37  61  96 120 156 206 287 346 426
#     4  12  24  44  68 102 135 190 242 299 350 451
#     4  12  28  46  62  94 148 202 254 312 364 402
#     4  11  25  42  64  96 136 192 247 305 354 423
#     4  10  21  40  66  97 125 157 212 292 356 419
#     4  12  28  46  66  96 148 204 262 308 368 416
#
# _framework density 24.080916999999999
#
# number of rings (size 3 to 8) (size 9 to 14) (size 15 to 20)
#    0.000    1.429    2.143    2.571    5.000    2.857 
#    0.000    0.000    0.000    8.571    0.000    0.000 
#    0.000    0.000    0.000    0.000    0.000    0.000 
#
# Total GULP energy -156251.994406 kJ/mol
# GULP energy per Si atom -5580.428372 kJ/mol
# Density = 2.402611 g / cm^3
# Si number density = 24.080917 Si / 1000 Ang^3
#
#
#
# Elastic Constant Matrix: (Units=GPa)
#
#
# Indices 1 2 3 4 5 6 
#
# 1 86.8861 20.9269 13.2329 0.0000 0.0000 0.0000
# 2 20.9269 86.2192 13.3303 0.0000 0.0000 0.0000
# 3 13.2329 13.3303 94.8242 0.0000 0.0000 0.0000
# 4 0.0000 0.0000 0.0000 35.3796 0.0000 0.0000
# 5 0.0000 0.0000 0.0000 0.0000 7.1922 0.0000
# 6 0.0000 0.0000 0.0000 0.0000 0.0000 -425.6493
#
#
#
# Elastic Compliance Matrix: (Units=1/GPa)
#
#
# Indices 1 2 3 4 5 6 
#
# 1 0.012387 -0.002800 -0.001335 0.000000 0.000000 0.000000
# 2 -0.002800 0.012489 -0.001365 0.000000 0.000000 0.000000
# 3 -0.001335 -0.001365 0.010924 0.000000 0.000000 0.000000
# 4 0.000000 0.000000 0.000000 0.028265 0.000000 0.000000
# 5 0.000000 0.000000 0.000000 0.000000 0.139039 0.000000
# 6 0.000000 0.000000 0.000000 0.000000 0.000000 -0.002349
#
#
# Mechanical properties :
#
#
# Convention : Reuss Voigt Hill
#
# Bulk Modulus (GPa) = 40.32266 40.32330 40.32298
# Shear Modulus (GPa) = 22.72504 -61.91953 -19.59725
#
# Velocity S-wave (km/s) = 3.07529 -5.07631 -2.85583
# Velocity P-wave (km/s) = 5.42134 4.19253 2.43039
#
# Compressibility (1/GPa) = 0.02479995
#
# Stress axis : x y z
#
# Youngs Moduli (GPa) = 80.72929 80.07033 91.54151
#
# Poissons Ratio (x) = 0.22421 0.12221
# Poissons Ratio (y) = 0.22605 0.12495
# Poissons Ratio (z) = 0.10777 0.10929
#
# Static dielectric constant tensor:
#      x y z
#    x 1.661800 0.000000 0.000000 
#    y 0.000000 1.951290 0.000000 
#    z 0.000000 0.000000 1.942050 
# 
# From -- ./inp_files/4708.got.cif
#   From: 2010.05.17/outbox.cif.g08.bks.cpg/sg20_3_cif.got.tgz:4708.got - 2010.06.03 22:52:26.
