data_PCOD9319614
_publ_section_title
;
Structure prediction by ZEFSAII (Michael W. Deem and Ramdas Pophale) SiO2 
 PCOD9319614
Probable space group: C 2 2 21
;
_chemical_formula_sum "Si O2"
_cell_formula_units_Z 56
_cell_length_a 22.572960
_cell_length_b 6.157531
_cell_length_c 21.527570
_cell_angle_alpha 90.000000
_cell_angle_beta 90.000000
_cell_angle_gamma 90.000000
_cell_volume 2992.196627
_symmetry_space_group_name_H-M "C 2 2 21"
_symmetry_group_IT_number 20
_symmetry_cell_setting 'orthorhombic'
loop_
_space_group_symop_operation_xyz
x,y,z
-x,-y,1/2+z
x,-y,-z
-x,y,1/2-z
1/2+x,1/2+y,z
1/2-x,1/2-y,1/2+z
1/2+x,1/2-y,-z
1/2-x,1/2+y,1/2-z
loop_
_atom_site_type_symbol
_atom_site_label
_atom_site_fract_x
_atom_site_fract_y
_atom_site_fract_z
Si Si1 0.500000 0.727436 0.750000
Si Si2 0.865606 0.613559 0.066490
Si Si3 0.911823 0.000000 0.000000
Si Si4 0.106632 0.058112 0.265506
Si Si5 0.425989 0.933404 0.330842
Si Si6 0.514431 0.879672 0.438478
Si Si7 0.694334 0.875613 0.324489
Si Si8 0.183495 0.322296 0.796843
O O1 0.451206 0.578581 0.784508
O O2 0.534940 0.883341 0.796589
O O3 0.821236 0.535767 0.119214
O O4 0.931198 0.529120 0.086054
O O5 0.852698 0.500000 0.000000
O O6 0.872315 0.863972 0.048394
O O7 0.953541 0.837573 0.961679
O O8 0.084362 0.233465 0.215400
O O9 0.142212 0.197271 0.316185
O O10 0.151099 0.887953 0.232798
O O11 0.362699 0.049704 0.340514
O O12 0.462670 0.854932 0.389629
O O13 0.491384 0.000000 0.500000
O O14 0.756570 0.753107 0.329374
O O15 0.696432 0.016075 0.260904
#
# Coordination Sequence:
#
# PCOD9319614 Si02
#       8
#     4   8   4   8   8   8   8   8
#     4  10  22  36  54  92 122 150 186 240 310 360
#     4   9  21  37  59  90 117 151 202 247 298 361
#     4   8  18  40  54  92 118 158 192 234 328 346
#     4  10  22  36  56  88 119 157 191 241 303 356
#     4  10  22  38  56  88 123 148 203 242 291 368
#     4   9  20  38  60  88 121 152 196 244 300 366
#     4  11  21  40  62  85 124 156 207 251 293 365
#     4  10  22  38  60  87 115 165 200 240 310 348
#
# _framework density 18.715347999999999
#
# number of rings (size 3 to 8) (size 9 to 14) (size 15 to 20)
#    0.000    2.571    1.429    0.429    8.000    6.857 
#    2.571    0.000    3.143    0.000    0.000    0.000 
#    0.000    0.000    0.000    0.000    0.000    0.000 
#
# Total GULP energy -156263.359913 kJ/mol
# GULP energy per Si atom -5580.834283 kJ/mol
# Density = 1.867275 g / cm^3
# Si number density = 18.715348 Si / 1000 Ang^3
#
#
#
# Elastic Constant Matrix: (Units=GPa)
#
#
# Indices 1 2 3 4 5 6 
#
# 1 91.7674 21.3944 31.4832 0.0000 0.0000 0.0000
# 2 21.3944 84.6224 6.5537 0.0000 0.0000 0.0000
# 3 31.4832 6.5537 45.6615 0.0000 0.0000 0.0000
# 4 0.0000 0.0000 0.0000 15.7174 0.0000 0.0000
# 5 0.0000 0.0000 0.0000 0.0000 20.6558 0.0000
# 6 0.0000 0.0000 0.0000 0.0000 0.0000 29.7678
#
#
#
# Elastic Compliance Matrix: (Units=1/GPa)
#
#
# Indices 1 2 3 4 5 6 
#
# 1 0.015002 -0.003025 -0.009910 0.000000 0.000000 0.000000
# 2 -0.003025 0.012560 0.000283 0.000000 0.000000 0.000000
# 3 -0.009910 0.000283 0.028692 0.000000 0.000000 0.000000
# 4 0.000000 0.000000 0.000000 0.063624 0.000000 0.000000
# 5 0.000000 0.000000 0.000000 0.000000 0.048413 0.000000
# 6 0.000000 0.000000 0.000000 0.000000 0.000000 0.033593
#
#
# Mechanical properties :
#
#
# Convention : Reuss Voigt Hill
#
# Bulk Modulus (GPa) = 32.30913 37.87932 35.09423
# Shear Modulus (GPa) = 21.05221 24.06954 22.56088
#
# Velocity S-wave (km/s) = 3.35754 3.59009 3.47576
# Velocity P-wave (km/s) = 5.68609 6.12117 5.90764
#
# Compressibility (1/GPa) = 0.03095100
#
# Stress axis : x y z
#
# Youngs Moduli (GPa) = 66.65676 79.61687 34.85260
#
# Poissons Ratio (x) = 0.24088 0.34538
# Poissons Ratio (y) = 0.20167 -0.00987
# Poissons Ratio (z) = 0.66055 -0.02255
#
# Static dielectric constant tensor:
#      x y z
#    x 1.651710 0.000000 0.000000 
#    y 0.000000 1.680710 0.000000 
#    z 0.000000 0.000000 1.638810 
# 
# From -- ./inp_files/29596.got.cif
#   From: 2010.05.17/outbox.cif.g08.bks.cpg/sg20_15_cif.got.tgz:29596.got - 2010.06.03 22:52:26.
