data_PCOD9319794
_publ_section_title
;
Structure prediction by ZEFSAII (Michael W. Deem and Ramdas Pophale) SiO2 
 PCOD9319794
Probable space group: C 2 2 21
;
_chemical_formula_sum "Si O2"
_cell_formula_units_Z 64
_cell_length_a 16.495607
_cell_length_b 7.686337
_cell_length_c 20.870316
_cell_angle_alpha 90.000000
_cell_angle_beta 90.000000
_cell_angle_gamma 90.000000
_cell_volume 2646.163945
_symmetry_space_group_name_H-M "C 2 2 21"
_symmetry_group_IT_number 20
_symmetry_cell_setting 'orthorhombic'
loop_
_space_group_symop_operation_xyz
x,y,z
-x,-y,1/2+z
x,-y,-z
-x,y,1/2-z
1/2+x,1/2+y,z
1/2-x,1/2-y,1/2+z
1/2+x,1/2-y,-z
1/2-x,1/2+y,1/2-z
loop_
_atom_site_type_symbol
_atom_site_label
_atom_site_fract_x
_atom_site_fract_y
_atom_site_fract_z
Si Si1 0.129222 0.163697 0.595689
Si Si2 0.183640 0.710205 0.270878
Si Si3 0.961113 0.108364 0.565252
Si Si4 0.297471 0.889782 0.435453
Si Si5 0.871551 0.234954 0.113567
Si Si6 0.457161 0.251676 0.621021
Si Si7 0.638687 0.186433 0.756429
Si Si8 0.695435 0.246249 0.125593
O O1 0.135277 0.203395 0.671152
O O2 0.215441 0.223468 0.566947
O O3 0.042665 0.222506 0.568946
O O4 0.130277 0.955337 0.581876
O O5 0.279456 0.729478 0.285443
O O6 0.157126 0.510722 0.264614
O O7 0.175765 0.790008 0.199346
O O8 0.878184 0.205356 0.580064
O O9 0.959850 0.000000 0.500000
O O10 0.967131 0.959688 0.620060
O O11 0.381165 0.791953 0.424039
O O12 0.298462 0.000000 0.500000
O O13 0.293691 0.036933 0.379290
O O14 0.877878 0.212529 0.190614
O O15 0.783215 0.319724 0.104591
O O16 0.956862 0.323446 0.097066
O O17 0.431487 0.190385 0.691257
#
# Coordination Sequence:
#
# PCOD9319794 Si02
#       8
#     8   8   8   8   8   8   8   8
#     4  10  22  42  64  93 124 170 214 270 325 387
#     4  11  21  38  64  96 130 160 213 266 335 391
#     4  11  25  43  64  93 129 173 225 267 313 386
#     4  11  21  40  65  90 125 171 218 262 320 388
#     4   9  22  38  61  89 127 165 208 259 324 389
#     4  11  22  40  62  90 125 171 216 256 327 376
#     4  11  21  37  62  96 133 168 206 266 326 401
#     4  10  22  40  60  90 127 164 211 270 323 376
#
# _framework density 24.185953999999999
#
# number of rings (size 3 to 8) (size 9 to 14) (size 15 to 20)
#    0.000    1.500    2.500    3.000    5.250    1.500 
#    2.250    0.625    0.000    0.000    0.000    0.000 
#    0.000    0.000    0.000    0.000    0.000    0.000 
#
# Total GULP energy -178836.534796 kJ/mol
# GULP energy per Si atom -5588.641712 kJ/mol
# Density = 2.413091 g / cm^3
# Si number density = 24.185954 Si / 1000 Ang^3
#
#
#
# Elastic Constant Matrix: (Units=GPa)
#
#
# Indices 1 2 3 4 5 6 
#
# 1 212.1277 16.5864 34.6422 0.0000 0.0000 0.0000
# 2 16.5864 50.0781 2.6389 0.0000 0.0000 0.0000
# 3 34.6422 2.6389 83.4519 0.0000 0.0000 0.0000
# 4 0.0000 0.0000 0.0000 33.6491 0.0000 0.0000
# 5 0.0000 0.0000 0.0000 0.0000 16.5736 0.0000
# 6 0.0000 0.0000 0.0000 0.0000 0.0000 14.8138
#
#
#
# Elastic Compliance Matrix: (Units=1/GPa)
#
#
# Indices 1 2 3 4 5 6 
#
# 1 0.005183 -0.001606 -0.002101 0.000000 0.000000 0.000000
# 2 -0.001606 0.020500 0.000018 0.000000 0.000000 0.000000
# 3 -0.002101 0.000018 0.012854 0.000000 0.000000 0.000000
# 4 0.000000 0.000000 0.000000 0.029718 0.000000 0.000000
# 5 0.000000 0.000000 0.000000 0.000000 0.060337 0.000000
# 6 0.000000 0.000000 0.000000 0.000000 0.000000 0.067505
#
#
# Mechanical properties :
#
#
# Convention : Reuss Voigt Hill
#
# Bulk Modulus (GPa) = 32.09183 50.37696 41.23440
# Shear Modulus (GPa) = 23.37975 32.45997 27.91986
#
# Velocity S-wave (km/s) = 3.11250 3.66744 3.40131
# Velocity P-wave (km/s) = 5.12001 6.22959 5.70185
#
# Compressibility (1/GPa) = 0.03116057
#
# Stress axis : x y z
#
# Youngs Moduli (GPa) = 192.94730 48.78109 77.79441
#
# Poissons Ratio (x) = 0.07834 0.16342
# Poissons Ratio (y) = 0.30985 -0.00143
# Poissons Ratio (z) = 0.40532 -0.00090
#
# Static dielectric constant tensor:
#      x y z
#    x 2.033380 0.000000 0.000000 
#    y 0.000000 1.945200 0.000000 
#    z 0.000000 0.000000 1.937810 
# 
# From -- ./inp_files/29354.got.cif
#   From: 2010.05.17/outbox.cif.g08.bks.cpg/sg20_15_cif.got.tgz:29354.got - 2010.06.03 22:52:26.
