data_PCOD9319250
_publ_section_title
;
Structure prediction by ZEFSAII (Michael W. Deem and Ramdas Pophale) SiO2 
 PCOD9319250
Probable space group: C 2 2 21
;
_chemical_formula_sum "Si O2"
_cell_formula_units_Z 52
_cell_length_a 14.828756
_cell_length_b 16.251731
_cell_length_c 8.323553
_cell_angle_alpha 90.000000
_cell_angle_beta 90.000000
_cell_angle_gamma 90.000000
_cell_volume 2005.917622
_symmetry_space_group_name_H-M "C 2 2 21"
_symmetry_group_IT_number 20
_symmetry_cell_setting 'orthorhombic'
loop_
_space_group_symop_operation_xyz
x,y,z
-x,-y,1/2+z
x,-y,-z
-x,y,1/2-z
1/2+x,1/2+y,z
1/2-x,1/2-y,1/2+z
1/2+x,1/2-y,-z
1/2-x,1/2+y,1/2-z
loop_
_atom_site_type_symbol
_atom_site_label
_atom_site_fract_x
_atom_site_fract_y
_atom_site_fract_z
Si Si1 0.609279 0.820131 0.235603
Si Si2 0.850013 0.509439 0.328064
Si Si3 0.443518 0.670586 0.453361
Si Si4 0.642591 0.607393 0.753127
Si Si5 0.124664 0.246313 0.542474
Si Si6 0.757293 0.500000 0.000000
Si Si7 0.000000 0.368949 0.750000
Si Si8 0.000000 0.022141 0.250000
O O1 0.500000 0.823455 0.250000
O O2 0.618946 0.742965 0.115492
O O3 0.665094 0.797456 0.396365
O O4 0.629625 0.914036 0.199534
O O5 0.797113 0.500000 0.500000
O O6 0.811278 0.538836 0.153377
O O7 0.936115 0.569407 0.353371
O O8 0.421908 0.662946 0.638342
O O9 0.547987 0.695441 0.445875
O O10 0.444183 0.582730 0.366039
O O11 0.681290 0.674957 0.630182
O O12 0.577266 0.537729 0.677641
O O13 0.700488 0.563577 0.891508
O O14 0.067404 0.310614 0.649476
#
# Coordination Sequence:
#
# PCOD9319250 Si02
#       8
#     8   8   8   8   8   4   4   4
#     4  10  21  40  69 112 146 177 249 330 379 442
#     4  12  27  50  77 114 148 207 258 318 398 463
#     4  11  19  36  65 108 141 177 249 316 369 447
#     4  12  24  42  68 102 156 198 246 315 380 463
#     4  11  21  38  68 115 143 182 243 323 386 430
#     4  12  30  52  68 108 168 204 248 318 392 482
#     4  12  23  41  86 110 138 182 268 331 365 456
#     4  12  19  35  70 102 138 194 254 315 369 452
#
# _framework density 25.923300000000001
#
# number of rings (size 3 to 8) (size 9 to 14) (size 15 to 20)
#    0.000    0.615    7.692    2.769    1.077    0.000 
#    5.538    3.077    0.000    0.000    0.000    0.000 
#    0.000    0.000    0.000    0.000    0.000    0.000 
#
# Total GULP energy -144924.407446 kJ/mol
# GULP energy per Si atom -5574.015671 kJ/mol
# Density = 2.586430 g / cm^3
# Si number density = 25.923300 Si / 1000 Ang^3
#
#
#
# Elastic Constant Matrix: (Units=GPa)
#
#
# Indices 1 2 3 4 5 6 
#
# 1 50.4634 38.5988 22.9600 0.0000 0.0000 0.0000
# 2 38.5988 200.3152 68.3947 0.0000 0.0000 0.0000
# 3 22.9600 68.3947 112.2731 0.0000 0.0000 0.0000
# 4 0.0000 0.0000 0.0000 27.0405 0.0000 0.0000
# 5 0.0000 0.0000 0.0000 0.0000 28.8479 0.0000
# 6 0.0000 0.0000 0.0000 0.0000 0.0000 35.3079
#
#
#
# Elastic Compliance Matrix: (Units=1/GPa)
#
#
# Indices 1 2 3 4 5 6 
#
# 1 0.023838 -0.003698 -0.002622 0.000000 0.000000 0.000000
# 2 -0.003698 0.006877 -0.003433 0.000000 0.000000 0.000000
# 3 -0.002622 -0.003433 0.011534 0.000000 0.000000 0.000000
# 4 0.000000 0.000000 0.000000 0.036982 0.000000 0.000000
# 5 0.000000 0.000000 0.000000 0.000000 0.034665 0.000000
# 6 0.000000 0.000000 0.000000 0.000000 0.000000 0.028322
#
#
# Mechanical properties :
#
#
# Convention : Reuss Voigt Hill
#
# Bulk Modulus (GPa) = 43.96978 69.21762 56.59370
# Shear Modulus (GPa) = 29.53254 33.77916 31.65585
#
# Velocity S-wave (km/s) = 3.37891 3.61368 3.49827
# Velocity P-wave (km/s) = 5.67635 6.64609 6.18027
#
# Compressibility (1/GPa) = 0.02274289
#
# Stress axis : x y z
#
# Youngs Moduli (GPa) = 41.94991 145.41521 86.69728
#
# Poissons Ratio (x) = 0.53776 0.22733
# Poissons Ratio (y) = 0.15513 0.29763
# Poissons Ratio (z) = 0.11000 0.49921
#
# Static dielectric constant tensor:
#      x y z
#    x 2.202900 0.000000 0.000000 
#    y 0.000000 2.097090 0.000000 
#    z 0.000000 0.000000 2.367380 
# 
# From -- ./inp_files/10146.got.cif
#   From: 2010.05.17/outbox.cif.g08.bks.cpg/sg20_6_cif.got.tgz:10146.got - 2010.06.03 22:52:26.
