data_PCOD9319517
_publ_section_title
;
Structure prediction by ZEFSAII (Michael W. Deem and Ramdas Pophale) SiO2 
 PCOD9319517
Probable space group: C 2 2 21
;
_chemical_formula_sum "Si O2"
_cell_formula_units_Z 24
_cell_length_a 12.754401
_cell_length_b 15.877226
_cell_length_c 5.256822
_cell_angle_alpha 90.000000
_cell_angle_beta 90.000000
_cell_angle_gamma 90.000000
_cell_volume 1064.530148
_symmetry_space_group_name_H-M "C 2 2 21"
_symmetry_group_IT_number 20
_symmetry_cell_setting 'orthorhombic'
loop_
_space_group_symop_operation_xyz
x,y,z
-x,-y,1/2+z
x,-y,-z
-x,y,1/2-z
1/2+x,1/2+y,z
1/2-x,1/2-y,1/2+z
1/2+x,1/2-y,-z
1/2-x,1/2+y,1/2-z
loop_
_atom_site_type_symbol
_atom_site_label
_atom_site_fract_x
_atom_site_fract_y
_atom_site_fract_z
Si Si1 0.000000 0.141484 0.750000
Si Si2 0.134142 0.000000 0.500000
Si Si3 0.817593 0.263322 0.635666
Si Si4 0.659038 0.045355 0.247724
O O1 0.063565 0.079216 0.567193
O O2 0.084975 0.200384 0.886661
O O3 0.215539 0.027072 0.280193
O O4 0.757186 0.269039 0.366319
O O5 0.855340 0.355355 0.725264
O O6 0.622914 0.000000 0.500000
O O7 0.613609 0.000000 0.000000
#
# Coordination Sequence:
#
# PCOD9319517 Si02
#       4
#     4   4   8   8
#     4  12  26  42  74 108 138 184 240 290 356 418
#     4  10  24  40  64 106 126 178 234 286 344 406
#     4  12  25  46  66 105 146 182 230 293 355 413
#     4  10  21  44  68  93 138 183 221 282 351 405
#
# _framework density 22.545158000000001
#
# number of rings (size 3 to 8) (size 9 to 14) (size 15 to 20)
#    1.000    0.000    3.333    4.000    7.000    1.333 
#    0.000    1.667    0.000    0.000    0.000    0.000 
#    0.000    0.000    0.000    0.000    0.000    0.000 
#
# Total GULP energy -67115.136579 kJ/mol
# GULP energy per Si atom -5592.928048 kJ/mol
# Density = 2.249384 g / cm^3
# Si number density = 22.545158 Si / 1000 Ang^3
#
#
#
# Elastic Constant Matrix: (Units=GPa)
#
#
# Indices 1 2 3 4 5 6 
#
# 1 139.4698 41.6426 26.6413 0.0000 0.0000 0.0000
# 2 41.6426 167.1219 18.5076 0.0000 0.0000 0.0000
# 3 26.6413 18.5076 108.7309 0.0000 0.0000 0.0000
# 4 0.0000 0.0000 0.0000 34.0271 0.0000 0.0000
# 5 0.0000 0.0000 0.0000 0.0000 -265.5186 0.0000
# 6 0.0000 0.0000 0.0000 0.0000 0.0000 43.2241
#
#
#
# Elastic Compliance Matrix: (Units=1/GPa)
#
#
# Indices 1 2 3 4 5 6 
#
# 1 0.008029 -0.001817 -0.001658 0.000000 0.000000 0.000000
# 2 -0.001817 0.006510 -0.000663 0.000000 0.000000 0.000000
# 3 -0.001658 -0.000663 0.009716 0.000000 0.000000 0.000000
# 4 0.000000 0.000000 0.000000 0.029388 0.000000 0.000000
# 5 0.000000 0.000000 0.000000 0.000000 -0.003766 0.000000
# 6 0.000000 0.000000 0.000000 0.000000 0.000000 0.023135
#
#
# Mechanical properties :
#
#
# Convention : Reuss Voigt Hill
#
# Bulk Modulus (GPa) = 62.58110 65.43396 64.00753
# Shear Modulus (GPa) = 57.72681 -15.75138 20.98772
#
# Velocity S-wave (km/s) = 5.06563 -2.64608 3.05441
# Velocity P-wave (km/s) = 7.87607 4.44419 6.39466
#
# Compressibility (1/GPa) = 0.01597926
#
# Stress axis : x y z
#
# Youngs Moduli (GPa) = 124.54440 153.61381 102.92192
#
# Poissons Ratio (x) = 0.27913 0.17065
# Poissons Ratio (y) = 0.22631 0.06822
# Poissons Ratio (z) = 0.20650 0.10182
#
# Static dielectric constant tensor:
#      x y z
#    x 1.889550 0.000000 0.000000 
#    y 0.000000 1.804660 0.000000 
#    z 0.000000 0.000000 1.812350 
# 
# From -- ./inp_files/1558.got.cif
#   From: 2010.05.17/outbox.cif.g08.bks.cpg/sg20_1_cif.got.tgz:1558.got - 2010.06.03 22:52:26.
