data_PCOD9319847
_publ_section_title
;
Structure prediction by ZEFSAII (Michael W. Deem and Ramdas Pophale) SiO2 
 PCOD9319847
Probable space group: C 2 2 21
;
_chemical_formula_sum "Si O2"
_cell_formula_units_Z 32
_cell_length_a 5.288639
_cell_length_b 23.659806
_cell_length_c 14.005513
_cell_angle_alpha 90.000000
_cell_angle_beta 90.000000
_cell_angle_gamma 90.000000
_cell_volume 1752.484250
_symmetry_space_group_name_H-M "C 2 2 21"
_symmetry_group_IT_number 20
_symmetry_cell_setting 'orthorhombic'
loop_
_space_group_symop_operation_xyz
x,y,z
-x,-y,1/2+z
x,-y,-z
-x,y,1/2-z
1/2+x,1/2+y,z
1/2-x,1/2-y,1/2+z
1/2+x,1/2-y,-z
1/2-x,1/2+y,1/2-z
loop_
_atom_site_type_symbol
_atom_site_label
_atom_site_fract_x
_atom_site_fract_y
_atom_site_fract_z
Si Si1 0.293524 0.433001 0.506698
Si Si2 0.914824 0.354655 0.142266
Si Si3 0.249378 0.267803 0.814664
Si Si4 0.199362 0.628830 0.041711
O O1 0.281228 0.500000 0.500000
O O2 0.254866 0.404282 0.402413
O O3 0.556938 0.410727 0.547287
O O4 0.056068 0.406465 0.564304
O O5 0.776931 0.294268 0.139175
O O6 0.000000 0.364980 0.250000
O O7 0.149040 0.352367 0.068109
O O8 0.500000 0.275666 0.750000
O O9 0.231267 0.316845 0.892618
O O10 0.000000 0.269109 0.750000
#
# Coordination Sequence:
#
# PCOD9319847 Si02
#       4
#     8   8   8   8
#     4  10  22  40  65  86 125 164 219 255 308 368
#     4   9  24  37  66  91 127 161 210 259 316 376
#     4  11  24  39  63  96 133 162 210 257 319 383
#     4  10  23  39  67  86 129 162 210 256 322 360
#
# _framework density 18.259792999999998
#
# number of rings (size 3 to 8) (size 9 to 14) (size 15 to 20)
#    1.500    0.500    0.000    2.250   10.500    0.000 
#    0.000    3.750    5.500    0.000    0.000    0.000 
#    0.000    0.000    0.000    0.000    0.000    0.000 
#
# Total GULP energy -89162.845525 kJ/mol
# GULP energy per Si atom -5572.677845 kJ/mol
# Density = 1.821823 g / cm^3
# Si number density = 18.259793 Si / 1000 Ang^3
#
#
#
# Elastic Constant Matrix: (Units=GPa)
#
#
# Indices 1 2 3 4 5 6 
#
# 1 143.4053 59.1206 38.9904 0.0000 0.0000 0.0000
# 2 59.1206 166.5019 69.9143 0.0000 0.0000 0.0000
# 3 38.9904 69.9143 52.6524 0.0000 0.0000 0.0000
# 4 0.0000 0.0000 0.0000 -91.1583 0.0000 0.0000
# 5 0.0000 0.0000 0.0000 0.0000 10.3862 0.0000
# 6 0.0000 0.0000 0.0000 0.0000 0.0000 16.4882
#
#
#
# Elastic Compliance Matrix: (Units=1/GPa)
#
#
# Indices 1 2 3 4 5 6 
#
# 1 0.008787 -0.000876 -0.005344 0.000000 0.000000 0.000000
# 2 -0.000876 0.013662 -0.017492 0.000000 0.000000 0.000000
# 3 -0.005344 -0.017492 0.046176 0.000000 0.000000 0.000000
# 4 0.000000 0.000000 0.000000 -0.010970 0.000000 0.000000
# 5 0.000000 0.000000 0.000000 0.000000 0.096281 0.000000
# 6 0.000000 0.000000 0.000000 0.000000 0.000000 0.060649
#
#
# Mechanical properties :
#
#
# Convention : Reuss Voigt Hill
#
# Bulk Modulus (GPa) = 47.16609 77.62336 62.39472
# Shear Modulus (GPa) = 18.58197 0.11217 9.34707
#
# Velocity S-wave (km/s) = 3.19351 0.24812 2.26496
# Velocity P-wave (km/s) = 6.28368 6.53337 6.40974
#
# Compressibility (1/GPa) = 0.02120167
#
# Stress axis : x y z
#
# Youngs Moduli (GPa) = 113.79907 73.19520 21.65611
#
# Poissons Ratio (x) = 0.06415 0.11572
# Poissons Ratio (y) = 0.09974 0.37881
# Poissons Ratio (z) = 0.60809 1.28034
#
# Static dielectric constant tensor:
#      x y z
#    x 1.648270 0.000000 0.000000 
#    y 0.000000 1.587940 0.000000 
#    z 0.000000 0.000000 1.627730 
# 
# From -- ./inp_files/16059.got.cif
#   From: 2010.05.17/outbox.cif.g08.bks.cpg/sg20_9_cif.got.tgz:16059.got - 2010.06.03 22:52:26.
