data_PCOD9319668
_publ_section_title
;
Structure prediction by ZEFSAII (Michael W. Deem and Ramdas Pophale) SiO2 
 PCOD9319668
Probable space group: C 2 2 21
;
_chemical_formula_sum "Si O2"
_cell_formula_units_Z 60
_cell_length_a 19.691323
_cell_length_b 15.883395
_cell_length_c 9.762947
_cell_angle_alpha 90.000000
_cell_angle_beta 90.000000
_cell_angle_gamma 90.000000
_cell_volume 3053.508717
_symmetry_space_group_name_H-M "C 2 2 21"
_symmetry_group_IT_number 20
_symmetry_cell_setting 'orthorhombic'
loop_
_space_group_symop_operation_xyz
x,y,z
-x,-y,1/2+z
x,-y,-z
-x,y,1/2-z
1/2+x,1/2+y,z
1/2-x,1/2-y,1/2+z
1/2+x,1/2-y,-z
1/2-x,1/2+y,1/2-z
loop_
_atom_site_type_symbol
_atom_site_label
_atom_site_fract_x
_atom_site_fract_y
_atom_site_fract_z
Si Si1 0.779498 0.510569 0.656911
Si Si2 0.070217 0.000000 0.000000
Si Si3 0.231824 0.170872 0.041453
Si Si4 0.353199 0.432218 0.733162
Si Si5 0.435741 0.756482 0.850543
Si Si6 0.294925 0.684893 0.771690
Si Si7 0.638060 0.065801 0.393563
Si Si8 0.472019 0.352647 0.896892
O O1 0.799273 0.500000 0.500000
O O2 0.717341 0.448692 0.692786
O O3 0.744316 0.599887 0.688068
O O4 0.839985 0.484610 0.757764
O O5 0.116274 0.006837 0.862410
O O6 0.022645 0.919932 0.967439
O O7 0.164972 0.136161 0.116675
O O8 0.261228 0.243705 0.135539
O O9 0.217206 0.199723 0.888657
O O10 0.290566 0.099276 0.040226
O O11 0.405549 0.403618 0.847964
O O12 0.500000 0.753582 0.750000
O O13 0.375049 0.694530 0.801032
O O14 0.405668 0.851135 0.861374
O O15 0.456531 0.721633 0.999220
O O16 0.606254 0.000000 0.500000
O O17 0.500000 0.322356 0.750000
#
# Coordination Sequence:
#
# PCOD9319668 Si02
#       8
#     8   4   8   8   8   8   8   8
#     4  11  23  37  66  99 126 165 218 268 330 391
#     4  10  22  38  58  90 130 174 210 250 318 400
#     4  10  23  39  64  99 127 169 214 269 342 379
#     4  10  22  38  61  88 132 167 218 256 324 398
#     4  11  27  43  67  97 136 173 223 273 331 391
#     4  11  24  39  68  96 136 170 209 280 330 396
#     4  10  22  47  68  90 131 173 224 271 331 391
#     4  10  24  41  61  90 130 176 223 263 318 399
#
# _framework density 19.649528
#
# number of rings (size 3 to 8) (size 9 to 14) (size 15 to 20)
#    0.000    1.600    1.333    1.600   19.600    0.533 
#    0.000    2.667    0.000    0.000    0.000    0.000 
#    0.000    0.000    0.000    0.000    0.000    0.000 
#
# Total GULP energy -167504.202051 kJ/mol
# GULP energy per Si atom -5583.473402 kJ/mol
# Density = 1.960480 g / cm^3
# Si number density = 19.649528 Si / 1000 Ang^3
#
#
#
# Elastic Constant Matrix: (Units=GPa)
#
#
# Indices 1 2 3 4 5 6 
#
# 1 72.1301 32.4700 48.6578 0.0000 0.0000 0.0000
# 2 32.4700 79.2666 60.0367 0.0000 0.0000 0.0000
# 3 48.6578 60.0367 166.5961 0.0000 0.0000 0.0000
# 4 0.0000 0.0000 0.0000 30.0300 0.0000 0.0000
# 5 0.0000 0.0000 0.0000 0.0000 17.9997 0.0000
# 6 0.0000 0.0000 0.0000 0.0000 0.0000 15.4666
#
#
#
# Elastic Compliance Matrix: (Units=1/GPa)
#
#
# Indices 1 2 3 4 5 6 
#
# 1 0.018502 -0.004795 -0.003676 0.000000 0.000000 0.000000
# 2 -0.004795 0.018594 -0.005300 0.000000 0.000000 0.000000
# 3 -0.003676 -0.005300 0.008986 0.000000 0.000000 0.000000
# 4 0.000000 0.000000 0.000000 0.033300 0.000000 0.000000
# 5 0.000000 0.000000 0.000000 0.000000 0.055557 0.000000
# 6 0.000000 0.000000 0.000000 0.000000 0.000000 0.064655
#
#
# Mechanical properties :
#
#
# Convention : Reuss Voigt Hill
#
# Bulk Modulus (GPa) = 53.93687 66.70240 60.31964
# Shear Modulus (GPa) = 21.43004 24.48780 22.95892
#
# Velocity S-wave (km/s) = 3.30603 3.53403 3.42193
# Velocity P-wave (km/s) = 6.48707 7.11844 6.81008
#
# Compressibility (1/GPa) = 0.01854019
#
# Stress axis : x y z
#
# Youngs Moduli (GPa) = 54.04822 53.77981 111.28011
#
# Poissons Ratio (x) = 0.25786 0.40906
# Poissons Ratio (y) = 0.25915 0.58984
# Poissons Ratio (z) = 0.19868 0.28506
#
# Static dielectric constant tensor:
#      x y z
#    x 1.701410 0.000000 0.000000 
#    y 0.000000 1.739770 0.000000 
#    z 0.000000 0.000000 1.685310 
# 
# From -- ./inp_files/9580.got.cif
#   From: 2010.05.17/outbox.cif.g08.bks.cpg/sg20_5_cif.got.tgz:9580.got - 2010.06.03 22:52:26.
