data_PCOD9319549
_publ_section_title
;
Structure prediction by ZEFSAII (Michael W. Deem and Ramdas Pophale) SiO2 
 PCOD9319549
Probable space group: C 2 2 21
;
_chemical_formula_sum "Si O2"
_cell_formula_units_Z 28
_cell_length_a 15.786592
_cell_length_b 8.938122
_cell_length_c 7.306752
_cell_angle_alpha 90.000000
_cell_angle_beta 90.000000
_cell_angle_gamma 90.000000
_cell_volume 1031.000866
_symmetry_space_group_name_H-M "C 2 2 21"
_symmetry_group_IT_number 20
_symmetry_cell_setting 'orthorhombic'
loop_
_space_group_symop_operation_xyz
x,y,z
-x,-y,1/2+z
x,-y,-z
-x,y,1/2-z
1/2+x,1/2+y,z
1/2-x,1/2-y,1/2+z
1/2+x,1/2-y,-z
1/2-x,1/2+y,1/2-z
loop_
_atom_site_type_symbol
_atom_site_label
_atom_site_fract_x
_atom_site_fract_y
_atom_site_fract_z
Si Si1 0.863434 0.500000 0.500000
Si Si2 0.105574 0.633104 0.372029
Si Si3 0.094611 0.948982 0.255588
Si Si4 0.195027 0.814623 0.901646
O O1 0.911715 0.421991 0.665755
O O2 0.812831 0.364271 0.402564
O O3 0.074902 0.500000 0.500000
O O4 0.079337 0.806251 0.387112
O O5 0.207182 0.643895 0.402720
O O6 0.000000 0.013091 0.250000
O O7 0.154749 0.094437 0.268315
O O8 0.141213 0.869324 0.079796
#
# Coordination Sequence:
#
# PCOD9319549 Si02
#       4
#     4   8   8   8
#     4  10  24  40  70 108 142 180 240 318 346 428
#     4  11  22  45  73 107 144 192 247 295 358 443
#     4  10  22  44  68 103 151 183 242 305 363 434
#     4  10  21  45  68 101 142 188 249 292 354 451
#
# _framework density 27.158076000000001
#
# number of rings (size 3 to 8) (size 9 to 14) (size 15 to 20)
#    0.000    1.714    2.857    1.714    4.000    0.000 
#   20.571    1.429    0.000    0.000    0.000    0.000 
#    0.000    0.000    0.000    0.000    0.000    0.000 
#
# Total GULP energy -78182.972507 kJ/mol
# GULP energy per Si atom -5584.498036 kJ/mol
# Density = 2.709626 g / cm^3
# Si number density = 27.158076 Si / 1000 Ang^3
#
#
#
# Elastic Constant Matrix: (Units=GPa)
#
#
# Indices 1 2 3 4 5 6 
#
# 1 137.7713 28.7329 -2.2106 0.0000 0.0000 0.0000
# 2 28.7329 232.1757 40.5705 0.0000 0.0000 0.0000
# 3 -2.2106 40.5705 112.9106 0.0000 0.0000 0.0000
# 4 0.0000 0.0000 0.0000 51.9912 0.0000 0.0000
# 5 0.0000 0.0000 0.0000 0.0000 38.1617 0.0000
# 6 0.0000 0.0000 0.0000 0.0000 0.0000 37.8344
#
#
#
# Elastic Compliance Matrix: (Units=1/GPa)
#
#
# Indices 1 2 3 4 5 6 
#
# 1 0.007478 -0.001015 0.000511 0.000000 0.000000 0.000000
# 2 -0.001015 0.004733 -0.001721 0.000000 0.000000 0.000000
# 3 0.000511 -0.001721 0.009485 0.000000 0.000000 0.000000
# 4 0.000000 0.000000 0.000000 0.019234 0.000000 0.000000
# 5 0.000000 0.000000 0.000000 0.000000 0.026204 0.000000
# 6 0.000000 0.000000 0.000000 0.000000 0.000000 0.026431
#
#
# Mechanical properties :
#
#
# Convention : Reuss Voigt Hill
#
# Bulk Modulus (GPa) = 57.97887 68.56037 63.26962
# Shear Modulus (GPa) = 48.18646 53.31512 50.75079
#
# Velocity S-wave (km/s) = 4.21681 4.43554 4.32756
# Velocity P-wave (km/s) = 6.71592 7.17856 6.95109
#
# Compressibility (1/GPa) = 0.01724766
#
# Stress axis : x y z
#
# Youngs Moduli (GPa) = 133.72133 211.26787 105.43166
#
# Poissons Ratio (x) = 0.21439 -0.05388
# Poissons Ratio (y) = 0.13570 0.18141
# Poissons Ratio (z) = -0.06834 0.36351
#
# Static dielectric constant tensor:
#      x y z
#    x 2.047720 0.000000 0.000000 
#    y 0.000000 2.159270 0.000000 
#    z 0.000000 0.000000 2.278180 
# 
# From -- ./inp_files/9035.got.cif
#   From: 2010.05.17/outbox.cif.g08.bks.cpg/sg20_5_cif.got.tgz:9035.got - 2010.06.03 22:52:26.
