data_PCOD9319909
_publ_section_title
;
Structure prediction by ZEFSAII (Michael W. Deem and Ramdas Pophale) SiO2 
 PCOD9319909
Probable space group: C 2 2 21
;
_chemical_formula_sum "Si O2"
_cell_formula_units_Z 44
_cell_length_a 8.889633
_cell_length_b 27.881418
_cell_length_c 8.293682
_cell_angle_alpha 90.000000
_cell_angle_beta 90.000000
_cell_angle_gamma 90.000000
_cell_volume 2055.635309
_symmetry_space_group_name_H-M "C 2 2 21"
_symmetry_group_IT_number 20
_symmetry_cell_setting 'orthorhombic'
loop_
_space_group_symop_operation_xyz
x,y,z
-x,-y,1/2+z
x,-y,-z
-x,y,1/2-z
1/2+x,1/2+y,z
1/2-x,1/2-y,1/2+z
1/2+x,1/2-y,-z
1/2-x,1/2+y,1/2-z
loop_
_atom_site_type_symbol
_atom_site_label
_atom_site_fract_x
_atom_site_fract_y
_atom_site_fract_z
Si Si1 0.492747 0.500000 0.000000
Si Si2 0.292623 0.346427 0.691836
Si Si3 0.517204 0.732811 0.995444
Si Si4 0.500000 0.425161 0.250000
Si Si5 0.000000 0.071389 0.250000
Si Si6 0.000000 0.693047 0.750000
Si Si7 0.206223 0.846219 0.417106
Si Si8 0.000000 0.693202 0.250000
O O1 0.571491 0.538104 0.881018
O O2 0.414293 0.463543 0.874924
O O3 0.378213 0.302938 0.600109
O O4 0.386185 0.394097 0.653758
O O5 0.118041 0.339339 0.654734
O O6 0.291554 0.350018 0.888010
O O7 0.436687 0.769366 0.118247
O O8 0.399301 0.700403 0.899720
O O9 0.587649 0.770719 0.870033
O O10 0.622038 0.390813 0.334000
O O11 0.865613 0.663469 0.668105
#
# Coordination Sequence:
#
# PCOD9319909 Si02
#       8
#     4   8   8   4   4   4   8   4
#     4  10  22  40  72 106 120 156 226 288 350 436
#     4  12  23  44  65  96 139 180 227 285 336 401
#     4  12  24  41  65  96 138 193 241 272 319 392
#     4  11  23  42  73 102 126 170 221 290 357 419
#     4  11  21  42  73  98 128 166 217 290 355 417
#     4  12  25  42  65  97 144 189 231 278 337 398
#     4  12  24  42  64 100 136 180 227 284 336 403
#     4  12  29  38  67  97 140 191 233 280 339 398
#
# _framework density 21.404575000000001
#
# number of rings (size 3 to 8) (size 9 to 14) (size 15 to 20)
#    0.000    0.364    7.273    1.636    0.000    4.364 
#    0.000    0.000    0.000    6.545    0.000    0.000 
#    0.000    0.000    0.000    0.000    0.000    0.000 
#
# Total GULP energy -122517.499626 kJ/mol
# GULP energy per Si atom -5568.977256 kJ/mol
# Density = 2.135586 g / cm^3
# Si number density = 21.404575 Si / 1000 Ang^3
#
#
#
# Elastic Constant Matrix: (Units=GPa)
#
#
# Indices 1 2 3 4 5 6 
#
# 1 118.8656 55.0404 32.1197 0.0000 0.0000 0.0000
# 2 55.0404 141.6665 56.9310 0.0000 0.0000 0.0000
# 3 32.1197 56.9310 90.2523 0.0000 0.0000 0.0000
# 4 0.0000 0.0000 0.0000 68.2577 0.0000 0.0000
# 5 0.0000 0.0000 0.0000 0.0000 34.6577 0.0000
# 6 0.0000 0.0000 0.0000 0.0000 0.0000 8.3657
#
#
#
# Elastic Compliance Matrix: (Units=1/GPa)
#
#
# Indices 1 2 3 4 5 6 
#
# 1 0.010417 -0.003426 -0.001546 0.000000 0.000000 0.000000
# 2 -0.003426 0.010583 -0.005456 0.000000 0.000000 0.000000
# 3 -0.001546 -0.005456 0.015072 0.000000 0.000000 0.000000
# 4 0.000000 0.000000 0.000000 0.014650 0.000000 0.000000
# 5 0.000000 0.000000 0.000000 0.000000 0.028854 0.000000
# 6 0.000000 0.000000 0.000000 0.000000 0.000000 0.119536
#
#
# Mechanical properties :
#
#
# Convention : Reuss Voigt Hill
#
# Bulk Modulus (GPa) = 65.72463 70.99628 68.36046
# Shear Modulus (GPa) = 22.21831 36.03577 29.12704
#
# Velocity S-wave (km/s) = 3.22532 4.10757 3.69288
# Velocity P-wave (km/s) = 6.68153 7.46571 7.08448
#
# Compressibility (1/GPa) = 0.01521500
#
# Stress axis : x y z
#
# Youngs Moduli (GPa) = 95.99672 94.49552 66.34759
#
# Poissons Ratio (x) = 0.32373 0.10259
# Poissons Ratio (y) = 0.32887 0.36201
# Poissons Ratio (z) = 0.14844 0.51559
#
# Static dielectric constant tensor:
#      x y z
#    x 1.775950 0.000000 0.000000 
#    y 0.000000 1.768970 0.000000 
#    z 0.000000 0.000000 1.952250 
# 
# From -- ./inp_files/6429.got.cif
#   From: 2010.05.17/outbox.cif.g08.bks.cpg/sg20_4_cif.got.tgz:6429.got - 2010.06.03 22:52:26.
