data_PCOD9319584
_publ_section_title
;
Structure prediction by ZEFSAII (Michael W. Deem and Ramdas Pophale) SiO2 
 PCOD9319584
Probable space group: C 2 2 21
;
_chemical_formula_sum "Si O2"
_cell_formula_units_Z 48
_cell_length_a 24.276443
_cell_length_b 14.626553
_cell_length_c 7.647647
_cell_angle_alpha 90.000000
_cell_angle_beta 90.000000
_cell_angle_gamma 90.000000
_cell_volume 2715.531699
_symmetry_space_group_name_H-M "C 2 2 21"
_symmetry_group_IT_number 20
_symmetry_cell_setting 'orthorhombic'
loop_
_space_group_symop_operation_xyz
x,y,z
-x,-y,1/2+z
x,-y,-z
-x,y,1/2-z
1/2+x,1/2+y,z
1/2-x,1/2-y,1/2+z
1/2+x,1/2-y,-z
1/2-x,1/2+y,1/2-z
loop_
_atom_site_type_symbol
_atom_site_label
_atom_site_fract_x
_atom_site_fract_y
_atom_site_fract_z
Si Si1 0.942743 0.626146 0.842065
Si Si2 0.407224 0.915931 0.792949
Si Si3 0.861585 0.334997 0.439318
Si Si4 0.752173 0.061389 0.841960
Si Si5 0.279762 0.891728 0.865530
Si Si6 0.284301 0.282020 0.357090
O O1 0.929020 0.519420 0.797087
O O2 0.895339 0.679220 0.737113
O O3 0.000000 0.648749 0.750000
O O4 0.941381 0.634966 0.052965
O O5 0.399661 0.878653 0.594628
O O6 0.344693 0.910460 0.863897
O O7 0.809258 0.400765 0.392838
O O8 0.835469 0.243038 0.520476
O O9 0.791208 0.147285 0.801312
O O10 0.747206 0.987370 0.686329
O O11 0.772584 0.000000 0.000000
O O12 0.267001 0.816154 0.716178
O O13 0.261019 0.837344 0.035301
#
# Coordination Sequence:
#
# PCOD9319584 Si02
#       6
#     8   8   8   8   8   8
#     4  11  23  35  54  78 107 148 202 241 276 337
#     4  10  22  32  52  76 100 149 190 231 275 328
#     4  11  21  38  52  75 116 149 194 239 277 330
#     4  12  19  35  52  76 110 155 193 230 277 338
#     4  11  20  34  54  75 112 152 194 225 278 340
#     4  11  22  32  52  79 107 155 194 234 275 339
#
# _framework density 17.676095
#
# number of rings (size 3 to 8) (size 9 to 14) (size 15 to 20)
#    0.000    1.000    6.667    2.000    7.000    0.000 
#    0.000    0.000    0.000    0.000    0.000    0.000 
#    0.000    0.000   45.333    0.000    0.000    0.000 
#
# Total GULP energy -133751.822671 kJ/mol
# GULP energy per Si atom -5572.992611 kJ/mol
# Density = 1.763586 g / cm^3
# Si number density = 17.676095 Si / 1000 Ang^3
#
#
#
# Elastic Constant Matrix: (Units=GPa)
#
#
# Indices 1 2 3 4 5 6 
#
# 1 25.4692 21.8361 9.4773 0.0000 0.0000 0.0000
# 2 21.8361 88.0145 20.6131 0.0000 0.0000 0.0000
# 3 9.4773 20.6131 86.3541 0.0000 0.0000 0.0000
# 4 0.0000 0.0000 0.0000 42.9860 0.0000 0.0000
# 5 0.0000 0.0000 0.0000 0.0000 21.2009 0.0000
# 6 0.0000 0.0000 0.0000 0.0000 0.0000 9.6996
#
#
#
# Elastic Compliance Matrix: (Units=1/GPa)
#
#
# Indices 1 2 3 4 5 6 
#
# 1 0.050459 -0.011886 -0.002700 0.000000 0.000000 0.000000
# 2 -0.011886 0.014834 -0.002237 0.000000 0.000000 0.000000
# 3 -0.002700 -0.002237 0.012410 0.000000 0.000000 0.000000
# 4 0.000000 0.000000 0.000000 0.023263 0.000000 0.000000
# 5 0.000000 0.000000 0.000000 0.000000 0.047168 0.000000
# 6 0.000000 0.000000 0.000000 0.000000 0.000000 0.103098
#
#
# Mechanical properties :
#
#
# Convention : Reuss Voigt Hill
#
# Bulk Modulus (GPa) = 22.69777 33.74342 28.22059
# Shear Modulus (GPa) = 16.69089 24.63805 20.66447
#
# Velocity S-wave (km/s) = 3.07622 3.73750 3.42287
# Velocity P-wave (km/s) = 5.04840 6.14463 5.62329
#
# Compressibility (1/GPa) = 0.04405720
#
# Stress axis : x y z
#
# Youngs Moduli (GPa) = 19.81819 67.41049 80.57707
#
# Poissons Ratio (x) = 0.80125 0.21760
# Poissons Ratio (y) = 0.23556 0.18022
# Poissons Ratio (z) = 0.05352 0.15077
#
# Static dielectric constant tensor:
#      x y z
#    x 1.603040 0.000000 0.000000 
#    y 0.000000 1.598740 0.000000 
#    z 0.000000 0.000000 1.817930 
# 
# From -- ./inp_files/8804.got.cif
#   From: 2010.05.17/outbox.cif.g08.bks.cpg/sg20_5_cif.got.tgz:8804.got - 2010.06.03 22:52:26.
