data_PCOD9319365
_publ_section_title
;
Structure prediction by ZEFSAII (Michael W. Deem and Ramdas Pophale) SiO2 
 PCOD9319365
Probable space group: C 2 2 21
;
_chemical_formula_sum "Si O2"
_cell_formula_units_Z 48
_cell_length_a 27.592905
_cell_length_b 5.464977
_cell_length_c 14.555733
_cell_angle_alpha 90.000000
_cell_angle_beta 90.000000
_cell_angle_gamma 90.000000
_cell_volume 2194.925807
_symmetry_space_group_name_H-M "C 2 2 21"
_symmetry_group_IT_number 20
_symmetry_cell_setting 'orthorhombic'
loop_
_space_group_symop_operation_xyz
x,y,z
-x,-y,1/2+z
x,-y,-z
-x,y,1/2-z
1/2+x,1/2+y,z
1/2-x,1/2-y,1/2+z
1/2+x,1/2-y,-z
1/2-x,1/2+y,1/2-z
loop_
_atom_site_type_symbol
_atom_site_label
_atom_site_fract_x
_atom_site_fract_y
_atom_site_fract_z
Si Si1 0.355529 0.260840 0.650947
Si Si2 0.251271 0.304294 0.191452
Si Si3 0.657925 0.247047 0.442899
Si Si4 0.000000 0.784907 0.750000
Si Si5 0.932351 0.136595 0.639593
Si Si6 0.411728 0.000574 0.196923
Si Si7 0.580441 0.000000 0.000000
O O1 0.298861 0.237275 0.637530
O O2 0.378256 0.525869 0.631669
O O3 0.371077 0.172903 0.753930
O O4 0.385130 0.096085 0.580239
O O5 0.246762 0.568076 0.241118
O O6 0.298529 0.301455 0.127911
O O7 0.649662 0.500000 0.500000
O O8 0.671300 0.000000 0.500000
O O9 0.611325 0.154395 0.385022
O O10 0.039262 0.650870 0.684856
O O11 0.032305 0.929476 0.823612
O O12 0.929472 0.317758 0.724399
O O13 0.947496 0.277792 0.547820
#
# Coordination Sequence:
#
# PCOD9319365 Si02
#       7
#     8   8   8   4   8   8   4
#     4  10  22  39  69  98 145 183 239 300 368 427
#     4  12  25  45  73 109 141 201 257 293 359 443
#     4  12  28  46  73 108 157 198 245 307 368 445
#     4  10  22  40  82  98 130 192 254 298 364 472
#     4  10  21  41  72  99 137 183 239 303 377 440
#     4  10  22  45  71 102 133 192 244 300 374 436
#     4  10  22  38  64 108 136 186 226 318 372 428
#
# _framework density 21.868621000000001
#
# number of rings (size 3 to 8) (size 9 to 14) (size 15 to 20)
#    0.000    1.333    1.667    3.000    8.167    1.333 
#    0.000    0.000   44.000    0.000    0.000    0.000 
#    0.000    0.000    0.000    0.000    0.000    0.000 
#
# Total GULP energy -133981.876389 kJ/mol
# GULP energy per Si atom -5582.578183 kJ/mol
# Density = 2.181885 g / cm^3
# Si number density = 21.868621 Si / 1000 Ang^3
#
#
#
# Elastic Constant Matrix: (Units=GPa)
#
#
# Indices 1 2 3 4 5 6 
#
# 1 115.7184 34.4719 38.9169 0.0000 0.0000 0.0000
# 2 34.4719 116.2607 53.4272 0.0000 0.0000 0.0000
# 3 38.9169 53.4272 95.6585 0.0000 0.0000 0.0000
# 4 0.0000 0.0000 0.0000 45.1503 0.0000 0.0000
# 5 0.0000 0.0000 0.0000 0.0000 0.3990 0.0000
# 6 0.0000 0.0000 0.0000 0.0000 0.0000 67.5381
#
#
#
# Elastic Compliance Matrix: (Units=1/GPa)
#
#
# Indices 1 2 3 4 5 6 
#
# 1 0.010203 -0.001504 -0.003311 0.000000 0.000000 0.000000
# 2 -0.001504 0.011793 -0.005975 0.000000 0.000000 0.000000
# 3 -0.003311 -0.005975 0.015138 0.000000 0.000000 0.000000
# 4 0.000000 0.000000 0.000000 0.022148 0.000000 0.000000
# 5 0.000000 0.000000 0.000000 0.000000 2.506092 0.000000
# 6 0.000000 0.000000 0.000000 0.000000 0.000000 0.014806
#
#
# Mechanical properties :
#
#
# Convention : Reuss Voigt Hill
#
# Bulk Modulus (GPa) = 64.28891 64.58551 64.43721
# Shear Modulus (GPa) = 1.91795 36.00560 18.96177
#
# Velocity S-wave (km/s) = 0.93752 4.06205 2.94781
# Velocity P-wave (km/s) = 5.53476 7.18316 6.41215
#
# Compressibility (1/GPa) = 0.01555478
#
# Stress axis : x y z
#
# Youngs Moduli (GPa) = 98.00886 84.79658 66.05890
#
# Poissons Ratio (x) = 0.12751 0.21873
# Poissons Ratio (y) = 0.14737 0.39469
# Poissons Ratio (z) = 0.32452 0.50665
#
# Static dielectric constant tensor:
#      x y z
#    x 1.798580 0.000000 0.000000 
#    y 0.000000 2.140790 0.000000 
#    z 0.000000 0.000000 1.767210 
# 
# From -- ./inp_files/22181.got.cif
#   From: 2010.05.17/outbox.cif.g08.bks.cpg/sg20_12_cif.got.tgz:22181.got - 2010.06.03 22:52:26.
