data_PCOD9319650
_publ_section_title
;
Structure prediction by ZEFSAII (Michael W. Deem and Ramdas Pophale) SiO2 
 PCOD9319650
Probable space group: C 2 2 21
;
_chemical_formula_sum "Si O2"
_cell_formula_units_Z 60
_cell_length_a 18.971762
_cell_length_b 12.456059
_cell_length_c 12.317196
_cell_angle_alpha 90.000000
_cell_angle_beta 90.000000
_cell_angle_gamma 90.000000
_cell_volume 2910.718303
_symmetry_space_group_name_H-M "C 2 2 21"
_symmetry_group_IT_number 20
_symmetry_cell_setting 'orthorhombic'
loop_
_space_group_symop_operation_xyz
x,y,z
-x,-y,1/2+z
x,-y,-z
-x,y,1/2-z
1/2+x,1/2+y,z
1/2-x,1/2-y,1/2+z
1/2+x,1/2-y,-z
1/2-x,1/2+y,1/2-z
loop_
_atom_site_type_symbol
_atom_site_label
_atom_site_fract_x
_atom_site_fract_y
_atom_site_fract_z
Si Si1 0.081492 0.119647 0.759985
Si Si2 0.811282 0.612581 0.810049
Si Si3 0.084201 0.274423 0.577573
Si Si4 0.458883 0.624126 0.505764
Si Si5 0.897507 0.500000 0.000000
Si Si6 0.347211 0.720736 0.351990
Si Si7 0.234041 0.781567 0.529490
Si Si8 0.795948 0.037385 0.195806
O O1 0.085986 0.235392 0.701932
O O2 0.000000 0.082170 0.750000
O O3 0.134435 0.037729 0.700930
O O4 0.091727 0.130454 0.888295
O O5 0.850598 0.543072 0.900211
O O6 0.861485 0.689779 0.739541
O O7 0.759256 0.693248 0.874670
O O8 0.767997 0.538500 0.729107
O O9 0.063621 0.395964 0.548504
O O10 0.161761 0.251959 0.530745
O O11 0.027401 0.195722 0.523946
O O12 0.478924 0.500000 0.500000
O O13 0.415653 0.667723 0.404241
O O14 0.297719 0.771559 0.445278
O O15 0.305973 0.625345 0.290915
O O16 0.220030 0.895719 0.587091
#
# Coordination Sequence:
#
# PCOD9319650 Si02
#       8
#     8   8   8   8   4   8   8   8
#     4  10  22  37  61  96 123 164 211 264 326 386
#     4  10  22  38  61  90 121 170 219 261 321 392
#     4  10  23  42  65  93 125 173 222 255 323 395
#     4  11  23  42  67  96 134 167 206 275 335 378
#     4  10  22  48  64  82 124 174 212 266 320 388
#     4  11  23  39  59  98 128 167 217 266 335 383
#     4  10  23  37  60  91 131 166 216 267 318 392
#     4  11  21  37  61  88 129 169 211 272 324 381
#
# _framework density 20.613468000000001
#
# number of rings (size 3 to 8) (size 9 to 14) (size 15 to 20)
#    0.000    1.600    1.333    3.200    3.733    4.800 
#    0.000   10.667    0.000    0.000    0.000    0.000 
#    0.000    0.000    0.000    0.000    0.000    0.000 
#
# Total GULP energy -167543.015679 kJ/mol
# GULP energy per Si atom -5584.767189 kJ/mol
# Density = 2.056655 g / cm^3
# Si number density = 20.613468 Si / 1000 Ang^3
#
#
#
# Elastic Constant Matrix: (Units=GPa)
#
#
# Indices 1 2 3 4 5 6 
#
# 1 35.1237 29.9767 -12.2512 0.0000 0.0000 0.0000
# 2 29.9767 146.8286 41.0305 0.0000 0.0000 0.0000
# 3 -12.2512 41.0305 47.8689 0.0000 0.0000 0.0000
# 4 0.0000 0.0000 0.0000 48.0573 0.0000 0.0000
# 5 0.0000 0.0000 0.0000 0.0000 16.1601 0.0000
# 6 0.0000 0.0000 0.0000 0.0000 0.0000 29.1112
#
#
#
# Elastic Compliance Matrix: (Units=1/GPa)
#
#
# Indices 1 2 3 4 5 6 
#
# 1 0.057755 -0.020937 0.032727 0.000000 0.000000 0.000000
# 2 -0.020937 0.016546 -0.019540 0.000000 0.000000 0.000000
# 3 0.032727 -0.019540 0.046015 0.000000 0.000000 0.000000
# 4 0.000000 0.000000 0.000000 0.020808 0.000000 0.000000
# 5 0.000000 0.000000 0.000000 0.000000 0.061881 0.000000
# 6 0.000000 0.000000 0.000000 0.000000 0.000000 0.034351
#
#
# Mechanical properties :
#
#
# Convention : Reuss Voigt Hill
#
# Bulk Modulus (GPa) = 9.54058 38.59256 24.06657
# Shear Modulus (GPa) = 17.37354 30.07006 23.72180
#
# Velocity S-wave (km/s) = 2.90629 3.82351 3.39601
# Velocity P-wave (km/s) = 3.98753 6.18506 5.20362
#
# Compressibility (1/GPa) = 0.10481539
#
# Stress axis : x y z
#
# Youngs Moduli (GPa) = 17.31464 60.43929 21.73201
#
# Poissons Ratio (x) = 1.26539 -0.71122
# Poissons Ratio (y) = 0.36251 0.42465
# Poissons Ratio (z) = -0.56666 1.18100
#
# Static dielectric constant tensor:
#      x y z
#    x 1.708990 0.000000 0.000000 
#    y 0.000000 1.750930 0.000000 
#    z 0.000000 0.000000 1.786290 
# 
# From -- ./inp_files/16372.got.cif
#   From: 2010.05.17/outbox.cif.g08.bks.cpg/sg20_9_cif.got.tgz:16372.got - 2010.06.03 22:52:26.
