data_PCOD9319508
_publ_section_title
;
Structure prediction by ZEFSAII (Michael W. Deem and Ramdas Pophale) SiO2 
 PCOD9319508
Probable space group: C 2 2 21
;
_chemical_formula_sum "Si O2"
_cell_formula_units_Z 52
_cell_length_a 12.130973
_cell_length_b 9.762891
_cell_length_c 20.299440
_cell_angle_alpha 90.000000
_cell_angle_beta 90.000000
_cell_angle_gamma 90.000000
_cell_volume 2404.131030
_symmetry_space_group_name_H-M "C 2 2 21"
_symmetry_group_IT_number 20
_symmetry_cell_setting 'orthorhombic'
loop_
_space_group_symop_operation_xyz
x,y,z
-x,-y,1/2+z
x,-y,-z
-x,y,1/2-z
1/2+x,1/2+y,z
1/2-x,1/2-y,1/2+z
1/2+x,1/2-y,-z
1/2-x,1/2+y,1/2-z
loop_
_atom_site_type_symbol
_atom_site_label
_atom_site_fract_x
_atom_site_fract_y
_atom_site_fract_z
Si Si1 0.164186 0.390002 0.640590
Si Si2 0.856192 0.500000 0.500000
Si Si3 0.026436 0.747122 0.066746
Si Si4 0.500000 0.988368 0.250000
Si Si5 0.263908 0.678594 0.638599
Si Si6 0.997612 0.000000 0.000000
Si Si7 0.186451 0.977991 0.605030
Si Si8 0.289229 0.160060 0.707919
O O1 0.076651 0.426760 0.699367
O O2 0.211562 0.534774 0.614024
O O3 0.263425 0.300962 0.670697
O O4 0.095469 0.292684 0.591196
O O5 0.929428 0.393610 0.538036
O O6 0.774096 0.552186 0.556658
O O7 0.106664 0.801222 0.124327
O O8 0.051946 0.854475 0.008212
O O9 0.585834 0.896364 0.207949
O O10 0.209737 0.815359 0.607827
O O11 0.241459 0.679337 0.716102
O O12 0.927385 0.002057 0.067432
O O13 0.209686 0.045478 0.675204
#
# Coordination Sequence:
#
# PCOD9319508 Si02
#       8
#     8   4   8   4   8   4   8   8
#     4  11  22  41  67  97 131 176 222 275 332 403
#     4   9  22  40  71  86 126 180 229 276 329 402
#     4  11  23  44  63  98 129 178 224 282 337 394
#     4  10  22  40  68  98 134 174 218 276 342 412
#     4  10  23  41  67  99 131 172 224 276 336 409
#     4  11  24  42  63  94 136 174 223 280 337 392
#     4  10  21  44  64  93 134 175 220 282 337 389
#     4  11  21  42  70  99 137 175 224 275 341 408
#
# _framework density 21.629438
#
# number of rings (size 3 to 8) (size 9 to 14) (size 15 to 20)
#    0.000    1.538    1.538    4.615    2.154    1.231 
#    8.308    0.000    0.000    0.000    0.000    0.000 
#    0.000    0.000    0.000    0.000    0.000    0.000 
#
# Total GULP energy -145005.339847 kJ/mol
# GULP energy per Si atom -5577.128456 kJ/mol
# Density = 2.158021 g / cm^3
# Si number density = 21.629438 Si / 1000 Ang^3
#
#
#
# Elastic Constant Matrix: (Units=GPa)
#
#
# Indices 1 2 3 4 5 6 
#
# 1 26.0539 19.0863 -5.6355 0.0000 0.0000 0.0000
# 2 19.0863 85.0577 1.1549 0.0000 0.0000 0.0000
# 3 -5.6355 1.1549 34.9604 0.0000 0.0000 0.0000
# 4 0.0000 0.0000 0.0000 28.3698 0.0000 0.0000
# 5 0.0000 0.0000 0.0000 0.0000 1.7233 0.0000
# 6 0.0000 0.0000 0.0000 0.0000 0.0000 39.1161
#
#
#
# Elastic Compliance Matrix: (Units=1/GPa)
#
#
# Indices 1 2 3 4 5 6 
#
# 1 0.048131 -0.010910 0.008119 0.000000 0.000000 0.000000
# 2 -0.010910 0.014235 -0.002229 0.000000 0.000000 0.000000
# 3 0.008119 -0.002229 0.029986 0.000000 0.000000 0.000000
# 4 0.000000 0.000000 0.000000 0.035249 0.000000 0.000000
# 5 0.000000 0.000000 0.000000 0.000000 0.580269 0.000000
# 6 0.000000 0.000000 0.000000 0.000000 0.000000 0.025565
#
#
# Mechanical properties :
#
#
# Convention : Reuss Voigt Hill
#
# Bulk Modulus (GPa) = 12.14904 19.47594 15.81249
# Shear Modulus (GPa) = 6.48582 22.60626 14.54604
#
# Velocity S-wave (km/s) = 1.73353 3.23640 2.59610
# Velocity P-wave (km/s) = 3.10418 4.79475 4.03891
#
# Compressibility (1/GPa) = 0.08231100
#
# Stress axis : x y z
#
# Youngs Moduli (GPa) = 20.77679 70.24841 33.34874
#
# Poissons Ratio (x) = 0.76644 -0.27075
# Poissons Ratio (y) = 0.22668 0.07433
# Poissons Ratio (z) = -0.16868 0.15658
#
# Static dielectric constant tensor:
#      x y z
#    x 1.806880 0.000000 0.000000 
#    y 0.000000 1.919150 0.000000 
#    z 0.000000 0.000000 1.251870 
# 
# From -- ./inp_files/27537.got.cif
#   From: 2010.05.17/outbox.cif.g08.bks.cpg/sg20_14_cif.got.tgz:27537.got - 2010.06.03 22:52:26.
