data_PCOD9319774
_publ_section_title
;
Structure prediction by ZEFSAII (Michael W. Deem and Ramdas Pophale) SiO2 
 PCOD9319774
Probable space group: C 2 2 21
;
_chemical_formula_sum "Si O2"
_cell_formula_units_Z 64
_cell_length_a 15.319839
_cell_length_b 7.695188
_cell_length_c 23.748762
_cell_angle_alpha 90.000000
_cell_angle_beta 90.000000
_cell_angle_gamma 90.000000
_cell_volume 2799.718783
_symmetry_space_group_name_H-M "C 2 2 21"
_symmetry_group_IT_number 20
_symmetry_cell_setting 'orthorhombic'
loop_
_space_group_symop_operation_xyz
x,y,z
-x,-y,1/2+z
x,-y,-z
-x,y,1/2-z
1/2+x,1/2+y,z
1/2-x,1/2-y,1/2+z
1/2+x,1/2-y,-z
1/2-x,1/2+y,1/2-z
loop_
_atom_site_type_symbol
_atom_site_label
_atom_site_fract_x
_atom_site_fract_y
_atom_site_fract_z
Si Si1 0.338988 0.735143 0.124589
Si Si2 0.350429 0.613572 0.608548
Si Si3 0.098311 0.938996 0.235019
Si Si4 0.402261 0.854312 0.237932
Si Si5 0.825216 0.273101 0.431689
Si Si6 0.344586 0.205451 0.000935
Si Si7 0.531414 0.291219 0.013451
Si Si8 0.246998 0.916688 0.315463
O O1 0.245307 0.818160 0.116912
O O2 0.390218 0.847270 0.170542
O O3 0.372091 0.725778 0.061149
O O4 0.315865 0.554405 0.153520
O O5 0.390958 0.596599 0.669485
O O6 0.338524 0.430276 0.578836
O O7 0.405405 0.730059 0.566698
O O8 0.173230 0.843097 0.271974
O O9 0.000000 0.891005 0.250000
O O10 0.107177 0.150309 0.242504
O O11 0.500000 0.913887 0.250000
O O12 0.326436 0.954232 0.271902
O O13 0.740585 0.296077 0.472361
O O14 0.917150 0.312326 0.463360
O O15 0.797961 0.339568 0.369738
O O16 0.435801 0.230643 0.032317
O O17 0.325255 0.000000 0.000000
O O18 0.524425 0.500000 0.000000
#
# Coordination Sequence:
#
# PCOD9319774 Si02
#       8
#     8   8   8   8   8   8   8   8
#     4  11  24  42  67  95 135 168 218 271 326 391
#     4  11  20  45  65  89 135 174 215 263 330 397
#     4  10  22  39  67  94 129 170 220 265 329 393
#     4  10  22  42  65  97 129 174 213 266 334 389
#     4  11  23  43  67  90 131 177 217 258 334 389
#     4  12  25  45  66  97 131 178 217 270 337 386
#     4  10  25  41  67  95 127 172 220 271 324 395
#     4  11  24  38  67 100 127 171 222 276 321 386
#
# _framework density 22.859438000000001
#
# number of rings (size 3 to 8) (size 9 to 14) (size 15 to 20)
#    0.000    1.250    5.000    0.375    5.250    3.000 
#    0.000    0.625    0.000    0.000    0.000    0.000 
#    0.000    0.000    0.000    0.000    0.000    0.000 
#
# Total GULP energy -178429.600791 kJ/mol
# GULP energy per Si atom -5575.925025 kJ/mol
# Density = 2.280741 g / cm^3
# Si number density = 22.859438 Si / 1000 Ang^3
#
#
#
# Elastic Constant Matrix: (Units=GPa)
#
#
# Indices 1 2 3 4 5 6 
#
# 1 122.8200 -11.7376 34.3247 0.0000 0.0000 0.0000
# 2 -11.7376 24.4938 2.4181 0.0000 0.0000 0.0000
# 3 34.3247 2.4181 117.4986 0.0000 0.0000 0.0000
# 4 0.0000 0.0000 0.0000 1.9962 0.0000 0.0000
# 5 0.0000 0.0000 0.0000 0.0000 46.3461 0.0000
# 6 0.0000 0.0000 0.0000 0.0000 0.0000 25.7670
#
#
#
# Elastic Compliance Matrix: (Units=1/GPa)
#
#
# Indices 1 2 3 4 5 6 
#
# 1 0.009393 0.004782 -0.002842 0.000000 0.000000 0.000000
# 2 0.004782 0.043344 -0.002289 0.000000 0.000000 0.000000
# 3 -0.002842 -0.002289 0.009388 0.000000 0.000000 0.000000
# 4 0.000000 0.000000 0.000000 0.500963 0.000000 0.000000
# 5 0.000000 0.000000 0.000000 0.000000 0.021577 0.000000
# 6 0.000000 0.000000 0.000000 0.000000 0.000000 0.038809
#
#
# Mechanical properties :
#
#
# Convention : Reuss Voigt Hill
#
# Bulk Modulus (GPa) = 16.27950 34.98031 25.62990
# Shear Modulus (GPa) = 7.75615 30.80899 19.28257
#
# Velocity S-wave (km/s) = 1.84400 3.67517 2.90751
# Velocity P-wave (km/s) = 3.41626 5.77449 4.74423
#
# Compressibility (1/GPa) = 0.06142695
#
# Stress axis : x y z
#
# Youngs Moduli (GPa) = 106.45768 23.07110 106.51640
#
# Poissons Ratio (x) = -0.11033 0.30277
# Poissons Ratio (y) = -0.50908 0.24382
# Poissons Ratio (z) = 0.30261 0.05281
#
# Static dielectric constant tensor:
#      x y z
#    x 2.089460 0.000000 0.000000 
#    y 0.000000 1.907820 0.000000 
#    z 0.000000 0.000000 1.758320 
# 
# From -- ./inp_files/28900.got.cif
#   From: 2010.05.17/outbox.cif.g08.bks.cpg/sg20_15_cif.got.tgz:28900.got - 2010.06.03 22:52:26.
