data_PCOD9319448
_publ_section_title
;
Structure prediction by ZEFSAII (Michael W. Deem and Ramdas Pophale) SiO2 
 PCOD9319448
Probable space group: C 2 2 21
;
_chemical_formula_sum "Si O2"
_cell_formula_units_Z 48
_cell_length_a 10.553704
_cell_length_b 7.482090
_cell_length_c 26.062553
_cell_angle_alpha 90.000000
_cell_angle_beta 90.000000
_cell_angle_gamma 90.000000
_cell_volume 2057.997262
_symmetry_space_group_name_H-M "C 2 2 21"
_symmetry_group_IT_number 20
_symmetry_cell_setting 'orthorhombic'
loop_
_space_group_symop_operation_xyz
x,y,z
-x,-y,1/2+z
x,-y,-z
-x,y,1/2-z
1/2+x,1/2+y,z
1/2-x,1/2-y,1/2+z
1/2+x,1/2-y,-z
1/2-x,1/2+y,1/2-z
loop_
_atom_site_type_symbol
_atom_site_label
_atom_site_fract_x
_atom_site_fract_y
_atom_site_fract_z
Si Si1 0.252098 0.697186 0.011722
Si Si2 0.075318 0.633604 0.094704
Si Si3 0.136849 0.214379 0.754636
Si Si4 0.706292 0.459094 0.669621
Si Si5 0.699514 0.032961 0.418446
Si Si6 0.070813 0.989846 0.848008
O O1 0.111908 0.655226 0.034778
O O2 0.292418 0.834278 0.056977
O O3 0.309426 0.500000 0.000000
O O4 0.272262 0.819603 0.962236
O O5 0.192226 0.538215 0.123691
O O6 0.053660 0.824451 0.121059
O O7 0.942260 0.540613 0.101436
O O8 0.234199 0.326319 0.788214
O O9 0.103989 0.042213 0.789927
O O10 0.000000 0.311135 0.750000
O O11 0.185427 0.143940 0.700336
O O12 0.566415 0.398471 0.651482
O O13 0.804655 0.078458 0.376112
#
# Coordination Sequence:
#
# PCOD9319448 Si02
#       6
#     8   8   8   8   8   8
#     4  10  24  45  68 101 138 184 227 283 338 410
#     4  10  23  43  66 101 133 175 231 285 339 408
#     4   9  20  41  63  94 134 170 224 279 332 407
#     4  10  21  42  70  95 136 176 222 282 340 406
#     4  10  23  47  71 100 141 183 226 286 347 407
#     4   9  21  43  66  95 133 176 225 279 340 413
#
# _framework density 23.323644999999999
#
# number of rings (size 3 to 8) (size 9 to 14) (size 15 to 20)
#    0.000    2.333    0.000    0.000    4.667    5.333 
#    9.000   14.167    0.000    0.000    0.000    0.000 
#    0.000    0.000    0.000    0.000    0.000    0.000 
#
# Total GULP energy -133901.190203 kJ/mol
# GULP energy per Si atom -5579.216258 kJ/mol
# Density = 2.327056 g / cm^3
# Si number density = 23.323645 Si / 1000 Ang^3
#
#
#
# Elastic Constant Matrix: (Units=GPa)
#
#
# Indices 1 2 3 4 5 6 
#
# 1 198.2387 43.2855 54.1652 0.0000 0.0000 0.0000
# 2 43.2855 100.0003 36.3748 0.0000 0.0000 0.0000
# 3 54.1652 36.3748 79.9183 0.0000 0.0000 0.0000
# 4 0.0000 0.0000 0.0000 43.3890 0.0000 0.0000
# 5 0.0000 0.0000 0.0000 0.0000 21.6353 0.0000
# 6 0.0000 0.0000 0.0000 0.0000 0.0000 16.7167
#
#
#
# Elastic Compliance Matrix: (Units=1/GPa)
#
#
# Indices 1 2 3 4 5 6 
#
# 1 0.006355 -0.001419 -0.003661 0.000000 0.000000 0.000000
# 2 -0.001419 0.012301 -0.004637 0.000000 0.000000 0.000000
# 3 -0.003661 -0.004637 0.017105 0.000000 0.000000 0.000000
# 4 0.000000 0.000000 0.000000 0.023047 0.000000 0.000000
# 5 0.000000 0.000000 0.000000 0.000000 0.046221 0.000000
# 6 0.000000 0.000000 0.000000 0.000000 0.000000 0.059820
#
#
# Mechanical properties :
#
#
# Convention : Reuss Voigt Hill
#
# Bulk Modulus (GPa) = 61.25178 71.75646 66.50412
# Shear Modulus (GPa) = 26.35401 32.63699 29.49550
#
# Velocity S-wave (km/s) = 3.36508 3.74479 3.56000
# Velocity P-wave (km/s) = 6.43561 7.03778 6.74342
#
# Compressibility (1/GPa) = 0.01632606
#
# Stress axis : x y z
#
# Youngs Moduli (GPa) = 157.36752 81.29508 58.46370
#
# Poissons Ratio (x) = 0.11535 0.21404
# Poissons Ratio (y) = 0.22329 0.27110
# Poissons Ratio (z) = 0.57613 0.37697
#
# Static dielectric constant tensor:
#      x y z
#    x 1.943460 0.000000 0.000000 
#    y 0.000000 1.916050 0.000000 
#    z 0.000000 0.000000 1.896930 
# 
# From -- ./inp_files/30954.got.cif
#   From: 2010.05.17/outbox.cif.g08.bks.cpg/sg20_16_cif.got.tgz:30954.got - 2010.06.03 22:52:26.
