data_PCOD9319053
_publ_section_title
;
Structure prediction by ZEFSAII (Michael W. Deem and Ramdas Pophale) SiO2 
 PCOD9319053
Probable space group: C 2 2 21
;
_chemical_formula_sum "Si O2"
_cell_formula_units_Z 36
_cell_length_a 8.640951
_cell_length_b 18.334498
_cell_length_c 9.583632
_cell_angle_alpha 90.000000
_cell_angle_beta 90.000000
_cell_angle_gamma 90.000000
_cell_volume 1518.310847
_symmetry_space_group_name_H-M "C 2 2 21"
_symmetry_group_IT_number 20
_symmetry_cell_setting 'orthorhombic'
loop_
_space_group_symop_operation_xyz
x,y,z
-x,-y,1/2+z
x,-y,-z
-x,y,1/2-z
1/2+x,1/2+y,z
1/2-x,1/2-y,1/2+z
1/2+x,1/2-y,-z
1/2-x,1/2+y,1/2-z
loop_
_atom_site_type_symbol
_atom_site_label
_atom_site_fract_x
_atom_site_fract_y
_atom_site_fract_z
Si Si1 0.175131 0.589241 0.732735
Si Si2 0.648678 0.627423 0.191948
Si Si3 0.884342 0.705410 0.983540
Si Si4 0.643353 0.500000 0.000000
Si Si5 0.731743 0.142632 0.020314
O O1 0.165262 0.670543 0.665336
O O2 0.257192 0.541763 0.616395
O O3 0.000000 0.562880 0.750000
O O4 0.250351 0.592384 0.884601
O O5 0.500000 0.670320 0.250000
O O6 0.768214 0.670279 0.096526
O O7 0.573336 0.563731 0.095941
O O8 0.744848 0.605295 0.329928
O O9 0.059138 0.678308 0.011827
O O10 0.851883 0.790691 0.993503
#
# Coordination Sequence:
#
# PCOD9319053 Si02
#       5
#     8   8   8   4   8
#     4   9  21  38  60  88 120 156 201 253 310 372
#     4  11  24  41  61  88 125 167 210 259 309 368
#     4  10  21  39  62  96 129 157 198 254 315 381
#     4  10  24  42  58  84 122 162 214 266 306 358
#     4  11  21  38  66  95 124 162 201 249 316 383
#
# _framework density 23.710559
#
# number of rings (size 3 to 8) (size 9 to 14) (size 15 to 20)
#    0.000    1.778    0.000    3.333    0.000    9.778 
#    0.000    7.778    0.000    1.333    0.000    0.000 
#    0.000    0.000    0.000    0.000    0.000    0.000 
#
# Total GULP energy -100546.833743 kJ/mol
# GULP energy per Si atom -5585.935208 kJ/mol
# Density = 2.365659 g / cm^3
# Si number density = 23.710559 Si / 1000 Ang^3
#
#
#
# Elastic Constant Matrix: (Units=GPa)
#
#
# Indices 1 2 3 4 5 6 
#
# 1 66.7569 8.4801 38.1626 0.0000 0.0000 0.0000
# 2 8.4801 57.2867 25.5784 0.0000 0.0000 0.0000
# 3 38.1626 25.5784 185.9752 0.0000 0.0000 0.0000
# 4 0.0000 0.0000 0.0000 23.4543 0.0000 0.0000
# 5 0.0000 0.0000 0.0000 0.0000 31.9896 0.0000
# 6 0.0000 0.0000 0.0000 0.0000 0.0000 9.8906
#
#
#
# Elastic Compliance Matrix: (Units=1/GPa)
#
#
# Indices 1 2 3 4 5 6 
#
# 1 0.017027 -0.001023 -0.003353 0.000000 0.000000 0.000000
# 2 -0.001023 0.018660 -0.002356 0.000000 0.000000 0.000000
# 3 -0.003353 -0.002356 0.006389 0.000000 0.000000 0.000000
# 4 0.000000 0.000000 0.000000 0.042636 0.000000 0.000000
# 5 0.000000 0.000000 0.000000 0.000000 0.031260 0.000000
# 6 0.000000 0.000000 0.000000 0.000000 0.000000 0.101106
#
#
# Mechanical properties :
#
#
# Convention : Reuss Voigt Hill
#
# Bulk Modulus (GPa) = 34.95299 50.49564 42.72432
# Shear Modulus (GPa) = 20.82638 28.92009 24.87323
#
# Velocity S-wave (km/s) = 2.96693 3.49623 3.24240
# Velocity P-wave (km/s) = 5.14883 6.13523 5.66354
#
# Compressibility (1/GPa) = 0.02860985
#
# Stress axis : x y z
#
# Youngs Moduli (GPa) = 58.73170 53.59150 156.51338
#
# Poissons Ratio (x) = 0.05484 0.52481
# Poissons Ratio (y) = 0.06010 0.36881
# Poissons Ratio (z) = 0.19694 0.12628
#
# Static dielectric constant tensor:
#      x y z
#    x 1.887810 0.000000 0.000000 
#    y 0.000000 1.979760 0.000000 
#    z 0.000000 0.000000 1.916460 
# 
# From -- ./inp_files/5893.got.cif
#   From: 2010.05.17/outbox.cif.g08.bks.cpg/sg20_3_cif.got.tgz:5893.got - 2010.06.03 22:52:26.
