data_PCOD9319313
_publ_section_title
;
Structure prediction by ZEFSAII (Michael W. Deem and Ramdas Pophale) SiO2 
 PCOD9319313
Probable space group: C 2 2 21
;
_chemical_formula_sum "Si O2"
_cell_formula_units_Z 36
_cell_length_a 13.734565
_cell_length_b 16.242270
_cell_length_c 7.068372
_cell_angle_alpha 90.000000
_cell_angle_beta 90.000000
_cell_angle_gamma 90.000000
_cell_volume 1576.816052
_symmetry_space_group_name_H-M "C 2 2 21"
_symmetry_group_IT_number 20
_symmetry_cell_setting 'orthorhombic'
loop_
_space_group_symop_operation_xyz
x,y,z
-x,-y,1/2+z
x,-y,-z
-x,y,1/2-z
1/2+x,1/2+y,z
1/2-x,1/2-y,1/2+z
1/2+x,1/2-y,-z
1/2-x,1/2+y,1/2-z
loop_
_atom_site_type_symbol
_atom_site_label
_atom_site_fract_x
_atom_site_fract_y
_atom_site_fract_z
Si Si1 0.270908 0.678328 0.385845
Si Si2 0.290973 0.000000 0.500000
Si Si3 0.033086 0.901089 0.968951
Si Si4 0.092031 0.428165 0.649365
Si Si5 0.174570 0.150427 0.550793
O O1 0.366026 0.648760 0.501599
O O2 0.172908 0.630095 0.443969
O O3 0.235997 0.772499 0.374809
O O4 0.301943 0.654802 0.173822
O O5 0.356601 0.034711 0.333671
O O6 0.222734 0.064844 0.606416
O O7 0.940729 0.860280 0.075513
O O8 0.000000 0.893353 0.750000
O O9 0.044183 0.000000 0.000000
O O10 0.065471 0.500000 0.500000
O O11 0.000000 0.384416 0.750000
#
# Coordination Sequence:
#
# PCOD9319313 Si02
#       5
#     8   4   8   8   8
#     4  10  24  39  63  97 131 163 226 276 328 392
#     4  10  22  42  66  94 130 178 224 266 326 406
#     4  10  21  41  65  94 126 170 220 268 329 399
#     4  11  23  42  66  95 131 176 222 267 336 402
#     4  10  22  41  64  94 130 170 218 274 332 392
#
# _framework density 22.830818000000001
#
# number of rings (size 3 to 8) (size 9 to 14) (size 15 to 20)
#    0.000    1.778    2.222    0.667    3.111    5.333 
#    0.000    0.000    0.000    0.000    0.000    0.000 
#    0.000    0.000    0.000    0.000    0.000    0.000 
#
# Total GULP energy -100432.849101 kJ/mol
# GULP energy per Si atom -5579.602728 kJ/mol
# Density = 2.277885 g / cm^3
# Si number density = 22.830818 Si / 1000 Ang^3
#
#
#
# Elastic Constant Matrix: (Units=GPa)
#
#
# Indices 1 2 3 4 5 6 
#
# 1 217.4320 84.1997 16.9878 0.0000 0.0000 0.0000
# 2 84.1997 107.5562 -15.9462 0.0000 0.0000 0.0000
# 3 16.9878 -15.9462 39.6883 0.0000 0.0000 0.0000
# 4 0.0000 0.0000 0.0000 1.6355 0.0000 0.0000
# 5 0.0000 0.0000 0.0000 0.0000 26.3836 0.0000
# 6 0.0000 0.0000 0.0000 0.0000 0.0000 30.2045
#
#
#
# Elastic Compliance Matrix: (Units=1/GPa)
#
#
# Indices 1 2 3 4 5 6 
#
# 1 0.007797 -0.007017 -0.006157 0.000000 0.000000 0.000000
# 2 -0.007017 0.016201 0.009513 0.000000 0.000000 0.000000
# 3 -0.006157 0.009513 0.031654 0.000000 0.000000 0.000000
# 4 0.000000 0.000000 0.000000 0.611417 0.000000 0.000000
# 5 0.000000 0.000000 0.000000 0.000000 0.037902 0.000000
# 6 0.000000 0.000000 0.000000 0.000000 0.000000 0.033108
#
#
# Mechanical properties :
#
#
# Convention : Reuss Voigt Hill
#
# Bulk Modulus (GPa) = 20.69098 59.46213 40.07656
# Shear Modulus (GPa) = 6.56588 30.27375 18.41982
#
# Velocity S-wave (km/s) = 1.69768 3.64538 2.84350
# Velocity P-wave (km/s) = 3.59517 6.61964 5.32658
#
# Compressibility (1/GPa) = 0.04833023
#
# Stress axis : x y z
#
# Youngs Moduli (GPa) = 128.24633 61.72430 31.59177
#
# Poissons Ratio (x) = 0.43312 0.19451
# Poissons Ratio (y) = 0.89991 -0.30053
# Poissons Ratio (z) = 0.78960 -0.58718
#
# Static dielectric constant tensor:
#      x y z
#    x 1.931590 0.000000 0.000000 
#    y 0.000000 2.007110 0.000000 
#    z 0.000000 0.000000 1.909610 
# 
# From -- ./inp_files/8242.got.cif
#   From: 2010.05.17/outbox.cif.g08.bks.cpg/sg20_5_cif.got.tgz:8242.got - 2010.06.03 22:52:26.
