data_PCOD9319867
_publ_section_title
;
Structure prediction by ZEFSAII (Michael W. Deem and Ramdas Pophale) SiO2 
 PCOD9319867
Probable space group: C 2 2 21
;
_chemical_formula_sum "Si O2"
_cell_formula_units_Z 36
_cell_length_a 11.815288
_cell_length_b 27.485176
_cell_length_c 5.205429
_cell_angle_alpha 90.000000
_cell_angle_beta 90.000000
_cell_angle_gamma 90.000000
_cell_volume 1690.438447
_symmetry_space_group_name_H-M "C 2 2 21"
_symmetry_group_IT_number 20
_symmetry_cell_setting 'orthorhombic'
loop_
_space_group_symop_operation_xyz
x,y,z
-x,-y,1/2+z
x,-y,-z
-x,y,1/2-z
1/2+x,1/2+y,z
1/2-x,1/2-y,1/2+z
1/2+x,1/2-y,-z
1/2-x,1/2+y,1/2-z
loop_
_atom_site_type_symbol
_atom_site_label
_atom_site_fract_x
_atom_site_fract_y
_atom_site_fract_z
Si Si1 0.894580 0.705527 0.084157
Si Si2 0.874983 0.148536 0.777820
Si Si3 0.078539 0.500000 0.500000
Si Si4 0.131765 0.395695 0.360874
Si Si5 0.847481 0.214805 0.273937
O O1 0.785600 0.722592 0.234395
O O2 0.000000 0.719670 0.250000
O O3 0.882783 0.647766 0.062463
O O4 0.891878 0.732206 0.809866
O O5 0.752635 0.119737 0.775255
O O6 0.871104 0.185812 0.535664
O O7 0.000000 0.123040 0.750000
O O8 0.879485 0.179033 0.040570
O O9 0.147476 0.450365 0.461044
O O10 0.000000 0.507251 0.250000
O O11 0.000000 0.396582 0.250000
#
# Coordination Sequence:
#
# PCOD9319867 Si02
#       5
#     8   8   4   8   8
#     4  11  22  38  60  88 122 163 212 253 297 361
#     4  11  24  41  62  90 126 166 203 246 304 366
#     4  10  22  42  66  94 124 156 200 260 318 358
#     4  10  22  40  66  93 122 160 207 256 307 361
#     4  11  24  39  58  88 126 166 204 248 301 359
#
# _framework density 21.296249
#
# number of rings (size 3 to 8) (size 9 to 14) (size 15 to 20)
#    0.000    1.333    0.000    6.000    0.000   10.667 
#    0.000    0.000    0.000   10.667    0.000    0.000 
#    0.000    0.000    0.000    0.000    0.000    0.000 
#
# Total GULP energy -100304.598979 kJ/mol
# GULP energy per Si atom -5572.477721 kJ/mol
# Density = 2.124778 g / cm^3
# Si number density = 21.296249 Si / 1000 Ang^3
#
#
#
# Elastic Constant Matrix: (Units=GPa)
#
#
# Indices 1 2 3 4 5 6 
#
# 1 190.0395 30.5942 2.1971 0.0000 0.0000 0.0000
# 2 30.5942 138.5478 20.8468 0.0000 0.0000 0.0000
# 3 2.1971 20.8468 82.6410 0.0000 0.0000 0.0000
# 4 0.0000 0.0000 0.0000 -9.6919 0.0000 0.0000
# 5 0.0000 0.0000 0.0000 0.0000 31.1787 0.0000
# 6 0.0000 0.0000 0.0000 0.0000 0.0000 127.9481
#
#
#
# Elastic Compliance Matrix: (Units=1/GPa)
#
#
# Indices 1 2 3 4 5 6 
#
# 1 0.005458 -0.001230 0.000165 0.000000 0.000000 0.000000
# 2 -0.001230 0.007780 -0.001930 0.000000 0.000000 0.000000
# 3 0.000165 -0.001930 0.012583 0.000000 0.000000 0.000000
# 4 0.000000 0.000000 0.000000 -0.103179 0.000000 0.000000
# 5 0.000000 0.000000 0.000000 0.000000 0.032073 0.000000
# 6 0.000000 0.000000 0.000000 0.000000 0.000000 0.007816
#
#
# Mechanical properties :
#
#
# Convention : Reuss Voigt Hill
#
# Bulk Modulus (GPa) = 50.42506 57.61162 54.01834
# Shear Modulus (GPa) = -201.04962 53.72633 -73.66164
#
# Velocity S-wave (km/s) = -9.72682 5.02820 -5.88762
# Velocity P-wave (km/s) = 10.12022 7.79882 4.56054
#
# Compressibility (1/GPa) = 0.01983141
#
# Stress axis : x y z
#
# Youngs Moduli (GPa) = 183.21078 128.53907 79.47267
#
# Poissons Ratio (x) = 0.15812 -0.01313
# Poissons Ratio (y) = 0.22537 0.15337
# Poissons Ratio (z) = -0.03027 0.24805
#
# Static dielectric constant tensor:
#      x y z
#    x 1.913800 0.000000 0.000000 
#    y 0.000000 1.768510 0.000000 
#    z 0.000000 0.000000 1.804670 
# 
# From -- ./inp_files/1357.got.cif
#   From: 2010.05.17/outbox.cif.g08.bks.cpg/sg20_1_cif.got.tgz:1357.got - 2010.06.03 22:52:26.
