data_PCOD9319494
_publ_section_title
;
Structure prediction by ZEFSAII (Michael W. Deem and Ramdas Pophale) SiO2 
 PCOD9319494
Probable space group: C 2 2 21
;
_chemical_formula_sum "Si O2"
_cell_formula_units_Z 40
_cell_length_a 12.734130
_cell_length_b 15.303125
_cell_length_c 9.237871
_cell_angle_alpha 90.000000
_cell_angle_beta 90.000000
_cell_angle_gamma 90.000000
_cell_volume 1800.202242
_symmetry_space_group_name_H-M "C 2 2 21"
_symmetry_group_IT_number 20
_symmetry_cell_setting 'orthorhombic'
loop_
_space_group_symop_operation_xyz
x,y,z
-x,-y,1/2+z
x,-y,-z
-x,y,1/2-z
1/2+x,1/2+y,z
1/2-x,1/2-y,1/2+z
1/2+x,1/2-y,-z
1/2-x,1/2+y,1/2-z
loop_
_atom_site_type_symbol
_atom_site_label
_atom_site_fract_x
_atom_site_fract_y
_atom_site_fract_z
Si Si1 0.849682 0.270788 0.987341
Si Si2 0.895122 0.004046 0.672927
Si Si3 0.657256 0.690365 0.204564
Si Si4 0.722086 0.415162 0.403081
Si Si5 0.544042 0.153160 0.904113
O O1 0.822009 0.250526 0.155279
O O2 0.948998 0.336162 0.984107
O O3 0.758646 0.314439 0.895143
O O4 0.849769 0.170275 0.930434
O O5 0.880400 0.906139 0.733316
O O6 0.000000 0.039446 0.750000
O O7 0.902074 0.000000 0.500000
O O8 0.797456 0.058091 0.736852
O O9 0.570252 0.744199 0.118322
O O10 0.694884 0.500000 0.500000
O O11 0.843682 0.390140 0.437134
O O12 0.500000 0.118668 0.750000
#
# Coordination Sequence:
#
# PCOD9319494 Si02
#       5
#     8   8   8   8   8
#     4  10  21  43  69  95 140 184 233 278 353 408
#     4  12  27  42  70 103 136 178 231 295 361 412
#     4  10  22  40  69  96 133 183 232 285 336 424
#     4  11  23  45  68 101 139 180 229 296 346 412
#     4   9  21  41  67  94 139 183 222 282 345 411
#
# _framework density 22.219725
#
# number of rings (size 3 to 8) (size 9 to 14) (size 15 to 20)
#    0.000    1.600    2.000    2.400   11.200    0.000 
#    3.600    4.000    0.000    0.000    0.000    0.000 
#    0.000    0.000    0.000    0.000    0.000    0.000 
#
# Total GULP energy -111533.729214 kJ/mol
# GULP energy per Si atom -5576.686461 kJ/mol
# Density = 2.216915 g / cm^3
# Si number density = 22.219725 Si / 1000 Ang^3
#
#
#
# Elastic Constant Matrix: (Units=GPa)
#
#
# Indices 1 2 3 4 5 6 
#
# 1 103.8825 18.6532 44.3010 0.0000 0.0000 0.0000
# 2 18.6532 42.0716 -6.3586 0.0000 0.0000 0.0000
# 3 44.3010 -6.3586 84.8204 0.0000 0.0000 0.0000
# 4 0.0000 0.0000 0.0000 12.2120 0.0000 0.0000
# 5 0.0000 0.0000 0.0000 0.0000 39.1021 0.0000
# 6 0.0000 0.0000 0.0000 0.0000 0.0000 28.2541
#
#
#
# Elastic Compliance Matrix: (Units=1/GPa)
#
#
# Indices 1 2 3 4 5 6 
#
# 1 0.014464 -0.007641 -0.008127 0.000000 0.000000 0.000000
# 2 -0.007641 0.028078 0.006096 0.000000 0.000000 0.000000
# 3 -0.008127 0.006096 0.016491 0.000000 0.000000 0.000000
# 4 0.000000 0.000000 0.000000 0.081887 0.000000 0.000000
# 5 0.000000 0.000000 0.000000 0.000000 0.025574 0.000000
# 6 0.000000 0.000000 0.000000 0.000000 0.000000 0.035393
#
#
# Mechanical properties :
#
#
# Convention : Reuss Voigt Hill
#
# Bulk Modulus (GPa) = 25.19634 38.21841 31.70737
# Shear Modulus (GPa) = 21.32530 27.52555 24.42543
#
# Velocity S-wave (km/s) = 3.10134 3.52346 3.31912
# Velocity P-wave (km/s) = 4.91819 5.81297 5.38420
#
# Compressibility (1/GPa) = 0.03968831
#
# Stress axis : x y z
#
# Youngs Moduli (GPa) = 69.13570 35.61471 60.63736
#
# Poissons Ratio (x) = 0.27215 0.49283
# Poissons Ratio (y) = 0.52829 -0.36964
# Poissons Ratio (z) = 0.56189 -0.21710
#
# Static dielectric constant tensor:
#      x y z
#    x 1.870900 0.000000 0.000000 
#    y 0.000000 1.807280 0.000000 
#    z 0.000000 0.000000 1.870810 
# 
# From -- ./inp_files/7038.got.cif
#   From: 2010.05.17/outbox.cif.g08.bks.cpg/sg20_4_cif.got.tgz:7038.got - 2010.06.03 22:52:26.
