data_PCOD9319561
_publ_section_title
;
Structure prediction by ZEFSAII (Michael W. Deem and Ramdas Pophale) SiO2 
 PCOD9319561
Probable space group: C 2 2 21
;
_chemical_formula_sum "Si O2"
_cell_formula_units_Z 32
_cell_length_a 14.137370
_cell_length_b 8.388494
_cell_length_c 10.191446
_cell_angle_alpha 90.000000
_cell_angle_beta 90.000000
_cell_angle_gamma 90.000000
_cell_volume 1208.616253
_symmetry_space_group_name_H-M "C 2 2 21"
_symmetry_group_IT_number 20
_symmetry_cell_setting 'orthorhombic'
loop_
_space_group_symop_operation_xyz
x,y,z
-x,-y,1/2+z
x,-y,-z
-x,y,1/2-z
1/2+x,1/2+y,z
1/2-x,1/2-y,1/2+z
1/2+x,1/2-y,-z
1/2-x,1/2+y,1/2-z
loop_
_atom_site_type_symbol
_atom_site_label
_atom_site_fract_x
_atom_site_fract_y
_atom_site_fract_z
Si Si1 0.306069 0.969330 0.740831
Si Si2 0.106644 0.089100 0.365954
Si Si3 0.854064 0.151577 0.660781
Si Si4 0.043602 0.340589 0.069218
O O1 0.221699 0.910324 0.641928
O O2 0.352627 0.797698 0.767358
O O3 0.249053 0.068308 0.849434
O O4 0.377068 0.085177 0.665282
O O5 0.045362 0.247116 0.374593
O O6 0.082827 0.000000 0.500000
O O7 0.091055 0.992241 0.230368
O O8 0.901102 0.225887 0.533111
O O9 0.005384 0.500000 0.000000
#
# Coordination Sequence:
#
# PCOD9319561 Si02
#       4
#     8   8   8   8
#     4   9  21  45  74 108 148 200 258 316 389 466
#     4  10  22  42  71 109 146 198 262 312 385 462
#     4   9  21  42  73 107 145 204 253 315 390 457
#     4  10  21  45  72 107 159 194 263 328 370 468
#
# _framework density 26.476559999999999
#
# number of rings (size 3 to 8) (size 9 to 14) (size 15 to 20)
#    1.500    1.000    0.000    2.250    0.000    3.000 
#   13.500    0.000    0.000    0.000    0.000    0.000 
#    0.000    0.000    0.000    0.000    0.000    0.000 
#
# Total GULP energy -89359.328573 kJ/mol
# GULP energy per Si atom -5584.958036 kJ/mol
# Density = 2.641630 g / cm^3
# Si number density = 26.476560 Si / 1000 Ang^3
#
#
#
# Elastic Constant Matrix: (Units=GPa)
#
#
# Indices 1 2 3 4 5 6 
#
# 1 141.6122 105.9996 26.4914 0.0000 0.0000 0.0000
# 2 105.9996 190.2144 90.3772 0.0000 0.0000 0.0000
# 3 26.4914 90.3772 74.5726 0.0000 0.0000 0.0000
# 4 0.0000 0.0000 0.0000 48.7371 0.0000 0.0000
# 5 0.0000 0.0000 0.0000 0.0000 33.8276 0.0000
# 6 0.0000 0.0000 0.0000 0.0000 0.0000 61.7882
#
#
#
# Elastic Compliance Matrix: (Units=1/GPa)
#
#
# Indices 1 2 3 4 5 6 
#
# 1 0.015498 -0.014194 0.011696 0.000000 0.000000 0.000000
# 2 -0.014194 0.025393 -0.025733 0.000000 0.000000 0.000000
# 3 0.011696 -0.025733 0.040441 0.000000 0.000000 0.000000
# 4 0.000000 0.000000 0.000000 0.020518 0.000000 0.000000
# 5 0.000000 0.000000 0.000000 0.000000 0.029562 0.000000
# 6 0.000000 0.000000 0.000000 0.000000 0.000000 0.016184
#
#
# Mechanical properties :
#
#
# Convention : Reuss Voigt Hill
#
# Bulk Modulus (GPa) = 40.20599 94.68173 67.44386
# Shear Modulus (GPa) = 23.54628 41.10601 32.32614
#
# Velocity S-wave (km/s) = 2.98539 3.94451 3.49798
# Velocity P-wave (km/s) = 5.20595 7.52222 6.46860
#
# Compressibility (1/GPa) = 0.02487192
#
# Stress axis : x y z
#
# Youngs Moduli (GPa) = 64.52568 39.38038 24.72716
#
# Poissons Ratio (x) = 0.55895 -0.28922
# Poissons Ratio (y) = 0.91585 0.63630
# Poissons Ratio (z) = -0.75471 1.01337
#
# Static dielectric constant tensor:
#      x y z
#    x 2.178210 0.000000 0.000000 
#    y 0.000000 2.101020 0.000000 
#    z 0.000000 0.000000 2.102580 
# 
# From -- ./inp_files/14643.got.cif
#   From: 2010.05.17/outbox.cif.g08.bks.cpg/sg20_8_cif.got.tgz:14643.got - 2010.06.03 22:52:26.
