data_PCOD9319507
_publ_section_title
;
Structure prediction by ZEFSAII (Michael W. Deem and Ramdas Pophale) SiO2 
 PCOD9319507
Probable space group: C 2 2 21
;
_chemical_formula_sum "Si O2"
_cell_formula_units_Z 52
_cell_length_a 23.761923
_cell_length_b 6.771174
_cell_length_c 17.253865
_cell_angle_alpha 90.000000
_cell_angle_beta 90.000000
_cell_angle_gamma 90.000000
_cell_volume 2776.079851
_symmetry_space_group_name_H-M "C 2 2 21"
_symmetry_group_IT_number 20
_symmetry_cell_setting 'orthorhombic'
loop_
_space_group_symop_operation_xyz
x,y,z
-x,-y,1/2+z
x,-y,-z
-x,y,1/2-z
1/2+x,1/2+y,z
1/2-x,1/2-y,1/2+z
1/2+x,1/2-y,-z
1/2-x,1/2+y,1/2-z
loop_
_atom_site_type_symbol
_atom_site_label
_atom_site_fract_x
_atom_site_fract_y
_atom_site_fract_z
Si Si1 0.296752 0.869941 0.077249
Si Si2 0.893722 0.667868 0.117386
Si Si3 0.330382 0.361142 0.423745
Si Si4 0.985840 0.497062 0.624306
Si Si5 0.000000 0.820631 0.750000
Si Si6 0.348688 0.500000 0.000000
Si Si7 0.606636 0.000000 0.000000
Si Si8 0.915385 0.159742 0.714397
O O1 0.233294 0.864229 0.108643
O O2 0.313674 0.648033 0.054769
O O3 0.347842 0.990080 0.116498
O O4 0.290108 0.000000 0.000000
O O5 0.879843 0.845589 0.057402
O O6 0.894145 0.745428 0.205580
O O7 0.955582 0.590543 0.093197
O O8 0.335403 0.500000 0.500000
O O9 0.370554 0.400919 0.350865
O O10 0.352908 0.154784 0.458106
O O11 0.938197 0.571814 0.564795
O O12 0.956669 0.321464 0.674212
O O13 0.004151 0.678170 0.677151
O O14 0.052110 0.964223 0.761064
#
# Coordination Sequence:
#
# PCOD9319507 Si02
#       8
#     8   8   8   8   4   4   4   8
#     4   9  21  40  63  84 121 162 201 268 315 361
#     4  11  22  40  57  93 131 160 210 259 315 387
#     4  10  21  44  64  91 121 160 217 261 311 380
#     4  11  23  39  59  92 128 161 204 263 314 367
#     4  12  20  38  62  80 122 176 188 248 326 356
#     4  10  23  38  64  88 116 171 204 252 324 376
#     4  10  23  36  66  92 118 159 210 256 308 384
#     4  11  23  40  60  91 127 165 207 257 318 384
#
# _framework density 18.731449000000001
#
# number of rings (size 3 to 8) (size 9 to 14) (size 15 to 20)
#    0.000    1.538    3.077    1.385    5.385    0.000 
#    8.308    0.000    0.000    0.000    0.000    0.000 
#    0.000    0.000    0.000    0.000    0.000    0.000 
#
# Total GULP energy -144858.869871 kJ/mol
# GULP energy per Si atom -5571.494995 kJ/mol
# Density = 1.868882 g / cm^3
# Si number density = 18.731449 Si / 1000 Ang^3
#
#
#
# Elastic Constant Matrix: (Units=GPa)
#
#
# Indices 1 2 3 4 5 6 
#
# 1 139.5780 58.0727 39.9997 0.0000 0.0000 0.0000
# 2 58.0727 102.0539 21.6005 0.0000 0.0000 0.0000
# 3 39.9997 21.6005 60.2925 0.0000 0.0000 0.0000
# 4 0.0000 0.0000 0.0000 30.2013 0.0000 0.0000
# 5 0.0000 0.0000 0.0000 0.0000 14.5547 0.0000
# 6 0.0000 0.0000 0.0000 0.0000 0.0000 13.2243
#
#
#
# Elastic Compliance Matrix: (Units=1/GPa)
#
#
# Indices 1 2 3 4 5 6 
#
# 1 0.010781 -0.005000 -0.005361 0.000000 0.000000 0.000000
# 2 -0.005000 0.012922 -0.001312 0.000000 0.000000 0.000000
# 3 -0.005361 -0.001312 0.020613 0.000000 0.000000 0.000000
# 4 0.000000 0.000000 0.000000 0.033111 0.000000 0.000000
# 5 0.000000 0.000000 0.000000 0.000000 0.068706 0.000000
# 6 0.000000 0.000000 0.000000 0.000000 0.000000 0.075618
#
#
# Mechanical properties :
#
#
# Convention : Reuss Voigt Hill
#
# Bulk Modulus (GPa) = 47.69021 60.14113 53.91567
# Shear Modulus (GPa) = 19.83435 23.74616 21.79026
#
# Velocity S-wave (km/s) = 3.25757 3.56436 3.41442
# Velocity P-wave (km/s) = 6.29796 7.00830 6.66260
#
# Compressibility (1/GPa) = 0.02096866
#
# Stress axis : x y z
#
# Youngs Moduli (GPa) = 92.75385 77.38878 48.51393
#
# Poissons Ratio (x) = 0.38696 0.26009
# Poissons Ratio (y) = 0.46379 0.06365
# Poissons Ratio (z) = 0.49727 0.10154
#
# Static dielectric constant tensor:
#      x y z
#    x 1.696960 0.000000 0.000000 
#    y 0.000000 1.646650 0.000000 
#    z 0.000000 0.000000 1.645370 
# 
# From -- ./inp_files/26139.got.cif
#   From: 2010.05.17/outbox.cif.g08.bks.cpg/sg20_14_cif.got.tgz:26139.got - 2010.06.03 22:52:26.
