data_PCOD9319319
_publ_section_title
;
Structure prediction by ZEFSAII (Michael W. Deem and Ramdas Pophale) SiO2 
 PCOD9319319
Probable space group: C 2 2 21
;
_chemical_formula_sum "Si O2"
_cell_formula_units_Z 36
_cell_length_a 13.406807
_cell_length_b 5.752991
_cell_length_c 21.917441
_cell_angle_alpha 90.000000
_cell_angle_beta 90.000000
_cell_angle_gamma 90.000000
_cell_volume 1690.475567
_symmetry_space_group_name_H-M "C 2 2 21"
_symmetry_group_IT_number 20
_symmetry_cell_setting 'orthorhombic'
loop_
_space_group_symop_operation_xyz
x,y,z
-x,-y,1/2+z
x,-y,-z
-x,y,1/2-z
1/2+x,1/2+y,z
1/2-x,1/2-y,1/2+z
1/2+x,1/2-y,-z
1/2-x,1/2+y,1/2-z
loop_
_atom_site_type_symbol
_atom_site_label
_atom_site_fract_x
_atom_site_fract_y
_atom_site_fract_z
Si Si1 0.150230 0.319672 0.819274
Si Si2 0.131791 0.500000 0.500000
Si Si3 0.000000 0.661159 0.750000
Si Si4 0.026313 0.750642 0.399468
Si Si5 0.133964 0.000000 0.500000
Si Si6 0.643940 0.529457 0.699959
O O1 0.087084 0.240920 0.877654
O O2 0.256271 0.435757 0.830684
O O3 0.165309 0.117989 0.768701
O O4 0.078794 0.508062 0.786827
O O5 0.060332 0.535663 0.441271
O O6 0.187361 0.251215 0.495654
O O7 0.938112 0.829371 0.794421
O O8 0.094785 0.765999 0.339221
O O9 0.062574 0.964432 0.441510
#
# Coordination Sequence:
#
# PCOD9319319 Si02
#       6
#     8   4   4   8   4   8
#     4  12  24  39  64 101 131 174 218 265 346 402
#     4   8  20  38  67  97 122 178 232 264 334 386
#     4  12  22  38  64  88 146 168 210 272 320 414
#     4  10  21  41  66  94 134 176 218 284 328 388
#     4   8  20  38  67  97 122 178 232 264 334 386
#     4  12  24  39  64 101 131 174 218 265 346 402
#
# _framework density 21.295780000000001
#
# number of rings (size 3 to 8) (size 9 to 14) (size 15 to 20)
#    1.333    0.000    6.667    0.000    3.111    0.000 
#    0.000    1.111    0.000    2.667    0.000    0.000 
#    0.000    0.000    0.000    0.000    0.000    0.000 
#
# Total GULP energy -100303.258804 kJ/mol
# GULP energy per Si atom -5572.403267 kJ/mol
# Density = 2.124731 g / cm^3
# Si number density = 21.295780 Si / 1000 Ang^3
#
#
#
# Elastic Constant Matrix: (Units=GPa)
#
#
# Indices 1 2 3 4 5 6 
#
# 1 96.8334 6.5591 -0.8000 0.0000 0.0000 0.0000
# 2 6.5591 102.9807 0.2141 0.0000 0.0000 0.0000
# 3 -0.8000 0.2141 49.2300 0.0000 0.0000 0.0000
# 4 0.0000 0.0000 0.0000 41.9163 0.0000 0.0000
# 5 0.0000 0.0000 0.0000 0.0000 -3.5178 0.0000
# 6 0.0000 0.0000 0.0000 0.0000 0.0000 20.9226
#
#
#
# Elastic Compliance Matrix: (Units=1/GPa)
#
#
# Indices 1 2 3 4 5 6 
#
# 1 0.010373 -0.000661 0.000171 0.000000 0.000000 0.000000
# 2 -0.000661 0.009753 -0.000053 0.000000 0.000000 0.000000
# 3 0.000171 -0.000053 0.020316 0.000000 0.000000 0.000000
# 4 0.000000 0.000000 0.000000 0.023857 0.000000 0.000000
# 5 0.000000 0.000000 0.000000 0.000000 -0.284267 0.000000
# 6 0.000000 0.000000 0.000000 0.000000 0.000000 0.047795
#
#
# Mechanical properties :
#
#
# Convention : Reuss Voigt Hill
#
# Bulk Modulus (GPa) = 25.40891 28.99895 27.20393
# Shear Modulus (GPa) = -31.65193 28.06894 -1.79149
#
# Velocity S-wave (km/s) = -3.85944 3.63444 -0.91819
# Velocity P-wave (km/s) = 2.81123 5.59097 3.41730
#
# Compressibility (1/GPa) = 0.03935627
#
# Stress axis : x y z
#
# Youngs Moduli (GPa) = 96.40219 102.53497 49.22270
#
# Poissons Ratio (x) = 0.06778 -0.00844
# Poissons Ratio (y) = 0.06373 0.00262
# Poissons Ratio (z) = -0.01653 0.00545
#
# Static dielectric constant tensor:
#      x y z
#    x 1.709090 0.000000 0.000000 
#    y 0.000000 1.851420 0.000000 
#    z 0.000000 0.000000 1.829740 
# 
# From -- ./inp_files/30360.got.cif
#   From: 2010.05.17/outbox.cif.g08.bks.cpg/sg20_16_cif.got.tgz:30360.got - 2010.06.03 22:52:26.
