data_PCOD9319783
_publ_section_title
;
Structure prediction by ZEFSAII (Michael W. Deem and Ramdas Pophale) SiO2 
 PCOD9319783
Probable space group: C 2 2 21
;
_chemical_formula_sum "Si O2"
_cell_formula_units_Z 60
_cell_length_a 18.820414
_cell_length_b 8.344901
_cell_length_c 18.145934
_cell_angle_alpha 90.000000
_cell_angle_beta 90.000000
_cell_angle_gamma 90.000000
_cell_volume 2849.900439
_symmetry_space_group_name_H-M "C 2 2 21"
_symmetry_group_IT_number 20
_symmetry_cell_setting 'orthorhombic'
loop_
_space_group_symop_operation_xyz
x,y,z
-x,-y,1/2+z
x,-y,-z
-x,y,1/2-z
1/2+x,1/2+y,z
1/2-x,1/2-y,1/2+z
1/2+x,1/2-y,-z
1/2-x,1/2+y,1/2-z
loop_
_atom_site_type_symbol
_atom_site_label
_atom_site_fract_x
_atom_site_fract_y
_atom_site_fract_z
Si Si1 0.376664 0.100976 0.102325
Si Si2 0.247056 0.604873 0.072929
Si Si3 0.612035 0.326301 0.095179
Si Si4 0.502023 0.500000 0.500000
Si Si5 0.419333 0.871726 0.741115
Si Si6 0.710133 0.101813 0.786607
Si Si7 0.397971 0.243138 0.943369
Si Si8 0.221784 0.948151 0.848765
O O1 0.394979 0.190038 0.178318
O O2 0.291530 0.077580 0.101838
O O3 0.413008 0.923925 0.099316
O O4 0.397431 0.194080 0.029459
O O5 0.174181 0.706715 0.067231
O O6 0.242709 0.492677 0.144378
O O7 0.318259 0.708612 0.078778
O O8 0.254114 0.500000 0.000000
O O9 0.586947 0.251432 0.173246
O O10 0.654220 0.491041 0.108081
O O11 0.547645 0.370224 0.041720
O O12 0.550325 0.603086 0.442692
O O13 0.500000 0.923671 0.750000
O O14 0.365369 0.017272 0.726626
O O15 0.705550 0.285553 0.806538
O O16 0.756494 0.077413 0.713332
#
# Coordination Sequence:
#
# PCOD9319783 Si02
#       8
#     8   8   8   4   8   8   8   8
#     4  10  22  39  73  93 129 178 228 278 335 414
#     4  11  22  41  69  96 130 176 232 275 339 411
#     4  11  26  44  67  99 138 184 223 288 346 407
#     4  12  28  44  64 102 154 168 232 286 356 410
#     4  10  22  45  64  90 135 181 227 270 353 414
#     4  10  23  37  67  99 129 170 227 293 324 405
#     4  11  23  42  66 102 133 178 224 284 342 413
#     4  11  21  41  66  99 131 168 232 285 336 393
#
# _framework density 21.053367999999999
#
# number of rings (size 3 to 8) (size 9 to 14) (size 15 to 20)
#    0.000    1.333    2.000    4.000    5.600    1.067 
#    7.200    0.667    0.000    0.000    0.000    0.000 
#    0.000    0.000    0.000    0.000    0.000    0.000 
#
# Total GULP energy -167693.773297 kJ/mol
# GULP energy per Si atom -5589.792443 kJ/mol
# Density = 2.100545 g / cm^3
# Si number density = 21.053368 Si / 1000 Ang^3
#
#
#
# Elastic Constant Matrix: (Units=GPa)
#
#
# Indices 1 2 3 4 5 6 
#
# 1 75.1526 -15.7870 21.0096 0.0000 0.0000 0.0000
# 2 -15.7870 29.2367 6.0162 0.0000 0.0000 0.0000
# 3 21.0096 6.0162 56.9331 0.0000 0.0000 0.0000
# 4 0.0000 0.0000 0.0000 28.8300 0.0000 0.0000
# 5 0.0000 0.0000 0.0000 0.0000 7.3673 0.0000
# 6 0.0000 0.0000 0.0000 0.0000 0.0000 19.0021
#
#
#
# Elastic Compliance Matrix: (Units=1/GPa)
#
#
# Indices 1 2 3 4 5 6 
#
# 1 0.017837 0.011230 -0.007769 0.000000 0.000000 0.000000
# 2 0.011230 0.042034 -0.008586 0.000000 0.000000 0.000000
# 3 -0.007769 -0.008586 0.021339 0.000000 0.000000 0.000000
# 4 0.000000 0.000000 0.000000 0.034686 0.000000 0.000000
# 5 0.000000 0.000000 0.000000 0.000000 0.135735 0.000000
# 6 0.000000 0.000000 0.000000 0.000000 0.000000 0.052626
#
#
# Mechanical properties :
#
#
# Convention : Reuss Voigt Hill
#
# Bulk Modulus (GPa) = 14.09231 20.42223 17.25727
# Shear Modulus (GPa) = 14.78587 21.04546 17.91567
#
# Velocity S-wave (km/s) = 2.65298 3.16511 2.92029
# Velocity P-wave (km/s) = 4.01155 4.80401 4.42555
#
# Compressibility (1/GPa) = 0.07096071
#
# Stress axis : x y z
#
# Youngs Moduli (GPa) = 56.06231 23.79004 46.86307
#
# Poissons Ratio (x) = -0.26717 0.36408
# Poissons Ratio (y) = -0.62960 0.40237
# Poissons Ratio (z) = 0.43555 0.20426
#
# Static dielectric constant tensor:
#      x y z
#    x 1.757510 0.000000 0.000000 
#    y 0.000000 1.765160 0.000000 
#    z 0.000000 0.000000 1.765310 
# 
# From -- ./inp_files/25287.got.cif
#   From: 2010.05.17/outbox.cif.g08.bks.cpg/sg20_13_cif.got.tgz:25287.got - 2010.06.03 22:52:26.
