data_PCOD9319014
_publ_section_title
;
Structure prediction by ZEFSAII (Michael W. Deem and Ramdas Pophale) SiO2 
 PCOD9319014
Probable space group: C 2 2 21
;
_chemical_formula_sum "Si O2"
_cell_formula_units_Z 44
_cell_length_a 11.750644
_cell_length_b 8.120915
_cell_length_c 17.772567
_cell_angle_alpha 90.000000
_cell_angle_beta 90.000000
_cell_angle_gamma 90.000000
_cell_volume 1695.964643
_symmetry_space_group_name_H-M "C 2 2 21"
_symmetry_group_IT_number 20
_symmetry_cell_setting 'orthorhombic'
loop_
_space_group_symop_operation_xyz
x,y,z
-x,-y,1/2+z
x,-y,-z
-x,y,1/2-z
1/2+x,1/2+y,z
1/2-x,1/2-y,1/2+z
1/2+x,1/2-y,-z
1/2-x,1/2+y,1/2-z
loop_
_atom_site_type_symbol
_atom_site_label
_atom_site_fract_x
_atom_site_fract_y
_atom_site_fract_z
Si Si1 0.514575 0.131255 0.359969
Si Si2 0.894447 0.132159 0.190709
Si Si3 0.126136 0.837597 0.043265
Si Si4 0.843505 0.500000 0.000000
Si Si5 0.780726 0.778502 0.207872
Si Si6 0.919931 0.704827 0.605293
O O1 0.435818 0.287594 0.380576
O O2 0.606800 0.166586 0.296003
O O3 0.586388 0.094483 0.436460
O O4 0.440093 0.967897 0.353192
O O5 0.798288 0.259723 0.219254
O O6 0.000000 0.122894 0.250000
O O7 0.964274 0.194176 0.118879
O O8 0.829209 0.958843 0.189115
O O9 0.107630 0.694278 0.982164
O O10 0.079178 0.000000 0.000000
O O11 0.258893 0.877704 0.044880
O O12 0.692085 0.718848 0.143440
#
# Coordination Sequence:
#
# PCOD9319014 Si02
#       6
#     8   8   8   4   8   8
#     4  12  22  40  63  89 126 163 204 251 308 371
#     4  10  24  42  63  89 124 157 210 258 304 364
#     4  10  21  39  56  88 123 157 203 245 302 370
#     4  10  22  38  58  86 128 158 196 254 304 358
#     4  11  23  42  63  91 119 166 202 256 311 360
#     4  11  22  39  60  90 121 155 206 255 301 366
#
# _framework density 25.943939
#
# number of rings (size 3 to 8) (size 9 to 14) (size 15 to 20)
#    0.545    0.727    3.636    2.182    0.000    2.909 
#    3.273    0.000    0.000    0.000    0.000    0.000 
#    0.000    0.000    0.000    0.000    0.000    0.000 
#
# Total GULP energy -123038.668393 kJ/mol
# GULP energy per Si atom -5592.666745 kJ/mol
# Density = 2.588489 g / cm^3
# Si number density = 25.943939 Si / 1000 Ang^3
#
#
#
# Elastic Constant Matrix: (Units=GPa)
#
#
# Indices 1 2 3 4 5 6 
#
# 1 164.4563 24.4058 33.8464 0.0000 0.0000 0.0000
# 2 24.4058 89.9868 -11.9797 0.0000 0.0000 0.0000
# 3 33.8464 -11.9797 47.8368 0.0000 0.0000 0.0000
# 4 0.0000 0.0000 0.0000 32.7401 0.0000 0.0000
# 5 0.0000 0.0000 0.0000 0.0000 37.4723 0.0000
# 6 0.0000 0.0000 0.0000 0.0000 0.0000 53.7393
#
#
#
# Elastic Compliance Matrix: (Units=1/GPa)
#
#
# Indices 1 2 3 4 5 6 
#
# 1 0.007808 -0.002951 -0.006263 0.000000 0.000000 0.000000
# 2 -0.002951 0.012612 0.005247 0.000000 0.000000 0.000000
# 3 -0.006263 0.005247 0.026650 0.000000 0.000000 0.000000
# 4 0.000000 0.000000 0.000000 0.030544 0.000000 0.000000
# 5 0.000000 0.000000 0.000000 0.000000 0.026686 0.000000
# 6 0.000000 0.000000 0.000000 0.000000 0.000000 0.018608
#
#
# Mechanical properties :
#
#
# Convention : Reuss Voigt Hill
#
# Bulk Modulus (GPa) = 25.55400 43.86943 34.71172
# Shear Modulus (GPa) = 34.74921 41.85751 38.30336
#
# Velocity S-wave (km/s) = 3.66375 4.02105 3.84655
# Velocity P-wave (km/s) = 5.26958 6.20520 5.75643
#
# Compressibility (1/GPa) = 0.03913282
#
# Stress axis : x y z
#
# Youngs Moduli (GPa) = 128.07896 79.29167 37.52367
#
# Poissons Ratio (x) = 0.23402 0.23502
# Poissons Ratio (y) = 0.37801 -0.19687
# Poissons Ratio (z) = 0.80220 -0.41601
#
# Static dielectric constant tensor:
#      x y z
#    x 1.971670 0.000000 0.000000 
#    y 0.000000 2.100820 0.000000 
#    z 0.000000 0.000000 2.186670 
# 
# From -- ./inp_files/29058.got.cif
#   From: 2010.05.17/outbox.cif.g08.bks.cpg/sg20_15_cif.got.tgz:29058.got - 2010.06.03 22:52:26.
