data_PCOD9319593
_publ_section_title
;
Structure prediction by ZEFSAII (Michael W. Deem and Ramdas Pophale) SiO2 
 PCOD9319593
Probable space group: C 2 2 21
;
_chemical_formula_sum "Si O2"
_cell_formula_units_Z 40
_cell_length_a 18.003849
_cell_length_b 13.885265
_cell_length_c 6.913794
_cell_angle_alpha 90.000000
_cell_angle_beta 90.000000
_cell_angle_gamma 90.000000
_cell_volume 1728.367017
_symmetry_space_group_name_H-M "C 2 2 21"
_symmetry_group_IT_number 20
_symmetry_cell_setting 'orthorhombic'
loop_
_space_group_symop_operation_xyz
x,y,z
-x,-y,1/2+z
x,-y,-z
-x,y,1/2-z
1/2+x,1/2+y,z
1/2-x,1/2-y,1/2+z
1/2+x,1/2-y,-z
1/2-x,1/2+y,1/2-z
loop_
_atom_site_type_symbol
_atom_site_label
_atom_site_fract_x
_atom_site_fract_y
_atom_site_fract_z
Si Si1 0.727109 0.419483 0.793204
Si Si2 0.714405 0.369833 0.335992
Si Si3 0.977621 0.605838 0.524494
Si Si4 0.365390 0.750993 0.337678
Si Si5 0.622948 0.805818 0.594189
O O1 0.718724 0.397016 0.562995
O O2 0.719374 0.534591 0.793842
O O3 0.659486 0.357174 0.881212
O O4 0.805489 0.375717 0.869874
O O5 0.788793 0.308671 0.312822
O O6 0.647966 0.293876 0.302285
O O7 0.943119 0.500000 0.500000
O O8 0.917926 0.691715 0.515461
O O9 0.000000 0.602901 0.750000
O O10 0.050354 0.626359 0.393653
O O11 0.395082 0.761898 0.119923
#
# Coordination Sequence:
#
# PCOD9319593 Si02
#       5
#     8   8   8   8   8
#     4   9  18  32  56  81 113 148 191 238 284 336
#     4   9  18  32  55  82 114 149 190 235 288 337
#     4  10  22  34  53  82 122 157 187 234 293 343
#     4   9  19  34  50  83 117 150 189 235 283 345
#     4   9  19  34  51  83 117 148 188 236 283 346
#
# _framework density 23.143232999999999
#
# number of rings (size 3 to 8) (size 9 to 14) (size 15 to 20)
#    0.000    2.800    0.000    0.000    8.400    0.000 
#    0.000    0.000    0.000    0.000    0.000  133.000 
#    0.000    0.000    0.000    0.000    0.000    0.000 
#
# Total GULP energy -111500.767194 kJ/mol
# GULP energy per Si atom -5575.038360 kJ/mol
# Density = 2.309056 g / cm^3
# Si number density = 23.143233 Si / 1000 Ang^3
#
#
#
# Elastic Constant Matrix: (Units=GPa)
#
#
# Indices 1 2 3 4 5 6 
#
# 1 84.2171 51.8289 22.0670 0.0000 0.0000 0.0000
# 2 51.8289 168.5015 31.0915 0.0000 0.0000 0.0000
# 3 22.0670 31.0915 58.8263 0.0000 0.0000 0.0000
# 4 0.0000 0.0000 0.0000 49.3380 0.0000 0.0000
# 5 0.0000 0.0000 0.0000 0.0000 42.1102 0.0000
# 6 0.0000 0.0000 0.0000 0.0000 0.0000 31.7300
#
#
#
# Elastic Compliance Matrix: (Units=1/GPa)
#
#
# Indices 1 2 3 4 5 6 
#
# 1 0.015307 -0.004043 -0.003605 0.000000 0.000000 0.000000
# 2 -0.004043 0.007644 -0.002523 0.000000 0.000000 0.000000
# 3 -0.003605 -0.002523 0.019685 0.000000 0.000000 0.000000
# 4 0.000000 0.000000 0.000000 0.020268 0.000000 0.000000
# 5 0.000000 0.000000 0.000000 0.000000 0.023747 0.000000
# 6 0.000000 0.000000 0.000000 0.000000 0.000000 0.031516
#
#
# Mechanical properties :
#
#
# Convention : Reuss Voigt Hill
#
# Bulk Modulus (GPa) = 44.85716 57.94665 51.40191
# Shear Modulus (GPa) = 34.26033 38.40612 36.33322
#
# Velocity S-wave (km/s) = 3.85172 4.07811 3.96653
# Velocity P-wave (km/s) = 6.26143 6.87512 6.57544
#
# Compressibility (1/GPa) = 0.02229298
#
# Stress axis : x y z
#
# Youngs Moduli (GPa) = 65.33032 130.82425 50.79947
#
# Poissons Ratio (x) = 0.52892 0.18314
# Poissons Ratio (y) = 0.26413 0.12819
# Poissons Ratio (z) = 0.23552 0.33012
#
# Static dielectric constant tensor:
#      x y z
#    x 1.872630 0.000000 0.000000 
#    y 0.000000 1.877110 0.000000 
#    z 0.000000 0.000000 2.121890 
# 
# From -- ./inp_files/9216.got.cif
#   From: 2010.05.17/outbox.cif.g08.bks.cpg/sg20_5_cif.got.tgz:9216.got - 2010.06.03 22:52:26.
