data_PCOD9319328
_publ_section_title
;
Structure prediction by ZEFSAII (Michael W. Deem and Ramdas Pophale) SiO2 
 PCOD9319328
Probable space group: C 2 2 21
;
_chemical_formula_sum "Si O2"
_cell_formula_units_Z 60
_cell_length_a 5.370705
_cell_length_b 29.350463
_cell_length_c 17.831621
_cell_angle_alpha 90.000000
_cell_angle_beta 90.000000
_cell_angle_gamma 90.000000
_cell_volume 2810.846178
_symmetry_space_group_name_H-M "C 2 2 21"
_symmetry_group_IT_number 20
_symmetry_cell_setting 'orthorhombic'
loop_
_space_group_symop_operation_xyz
x,y,z
-x,-y,1/2+z
x,-y,-z
-x,y,1/2-z
1/2+x,1/2+y,z
1/2-x,1/2-y,1/2+z
1/2+x,1/2-y,-z
1/2-x,1/2+y,1/2-z
loop_
_atom_site_type_symbol
_atom_site_label
_atom_site_fract_x
_atom_site_fract_y
_atom_site_fract_z
Si Si1 0.057517 0.912149 0.456955
Si Si2 0.567190 0.066825 0.075330
Si Si3 0.225376 0.345336 0.552199
Si Si4 0.751396 0.384338 0.701711
Si Si5 0.264068 0.000000 0.000000
Si Si6 0.551074 0.291483 0.662842
Si Si7 0.984219 0.154420 0.838666
Si Si8 0.520719 0.804574 0.405942
O O1 0.948185 0.868298 0.502696
O O2 0.894732 0.956830 0.472833
O O3 0.320090 0.923539 0.493623
O O4 0.070888 0.895603 0.372206
O O5 0.388668 0.109479 0.088237
O O6 0.767064 0.075760 0.139521
O O7 0.430792 0.019369 0.067948
O O8 0.321092 0.313704 0.618380
O O9 0.049747 0.318447 0.493421
O O10 0.500000 0.385276 0.750000
O O11 0.746553 0.333232 0.666216
O O12 0.000000 0.390946 0.750000
O O13 0.500000 0.278834 0.750000
O O14 0.602442 0.246765 0.614343
O O15 0.754910 0.184734 0.872952
O O16 0.000000 0.157938 0.750000
O O17 0.262188 0.166573 0.866098
#
# Coordination Sequence:
#
# PCOD9319328 Si02
#       8
#     8   8   8   8   4   8   8   8
#     4  10  21  41  67  96 127 168 224 272 340 408
#     4  11  20  42  70  91 132 169 223 277 337 407
#     4  10  22  40  64  94 130 180 229 274 340 403
#     4  11  25  42  67  96 135 186 222 267 342 409
#     4  10  24  38  72 102 122 170 220 286 326 412
#     4  11  23  41  63  98 138 181 232 287 334 394
#     4  11  23  44  70  96 135 183 226 283 349 406
#     4  11  25  42  64 101 139 183 238 285 332 398
#
# _framework density 21.345886
#
# number of rings (size 3 to 8) (size 9 to 14) (size 15 to 20)
#    0.000    1.333    2.667    3.200    1.867    6.933 
#    0.000    0.000    5.867    0.000    0.000    0.000 
#    0.000    0.000    0.000    0.000    0.000    0.000 
#
# Total GULP energy -167388.694470 kJ/mol
# GULP energy per Si atom -5579.623149 kJ/mol
# Density = 2.129730 g / cm^3
# Si number density = 21.345886 Si / 1000 Ang^3
#
#
#
# Elastic Constant Matrix: (Units=GPa)
#
#
# Indices 1 2 3 4 5 6 
#
# 1 58.7368 3.4355 20.6748 0.0000 0.0000 0.0000
# 2 3.4355 90.9875 30.6900 0.0000 0.0000 0.0000
# 3 20.6748 30.6900 94.5847 0.0000 0.0000 0.0000
# 4 0.0000 0.0000 0.0000 12.1750 0.0000 0.0000
# 5 0.0000 0.0000 0.0000 0.0000 31.0046 0.0000
# 6 0.0000 0.0000 0.0000 0.0000 0.0000 20.8599
#
#
#
# Elastic Compliance Matrix: (Units=1/GPa)
#
#
# Indices 1 2 3 4 5 6 
#
# 1 0.018489 0.000747 -0.004284 0.000000 0.000000 0.000000
# 2 0.000747 0.012371 -0.004177 0.000000 0.000000 0.000000
# 3 -0.004284 -0.004177 0.012864 0.000000 0.000000 0.000000
# 4 0.000000 0.000000 0.000000 0.082136 0.000000 0.000000
# 5 0.000000 0.000000 0.000000 0.000000 0.032253 0.000000
# 6 0.000000 0.000000 0.000000 0.000000 0.000000 0.047939
#
#
# Mechanical properties :
#
#
# Convention : Reuss Voigt Hill
#
# Bulk Modulus (GPa) = 35.34039 39.32327 37.33183
# Shear Modulus (GPa) = 21.65313 25.44182 23.54748
#
# Velocity S-wave (km/s) = 3.18841 3.45611 3.32496
# Velocity P-wave (km/s) = 5.49059 5.86415 5.68044
#
# Compressibility (1/GPa) = 0.02829623
#
# Stress axis : x y z
#
# Youngs Moduli (GPa) = 54.08543 80.83196 77.73421
#
# Poissons Ratio (x) = -0.06037 0.33300
# Poissons Ratio (y) = -0.04039 0.32473
# Poissons Ratio (z) = 0.23169 0.33767
#
# Static dielectric constant tensor:
#      x y z
#    x 1.846070 0.000000 0.000000 
#    y 0.000000 1.774480 0.000000 
#    z 0.000000 0.000000 1.860670 
# 
# From -- ./inp_files/22971.got.cif
#   From: 2010.05.17/outbox.cif.g08.bks.cpg/sg20_12_cif.got.tgz:22971.got - 2010.06.03 22:52:26.
