data_PCOD9319468
_publ_section_title
;
Structure prediction by ZEFSAII (Michael W. Deem and Ramdas Pophale) SiO2 
 PCOD9319468
Probable space group: C 2 2 21
;
_chemical_formula_sum "Si O2"
_cell_formula_units_Z 40
_cell_length_a 19.402735
_cell_length_b 17.034821
_cell_length_c 5.062269
_cell_angle_alpha 90.000000
_cell_angle_beta 90.000000
_cell_angle_gamma 90.000000
_cell_volume 1673.191870
_symmetry_space_group_name_H-M "C 2 2 21"
_symmetry_group_IT_number 20
_symmetry_cell_setting 'orthorhombic'
loop_
_space_group_symop_operation_xyz
x,y,z
-x,-y,1/2+z
x,-y,-z
-x,y,1/2-z
1/2+x,1/2+y,z
1/2-x,1/2-y,1/2+z
1/2+x,1/2-y,-z
1/2-x,1/2+y,1/2-z
loop_
_atom_site_type_symbol
_atom_site_label
_atom_site_fract_x
_atom_site_fract_y
_atom_site_fract_z
Si Si1 0.288480 0.762850 0.229408
Si Si2 0.575780 0.672877 0.389190
Si Si3 0.549842 0.500000 0.500000
Si Si4 0.665062 0.083690 0.451610
Si Si5 0.927572 0.415056 0.448962
Si Si6 0.000000 0.281499 0.750000
O O1 0.258905 0.782559 0.516420
O O2 0.360899 0.716450 0.251767
O O3 0.294120 0.842928 0.060480
O O4 0.500000 0.673480 0.250000
O O5 0.590188 0.581264 0.448175
O O6 0.560705 0.725562 0.647176
O O7 0.500000 0.515027 0.750000
O O8 0.600009 0.085015 0.652956
O O9 0.700593 0.000000 0.500000
O O10 0.636024 0.087623 0.156605
O O11 0.960641 0.500000 0.500000
O O12 0.971922 0.340052 0.526959
#
# Coordination Sequence:
#
# PCOD9319468 Si02
#       6
#     8   8   4   8   8   4
#     4  12  27  46  70 102 142 183 237 298 359 435
#     4  11  25  45  75 104 144 189 243 302 363 429
#     4  10  22  42  70 108 140 176 242 310 362 422
#     4  10  21  43  64  89 132 182 222 278 337 422
#     4  10  22  36  62  97 136 171 226 279 338 411
#     4  12  22  38  70  98 138 182 232 282 360 412
#
# _framework density 23.906403999999998
#
# number of rings (size 3 to 8) (size 9 to 14) (size 15 to 20)
#    0.000    1.200    3.000    2.400    2.800    2.400 
#    3.600    0.000    0.000    0.000    0.000    0.000 
#    0.000    0.000    0.000    0.000    0.000    0.000 
#
# Total GULP energy -111837.930699 kJ/mol
# GULP energy per Si atom -5591.896535 kJ/mol
# Density = 2.385199 g / cm^3
# Si number density = 23.906404 Si / 1000 Ang^3
#
#
#
# Elastic Constant Matrix: (Units=GPa)
#
#
# Indices 1 2 3 4 5 6 
#
# 1 61.7655 19.2234 32.9076 0.0000 0.0000 0.0000
# 2 19.2234 161.2634 4.5293 0.0000 0.0000 0.0000
# 3 32.9076 4.5293 101.1109 0.0000 0.0000 0.0000
# 4 0.0000 0.0000 0.0000 30.4764 0.0000 0.0000
# 5 0.0000 0.0000 0.0000 0.0000 39.5643 0.0000
# 6 0.0000 0.0000 0.0000 0.0000 0.0000 69.7550
#
#
#
# Elastic Compliance Matrix: (Units=1/GPa)
#
#
# Indices 1 2 3 4 5 6 
#
# 1 0.020367 -0.002244 -0.006528 0.000000 0.000000 0.000000
# 2 -0.002244 0.006456 0.000441 0.000000 0.000000 0.000000
# 3 -0.006528 0.000441 0.011995 0.000000 0.000000 0.000000
# 4 0.000000 0.000000 0.000000 0.032812 0.000000 0.000000
# 5 0.000000 0.000000 0.000000 0.000000 0.025275 0.000000
# 6 0.000000 0.000000 0.000000 0.000000 0.000000 0.014336
#
#
# Mechanical properties :
#
#
# Convention : Reuss Voigt Hill
#
# Bulk Modulus (GPa) = 45.13549 48.60671 46.87110
# Shear Modulus (GPa) = 36.95783 45.79109 41.37446
#
# Velocity S-wave (km/s) = 3.93611 4.38131 4.16466
# Velocity P-wave (km/s) = 6.29113 6.78017 6.54023
#
# Compressibility (1/GPa) = 0.02215552
#
# Stress axis : x y z
#
# Youngs Moduli (GPa) = 49.09930 154.88993 83.36810
#
# Poissons Ratio (x) = 0.34765 0.54423
# Poissons Ratio (y) = 0.11020 -0.03679
# Poissons Ratio (z) = 0.32052 -0.06835
#
# Static dielectric constant tensor:
#      x y z
#    x 1.964880 0.000000 0.000000 
#    y 0.000000 1.999150 0.000000 
#    z 0.000000 0.000000 1.684670 
# 
# From -- ./inp_files/3113.got.cif
#   From: 2010.05.17/outbox.cif.g08.bks.cpg/sg20_2_cif.got.tgz:3113.got - 2010.06.03 22:52:26.
