data_PCOD9319287
_publ_section_title
;
Structure prediction by ZEFSAII (Michael W. Deem and Ramdas Pophale) SiO2 
 PCOD9319287
Probable space group: C 2 2 21
;
_chemical_formula_sum "Si O2"
_cell_formula_units_Z 56
_cell_length_a 14.497635
_cell_length_b 14.460804
_cell_length_c 12.696311
_cell_angle_alpha 90.000000
_cell_angle_beta 90.000000
_cell_angle_gamma 90.000000
_cell_volume 2661.749330
_symmetry_space_group_name_H-M "C 2 2 21"
_symmetry_group_IT_number 20
_symmetry_cell_setting 'orthorhombic'
loop_
_space_group_symop_operation_xyz
x,y,z
-x,-y,1/2+z
x,-y,-z
-x,y,1/2-z
1/2+x,1/2+y,z
1/2-x,1/2-y,1/2+z
1/2+x,1/2-y,-z
1/2-x,1/2+y,1/2-z
loop_
_atom_site_type_symbol
_atom_site_label
_atom_site_fract_x
_atom_site_fract_y
_atom_site_fract_z
Si Si1 0.143980 0.267827 0.230625
Si Si2 0.667096 0.763880 0.835745
Si Si3 0.371946 0.965950 0.193174
Si Si4 0.000000 0.385039 0.750000
Si Si5 0.240002 0.546496 0.107252
Si Si6 0.939811 0.087558 0.154469
Si Si7 0.247840 0.000000 0.000000
Si Si8 0.892415 0.845401 0.531165
O O1 0.254005 0.270531 0.255367
O O2 0.102352 0.364382 0.267662
O O3 0.098797 0.183755 0.296295
O O4 0.124397 0.239768 0.110599
O O5 0.581404 0.817996 0.785787
O O6 0.719528 0.844348 0.900881
O O7 0.626839 0.686594 0.912895
O O8 0.310751 0.955859 0.089576
O O9 0.452951 0.040385 0.170826
O O10 0.312704 0.008998 0.289830
O O11 0.349156 0.531777 0.123544
O O12 0.207894 0.500000 0.000000
O O13 0.000000 0.044752 0.250000
O O14 0.008235 0.112143 0.059073
O O15 0.183291 0.076121 0.054752
#
# Coordination Sequence:
#
# PCOD9319287 Si02
#       8
#     8   8   8   4   8   8   4   8
#     4  10  21  42  66  89 127 176 211 257 334 399
#     4  10  21  44  60  90 129 168 207 265 334 381
#     4  11  23  42  67  98 132 167 220 270 332 388
#     4  10  24  42  66  96 136 162 224 282 312 392
#     4  10  21  41  63  90 126 170 211 260 322 387
#     4   9  20  37  59  87 122 164 209 258 310 384
#     4  12  24  42  64 100 128 178 214 282 332 396
#     4  11  22  39  66  90 129 169 221 264 324 394
#
# _framework density 21.038795
#
# number of rings (size 3 to 8) (size 9 to 14) (size 15 to 20)
#    0.000    1.714    1.429    4.286    4.000    1.143 
#   12.857    0.000    0.000    0.000    0.000    0.000 
#    0.000    0.000    0.000    0.000    0.000    0.000 
#
# Total GULP energy -156281.399920 kJ/mol
# GULP energy per Si atom -5581.478569 kJ/mol
# Density = 2.099091 g / cm^3
# Si number density = 21.038795 Si / 1000 Ang^3
#
#
#
# Elastic Constant Matrix: (Units=GPa)
#
#
# Indices 1 2 3 4 5 6 
#
# 1 103.0480 -8.3657 12.0744 0.0000 0.0000 0.0000
# 2 -8.3657 32.3671 -7.1488 0.0000 0.0000 0.0000
# 3 12.0744 -7.1488 41.6006 0.0000 0.0000 0.0000
# 4 0.0000 0.0000 0.0000 27.0505 0.0000 0.0000
# 5 0.0000 0.0000 0.0000 0.0000 23.1809 0.0000
# 6 0.0000 0.0000 0.0000 0.0000 0.0000 9.0732
#
#
#
# Elastic Compliance Matrix: (Units=1/GPa)
#
#
# Indices 1 2 3 4 5 6 
#
# 1 0.010176 0.002056 -0.002600 0.000000 0.000000 0.000000
# 2 0.002056 0.032530 0.004993 0.000000 0.000000 0.000000
# 3 -0.002600 0.004993 0.025651 0.000000 0.000000 0.000000
# 4 0.000000 0.000000 0.000000 0.036968 0.000000 0.000000
# 5 0.000000 0.000000 0.000000 0.000000 0.043139 0.000000
# 6 0.000000 0.000000 0.000000 0.000000 0.000000 0.110214
#
#
# Mechanical properties :
#
#
# Convention : Reuss Voigt Hill
#
# Bulk Modulus (GPa) = 12.94429 18.90397 15.92413
# Shear Modulus (GPa) = 18.14678 23.89132 21.01905
#
# Velocity S-wave (km/s) = 2.94009 3.37350 3.16422
# Velocity P-wave (km/s) = 4.20612 4.91719 4.57549
#
# Compressibility (1/GPa) = 0.07725413
#
# Stress axis : x y z
#
# Youngs Moduli (GPa) = 98.27256 30.74110 38.98505
#
# Poissons Ratio (x) = -0.06320 0.10137
# Poissons Ratio (y) = -0.20203 -0.19466
# Poissons Ratio (z) = 0.25553 -0.15350
#
# Static dielectric constant tensor:
#      x y z
#    x 1.802340 0.000000 0.000000 
#    y 0.000000 1.758990 0.000000 
#    z 0.000000 0.000000 1.747900 
# 
# From -- ./inp_files/20888.got.cif
#   From: 2010.05.17/outbox.cif.g08.bks.cpg/sg20_11_cif.got.tgz:20888.got - 2010.06.03 22:52:26.
