data_PCOD9319752
_publ_section_title
;
Structure prediction by ZEFSAII (Michael W. Deem and Ramdas Pophale) SiO2 
 PCOD9319752
Probable space group: C 2 2 21
;
_chemical_formula_sum "Si O2"
_cell_formula_units_Z 48
_cell_length_a 5.206929
_cell_length_b 25.443086
_cell_length_c 16.812531
_cell_angle_alpha 90.000000
_cell_angle_beta 90.000000
_cell_angle_gamma 90.000000
_cell_volume 2227.329863
_symmetry_space_group_name_H-M "C 2 2 21"
_symmetry_group_IT_number 20
_symmetry_cell_setting 'orthorhombic'
loop_
_space_group_symop_operation_xyz
x,y,z
-x,-y,1/2+z
x,-y,-z
-x,y,1/2-z
1/2+x,1/2+y,z
1/2-x,1/2-y,1/2+z
1/2+x,1/2-y,-z
1/2-x,1/2+y,1/2-z
loop_
_atom_site_type_symbol
_atom_site_label
_atom_site_fract_x
_atom_site_fract_y
_atom_site_fract_z
Si Si1 0.234539 0.736516 0.041721
Si Si2 0.634381 0.913821 0.334408
Si Si3 0.970945 0.815006 0.339208
Si Si4 0.480732 0.449772 0.943013
Si Si5 0.697087 0.862529 0.034372
Si Si6 0.541839 0.036287 0.340423
O O1 0.210489 0.772626 0.118833
O O2 0.531762 0.734270 0.016921
O O3 0.124151 0.677012 0.037179
O O4 0.500000 0.899680 0.250000
O O5 0.874783 0.875304 0.335543
O O6 0.495371 0.899253 0.417184
O O7 0.650680 0.976442 0.332875
O O8 0.000000 0.797225 0.250000
O O9 0.214317 0.822246 0.396166
O O10 0.731518 0.437081 0.890805
O O11 0.228530 0.461784 0.888104
O O12 0.528533 0.500000 0.000000
O O13 0.409537 0.400730 0.998366
O O14 0.500000 0.055483 0.250000
#
# Coordination Sequence:
#
# PCOD9319752 Si02
#       6
#     8   8   8   8   8   8
#     4  10  22  39  62  90 129 168 206 260 326 387
#     4  11  21  37  62  95 129 168 211 274 335 389
#     4  11  22  38  64  95 130 166 211 274 334 396
#     4  12  24  41  65  99 129 176 224 277 323 395
#     4  11  23  39  62  94 131 171 218 271 327 387
#     4  11  26  43  65  90 135 176 221 271 333 390
#
# _framework density 21.550467000000001
#
# number of rings (size 3 to 8) (size 9 to 14) (size 15 to 20)
#    0.000    1.000    5.000    2.000    2.333    0.000 
#    0.000    0.833    0.000   10.000    0.000    0.000 
#    0.000    0.000    0.000    0.000    0.000    0.000 
#
# Total GULP energy -133782.050479 kJ/mol
# GULP energy per Si atom -5574.252103 kJ/mol
# Density = 2.150142 g / cm^3
# Si number density = 21.550467 Si / 1000 Ang^3
#
#
#
# Elastic Constant Matrix: (Units=GPa)
#
#
# Indices 1 2 3 4 5 6 
#
# 1 82.8577 -6.6008 51.7621 0.0000 0.0000 0.0000
# 2 -6.6008 51.2458 20.9091 0.0000 0.0000 0.0000
# 3 51.7621 20.9091 122.7206 0.0000 0.0000 0.0000
# 4 0.0000 0.0000 0.0000 13.3204 0.0000 0.0000
# 5 0.0000 0.0000 0.0000 0.0000 36.3981 0.0000
# 6 0.0000 0.0000 0.0000 0.0000 0.0000 21.6796
#
#
#
# Elastic Compliance Matrix: (Units=1/GPa)
#
#
# Indices 1 2 3 4 5 6 
#
# 1 0.017845 0.005771 -0.008510 0.000000 0.000000 0.000000
# 2 0.005771 0.022838 -0.006325 0.000000 0.000000 0.000000
# 3 -0.008510 -0.006325 0.012816 0.000000 0.000000 0.000000
# 4 0.000000 0.000000 0.000000 0.075073 0.000000 0.000000
# 5 0.000000 0.000000 0.000000 0.000000 0.027474 0.000000
# 6 0.000000 0.000000 0.000000 0.000000 0.000000 0.046126
#
#
# Mechanical properties :
#
#
# Convention : Reuss Voigt Hill
#
# Bulk Modulus (GPa) = 28.27277 43.21831 35.74554
# Shear Modulus (GPa) = 21.54337 26.99654 24.26995
#
# Velocity S-wave (km/s) = 3.16519 3.54321 3.35952
# Velocity P-wave (km/s) = 5.14837 6.06936 5.62773
#
# Compressibility (1/GPa) = 0.03536972
#
# Stress axis : x y z
#
# Youngs Moduli (GPa) = 56.03844 43.78685 78.02937
#
# Poissons Ratio (x) = -0.25268 0.66403
# Poissons Ratio (y) = -0.32339 0.49355
# Poissons Ratio (z) = 0.47689 0.27696
#
# Static dielectric constant tensor:
#      x y z
#    x 1.862950 0.000000 0.000000 
#    y 0.000000 1.821840 0.000000 
#    z 0.000000 0.000000 1.874270 
# 
# From -- ./inp_files/17770.got.cif
#   From: 2010.05.17/outbox.cif.g08.bks.cpg/sg20_9_cif.got.tgz:17770.got - 2010.06.03 22:52:26.
