data_PCOD9319689
_publ_section_title
;
Structure prediction by ZEFSAII (Michael W. Deem and Ramdas Pophale) SiO2 
 PCOD9319689
Probable space group: C 2 2 21
;
_chemical_formula_sum "Si O2"
_cell_formula_units_Z 28
_cell_length_a 7.048633
_cell_length_b 20.398335
_cell_length_c 7.910700
_cell_angle_alpha 90.000000
_cell_angle_beta 90.000000
_cell_angle_gamma 90.000000
_cell_volume 1137.403430
_symmetry_space_group_name_H-M "C 2 2 21"
_symmetry_group_IT_number 20
_symmetry_cell_setting 'orthorhombic'
loop_
_space_group_symop_operation_xyz
x,y,z
-x,-y,1/2+z
x,-y,-z
-x,y,1/2-z
1/2+x,1/2+y,z
1/2-x,1/2-y,1/2+z
1/2+x,1/2-y,-z
1/2-x,1/2+y,1/2-z
loop_
_atom_site_type_symbol
_atom_site_label
_atom_site_fract_x
_atom_site_fract_y
_atom_site_fract_z
Si Si1 0.241009 0.068681 0.934098
Si Si2 0.772402 0.656414 0.247136
Si Si3 0.331593 0.896148 0.424473
Si Si4 0.500000 0.227261 0.750000
O O1 0.472694 0.064343 0.935605
O O2 0.208625 0.084069 0.737019
O O3 0.205485 0.127655 0.066909
O O4 0.162714 0.000000 0.000000
O O5 0.731609 0.604189 0.395723
O O6 0.668443 0.723336 0.295533
O O7 0.000000 0.663656 0.250000
O O8 0.409455 0.822453 0.385118
#
# Coordination Sequence:
#
# PCOD9319689 Si02
#       4
#     8   8   8   4
#     4   9  19  36  59  87 118 151 203 241 284 354
#     4  10  22  38  62  87 118 160 185 244 301 334
#     4   9  22  34  57  95 113 156 198 238 295 350
#     4  10  22  40  58  92 126 140 208 236 284 374
#
# _framework density 24.617473
#
# number of rings (size 3 to 8) (size 9 to 14) (size 15 to 20)
#    0.000    2.857    0.000    0.000   24.000    0.000 
#    0.000    1.429    6.286    0.000    0.000    0.000 
#    0.000    0.000    0.000    0.000    0.000    0.000 
#
# Total GULP energy -78151.581484 kJ/mol
# GULP energy per Si atom -5582.255820 kJ/mol
# Density = 2.456144 g / cm^3
# Si number density = 24.617473 Si / 1000 Ang^3
#
#
#
# Elastic Constant Matrix: (Units=GPa)
#
#
# Indices 1 2 3 4 5 6 
#
# 1 104.6539 14.0974 -5.0556 0.0000 0.0000 0.0000
# 2 14.0974 92.4288 11.7499 0.0000 0.0000 0.0000
# 3 -5.0556 11.7499 131.9078 0.0000 0.0000 0.0000
# 4 0.0000 0.0000 0.0000 25.2990 0.0000 0.0000
# 5 0.0000 0.0000 0.0000 0.0000 -13.3419 0.0000
# 6 0.0000 0.0000 0.0000 0.0000 0.0000 10.8139
#
#
#
# Elastic Compliance Matrix: (Units=1/GPa)
#
#
# Indices 1 2 3 4 5 6 
#
# 1 0.009790 -0.001559 0.000514 0.000000 0.000000 0.000000
# 2 -0.001559 0.011191 -0.001057 0.000000 0.000000 0.000000
# 3 0.000514 -0.001057 0.007695 0.000000 0.000000 0.000000
# 4 0.000000 0.000000 0.000000 0.039527 0.000000 0.000000
# 5 0.000000 0.000000 0.000000 0.000000 -0.074952 0.000000
# 6 0.000000 0.000000 0.000000 0.000000 0.000000 0.092473
#
#
# Mechanical properties :
#
#
# Convention : Reuss Voigt Hill
#
# Bulk Modulus (GPa) = 40.85982 41.17488 41.01735
# Shear Modulus (GPa) = 50.97603 25.10079 38.03841
#
# Velocity S-wave (km/s) = 4.55546 3.19663 3.93514
# Velocity P-wave (km/s) = 6.65609 5.51242 6.11107
#
# Compressibility (1/GPa) = 0.02447392
#
# Stress axis : x y z
#
# Youngs Moduli (GPa) = 102.14424 89.35616 129.95665
#
# Poissons Ratio (x) = 0.13927 -0.06680
# Poissons Ratio (y) = 0.15920 0.13731
# Poissons Ratio (z) = -0.05251 0.09441
#
# Static dielectric constant tensor:
#      x y z
#    x 1.975210 0.000000 0.000000 
#    y 0.000000 1.943700 0.000000 
#    z 0.000000 0.000000 2.048400 
# 
# From -- ./inp_files/5677.got.cif
#   From: 2010.05.17/outbox.cif.g08.bks.cpg/sg20_3_cif.got.tgz:5677.got - 2010.06.03 22:52:26.
