data_PCOD9319903
_publ_section_title
;
Structure prediction by ZEFSAII (Michael W. Deem and Ramdas Pophale) SiO2 
 PCOD9319903
Probable space group: C 2 2 21
;
_chemical_formula_sum "Si O2"
_cell_formula_units_Z 60
_cell_length_a 9.771378
_cell_length_b 16.737662
_cell_length_c 17.432998
_cell_angle_alpha 90.000000
_cell_angle_beta 90.000000
_cell_angle_gamma 90.000000
_cell_volume 2851.167211
_symmetry_space_group_name_H-M "C 2 2 21"
_symmetry_group_IT_number 20
_symmetry_cell_setting 'orthorhombic'
loop_
_space_group_symop_operation_xyz
x,y,z
-x,-y,1/2+z
x,-y,-z
-x,y,1/2-z
1/2+x,1/2+y,z
1/2-x,1/2-y,1/2+z
1/2+x,1/2-y,-z
1/2-x,1/2+y,1/2-z
loop_
_atom_site_type_symbol
_atom_site_label
_atom_site_fract_x
_atom_site_fract_y
_atom_site_fract_z
Si Si1 0.181597 0.567186 0.159976
Si Si2 0.745595 0.761099 0.665181
Si Si3 0.681528 0.821006 0.322112
Si Si4 0.523778 0.254084 0.946646
Si Si5 0.500000 0.956742 0.250000
Si Si6 0.948432 0.942157 0.930475
Si Si7 0.125976 0.082172 0.202939
Si Si8 0.560123 0.758973 0.874223
O O1 0.055695 0.510408 0.179609
O O2 0.287167 0.554715 0.090490
O O3 0.279646 0.547036 0.232013
O O4 0.128769 0.658607 0.156476
O O5 0.811453 0.731408 0.744246
O O6 0.774680 0.855255 0.662431
O O7 0.586316 0.743363 0.663766
O O8 0.831045 0.730968 0.592304
O O9 0.586268 0.786584 0.390065
O O10 0.615920 0.901519 0.289169
O O11 0.833943 0.812304 0.356648
O O12 0.489139 0.349160 0.943533
O O13 0.529730 0.230534 0.035334
O O14 0.045356 0.968602 0.859457
O O15 0.976489 0.000000 0.000000
O O16 0.000000 0.123063 0.250000
#
# Coordination Sequence:
#
# PCOD9319903 Si02
#       8
#     8   8   8   8   4   8   8   8
#     4  11  23  43  68 103 141 192 233 307 362 443
#     4  11  20  38  70 101 133 180 246 294 348 425
#     4  12  23  46  69 101 138 193 239 304 354 439
#     4  11  23  43  68 102 142 193 239 298 370 437
#     4  12  28  42  72 106 146 184 252 298 376 422
#     4  10  22  40  70  98 143 195 237 297 373 440
#     4   9  18  38  68  96 130 187 240 284 356 434
#     4  12  25  40  73 110 143 183 256 299 364 429
#
# _framework density 21.044013
#
# number of rings (size 3 to 8) (size 9 to 14) (size 15 to 20)
#    0.000    1.067    4.000    3.600    0.000    3.200 
#    0.000    2.667    0.000    1.600    0.000    0.000 
#    0.000    0.000    0.000    0.000    0.000    0.000 
#
# Total GULP energy -167294.075443 kJ/mol
# GULP energy per Si atom -5576.469181 kJ/mol
# Density = 2.099612 g / cm^3
# Si number density = 21.044013 Si / 1000 Ang^3
#
#
#
# Elastic Constant Matrix: (Units=GPa)
#
#
# Indices 1 2 3 4 5 6 
#
# 1 131.2207 40.0578 30.2304 0.0000 0.0000 0.0000
# 2 40.0578 61.5349 37.9757 0.0000 0.0000 0.0000
# 3 30.2304 37.9757 97.5898 0.0000 0.0000 0.0000
# 4 0.0000 0.0000 0.0000 26.4774 0.0000 0.0000
# 5 0.0000 0.0000 0.0000 0.0000 29.3154 0.0000
# 6 0.0000 0.0000 0.0000 0.0000 0.0000 2.8830
#
#
#
# Elastic Compliance Matrix: (Units=1/GPa)
#
#
# Indices 1 2 3 4 5 6 
#
# 1 0.009548 -0.005778 -0.000709 0.000000 0.000000 0.000000
# 2 -0.005778 0.024883 -0.007893 0.000000 0.000000 0.000000
# 3 -0.000709 -0.007893 0.013538 0.000000 0.000000 0.000000
# 4 0.000000 0.000000 0.000000 0.037768 0.000000 0.000000
# 5 0.000000 0.000000 0.000000 0.000000 0.034112 0.000000
# 6 0.000000 0.000000 0.000000 0.000000 0.000000 0.346863
#
#
# Mechanical properties :
#
#
# Convention : Reuss Voigt Hill
#
# Bulk Modulus (GPa) = 52.05915 56.31923 54.18919
# Shear Modulus (GPa) = 9.96263 23.87390 16.91826
#
# Velocity S-wave (km/s) = 2.17818 3.37185 2.83847
# Velocity P-wave (km/s) = 5.57834 6.47919 6.04557
#
# Compressibility (1/GPa) = 0.01920892
#
# Stress axis : x y z
#
# Youngs Moduli (GPa) = 104.73470 40.18755 73.86474
#
# Poissons Ratio (x) = 0.23219 0.05240
# Poissons Ratio (y) = 0.60513 0.58303
# Poissons Ratio (z) = 0.07429 0.31721
#
# Static dielectric constant tensor:
#      x y z
#    x 1.821120 0.000000 0.000000 
#    y 0.000000 1.756600 0.000000 
#    z 0.000000 0.000000 1.778410 
# 
# From -- ./inp_files/23775.got.cif
#   From: 2010.05.17/outbox.cif.g08.bks.cpg/sg20_12_cif.got.tgz:23775.got - 2010.06.03 22:52:26.
