data_PCOD9319570
_publ_section_title
;
Structure prediction by ZEFSAII (Michael W. Deem and Ramdas Pophale) SiO2 
 PCOD9319570
Probable space group: C 2 2 21
;
_chemical_formula_sum "Si O2"
_cell_formula_units_Z 60
_cell_length_a 22.056051
_cell_length_b 9.277350
_cell_length_c 14.305277
_cell_angle_alpha 90.000000
_cell_angle_beta 90.000000
_cell_angle_gamma 90.000000
_cell_volume 2927.170167
_symmetry_space_group_name_H-M "C 2 2 21"
_symmetry_group_IT_number 20
_symmetry_cell_setting 'orthorhombic'
loop_
_space_group_symop_operation_xyz
x,y,z
-x,-y,1/2+z
x,-y,-z
-x,y,1/2-z
1/2+x,1/2+y,z
1/2-x,1/2-y,1/2+z
1/2+x,1/2-y,-z
1/2-x,1/2+y,1/2-z
loop_
_atom_site_type_symbol
_atom_site_label
_atom_site_fract_x
_atom_site_fract_y
_atom_site_fract_z
Si Si1 0.907969 0.960173 0.719605
Si Si2 0.916860 0.723984 0.867334
Si Si3 0.979239 0.844430 0.545168
Si Si4 0.863604 0.666083 0.474928
Si Si5 0.838945 0.522977 0.107187
Si Si6 0.500000 0.992126 0.250000
Si Si7 0.300472 0.396233 0.583850
Si Si8 0.603460 0.797633 0.774976
O O1 0.909923 0.874445 0.815231
O O2 0.956112 0.882913 0.650322
O O3 0.843390 0.930258 0.670495
O O4 0.916065 0.131029 0.731629
O O5 0.853575 0.639264 0.859362
O O6 0.956121 0.764489 0.958410
O O7 0.962130 0.611455 0.816882
O O8 0.925938 0.750380 0.499373
O O9 0.983442 0.000000 0.500000
O O10 0.869675 0.500000 0.500000
O O11 0.813164 0.738717 0.541646
O O12 0.852041 0.688888 0.364419
O O13 0.769057 0.567401 0.102543
O O14 0.870523 0.636151 0.178054
O O15 0.862051 0.500000 0.000000
O O16 0.452741 0.097985 0.300203
O O17 0.322347 0.500000 0.500000
#
# Coordination Sequence:
#
# PCOD9319570 Si02
#       8
#     8   8   8   8   8   4   8   8
#     4  11  21  39  65 102 128 171 231 280 336 408
#     4  11  23  40  64  94 135 180 221 267 348 424
#     4  11  21  38  64  97 147 178 214 282 353 405
#     4  11  22  38  68 106 134 173 240 280 337 411
#     4  10  26  47  64  90 137 183 223 276 351 401
#     4  10  22  36  58  90 140 170 216 270 328 420
#     4  10  21  46  67  88 137 173 222 297 341 388
#     4  11  23  40  64 101 131 181 226 276 344 414
#
# _framework density 20.497613000000001
#
# number of rings (size 3 to 8) (size 9 to 14) (size 15 to 20)
#    0.000    1.333    4.000    1.600    7.467    4.800 
#    0.000    0.000    0.000    0.000    0.000    0.000 
#    0.000    0.000    0.000    0.000    0.000    0.000 
#
# Total GULP energy -167301.174920 kJ/mol
# GULP energy per Si atom -5576.705831 kJ/mol
# Density = 2.045096 g / cm^3
# Si number density = 20.497613 Si / 1000 Ang^3
#
#
#
# Elastic Constant Matrix: (Units=GPa)
#
#
# Indices 1 2 3 4 5 6 
#
# 1 85.0755 42.8175 23.5114 0.0000 0.0000 0.0000
# 2 42.8175 160.6574 24.6120 0.0000 0.0000 0.0000
# 3 23.5114 24.6120 59.8945 0.0000 0.0000 0.0000
# 4 0.0000 0.0000 0.0000 31.5418 0.0000 0.0000
# 5 0.0000 0.0000 0.0000 0.0000 20.0024 0.0000
# 6 0.0000 0.0000 0.0000 0.0000 0.0000 -491.1872
#
#
#
# Elastic Compliance Matrix: (Units=1/GPa)
#
#
# Indices 1 2 3 4 5 6 
#
# 1 0.014589 -0.003213 -0.004407 0.000000 0.000000 0.000000
# 2 -0.003213 0.007350 -0.001759 0.000000 0.000000 0.000000
# 3 -0.004407 -0.001759 0.019149 0.000000 0.000000 0.000000
# 4 0.000000 0.000000 0.000000 0.031704 0.000000 0.000000
# 5 0.000000 0.000000 0.000000 0.000000 0.049994 0.000000
# 6 0.000000 0.000000 0.000000 0.000000 0.000000 -0.002036
#
#
# Mechanical properties :
#
#
# Convention : Reuss Voigt Hill
#
# Bulk Modulus (GPa) = 44.78182 54.16768 49.47475
# Shear Modulus (GPa) = 34.02485 -73.61617 -19.79566
#
# Velocity S-wave (km/s) = 4.07866 -5.99937 -3.11103
# Velocity P-wave (km/s) = 6.63893 4.63748 3.35925
#
# Compressibility (1/GPa) = 0.02233049
#
# Stress axis : x y z
#
# Youngs Moduli (GPa) = 68.54373 136.04959 52.22291
#
# Poissons Ratio (x) = 0.43715 0.23013
# Poissons Ratio (y) = 0.22024 0.09186
# Poissons Ratio (z) = 0.30205 0.23932
#
# Static dielectric constant tensor:
#      x y z
#    x 1.760330 0.000000 0.000000 
#    y 0.000000 1.738050 0.000000 
#    z 0.000000 0.000000 3.114130 
# 
# From -- ./inp_files/21995.got.cif
#   From: 2010.05.17/outbox.cif.g08.bks.cpg/sg20_11_cif.got.tgz:21995.got - 2010.06.03 22:52:26.
