data_PCOD9319934
_publ_section_title
;
Structure prediction by ZEFSAII (Michael W. Deem and Ramdas Pophale) SiO2 
 PCOD9319934
Probable space group: C 2 2 21
;
_chemical_formula_sum "Si O2"
_cell_formula_units_Z 64
_cell_length_a 9.638062
_cell_length_b 27.884374
_cell_length_c 11.246159
_cell_angle_alpha 90.000000
_cell_angle_beta 90.000000
_cell_angle_gamma 90.000000
_cell_volume 3022.420137
_symmetry_space_group_name_H-M "C 2 2 21"
_symmetry_group_IT_number 20
_symmetry_cell_setting 'orthorhombic'
loop_
_space_group_symop_operation_xyz
x,y,z
-x,-y,1/2+z
x,-y,-z
-x,y,1/2-z
1/2+x,1/2+y,z
1/2-x,1/2-y,1/2+z
1/2+x,1/2-y,-z
1/2-x,1/2+y,1/2-z
loop_
_atom_site_type_symbol
_atom_site_label
_atom_site_fract_x
_atom_site_fract_y
_atom_site_fract_z
Si Si1 0.388102 0.064778 0.103458
Si Si2 0.692237 0.298413 0.653355
Si Si3 0.869106 0.454736 0.173482
Si Si4 0.189937 0.309874 0.376527
Si Si5 0.010050 0.160670 0.956769
Si Si6 0.740154 0.616356 0.676852
Si Si7 0.622435 0.614470 0.176649
Si Si8 0.438522 0.148879 0.464912
O O1 0.260277 0.085201 0.175436
O O2 0.508788 0.103952 0.112345
O O3 0.400923 0.010583 0.147859
O O4 0.357267 0.065014 0.960657
O O5 0.672331 0.242704 0.679009
O O6 0.591005 0.308729 0.541608
O O7 0.652030 0.333975 0.761003
O O8 0.845758 0.313786 0.609890
O O9 0.745141 0.435676 0.258727
O O10 0.000000 0.436595 0.250000
O O11 0.349775 0.311605 0.422435
O O12 0.190400 0.349318 0.274486
O O13 0.070988 0.324701 0.472264
O O14 0.910781 0.137023 0.858342
O O15 0.068551 0.119867 0.043558
O O16 0.835089 0.624151 0.560676
O O17 0.500000 0.590796 0.250000
#
# Coordination Sequence:
#
# PCOD9319934 Si02
#       8
#     8   8   8   8   8   8   8   8
#     4  11  23  41  68  98 129 168 212 283 335 393
#     4  10  25  38  63  96 135 181 228 272 334 391
#     4  11  22  42  69 100 130 165 220 274 346 398
#     4  12  21  40  64  95 135 180 224 277 330 397
#     4  10  22  41  63  87 131 180 225 268 329 390
#     4  11  22  41  64  96 128 172 220 279 325 401
#     4  10  22  45  63  90 135 178 219 275 334 393
#     4  11  22  41  66  97 132 171 226 274 334 392
#
# _framework density 21.175083000000001
#
# number of rings (size 3 to 8) (size 9 to 14) (size 15 to 20)
#    0.000    1.250    3.750    1.500    1.750    5.000 
#    4.500    3.750    0.000    0.000    0.000    0.000 
#    0.000    0.000    0.000    0.000    0.000    0.000 
#
# Total GULP energy -178499.907678 kJ/mol
# GULP energy per Si atom -5578.122115 kJ/mol
# Density = 2.112689 g / cm^3
# Si number density = 21.175083 Si / 1000 Ang^3
#
#
#
# Elastic Constant Matrix: (Units=GPa)
#
#
# Indices 1 2 3 4 5 6 
#
# 1 124.4872 27.7848 34.8711 0.0000 0.0000 0.0000
# 2 27.7848 82.4042 30.1691 0.0000 0.0000 0.0000
# 3 34.8711 30.1691 65.7009 0.0000 0.0000 0.0000
# 4 0.0000 0.0000 0.0000 320.7217 0.0000 0.0000
# 5 0.0000 0.0000 0.0000 0.0000 41.5371 0.0000
# 6 0.0000 0.0000 0.0000 0.0000 0.0000 9.9578
#
#
#
# Elastic Compliance Matrix: (Units=1/GPa)
#
#
# Indices 1 2 3 4 5 6 
#
# 1 0.009619 -0.001652 -0.004347 0.000000 0.000000 0.000000
# 2 -0.001652 0.014871 -0.005952 0.000000 0.000000 0.000000
# 3 -0.004347 -0.005952 0.020261 0.000000 0.000000 0.000000
# 4 0.000000 0.000000 0.000000 0.003118 0.000000 0.000000
# 5 0.000000 0.000000 0.000000 0.000000 0.024075 0.000000
# 6 0.000000 0.000000 0.000000 0.000000 0.000000 0.100424
#
#
# Mechanical properties :
#
#
# Convention : Reuss Voigt Hill
#
# Bulk Modulus (GPa) = 47.96235 50.91580 49.43907
# Shear Modulus (GPa) = 24.60386 86.42781 55.51584
#
# Velocity S-wave (km/s) = 3.41240 6.39566 5.12586
# Velocity P-wave (km/s) = 6.18268 8.86773 7.64402
#
# Compressibility (1/GPa) = 0.02084969
#
# Stress axis : x y z
#
# Youngs Moduli (GPa) = 103.95755 67.24314 49.35651
#
# Poissons Ratio (x) = 0.11108 0.21455
# Poissons Ratio (y) = 0.17173 0.29377
# Poissons Ratio (z) = 0.45190 0.40023
#
# Static dielectric constant tensor:
#      x y z
#    x 1.835220 0.000000 0.000000 
#    y 0.000000 1.770070 0.000000 
#    z 0.000000 0.000000 1.785320 
# 
# From -- ./inp_files/13400.got.cif
#   From: 2010.05.17/outbox.cif.g08.bks.cpg/sg20_7_cif.got.tgz:13400.got - 2010.06.03 22:52:26.
