data_PCOD9319713
_publ_section_title
;
Structure prediction by ZEFSAII (Michael W. Deem and Ramdas Pophale) SiO2 
 PCOD9319713
Probable space group: C 2 2 21
;
_chemical_formula_sum "Si O2"
_cell_formula_units_Z 48
_cell_length_a 18.066702
_cell_length_b 5.009032
_cell_length_c 20.774969
_cell_angle_alpha 90.000000
_cell_angle_beta 90.000000
_cell_angle_gamma 90.000000
_cell_volume 1880.065897
_symmetry_space_group_name_H-M "C 2 2 21"
_symmetry_group_IT_number 20
_symmetry_cell_setting 'orthorhombic'
loop_
_space_group_symop_operation_xyz
x,y,z
-x,-y,1/2+z
x,-y,-z
-x,y,1/2-z
1/2+x,1/2+y,z
1/2-x,1/2-y,1/2+z
1/2+x,1/2-y,-z
1/2-x,1/2+y,1/2-z
loop_
_atom_site_type_symbol
_atom_site_label
_atom_site_fract_x
_atom_site_fract_y
_atom_site_fract_z
Si Si1 0.943978 0.179594 0.441998
Si Si2 0.146267 0.011119 0.423263
Si Si3 0.709250 0.498490 0.222702
Si Si4 0.691874 0.879410 0.106102
Si Si5 0.926751 0.768634 0.324793
Si Si6 0.942283 0.506937 0.122889
O O1 0.859174 0.265237 0.450486
O O2 0.995524 0.432718 0.430335
O O3 0.969069 0.000000 0.500000
O O4 0.945742 0.000592 0.376769
O O5 0.234102 0.021371 0.414702
O O6 0.112071 0.741631 0.395463
O O7 0.131977 0.000000 0.500000
O O8 0.107371 0.243481 0.382053
O O9 0.760609 0.239796 0.233105
O O10 0.713509 0.633384 0.152554
O O11 0.622970 0.410271 0.230545
O O12 0.635056 0.068749 0.145227
O O13 0.003317 0.602887 0.319476
#
# Coordination Sequence:
#
# PCOD9319713 Si02
#       6
#     8   8   8   8   8   8
#     4  10  22  38  66  92 134 178 231 274 316 382
#     4  12  27  40  63  95 147 190 218 259 331 403
#     4  11  22  42  73 104 126 162 221 293 353 396
#     4  10  25  41  64 105 134 172 222 283 338 397
#     4  10  22  42  66 103 124 173 228 278 325 388
#     4  11  24  42  61  93 134 184 230 257 312 395
#
# _framework density 25.531016999999999
#
# number of rings (size 3 to 8) (size 9 to 14) (size 15 to 20)
#    0.000    1.333    3.333    1.000    9.333    1.333 
#    0.000    0.000    0.000    1.000   21.667    0.000 
#    0.000    0.000    0.000    0.000    0.000    0.000 
#
# Total GULP energy -134205.657957 kJ/mol
# GULP energy per Si atom -5591.902415 kJ/mol
# Density = 2.547291 g / cm^3
# Si number density = 25.531017 Si / 1000 Ang^3
#
#
#
# Elastic Constant Matrix: (Units=GPa)
#
#
# Indices 1 2 3 4 5 6 
#
# 1 163.6783 31.7024 9.4978 0.0000 0.0000 0.0000
# 2 31.7024 154.8433 9.4952 0.0000 0.0000 0.0000
# 3 9.4978 9.4952 56.4264 0.0000 0.0000 0.0000
# 4 0.0000 0.0000 0.0000 30.8974 0.0000 0.0000
# 5 0.0000 0.0000 0.0000 0.0000 -2.4937 0.0000
# 6 0.0000 0.0000 0.0000 0.0000 0.0000 3.2145
#
#
#
# Elastic Compliance Matrix: (Units=1/GPa)
#
#
# Indices 1 2 3 4 5 6 
#
# 1 0.006403 -0.001258 -0.000866 0.000000 0.000000 0.000000
# 2 -0.001258 0.006773 -0.000928 0.000000 0.000000 0.000000
# 3 -0.000866 -0.000928 0.018024 0.000000 0.000000 0.000000
# 4 0.000000 0.000000 0.000000 0.032365 0.000000 0.000000
# 5 0.000000 0.000000 0.000000 0.000000 -0.401009 0.000000
# 6 0.000000 0.000000 0.000000 0.000000 0.000000 0.311088
#
#
# Mechanical properties :
#
#
# Convention : Reuss Voigt Hill
#
# Bulk Modulus (GPa) = 39.84671 52.92652 46.38661
# Shear Modulus (GPa) = -420.65871 27.94048 -196.35912
#
# Velocity S-wave (km/s) = -12.84996 3.31172 -8.77935
# Velocity P-wave (km/s) = 14.30108 5.94967 9.19571
#
# Compressibility (1/GPa) = 0.02509618
#
# Stress axis : x y z
#
# Youngs Moduli (GPa) = 156.16578 147.65399 55.48109
#
# Poissons Ratio (x) = 0.18574 0.04806
# Poissons Ratio (y) = 0.19644 0.05148
# Poissons Ratio (z) = 0.13527 0.13701
#
# Static dielectric constant tensor:
#      x y z
#    x 2.045220 0.000000 0.000000 
#    y 0.000000 2.066990 0.000000 
#    z 0.000000 0.000000 3.227280 
# 
# From -- ./inp_files/30476.got.cif
#   From: 2010.05.17/outbox.cif.g08.bks.cpg/sg20_16_cif.got.tgz:30476.got - 2010.06.03 22:52:26.
