data_PCOD9319104
_publ_section_title
;
Structure prediction by ZEFSAII (Michael W. Deem and Ramdas Pophale) SiO2 
 PCOD9319104
Probable space group: C 2 2 21
;
_chemical_formula_sum "Si O2"
_cell_formula_units_Z 64
_cell_length_a 16.762413
_cell_length_b 5.434484
_cell_length_c 34.295271
_cell_angle_alpha 90.000000
_cell_angle_beta 90.000000
_cell_angle_gamma 90.000000
_cell_volume 3124.129950
_symmetry_space_group_name_H-M "C 2 2 21"
_symmetry_group_IT_number 20
_symmetry_cell_setting 'orthorhombic'
loop_
_space_group_symop_operation_xyz
x,y,z
-x,-y,1/2+z
x,-y,-z
-x,y,1/2-z
1/2+x,1/2+y,z
1/2-x,1/2-y,1/2+z
1/2+x,1/2-y,-z
1/2-x,1/2+y,1/2-z
loop_
_atom_site_type_symbol
_atom_site_label
_atom_site_fract_x
_atom_site_fract_y
_atom_site_fract_z
Si Si1 0.321474 0.254289 0.843918
Si Si2 0.027214 0.540003 0.345720
Si Si3 0.717836 0.829815 0.769363
Si Si4 0.785678 0.995828 0.046304
Si Si5 0.078223 0.844718 0.864523
Si Si6 0.230560 0.993507 0.088102
Si Si7 0.083671 0.926530 0.397727
Si Si8 0.049692 0.888160 0.213935
O O1 0.406278 0.147061 0.829558
O O2 0.257079 0.315677 0.811906
O O3 0.285314 0.061322 0.874367
O O4 0.346260 0.494044 0.868080
O O5 0.939463 0.441278 0.357102
O O6 0.060280 0.652249 0.386042
O O7 0.013272 0.732882 0.311523
O O8 0.741058 0.096886 0.752591
O O9 0.623421 0.774367 0.770420
O O10 0.740834 0.238623 0.063591
O O11 0.878101 0.994647 0.061152
O O12 0.754532 0.734766 0.063426
O O13 0.779861 0.000000 0.000000
O O14 0.146103 0.941413 0.892515
O O15 0.085760 0.940596 0.820101
O O16 0.995197 0.926622 0.885065
O O17 0.000000 0.000715 0.250000
#
# Coordination Sequence:
#
# PCOD9319104 Si02
#       8
#     8   8   8   8   8   8   8   8
#     4  10  21  41  64  93 125 178 224 278 321 406
#     4  10  21  39  66  90 127 174 225 271 337 391
#     4  12  29  42  62  91 131 174 223 283 341 387
#     4  11  24  44  71 103 137 173 214 276 340 403
#     4  10  23  40  67  97 130 182 227 278 335 400
#     4  11  23  42  71 100 137 172 228 268 332 407
#     4   9  21  39  66  95 127 168 222 265 325 409
#     4  11  25  41  59  92 133 175 224 287 337 393
#
# _framework density 20.485700999999999
#
# number of rings (size 3 to 8) (size 9 to 14) (size 15 to 20)
#    0.000    1.500    2.500    1.125   12.250    0.500 
#    0.000    1.250    0.000    0.000    0.000    0.000 
#    0.000    0.000    0.000    0.000    0.000    0.000 
#
# Total GULP energy -178335.080375 kJ/mol
# GULP energy per Si atom -5572.971262 kJ/mol
# Density = 2.043907 g / cm^3
# Si number density = 20.485701 Si / 1000 Ang^3
#
#
#
# Elastic Constant Matrix: (Units=GPa)
#
#
# Indices 1 2 3 4 5 6 
#
# 1 72.8769 8.4982 33.6704 0.0000 0.0000 0.0000
# 2 8.4982 73.4378 26.2163 0.0000 0.0000 0.0000
# 3 33.6704 26.2163 108.1534 0.0000 0.0000 0.0000
# 4 0.0000 0.0000 0.0000 21.1949 0.0000 0.0000
# 5 0.0000 0.0000 0.0000 0.0000 26.1196 0.0000
# 6 0.0000 0.0000 0.0000 0.0000 0.0000 24.9151
#
#
#
# Elastic Compliance Matrix: (Units=1/GPa)
#
#
# Indices 1 2 3 4 5 6 
#
# 1 0.016027 -0.000080 -0.004970 0.000000 0.000000 0.000000
# 2 -0.000080 0.014907 -0.003588 0.000000 0.000000 0.000000
# 3 -0.004970 -0.003588 0.011663 0.000000 0.000000 0.000000
# 4 0.000000 0.000000 0.000000 0.047181 0.000000 0.000000
# 5 0.000000 0.000000 0.000000 0.000000 0.038285 0.000000
# 6 0.000000 0.000000 0.000000 0.000000 0.000000 0.040136
#
#
# Mechanical properties :
#
#
# Convention : Reuss Voigt Hill
#
# Bulk Modulus (GPa) = 39.49461 43.47087 41.48274
# Shear Modulus (GPa) = 25.78394 26.85146 26.31770
#
# Velocity S-wave (km/s) = 3.55157 3.62434 3.58814
# Velocity P-wave (km/s) = 6.01158 6.22741 6.12045
#
# Compressibility (1/GPa) = 0.02531991
#
# Stress axis : x y z
#
# Youngs Moduli (GPa) = 62.39289 67.08116 85.73900
#
# Poissons Ratio (x) = 0.00539 0.42614
# Poissons Ratio (y) = 0.00502 0.30767
# Poissons Ratio (z) = 0.31011 0.24072
#
# Static dielectric constant tensor:
#      x y z
#    x 1.771190 0.000000 0.000000 
#    y 0.000000 1.863410 0.000000 
#    z 0.000000 0.000000 1.727740 
# 
# From -- ./inp_files/31372.got.cif
#   From: 2010.05.17/outbox.cif.g08.bks.cpg/sg20_16_cif.got.tgz:31372.got - 2010.06.03 22:52:26.
