data_PCOD9319197
_publ_section_title
;
Structure prediction by ZEFSAII (Michael W. Deem and Ramdas Pophale) SiO2 
 PCOD9319197
Probable space group: C 2 2 21
;
_chemical_formula_sum "Si O2"
_cell_formula_units_Z 48
_cell_length_a 20.757295
_cell_length_b 8.342805
_cell_length_c 13.227752
_cell_angle_alpha 90.000000
_cell_angle_beta 90.000000
_cell_angle_gamma 90.000000
_cell_volume 2290.703578
_symmetry_space_group_name_H-M "C 2 2 21"
_symmetry_group_IT_number 20
_symmetry_cell_setting 'orthorhombic'
loop_
_space_group_symop_operation_xyz
x,y,z
-x,-y,1/2+z
x,-y,-z
-x,y,1/2-z
1/2+x,1/2+y,z
1/2-x,1/2-y,1/2+z
1/2+x,1/2-y,-z
1/2-x,1/2+y,1/2-z
loop_
_atom_site_type_symbol
_atom_site_label
_atom_site_fract_x
_atom_site_fract_y
_atom_site_fract_z
Si Si1 0.350511 0.163705 0.901683
Si Si2 0.402480 0.320393 0.516610
Si Si3 0.312690 0.207643 0.687603
Si Si4 0.498621 0.115302 0.860561
Si Si5 0.109461 0.375152 0.821536
Si Si6 0.324940 0.805109 0.875637
O O1 0.331357 0.260160 0.801322
O O2 0.424899 0.107007 0.892962
O O3 0.311509 0.996436 0.890547
O O4 0.341222 0.245866 0.009891
O O5 0.424148 0.500000 0.500000
O O6 0.348134 0.312140 0.602757
O O7 0.460815 0.213583 0.558658
O O8 0.376934 0.243639 0.413069
O O9 0.237374 0.217611 0.667668
O O10 0.342663 0.029050 0.674319
O O11 0.500000 0.197981 0.750000
O O12 0.539173 0.952806 0.841211
O O13 0.120551 0.297887 0.711493
#
# Coordination Sequence:
#
# PCOD9319197 Si02
#       6
#     8   8   8   8   8   8
#     4  10  22  40  67  98 133 176 219 278 343 398
#     4  11  25  40  68  96 131 182 227 284 337 399
#     4  10  21  40  64  93 135 176 219 274 329 409
#     4  11  19  43  71  96 130 172 231 277 345 410
#     4  10  23  40  69  99 128 183 224 278 343 412
#     4  10  22  35  64 104 132 167 224 276 326 407
#
# _framework density 20.954260999999999
#
# number of rings (size 3 to 8) (size 9 to 14) (size 15 to 20)
#    0.000    1.667    5.000    2.000    9.333    1.333 
#    0.000    2.500    7.333    0.000    0.000    0.000 
#    0.000    0.000    0.000    0.000    0.000    0.000 
#
# Total GULP energy -133913.732985 kJ/mol
# GULP energy per Si atom -5579.738874 kJ/mol
# Density = 2.090657 g / cm^3
# Si number density = 20.954261 Si / 1000 Ang^3
#
#
#
# Elastic Constant Matrix: (Units=GPa)
#
#
# Indices 1 2 3 4 5 6 
#
# 1 109.6578 15.1322 48.9435 0.0000 0.0000 0.0000
# 2 15.1322 23.6616 29.4246 0.0000 0.0000 0.0000
# 3 48.9435 29.4246 218.9808 0.0000 0.0000 0.0000
# 4 0.0000 0.0000 0.0000 -0.5791 0.0000 0.0000
# 5 0.0000 0.0000 0.0000 0.0000 23.2186 0.0000
# 6 0.0000 0.0000 0.0000 0.0000 0.0000 1.7768
#
#
#
# Elastic Compliance Matrix: (Units=1/GPa)
#
#
# Indices 1 2 3 4 5 6 
#
# 1 0.010526 -0.004570 -0.001739 0.000000 0.000000 0.000000
# 2 -0.004570 0.052725 -0.006063 0.000000 0.000000 0.000000
# 3 -0.001739 -0.006063 0.005770 0.000000 0.000000 0.000000
# 4 0.000000 0.000000 0.000000 -1.726787 0.000000 0.000000
# 5 0.000000 0.000000 0.000000 0.000000 0.043069 0.000000
# 6 0.000000 0.000000 0.000000 0.000000 0.000000 0.562806
#
#
# Mechanical properties :
#
#
# Convention : Reuss Voigt Hill
#
# Bulk Modulus (GPa) = 22.58460 59.92231 41.25346
# Shear Modulus (GPa) = -4.93881 22.13657 8.59888
#
# Velocity S-wave (km/s) = -1.53690 3.25379 2.02794
# Velocity P-wave (km/s) = 2.76623 6.54026 5.02131
#
# Compressibility (1/GPa) = 0.04427795
#
# Stress axis : x y z
#
# Youngs Moduli (GPa) = 95.00439 18.96625 173.31213
#
# Poissons Ratio (x) = 0.08667 0.30132
# Poissons Ratio (y) = 0.43413 1.05086
# Poissons Ratio (z) = 0.16517 0.11500
#
# Static dielectric constant tensor:
#      x y z
#    x 1.768520 0.000000 0.000000 
#    y 0.000000 1.728200 0.000000 
#    z 0.000000 0.000000 1.836450 
# 
# From -- ./inp_files/21662.got.cif
#   From: 2010.05.17/outbox.cif.g08.bks.cpg/sg20_11_cif.got.tgz:21662.got - 2010.06.03 22:52:26.
