data_PCOD9319248
_publ_section_title
;
Structure prediction by ZEFSAII (Michael W. Deem and Ramdas Pophale) SiO2 
 PCOD9319248
Probable space group: C 2 2 21
;
_chemical_formula_sum "Si O2"
_cell_formula_units_Z 44
_cell_length_a 15.544655
_cell_length_b 13.364537
_cell_length_c 9.602696
_cell_angle_alpha 90.000000
_cell_angle_beta 90.000000
_cell_angle_gamma 90.000000
_cell_volume 1994.932408
_symmetry_space_group_name_H-M "C 2 2 21"
_symmetry_group_IT_number 20
_symmetry_cell_setting 'orthorhombic'
loop_
_space_group_symop_operation_xyz
x,y,z
-x,-y,1/2+z
x,-y,-z
-x,y,1/2-z
1/2+x,1/2+y,z
1/2-x,1/2-y,1/2+z
1/2+x,1/2-y,-z
1/2-x,1/2+y,1/2-z
loop_
_atom_site_type_symbol
_atom_site_label
_atom_site_fract_x
_atom_site_fract_y
_atom_site_fract_z
Si Si1 0.675856 0.745661 0.276072
Si Si2 0.549251 0.921368 0.384148
Si Si3 0.915834 0.104869 0.447358
Si Si4 0.917478 0.000000 0.000000
Si Si5 0.678351 0.676328 0.575150
Si Si6 0.993841 0.278530 0.596315
O O1 0.617006 0.840055 0.324009
O O2 0.626495 0.665186 0.178252
O O3 0.709044 0.691099 0.415970
O O4 0.753186 0.787483 0.184282
O O5 0.500000 0.963804 0.250000
O O6 0.480132 0.858250 0.475475
O O7 0.584358 0.000000 0.500000
O O8 0.014781 0.070013 0.417768
O O9 0.929851 0.185209 0.572463
O O10 0.874303 0.000000 0.500000
O O11 0.856227 0.935560 0.097026
O O12 0.590850 0.739181 0.579000
O O13 0.000000 0.319536 0.750000
#
# Coordination Sequence:
#
# PCOD9319248 Si02
#       6
#     8   8   8   4   8   8
#     4  11  24  46  67 103 153 190 238 312 378 432
#     4  11  23  44  71  97 136 191 250 303 367 442
#     4   9  20  40  75 108 134 186 242 313 367 436
#     4   8  20  44  68 106 132 188 246 296 370 434
#     4  10  24  43  65  99 149 192 230 307 376 436
#     4  10  21  40  69 101 137 179 248 301 366 439
#
# _framework density 22.055886999999998
#
# number of rings (size 3 to 8) (size 9 to 14) (size 15 to 20)
#    0.545    1.455    1.818    0.545    2.545    2.909 
#    8.182    0.909    0.000    0.000    0.000    0.000 
#    0.000    0.000    0.000    0.000    0.000    0.000 
#
# Total GULP energy -122604.770229 kJ/mol
# GULP energy per Si atom -5572.944101 kJ/mol
# Density = 2.200569 g / cm^3
# Si number density = 22.055887 Si / 1000 Ang^3
#
#
#
# Elastic Constant Matrix: (Units=GPa)
#
#
# Indices 1 2 3 4 5 6 
#
# 1 35.7210 17.4729 17.8887 0.0000 0.0000 0.0000
# 2 17.4729 110.6586 34.4653 0.0000 0.0000 0.0000
# 3 17.8887 34.4653 119.3186 0.0000 0.0000 0.0000
# 4 0.0000 0.0000 0.0000 27.3157 0.0000 0.0000
# 5 0.0000 0.0000 0.0000 0.0000 36.8188 0.0000
# 6 0.0000 0.0000 0.0000 0.0000 0.0000 22.9126
#
#
#
# Elastic Compliance Matrix: (Units=1/GPa)
#
#
# Indices 1 2 3 4 5 6 
#
# 1 0.031710 -0.003875 -0.003635 0.000000 0.000000 0.000000
# 2 -0.003875 0.010404 -0.002424 0.000000 0.000000 0.000000
# 3 -0.003635 -0.002424 0.009626 0.000000 0.000000 0.000000
# 4 0.000000 0.000000 0.000000 0.036609 0.000000 0.000000
# 5 0.000000 0.000000 0.000000 0.000000 0.027160 0.000000
# 6 0.000000 0.000000 0.000000 0.000000 0.000000 0.043644
#
#
# Mechanical properties :
#
#
# Convention : Reuss Voigt Hill
#
# Bulk Modulus (GPa) = 31.37524 45.03909 38.20717
# Shear Modulus (GPa) = 26.36499 30.46750 28.41624
#
# Velocity S-wave (km/s) = 3.46117 3.72072 3.59329
# Velocity P-wave (km/s) = 5.49810 6.23884 5.88015
#
# Compressibility (1/GPa) = 0.03187227
#
# Stress axis : x y z
#
# Youngs Moduli (GPa) = 31.53534 96.11996 103.88421
#
# Poissons Ratio (x) = 0.37246 0.37761
# Poissons Ratio (y) = 0.12220 0.25183
# Poissons Ratio (z) = 0.11463 0.23301
#
# Static dielectric constant tensor:
#      x y z
#    x 1.789150 0.000000 0.000000 
#    y 0.000000 1.925450 0.000000 
#    z 0.000000 0.000000 2.325810 
# 
# From -- ./inp_files/9261.got.cif
#   From: 2010.05.17/outbox.cif.g08.bks.cpg/sg20_5_cif.got.tgz:9261.got - 2010.06.03 22:52:26.
