data_PCOD9319629
_publ_section_title
;
Structure prediction by ZEFSAII (Michael W. Deem and Ramdas Pophale) SiO2 
 PCOD9319629
Probable space group: C 2 2 21
;
_chemical_formula_sum "Si O2"
_cell_formula_units_Z 64
_cell_length_a 11.538465
_cell_length_b 19.432052
_cell_length_c 13.494428
_cell_angle_alpha 90.000000
_cell_angle_beta 90.000000
_cell_angle_gamma 90.000000
_cell_volume 3025.667369
_symmetry_space_group_name_H-M "C 2 2 21"
_symmetry_group_IT_number 20
_symmetry_cell_setting 'orthorhombic'
loop_
_space_group_symop_operation_xyz
x,y,z
-x,-y,1/2+z
x,-y,-z
-x,y,1/2-z
1/2+x,1/2+y,z
1/2-x,1/2-y,1/2+z
1/2+x,1/2-y,-z
1/2-x,1/2+y,1/2-z
loop_
_atom_site_type_symbol
_atom_site_label
_atom_site_fract_x
_atom_site_fract_y
_atom_site_fract_z
Si Si1 0.528618 0.564486 0.448102
Si Si2 0.132772 0.008081 0.719564
Si Si3 0.547235 0.697964 0.546575
Si Si4 0.486759 0.804236 0.372109
Si Si5 0.325111 0.638556 0.662400
Si Si6 0.249071 0.259971 0.186436
Si Si7 0.290983 0.391038 0.652148
Si Si8 0.866392 0.578960 0.973828
O O1 0.465296 0.500000 0.500000
O O2 0.627158 0.523150 0.388837
O O3 0.589802 0.623161 0.511135
O O4 0.420102 0.603187 0.395638
O O5 0.142886 0.087751 0.746662
O O6 0.000000 0.991951 0.750000
O O7 0.216692 0.958984 0.781348
O O8 0.536123 0.746277 0.448855
O O9 0.427837 0.674539 0.601539
O O10 0.630351 0.732263 0.627863
O O11 0.500000 0.797913 0.250000
O O12 0.348761 0.794717 0.381596
O O13 0.537135 0.875676 0.416714
O O14 0.253747 0.699722 0.710688
O O15 0.247107 0.589540 0.594797
O O16 0.214871 0.181509 0.206466
O O17 0.185111 0.389834 0.575283
O O18 0.895842 0.500000 0.000000
#
# Coordination Sequence:
#
# PCOD9319629 Si02
#       8
#     8   8   8   8   8   8   8   8
#     4  11  21  36  63 101 142 171 222 292 356 407
#     4  10  22  36  62 100 136 169 227 289 345 407
#     4  12  25  43  68 106 143 180 225 292 357 415
#     4  12  27  46  70 102 138 185 237 281 346 422
#     4  12  23  44  72 103 141 180 233 290 351 415
#     4  12  25  43  72 101 143 182 230 290 355 417
#     4  11  21  39  65 100 132 182 228 279 343 421
#     4  12  23  45  77  96 134 191 238 284 340 422
#
# _framework density 21.152356999999999
#
# number of rings (size 3 to 8) (size 9 to 14) (size 15 to 20)
#    0.000    0.500    6.250    3.750    1.750    0.000 
#    0.000    1.875    2.750    0.000    0.000    0.000 
#    0.000    0.000    0.000    0.000    0.000    0.000 
#
# Total GULP energy -178243.256495 kJ/mol
# GULP energy per Si atom -5570.101765 kJ/mol
# Density = 2.110421 g / cm^3
# Si number density = 21.152357 Si / 1000 Ang^3
#
#
#
# Elastic Constant Matrix: (Units=GPa)
#
#
# Indices 1 2 3 4 5 6 
#
# 1 49.7613 27.4710 8.4074 0.0000 0.0000 0.0000
# 2 27.4710 161.8090 46.9426 0.0000 0.0000 0.0000
# 3 8.4074 46.9426 72.9363 0.0000 0.0000 0.0000
# 4 0.0000 0.0000 0.0000 40.3673 0.0000 0.0000
# 5 0.0000 0.0000 0.0000 0.0000 -8.7015 0.0000
# 6 0.0000 0.0000 0.0000 0.0000 0.0000 26.6663
#
#
#
# Elastic Compliance Matrix: (Units=1/GPa)
#
#
# Indices 1 2 3 4 5 6 
#
# 1 0.022176 -0.003717 -0.000164 0.000000 0.000000 0.000000
# 2 -0.003717 0.008222 -0.004863 0.000000 0.000000 0.000000
# 3 -0.000164 -0.004863 0.016860 0.000000 0.000000 0.000000
# 4 0.000000 0.000000 0.000000 0.024773 0.000000 0.000000
# 5 0.000000 0.000000 0.000000 0.000000 -0.114922 0.000000
# 6 0.000000 0.000000 0.000000 0.000000 0.000000 0.037501
#
#
# Mechanical properties :
#
#
# Convention : Reuss Voigt Hill
#
# Bulk Modulus (GPa) = 33.59231 50.01649 41.80440
# Shear Modulus (GPa) = 227.06760 25.11212 126.08986
#
# Velocity S-wave (km/s) = 10.37216 3.44932 7.72915
# Velocity P-wave (km/s) = 12.62370 6.28974 9.97293
#
# Compressibility (1/GPa) = 0.02976871
#
# Stress axis : x y z
#
# Youngs Moduli (GPa) = 45.09417 121.62253 59.31349
#
# Poissons Ratio (x) = 0.45212 0.00971
# Poissons Ratio (y) = 0.16763 0.28846
# Poissons Ratio (z) = 0.00738 0.59149
#
# Static dielectric constant tensor:
#      x y z
#    x 1.784920 0.000000 0.000000 
#    y 0.000000 1.852370 0.000000 
#    z 0.000000 0.000000 2.067470 
# 
# From -- ./inp_files/20276.got.cif
#   From: 2010.05.17/outbox.cif.g08.bks.cpg/sg20_11_cif.got.tgz:20276.got - 2010.06.03 22:52:26.
