data_PCOD9319243
_publ_section_title
;
Structure prediction by ZEFSAII (Michael W. Deem and Ramdas Pophale) SiO2 
 PCOD9319243
Probable space group: C 2 2 21
;
_chemical_formula_sum "Si O2"
_cell_formula_units_Z 56
_cell_length_a 32.841793
_cell_length_b 15.400934
_cell_length_c 5.440136
_cell_angle_alpha 90.000000
_cell_angle_beta 90.000000
_cell_angle_gamma 90.000000
_cell_volume 2751.589706
_symmetry_space_group_name_H-M "C 2 2 21"
_symmetry_group_IT_number 20
_symmetry_cell_setting 'orthorhombic'
loop_
_space_group_symop_operation_xyz
x,y,z
-x,-y,1/2+z
x,-y,-z
-x,y,1/2-z
1/2+x,1/2+y,z
1/2-x,1/2-y,1/2+z
1/2+x,1/2-y,-z
1/2-x,1/2+y,1/2-z
loop_
_atom_site_type_symbol
_atom_site_label
_atom_site_fract_x
_atom_site_fract_y
_atom_site_fract_z
Si Si1 0.724468 0.248457 0.081878
Si Si2 0.389025 0.000000 0.000000
Si Si3 0.500000 0.141085 0.250000
Si Si4 0.039780 0.224633 0.377727
Si Si5 0.572732 0.881621 0.092867
Si Si6 0.160294 0.592876 0.130743
Si Si7 0.110879 0.897938 0.483778
Si Si8 0.339521 0.397111 0.514555
O O1 0.746321 0.262853 0.344877
O O2 0.695013 0.164288 0.107826
O O3 0.698227 0.333596 0.018826
O O4 0.356760 0.070833 0.099175
O O5 0.418352 0.952066 0.193736
O O6 0.525029 0.204310 0.427491
O O7 0.465594 0.095111 0.417167
O O8 0.062476 0.285427 0.183038
O O9 0.070016 0.156340 0.491076
O O10 0.000000 0.184635 0.250000
O O11 0.617464 0.875695 0.979591
O O12 0.170601 0.500000 0.000000
O O13 0.131758 0.879862 0.221794
O O14 0.102064 0.000000 0.500000
O O15 0.139276 0.879166 0.722033
O O16 0.329080 0.500000 0.500000
#
# Coordination Sequence:
#
# PCOD9319243 Si02
#       8
#     8   4   4   8   8   8   8   8
#     4  12  28  44  70 110 138 177 226 279 350 421
#     4  10  22  40  72  96 130 182 238 272 346 400
#     4  10  22  38  62  98 130 180 224 280 352 386
#     4  10  22  37  61  89 131 174 218 276 342 388
#     4  10  21  40  68  95 131 178 232 279 337 411
#     4  10  24  43  71  96 134 185 229 282 342 415
#     4  10  22  41  66  98 127 176 226 275 329 402
#     4  10  23  44  70  97 133 172 223 277 340 402
#
# _framework density 20.351872
#
# number of rings (size 3 to 8) (size 9 to 14) (size 15 to 20)
#    0.000    1.714    0.000    2.571   12.000    1.143 
#    1.286    0.000  113.143    0.000    0.000    0.000 
#    0.000    0.000    0.000    0.000    0.000    0.000 
#
# Total GULP energy -156256.902541 kJ/mol
# GULP energy per Si atom -5580.603662 kJ/mol
# Density = 2.030555 g / cm^3
# Si number density = 20.351872 Si / 1000 Ang^3
#
#
#
# Elastic Constant Matrix: (Units=GPa)
#
#
# Indices 1 2 3 4 5 6 
#
# 1 126.6446 76.9139 60.0036 0.0000 0.0000 0.0000
# 2 76.9139 60.4815 44.3429 0.0000 0.0000 0.0000
# 3 60.0036 44.3429 110.0731 0.0000 0.0000 0.0000
# 4 0.0000 0.0000 0.0000 -15.7837 0.0000 0.0000
# 5 0.0000 0.0000 0.0000 0.0000 26.1807 0.0000
# 6 0.0000 0.0000 0.0000 0.0000 0.0000 -39.0635
#
#
#
# Elastic Compliance Matrix: (Units=1/GPa)
#
#
# Indices 1 2 3 4 5 6 
#
# 1 0.034885 -0.043172 -0.001625 0.000000 0.000000 0.000000
# 2 -0.043172 0.076891 -0.007441 0.000000 0.000000 0.000000
# 3 -0.001625 -0.007441 0.012969 0.000000 0.000000 0.000000
# 4 0.000000 0.000000 0.000000 -0.063357 0.000000 0.000000
# 5 0.000000 0.000000 0.000000 0.000000 0.038196 0.000000
# 6 0.000000 0.000000 0.000000 0.000000 0.000000 -0.025599
#
#
# Mechanical properties :
#
#
# Convention : Reuss Voigt Hill
#
# Bulk Modulus (GPa) = 49.33864 73.30221 61.32043
# Shear Modulus (GPa) = 26.99530 1.99597 14.49564
#
# Velocity S-wave (km/s) = 3.64597 0.99139 2.67170
# Velocity P-wave (km/s) = 6.48225 6.11605 6.30181
#
# Compressibility (1/GPa) = 0.02026809
#
# Stress axis : x y z
#
# Youngs Moduli (GPa) = 28.66548 13.00543 77.10977
#
# Poissons Ratio (x) = 0.56147 0.12531
# Poissons Ratio (y) = 1.23754 0.57381
# Poissons Ratio (z) = 0.04658 0.09678
#
# Static dielectric constant tensor:
#      x y z
#    x 1.741900 0.000000 0.000000 
#    y 0.000000 1.716520 0.000000 
#    z 0.000000 0.000000 1.777360 
# 
# From -- ./inp_files/4718.got.cif
#   From: 2010.05.17/outbox.cif.g08.bks.cpg/sg20_3_cif.got.tgz:4718.got - 2010.06.03 22:52:26.
