data_PCOD9319818
_publ_section_title
;
Structure prediction by ZEFSAII (Michael W. Deem and Ramdas Pophale) SiO2 
 PCOD9319818
Probable space group: C 2 2 21
;
_chemical_formula_sum "Si O2"
_cell_formula_units_Z 40
_cell_length_a 5.552627
_cell_length_b 19.911001
_cell_length_c 16.791024
_cell_angle_alpha 90.000000
_cell_angle_beta 90.000000
_cell_angle_gamma 90.000000
_cell_volume 1856.388106
_symmetry_space_group_name_H-M "C 2 2 21"
_symmetry_group_IT_number 20
_symmetry_cell_setting 'orthorhombic'
loop_
_space_group_symop_operation_xyz
x,y,z
-x,-y,1/2+z
x,-y,-z
-x,y,1/2-z
1/2+x,1/2+y,z
1/2-x,1/2-y,1/2+z
1/2+x,1/2-y,-z
1/2-x,1/2+y,1/2-z
loop_
_atom_site_type_symbol
_atom_site_label
_atom_site_fract_x
_atom_site_fract_y
_atom_site_fract_z
Si Si1 0.896644 0.105524 0.408780
Si Si2 0.770449 0.000000 0.000000
Si Si3 0.989648 0.251859 0.453199
Si Si4 0.000000 0.028233 0.250000
Si Si5 0.429374 0.101932 0.940383
Si Si6 0.741158 0.600810 0.775803
O O1 0.901933 0.073024 0.321965
O O2 0.666240 0.104307 0.468353
O O3 0.971766 0.183541 0.403235
O O4 0.077412 0.058040 0.458217
O O5 0.604812 0.960660 0.062109
O O6 0.264990 0.254537 0.485444
O O7 0.951111 0.326611 0.419973
O O8 0.791705 0.972450 0.234859
O O9 0.232943 0.092124 0.871434
O O10 0.500000 0.639852 0.750000
O O11 0.000000 0.627800 0.750000
#
# Coordination Sequence:
#
# PCOD9319818 Si02
#       6
#     8   4   8   4   8   8
#     4  11  23  40  66 100 132 179 222 280 330 402
#     4  12  20  36  72 100 118 180 228 268 320 398
#     4  10  22  43  65  96 132 171 221 276 328 395
#     4  10  22  40  62  98 140 166 218 282 338 378
#     4  11  23  40  68  96 132 176 227 267 338 398
#     4  10  23  40  62  96 135 165 209 284 326 383
#
# _framework density 21.547219999999999
#
# number of rings (size 3 to 8) (size 9 to 14) (size 15 to 20)
#    0.600    0.800    2.000    4.200    2.800    0.000 
#    1.800    0.000    0.000    0.000    0.000    0.000 
#    0.000    0.000    0.000    0.000    0.000    0.000 
#
# Total GULP energy -111335.360567 kJ/mol
# GULP energy per Si atom -5566.768028 kJ/mol
# Density = 2.149818 g / cm^3
# Si number density = 21.547220 Si / 1000 Ang^3
#
#
#
# Elastic Constant Matrix: (Units=GPa)
#
#
# Indices 1 2 3 4 5 6 
#
# 1 69.0732 0.7789 2.1738 0.0000 0.0000 0.0000
# 2 0.7789 98.0617 -12.4549 0.0000 0.0000 0.0000
# 3 2.1738 -12.4549 81.3290 0.0000 0.0000 0.0000
# 4 0.0000 0.0000 0.0000 17.3180 0.0000 0.0000
# 5 0.0000 0.0000 0.0000 0.0000 26.5560 0.0000
# 6 0.0000 0.0000 0.0000 0.0000 0.0000 24.9706
#
#
#
# Elastic Compliance Matrix: (Units=1/GPa)
#
#
# Indices 1 2 3 4 5 6 
#
# 1 0.014492 -0.000168 -0.000413 0.000000 0.000000 0.000000
# 2 -0.000168 0.010402 0.001597 0.000000 0.000000 0.000000
# 3 -0.000413 0.001597 0.012551 0.000000 0.000000 0.000000
# 4 0.000000 0.000000 0.000000 0.057744 0.000000 0.000000
# 5 0.000000 0.000000 0.000000 0.000000 0.037656 0.000000
# 6 0.000000 0.000000 0.000000 0.000000 0.000000 0.040047
#
#
# Mechanical properties :
#
#
# Convention : Reuss Voigt Hill
#
# Bulk Modulus (GPa) = 25.32972 25.49549 25.41260
# Shear Modulus (GPa) = 27.17116 30.96664 29.06890
#
# Velocity S-wave (km/s) = 3.55492 3.79509 3.67697
# Velocity P-wave (km/s) = 5.35078 5.57330 5.46318
#
# Compressibility (1/GPa) = 0.03947932
#
# Stress axis : x y z
#
# Youngs Moduli (GPa) = 69.00220 96.13636 79.67230
#
# Poissons Ratio (x) = 0.01611 0.03291
# Poissons Ratio (y) = 0.01156 -0.12727
# Poissons Ratio (z) = 0.02850 -0.15357
#
# Static dielectric constant tensor:
#      x y z
#    x 1.906780 0.000000 0.000000 
#    y 0.000000 1.799180 0.000000 
#    z 0.000000 0.000000 1.854240 
# 
# From -- ./inp_files/22654.got.cif
#   From: 2010.05.17/outbox.cif.g08.bks.cpg/sg20_12_cif.got.tgz:22654.got - 2010.06.03 22:52:26.
