data_PCOD9319634
_publ_section_title
;
Structure prediction by ZEFSAII (Michael W. Deem and Ramdas Pophale) SiO2 
 PCOD9319634
Probable space group: C 2 2 21
;
_chemical_formula_sum "Si O2"
_cell_formula_units_Z 52
_cell_length_a 18.746938
_cell_length_b 6.772348
_cell_length_c 19.692946
_cell_angle_alpha 90.000000
_cell_angle_beta 90.000000
_cell_angle_gamma 90.000000
_cell_volume 2500.231944
_symmetry_space_group_name_H-M "C 2 2 21"
_symmetry_group_IT_number 20
_symmetry_cell_setting 'orthorhombic'
loop_
_space_group_symop_operation_xyz
x,y,z
-x,-y,1/2+z
x,-y,-z
-x,y,1/2-z
1/2+x,1/2+y,z
1/2-x,1/2-y,1/2+z
1/2+x,1/2-y,-z
1/2-x,1/2+y,1/2-z
loop_
_atom_site_type_symbol
_atom_site_label
_atom_site_fract_x
_atom_site_fract_y
_atom_site_fract_z
Si Si1 0.450213 0.152283 0.149949
Si Si2 0.301448 0.680741 0.611626
Si Si3 0.605847 0.943470 0.798495
Si Si4 0.049142 0.055293 0.424601
Si Si5 0.154055 0.604972 0.568673
Si Si6 0.899235 0.208489 0.388212
Si Si7 0.161215 0.500000 0.000000
O O1 0.413640 0.095953 0.221012
O O2 0.534508 0.120481 0.159661
O O3 0.435816 0.371192 0.123685
O O4 0.413710 0.017384 0.093949
O O5 0.331113 0.805673 0.674592
O O6 0.221070 0.604862 0.618630
O O7 0.354067 0.492802 0.601957
O O8 0.300182 0.837881 0.548481
O O9 0.619615 0.170239 0.819706
O O10 0.120684 0.178788 0.437488
O O11 0.983019 0.164094 0.389088
O O12 0.022111 0.000000 0.500000
O O13 0.179360 0.500000 0.500000
O O14 0.882613 0.361539 0.448755
#
# Coordination Sequence:
#
# PCOD9319634 Si02
#       7
#     8   8   8   8   8   8   4
#     4  11  24  47  68 100 135 175 234 285 335 407
#     4  11  24  44  67 101 136 179 222 272 344 406
#     4  10  24  46  70  96 135 180 230 282 333 408
#     4  12  24  39  72  98 133 178 226 281 348 400
#     4  12  26  43  66 102 139 175 219 286 345 400
#     4  11  22  40  69  99 128 177 227 275 333 401
#     4  10  22  36  68  98 138 166 222 278 326 398
#
# _framework density 20.798072000000001
#
# number of rings (size 3 to 8) (size 9 to 14) (size 15 to 20)
#    0.000    0.923    4.615    2.308    4.308    3.692 
#    5.538    0.000    0.000    0.000    0.000    0.000 
#    0.000    0.000    0.000    0.000    0.000    0.000 
#
# Total GULP energy -145175.408112 kJ/mol
# GULP energy per Si atom -5583.669543 kJ/mol
# Density = 2.075073 g / cm^3
# Si number density = 20.798072 Si / 1000 Ang^3
#
#
#
# Elastic Constant Matrix: (Units=GPa)
#
#
# Indices 1 2 3 4 5 6 
#
# 1 59.8513 17.9560 -18.6541 0.0000 0.0000 0.0000
# 2 17.9560 112.8868 8.5654 0.0000 0.0000 0.0000
# 3 -18.6541 8.5654 24.1693 0.0000 0.0000 0.0000
# 4 0.0000 0.0000 0.0000 24.5976 0.0000 0.0000
# 5 0.0000 0.0000 0.0000 0.0000 21.6924 0.0000
# 6 0.0000 0.0000 0.0000 0.0000 0.0000 28.9449
#
#
#
# Elastic Compliance Matrix: (Units=1/GPa)
#
#
# Indices 1 2 3 4 5 6 
#
# 1 0.025025 -0.005597 0.021298 0.000000 0.000000 0.000000
# 2 -0.005597 0.010355 -0.007989 0.000000 0.000000 0.000000
# 3 0.021298 -0.007989 0.060644 0.000000 0.000000 0.000000
# 4 0.000000 0.000000 0.000000 0.040654 0.000000 0.000000
# 5 0.000000 0.000000 0.000000 0.000000 0.046099 0.000000
# 6 0.000000 0.000000 0.000000 0.000000 0.000000 0.034548
#
#
# Mechanical properties :
#
#
# Convention : Reuss Voigt Hill
#
# Bulk Modulus (GPa) = 8.97270 23.62686 16.29978
# Shear Modulus (GPa) = 20.91602 27.64965 24.28283
#
# Velocity S-wave (km/s) = 3.17467 3.65010 3.42065
# Velocity P-wave (km/s) = 4.21445 5.39899 4.84307
#
# Compressibility (1/GPa) = 0.11144922
#
# Stress axis : x y z
#
# Youngs Moduli (GPa) = 39.95970 96.57338 16.48958
#
# Poissons Ratio (x) = 0.54048 -0.35120
# Poissons Ratio (y) = 0.22364 0.13174
# Poissons Ratio (z) = -0.85107 0.77154
#
# Static dielectric constant tensor:
#      x y z
#    x 1.735590 0.000000 0.000000 
#    y 0.000000 1.900520 0.000000 
#    z 0.000000 0.000000 1.723680 
# 
# From -- ./inp_files/27896.got.cif
#   From: 2010.05.17/outbox.cif.g08.bks.cpg/sg20_14_cif.got.tgz:27896.got - 2010.06.03 22:52:26.
