data_PCOD9319236
_publ_section_title
;
Structure prediction by ZEFSAII (Michael W. Deem and Ramdas Pophale) SiO2 
 PCOD9319236
Probable space group: C 2 2 21
;
_chemical_formula_sum "Si O2"
_cell_formula_units_Z 36
_cell_length_a 5.280758
_cell_length_b 12.892409
_cell_length_c 21.485498
_cell_angle_alpha 90.000000
_cell_angle_beta 90.000000
_cell_angle_gamma 90.000000
_cell_volume 1462.769057
_symmetry_space_group_name_H-M "C 2 2 21"
_symmetry_group_IT_number 20
_symmetry_cell_setting 'orthorhombic'
loop_
_space_group_symop_operation_xyz
x,y,z
-x,-y,1/2+z
x,-y,-z
-x,y,1/2-z
1/2+x,1/2+y,z
1/2-x,1/2-y,1/2+z
1/2+x,1/2-y,-z
1/2-x,1/2+y,1/2-z
loop_
_atom_site_type_symbol
_atom_site_label
_atom_site_fract_x
_atom_site_fract_y
_atom_site_fract_z
Si Si1 0.395730 0.021565 0.688599
Si Si2 0.000000 0.859491 0.750000
Si Si3 0.098998 0.015292 0.567673
Si Si4 0.753841 0.857414 0.632137
Si Si5 0.057752 0.226903 0.961393
O O1 0.500000 0.080670 0.750000
O O2 0.202965 0.934831 0.716294
O O3 0.631971 0.959664 0.661433
O O4 0.261856 0.059891 0.625451
O O5 0.127094 0.799969 0.807994
O O6 0.899128 0.107073 0.555885
O O7 0.231329 0.000000 0.500000
O O8 0.965360 0.908022 0.587572
O O9 0.534528 0.794748 0.597469
O O10 0.805810 0.235063 0.003762
#
# Coordination Sequence:
#
# PCOD9319236 Si02
#       5
#     8   4   8   8   8
#     4   9  19  38  68  92 132 176 230 281 353 414
#     4   8  18  38  64  94 122 178 228 286 342 418
#     4  11  22  40  65  98 135 182 230 290 351 414
#     4  10  21  40  67  94 133 181 230 285 355 419
#     4  12  27  44  66 103 144 180 235 292 349 422
#
# _framework density 24.610855000000001
#
# number of rings (size 3 to 8) (size 9 to 14) (size 15 to 20)
#    0.000    1.778    2.222    1.333    6.222    0.889 
#    2.000    0.000   39.111    0.000    0.000    0.000 
#    0.000    0.000    0.000    0.000    0.000    0.000 
#
# Total GULP energy -100372.807933 kJ/mol
# GULP energy per Si atom -5576.267107 kJ/mol
# Density = 2.455484 g / cm^3
# Si number density = 24.610855 Si / 1000 Ang^3
#
#
#
# Elastic Constant Matrix: (Units=GPa)
#
#
# Indices 1 2 3 4 5 6 
#
# 1 93.8970 -1.2185 45.4763 0.0000 0.0000 0.0000
# 2 -1.2185 50.5288 20.5349 0.0000 0.0000 0.0000
# 3 45.4763 20.5349 180.0382 0.0000 0.0000 0.0000
# 4 0.0000 0.0000 0.0000 25.9044 0.0000 0.0000
# 5 0.0000 0.0000 0.0000 0.0000 53.5433 0.0000
# 6 0.0000 0.0000 0.0000 0.0000 0.0000 1.5765
#
#
#
# Elastic Compliance Matrix: (Units=1/GPa)
#
#
# Indices 1 2 3 4 5 6 
#
# 1 0.012261 0.001630 -0.003283 0.000000 0.000000 0.000000
# 2 0.001630 0.020969 -0.002803 0.000000 0.000000 0.000000
# 3 -0.003283 -0.002803 0.006703 0.000000 0.000000 0.000000
# 4 0.000000 0.000000 0.000000 0.038603 0.000000 0.000000
# 5 0.000000 0.000000 0.000000 0.000000 0.018676 0.000000
# 6 0.000000 0.000000 0.000000 0.000000 0.000000 0.634314
#
#
# Mechanical properties :
#
#
# Convention : Reuss Voigt Hill
#
# Bulk Modulus (GPa) = 32.23642 50.44993 41.34318
# Shear Modulus (GPa) = 6.65973 33.51625 20.08799
#
# Velocity S-wave (km/s) = 1.64678 3.69433 2.86006
# Velocity P-wave (km/s) = 4.09179 6.22422 5.26705
#
# Compressibility (1/GPa) = 0.03102081
#
# Stress axis : x y z
#
# Youngs Moduli (GPa) = 81.55850 47.68870 149.17820
#
# Poissons Ratio (x) = -0.07773 0.48975
# Poissons Ratio (y) = -0.13293 0.41821
# Poissons Ratio (z) = 0.26775 0.13369
#
# Static dielectric constant tensor:
#      x y z
#    x 2.000520 0.000000 0.000000 
#    y 0.000000 1.948980 0.000000 
#    z 0.000000 0.000000 2.175810 
# 
# From -- ./inp_files/25903.got.cif
#   From: 2010.05.17/outbox.cif.g08.bks.cpg/sg20_13_cif.got.tgz:25903.got - 2010.06.03 22:52:26.
