data_PCOD9319939
_publ_section_title
;
Structure prediction by ZEFSAII (Michael W. Deem and Ramdas Pophale) SiO2 
 PCOD9319939
Probable space group: C 2 2 21
;
_chemical_formula_sum "Si O2"
_cell_formula_units_Z 56
_cell_length_a 12.914773
_cell_length_b 13.056144
_cell_length_c 13.867089
_cell_angle_alpha 90.000000
_cell_angle_beta 90.000000
_cell_angle_gamma 90.000000
_cell_volume 2338.228832
_symmetry_space_group_name_H-M "C 2 2 21"
_symmetry_group_IT_number 20
_symmetry_cell_setting 'orthorhombic'
loop_
_space_group_symop_operation_xyz
x,y,z
-x,-y,1/2+z
x,-y,-z
-x,y,1/2-z
1/2+x,1/2+y,z
1/2-x,1/2-y,1/2+z
1/2+x,1/2-y,-z
1/2-x,1/2+y,1/2-z
loop_
_atom_site_type_symbol
_atom_site_label
_atom_site_fract_x
_atom_site_fract_y
_atom_site_fract_z
Si Si1 0.510200 0.782851 0.543245
Si Si2 0.918277 0.077065 0.582586
Si Si3 0.619963 0.077216 0.759866
Si Si4 0.810256 0.066409 0.274282
Si Si5 0.184768 0.611708 0.978076
Si Si6 0.263574 0.826365 0.956968
Si Si7 0.919008 0.780750 0.837078
O O1 0.484900 0.679377 0.602715
O O2 0.412117 0.857882 0.545712
O O3 0.615012 0.847327 0.556313
O O4 0.521498 0.734785 0.435972
O O5 0.808526 0.114709 0.533908
O O6 0.962670 0.000000 0.500000
O O7 0.890777 0.012712 0.677581
O O8 0.500000 0.046726 0.750000
O O9 0.640866 0.109644 0.869490
O O10 0.637130 0.173804 0.688500
O O11 0.702348 0.990702 0.737714
O O12 0.791463 0.152539 0.355489
O O13 0.847233 0.120933 0.177238
O O14 0.261599 0.706769 0.983427
O O15 0.226369 0.500000 0.000000
O O16 0.000000 0.792608 0.750000
#
# Coordination Sequence:
#
# PCOD9319939 Si02
#       7
#     8   8   8   8   8   8   8
#     4  11  22  39  66  92 126 166 213 267 322 382
#     4   9  20  39  62  92 120 162 216 254 306 390
#     4  11  23  42  66  94 129 169 220 258 320 391
#     4  11  23  42  66  92 128 170 213 266 314 390
#     4  11  24  41  63  96 129 163 219 268 313 395
#     4  10  22  41  63  93 130 165 209 266 329 375
#     4  11  20  42  66  88 126 175 209 259 327 388
#
# _framework density 23.949750000000002
#
# number of rings (size 3 to 8) (size 9 to 14) (size 15 to 20)
#    0.000    1.429    4.286    2.571    4.000    1.143 
#    2.571    0.000    0.000    0.000    0.000    0.000 
#    0.000    0.000    0.000    0.000    0.000    0.000 
#
# Total GULP energy -156604.328509 kJ/mol
# GULP energy per Si atom -5593.011732 kJ/mol
# Density = 2.389524 g / cm^3
# Si number density = 23.949750 Si / 1000 Ang^3
#
#
#
# Elastic Constant Matrix: (Units=GPa)
#
#
# Indices 1 2 3 4 5 6 
#
# 1 53.5910 8.4970 -5.4649 0.0000 0.0000 0.0000
# 2 8.4970 122.5227 11.5408 0.0000 0.0000 0.0000
# 3 -5.4649 11.5408 43.3562 0.0000 0.0000 0.0000
# 4 0.0000 0.0000 0.0000 24.7487 0.0000 0.0000
# 5 0.0000 0.0000 0.0000 0.0000 21.0412 0.0000
# 6 0.0000 0.0000 0.0000 0.0000 0.0000 37.0443
#
#
#
# Elastic Compliance Matrix: (Units=1/GPa)
#
#
# Indices 1 2 3 4 5 6 
#
# 1 0.019204 -0.001600 0.002846 0.000000 0.000000 0.000000
# 2 -0.001600 0.008505 -0.002466 0.000000 0.000000 0.000000
# 3 0.002846 -0.002466 0.024080 0.000000 0.000000 0.000000
# 4 0.000000 0.000000 0.000000 0.040406 0.000000 0.000000
# 5 0.000000 0.000000 0.000000 0.000000 0.047526 0.000000
# 6 0.000000 0.000000 0.000000 0.000000 0.000000 0.026995
#
#
# Mechanical properties :
#
#
# Convention : Reuss Voigt Hill
#
# Bulk Modulus (GPa) = 20.26323 27.62397 23.94360
# Shear Modulus (GPa) = 26.93918 30.22666 28.58292
#
# Velocity S-wave (km/s) = 3.35747 3.55644 3.45839
# Velocity P-wave (km/s) = 4.84864 5.33137 5.09572
#
# Compressibility (1/GPa) = 0.04935047
#
# Stress axis : x y z
#
# Youngs Moduli (GPa) = 52.07309 117.57871 41.52858
#
# Poissons Ratio (x) = 0.18811 -0.11821
# Poissons Ratio (y) = 0.08331 0.10239
# Poissons Ratio (z) = -0.14822 0.28990
#
# Static dielectric constant tensor:
#      x y z
#    x 1.935690 0.000000 0.000000 
#    y 0.000000 1.936040 0.000000 
#    z 0.000000 0.000000 1.915340 
# 
# From -- ./inp_files/20042.got.cif
#   From: 2010.05.17/outbox.cif.g08.bks.cpg/sg20_11_cif.got.tgz:20042.got - 2010.06.03 22:52:26.
