data_PCOD9319297
_publ_section_title
;
Structure prediction by ZEFSAII (Michael W. Deem and Ramdas Pophale) SiO2 
 PCOD9319297
Probable space group: C 2 2 21
;
_chemical_formula_sum "Si O2"
_cell_formula_units_Z 48
_cell_length_a 8.006883
_cell_length_b 15.657356
_cell_length_c 18.302339
_cell_angle_alpha 90.000000
_cell_angle_beta 90.000000
_cell_angle_gamma 90.000000
_cell_volume 2294.502334
_symmetry_space_group_name_H-M "C 2 2 21"
_symmetry_group_IT_number 20
_symmetry_cell_setting 'orthorhombic'
loop_
_space_group_symop_operation_xyz
x,y,z
-x,-y,1/2+z
x,-y,-z
-x,y,1/2-z
1/2+x,1/2+y,z
1/2-x,1/2-y,1/2+z
1/2+x,1/2-y,-z
1/2-x,1/2+y,1/2-z
loop_
_atom_site_type_symbol
_atom_site_label
_atom_site_fract_x
_atom_site_fract_y
_atom_site_fract_z
Si Si1 0.951444 0.651930 0.166611
Si Si2 0.553730 0.625935 0.170788
Si Si3 0.090095 0.209956 0.945379
Si Si4 0.032522 0.538947 0.663656
Si Si5 0.973980 0.288740 0.093663
Si Si6 0.120730 0.026220 0.919683
O O1 0.751322 0.644000 0.164949
O O2 0.024020 0.557894 0.146462
O O3 0.000000 0.671319 0.250000
O O4 0.014410 0.723141 0.111374
O O5 0.500000 0.594180 0.250000
O O6 0.467893 0.716560 0.155822
O O7 0.515525 0.552967 0.111473
O O8 0.286479 0.198649 0.933513
O O9 0.022496 0.114478 0.931226
O O10 0.068631 0.246112 0.026307
O O11 0.228287 0.538824 0.638721
O O12 0.000000 0.550445 0.750000
O O13 0.958088 0.620616 0.621715
O O14 0.189426 0.000000 0.000000
#
# Coordination Sequence:
#
# PCOD9319297 Si02
#       6
#     8   8   8   8   8   8
#     4  10  22  41  61  92 126 160 211 260 317 376
#     4  11  22  40  66  90 124 169 208 259 319 381
#     4  11  23  39  64  93 124 172 211 263 317 385
#     4   9  21  38  64  90 123 167 210 257 320 381
#     4  11  22  39  61  91 128 165 216 256 324 375
#     4  10  21  41  64  90 128 170 211 261 322 378
#
# _framework density 20.919568999999999
#
# number of rings (size 3 to 8) (size 9 to 14) (size 15 to 20)
#    0.000    1.667    1.667    2.500    7.000    2.000 
#    0.000   15.000    0.000    0.000    0.000    0.000 
#    0.000    0.000    0.000    0.000    0.000    0.000 
#
# Total GULP energy -133942.093907 kJ/mol
# GULP energy per Si atom -5580.920579 kJ/mol
# Density = 2.087196 g / cm^3
# Si number density = 20.919569 Si / 1000 Ang^3
#
#
#
# Elastic Constant Matrix: (Units=GPa)
#
#
# Indices 1 2 3 4 5 6 
#
# 1 22.7819 6.7157 11.6415 0.0000 0.0000 0.0000
# 2 6.7157 140.8200 54.4983 0.0000 0.0000 0.0000
# 3 11.6415 54.4983 106.5589 0.0000 0.0000 0.0000
# 4 0.0000 0.0000 0.0000 39.9044 0.0000 0.0000
# 5 0.0000 0.0000 0.0000 0.0000 35.5237 0.0000
# 6 0.0000 0.0000 0.0000 0.0000 0.0000 19.8778
#
#
#
# Elastic Compliance Matrix: (Units=1/GPa)
#
#
# Indices 1 2 3 4 5 6 
#
# 1 0.046501 -0.000314 -0.004920 0.000000 0.000000 0.000000
# 2 -0.000314 0.008856 -0.004495 0.000000 0.000000 0.000000
# 3 -0.004920 -0.004495 0.012221 0.000000 0.000000 0.000000
# 4 0.000000 0.000000 0.000000 0.025060 0.000000 0.000000
# 5 0.000000 0.000000 0.000000 0.000000 0.028150 0.000000
# 6 0.000000 0.000000 0.000000 0.000000 0.000000 0.050307
#
#
# Mechanical properties :
#
#
# Convention : Reuss Voigt Hill
#
# Bulk Modulus (GPa) = 20.78101 46.20799 33.49450
# Shear Modulus (GPa) = 24.20229 32.21487 28.20858
#
# Velocity S-wave (km/s) = 3.40504 3.92846 3.67608
# Velocity P-wave (km/s) = 5.04127 6.53555 5.83643
#
# Compressibility (1/GPa) = 0.04812085
#
# Stress axis : x y z
#
# Youngs Moduli (GPa) = 21.50493 112.92046 81.82736
#
# Poissons Ratio (x) = 0.03541 0.40258
# Poissons Ratio (y) = 0.00674 0.36781
# Poissons Ratio (z) = 0.10580 0.50757
#
# Static dielectric constant tensor:
#      x y z
#    x 1.771700 0.000000 0.000000 
#    y 0.000000 1.824820 0.000000 
#    z 0.000000 0.000000 1.745500 
# 
# From -- ./inp_files/23452.got.cif
#   From: 2010.05.17/outbox.cif.g08.bks.cpg/sg20_12_cif.got.tgz:23452.got - 2010.06.03 22:52:26.
