data_PCOD9319214
_publ_section_title
;
Structure prediction by ZEFSAII (Michael W. Deem and Ramdas Pophale) SiO2 
 PCOD9319214
Probable space group: C 2 2 21
;
_chemical_formula_sum "Si O2"
_cell_formula_units_Z 40
_cell_length_a 26.160879
_cell_length_b 14.113726
_cell_length_c 5.064132
_cell_angle_alpha 90.000000
_cell_angle_beta 90.000000
_cell_angle_gamma 90.000000
_cell_volume 1869.816687
_symmetry_space_group_name_H-M "C 2 2 21"
_symmetry_group_IT_number 20
_symmetry_cell_setting 'orthorhombic'
loop_
_space_group_symop_operation_xyz
x,y,z
-x,-y,1/2+z
x,-y,-z
-x,y,1/2-z
1/2+x,1/2+y,z
1/2-x,1/2-y,1/2+z
1/2+x,1/2-y,-z
1/2-x,1/2+y,1/2-z
loop_
_atom_site_type_symbol
_atom_site_label
_atom_site_fract_x
_atom_site_fract_y
_atom_site_fract_z
Si Si1 0.401544 0.826431 0.732774
Si Si2 0.590700 0.705589 0.267037
Si Si3 0.199641 0.433374 0.744444
Si Si4 0.183310 0.066941 0.244949
Si Si5 0.966411 0.500000 0.500000
Si Si6 0.000000 0.936517 0.750000
O O1 0.415054 0.743679 0.528942
O O2 0.341529 0.851342 0.720978
O O3 0.432067 0.918023 0.631036
O O4 0.413400 0.791700 0.026935
O O5 0.645179 0.653594 0.285669
O O6 0.547320 0.629458 0.327850
O O7 0.183911 0.500000 0.500000
O O8 0.257993 0.401202 0.699571
O O9 0.198887 0.500000 0.000000
O O10 0.182282 0.000000 0.500000
O O11 0.167758 0.000000 0.000000
O O12 0.000000 0.464342 0.250000
O O13 0.985403 0.000000 0.500000
#
# Coordination Sequence:
#
# PCOD9319214 Si02
#       6
#     8   8   8   8   4   4
#     4  12  26  43  66  99 133 166 226 271 332 389
#     4  12  26  41  68 101 130 166 222 285 316 396
#     4  10  21  40  65  93 131 180 217 261 324 402
#     4  10  21  41  67  94 132 177 220 262 335 397
#     4  12  28  46  70  92 134 188 216 270 344 408
#     4  12  26  48  70  92 132 174 212 268 342 396
#
# _framework density 21.392469999999999
#
# number of rings (size 3 to 8) (size 9 to 14) (size 15 to 20)
#    0.000    0.800    1.000    6.000    5.600    1.600 
#    0.000    0.000    0.000    0.000    0.000    0.000 
#    0.000    0.000    0.000    0.000    0.000    0.000 
#
# Total GULP energy -111950.970167 kJ/mol
# GULP energy per Si atom -5597.548508 kJ/mol
# Density = 2.134378 g / cm^3
# Si number density = 21.392470 Si / 1000 Ang^3
#
#
#
# Elastic Constant Matrix: (Units=GPa)
#
#
# Indices 1 2 3 4 5 6 
#
# 1 80.2997 39.2906 5.4826 0.0000 0.0000 0.0000
# 2 39.2906 62.1364 6.8592 0.0000 0.0000 0.0000
# 3 5.4826 6.8592 106.3094 0.0000 0.0000 0.0000
# 4 0.0000 0.0000 0.0000 41.2984 0.0000 0.0000
# 5 0.0000 0.0000 0.0000 0.0000 34.2751 0.0000
# 6 0.0000 0.0000 0.0000 0.0000 0.0000 -18.5778
#
#
#
# Elastic Compliance Matrix: (Units=1/GPa)
#
#
# Indices 1 2 3 4 5 6 
#
# 1 0.018037 -0.011383 -0.000196 0.000000 0.000000 0.000000
# 2 -0.011383 0.023394 -0.000922 0.000000 0.000000 0.000000
# 3 -0.000196 -0.000922 0.009476 0.000000 0.000000 0.000000
# 4 0.000000 0.000000 0.000000 0.024214 0.000000 0.000000
# 5 0.000000 0.000000 0.000000 0.000000 0.029176 0.000000
# 6 0.000000 0.000000 0.000000 0.000000 0.000000 -0.053828
#
#
# Mechanical properties :
#
#
# Convention : Reuss Voigt Hill
#
# Bulk Modulus (GPa) = 38.60511 39.11223 38.85867
# Shear Modulus (GPa) = 59.44903 24.54001 41.99452
#
# Velocity S-wave (km/s) = 5.27731 3.39061 4.43544
# Velocity P-wave (km/s) = 7.43093 5.80096 6.66595
#
# Compressibility (1/GPa) = 0.02590331
#
# Stress axis : x y z
#
# Youngs Moduli (GPa) = 55.44273 42.74689 105.52853
#
# Poissons Ratio (x) = 0.48661 0.02065
# Poissons Ratio (y) = 0.63113 0.09733
# Poissons Ratio (z) = 0.01085 0.03943
#
# Static dielectric constant tensor:
#      x y z
#    x 1.779040 0.000000 0.000000 
#    y 0.000000 1.740120 0.000000 
#    z 0.000000 0.000000 1.669620 
# 
# From -- ./inp_files/4075.got.cif
#   From: 2010.05.17/outbox.cif.g08.bks.cpg/sg20_3_cif.got.tgz:4075.got - 2010.06.03 22:52:26.
