data_PCOD9319060
_publ_section_title
;
Structure prediction by ZEFSAII (Michael W. Deem and Ramdas Pophale) SiO2 
 PCOD9319060
Probable space group: C 2 2 21
;
_chemical_formula_sum "Si O2"
_cell_formula_units_Z 64
_cell_length_a 31.378212
_cell_length_b 12.081444
_cell_length_c 8.756569
_cell_angle_alpha 90.000000
_cell_angle_beta 90.000000
_cell_angle_gamma 90.000000
_cell_volume 3319.563741
_symmetry_space_group_name_H-M "C 2 2 21"
_symmetry_group_IT_number 20
_symmetry_cell_setting 'orthorhombic'
loop_
_space_group_symop_operation_xyz
x,y,z
-x,-y,1/2+z
x,-y,-z
-x,y,1/2-z
1/2+x,1/2+y,z
1/2-x,1/2-y,1/2+z
1/2+x,1/2-y,-z
1/2-x,1/2+y,1/2-z
loop_
_atom_site_type_symbol
_atom_site_label
_atom_site_fract_x
_atom_site_fract_y
_atom_site_fract_z
Si Si1 0.545072 0.754738 0.818194
Si Si2 0.372866 0.631030 0.817827
Si Si3 0.296519 0.772754 0.682613
Si Si4 0.296517 0.772734 0.317396
Si Si5 0.127134 0.868982 0.682189
Si Si6 0.045071 0.745271 0.818205
Si Si7 0.168247 0.500011 0.681108
Si Si8 0.924431 0.500005 0.681229
O O1 0.500000 0.717669 0.750000
O O2 0.585095 0.691555 0.745451
O O3 0.550902 0.886215 0.788124
O O4 0.545575 0.738333 0.999993
O O5 0.331280 0.684379 0.740822
O O6 0.375079 0.500007 0.787840
O O7 0.370262 0.648421 0.000009
O O8 0.295278 0.772256 0.500005
O O9 0.250001 0.750015 0.750010
O O10 0.311926 0.891235 0.743872
O O11 0.331278 0.684355 0.259200
O O12 0.311923 0.891208 0.256110
O O13 0.085095 0.808455 0.745473
O O14 0.050900 0.613793 0.788133
O O15 0.000000 0.782344 0.750000
O O16 0.175136 0.500000 0.500000
O O17 0.118271 0.500013 0.720016
O O18 0.912971 0.500000 0.500000
#
# Coordination Sequence:
#
# PCOD9319060 Si02
#       8
#     8   8   8   8   8   8   8   8
#     4  11  23  40  65  95 131 170 217 267 325 389
#     4  11  25  45  67  94 130 170 218 271 327 389
#     4  12  26  45  69  98 134 172 219 269 324 388
#     4  12  26  45  69  98 134 172 219 269 324 388
#     4  11  25  45  67  94 130 170 218 271 327 389
#     4  11  23  40  65  95 131 170 217 267 325 389
#     4  12  24  41  69 100 133 173 216 265 328 385
#     4  10  21  39  63  96 132 169 211 265 325 385
#
# _framework density 19.279641000000002
#
# number of rings (size 3 to 8) (size 9 to 14) (size 15 to 20)
#    0.000    0.750    2.500    5.250    1.750    3.500 
#    0.000    0.000    0.000    0.000    0.000    0.000 
#    0.000    0.000    0.000    0.000    0.000    0.000 
#
# Total GULP energy -179092.618277 kJ/mol
# GULP energy per Si atom -5596.644321 kJ/mol
# Density = 1.923576 g / cm^3
# Si number density = 19.279641 Si / 1000 Ang^3
#
#
#
# Elastic Constant Matrix: (Units=GPa)
#
#
# Indices 1 2 3 4 5 6 
#
# 1 179.4720 67.0816 97.2843 0.0000 0.0000 0.0000
# 2 67.0816 113.9267 88.0039 0.0000 0.0000 0.0000
# 3 97.2843 88.0039 143.5475 0.0000 0.0000 0.0000
# 4 0.0000 0.0000 0.0000 58.2850 0.0000 0.0000
# 5 0.0000 0.0000 0.0000 0.0000 41.6789 0.0000
# 6 0.0000 0.0000 0.0000 0.0000 0.0000 39.1378
#
#
#
# Elastic Compliance Matrix: (Units=1/GPa)
#
#
# Indices 1 2 3 4 5 6 
#
# 1 0.008880 -0.001102 -0.005343 0.000000 0.000000 0.000000
# 2 -0.001102 0.016810 -0.009559 0.000000 0.000000 0.000000
# 3 -0.005343 -0.009559 0.016448 0.000000 0.000000 0.000000
# 4 0.000000 0.000000 0.000000 0.017157 0.000000 0.000000
# 5 0.000000 0.000000 0.000000 0.000000 0.023993 0.000000
# 6 0.000000 0.000000 0.000000 0.000000 0.000000 0.025551
#
#
# Mechanical properties :
#
#
# Convention : Reuss Voigt Hill
#
# Bulk Modulus (GPa) = 98.70955 104.63178 101.67067
# Shear Modulus (GPa) = 34.66881 40.12545 37.39713
#
# Velocity S-wave (km/s) = 4.24513 4.56700 4.40900
# Velocity P-wave (km/s) = 8.67976 9.06634 8.87515
#
# Compressibility (1/GPa) = 0.01013073
#
# Stress axis : x y z
#
# Youngs Moduli (GPa) = 112.61799 59.48710 60.79948
#
# Poissons Ratio (x) = 0.06553 0.32482
# Poissons Ratio (y) = 0.12405 0.58120
# Poissons Ratio (z) = 0.60166 0.56866
#
# Static dielectric constant tensor:
#      x y z
#    x 1.640590 0.000000 0.000000 
#    y 0.000000 1.657280 0.000000 
#    z 0.000000 0.000000 1.644500 
# 
# From -- ./inp_files/11613.got.cif
#   From: 2010.05.17/outbox.cif.g08.bks.cpg/sg20_6_cif.got.tgz:11613.got - 2010.06.03 22:52:26.
