data_PCOD9319117
_publ_section_title
;
Structure prediction by ZEFSAII (Michael W. Deem and Ramdas Pophale) SiO2 
 PCOD9319117
Probable space group: C 2 2 21
;
_chemical_formula_sum "Si O2"
_cell_formula_units_Z 64
_cell_length_a 6.090444
_cell_length_b 18.011672
_cell_length_c 27.060906
_cell_angle_alpha 90.000000
_cell_angle_beta 90.000000
_cell_angle_gamma 90.000000
_cell_volume 2968.556483
_symmetry_space_group_name_H-M "C 2 2 21"
_symmetry_group_IT_number 20
_symmetry_cell_setting 'orthorhombic'
loop_
_space_group_symop_operation_xyz
x,y,z
-x,-y,1/2+z
x,-y,-z
-x,y,1/2-z
1/2+x,1/2+y,z
1/2-x,1/2-y,1/2+z
1/2+x,1/2-y,-z
1/2-x,1/2+y,1/2-z
loop_
_atom_site_type_symbol
_atom_site_label
_atom_site_fract_x
_atom_site_fract_y
_atom_site_fract_z
Si Si1 0.530300 0.541487 0.548549
Si Si2 0.855349 0.668543 0.524371
Si Si3 0.155034 0.747077 0.143525
Si Si4 0.836536 0.685829 0.060759
Si Si5 0.434762 0.131653 0.197957
Si Si6 0.530213 0.373333 0.860375
Si Si7 0.854240 0.393178 0.112901
Si Si8 0.177441 0.483048 0.869629
O O1 0.450564 0.500000 0.500000
O O2 0.639414 0.619220 0.532185
O O3 0.332347 0.557252 0.586355
O O4 0.732991 0.496847 0.574519
O O5 0.795059 0.755199 0.527423
O O6 0.981442 0.649478 0.474013
O O7 0.018620 0.650159 0.569374
O O8 0.358411 0.693061 0.131189
O O9 0.233354 0.831033 0.145131
O O10 0.966445 0.733959 0.102268
O O11 0.056864 0.710105 0.192505
O O12 0.675138 0.630394 0.089605
O O13 0.500000 0.097217 0.250000
O O14 0.181719 0.143229 0.186485
O O15 0.518205 0.080433 0.152229
O O16 0.405765 0.450025 0.848645
O O17 0.038916 0.442501 0.140141
#
# Coordination Sequence:
#
# PCOD9319117 Si02
#       8
#     8   8   8   8   8   8   8   8
#     4  11  26  39  57  86 131 182 228 271 315 395
#     4  11  24  35  57  88 123 171 226 267 322 375
#     4  10  21  39  67  93 125 166 209 271 334 392
#     4  11  22  36  60  91 126 167 223 278 324 377
#     4  10  23  44  74 103 125 159 218 280 348 411
#     4  10  22  40  65  96 127 161 215 273 334 394
#     4  11  22  43  61  89 133 183 219 268 328 393
#     4  10  24  41  63  92 130 177 215 266 335 397
#
# _framework density 21.559298999999999
#
# number of rings (size 3 to 8) (size 9 to 14) (size 15 to 20)
#    0.000    1.500    2.500    1.500    7.000    4.000 
#    0.000    0.000    5.500    0.000    0.000    0.000 
#    0.000    0.000    0.000    0.000    0.000    0.000 
#
# Total GULP energy -178426.688918 kJ/mol
# GULP energy per Si atom -5575.834029 kJ/mol
# Density = 2.151023 g / cm^3
# Si number density = 21.559299 Si / 1000 Ang^3
#
#
#
# Elastic Constant Matrix: (Units=GPa)
#
#
# Indices 1 2 3 4 5 6 
#
# 1 88.9050 37.6882 20.0331 0.0000 0.0000 0.0000
# 2 37.6882 92.7392 26.3368 0.0000 0.0000 0.0000
# 3 20.0331 26.3368 39.4780 0.0000 0.0000 0.0000
# 4 0.0000 0.0000 0.0000 13.3334 0.0000 0.0000
# 5 0.0000 0.0000 0.0000 0.0000 10.8609 0.0000
# 6 0.0000 0.0000 0.0000 0.0000 0.0000 41.4391
#
#
#
# Elastic Compliance Matrix: (Units=1/GPa)
#
#
# Indices 1 2 3 4 5 6 
#
# 1 0.014111 -0.004566 -0.004114 0.000000 0.000000 0.000000
# 2 -0.004566 0.014781 -0.007544 0.000000 0.000000 0.000000
# 3 -0.004114 -0.007544 0.032451 0.000000 0.000000 0.000000
# 4 0.000000 0.000000 0.000000 0.075000 0.000000 0.000000
# 5 0.000000 0.000000 0.000000 0.000000 0.092074 0.000000
# 6 0.000000 0.000000 0.000000 0.000000 0.000000 0.024132
#
#
# Mechanical properties :
#
#
# Convention : Reuss Voigt Hill
#
# Bulk Modulus (GPa) = 34.60872 43.24871 38.92871
# Shear Modulus (GPa) = 16.97061 22.26427 19.61744
#
# Velocity S-wave (km/s) = 2.80868 3.21705 3.01978
# Velocity P-wave (km/s) = 5.15809 5.82264 5.50041
#
# Compressibility (1/GPa) = 0.02889445
#
# Stress axis : x y z
#
# Youngs Moduli (GPa) = 70.86849 67.65537 30.81569
#
# Poissons Ratio (x) = 0.30891 0.12679
# Poissons Ratio (y) = 0.32358 0.23246
# Poissons Ratio (z) = 0.29158 0.51037
#
# Static dielectric constant tensor:
#      x y z
#    x 1.835590 0.000000 0.000000 
#    y 0.000000 1.834390 0.000000 
#    z 0.000000 0.000000 1.801110 
# 
# From -- ./inp_files/30849.got.cif
#   From: 2010.05.17/outbox.cif.g08.bks.cpg/sg20_16_cif.got.tgz:30849.got - 2010.06.03 22:52:26.
