data_PCOD9319074
_publ_section_title
;
Structure prediction by ZEFSAII (Michael W. Deem and Ramdas Pophale) SiO2 
 PCOD9319074
Probable space group: C 2 2 21
;
_chemical_formula_sum "Si O2"
_cell_formula_units_Z 32
_cell_length_a 12.262642
_cell_length_b 18.709953
_cell_length_c 5.209787
_cell_angle_alpha 90.000000
_cell_angle_beta 90.000000
_cell_angle_gamma 90.000000
_cell_volume 1195.299434
_symmetry_space_group_name_H-M "C 2 2 21"
_symmetry_group_IT_number 20
_symmetry_cell_setting 'orthorhombic'
loop_
_space_group_symop_operation_xyz
x,y,z
-x,-y,1/2+z
x,-y,-z
-x,y,1/2-z
1/2+x,1/2+y,z
1/2-x,1/2-y,1/2+z
1/2+x,1/2-y,-z
1/2-x,1/2+y,1/2-z
loop_
_atom_site_type_symbol
_atom_site_label
_atom_site_fract_x
_atom_site_fract_y
_atom_site_fract_z
Si Si1 0.415165 0.621856 0.936320
Si Si2 0.000000 0.449044 0.750000
Si Si3 0.741989 0.950877 0.748072
Si Si4 0.500000 0.247353 0.750000
Si Si5 0.773170 0.293782 0.315141
O O1 0.500000 0.582300 0.750000
O O2 0.308241 0.641916 0.770624
O O3 0.356626 0.589454 0.188196
O O4 0.472529 0.696327 0.023179
O O5 0.121611 0.412095 0.737198
O O6 0.999770 0.500000 0.500000
O O7 0.751729 0.000000 0.500000
O O8 0.733409 0.000000 0.000000
O O9 0.600097 0.195639 0.794474
O O10 0.752934 0.264150 0.598701
#
# Coordination Sequence:
#
# PCOD9319074 Si02
#       5
#     8   4   8   4   8
#     4  11  23  42  68 101 143 192 236 296 362 436
#     4   8  16  38  63  88 122 168 221 292 346 396
#     4  10  23  42  68  98 136 182 243 299 356 424
#     4  10  22  42  65  96 146 180 231 294 350 426
#     4  10  21  39  64  95 132 182 229 278 355 416
#
# _framework density 26.771535
#
# number of rings (size 3 to 8) (size 9 to 14) (size 15 to 20)
#    0.000    2.000    2.500    0.000    3.500    0.000 
#    2.250   17.500    0.000    0.000    0.000    0.000 
#    0.000    0.000    0.000    0.000    0.000    0.000 
#
# Total GULP energy -89374.146241 kJ/mol
# GULP energy per Si atom -5585.884140 kJ/mol
# Density = 2.671060 g / cm^3
# Si number density = 26.771535 Si / 1000 Ang^3
#
#
#
# Elastic Constant Matrix: (Units=GPa)
#
#
# Indices 1 2 3 4 5 6 
#
# 1 227.8646 51.7053 51.8988 0.0000 0.0000 0.0000
# 2 51.7053 41.6749 54.8191 0.0000 0.0000 0.0000
# 3 51.8988 54.8191 143.6254 0.0000 0.0000 0.0000
# 4 0.0000 0.0000 0.0000 42.2928 0.0000 0.0000
# 5 0.0000 0.0000 0.0000 0.0000 37.7794 0.0000
# 6 0.0000 0.0000 0.0000 0.0000 0.0000 23.3438
#
#
#
# Elastic Compliance Matrix: (Units=1/GPa)
#
#
# Indices 1 2 3 4 5 6 
#
# 1 0.006247 -0.009602 0.001408 0.000000 0.000000 0.000000
# 2 -0.009602 0.062948 -0.020556 0.000000 0.000000 0.000000
# 3 0.001408 -0.020556 0.014300 0.000000 0.000000 0.000000
# 4 0.000000 0.000000 0.000000 0.023645 0.000000 0.000000
# 5 0.000000 0.000000 0.000000 0.000000 0.026469 0.000000
# 6 0.000000 0.000000 0.000000 0.000000 0.000000 0.042838
#
#
# Mechanical properties :
#
#
# Convention : Reuss Voigt Hill
#
# Bulk Modulus (GPa) = 38.47142 81.11236 59.79189
# Shear Modulus (GPa) = 20.60904 37.66599 29.13751
#
# Velocity S-wave (km/s) = 2.77756 3.75499 3.30263
# Velocity P-wave (km/s) = 4.96869 7.01168 6.07666
#
# Compressibility (1/GPa) = 0.02599332
#
# Stress axis : x y z
#
# Youngs Moduli (GPa) = 160.08396 15.88620 69.93034
#
# Poissons Ratio (x) = 0.15253 -0.09843
# Poissons Ratio (y) = 1.53707 1.43752
# Poissons Ratio (z) = -0.22532 0.32656
#
# Static dielectric constant tensor:
#      x y z
#    x 2.211550 0.000000 0.000000 
#    y 0.000000 2.109960 0.000000 
#    z 0.000000 0.000000 2.114640 
# 
# From -- ./inp_files/1070.got.cif
#   From: 2010.05.17/outbox.cif.g08.bks.cpg/sg20_1_cif.got.tgz:1070.got - 2010.06.03 22:52:26.
