data_PCOD9319966
_publ_section_title
;
Structure prediction by ZEFSAII (Michael W. Deem and Ramdas Pophale) SiO2 
 PCOD9319966
Probable space group: C 2 2 21
;
_chemical_formula_sum "Si O2"
_cell_formula_units_Z 48
_cell_length_a 15.540562
_cell_length_b 5.035524
_cell_length_c 30.254468
_cell_angle_alpha 90.000000
_cell_angle_beta 90.000000
_cell_angle_gamma 90.000000
_cell_volume 2367.559549
_symmetry_space_group_name_H-M "C 2 2 21"
_symmetry_group_IT_number 20
_symmetry_cell_setting 'orthorhombic'
loop_
_space_group_symop_operation_xyz
x,y,z
-x,-y,1/2+z
x,-y,-z
-x,y,1/2-z
1/2+x,1/2+y,z
1/2-x,1/2-y,1/2+z
1/2+x,1/2-y,-z
1/2-x,1/2+y,1/2-z
loop_
_atom_site_type_symbol
_atom_site_label
_atom_site_fract_x
_atom_site_fract_y
_atom_site_fract_z
Si Si1 0.648112 0.598107 0.911341
Si Si2 0.232892 0.436517 0.777842
Si Si3 0.459927 0.846230 0.703708
Si Si4 0.498252 0.355740 0.851729
Si Si5 0.209749 0.593588 0.951654
Si Si6 0.696428 0.375883 0.628021
O O1 0.567704 0.481341 0.885251
O O2 0.637563 0.886384 0.933465
O O3 0.732309 0.643476 0.879951
O O4 0.675273 0.388529 0.948379
O O5 0.220250 0.708292 0.750663
O O6 0.140865 0.308356 0.788763
O O7 0.280020 0.494643 0.824113
O O8 0.500000 0.932387 0.750000
O O9 0.504831 0.578638 0.686719
O O10 0.469559 0.079318 0.668107
O O11 0.403557 0.307397 0.871079
O O12 0.283400 0.559068 0.914416
O O13 0.236413 0.500000 0.000000
#
# Coordination Sequence:
#
# PCOD9319966 Si02
#       6
#     8   8   8   8   8   8
#     4  10  22  41  66  92 127 167 216 261 338 394
#     4  12  24  39  61  91 127 171 221 265 324 393
#     4  12  24  40  59  93 131 173 229 278 328 392
#     4  12  23  41  64  92 132 172 219 275 335 394
#     4  10  22  43  70  95 129 168 218 271 341 398
#     4  10  25  39  68  92 129 172 214 267 333 392
#
# _framework density 20.274042000000001
#
# number of rings (size 3 to 8) (size 9 to 14) (size 15 to 20)
#    1.000    0.000    1.667    6.000    4.667    0.000 
#    0.000    1.667    0.000    0.000    0.000    0.000 
#    0.000    0.000    0.000    0.000    0.000    0.000 
#
# Total GULP energy -133902.044303 kJ/mol
# GULP energy per Si atom -5579.251846 kJ/mol
# Density = 2.022790 g / cm^3
# Si number density = 20.274042 Si / 1000 Ang^3
#
#
#
# Elastic Constant Matrix: (Units=GPa)
#
#
# Indices 1 2 3 4 5 6 
#
# 1 99.2558 -6.4889 21.6367 0.0000 0.0000 0.0000
# 2 -6.4889 63.3803 11.6640 0.0000 0.0000 0.0000
# 3 21.6367 11.6640 105.5506 0.0000 0.0000 0.0000
# 4 0.0000 0.0000 0.0000 22.6886 0.0000 0.0000
# 5 0.0000 0.0000 0.0000 0.0000 14.6846 0.0000
# 6 0.0000 0.0000 0.0000 0.0000 0.0000 162.7045
#
#
#
# Elastic Compliance Matrix: (Units=1/GPa)
#
#
# Indices 1 2 3 4 5 6 
#
# 1 0.010689 0.001529 -0.002360 0.000000 0.000000 0.000000
# 2 0.001529 0.016324 -0.002117 0.000000 0.000000 0.000000
# 3 -0.002360 -0.002117 0.010192 0.000000 0.000000 0.000000
# 4 0.000000 0.000000 0.000000 0.044075 0.000000 0.000000
# 5 0.000000 0.000000 0.000000 0.000000 0.068098 0.000000
# 6 0.000000 0.000000 0.000000 0.000000 0.000000 0.006146
#
#
# Mechanical properties :
#
#
# Convention : Reuss Voigt Hill
#
# Bulk Modulus (GPa) = 31.94086 35.75671 33.84879
# Shear Modulus (GPa) = 29.09378 56.10721 42.60049
#
# Velocity S-wave (km/s) = 3.79228 5.26635 4.58889
# Velocity P-wave (km/s) = 5.91303 7.39285 6.69396
#
# Compressibility (1/GPa) = 0.03130786
#
# Stress axis : x y z
#
# Youngs Moduli (GPa) = 93.55060 61.25978 98.11709
#
# Poissons Ratio (x) = -0.09365 0.23157
# Poissons Ratio (y) = -0.14301 0.20774
# Poissons Ratio (z) = 0.22079 0.12970
#
# Static dielectric constant tensor:
#      x y z
#    x 1.776420 0.000000 0.000000 
#    y 0.000000 1.722210 0.000000 
#    z 0.000000 0.000000 1.736950 
# 
# From -- ./inp_files/31254.got.cif
#   From: 2010.05.17/outbox.cif.g08.bks.cpg/sg20_16_cif.got.tgz:31254.got - 2010.06.03 22:52:26.
