data_PCOD9319184
_publ_section_title
;
Structure prediction by ZEFSAII (Michael W. Deem and Ramdas Pophale) SiO2 
 PCOD9319184
Probable space group: C 2 2 21
;
_chemical_formula_sum "Si O2"
_cell_formula_units_Z 64
_cell_length_a 12.580531
_cell_length_b 7.683770
_cell_length_c 27.736264
_cell_angle_alpha 90.000000
_cell_angle_beta 90.000000
_cell_angle_gamma 90.000000
_cell_volume 2681.151108
_symmetry_space_group_name_H-M "C 2 2 21"
_symmetry_group_IT_number 20
_symmetry_cell_setting 'orthorhombic'
loop_
_space_group_symop_operation_xyz
x,y,z
-x,-y,1/2+z
x,-y,-z
-x,y,1/2-z
1/2+x,1/2+y,z
1/2-x,1/2-y,1/2+z
1/2+x,1/2-y,-z
1/2-x,1/2+y,1/2-z
loop_
_atom_site_type_symbol
_atom_site_label
_atom_site_fract_x
_atom_site_fract_y
_atom_site_fract_z
Si Si1 0.534004 0.349522 0.825744
Si Si2 0.144982 0.902654 0.315026
Si Si3 0.237154 0.046027 0.410574
Si Si4 0.356834 0.917828 0.933859
Si Si5 0.677289 0.134716 0.653837
Si Si6 0.264762 0.396621 0.731049
Si Si7 0.370278 0.726594 0.429837
Si Si8 0.419753 0.280538 0.983475
O O1 0.476227 0.532478 0.814515
O O2 0.623891 0.312106 0.786527
O O3 0.591770 0.337194 0.877266
O O4 0.433371 0.221449 0.829831
O O5 0.183083 0.918854 0.370393
O O6 0.218047 0.041470 0.285197
O O7 0.170324 0.728682 0.285804
O O8 0.240309 0.229219 0.381031
O O9 0.164082 0.093535 0.456556
O O10 0.339808 0.933463 0.426387
O O11 0.357665 0.967739 0.878046
O O12 0.235728 0.870461 0.945343
O O13 0.393782 0.095618 0.958486
O O14 0.418020 0.760739 0.959788
O O15 0.747018 0.066953 0.697829
O O16 0.462866 0.679763 0.466211
#
# Coordination Sequence:
#
# PCOD9319184 Si02
#       8
#     8   8   8   8   8   8   8   8
#     4  11  22  42  66  95 132 175 222 276 332 402
#     4  11  22  40  66  97 133 176 224 275 334 401
#     4  10  21  40  63  97 127 174 225 268 340 409
#     4  10  21  40  65  92 129 171 219 279 338 399
#     4  10  21  44  65  96 135 171 226 280 333 416
#     4  12  24  44  68  97 139 180 221 285 340 398
#     4  12  21  43  70  91 133 182 215 281 350 392
#     4  10  23  42  62  93 134 167 227 288 327 416
#
# _framework density 23.870343999999999
#
# number of rings (size 3 to 8) (size 9 to 14) (size 15 to 20)
#    0.000    1.250    6.250    1.875    0.000    2.500 
#    2.250    7.500    0.000    0.000    0.000    0.000 
#    0.000    0.000    0.000    0.000    0.000    0.000 
#
# Total GULP energy -178723.957829 kJ/mol
# GULP energy per Si atom -5585.123682 kJ/mol
# Density = 2.381601 g / cm^3
# Si number density = 23.870344 Si / 1000 Ang^3
#
#
#
# Elastic Constant Matrix: (Units=GPa)
#
#
# Indices 1 2 3 4 5 6 
#
# 1 80.3384 9.1147 16.7601 0.0000 0.0000 0.0000
# 2 9.1147 89.9903 4.3448 0.0000 0.0000 0.0000
# 3 16.7601 4.3448 103.3148 0.0000 0.0000 0.0000
# 4 0.0000 0.0000 0.0000 44.0061 0.0000 0.0000
# 5 0.0000 0.0000 0.0000 0.0000 55.1404 0.0000
# 6 0.0000 0.0000 0.0000 0.0000 0.0000 53.1618
#
#
#
# Elastic Compliance Matrix: (Units=1/GPa)
#
#
# Indices 1 2 3 4 5 6 
#
# 1 0.013015 -0.001219 -0.002060 0.000000 0.000000 0.000000
# 2 -0.001219 0.011249 -0.000275 0.000000 0.000000 0.000000
# 3 -0.002060 -0.000275 0.010025 0.000000 0.000000 0.000000
# 4 0.000000 0.000000 0.000000 0.022724 0.000000 0.000000
# 5 0.000000 0.000000 0.000000 0.000000 0.018136 0.000000
# 6 0.000000 0.000000 0.000000 0.000000 0.000000 0.018811
#
#
# Mechanical properties :
#
#
# Convention : Reuss Voigt Hill
#
# Bulk Modulus (GPa) = 36.79068 37.12029 36.95548
# Shear Modulus (GPa) = 45.40153 46.68992 46.04572
#
# Velocity S-wave (km/s) = 4.36593 4.42744 4.39679
# Velocity P-wave (km/s) = 6.39228 6.45917 6.42582
#
# Compressibility (1/GPa) = 0.02718080
#
# Stress axis : x y z
#
# Youngs Moduli (GPa) = 76.83197 88.89636 99.75123
#
# Poissons Ratio (x) = 0.10835 0.20550
# Poissons Ratio (y) = 0.09364 0.02747
# Poissons Ratio (z) = 0.15829 0.02448
#
# Static dielectric constant tensor:
#      x y z
#    x 1.847130 0.000000 0.000000 
#    y 0.000000 2.029180 0.000000 
#    z 0.000000 0.000000 2.009700 
# 
# From -- ./inp_files/31187.got.cif
#   From: 2010.05.17/outbox.cif.g08.bks.cpg/sg20_16_cif.got.tgz:31187.got - 2010.06.03 22:52:26.
