data_PCOD9319898
_publ_section_title
;
Structure prediction by ZEFSAII (Michael W. Deem and Ramdas Pophale) SiO2 
 PCOD9319898
Probable space group: C 2 2 21
;
_chemical_formula_sum "Si O2"
_cell_formula_units_Z 40
_cell_length_a 20.338020
_cell_length_b 13.997536
_cell_length_c 5.935349
_cell_angle_alpha 90.000000
_cell_angle_beta 90.000000
_cell_angle_gamma 90.000000
_cell_volume 1689.688016
_symmetry_space_group_name_H-M "C 2 2 21"
_symmetry_group_IT_number 20
_symmetry_cell_setting 'orthorhombic'
loop_
_space_group_symop_operation_xyz
x,y,z
-x,-y,1/2+z
x,-y,-z
-x,y,1/2-z
1/2+x,1/2+y,z
1/2-x,1/2-y,1/2+z
1/2+x,1/2-y,-z
1/2-x,1/2+y,1/2-z
loop_
_atom_site_type_symbol
_atom_site_label
_atom_site_fract_x
_atom_site_fract_y
_atom_site_fract_z
Si Si1 0.432810 0.000000 0.500000
Si Si2 0.500000 0.645365 0.750000
Si Si3 0.194020 0.685078 0.295798
Si Si4 0.922468 0.701539 0.537183
Si Si5 0.405016 0.500000 0.000000
Si Si6 0.342067 0.322652 0.855636
Si Si7 0.137798 0.500000 0.500000
O O1 0.465369 0.104957 0.510279
O O2 0.399019 0.994238 0.245789
O O3 0.540018 0.714592 0.912273
O O4 0.549697 0.575886 0.623920
O O5 0.146908 0.671155 0.080148
O O6 0.271314 0.689641 0.257864
O O7 0.171077 0.786657 0.392595
O O8 0.178730 0.597796 0.466085
O O9 0.898623 0.751612 0.765716
O O10 0.361945 0.567291 0.160164
#
# Coordination Sequence:
#
# PCOD9319898 Si02
#       7
#     4   4   8   8   4   8   4
#     4  10  22  43  73 106 140 185 247 310 388 460
#     4  12  26  50  72 106 152 206 264 314 362 468
#     4  11  23  42  70 106 143 187 250 319 392 458
#     4  11  24  45  73 104 147 193 252 319 385 456
#     4  12  28  47  73 110 149 209 264 308 382 456
#     4  12  24  44  71 105 148 192 252 322 385 459
#     4  10  22  40  70 104 145 186 235 308 394 466
#
# _framework density 23.673006999999998
#
# number of rings (size 3 to 8) (size 9 to 14) (size 15 to 20)
#    0.000    0.800    6.000    1.200    0.000    6.400 
#    0.000    6.000    0.000    0.000    0.000    0.000 
#    0.000    0.000    0.000    0.000    0.000    0.000 
#
# Total GULP energy -111579.084847 kJ/mol
# GULP energy per Si atom -5578.954242 kJ/mol
# Density = 2.361913 g / cm^3
# Si number density = 23.673007 Si / 1000 Ang^3
#
#
#
# Elastic Constant Matrix: (Units=GPa)
#
#
# Indices 1 2 3 4 5 6 
#
# 1 78.9848 36.5718 28.2945 0.0000 0.0000 0.0000
# 2 36.5718 175.7604 19.0348 0.0000 0.0000 0.0000
# 3 28.2945 19.0348 77.9354 0.0000 0.0000 0.0000
# 4 0.0000 0.0000 0.0000 42.5945 0.0000 0.0000
# 5 0.0000 0.0000 0.0000 0.0000 37.4527 0.0000
# 6 0.0000 0.0000 0.0000 0.0000 0.0000 9.9169
#
#
#
# Elastic Compliance Matrix: (Units=1/GPa)
#
#
# Indices 1 2 3 4 5 6 
#
# 1 0.015730 -0.002727 -0.005045 0.000000 0.000000 0.000000
# 2 -0.002727 0.006317 -0.000553 0.000000 0.000000 0.000000
# 3 -0.005045 -0.000553 0.014798 0.000000 0.000000 0.000000
# 4 0.000000 0.000000 0.000000 0.023477 0.000000 0.000000
# 5 0.000000 0.000000 0.000000 0.000000 0.026700 0.000000
# 6 0.000000 0.000000 0.000000 0.000000 0.000000 0.100838
#
#
# Mechanical properties :
#
#
# Convention : Reuss Voigt Hill
#
# Bulk Modulus (GPa) = 49.51518 55.60921 52.56220
# Shear Modulus (GPa) = 23.66954 34.57810 29.12382
#
# Velocity S-wave (km/s) = 3.16548 3.82600 3.51130
# Velocity P-wave (km/s) = 5.85850 6.56195 6.22018
#
# Compressibility (1/GPa) = 0.02019583
#
# Stress axis : x y z
#
# Youngs Moduli (GPa) = 63.57088 158.30742 67.57782
#
# Poissons Ratio (x) = 0.43167 0.34093
# Poissons Ratio (y) = 0.17334 0.03736
# Poissons Ratio (z) = 0.32071 0.08752
#
# Static dielectric constant tensor:
#      x y z
#    x 1.966750 0.000000 0.000000 
#    y 0.000000 1.895030 0.000000 
#    z 0.000000 0.000000 2.012100 
# 
# From -- ./inp_files/3687.got.cif
#   From: 2010.05.17/outbox.cif.g08.bks.cpg/sg20_2_cif.got.tgz:3687.got - 2010.06.03 22:52:26.
