data_PCOD9319345
_publ_section_title
;
Structure prediction by ZEFSAII (Michael W. Deem and Ramdas Pophale) SiO2 
 PCOD9319345
Probable space group: C 2 2 21
;
_chemical_formula_sum "Si O2"
_cell_formula_units_Z 64
_cell_length_a 11.227660
_cell_length_b 17.315078
_cell_length_c 14.068105
_cell_angle_alpha 90.000000
_cell_angle_beta 90.000000
_cell_angle_gamma 90.000000
_cell_volume 2734.949465
_symmetry_space_group_name_H-M "C 2 2 21"
_symmetry_group_IT_number 20
_symmetry_cell_setting 'orthorhombic'
loop_
_space_group_symop_operation_xyz
x,y,z
-x,-y,1/2+z
x,-y,-z
-x,y,1/2-z
1/2+x,1/2+y,z
1/2-x,1/2-y,1/2+z
1/2+x,1/2-y,-z
1/2-x,1/2+y,1/2-z
loop_
_atom_site_type_symbol
_atom_site_label
_atom_site_fract_x
_atom_site_fract_y
_atom_site_fract_z
Si Si1 0.900504 0.581530 0.040289
Si Si2 0.301323 0.696280 0.235135
Si Si3 0.233797 0.825781 0.107657
Si Si4 0.858976 0.442196 0.751698
Si Si5 0.532363 0.428491 0.066999
Si Si6 0.386938 0.180912 0.503822
Si Si7 0.019928 0.812581 0.895722
Si Si8 0.733976 0.549167 0.597450
O O1 0.818849 0.627828 0.965164
O O2 0.830606 0.558337 0.135766
O O3 0.943040 0.500000 0.000000
O O4 0.021017 0.630483 0.058285
O O5 0.356882 0.681882 0.338532
O O6 0.188176 0.642265 0.221319
O O7 0.281748 0.784784 0.203325
O O8 0.182063 0.749788 0.051159
O O9 0.407584 0.667201 0.167694
O O10 0.132619 0.889048 0.131087
O O11 0.000000 0.452815 0.750000
O O12 0.798085 0.505402 0.684065
O O13 0.407342 0.445172 0.117029
O O14 0.571452 0.500000 0.000000
O O15 0.509018 0.362755 0.988687
O O16 0.477720 0.223725 0.575248
O O17 0.296964 0.128705 0.564941
O O18 0.742349 0.500000 0.500000
#
# Coordination Sequence:
#
# PCOD9319345 Si02
#       8
#     8   8   8   8   8   8   8   8
#     4  12  26  46  73 102 147 199 249 315 382 457
#     4  11  22  43  66 102 141 191 248 318 376 455
#     4  11  23  41  71 101 146 190 254 306 385 458
#     4  12  25  44  72 111 151 197 249 310 385 462
#     4  10  21  41  69 105 138 191 245 302 382 461
#     4  11  22  42  70  98 136 195 247 306 371 458
#     4  10  22  41  71 101 139 189 252 312 378 444
#     4  11  23  42  72 104 144 191 248 307 375 459
#
# _framework density 23.400797000000001
#
# number of rings (size 3 to 8) (size 9 to 14) (size 15 to 20)
#    0.000    1.000    1.250    7.500    1.750    1.000 
#    4.500    0.000    2.750    6.000    0.000    0.000 
#    0.000    0.000    0.000    0.000    0.000    0.000 
#
# Total GULP energy -178754.660378 kJ/mol
# GULP energy per Si atom -5586.083137 kJ/mol
# Density = 2.334754 g / cm^3
# Si number density = 23.400797 Si / 1000 Ang^3
#
#
#
# Elastic Constant Matrix: (Units=GPa)
#
#
# Indices 1 2 3 4 5 6 
#
# 1 116.3158 44.0691 36.9731 0.0000 0.0000 0.0000
# 2 44.0691 89.8180 2.6811 0.0000 0.0000 0.0000
# 3 36.9731 2.6811 46.2186 0.0000 0.0000 0.0000
# 4 0.0000 0.0000 0.0000 28.2747 0.0000 0.0000
# 5 0.0000 0.0000 0.0000 0.0000 29.4549 0.0000
# 6 0.0000 0.0000 0.0000 0.0000 0.0000 44.7377
#
#
#
# Elastic Compliance Matrix: (Units=1/GPa)
#
#
# Indices 1 2 3 4 5 6 
#
# 1 0.014895 -0.006965 -0.011512 0.000000 0.000000 0.000000
# 2 -0.006965 0.014409 0.004736 0.000000 0.000000 0.000000
# 3 -0.011512 0.004736 0.030570 0.000000 0.000000 0.000000
# 4 0.000000 0.000000 0.000000 0.035367 0.000000 0.000000
# 5 0.000000 0.000000 0.000000 0.000000 0.033950 0.000000
# 6 0.000000 0.000000 0.000000 0.000000 0.000000 0.022352
#
#
# Mechanical properties :
#
#
# Convention : Reuss Voigt Hill
#
# Bulk Modulus (GPa) = 30.87014 46.64435 38.75725
# Shear Modulus (GPa) = 26.34015 31.73541 29.03778
#
# Velocity S-wave (km/s) = 3.35865 3.68661 3.52645
# Velocity P-wave (km/s) = 5.31613 6.17232 5.76016
#
# Compressibility (1/GPa) = 0.03239376
#
# Stress axis : x y z
#
# Youngs Moduli (GPa) = 67.13571 69.39876 32.71135
#
# Poissons Ratio (x) = 0.48334 0.37656
# Poissons Ratio (y) = 0.46758 -0.15491
# Poissons Ratio (z) = 0.77284 -0.32864
#
# Static dielectric constant tensor:
#      x y z
#    x 1.927810 0.000000 0.000000 
#    y 0.000000 1.900880 0.000000 
#    z 0.000000 0.000000 1.973010 
# 
# From -- ./inp_files/24560.got.cif
#   From: 2010.05.17/outbox.cif.g08.bks.cpg/sg20_13_cif.got.tgz:24560.got - 2010.06.03 22:52:26.
