data_PCOD9319910
_publ_section_title
;
Structure prediction by ZEFSAII (Michael W. Deem and Ramdas Pophale) SiO2 
 PCOD9319910
Probable space group: C 2 2 21
;
_chemical_formula_sum "Si O2"
_cell_formula_units_Z 48
_cell_length_a 24.483337
_cell_length_b 4.978085
_cell_length_c 15.928715
_cell_angle_alpha 90.000000
_cell_angle_beta 90.000000
_cell_angle_gamma 90.000000
_cell_volume 1941.393897
_symmetry_space_group_name_H-M "C 2 2 21"
_symmetry_group_IT_number 20
_symmetry_cell_setting 'orthorhombic'
loop_
_space_group_symop_operation_xyz
x,y,z
-x,-y,1/2+z
x,-y,-z
-x,y,1/2-z
1/2+x,1/2+y,z
1/2-x,1/2-y,1/2+z
1/2+x,1/2-y,-z
1/2-x,1/2+y,1/2-z
loop_
_atom_site_type_symbol
_atom_site_label
_atom_site_fract_x
_atom_site_fract_y
_atom_site_fract_z
Si Si1 0.329072 0.387661 0.581741
Si Si2 0.258920 0.316398 0.197753
Si Si3 0.625785 0.959172 0.663683
Si Si4 0.000000 0.915224 0.750000
Si Si5 0.909770 0.282717 0.667810
Si Si6 0.432843 0.436180 0.904737
Si Si7 0.582452 0.000000 0.000000
O O1 0.299222 0.500000 0.500000
O O2 0.287704 0.198421 0.628721
O O3 0.355709 0.621184 0.638501
O O4 0.379407 0.222297 0.543751
O O5 0.264350 0.618821 0.229422
O O6 0.314385 0.173996 0.167962
O O7 0.607941 0.001277 0.762274
O O8 0.587495 0.725207 0.626882
O O9 0.616839 0.223192 0.607489
O O10 0.976432 0.804231 0.838797
O O11 0.949927 0.087712 0.715856
O O12 0.941869 0.370100 0.583377
O O13 0.450923 0.500000 0.000000
#
# Coordination Sequence:
#
# PCOD9319910 Si02
#       7
#     8   8   8   4   8   8   4
#     4  10  23  41  63 101 139 178 231 289 346 416
#     4  12  24  41  71 101 135 188 233 283 347 421
#     4  11  24  45  72 101 142 187 233 288 357 421
#     4  10  26  46  72 102 136 180 236 294 358 418
#     4  10  22  45  63 103 134 183 230 293 355 416
#     4  11  26  49  71 103 144 186 239 296 354 430
#     4  10  22  40  72  92 150 180 226 296 346 418
#
# _framework density 24.724504
#
# number of rings (size 3 to 8) (size 9 to 14) (size 15 to 20)
#    0.000    1.333    1.667    2.500    9.333    6.000 
#    7.500    0.000    0.000    0.000    0.000    0.000 
#    0.000    0.000    0.000    0.000    0.000    0.000 
#
# Total GULP energy -134057.857722 kJ/mol
# GULP energy per Si atom -5585.744072 kJ/mol
# Density = 2.466823 g / cm^3
# Si number density = 24.724504 Si / 1000 Ang^3
#
#
#
# Elastic Constant Matrix: (Units=GPa)
#
#
# Indices 1 2 3 4 5 6 
#
# 1 57.3566 -5.3746 36.7231 0.0000 0.0000 0.0000
# 2 -5.3746 88.4716 37.1976 0.0000 0.0000 0.0000
# 3 36.7231 37.1976 144.5063 0.0000 0.0000 0.0000
# 4 0.0000 0.0000 0.0000 22.8614 0.0000 0.0000
# 5 0.0000 0.0000 0.0000 0.0000 18.5884 0.0000
# 6 0.0000 0.0000 0.0000 0.0000 0.0000 29.7237
#
#
#
# Elastic Compliance Matrix: (Units=1/GPa)
#
#
# Indices 1 2 3 4 5 6 
#
# 1 0.022106 0.004154 -0.006687 0.000000 0.000000 0.000000
# 2 0.004154 0.013456 -0.004519 0.000000 0.000000 0.000000
# 3 -0.006687 -0.004519 0.009783 0.000000 0.000000 0.000000
# 4 0.000000 0.000000 0.000000 0.043742 0.000000 0.000000
# 5 0.000000 0.000000 0.000000 0.000000 0.053797 0.000000
# 6 0.000000 0.000000 0.000000 0.000000 0.000000 0.033643
#
#
# Mechanical properties :
#
#
# Convention : Reuss Voigt Hill
#
# Bulk Modulus (GPa) = 32.01024 47.49184 39.75104
# Shear Modulus (GPa) = 24.87029 29.02061 26.94545
#
# Velocity S-wave (km/s) = 3.17503 3.42973 3.30484
# Velocity P-wave (km/s) = 5.13964 5.91052 5.53851
#
# Compressibility (1/GPa) = 0.03124000
#
# Stress axis : x y z
#
# Youngs Moduli (GPa) = 45.23756 74.31844 102.22006
#
# Poissons Ratio (x) = -0.30875 0.68355
# Poissons Ratio (y) = -0.18794 0.46197
# Poissons Ratio (z) = 0.30250 0.33587
#
# Static dielectric constant tensor:
#      x y z
#    x 1.995390 0.000000 0.000000 
#    y 0.000000 2.024670 0.000000 
#    z 0.000000 0.000000 2.077520 
# 
# From -- ./inp_files/22182.got.cif
#   From: 2010.05.17/outbox.cif.g08.bks.cpg/sg20_12_cif.got.tgz:22182.got - 2010.06.03 22:52:26.
