data_PCOD9319915
_publ_section_title
;
Structure prediction by ZEFSAII (Michael W. Deem and Ramdas Pophale) SiO2 
 PCOD9319915
Probable space group: C 2 2 21
;
_chemical_formula_sum "Si O2"
_cell_formula_units_Z 64
_cell_length_a 15.817481
_cell_length_b 5.172259
_cell_length_c 30.994347
_cell_angle_alpha 90.000000
_cell_angle_beta 90.000000
_cell_angle_gamma 90.000000
_cell_volume 2535.712878
_symmetry_space_group_name_H-M "C 2 2 21"
_symmetry_group_IT_number 20
_symmetry_cell_setting 'orthorhombic'
loop_
_space_group_symop_operation_xyz
x,y,z
-x,-y,1/2+z
x,-y,-z
-x,y,1/2-z
1/2+x,1/2+y,z
1/2-x,1/2-y,1/2+z
1/2+x,1/2-y,-z
1/2-x,1/2+y,1/2-z
loop_
_atom_site_type_symbol
_atom_site_label
_atom_site_fract_x
_atom_site_fract_y
_atom_site_fract_z
Si Si1 0.917079 0.141509 0.565667
Si Si2 0.602865 0.572138 0.566190
Si Si3 0.115517 0.849514 0.660672
Si Si4 0.052322 0.741153 0.789338
Si Si5 0.873208 0.371101 0.377879
Si Si6 0.253176 0.790659 0.035664
Si Si7 0.196724 0.056901 0.740892
Si Si8 0.293189 0.073259 0.117410
O O1 0.911751 0.379707 0.599158
O O2 0.848129 0.230048 0.529160
O O3 0.905156 0.875673 0.593717
O O4 0.011167 0.107849 0.546561
O O5 0.598673 0.419917 0.611521
O O6 0.679750 0.439350 0.540454
O O7 0.632642 0.845405 0.584966
O O8 0.167971 0.038184 0.691361
O O9 0.168167 0.581430 0.657394
O O10 0.025182 0.849461 0.683109
O O11 0.103482 0.602002 0.827300
O O12 0.116963 0.949725 0.768813
O O13 0.000000 0.604681 0.750000
O O14 0.772394 0.308794 0.377713
O O15 0.245037 0.878691 0.085666
O O16 0.281501 0.000000 0.000000
O O17 0.269448 0.839360 0.747580
#
# Coordination Sequence:
#
# PCOD9319915 Si02
#       8
#     8   8   8   8   8   8   8   8
#     4  11  24  44  73 100 138 187 238 283 354 426
#     4  11  22  42  72 100 136 185 235 290 355 432
#     4  10  22  42  63  98 131 183 233 297 345 439
#     4  10  22  42  63  95 139 179 233 303 362 415
#     4  11  22  43  67 100 135 185 239 293 344 432
#     4  10  24  47  67 107 146 182 228 298 360 437
#     4  11  26  44  63  94 134 181 236 292 368 422
#     4  10  22  40  73  96 137 186 238 287 364 427
#
# _framework density 25.239453000000001
#
# number of rings (size 3 to 8) (size 9 to 14) (size 15 to 20)
#    0.000    1.500    2.500    1.500    5.250    1.500 
#    4.500    2.500    0.000    0.000    0.000    0.000 
#    0.000    0.000    0.000    0.000    0.000    0.000 
#
# Total GULP energy -178404.699856 kJ/mol
# GULP energy per Si atom -5575.146871 kJ/mol
# Density = 2.518201 g / cm^3
# Si number density = 25.239453 Si / 1000 Ang^3
#
#
#
# Elastic Constant Matrix: (Units=GPa)
#
#
# Indices 1 2 3 4 5 6 
#
# 1 120.3170 10.9958 17.3400 0.0000 0.0000 0.0000
# 2 10.9958 95.1500 20.5857 0.0000 0.0000 0.0000
# 3 17.3400 20.5857 82.5485 0.0000 0.0000 0.0000
# 4 0.0000 0.0000 0.0000 26.4077 0.0000 0.0000
# 5 0.0000 0.0000 0.0000 0.0000 402.5890 0.0000
# 6 0.0000 0.0000 0.0000 0.0000 0.0000 16.4572
#
#
#
# Elastic Compliance Matrix: (Units=1/GPa)
#
#
# Indices 1 2 3 4 5 6 
#
# 1 0.008607 -0.000638 -0.001649 0.000000 0.000000 0.000000
# 2 -0.000638 0.011156 -0.002648 0.000000 0.000000 0.000000
# 3 -0.001649 -0.002648 0.013121 0.000000 0.000000 0.000000
# 4 0.000000 0.000000 0.000000 0.037868 0.000000 0.000000
# 5 0.000000 0.000000 0.000000 0.000000 0.002484 0.000000
# 6 0.000000 0.000000 0.000000 0.000000 0.000000 0.060764
#
#
# Mechanical properties :
#
#
# Convention : Reuss Voigt Hill
#
# Bulk Modulus (GPa) = 43.45088 43.98427 43.71757
# Shear Modulus (GPa) = 32.99431 105.69705 69.34568
#
# Velocity S-wave (km/s) = 3.61952 6.47832 5.24736
# Velocity P-wave (km/s) = 5.89243 8.56871 7.35335
#
# Compressibility (1/GPa) = 0.02301449
#
# Stress axis : x y z
#
# Youngs Moduli (GPa) = 116.18011 89.63493 76.21457
#
# Poissons Ratio (x) = 0.05718 0.12567
# Poissons Ratio (y) = 0.07412 0.20183
# Poissons Ratio (z) = 0.19158 0.23737
#
# Static dielectric constant tensor:
#      x y z
#    x 2.206210 0.000000 0.000000 
#    y 0.000000 2.174110 0.000000 
#    z 0.000000 0.000000 2.086690 
# 
# From -- ./inp_files/31368.got.cif
#   From: 2010.05.17/outbox.cif.g08.bks.cpg/sg20_16_cif.got.tgz:31368.got - 2010.06.03 22:52:26.
