data_PCOD9319139
_publ_section_title
;
Structure prediction by ZEFSAII (Michael W. Deem and Ramdas Pophale) SiO2 
 PCOD9319139
Probable space group: C 2 2 21
;
_chemical_formula_sum "Si O2"
_cell_formula_units_Z 60
_cell_length_a 8.359105
_cell_length_b 23.921975
_cell_length_c 13.553628
_cell_angle_alpha 90.000000
_cell_angle_beta 90.000000
_cell_angle_gamma 90.000000
_cell_volume 2710.268854
_symmetry_space_group_name_H-M "C 2 2 21"
_symmetry_group_IT_number 20
_symmetry_cell_setting 'orthorhombic'
loop_
_space_group_symop_operation_xyz
x,y,z
-x,-y,1/2+z
x,-y,-z
-x,y,1/2-z
1/2+x,1/2+y,z
1/2-x,1/2-y,1/2+z
1/2+x,1/2-y,-z
1/2-x,1/2+y,1/2-z
loop_
_atom_site_type_symbol
_atom_site_label
_atom_site_fract_x
_atom_site_fract_y
_atom_site_fract_z
Si Si1 0.145767 0.698760 0.070392
Si Si2 0.766592 0.000000 0.500000
Si Si3 0.834158 0.760850 0.119983
Si Si4 0.317248 0.166306 0.786425
Si Si5 0.188917 0.340714 0.732303
Si Si6 0.840555 0.551310 0.693045
Si Si7 0.665023 0.457498 0.787796
Si Si8 0.447217 0.890681 0.033262
O O1 0.256091 0.682870 0.163663
O O2 0.020028 0.748849 0.093723
O O3 0.245423 0.711603 0.972234
O O4 0.037610 0.643989 0.049448
O O5 0.848757 0.010671 0.393134
O O6 0.663268 0.056767 0.509161
O O7 0.798424 0.795102 0.221129
O O8 0.758956 0.700235 0.145151
O O9 0.500000 0.178321 0.750000
O O10 0.273008 0.103478 0.753662
O O11 0.348249 0.156122 0.902947
O O12 0.218926 0.404635 0.708842
O O13 0.000000 0.330664 0.750000
O O14 0.721724 0.500544 0.703044
O O15 0.000000 0.531033 0.750000
O O16 0.909445 0.579605 0.595429
O O17 0.500000 0.433106 0.750000
#
# Coordination Sequence:
#
# PCOD9319139 Si02
#       8
#     8   4   8   8   8   8   8   8
#     4  11  24  42  67 104 133 177 236 274 338 410
#     4  12  22  42  74 100 130 182 226 280 338 410
#     4  11  23  42  67  98 135 177 230 284 332 411
#     4   9  17  37  64  95 131 167 225 276 332 392
#     4  10  25  46  66  94 137 182 228 283 332 406
#     4   9  17  40  68  94 124 169 219 274 321 399
#     4  12  26  45  65 101 146 172 217 288 358 400
#     4  10  21  39  74 102 124 179 239 270 328 417
#
# _framework density 22.138024999999999
#
# number of rings (size 3 to 8) (size 9 to 14) (size 15 to 20)
#    0.000    1.867    5.333    2.000    3.733    1.600 
#    2.400    4.667    0.000    0.000    0.000    0.000 
#    0.000    0.000    0.000    0.000    0.000    0.000 
#
# Total GULP energy -167132.806964 kJ/mol
# GULP energy per Si atom -5571.093565 kJ/mol
# Density = 2.208764 g / cm^3
# Si number density = 22.138025 Si / 1000 Ang^3
#
#
#
# Elastic Constant Matrix: (Units=GPa)
#
#
# Indices 1 2 3 4 5 6 
#
# 1 22.4738 17.2896 12.6453 0.0000 0.0000 0.0000
# 2 17.2896 49.3852 22.9415 0.0000 0.0000 0.0000
# 3 12.6453 22.9415 121.1391 0.0000 0.0000 0.0000
# 4 0.0000 0.0000 0.0000 18.2061 0.0000 0.0000
# 5 0.0000 0.0000 0.0000 0.0000 17.9894 0.0000
# 6 0.0000 0.0000 0.0000 0.0000 0.0000 18.4971
#
#
#
# Elastic Compliance Matrix: (Units=1/GPa)
#
#
# Indices 1 2 3 4 5 6 
#
# 1 0.061621 -0.020378 -0.002573 0.000000 0.000000 0.000000
# 2 -0.020378 0.028941 -0.003354 0.000000 0.000000 0.000000
# 3 -0.002573 -0.003354 0.009159 0.000000 0.000000 0.000000
# 4 0.000000 0.000000 0.000000 0.054927 0.000000 0.000000
# 5 0.000000 0.000000 0.000000 0.000000 0.055588 0.000000
# 6 0.000000 0.000000 0.000000 0.000000 0.000000 0.054063
#
#
# Mechanical properties :
#
#
# Convention : Reuss Voigt Hill
#
# Bulk Modulus (GPa) = 21.22635 33.19455 27.21045
# Shear Modulus (GPa) = 15.03250 20.27996 17.65623
#
# Velocity S-wave (km/s) = 2.60866 3.02995 2.82716
# Velocity P-wave (km/s) = 4.32232 5.22185 4.79323
#
# Compressibility (1/GPa) = 0.04711126
#
# Stress axis : x y z
#
# Youngs Moduli (GPa) = 16.22814 34.55273 109.18551
#
# Poissons Ratio (x) = 0.70412 0.28096
# Poissons Ratio (y) = 0.33070 0.36618
# Poissons Ratio (z) = 0.04176 0.11588
#
# Static dielectric constant tensor:
#      x y z
#    x 1.897350 0.000000 0.000000 
#    y 0.000000 1.800420 0.000000 
#    z 0.000000 0.000000 1.934670 
# 
# From -- ./inp_files/19328.got.cif
#   From: 2010.05.17/outbox.cif.g08.bks.cpg/sg20_10_cif.got.tgz:19328.got - 2010.06.03 22:52:26.
