data_PCOD9319213
_publ_section_title
;
Structure prediction by ZEFSAII (Michael W. Deem and Ramdas Pophale) SiO2 
 PCOD9319213
Probable space group: C 2 2 21
;
_chemical_formula_sum "Si O2"
_cell_formula_units_Z 40
_cell_length_a 13.790580
_cell_length_b 8.782561
_cell_length_c 13.235691
_cell_angle_alpha 90.000000
_cell_angle_beta 90.000000
_cell_angle_gamma 90.000000
_cell_volume 1603.062026
_symmetry_space_group_name_H-M "C 2 2 21"
_symmetry_group_IT_number 20
_symmetry_cell_setting 'orthorhombic'
loop_
_space_group_symop_operation_xyz
x,y,z
-x,-y,1/2+z
x,-y,-z
-x,y,1/2-z
1/2+x,1/2+y,z
1/2-x,1/2-y,1/2+z
1/2+x,1/2-y,-z
1/2-x,1/2+y,1/2-z
loop_
_atom_site_type_symbol
_atom_site_label
_atom_site_fract_x
_atom_site_fract_y
_atom_site_fract_z
Si Si1 0.175231 0.809593 0.868094
Si Si2 0.000000 0.360748 0.750000
Si Si3 0.042415 0.877774 0.420884
Si Si4 0.500000 0.406950 0.750000
Si Si5 0.742226 0.335034 0.536958
Si Si6 0.789246 0.507672 0.269523
O O1 0.068507 0.813323 0.823066
O O2 0.188008 0.786612 0.986559
O O3 0.223298 0.657239 0.819271
O O4 0.230552 0.959856 0.832003
O O5 0.002178 0.260930 0.855135
O O6 0.901965 0.458135 0.750351
O O7 0.135099 0.820589 0.486672
O O8 0.994454 0.000000 0.500000
O O9 0.064225 0.987162 0.324046
O O10 0.779822 0.500000 0.500000
O O11 0.750053 0.359362 0.655131
#
# Coordination Sequence:
#
# PCOD9319213 Si02
#       6
#     8   4   8   4   8   8
#     4  11  22  41  62  93 127 170 212 272 326 388
#     4  11  23  40  66 100 126 178 224 276 322 402
#     4  10  21  40  65  93 130 170 215 269 333 392
#     4  11  23  36  66  96 128 168 228 264 320 398
#     4   9  19  39  62  87 123 170 204 263 331 381
#     4  11  24  42  67  91 135 171 222 271 335 389
#
# _framework density 24.952247
#
# number of rings (size 3 to 8) (size 9 to 14) (size 15 to 20)
#    0.000    1.600    2.000    4.200    5.600    0.000 
#    0.000    1.000    0.000    0.000    0.000    0.000 
#    0.000    0.000    0.000    0.000    0.000    0.000 
#
# Total GULP energy -111550.029847 kJ/mol
# GULP energy per Si atom -5577.501492 kJ/mol
# Density = 2.489545 g / cm^3
# Si number density = 24.952247 Si / 1000 Ang^3
#
#
#
# Elastic Constant Matrix: (Units=GPa)
#
#
# Indices 1 2 3 4 5 6 
#
# 1 87.4923 4.1415 6.7311 0.0000 0.0000 0.0000
# 2 4.1415 47.6024 13.5435 0.0000 0.0000 0.0000
# 3 6.7311 13.5435 103.7744 0.0000 0.0000 0.0000
# 4 0.0000 0.0000 0.0000 40.5522 0.0000 0.0000
# 5 0.0000 0.0000 0.0000 0.0000 38.5393 0.0000
# 6 0.0000 0.0000 0.0000 0.0000 0.0000 18.3294
#
#
#
# Elastic Compliance Matrix: (Units=1/GPa)
#
#
# Indices 1 2 3 4 5 6 
#
# 1 0.011518 -0.000820 -0.000640 0.000000 0.000000 0.000000
# 2 -0.000820 0.021876 -0.002802 0.000000 0.000000 0.000000
# 3 -0.000640 -0.002802 0.010043 0.000000 0.000000 0.000000
# 4 0.000000 0.000000 0.000000 0.024660 0.000000 0.000000
# 5 0.000000 0.000000 0.000000 0.000000 0.025948 0.000000
# 6 0.000000 0.000000 0.000000 0.000000 0.000000 0.054557
#
#
# Mechanical properties :
#
#
# Convention : Reuss Voigt Hill
#
# Bulk Modulus (GPa) = 28.64236 31.96678 30.30457
# Shear Modulus (GPa) = 29.62740 33.78103 31.70422
#
# Velocity S-wave (km/s) = 3.44955 3.68343 3.56841
# Velocity P-wave (km/s) = 5.23160 5.56140 5.39902
#
# Compressibility (1/GPa) = 0.03491333
#
# Stress axis : x y z
#
# Youngs Moduli (GPa) = 86.82339 45.71252 99.56723
#
# Poissons Ratio (x) = 0.03748 0.06373
# Poissons Ratio (y) = 0.07119 0.27897
# Poissons Ratio (z) = 0.05557 0.12808
#
# Static dielectric constant tensor:
#      x y z
#    x 2.034090 0.000000 0.000000 
#    y 0.000000 1.968930 0.000000 
#    z 0.000000 0.000000 2.051280 
# 
# From -- ./inp_files/20512.got.cif
#   From: 2010.05.17/outbox.cif.g08.bks.cpg/sg20_11_cif.got.tgz:20512.got - 2010.06.03 22:52:26.
