data_PCOD9319069
_publ_section_title
;
Structure prediction by ZEFSAII (Michael W. Deem and Ramdas Pophale) SiO2 
 PCOD9319069
Probable space group: C 2 2 21
;
_chemical_formula_sum "Si O2"
_cell_formula_units_Z 40
_cell_length_a 5.108610
_cell_length_b 25.126793
_cell_length_c 12.672617
_cell_angle_alpha 90.000000
_cell_angle_beta 90.000000
_cell_angle_gamma 90.000000
_cell_volume 1626.694958
_symmetry_space_group_name_H-M "C 2 2 21"
_symmetry_group_IT_number 20
_symmetry_cell_setting 'orthorhombic'
loop_
_space_group_symop_operation_xyz
x,y,z
-x,-y,1/2+z
x,-y,-z
-x,y,1/2-z
1/2+x,1/2+y,z
1/2-x,1/2-y,1/2+z
1/2+x,1/2-y,-z
1/2-x,1/2+y,1/2-z
loop_
_atom_site_type_symbol
_atom_site_label
_atom_site_fract_x
_atom_site_fract_y
_atom_site_fract_z
Si Si1 0.984442 0.144682 0.873295
Si Si2 0.148280 0.544617 0.857869
Si Si3 0.853855 0.142563 0.414433
Si Si4 0.741608 0.243288 0.819754
Si Si5 0.115607 0.574079 0.092796
O O1 0.894475 0.083540 0.869420
O O2 0.803733 0.195897 0.902565
O O3 0.000000 0.156252 0.750000
O O4 0.207052 0.148283 0.960145
O O5 0.194970 0.481528 0.853212
O O6 0.000000 0.560461 0.750000
O O7 0.028342 0.556415 0.973475
O O8 0.849684 0.201053 0.368036
O O9 0.635755 0.104799 0.363088
O O10 0.135837 0.113613 0.408464
O O11 0.500000 0.223022 0.750000
O O12 0.000000 0.256803 0.750000
#
# Coordination Sequence:
#
# PCOD9319069 Si02
#       5
#     8   8   8   8   8
#     4  10  23  41  68  98 129 169 220 271 327 388
#     4  10  21  39  64  92 129 167 212 270 325 383
#     4  11  24  44  67  93 132 172 214 270 328 387
#     4  11  25  44  67  98 135 173 221 272 325 394
#     4  10  24  41  64  96 125 168 220 262 322 397
#
# _framework density 24.589737
#
# number of rings (size 3 to 8) (size 9 to 14) (size 15 to 20)
#    0.000    1.600    0.000    3.000    0.000   21.600 
#    0.000    0.000    0.000    0.000    0.000    0.000 
#    0.000    0.000    0.000    0.000    0.000    0.000 
#
# Total GULP energy -111526.542447 kJ/mol
# GULP energy per Si atom -5576.327122 kJ/mol
# Density = 2.453377 g / cm^3
# Si number density = 24.589737 Si / 1000 Ang^3
#
#
#
# Elastic Constant Matrix: (Units=GPa)
#
#
# Indices 1 2 3 4 5 6 
#
# 1 102.2841 47.1522 16.0243 0.0000 0.0000 0.0000
# 2 47.1522 181.8070 12.6297 0.0000 0.0000 0.0000
# 3 16.0243 12.6297 69.4709 0.0000 0.0000 0.0000
# 4 0.0000 0.0000 0.0000 17.6752 0.0000 0.0000
# 5 0.0000 0.0000 0.0000 0.0000 30.1878 0.0000
# 6 0.0000 0.0000 0.0000 0.0000 0.0000 32.7526
#
#
#
# Elastic Compliance Matrix: (Units=1/GPa)
#
#
# Indices 1 2 3 4 5 6 
#
# 1 0.011404 -0.002811 -0.002120 0.000000 0.000000 0.000000
# 2 -0.002811 0.006263 -0.000490 0.000000 0.000000 0.000000
# 3 -0.002120 -0.000490 0.014973 0.000000 0.000000 0.000000
# 4 0.000000 0.000000 0.000000 0.056577 0.000000 0.000000
# 5 0.000000 0.000000 0.000000 0.000000 0.033126 0.000000
# 6 0.000000 0.000000 0.000000 0.000000 0.000000 0.030532
#
#
# Mechanical properties :
#
#
# Convention : Reuss Voigt Hill
#
# Bulk Modulus (GPa) = 45.87313 56.13050 51.00182
# Shear Modulus (GPa) = 29.24281 34.64016 31.94148
#
# Velocity S-wave (km/s) = 3.45226 3.75737 3.60804
# Velocity P-wave (km/s) = 5.88105 6.45756 6.17604
#
# Compressibility (1/GPa) = 0.02179925
#
# Stress axis : x y z
#
# Youngs Moduli (GPa) = 87.68557 159.65969 66.78879
#
# Poissons Ratio (x) = 0.44873 0.14157
# Poissons Ratio (y) = 0.24644 0.03275
# Poissons Ratio (z) = 0.18586 0.07829
#
# Static dielectric constant tensor:
#      x y z
#    x 2.078210 0.000000 0.000000 
#    y 0.000000 1.936670 0.000000 
#    z 0.000000 0.000000 2.130850 
# 
# From -- ./inp_files/17632.got.cif
#   From: 2010.05.17/outbox.cif.g08.bks.cpg/sg20_9_cif.got.tgz:17632.got - 2010.06.03 22:52:26.
