data_PCOD9319700
_publ_section_title
;
Structure prediction by ZEFSAII (Michael W. Deem and Ramdas Pophale) SiO2 
 PCOD9319700
Probable space group: C 2 2 21
;
_chemical_formula_sum "Si O2"
_cell_formula_units_Z 44
_cell_length_a 16.116038
_cell_length_b 26.774441
_cell_length_c 5.184163
_cell_angle_alpha 90.000000
_cell_angle_beta 90.000000
_cell_angle_gamma 90.000000
_cell_volume 2236.955492
_symmetry_space_group_name_H-M "C 2 2 21"
_symmetry_group_IT_number 20
_symmetry_cell_setting 'orthorhombic'
loop_
_space_group_symop_operation_xyz
x,y,z
-x,-y,1/2+z
x,-y,-z
-x,y,1/2-z
1/2+x,1/2+y,z
1/2-x,1/2-y,1/2+z
1/2+x,1/2-y,-z
1/2-x,1/2+y,1/2-z
loop_
_atom_site_type_symbol
_atom_site_label
_atom_site_fract_x
_atom_site_fract_y
_atom_site_fract_z
Si Si1 0.213149 0.000000 0.000000
Si Si2 0.421755 0.549700 0.118587
Si Si3 0.806396 0.756254 0.928740
Si Si4 0.208703 0.396424 0.523253
Si Si5 0.693169 0.367274 0.459976
Si Si6 0.557077 0.829610 0.500276
O O1 0.272058 0.046833 0.935988
O O2 0.150825 0.974996 0.792804
O O3 0.500000 0.576114 0.250000
O O4 0.376762 0.589915 0.938865
O O5 0.461083 0.500000 0.000000
O O6 0.736294 0.748438 0.149106
O O7 0.878491 0.716154 0.971707
O O8 0.838984 0.812725 0.966316
O O9 0.246909 0.384492 0.804672
O O10 0.114300 0.378871 0.523209
O O11 0.257438 0.364680 0.306930
O O12 0.500000 0.823465 0.750000
O O13 0.500000 0.832172 0.250000
#
# Coordination Sequence:
#
# PCOD9319700 Si02
#       6
#     4   8   8   8   8   8
#     4  10  22  38  64  90 118 174 216 256 304 394
#     4  11  21  36  59  92 135 165 209 264 322 372
#     4  12  22  42  68  94 126 171 220 258 311 385
#     4  11  22  41  65  93 125 163 219 255 312 387
#     4  11  22  39  64  94 123 173 215 254 306 387
#     4  12  25  42  65  97 130 166 206 272 330 368
#
# _framework density 19.669591
#
# number of rings (size 3 to 8) (size 9 to 14) (size 15 to 20)
#    0.000    0.727    6.364    2.182    0.000    0.727 
#    0.000    3.636    0.000    0.000    0.000    0.000 
#    0.000    0.000    0.000    0.000    0.000    0.000 
#
# Total GULP energy -122795.420390 kJ/mol
# GULP energy per Si atom -5581.610018 kJ/mol
# Density = 1.962482 g / cm^3
# Si number density = 19.669591 Si / 1000 Ang^3
#
#
#
# Elastic Constant Matrix: (Units=GPa)
#
#
# Indices 1 2 3 4 5 6 
#
# 1 111.0928 33.0759 30.1394 0.0000 0.0000 0.0000
# 2 33.0759 99.6092 -14.1147 0.0000 0.0000 0.0000
# 3 30.1394 -14.1147 80.9950 0.0000 0.0000 0.0000
# 4 0.0000 0.0000 0.0000 24.9101 0.0000 0.0000
# 5 0.0000 0.0000 0.0000 0.0000 37.6093 0.0000
# 6 0.0000 0.0000 0.0000 0.0000 0.0000 41.2139
#
#
#
# Elastic Compliance Matrix: (Units=1/GPa)
#
#
# Indices 1 2 3 4 5 6 
#
# 1 0.011799 -0.004655 -0.005202 0.000000 0.000000 0.000000
# 2 -0.004655 0.012130 0.003846 0.000000 0.000000 0.000000
# 3 -0.005202 0.003846 0.014952 0.000000 0.000000 0.000000
# 4 0.000000 0.000000 0.000000 0.040144 0.000000 0.000000
# 5 0.000000 0.000000 0.000000 0.000000 0.026589 0.000000
# 6 0.000000 0.000000 0.000000 0.000000 0.000000 0.024264
#
#
# Mechanical properties :
#
#
# Convention : Reuss Voigt Hill
#
# Bulk Modulus (GPa) = 37.23046 43.32201 40.27624
# Shear Modulus (GPa) = 33.14503 36.91974 35.03238
#
# Velocity S-wave (km/s) = 4.10944 4.33713 4.22482
# Velocity P-wave (km/s) = 6.44094 6.86685 6.65730
#
# Compressibility (1/GPa) = 0.02685972
#
# Stress axis : x y z
#
# Youngs Moduli (GPa) = 84.75597 82.44098 66.87955
#
# Poissons Ratio (x) = 0.38375 0.34788
# Poissons Ratio (y) = 0.39453 -0.25722
# Poissons Ratio (z) = 0.44087 -0.31707
#
# Static dielectric constant tensor:
#      x y z
#    x 1.666340 0.000000 0.000000 
#    y 0.000000 1.718150 0.000000 
#    z 0.000000 0.000000 1.752190 
# 
# From -- ./inp_files/1952.got.cif
#   From: 2010.05.17/outbox.cif.g08.bks.cpg/sg20_1_cif.got.tgz:1952.got - 2010.06.03 22:52:26.
