data_PCOD9319064
_publ_section_title
;
Structure prediction by ZEFSAII (Michael W. Deem and Ramdas Pophale) SiO2 
 PCOD9319064
Probable space group: C 2 2 21
;
_chemical_formula_sum "Si O2"
_cell_formula_units_Z 32
_cell_length_a 9.268736
_cell_length_b 18.984219
_cell_length_c 8.225653
_cell_angle_alpha 90.000000
_cell_angle_beta 90.000000
_cell_angle_gamma 90.000000
_cell_volume 1447.383550
_symmetry_space_group_name_H-M "C 2 2 21"
_symmetry_group_IT_number 20
_symmetry_cell_setting 'orthorhombic'
loop_
_space_group_symop_operation_xyz
x,y,z
-x,-y,1/2+z
x,-y,-z
-x,y,1/2-z
1/2+x,1/2+y,z
1/2-x,1/2-y,1/2+z
1/2+x,1/2-y,-z
1/2-x,1/2+y,1/2-z
loop_
_atom_site_type_symbol
_atom_site_label
_atom_site_fract_x
_atom_site_fract_y
_atom_site_fract_z
Si Si1 0.165711 0.221024 0.736988
Si Si2 0.174112 0.524835 0.254594
Si Si3 0.161478 0.646213 0.474001
Si Si4 0.170622 0.610350 0.939329
O O1 0.163934 0.303135 0.685959
O O2 0.240092 0.179848 0.589602
O O3 0.000000 0.199829 0.750000
O O4 0.251403 0.190365 0.891724
O O5 0.219276 0.570131 0.411615
O O6 0.198693 0.443038 0.212657
O O7 0.000000 0.529828 0.250000
O O8 0.222308 0.567866 0.096260
O O9 0.997688 0.631596 0.536879
#
# Coordination Sequence:
#
# PCOD9319064 Si02
#       4
#     8   8   8   8
#     4  12  24  38  58  90 127 161 203 256 324 388
#     4   9  18  37  64  91 115 157 220 268 305 361
#     4  11  22  40  64  88 122 165 212 262 312 376
#     4  10  21  39  64  89 120 162 211 265 313 370
#
# _framework density 22.108858999999999
#
# number of rings (size 3 to 8) (size 9 to 14) (size 15 to 20)
#    0.000    1.500    0.000    7.500    0.000    3.000 
#    0.000    8.750    0.000    0.000    0.000    0.000 
#    0.000    0.000    0.000    0.000    0.000    0.000 
#
# Total GULP energy -89251.230817 kJ/mol
# GULP energy per Si atom -5578.201926 kJ/mol
# Density = 2.205854 g / cm^3
# Si number density = 22.108859 Si / 1000 Ang^3
#
#
#
# Elastic Constant Matrix: (Units=GPa)
#
#
# Indices 1 2 3 4 5 6 
#
# 1 59.2393 41.2137 18.6697 0.0000 0.0000 0.0000
# 2 41.2137 184.3426 55.2168 0.0000 0.0000 0.0000
# 3 18.6697 55.2168 81.3529 0.0000 0.0000 0.0000
# 4 0.0000 0.0000 0.0000 57.3811 0.0000 0.0000
# 5 0.0000 0.0000 0.0000 0.0000 13.4351 0.0000
# 6 0.0000 0.0000 0.0000 0.0000 0.0000 27.0526
#
#
#
# Elastic Compliance Matrix: (Units=1/GPa)
#
#
# Indices 1 2 3 4 5 6 
#
# 1 0.020240 -0.003933 -0.001975 0.000000 0.000000 0.000000
# 2 -0.003933 0.007573 -0.004238 0.000000 0.000000 0.000000
# 3 -0.001975 -0.004238 0.015622 0.000000 0.000000 0.000000
# 4 0.000000 0.000000 0.000000 0.017427 0.000000 0.000000
# 5 0.000000 0.000000 0.000000 0.000000 0.074432 0.000000
# 6 0.000000 0.000000 0.000000 0.000000 0.000000 0.036965
#
#
# Mechanical properties :
#
#
# Convention : Reuss Voigt Hill
#
# Bulk Modulus (GPa) = 43.21065 61.68169 52.44617
# Shear Modulus (GPa) = 24.96685 33.56272 29.26478
#
# Velocity S-wave (km/s) = 3.36411 3.90046 3.64217
# Velocity P-wave (km/s) = 5.88868 6.94582 6.43898
#
# Compressibility (1/GPa) = 0.02314244
#
# Stress axis : x y z
#
# Youngs Moduli (GPa) = 49.40792 132.04128 64.01392
#
# Poissons Ratio (x) = 0.51937 0.12643
# Poissons Ratio (y) = 0.19434 0.27127
# Poissons Ratio (z) = 0.09758 0.55954
#
# Static dielectric constant tensor:
#      x y z
#    x 1.729010 0.000000 0.000000 
#    y 0.000000 1.860020 0.000000 
#    z 0.000000 0.000000 1.959660 
# 
# From -- ./inp_files/5811.got.cif
#   From: 2010.05.17/outbox.cif.g08.bks.cpg/sg20_3_cif.got.tgz:5811.got - 2010.06.03 22:52:26.
