data_PCOD9319417
_publ_section_title
;
Structure prediction by ZEFSAII (Michael W. Deem and Ramdas Pophale) SiO2 
 PCOD9319417
Probable space group: C 2 2 21
;
_chemical_formula_sum "Si O2"
_cell_formula_units_Z 40
_cell_length_a 16.472280
_cell_length_b 9.215130
_cell_length_c 10.868200
_cell_angle_alpha 90.000000
_cell_angle_beta 90.000000
_cell_angle_gamma 90.000000
_cell_volume 1649.729742
_symmetry_space_group_name_H-M "C 2 2 21"
_symmetry_group_IT_number 20
_symmetry_cell_setting 'orthorhombic'
loop_
_space_group_symop_operation_xyz
x,y,z
-x,-y,1/2+z
x,-y,-z
-x,y,1/2-z
1/2+x,1/2+y,z
1/2-x,1/2-y,1/2+z
1/2+x,1/2-y,-z
1/2-x,1/2+y,1/2-z
loop_
_atom_site_type_symbol
_atom_site_label
_atom_site_fract_x
_atom_site_fract_y
_atom_site_fract_z
Si Si1 0.609221 0.330275 0.508385
Si Si2 0.662591 0.128167 0.735371
Si Si3 0.829341 0.072375 0.631616
Si Si4 0.905277 0.683802 0.244376
Si Si5 0.555581 0.680834 0.136672
O O1 0.630852 0.500000 0.500000
O O2 0.649780 0.238643 0.619706
O O3 0.628933 0.254183 0.380486
O O4 0.510750 0.322775 0.529706
O O5 0.752666 0.065276 0.720882
O O6 0.634160 0.216048 0.856044
O O7 0.606951 0.986797 0.732901
O O8 0.859087 0.238043 0.643033
O O9 0.807702 0.000000 0.500000
O O10 0.907292 0.975998 0.668027
O O11 0.000000 0.715523 0.250000
O O12 0.500000 0.730017 0.250000
#
# Coordination Sequence:
#
# PCOD9319417 Si02
#       5
#     8   8   8   8   8
#     4  11  22  41  68  95 128 178 230 283 350 430
#     4  11  25  42  65  98 136 173 226 299 364 422
#     4  12  24  42  64  95 137 182 229 282 348 428
#     4  12  23  39  65  95 128 172 227 289 347 408
#     4  10  21  42  67  93 130 177 231 283 347 434
#
# _framework density 24.246396000000001
#
# number of rings (size 3 to 8) (size 9 to 14) (size 15 to 20)
#    0.000    0.800    0.000   10.800    0.000    0.000 
#    0.000    3.000    0.000    4.800    0.000    0.000 
#    0.000    0.000    0.000    0.000    0.000    0.000 
#
# Total GULP energy -111729.596715 kJ/mol
# GULP energy per Si atom -5586.479836 kJ/mol
# Density = 2.419121 g / cm^3
# Si number density = 24.246396 Si / 1000 Ang^3
#
#
#
# Elastic Constant Matrix: (Units=GPa)
#
#
# Indices 1 2 3 4 5 6 
#
# 1 82.8095 -5.0021 7.6262 0.0000 0.0000 0.0000
# 2 -5.0021 146.0847 41.4611 0.0000 0.0000 0.0000
# 3 7.6262 41.4611 88.6057 0.0000 0.0000 0.0000
# 4 0.0000 0.0000 0.0000 29.0902 0.0000 0.0000
# 5 0.0000 0.0000 0.0000 0.0000 30.3716 0.0000
# 6 0.0000 0.0000 0.0000 0.0000 0.0000 34.2692
#
#
#
# Elastic Compliance Matrix: (Units=1/GPa)
#
#
# Indices 1 2 3 4 5 6 
#
# 1 0.012259 0.000829 -0.001443 0.000000 0.000000 0.000000
# 2 0.000829 0.007950 -0.003791 0.000000 0.000000 0.000000
# 3 -0.001443 -0.003791 0.013184 0.000000 0.000000 0.000000
# 4 0.000000 0.000000 0.000000 0.034376 0.000000 0.000000
# 5 0.000000 0.000000 0.000000 0.000000 0.032926 0.000000
# 6 0.000000 0.000000 0.000000 0.000000 0.000000 0.029181
#
#
# Mechanical properties :
#
#
# Convention : Reuss Voigt Hill
#
# Bulk Modulus (GPa) = 40.67914 45.07450 42.87682
# Shear Modulus (GPa) = 34.04151 36.97384 35.50767
#
# Velocity S-wave (km/s) = 3.75104 3.90926 3.83097
# Velocity P-wave (km/s) = 5.96441 6.24556 6.10660
#
# Compressibility (1/GPa) = 0.02458262
#
# Stress axis : x y z
#
# Youngs Moduli (GPa) = 81.57333 125.78977 75.84821
#
# Poissons Ratio (x) = -0.10433 0.10946
# Poissons Ratio (y) = -0.06765 0.28756
# Poissons Ratio (z) = 0.11773 0.47691
#
# Static dielectric constant tensor:
#      x y z
#    x 1.962760 0.000000 0.000000 
#    y 0.000000 1.927020 0.000000 
#    z 0.000000 0.000000 1.992670 
# 
# From -- ./inp_files/12707.got.cif
#   From: 2010.05.17/outbox.cif.g08.bks.cpg/sg20_7_cif.got.tgz:12707.got - 2010.06.03 22:52:26.
