data_PCOD9319080
_publ_section_title
;
Structure prediction by ZEFSAII (Michael W. Deem and Ramdas Pophale) SiO2 
 PCOD9319080
Probable space group: C 2 2 21
;
_chemical_formula_sum "Si O2"
_cell_formula_units_Z 56
_cell_length_a 13.083769
_cell_length_b 9.709739
_cell_length_c 17.930427
_cell_angle_alpha 90.000000
_cell_angle_beta 90.000000
_cell_angle_gamma 90.000000
_cell_volume 2277.881126
_symmetry_space_group_name_H-M "C 2 2 21"
_symmetry_group_IT_number 20
_symmetry_cell_setting 'orthorhombic'
loop_
_space_group_symop_operation_xyz
x,y,z
-x,-y,1/2+z
x,-y,-z
-x,y,1/2-z
1/2+x,1/2+y,z
1/2-x,1/2-y,1/2+z
1/2+x,1/2-y,-z
1/2-x,1/2+y,1/2-z
loop_
_atom_site_type_symbol
_atom_site_label
_atom_site_fract_x
_atom_site_fract_y
_atom_site_fract_z
Si Si1 0.384153 0.404856 0.424671
Si Si2 0.087206 0.498408 0.685926
Si Si3 0.228620 0.337148 0.986714
Si Si4 0.389709 0.708163 0.891271
Si Si5 0.392778 0.624420 0.292592
Si Si6 0.744780 0.004344 0.801988
Si Si7 0.920816 0.612355 0.605403
O O1 0.375327 0.500000 0.500000
O O2 0.299906 0.281632 0.426561
O O3 0.500093 0.345518 0.417656
O O4 0.375339 0.502127 0.351817
O O5 0.100924 0.345053 0.657360
O O6 0.185039 0.553181 0.728504
O O7 0.000000 0.502419 0.750000
O O8 0.037991 0.580316 0.617670
O O9 0.313286 0.266566 0.039857
O O10 0.116545 0.348989 0.024805
O O11 0.264971 0.500000 0.000000
O O12 0.330866 0.599068 0.838442
O O13 0.500000 0.610336 0.250000
O O14 0.305842 0.624977 0.229545
O O15 0.393253 0.760799 0.341661
O O16 0.655823 0.991245 0.864675
#
# Coordination Sequence:
#
# PCOD9319080 Si02
#       7
#     8   8   8   8   8   8   8
#     4  12  26  47  71 101 145 191 242 296 369 440
#     4  10  22  40  68 104 139 182 234 298 360 428
#     4  11  24  48  70  98 144 197 243 300 362 440
#     4  11  24  45  69 102 142 186 240 295 362 440
#     4  12  23  44  71 103 142 187 235 299 369 436
#     4  10  21  39  65 101 136 177 225 290 347 420
#     4  10  22  44  68 101 144 185 235 294 364 432
#
# _framework density 24.584250999999998
#
# number of rings (size 3 to 8) (size 9 to 14) (size 15 to 20)
#    0.000    1.143    2.857    4.286    2.000    0.000 
#    7.714    0.714    0.000    0.000    0.000    0.000 
#    0.000    0.000    0.000    0.000    0.000    0.000 
#
# Total GULP energy -156224.153561 kJ/mol
# GULP energy per Si atom -5579.434056 kJ/mol
# Density = 2.452830 g / cm^3
# Si number density = 24.584251 Si / 1000 Ang^3
#
#
#
# Elastic Constant Matrix: (Units=GPa)
#
#
# Indices 1 2 3 4 5 6 
#
# 1 90.8760 14.4613 21.7570 0.0000 0.0000 0.0000
# 2 14.4613 111.8602 33.5744 0.0000 0.0000 0.0000
# 3 21.7570 33.5744 59.4071 0.0000 0.0000 0.0000
# 4 0.0000 0.0000 0.0000 44.4773 0.0000 0.0000
# 5 0.0000 0.0000 0.0000 0.0000 31.1146 0.0000
# 6 0.0000 0.0000 0.0000 0.0000 0.0000 9.5810
#
#
#
# Elastic Compliance Matrix: (Units=1/GPa)
#
#
# Indices 1 2 3 4 5 6 
#
# 1 0.012069 -0.000281 -0.004261 0.000000 0.000000 0.000000
# 2 -0.000281 0.010773 -0.005985 0.000000 0.000000 0.000000
# 3 -0.004261 -0.005985 0.021776 0.000000 0.000000 0.000000
# 4 0.000000 0.000000 0.000000 0.022483 0.000000 0.000000
# 5 0.000000 0.000000 0.000000 0.000000 0.032139 0.000000
# 6 0.000000 0.000000 0.000000 0.000000 0.000000 0.104373
#
#
# Mechanical properties :
#
#
# Convention : Reuss Voigt Hill
#
# Bulk Modulus (GPa) = 42.44039 44.63653 43.53846
# Shear Modulus (GPa) = 21.50328 29.85794 25.68061
#
# Velocity S-wave (km/s) = 2.96070 3.48877 3.23553
# Velocity P-wave (km/s) = 5.38409 5.86725 5.63086
#
# Compressibility (1/GPa) = 0.02356246
#
# Stress axis : x y z
#
# Youngs Moduli (GPa) = 82.85729 92.82880 45.92189
#
# Poissons Ratio (x) = 0.02612 0.19568
# Poissons Ratio (y) = 0.02331 0.27485
# Poissons Ratio (z) = 0.35306 0.55559
#
# Static dielectric constant tensor:
#      x y z
#    x 1.978320 0.000000 0.000000 
#    y 0.000000 1.987760 0.000000 
#    z 0.000000 0.000000 2.065150 
# 
# From -- ./inp_files/27561.got.cif
#   From: 2010.05.17/outbox.cif.g08.bks.cpg/sg20_14_cif.got.tgz:27561.got - 2010.06.03 22:52:26.
