data_PCOD9319252
_publ_section_title
;
Structure prediction by ZEFSAII (Michael W. Deem and Ramdas Pophale) SiO2 
 PCOD9319252
Probable space group: C 2 2 21
;
_chemical_formula_sum "Si O2"
_cell_formula_units_Z 64
_cell_length_a 11.567157
_cell_length_b 24.306442
_cell_length_c 10.368258
_cell_angle_alpha 90.000000
_cell_angle_beta 90.000000
_cell_angle_gamma 90.000000
_cell_volume 2915.102412
_symmetry_space_group_name_H-M "C 2 2 21"
_symmetry_group_IT_number 20
_symmetry_cell_setting 'orthorhombic'
loop_
_space_group_symop_operation_xyz
x,y,z
-x,-y,1/2+z
x,-y,-z
-x,y,1/2-z
1/2+x,1/2+y,z
1/2-x,1/2-y,1/2+z
1/2+x,1/2-y,-z
1/2-x,1/2+y,1/2-z
loop_
_atom_site_type_symbol
_atom_site_label
_atom_site_fract_x
_atom_site_fract_y
_atom_site_fract_z
Si Si1 0.709522 0.246046 0.800567
Si Si2 0.922544 0.661743 0.583846
Si Si3 0.713971 0.330361 0.608761
Si Si4 0.944883 0.165491 0.455382
Si Si5 0.311764 0.069534 0.241026
Si Si6 0.034136 0.745777 0.386533
Si Si7 0.503530 0.059313 0.041971
Si Si8 0.085531 0.040218 0.122317
O O1 0.739840 0.270060 0.662214
O O2 0.634130 0.293434 0.871557
O O3 0.830438 0.240379 0.875639
O O4 0.625728 0.193244 0.791767
O O5 0.801511 0.656948 0.505483
O O6 0.973619 0.601116 0.575001
O O7 0.001370 0.703472 0.499861
O O8 0.578047 0.334002 0.589899
O O9 0.748015 0.375780 0.713538
O O10 0.960665 0.198049 0.590802
O O11 0.910661 0.101966 0.439701
O O12 0.405595 0.084249 0.133448
O O13 0.384154 0.049837 0.366230
O O14 0.213470 0.030176 0.182164
O O15 0.000000 0.719658 0.250000
O O16 0.462440 0.000000 0.000000
O O17 0.000000 0.038240 0.250000
O O18 0.058088 0.000000 0.000000
#
# Coordination Sequence:
#
# PCOD9319252 Si02
#       8
#     8   8   8   8   8   8   8   8
#     4  11  20  35  61  86 124 159 204 257 315 377
#     4  10  22  34  58  96 117 163 208 260 316 385
#     4  11  18  38  64  86 121 163 214 254 311 394
#     4  11  23  40  62  90 127 168 210 260 324 387
#     4  10  21  40  69  93 117 167 218 268 323 388
#     4  11  22  37  61  92 127 160 212 264 318 385
#     4  10  22  41  68  93 127 166 217 273 329 393
#     4  12  25  44  68  97 129 175 225 276 326 396
#
# _framework density 21.954632
#
# number of rings (size 3 to 8) (size 9 to 14) (size 15 to 20)
#    0.000    1.250    5.000    1.500    1.750    1.000 
#    0.000    1.250   11.000    0.000    0.000    0.000 
#    0.000    0.000    0.000    0.000    0.000    0.000 
#
# Total GULP energy -178458.368675 kJ/mol
# GULP energy per Si atom -5576.824021 kJ/mol
# Density = 2.190466 g / cm^3
# Si number density = 21.954632 Si / 1000 Ang^3
#
#
#
# Elastic Constant Matrix: (Units=GPa)
#
#
# Indices 1 2 3 4 5 6 
#
# 1 93.9253 -7.1499 -0.0128 0.0000 0.0000 0.0000
# 2 -7.1499 74.6745 7.5457 0.0000 0.0000 0.0000
# 3 -0.0128 7.5457 51.0825 0.0000 0.0000 0.0000
# 4 0.0000 0.0000 0.0000 25.3702 0.0000 0.0000
# 5 0.0000 0.0000 0.0000 0.0000 24.0698 0.0000
# 6 0.0000 0.0000 0.0000 0.0000 0.0000 23.7204
#
#
#
# Elastic Compliance Matrix: (Units=1/GPa)
#
#
# Indices 1 2 3 4 5 6 
#
# 1 0.010726 0.001042 -0.000151 0.000000 0.000000 0.000000
# 2 0.001042 0.013696 -0.002023 0.000000 0.000000 0.000000
# 3 -0.000151 -0.002023 0.019875 0.000000 0.000000 0.000000
# 4 0.000000 0.000000 0.000000 0.039416 0.000000 0.000000
# 5 0.000000 0.000000 0.000000 0.000000 0.041546 0.000000
# 6 0.000000 0.000000 0.000000 0.000000 0.000000 0.042158
#
#
# Mechanical properties :
#
#
# Convention : Reuss Voigt Hill
#
# Bulk Modulus (GPa) = 23.79078 24.49424 24.14251
# Shear Modulus (GPa) = 27.21958 29.25203 28.23580
#
# Velocity S-wave (km/s) = 3.52491 3.65415 3.59011
# Velocity P-wave (km/s) = 5.23704 5.38374 5.31090
#
# Compressibility (1/GPa) = 0.04203309
#
# Stress axis : x y z
#
# Youngs Moduli (GPa) = 93.23070 73.01585 50.31459
#
# Poissons Ratio (x) = -0.07610 0.00761
# Poissons Ratio (y) = -0.09717 0.10178
# Poissons Ratio (z) = 0.01410 0.14770
#
# Static dielectric constant tensor:
#      x y z
#    x 1.827330 0.000000 0.000000 
#    y 0.000000 1.828300 0.000000 
#    z 0.000000 0.000000 1.928830 
# 
# From -- ./inp_files/14488.got.cif
#   From: 2010.05.17/outbox.cif.g08.bks.cpg/sg20_8_cif.got.tgz:14488.got - 2010.06.03 22:52:26.
