data_PCOD9319114
_publ_section_title
;
Structure prediction by ZEFSAII (Michael W. Deem and Ramdas Pophale) SiO2 
 PCOD9319114
Probable space group: C 2 2 21
;
_chemical_formula_sum "Si O2"
_cell_formula_units_Z 64
_cell_length_a 9.382356
_cell_length_b 17.103931
_cell_length_c 20.087944
_cell_angle_alpha 90.000000
_cell_angle_beta 90.000000
_cell_angle_gamma 90.000000
_cell_volume 3223.616221
_symmetry_space_group_name_H-M "C 2 2 21"
_symmetry_group_IT_number 20
_symmetry_cell_setting 'orthorhombic'
loop_
_space_group_symop_operation_xyz
x,y,z
-x,-y,1/2+z
x,-y,-z
-x,y,1/2-z
1/2+x,1/2+y,z
1/2-x,1/2-y,1/2+z
1/2+x,1/2-y,-z
1/2-x,1/2+y,1/2-z
loop_
_atom_site_type_symbol
_atom_site_label
_atom_site_fract_x
_atom_site_fract_y
_atom_site_fract_z
Si Si1 0.519752 0.873389 0.591903
Si Si2 0.747366 0.410424 0.995869
Si Si3 0.551541 0.968609 0.323857
Si Si4 0.433320 0.705026 0.441451
Si Si5 0.924434 0.770920 0.186653
Si Si6 0.899370 0.686400 0.685001
Si Si7 0.812531 0.139437 0.639915
Si Si8 0.243903 0.711810 0.060194
O O1 0.599839 0.872794 0.520697
O O2 0.575177 0.795751 0.630198
O O3 0.351689 0.860597 0.583460
O O4 0.553703 0.954622 0.629808
O O5 0.645180 0.378533 0.938269
O O6 0.775386 0.500000 0.000000
O O7 0.674023 0.392496 0.065408
O O8 0.500000 0.992209 0.250000
O O9 0.439895 0.899608 0.343174
O O10 0.702202 0.920235 0.325088
O O11 0.426864 0.751240 0.372824
O O12 0.596732 0.693919 0.461094
O O13 0.343298 0.750306 0.498468
O O14 0.767277 0.802503 0.202059
O O15 0.000000 0.731719 0.250000
O O16 0.033176 0.841594 0.169510
O O17 0.000000 0.697365 0.750000
O O18 0.749890 0.225867 0.621634
#
# Coordination Sequence:
#
# PCOD9319114 Si02
#       8
#     8   8   8   8   8   8   8   8
#     4  11  23  40  65  99 128 173 213 269 330 391
#     4  11  22  41  66  91 132 174 211 270 343 391
#     4  11  22  41  63  93 132 175 214 260 327 390
#     4  11  22  41  66  97 124 168 223 271 326 393
#     4  11  23  42  67  96 127 169 225 269 320 391
#     4  11  24  41  67  95 130 173 218 270 322 393
#     4  10  21  39  67  90 126 169 215 267 321 388
#     4  10  22  38  66  96 126 162 218 277 320 382
#
# _framework density 19.853479
#
# number of rings (size 3 to 8) (size 9 to 14) (size 15 to 20)
#    0.000    1.250    3.750    3.375    5.250    0.000 
#    2.250    0.625    0.000    0.750    0.000    0.000 
#    0.000    0.000    0.000    0.000    0.000    0.000 
#
# Total GULP energy -178361.525530 kJ/mol
# GULP energy per Si atom -5573.797673 kJ/mol
# Density = 1.980829 g / cm^3
# Si number density = 19.853479 Si / 1000 Ang^3
#
#
#
# Elastic Constant Matrix: (Units=GPa)
#
#
# Indices 1 2 3 4 5 6 
#
# 1 162.9264 34.5923 22.1270 0.0000 0.0000 0.0000
# 2 34.5923 64.0698 9.9026 0.0000 0.0000 0.0000
# 3 22.1270 9.9026 67.2269 0.0000 0.0000 0.0000
# 4 0.0000 0.0000 0.0000 26.1168 0.0000 0.0000
# 5 0.0000 0.0000 0.0000 0.0000 31.3123 0.0000
# 6 0.0000 0.0000 0.0000 0.0000 0.0000 25.0785
#
#
#
# Elastic Compliance Matrix: (Units=1/GPa)
#
#
# Indices 1 2 3 4 5 6 
#
# 1 0.007145 -0.003575 -0.001825 0.000000 0.000000 0.000000
# 2 -0.003575 0.017761 -0.001439 0.000000 0.000000 0.000000
# 3 -0.001825 -0.001439 0.015688 0.000000 0.000000 0.000000
# 4 0.000000 0.000000 0.000000 0.038290 0.000000 0.000000
# 5 0.000000 0.000000 0.000000 0.000000 0.031936 0.000000
# 6 0.000000 0.000000 0.000000 0.000000 0.000000 0.039875
#
#
# Mechanical properties :
#
#
# Convention : Reuss Voigt Hill
#
# Bulk Modulus (GPa) = 37.15576 47.49631 42.32603
# Shear Modulus (GPa) = 28.84425 31.67494 30.25960
#
# Velocity S-wave (km/s) = 3.81577 3.99862 3.90827
# Velocity P-wave (km/s) = 6.17811 6.73008 6.46000
#
# Compressibility (1/GPa) = 0.02691373
#
# Stress axis : x y z
#
# Youngs Moduli (GPa) = 139.96337 56.30347 63.74430
#
# Poissons Ratio (x) = 0.20131 0.11633
# Poissons Ratio (y) = 0.50044 0.09175
# Poissons Ratio (z) = 0.25542 0.08104
#
# Static dielectric constant tensor:
#      x y z
#    x 1.724430 0.000000 0.000000 
#    y 0.000000 1.736560 0.000000 
#    z 0.000000 0.000000 1.748190 
# 
# From -- ./inp_files/26878.got.cif
#   From: 2010.05.17/outbox.cif.g08.bks.cpg/sg20_14_cif.got.tgz:26878.got - 2010.06.03 22:52:26.
