data_PCOD9319662
_publ_section_title
;
Structure prediction by ZEFSAII (Michael W. Deem and Ramdas Pophale) SiO2 
 PCOD9319662
Probable space group: C 2 2 21
;
_chemical_formula_sum "Si O2"
_cell_formula_units_Z 44
_cell_length_a 21.259511
_cell_length_b 14.001518
_cell_length_c 6.787179
_cell_angle_alpha 90.000000
_cell_angle_beta 90.000000
_cell_angle_gamma 90.000000
_cell_volume 2020.308528
_symmetry_space_group_name_H-M "C 2 2 21"
_symmetry_group_IT_number 20
_symmetry_cell_setting 'orthorhombic'
loop_
_space_group_symop_operation_xyz
x,y,z
-x,-y,1/2+z
x,-y,-z
-x,y,1/2-z
1/2+x,1/2+y,z
1/2-x,1/2-y,1/2+z
1/2+x,1/2-y,-z
1/2-x,1/2+y,1/2-z
loop_
_atom_site_type_symbol
_atom_site_label
_atom_site_fract_x
_atom_site_fract_y
_atom_site_fract_z
Si Si1 0.341222 0.771634 0.839301
Si Si2 0.000000 0.281686 0.250000
Si Si3 0.131293 0.208806 0.242336
Si Si4 0.241880 0.082660 0.224916
Si Si5 0.055088 0.408043 0.605945
Si Si6 0.262571 0.132780 0.689290
O O1 0.289011 0.850600 0.898190
O O2 0.397528 0.840270 0.770823
O O3 0.296920 0.695150 0.733199
O O4 0.370110 0.713087 0.020155
O O5 0.939941 0.221358 0.325721
O O6 0.025638 0.346496 0.428345
O O7 0.170766 0.115816 0.181688
O O8 0.174486 0.302568 0.197579
O O9 0.253147 0.114467 0.453702
O O10 0.258501 0.972102 0.218266
O O11 0.085876 0.500000 0.500000
O O12 0.000000 0.441500 0.750000
#
# Coordination Sequence:
#
# PCOD9319662 Si02
#       6
#     8   4   8   8   8   8
#     4   9  20  34  50  78 108 139 176 227 276 321
#     4  10  22  38  56  80 116 148 182 226 272 336
#     4   9  19  35  52  79 110 142 178 227 277 324
#     4   9  18  32  56  79 103 142 182 226 273 326
#     4  11  23  37  55  80 113 150 182 221 278 338
#     4   9  18  33  54  79 105 139 181 227 275 325
#
# _framework density 21.778853000000002
#
# number of rings (size 3 to 8) (size 9 to 14) (size 15 to 20)
#    0.000    2.545    0.909    0.000    7.636    0.000 
#    0.000    0.000    2.000    0.000    0.000    0.000 
#    0.000    0.000    0.000    0.000    0.000    0.000 
#
# Total GULP energy -122613.435645 kJ/mol
# GULP energy per Si atom -5573.337984 kJ/mol
# Density = 2.172928 g / cm^3
# Si number density = 21.778853 Si / 1000 Ang^3
#
#
#
# Elastic Constant Matrix: (Units=GPa)
#
#
# Indices 1 2 3 4 5 6 
#
# 1 116.7635 21.5331 -0.3642 0.0000 0.0000 0.0000
# 2 21.5331 75.7255 0.5444 0.0000 0.0000 0.0000
# 3 -0.3642 0.5444 42.8185 0.0000 0.0000 0.0000
# 4 0.0000 0.0000 0.0000 25.4472 0.0000 0.0000
# 5 0.0000 0.0000 0.0000 0.0000 20.8395 0.0000
# 6 0.0000 0.0000 0.0000 0.0000 0.0000 20.2149
#
#
#
# Elastic Compliance Matrix: (Units=1/GPa)
#
#
# Indices 1 2 3 4 5 6 
#
# 1 0.009039 -0.002571 0.000110 0.000000 0.000000 0.000000
# 2 -0.002571 0.013938 -0.000199 0.000000 0.000000 0.000000
# 3 0.000110 -0.000199 0.023358 0.000000 0.000000 0.000000
# 4 0.000000 0.000000 0.000000 0.039297 0.000000 0.000000
# 5 0.000000 0.000000 0.000000 0.000000 0.047986 0.000000
# 6 0.000000 0.000000 0.000000 0.000000 0.000000 0.049469
#
#
# Mechanical properties :
#
#
# Convention : Reuss Voigt Hill
#
# Bulk Modulus (GPa) = 24.38211 30.97047 27.67629
# Shear Modulus (GPa) = 24.74284 27.53991 26.14138
#
# Velocity S-wave (km/s) = 3.37426 3.55987 3.46831
# Velocity P-wave (km/s) = 5.13814 5.58106 5.36417
#
# Compressibility (1/GPa) = 0.04101368
#
# Stress axis : x y z
#
# Youngs Moduli (GPa) = 110.63414 71.74567 42.81215
#
# Poissons Ratio (x) = 0.18446 -0.00469
# Poissons Ratio (y) = 0.28445 0.00852
# Poissons Ratio (z) = -0.01212 0.01428
#
# Static dielectric constant tensor:
#      x y z
#    x 1.818580 0.000000 0.000000 
#    y 0.000000 1.780710 0.000000 
#    z 0.000000 0.000000 1.963180 
# 
# From -- ./inp_files/9277.got.cif
#   From: 2010.05.17/outbox.cif.g08.bks.cpg/sg20_5_cif.got.tgz:9277.got - 2010.06.03 22:52:26.
