data_PCOD9319548
_publ_section_title
;
Structure prediction by ZEFSAII (Michael W. Deem and Ramdas Pophale) SiO2 
 PCOD9319548
Probable space group: C 2 2 21
;
_chemical_formula_sum "Si O2"
_cell_formula_units_Z 52
_cell_length_a 5.977560
_cell_length_b 19.399497
_cell_length_c 20.696900
_cell_angle_alpha 90.000000
_cell_angle_beta 90.000000
_cell_angle_gamma 90.000000
_cell_volume 2400.046825
_symmetry_space_group_name_H-M "C 2 2 21"
_symmetry_group_IT_number 20
_symmetry_cell_setting 'orthorhombic'
loop_
_space_group_symop_operation_xyz
x,y,z
-x,-y,1/2+z
x,-y,-z
-x,y,1/2-z
1/2+x,1/2+y,z
1/2-x,1/2-y,1/2+z
1/2+x,1/2-y,-z
1/2-x,1/2+y,1/2-z
loop_
_atom_site_type_symbol
_atom_site_label
_atom_site_fract_x
_atom_site_fract_y
_atom_site_fract_z
Si Si1 0.788193 0.000000 0.000000
Si Si2 0.179911 0.112800 0.136168
Si Si3 0.133867 0.230737 0.312648
Si Si4 0.770525 0.921584 0.499026
Si Si5 0.500000 0.867651 0.750000
Si Si6 0.334409 0.514204 0.857038
Si Si7 0.000000 0.546384 0.750000
Si Si8 0.712084 0.625572 0.858051
O O1 0.705928 0.006900 0.925722
O O2 0.960522 0.065740 0.001681
O O3 0.358430 0.099817 0.192088
O O4 0.041724 0.183210 0.148099
O O5 0.016311 0.046853 0.140333
O O6 0.291084 0.114740 0.065411
O O7 0.318503 0.178829 0.286413
O O8 0.261517 0.293323 0.346595
O O9 0.000000 0.258301 0.250000
O O10 0.710376 0.888364 0.431455
O O11 0.681762 0.000000 0.500000
O O12 0.471743 0.586650 0.852752
O O13 0.183161 0.507727 0.793922
O O14 0.866367 0.589966 0.803912
#
# Coordination Sequence:
#
# PCOD9319548 Si02
#       8
#     4   8   8   8   4   8   4   8
#     4   6  14  38  62  86 122 178 188 268 340 376
#     4  10  21  45  67  95 137 177 223 276 336 400
#     4  10  23  41  64  95 134 177 221 272 333 405
#     4   8  17  42  67  88 130 172 216 280 327 393
#     4  10  24  41  70  94 131 180 220 270 337 394
#     4  10  22  41  67  97 131 168 224 275 330 400
#     4  12  26  37  68 104 125 168 222 274 339 392
#     4  11  22  42  66  93 136 173 221 278 334 392
#
# _framework density 21.666245
#
# number of rings (size 3 to 8) (size 9 to 14) (size 15 to 20)
#    0.462    1.846    2.308    0.462    2.154    6.154 
#    4.154    3.077    0.000    0.000    0.000    0.000 
#    0.000    0.000    0.000    0.000    0.000    0.000 
#
# Total GULP energy -144994.284199 kJ/mol
# GULP energy per Si atom -5576.703238 kJ/mol
# Density = 2.161693 g / cm^3
# Si number density = 21.666245 Si / 1000 Ang^3
#
#
#
# Elastic Constant Matrix: (Units=GPa)
#
#
# Indices 1 2 3 4 5 6 
#
# 1 62.6976 14.5870 58.4404 0.0000 0.0000 0.0000
# 2 14.5870 77.5495 50.5168 0.0000 0.0000 0.0000
# 3 58.4404 50.5168 235.5033 0.0000 0.0000 0.0000
# 4 0.0000 0.0000 0.0000 21.0383 0.0000 0.0000
# 5 0.0000 0.0000 0.0000 0.0000 19.2874 0.0000
# 6 0.0000 0.0000 0.0000 0.0000 0.0000 14.2313
#
#
#
# Elastic Compliance Matrix: (Units=1/GPa)
#
#
# Indices 1 2 3 4 5 6 
#
# 1 0.020776 -0.000639 -0.005019 0.000000 0.000000 0.000000
# 2 -0.000639 0.015009 -0.003061 0.000000 0.000000 0.000000
# 3 -0.005019 -0.003061 0.006148 0.000000 0.000000 0.000000
# 4 0.000000 0.000000 0.000000 0.047532 0.000000 0.000000
# 5 0.000000 0.000000 0.000000 0.000000 0.051847 0.000000
# 6 0.000000 0.000000 0.000000 0.000000 0.000000 0.070268
#
#
# Mechanical properties :
#
#
# Convention : Reuss Voigt Hill
#
# Bulk Modulus (GPa) = 40.82207 69.20432 55.01319
# Shear Modulus (GPa) = 21.08078 27.72515 24.40296
#
# Velocity S-wave (km/s) = 3.12264 3.58110 3.35970
# Velocity P-wave (km/s) = 5.64654 7.00781 6.36368
#
# Compressibility (1/GPa) = 0.02449656
#
# Stress axis : x y z
#
# Youngs Moduli (GPa) = 48.13250 66.62606 162.64932
#
# Poissons Ratio (x) = 0.04256 0.81627
# Poissons Ratio (y) = 0.03075 0.49787
# Poissons Ratio (z) = 0.24156 0.20394
#
# Static dielectric constant tensor:
#      x y z
#    x 1.868270 0.000000 0.000000 
#    y 0.000000 1.796030 0.000000 
#    z 0.000000 0.000000 1.817470 
# 
# From -- ./inp_files/26143.got.cif
#   From: 2010.05.17/outbox.cif.g08.bks.cpg/sg20_14_cif.got.tgz:26143.got - 2010.06.03 22:52:26.
