data_PCOD9319982
_publ_section_title
;
Structure prediction by ZEFSAII (Michael W. Deem and Ramdas Pophale) SiO2 
 PCOD9319982
Probable space group: C 2 2 21
;
_chemical_formula_sum "Si O2"
_cell_formula_units_Z 52
_cell_length_a 8.891031
_cell_length_b 14.136392
_cell_length_c 19.230324
_cell_angle_alpha 90.000000
_cell_angle_beta 90.000000
_cell_angle_gamma 90.000000
_cell_volume 2417.003646
_symmetry_space_group_name_H-M "C 2 2 21"
_symmetry_group_IT_number 20
_symmetry_cell_setting 'orthorhombic'
loop_
_space_group_symop_operation_xyz
x,y,z
-x,-y,1/2+z
x,-y,-z
-x,y,1/2-z
1/2+x,1/2+y,z
1/2-x,1/2-y,1/2+z
1/2+x,1/2-y,-z
1/2-x,1/2+y,1/2-z
loop_
_atom_site_type_symbol
_atom_site_label
_atom_site_fract_x
_atom_site_fract_y
_atom_site_fract_z
Si Si1 0.565034 0.195168 0.150929
Si Si2 0.500000 0.869853 0.250000
Si Si3 0.277139 0.500000 0.500000
Si Si4 0.807514 0.793013 0.962746
Si Si5 0.725939 0.000000 0.000000
Si Si6 0.633533 0.315856 0.926303
Si Si7 0.476118 0.014722 0.890614
Si Si8 0.732487 0.770939 0.713352
O O1 0.674397 0.232909 0.091100
O O2 0.425022 0.259161 0.176142
O O3 0.670847 0.176005 0.218192
O O4 0.492047 0.097491 0.124338
O O5 0.523867 0.932048 0.318386
O O6 0.650214 0.807972 0.237862
O O7 0.367369 0.585532 0.466949
O O8 0.167702 0.464890 0.438275
O O9 0.972043 0.766196 0.935386
O O10 0.805913 0.906795 0.971306
O O11 0.762002 0.744644 0.034811
O O12 0.619565 0.961902 0.061861
O O13 0.676104 0.327348 0.845768
#
# Coordination Sequence:
#
# PCOD9319982 Si02
#       8
#     8   4   4   8   4   8   8   8
#     4  10  22  45  67  89 135 181 223 275 343 408
#     4  12  24  38  70 104 138 178 236 280 342 418
#     4  11  25  42  66 100 138 180 232 290 342 408
#     4  11  24  41  69  98 133 177 222 288 343 417
#     4   9  21  42  66  96 134 174 226 274 346 402
#     4  12  25  41  66 101 135 175 228 283 351 406
#     4  10  22  41  68  94 131 182 224 273 344 416
#     4  11  23  39  63  97 131 173 219 279 329 404
#
# _framework density 21.514243
#
# number of rings (size 3 to 8) (size 9 to 14) (size 15 to 20)
#    0.000    1.231    1.538    4.154    8.615    0.000 
#    0.000    0.000    0.000    1.846    0.000    0.000 
#    0.000    0.000    0.000    0.000    0.000    0.000 
#
# Total GULP energy -145281.676310 kJ/mol
# GULP energy per Si atom -5587.756781 kJ/mol
# Density = 2.146528 g / cm^3
# Si number density = 21.514243 Si / 1000 Ang^3
#
#
#
# Elastic Constant Matrix: (Units=GPa)
#
#
# Indices 1 2 3 4 5 6 
#
# 1 114.7056 17.2851 37.8246 0.0000 0.0000 0.0000
# 2 17.2851 44.7477 19.2313 0.0000 0.0000 0.0000
# 3 37.8246 19.2313 142.7122 0.0000 0.0000 0.0000
# 4 0.0000 0.0000 0.0000 38.8730 0.0000 0.0000
# 5 0.0000 0.0000 0.0000 0.0000 17.2032 0.0000
# 6 0.0000 0.0000 0.0000 0.0000 0.0000 3.6791
#
#
#
# Elastic Compliance Matrix: (Units=1/GPa)
#
#
# Indices 1 2 3 4 5 6 
#
# 1 0.009886 -0.002858 -0.002235 0.000000 0.000000 0.000000
# 2 -0.002858 0.024548 -0.002550 0.000000 0.000000 0.000000
# 3 -0.002235 -0.002550 0.007943 0.000000 0.000000 0.000000
# 4 0.000000 0.000000 0.000000 0.025725 0.000000 0.000000
# 5 0.000000 0.000000 0.000000 0.000000 0.058129 0.000000
# 6 0.000000 0.000000 0.000000 0.000000 0.000000 0.271804
#
#
# Mechanical properties :
#
#
# Convention : Reuss Voigt Hill
#
# Bulk Modulus (GPa) = 36.91470 50.09415 43.50443
# Shear Modulus (GPa) = 11.83849 27.13937 19.48893
#
# Velocity S-wave (km/s) = 2.34831 3.55556 3.01302
# Velocity P-wave (km/s) = 4.95462 6.33961 5.68942
#
# Compressibility (1/GPa) = 0.02708948
#
# Stress axis : x y z
#
# Youngs Moduli (GPa) = 101.15673 40.73714 125.89465
#
# Poissons Ratio (x) = 0.11643 0.28137
# Poissons Ratio (y) = 0.28912 0.32108
# Poissons Ratio (z) = 0.22608 0.10390
#
# Static dielectric constant tensor:
#      x y z
#    x 1.793440 0.000000 0.000000 
#    y 0.000000 1.789500 0.000000 
#    z 0.000000 0.000000 1.779350 
# 
# From -- ./inp_files/26681.got.cif
#   From: 2010.05.17/outbox.cif.g08.bks.cpg/sg20_14_cif.got.tgz:26681.got - 2010.06.03 22:52:26.
