data_PCOD9319386
_publ_section_title
;
Structure prediction by ZEFSAII (Michael W. Deem and Ramdas Pophale) SiO2 
 PCOD9319386
Probable space group: C 2 2 21
;
_chemical_formula_sum "Si O2"
_cell_formula_units_Z 32
_cell_length_a 36.623216
_cell_length_b 5.363341
_cell_length_c 7.189924
_cell_angle_alpha 90.000000
_cell_angle_beta 90.000000
_cell_angle_gamma 90.000000
_cell_volume 1412.264975
_symmetry_space_group_name_H-M "C 2 2 21"
_symmetry_group_IT_number 20
_symmetry_cell_setting 'orthorhombic'
loop_
_space_group_symop_operation_xyz
x,y,z
-x,-y,1/2+z
x,-y,-z
-x,y,1/2-z
1/2+x,1/2+y,z
1/2-x,1/2-y,1/2+z
1/2+x,1/2-y,-z
1/2-x,1/2+y,1/2-z
loop_
_atom_site_type_symbol
_atom_site_label
_atom_site_fract_x
_atom_site_fract_y
_atom_site_fract_z
Si Si1 0.925467 0.756179 0.705796
Si Si2 0.151592 0.748832 0.628616
Si Si3 0.230857 0.375185 0.298564
Si Si4 0.542992 0.243997 0.218294
O O1 0.882164 0.771998 0.729470
O O2 0.938711 0.501992 0.796145
O O3 0.942508 0.750253 0.496904
O O4 0.942664 0.998389 0.797258
O O5 0.146568 0.500000 0.500000
O O6 0.189425 0.709493 0.739783
O O7 0.153694 0.000000 0.500000
O O8 0.229974 0.500000 0.500000
O O9 0.246056 0.618089 0.189922
O O10 0.500000 0.227804 0.250000
#
# Coordination Sequence:
#
# PCOD9319386 Si02
#       4
#     8   8   8   8
#     4  10  22  42  63  93 124 174 226 264 345 409
#     4  11  23  44  68  94 142 182 223 285 344 412
#     4  11  23  44  70 104 141 187 235 290 356 421
#     4  10  21  42  64  89 131 164 213 293 336 402
#
# _framework density 22.658638
#
# number of rings (size 3 to 8) (size 9 to 14) (size 15 to 20)
#    0.000    1.500    0.000    6.000    0.000    0.000 
#   40.500    0.000    0.000    0.000    0.000    0.000 
#    0.000    0.000    0.000    0.000    0.000    0.000 
#
# Total GULP energy -89254.179656 kJ/mol
# GULP energy per Si atom -5578.386228 kJ/mol
# Density = 2.260707 g / cm^3
# Si number density = 22.658638 Si / 1000 Ang^3
#
#
#
# Elastic Constant Matrix: (Units=GPa)
#
#
# Indices 1 2 3 4 5 6 
#
# 1 239.6378 82.2162 39.8935 0.0000 0.0000 0.0000
# 2 82.2162 236.1938 14.4497 0.0000 0.0000 0.0000
# 3 39.8935 14.4497 84.1823 0.0000 0.0000 0.0000
# 4 0.0000 0.0000 0.0000 -14.2519 0.0000 0.0000
# 5 0.0000 0.0000 0.0000 0.0000 30.7848 0.0000
# 6 0.0000 0.0000 0.0000 0.0000 0.0000 44.4568
#
#
#
# Elastic Compliance Matrix: (Units=1/GPa)
#
#
# Indices 1 2 3 4 5 6 
#
# 1 0.005091 -0.001642 -0.002131 0.000000 0.000000 0.000000
# 2 -0.001642 0.004808 -0.000047 0.000000 0.000000 0.000000
# 3 -0.002131 -0.000047 0.012897 0.000000 0.000000 0.000000
# 4 0.000000 0.000000 0.000000 -0.070166 0.000000 0.000000
# 5 0.000000 0.000000 0.000000 0.000000 0.032484 0.000000
# 6 0.000000 0.000000 0.000000 0.000000 0.000000 0.022494
#
#
# Mechanical properties :
#
#
# Convention : Reuss Voigt Hill
#
# Bulk Modulus (GPa) = 65.97891 92.57030 79.27461
# Shear Modulus (GPa) = 246.31621 40.42823 143.37222
#
# Velocity S-wave (km/s) = 10.43760 4.22860 7.96318
# Velocity P-wave (km/s) = 13.20756 8.04887 10.93673
#
# Compressibility (1/GPa) = 0.01515636
#
# Stress axis : x y z
#
# Youngs Moduli (GPa) = 196.42744 207.97907 77.53829
#
# Poissons Ratio (x) = 0.34145 0.16522
# Poissons Ratio (y) = 0.32248 0.00367
# Poissons Ratio (z) = 0.41854 0.00984
#
# Static dielectric constant tensor:
#      x y z
#    x 1.843680 0.000000 0.000000 
#    y 0.000000 1.942980 0.000000 
#    z 0.000000 0.000000 1.840010 
# 
# From -- ./inp_files/11295.got.cif
#   From: 2010.05.17/outbox.cif.g08.bks.cpg/sg20_6_cif.got.tgz:11295.got - 2010.06.03 22:52:26.
