data_PCOD9319036
_publ_section_title
;
Structure prediction by ZEFSAII (Michael W. Deem and Ramdas Pophale) SiO2 
 PCOD9319036
Probable space group: C 2 2 21
;
_chemical_formula_sum "Si O2"
_cell_formula_units_Z 36
_cell_length_a 15.501213
_cell_length_b 7.897554
_cell_length_c 13.918775
_cell_angle_alpha 90.000000
_cell_angle_beta 90.000000
_cell_angle_gamma 90.000000
_cell_volume 1703.959634
_symmetry_space_group_name_H-M "C 2 2 21"
_symmetry_group_IT_number 20
_symmetry_cell_setting 'orthorhombic'
loop_
_space_group_symop_operation_xyz
x,y,z
-x,-y,1/2+z
x,-y,-z
-x,y,1/2-z
1/2+x,1/2+y,z
1/2-x,1/2-y,1/2+z
1/2+x,1/2-y,-z
1/2-x,1/2+y,1/2-z
loop_
_atom_site_type_symbol
_atom_site_label
_atom_site_fract_x
_atom_site_fract_y
_atom_site_fract_z
Si Si1 0.000000 0.939504 0.750000
Si Si2 0.865691 0.695416 0.977486
Si Si3 0.948898 0.813978 0.543641
Si Si4 0.316962 0.396443 0.791467
Si Si5 0.281335 0.828379 0.391092
O O1 0.974427 0.835962 0.655408
O O2 0.904519 0.012220 0.777199
O O3 0.843819 0.751989 0.868431
O O4 0.964481 0.740906 0.002565
O O5 0.850017 0.500000 0.000000
O O6 0.801661 0.801114 0.043571
O O7 0.865806 0.694839 0.543469
O O8 0.929850 0.000000 0.500000
O O9 0.290261 0.315517 0.690614
O O10 0.237454 0.499435 0.835035
#
# Coordination Sequence:
#
# PCOD9319036 Si02
#       5
#     4   8   8   8   8
#     4   8  18  38  60  82 114 154 198 250 300 352
#     4  11  22  38  60  89 124 164 206 251 304 366
#     4  10  21  39  62  88 122 161 203 255 307 358
#     4  10  21  39  61  88 121 161 205 253 305 361
#     4  11  22  39  63  89 123 163 203 252 304 363
#
# _framework density 21.12726
#
# number of rings (size 3 to 8) (size 9 to 14) (size 15 to 20)
#    0.000    1.778    0.000    5.333    0.000    3.556 
#    0.000    2.222    0.000    5.333    0.000    0.000 
#    0.000    0.000    0.000    0.000    0.000    0.000 
#
# Total GULP energy -100340.778177 kJ/mol
# GULP energy per Si atom -5574.487677 kJ/mol
# Density = 2.107917 g / cm^3
# Si number density = 21.127260 Si / 1000 Ang^3
#
#
#
# Elastic Constant Matrix: (Units=GPa)
#
#
# Indices 1 2 3 4 5 6 
#
# 1 127.7839 13.3492 33.2720 0.0000 0.0000 0.0000
# 2 13.3492 43.3870 6.5328 0.0000 0.0000 0.0000
# 3 33.2720 6.5328 78.5531 0.0000 0.0000 0.0000
# 4 0.0000 0.0000 0.0000 27.0833 0.0000 0.0000
# 5 0.0000 0.0000 0.0000 0.0000 26.4562 0.0000
# 6 0.0000 0.0000 0.0000 0.0000 0.0000 56.4657
#
#
#
# Elastic Compliance Matrix: (Units=1/GPa)
#
#
# Indices 1 2 3 4 5 6 
#
# 1 0.009003 -0.002224 -0.003628 0.000000 0.000000 0.000000
# 2 -0.002224 0.023890 -0.001045 0.000000 0.000000 0.000000
# 3 -0.003628 -0.001045 0.014354 0.000000 0.000000 0.000000
# 4 0.000000 0.000000 0.000000 0.036923 0.000000 0.000000
# 5 0.000000 0.000000 0.000000 0.000000 0.037798 0.000000
# 6 0.000000 0.000000 0.000000 0.000000 0.000000 0.017710
#
#
# Mechanical properties :
#
#
# Convention : Reuss Voigt Hill
#
# Bulk Modulus (GPa) = 29.89282 39.55912 34.72597
# Shear Modulus (GPa) = 30.37250 35.10569 32.73910
#
# Velocity S-wave (km/s) = 3.79568 4.08073 3.94078
# Velocity P-wave (km/s) = 5.77834 6.40063 6.09743
#
# Compressibility (1/GPa) = 0.03345285
#
# Stress axis : x y z
#
# Youngs Moduli (GPa) = 111.07738 41.85873 69.66722
#
# Poissons Ratio (x) = 0.09308 0.25277
# Poissons Ratio (y) = 0.24699 0.07280
# Poissons Ratio (z) = 0.40302 0.04374
#
# Static dielectric constant tensor:
#      x y z
#    x 1.828290 0.000000 0.000000 
#    y 0.000000 1.778800 0.000000 
#    z 0.000000 0.000000 1.755230 
# 
# From -- ./inp_files/18448.got.cif
#   From: 2010.05.17/outbox.cif.g08.bks.cpg/sg20_10_cif.got.tgz:18448.got - 2010.06.03 22:52:26.
