data_PCOD9319731
_publ_section_title
;
Structure prediction by ZEFSAII (Michael W. Deem and Ramdas Pophale) SiO2 
 PCOD9319731
Probable space group: C 2 2 21
;
_chemical_formula_sum "Si O2"
_cell_formula_units_Z 36
_cell_length_a 5.812010
_cell_length_b 18.926348
_cell_length_c 14.311657
_cell_angle_alpha 90.000000
_cell_angle_beta 90.000000
_cell_angle_gamma 90.000000
_cell_volume 1574.284042
_symmetry_space_group_name_H-M "C 2 2 21"
_symmetry_group_IT_number 20
_symmetry_cell_setting 'orthorhombic'
loop_
_space_group_symop_operation_xyz
x,y,z
-x,-y,1/2+z
x,-y,-z
-x,y,1/2-z
1/2+x,1/2+y,z
1/2-x,1/2-y,1/2+z
1/2+x,1/2-y,-z
1/2-x,1/2+y,1/2-z
loop_
_atom_site_type_symbol
_atom_site_label
_atom_site_fract_x
_atom_site_fract_y
_atom_site_fract_z
Si Si1 0.407978 0.166499 0.941653
Si Si2 0.328147 0.582662 0.389129
Si Si3 0.753160 0.558614 0.801126
Si Si4 0.725808 0.324349 0.573806
Si Si5 0.500000 0.157563 0.250000
O O1 0.314434 0.133908 0.846901
O O2 0.402565 0.251118 0.944028
O O3 0.268503 0.126577 0.023234
O O4 0.666400 0.150949 0.975541
O O5 0.283865 0.499779 0.382794
O O6 0.588621 0.608440 0.388461
O O7 0.199705 0.612111 0.297893
O O8 0.500000 0.559443 0.750000
O O9 0.000000 0.540212 0.750000
O O10 0.897989 0.303787 0.658960
#
# Coordination Sequence:
#
# PCOD9319731 Si02
#       5
#     8   8   8   8   4
#     4  11  26  45  73 110 146 199 248 316 373 454
#     4  11  23  48  71 104 147 195 245 304 380 457
#     4  12  29  49  76 112 154 199 258 311 377 446
#     4  11  23  44  75 106 149 191 254 303 386 444
#     4  10  22  38  74 100 138 192 242 298 372 450
#
# _framework density 22.867539000000001
#
# number of rings (size 3 to 8) (size 9 to 14) (size 15 to 20)
#    0.000    0.889    3.333    2.667    7.778    1.778 
#    0.000    0.000    0.000    0.000    0.000    0.000 
#    0.000    0.000    0.000    0.000    0.000    0.000 
#
# Total GULP energy -100214.956225 kJ/mol
# GULP energy per Si atom -5567.497568 kJ/mol
# Density = 2.281549 g / cm^3
# Si number density = 22.867539 Si / 1000 Ang^3
#
#
#
# Elastic Constant Matrix: (Units=GPa)
#
#
# Indices 1 2 3 4 5 6 
#
# 1 98.9721 22.5947 21.9446 0.0000 0.0000 0.0000
# 2 22.5947 83.5391 0.7951 0.0000 0.0000 0.0000
# 3 21.9446 0.7951 42.0370 0.0000 0.0000 0.0000
# 4 0.0000 0.0000 0.0000 25.9280 0.0000 0.0000
# 5 0.0000 0.0000 0.0000 0.0000 37.3004 0.0000
# 6 0.0000 0.0000 0.0000 0.0000 0.0000 24.9602
#
#
#
# Elastic Compliance Matrix: (Units=1/GPa)
#
#
# Indices 1 2 3 4 5 6 
#
# 1 0.012251 -0.003253 -0.006334 0.000000 0.000000 0.000000
# 2 -0.003253 0.012836 0.001455 0.000000 0.000000 0.000000
# 3 -0.006334 0.001455 0.027067 0.000000 0.000000 0.000000
# 4 0.000000 0.000000 0.000000 0.038568 0.000000 0.000000
# 5 0.000000 0.000000 0.000000 0.000000 0.026809 0.000000
# 6 0.000000 0.000000 0.000000 0.000000 0.000000 0.040064
#
#
# Mechanical properties :
#
#
# Convention : Reuss Voigt Hill
#
# Bulk Modulus (GPa) = 27.86150 35.02408 31.44279
# Shear Modulus (GPa) = 26.90729 29.58532 28.24630
#
# Velocity S-wave (km/s) = 3.43397 3.60080 3.51837
# Velocity P-wave (km/s) = 5.28518 5.71288 5.50319
#
# Compressibility (1/GPa) = 0.03589182
#
# Stress axis : x y z
#
# Youngs Moduli (GPa) = 81.62663 77.90294 36.94472
#
# Poissons Ratio (x) = 0.25343 0.23400
# Poissons Ratio (y) = 0.26555 -0.05377
# Poissons Ratio (z) = 0.51701 -0.11339
#
# Static dielectric constant tensor:
#      x y z
#    x 2.060800 0.000000 0.000000 
#    y 0.000000 1.805630 0.000000 
#    z 0.000000 0.000000 1.880490 
# 
# From -- ./inp_files/17552.got.cif
#   From: 2010.05.17/outbox.cif.g08.bks.cpg/sg20_9_cif.got.tgz:17552.got - 2010.06.03 22:52:26.
