data_PCOD9319647
_publ_section_title
;
Structure prediction by ZEFSAII (Michael W. Deem and Ramdas Pophale) SiO2 
 PCOD9319647
Probable space group: C 2 2 21
;
_chemical_formula_sum "Si O2"
_cell_formula_units_Z 64
_cell_length_a 22.228093
_cell_length_b 11.464786
_cell_length_c 13.227526
_cell_angle_alpha 90.000000
_cell_angle_beta 90.000000
_cell_angle_gamma 90.000000
_cell_volume 3370.907083
_symmetry_space_group_name_H-M "C 2 2 21"
_symmetry_group_IT_number 20
_symmetry_cell_setting 'orthorhombic'
loop_
_space_group_symop_operation_xyz
x,y,z
-x,-y,1/2+z
x,-y,-z
-x,y,1/2-z
1/2+x,1/2+y,z
1/2-x,1/2-y,1/2+z
1/2+x,1/2-y,-z
1/2-x,1/2+y,1/2-z
loop_
_atom_site_type_symbol
_atom_site_label
_atom_site_fract_x
_atom_site_fract_y
_atom_site_fract_z
Si Si1 0.618294 0.040023 0.169916
Si Si2 0.868987 0.262483 0.506643
Si Si3 0.213474 0.837520 0.853599
Si Si4 0.406759 0.865549 0.031586
Si Si5 0.309554 0.139791 0.794202
Si Si6 0.971118 0.329998 0.357353
Si Si7 0.148985 0.720011 0.335183
Si Si8 0.173746 0.905539 0.170097
O O1 0.628401 0.115663 0.068284
O O2 0.613227 0.136157 0.258026
O O3 0.672713 0.955499 0.207799
O O4 0.561091 0.955115 0.162122
O O5 0.806737 0.238899 0.449133
O O6 0.919524 0.260089 0.418988
O O7 0.868660 0.160335 0.590196
O O8 0.195129 0.764514 0.756571
O O9 0.285847 0.841879 0.852143
O O10 0.175936 0.956702 0.847744
O O11 0.362446 0.857944 0.126059
O O12 0.473748 0.839882 0.066506
O O13 0.384734 0.782849 0.941200
O O14 0.403286 0.000000 0.000000
O O15 0.244960 0.119903 0.844255
O O16 0.000000 0.289306 0.250000
O O17 0.159259 0.843774 0.278364
#
# Coordination Sequence:
#
# PCOD9319647 Si02
#       8
#     8   8   8   8   8   8   8   8
#     4  11  20  38  55  92 130 152 200 258 328 369
#     4  11  23  35  60  91 123 160 209 263 306 389
#     4  11  20  38  61  88 124 167 208 250 319 382
#     4  12  20  36  61  90 121 160 206 252 324 382
#     4  11  21  36  62  91 125 161 202 269 317 382
#     4  12  23  39  61  94 128 164 202 264 331 384
#     4  10  22  37  60  90 127 162 202 264 308 383
#     4  10  22  39  59  87 127 165 208 256 322 375
#
# _framework density 18.985987000000002
#
# number of rings (size 3 to 8) (size 9 to 14) (size 15 to 20)
#    0.000    1.000    5.000    2.250    0.000    0.000 
#    0.000    2.500    0.000    7.500    0.000    0.875 
#    0.000    0.000    0.000    0.000    0.000    0.000 
#
# Total GULP energy -178404.274705 kJ/mol
# GULP energy per Si atom -5575.133585 kJ/mol
# Density = 1.894277 g / cm^3
# Si number density = 18.985987 Si / 1000 Ang^3
#
#
#
# Elastic Constant Matrix: (Units=GPa)
#
#
# Indices 1 2 3 4 5 6 
#
# 1 90.7137 30.9319 49.6816 0.0000 0.0000 0.0000
# 2 30.9319 56.8309 32.1237 0.0000 0.0000 0.0000
# 3 49.6816 32.1237 84.5440 0.0000 0.0000 0.0000
# 4 0.0000 0.0000 0.0000 21.2007 0.0000 0.0000
# 5 0.0000 0.0000 0.0000 0.0000 43.6528 0.0000
# 6 0.0000 0.0000 0.0000 0.0000 0.0000 14.7094
#
#
#
# Elastic Compliance Matrix: (Units=1/GPa)
#
#
# Indices 1 2 3 4 5 6 
#
# 1 0.017164 -0.004636 -0.008324 0.000000 0.000000 0.000000
# 2 -0.004636 0.023661 -0.006266 0.000000 0.000000 0.000000
# 3 -0.008324 -0.006266 0.019101 0.000000 0.000000 0.000000
# 4 0.000000 0.000000 0.000000 0.047168 0.000000 0.000000
# 5 0.000000 0.000000 0.000000 0.000000 0.022908 0.000000
# 6 0.000000 0.000000 0.000000 0.000000 0.000000 0.067984
#
#
# Mechanical properties :
#
#
# Convention : Reuss Voigt Hill
#
# Bulk Modulus (GPa) = 46.57165 50.84032 48.70599
# Shear Modulus (GPa) = 20.52568 23.86932 22.19750
#
# Velocity S-wave (km/s) = 3.29157 3.54956 3.42300
# Velocity P-wave (km/s) = 6.24729 6.60569 6.42899
#
# Compressibility (1/GPa) = 0.02147229
#
# Stress axis : x y z
#
# Youngs Moduli (GPa) = 58.26233 42.26295 52.35388
#
# Poissons Ratio (x) = 0.19595 0.43582
# Poissons Ratio (y) = 0.27013 0.32804
# Poissons Ratio (z) = 0.48500 0.26482
#
# Static dielectric constant tensor:
#      x y z
#    x 1.633110 0.000000 0.000000 
#    y 0.000000 1.680610 0.000000 
#    z 0.000000 0.000000 1.726090 
# 
# From -- ./inp_files/16786.got.cif
#   From: 2010.05.17/outbox.cif.g08.bks.cpg/sg20_9_cif.got.tgz:16786.got - 2010.06.03 22:52:26.
