data_PCOD9319122
_publ_section_title
;
Structure prediction by ZEFSAII (Michael W. Deem and Ramdas Pophale) SiO2 
 PCOD9319122
Probable space group: C 2 2 21
;
_chemical_formula_sum "Si O2"
_cell_formula_units_Z 32
_cell_length_a 8.892969
_cell_length_b 13.085488
_cell_length_c 10.585919
_cell_angle_alpha 90.000000
_cell_angle_beta 90.000000
_cell_angle_gamma 90.000000
_cell_volume 1231.871105
_symmetry_space_group_name_H-M "C 2 2 21"
_symmetry_group_IT_number 20
_symmetry_cell_setting 'orthorhombic'
loop_
_space_group_symop_operation_xyz
x,y,z
-x,-y,1/2+z
x,-y,-z
-x,y,1/2-z
1/2+x,1/2+y,z
1/2-x,1/2-y,1/2+z
1/2+x,1/2-y,-z
1/2-x,1/2+y,1/2-z
loop_
_atom_site_type_symbol
_atom_site_label
_atom_site_fract_x
_atom_site_fract_y
_atom_site_fract_z
Si Si1 0.460565 0.708620 0.531724
Si Si2 0.720266 0.885854 0.050715
Si Si3 0.281899 0.532077 0.638722
Si Si4 0.000000 0.882221 0.750000
Si Si5 0.000000 0.455706 0.250000
O O1 0.395073 0.822505 0.536190
O O2 0.629325 0.679729 0.570822
O O3 0.344875 0.646745 0.622134
O O4 0.474635 0.680167 0.379784
O O5 0.632800 0.895719 0.182138
O O6 0.749361 0.000000 0.000000
O O7 0.341619 0.500000 0.500000
O O8 0.362173 0.462580 0.744230
O O9 0.107005 0.498517 0.643750
#
# Coordination Sequence:
#
# PCOD9319122 Si02
#       5
#     8   8   8   4   4
#     4  11  24  45  71 102 142 185 233 294 360 421
#     4  12  26  46  71 103 144 186 236 294 352 421
#     4  10  21  39  68 102 137 183 236 292 353 419
#     4  10  21  44  73 100 138 186 233 292 363 422
#     4  12  23  40  65  98 140 186 233 282 343 414
#
# _framework density 25.976744
#
# number of rings (size 3 to 8) (size 9 to 14) (size 15 to 20)
#    0.000    1.000    0.000    8.250    0.000    2.000 
#    0.000    7.500    0.000    0.000    0.000    0.000 
#    0.000    0.000    0.000    0.000    0.000    0.000 
#
# Total GULP energy -89161.022637 kJ/mol
# GULP energy per Si atom -5572.563915 kJ/mol
# Density = 2.591762 g / cm^3
# Si number density = 25.976744 Si / 1000 Ang^3
#
#
#
# Elastic Constant Matrix: (Units=GPa)
#
#
# Indices 1 2 3 4 5 6 
#
# 1 147.9196 31.7927 18.6711 0.0000 0.0000 0.0000
# 2 31.7927 91.2588 5.2906 0.0000 0.0000 0.0000
# 3 18.6711 5.2906 97.9888 0.0000 0.0000 0.0000
# 4 0.0000 0.0000 0.0000 3.5531 0.0000 0.0000
# 5 0.0000 0.0000 0.0000 0.0000 61.7597 0.0000
# 6 0.0000 0.0000 0.0000 0.0000 0.0000 -53.2950
#
#
#
# Elastic Compliance Matrix: (Units=1/GPa)
#
#
# Indices 1 2 3 4 5 6 
#
# 1 0.007466 -0.002526 -0.001286 0.000000 0.000000 0.000000
# 2 -0.002526 0.011847 -0.000158 0.000000 0.000000 0.000000
# 3 -0.001286 -0.000158 0.010459 0.000000 0.000000 0.000000
# 4 0.000000 0.000000 0.000000 0.281442 0.000000 0.000000
# 5 0.000000 0.000000 0.000000 0.000000 0.016192 0.000000
# 6 0.000000 0.000000 0.000000 0.000000 0.000000 -0.018764
#
#
# Mechanical properties :
#
#
# Convention : Reuss Voigt Hill
#
# Bulk Modulus (GPa) = 45.80802 49.85288 47.83045
# Shear Modulus (GPa) = 15.43873 21.16443 18.30158
#
# Velocity S-wave (km/s) = 2.44053 2.85747 2.65719
# Velocity P-wave (km/s) = 5.06104 5.48816 5.27892
#
# Compressibility (1/GPa) = 0.02183024
#
# Stress axis : x y z
#
# Youngs Moduli (GPa) = 133.94468 84.40840 95.61271
#
# Poissons Ratio (x) = 0.21325 0.12297
# Poissons Ratio (y) = 0.33839 0.01513
# Poissons Ratio (z) = 0.17227 0.01336
#
# Static dielectric constant tensor:
#      x y z
#    x 2.180010 0.000000 0.000000 
#    y 0.000000 2.344880 0.000000 
#    z 0.000000 0.000000 13.790360 
# 
# From -- ./inp_files/12591.got.cif
#   From: 2010.05.17/outbox.cif.g08.bks.cpg/sg20_7_cif.got.tgz:12591.got - 2010.06.03 22:52:26.
