data_PCOD9319705
_publ_section_title
;
Structure prediction by ZEFSAII (Michael W. Deem and Ramdas Pophale) SiO2 
 PCOD9319705
Probable space group: C 2 2 21
;
_chemical_formula_sum "Si O2"
_cell_formula_units_Z 28
_cell_length_a 8.786832
_cell_length_b 30.445320
_cell_length_c 5.085754
_cell_angle_alpha 90.000000
_cell_angle_beta 90.000000
_cell_angle_gamma 90.000000
_cell_volume 1360.530291
_symmetry_space_group_name_H-M "C 2 2 21"
_symmetry_group_IT_number 20
_symmetry_cell_setting 'orthorhombic'
loop_
_space_group_symop_operation_xyz
x,y,z
-x,-y,1/2+z
x,-y,-z
-x,y,1/2-z
1/2+x,1/2+y,z
1/2-x,1/2-y,1/2+z
1/2+x,1/2-y,-z
1/2-x,1/2+y,1/2-z
loop_
_atom_site_type_symbol
_atom_site_label
_atom_site_fract_x
_atom_site_fract_y
_atom_site_fract_z
Si Si1 0.389563 0.636140 0.999131
Si Si2 0.103194 0.500000 0.500000
Si Si3 0.177662 0.229510 0.335240
Si Si4 0.824954 0.044651 0.161017
O O1 0.500000 0.639717 0.750000
O O2 0.500000 0.634068 0.250000
O O3 0.297244 0.680741 0.044925
O O4 0.301806 0.589842 0.004221
O O5 0.212182 0.539585 0.406557
O O6 0.000000 0.511430 0.750000
O O7 0.224349 0.261631 0.573459
O O8 0.000000 0.233611 0.250000
O O9 0.000000 0.043119 0.250000
O O10 0.801307 0.000000 0.000000
#
# Coordination Sequence:
#
# PCOD9319705 Si02
#       4
#     8   4   8   8
#     4  10  22  38  65 101 129 164 221 280 324 370
#     4  12  26  42  60  92 138 178 208 264 342 380
#     4  11  22  42  67  95 131 171 215 273 335 392
#     4  11  22  40  71  96 125 171 234 269 305 389
#
# _framework density 20.580210000000001
#
# number of rings (size 3 to 8) (size 9 to 14) (size 15 to 20)
#    0.000    1.143    2.857    5.143    4.000    0.000 
#    0.000    4.286    0.000    0.000    0.000    0.000 
#    0.000    0.000    0.000    0.000    0.000    0.000 
#
# Total GULP energy -78143.701648 kJ/mol
# GULP energy per Si atom -5581.692975 kJ/mol
# Density = 2.053337 g / cm^3
# Si number density = 20.580210 Si / 1000 Ang^3
#
#
#
# Elastic Constant Matrix: (Units=GPa)
#
#
# Indices 1 2 3 4 5 6 
#
# 1 100.2559 48.4611 49.7573 0.0000 0.0000 0.0000
# 2 48.4611 149.0227 54.0201 0.0000 0.0000 0.0000
# 3 49.7573 54.0201 157.3164 0.0000 0.0000 0.0000
# 4 0.0000 0.0000 0.0000 35.5749 0.0000 0.0000
# 5 0.0000 0.0000 0.0000 0.0000 49.5901 0.0000
# 6 0.0000 0.0000 0.0000 0.0000 0.0000 3.7955
#
#
#
# Elastic Compliance Matrix: (Units=1/GPa)
#
#
# Indices 1 2 3 4 5 6 
#
# 1 0.012991 -0.003124 -0.003036 0.000000 0.000000 0.000000
# 2 -0.003124 0.008416 -0.001902 0.000000 0.000000 0.000000
# 3 -0.003036 -0.001902 0.007970 0.000000 0.000000 0.000000
# 4 0.000000 0.000000 0.000000 0.028110 0.000000 0.000000
# 5 0.000000 0.000000 0.000000 0.000000 0.020165 0.000000
# 6 0.000000 0.000000 0.000000 0.000000 0.000000 0.263468
#
#
# Mechanical properties :
#
#
# Convention : Reuss Voigt Hill
#
# Bulk Modulus (GPa) = 75.45477 79.00800 77.23139
# Shear Modulus (GPa) = 13.82507 34.74920 24.28714
#
# Velocity S-wave (km/s) = 2.59466 4.11357 3.43902
# Velocity P-wave (km/s) = 6.76163 7.81252 7.30600
#
# Compressibility (1/GPa) = 0.01325297
#
# Stress axis : x y z
#
# Youngs Moduli (GPa) = 76.97343 118.82574 125.47092
#
# Poissons Ratio (x) = 0.37122 0.38097
# Poissons Ratio (y) = 0.24047 0.23861
# Poissons Ratio (z) = 0.23371 0.22597
#
# Static dielectric constant tensor:
#      x y z
#    x 1.746950 0.000000 0.000000 
#    y 0.000000 1.822610 0.000000 
#    z 0.000000 0.000000 1.776930 
# 
# From -- ./inp_files/456.got.cif
#   From: 2010.05.17/outbox.cif.g08.bks.cpg/sg20_1_cif.got.tgz:456.got - 2010.06.03 22:52:26.
