data_PCOD9319163
_publ_section_title
;
Structure prediction by ZEFSAII (Michael W. Deem and Ramdas Pophale) SiO2 
 PCOD9319163
Probable space group: C 2 2 21
;
_chemical_formula_sum "Si O2"
_cell_formula_units_Z 52
_cell_length_a 10.643362
_cell_length_b 8.862204
_cell_length_c 24.196215
_cell_angle_alpha 90.000000
_cell_angle_beta 90.000000
_cell_angle_gamma 90.000000
_cell_volume 2282.275201
_symmetry_space_group_name_H-M "C 2 2 21"
_symmetry_group_IT_number 20
_symmetry_cell_setting 'orthorhombic'
loop_
_space_group_symop_operation_xyz
x,y,z
-x,-y,1/2+z
x,-y,-z
-x,y,1/2-z
1/2+x,1/2+y,z
1/2-x,1/2-y,1/2+z
1/2+x,1/2-y,-z
1/2-x,1/2+y,1/2-z
loop_
_atom_site_type_symbol
_atom_site_label
_atom_site_fract_x
_atom_site_fract_y
_atom_site_fract_z
Si Si1 0.587184 0.819217 0.492600
Si Si2 0.186754 0.314401 0.370300
Si Si3 0.500000 0.701915 0.750000
Si Si4 0.896906 0.012019 0.326998
Si Si5 0.726304 0.081259 0.221341
Si Si6 0.813308 0.649807 0.533938
Si Si7 0.076606 0.357435 0.152143
O O1 0.644621 0.777972 0.432439
O O2 0.687423 0.749070 0.534840
O O3 0.439393 0.774143 0.493060
O O4 0.586394 0.000000 0.500000
O O5 0.308574 0.420404 0.368448
O O6 0.214248 0.172753 0.330381
O O7 0.068175 0.407356 0.345662
O O8 0.494898 0.598631 0.805120
O O9 0.379228 0.805646 0.744046
O O10 0.819603 0.042649 0.270550
O O11 0.931404 0.176362 0.347503
O O12 0.657028 0.931125 0.200163
O O13 0.783691 0.500000 0.500000
O O14 0.859848 0.601171 0.594362
#
# Coordination Sequence:
#
# PCOD9319163 Si02
#       7
#     8   8   4   8   8   8   8
#     4  10  21  40  62  87 118 155 198 249 305 361
#     4  10  22  38  58  83 115 153 193 239 296 359
#     4  10  22  36  52  78 112 146 184 232 280 332
#     4  11  22  37  56  83 115 150 194 237 285 350
#     4  11  22  37  57  83 116 153 193 238 291 348
#     4  10  22  40  62  90 122 156 202 255 306 366
#     4  11  22  38  61  85 115 156 198 244 301 359
#
# _framework density 22.784281
#
# number of rings (size 3 to 8) (size 9 to 14) (size 15 to 20)
#    0.000    1.538    0.000    5.538    0.000    2.462 
#    0.000    7.692    0.000    0.000    0.000    0.000 
#    0.000    0.000    0.000    0.000    0.000    0.000 
#
# Total GULP energy -145390.899629 kJ/mol
# GULP energy per Si atom -5591.957678 kJ/mol
# Density = 2.273242 g / cm^3
# Si number density = 22.784281 Si / 1000 Ang^3
#
#
#
# Elastic Constant Matrix: (Units=GPa)
#
#
# Indices 1 2 3 4 5 6 
#
# 1 59.5028 4.7655 1.7214 0.0000 0.0000 0.0000
# 2 4.7655 57.5060 -6.4567 0.0000 0.0000 0.0000
# 3 1.7214 -6.4567 30.6554 0.0000 0.0000 0.0000
# 4 0.0000 0.0000 0.0000 21.8994 0.0000 0.0000
# 5 0.0000 0.0000 0.0000 0.0000 36.9642 0.0000
# 6 0.0000 0.0000 0.0000 0.0000 0.0000 26.0515
#
#
#
# Elastic Compliance Matrix: (Units=1/GPa)
#
#
# Indices 1 2 3 4 5 6 
#
# 1 0.016967 -0.001550 -0.001279 0.000000 0.000000 0.000000
# 2 -0.001550 0.017952 0.003868 0.000000 0.000000 0.000000
# 3 -0.001279 0.003868 0.033507 0.000000 0.000000 0.000000
# 4 0.000000 0.000000 0.000000 0.045663 0.000000 0.000000
# 5 0.000000 0.000000 0.000000 0.000000 0.027053 0.000000
# 6 0.000000 0.000000 0.000000 0.000000 0.000000 0.038385
#
#
# Mechanical properties :
#
#
# Convention : Reuss Voigt Hill
#
# Bulk Modulus (GPa) = 14.18336 16.41384 15.29860
# Shear Modulus (GPa) = 24.88161 26.82529 25.85345
#
# Velocity S-wave (km/s) = 3.30821 3.43499 3.37219
# Velocity P-wave (km/s) = 4.56409 4.79081 4.67882
#
# Compressibility (1/GPa) = 0.07050517
#
# Stress axis : x y z
#
# Youngs Moduli (GPa) = 58.93780 55.70338 29.84433
#
# Poissons Ratio (x) = 0.08632 0.03818
# Poissons Ratio (y) = 0.09133 -0.11544
# Poissons Ratio (z) = 0.07539 -0.21547
#
# Static dielectric constant tensor:
#      x y z
#    x 1.886670 0.000000 0.000000 
#    y 0.000000 1.857990 0.000000 
#    z 0.000000 0.000000 1.851710 
# 
# From -- ./inp_files/30279.got.cif
#   From: 2010.05.17/outbox.cif.g08.bks.cpg/sg20_16_cif.got.tgz:30279.got - 2010.06.03 22:52:26.
