data_PCOD9319513
_publ_section_title
;
Structure prediction by ZEFSAII (Michael W. Deem and Ramdas Pophale) SiO2 
 PCOD9319513
Probable space group: C 2 2 21
;
_chemical_formula_sum "Si O2"
_cell_formula_units_Z 60
_cell_length_a 8.007555
_cell_length_b 30.997434
_cell_length_c 11.608133
_cell_angle_alpha 90.000000
_cell_angle_beta 90.000000
_cell_angle_gamma 90.000000
_cell_volume 2881.297150
_symmetry_space_group_name_H-M "C 2 2 21"
_symmetry_group_IT_number 20
_symmetry_cell_setting 'orthorhombic'
loop_
_space_group_symop_operation_xyz
x,y,z
-x,-y,1/2+z
x,-y,-z
-x,y,1/2-z
1/2+x,1/2+y,z
1/2-x,1/2-y,1/2+z
1/2+x,1/2-y,-z
1/2-x,1/2+y,1/2-z
loop_
_atom_site_type_symbol
_atom_site_label
_atom_site_fract_x
_atom_site_fract_y
_atom_site_fract_z
Si Si1 0.168391 0.624931 0.202914
Si Si2 0.810078 0.291712 0.292420
Si Si3 0.500000 0.400015 0.250000
Si Si4 0.139158 0.959735 0.653811
Si Si5 0.067464 0.367081 0.052160
Si Si6 0.757918 0.950925 0.098984
Si Si7 0.317612 0.663189 0.584675
Si Si8 0.654277 0.302049 0.839303
O O1 0.299974 0.586491 0.198378
O O2 0.218112 0.664087 0.284406
O O3 0.000000 0.604149 0.250000
O O4 0.130194 0.641985 0.076040
O O5 0.822081 0.335652 0.366310
O O6 0.699203 0.299326 0.180103
O O7 0.772499 0.246257 0.351994
O O8 0.000000 0.287006 0.250000
O O9 0.351785 0.428898 0.203831
O O10 0.566364 0.371744 0.144370
O O11 0.118710 0.951499 0.514510
O O12 0.000000 0.972857 0.750000
O O13 0.269392 0.999756 0.639150
O O14 0.106935 0.417869 0.072389
O O15 0.872106 0.355165 0.067459
O O16 0.389009 0.680265 0.465155
O O17 0.500000 0.302281 0.750000
#
# Coordination Sequence:
#
# PCOD9319513 Si02
#       8
#     8   8   4   8   8   8   8   8
#     4  11  23  41  63  96 126 173 217 263 331 389
#     4   9  21  42  63  92 124 173 217 268 324 390
#     4  12  24  40  64 102 122 166 228 260 334 396
#     4  10  22  41  66  94 131 167 214 271 329 393
#     4  10  21  44  67  87 136 170 215 274 328 389
#     4  10  22  41  66  95 127 171 213 271 330 393
#     4  11  24  43  65  96 132 172 222 270 331 395
#     4  11  25  42  66  96 133 174 221 273 330 389
#
# _framework density 20.823951999999998
#
# number of rings (size 3 to 8) (size 9 to 14) (size 15 to 20)
#    0.000    1.600    3.333    0.400    7.467    0.000 
#    8.400    0.000    0.000    0.000    0.000    0.000 
#    0.000    0.000    0.000    0.000    0.000    0.000 
#
# Total GULP energy -167166.266363 kJ/mol
# GULP energy per Si atom -5572.208879 kJ/mol
# Density = 2.077656 g / cm^3
# Si number density = 20.823952 Si / 1000 Ang^3
#
#
#
# Elastic Constant Matrix: (Units=GPa)
#
#
# Indices 1 2 3 4 5 6 
#
# 1 30.0467 10.9953 12.7108 0.0000 0.0000 0.0000
# 2 10.9953 116.1413 38.1596 0.0000 0.0000 0.0000
# 3 12.7108 38.1596 110.2403 0.0000 0.0000 0.0000
# 4 0.0000 0.0000 0.0000 30.9850 0.0000 0.0000
# 5 0.0000 0.0000 0.0000 0.0000 26.2499 0.0000
# 6 0.0000 0.0000 0.0000 0.0000 0.0000 7.6666
#
#
#
# Elastic Compliance Matrix: (Units=1/GPa)
#
#
# Indices 1 2 3 4 5 6 
#
# 1 0.035513 -0.002276 -0.003307 0.000000 0.000000 0.000000
# 2 -0.002276 0.009861 -0.003151 0.000000 0.000000 0.000000
# 3 -0.003307 -0.003151 0.010543 0.000000 0.000000 0.000000
# 4 0.000000 0.000000 0.000000 0.032274 0.000000 0.000000
# 5 0.000000 0.000000 0.000000 0.000000 0.038095 0.000000
# 6 0.000000 0.000000 0.000000 0.000000 0.000000 0.130436
#
#
# Mechanical properties :
#
#
# Convention : Reuss Voigt Hill
#
# Bulk Modulus (GPa) = 26.00771 42.23997 34.12384
# Shear Modulus (GPa) = 17.42122 25.95113 21.68618
#
# Velocity S-wave (km/s) = 2.89553 3.53401 3.23058
# Velocity P-wave (km/s) = 4.86778 6.08117 5.50799
#
# Compressibility (1/GPa) = 0.03845014
#
# Stress axis : x y z
#
# Youngs Moduli (GPa) = 28.15857 101.41038 94.84871
#
# Poissons Ratio (x) = 0.23076 0.31367
# Poissons Ratio (y) = 0.06408 0.29887
# Poissons Ratio (z) = 0.09312 0.31954
#
# Static dielectric constant tensor:
#      x y z
#    x 1.768400 0.000000 0.000000 
#    y 0.000000 1.775490 0.000000 
#    z 0.000000 0.000000 1.781280 
# 
# From -- ./inp_files/13345.got.cif
#   From: 2010.05.17/outbox.cif.g08.bks.cpg/sg20_7_cif.got.tgz:13345.got - 2010.06.03 22:52:26.
