data_PCOD9319125
_publ_section_title
;
Structure prediction by ZEFSAII (Michael W. Deem and Ramdas Pophale) SiO2 
 PCOD9319125
Probable space group: C 2 2 21
;
_chemical_formula_sum "Si O2"
_cell_formula_units_Z 56
_cell_length_a 15.456919
_cell_length_b 13.762485
_cell_length_c 10.789075
_cell_angle_alpha 90.000000
_cell_angle_beta 90.000000
_cell_angle_gamma 90.000000
_cell_volume 2295.112624
_symmetry_space_group_name_H-M "C 2 2 21"
_symmetry_group_IT_number 20
_symmetry_cell_setting 'orthorhombic'
loop_
_space_group_symop_operation_xyz
x,y,z
-x,-y,1/2+z
x,-y,-z
-x,y,1/2-z
1/2+x,1/2+y,z
1/2-x,1/2-y,1/2+z
1/2+x,1/2-y,-z
1/2-x,1/2+y,1/2-z
loop_
_atom_site_type_symbol
_atom_site_label
_atom_site_fract_x
_atom_site_fract_y
_atom_site_fract_z
Si Si1 0.519693 0.556871 0.379979
Si Si2 0.357210 0.114030 0.243116
Si Si3 0.479941 0.165420 0.428360
Si Si4 0.901464 0.736394 0.882201
Si Si5 0.233990 0.414911 0.285097
Si Si6 0.124281 0.839425 0.029342
Si Si7 0.770401 0.776338 0.104456
O O1 0.558002 0.500000 0.500000
O O2 0.500000 0.502550 0.250000
O O3 0.571448 0.655480 0.342156
O O4 0.429143 0.594356 0.436618
O O5 0.398151 0.104497 0.379880
O O6 0.438999 0.127773 0.151380
O O7 0.297947 0.208490 0.221452
O O8 0.302760 0.021543 0.205125
O O9 0.514221 0.177390 0.567990
O O10 0.447331 0.275169 0.397516
O O11 0.844172 0.662800 0.803022
O O12 0.842329 0.757829 0.001821
O O13 0.308721 0.395929 0.384782
O O14 0.269466 0.385897 0.150965
O O15 0.181747 0.763175 0.951921
#
# Coordination Sequence:
#
# PCOD9319125 Si02
#       7
#     8   8   8   8   8   8   8
#     4  11  25  46  69 105 139 190 247 301 357 444
#     4  10  21  39  68  95 132 184 238 293 357 452
#     4   9  19  43  62  90 131 183 239 292 356 435
#     4   9  22  43  67  92 141 185 237 300 359 440
#     4  11  22  41  68 102 136 189 233 302 377 432
#     4  10  22  41  69  92 137 188 229 297 363 434
#     4  10  21  40  64  97 137 176 235 297 362 433
#
# _framework density 24.399671999999999
#
# number of rings (size 3 to 8) (size 9 to 14) (size 15 to 20)
#    0.000    2.000    1.429    0.857    2.000    5.714 
#   23.143    0.000    0.000    0.000    0.000    0.000 
#    0.000    0.000    0.000    0.000    0.000    0.000 
#
# Total GULP energy -156385.374181 kJ/mol
# GULP energy per Si atom -5585.191935 kJ/mol
# Density = 2.434414 g / cm^3
# Si number density = 24.399672 Si / 1000 Ang^3
#
#
#
# Elastic Constant Matrix: (Units=GPa)
#
#
# Indices 1 2 3 4 5 6 
#
# 1 85.3046 34.0759 8.4698 0.0000 0.0000 0.0000
# 2 34.0759 74.5113 25.5151 0.0000 0.0000 0.0000
# 3 8.4698 25.5151 53.9639 0.0000 0.0000 0.0000
# 4 0.0000 0.0000 0.0000 12.8423 0.0000 0.0000
# 5 0.0000 0.0000 0.0000 0.0000 26.9018 0.0000
# 6 0.0000 0.0000 0.0000 0.0000 0.0000 46.6603
#
#
#
# Elastic Compliance Matrix: (Units=1/GPa)
#
#
# Indices 1 2 3 4 5 6 
#
# 1 0.014390 -0.006929 0.001018 0.000000 0.000000 0.000000
# 2 -0.006929 0.019350 -0.008062 0.000000 0.000000 0.000000
# 3 0.001018 -0.008062 0.022183 0.000000 0.000000 0.000000
# 4 0.000000 0.000000 0.000000 0.077868 0.000000 0.000000
# 5 0.000000 0.000000 0.000000 0.000000 0.037172 0.000000
# 6 0.000000 0.000000 0.000000 0.000000 0.000000 0.021431
#
#
# Mechanical properties :
#
#
# Convention : Reuss Voigt Hill
#
# Bulk Modulus (GPa) = 35.74417 38.87793 37.31105
# Shear Modulus (GPa) = 21.77074 26.99546 24.38310
#
# Velocity S-wave (km/s) = 2.99031 3.32985 3.16463
# Velocity P-wave (km/s) = 5.15789 5.54547 5.35519
#
# Compressibility (1/GPa) = 0.02797659
#
# Stress axis : x y z
#
# Youngs Moduli (GPa) = 69.49451 51.67887 45.07991
#
# Poissons Ratio (x) = 0.35810 -0.04588
# Poissons Ratio (y) = 0.48155 0.36342
# Poissons Ratio (z) = -0.07073 0.41661
#
# Static dielectric constant tensor:
#      x y z
#    x 1.977720 0.000000 0.000000 
#    y 0.000000 1.930020 0.000000 
#    z 0.000000 0.000000 2.030720 
# 
# From -- ./inp_files/15150.got.cif
#   From: 2010.05.17/outbox.cif.g08.bks.cpg/sg20_8_cif.got.tgz:15150.got - 2010.06.03 22:52:26.
