data_PCOD9319533
_publ_section_title
;
Structure prediction by ZEFSAII (Michael W. Deem and Ramdas Pophale) SiO2 
 PCOD9319533
Probable space group: C 2 2 21
;
_chemical_formula_sum "Si O2"
_cell_formula_units_Z 40
_cell_length_a 24.007245
_cell_length_b 5.097813
_cell_length_c 13.363052
_cell_angle_alpha 90.000000
_cell_angle_beta 90.000000
_cell_angle_gamma 90.000000
_cell_volume 1635.429711
_symmetry_space_group_name_H-M "C 2 2 21"
_symmetry_group_IT_number 20
_symmetry_cell_setting 'orthorhombic'
loop_
_space_group_symop_operation_xyz
x,y,z
-x,-y,1/2+z
x,-y,-z
-x,y,1/2-z
1/2+x,1/2+y,z
1/2-x,1/2-y,1/2+z
1/2+x,1/2-y,-z
1/2-x,1/2+y,1/2-z
loop_
_atom_site_type_symbol
_atom_site_label
_atom_site_fract_x
_atom_site_fract_y
_atom_site_fract_z
Si Si1 0.448610 0.425813 0.195512
Si Si2 0.475604 0.763978 0.434995
Si Si3 0.143059 0.366488 0.605823
Si Si4 0.372330 0.784499 0.307298
Si Si5 0.747934 0.123102 0.814539
O O1 0.500000 0.279869 0.250000
O O2 0.480033 0.673388 0.147656
O O3 0.414224 0.292078 0.108755
O O4 0.400033 0.509170 0.272860
O O5 0.463736 0.500000 0.500000
O O6 0.420123 0.877418 0.381987
O O7 0.497664 0.000000 0.500000
O O8 0.149717 0.500000 0.500000
O O9 0.136678 0.556766 0.703274
O O10 0.197375 0.186171 0.622634
O O11 0.311869 0.790956 0.357841
O O12 0.753253 0.320641 0.718837
#
# Coordination Sequence:
#
# PCOD9319533 Si02
#       5
#     8   8   8   8   8
#     4  10  24  44  69 102 148 193 238 297 367 428
#     4  11  28  45  72 106 143 195 245 300 359 430
#     4  11  25  43  72 109 147 191 246 299 369 437
#     4  10  24  45  72 103 144 191 240 304 363 435
#     4  10  21  44  71  97 136 182 234 298 359 422
#
# _framework density 24.458400999999999
#
# number of rings (size 3 to 8) (size 9 to 14) (size 15 to 20)
#    0.000    1.600    2.000    0.000   11.200    1.600 
#    0.000    4.000    0.000    0.000    0.000    0.000 
#    0.000    0.000    0.000    0.000    0.000    0.000 
#
# Total GULP energy -111823.587941 kJ/mol
# GULP energy per Si atom -5591.179397 kJ/mol
# Density = 2.440273 g / cm^3
# Si number density = 24.458401 Si / 1000 Ang^3
#
#
#
# Elastic Constant Matrix: (Units=GPa)
#
#
# Indices 1 2 3 4 5 6 
#
# 1 198.3516 26.9431 28.9349 0.0000 0.0000 0.0000
# 2 26.9431 65.5466 25.9418 0.0000 0.0000 0.0000
# 3 28.9349 25.9418 85.5172 0.0000 0.0000 0.0000
# 4 0.0000 0.0000 0.0000 33.7616 0.0000 0.0000
# 5 0.0000 0.0000 0.0000 0.0000 28.5492 0.0000
# 6 0.0000 0.0000 0.0000 0.0000 0.0000 25.0062
#
#
#
# Elastic Compliance Matrix: (Units=1/GPa)
#
#
# Indices 1 2 3 4 5 6 
#
# 1 0.005469 -0.001723 -0.001328 0.000000 0.000000 0.000000
# 2 -0.001723 0.017880 -0.004841 0.000000 0.000000 0.000000
# 3 -0.001328 -0.004841 0.013611 0.000000 0.000000 0.000000
# 4 0.000000 0.000000 0.000000 0.029619 0.000000 0.000000
# 5 0.000000 0.000000 0.000000 0.000000 0.035027 0.000000
# 6 0.000000 0.000000 0.000000 0.000000 0.000000 0.039990
#
#
# Mechanical properties :
#
#
# Convention : Reuss Voigt Hill
#
# Bulk Modulus (GPa) = 47.21974 57.00613 52.11294
# Shear Modulus (GPa) = 30.40611 35.30312 32.85461
#
# Velocity S-wave (km/s) = 3.52970 3.80332 3.66906
# Velocity P-wave (km/s) = 5.99664 6.53032 6.26916
#
# Compressibility (1/GPa) = 0.02117759
#
# Stress axis : x y z
#
# Youngs Moduli (GPa) = 182.84010 55.92707 73.46743
#
# Poissons Ratio (x) = 0.09634 0.09756
# Poissons Ratio (y) = 0.31495 0.35567
# Poissons Ratio (z) = 0.24281 0.27076
#
# Static dielectric constant tensor:
#      x y z
#    x 1.961090 0.000000 0.000000 
#    y 0.000000 2.002830 0.000000 
#    z 0.000000 0.000000 1.989980 
# 
# From -- ./inp_files/21923.got.cif
#   From: 2010.05.17/outbox.cif.g08.bks.cpg/sg20_11_cif.got.tgz:21923.got - 2010.06.03 22:52:26.
