data_PCOD9319377
_publ_section_title
;
Structure prediction by ZEFSAII (Michael W. Deem and Ramdas Pophale) SiO2 
 PCOD9319377
Probable space group: C 2 2 21
;
_chemical_formula_sum "Si O2"
_cell_formula_units_Z 32
_cell_length_a 8.912318
_cell_length_b 10.574404
_cell_length_c 16.757028
_cell_angle_alpha 90.000000
_cell_angle_beta 90.000000
_cell_angle_gamma 90.000000
_cell_volume 1579.223392
_symmetry_space_group_name_H-M "C 2 2 21"
_symmetry_group_IT_number 20
_symmetry_cell_setting 'orthorhombic'
loop_
_space_group_symop_operation_xyz
x,y,z
-x,-y,1/2+z
x,-y,-z
-x,y,1/2-z
1/2+x,1/2+y,z
1/2-x,1/2-y,1/2+z
1/2+x,1/2-y,-z
1/2-x,1/2+y,1/2-z
loop_
_atom_site_type_symbol
_atom_site_label
_atom_site_fract_x
_atom_site_fract_y
_atom_site_fract_z
Si Si1 0.304040 0.276229 0.816980
Si Si2 0.774603 0.854826 0.989472
Si Si3 0.582440 0.666916 0.084855
Si Si4 0.163415 0.986146 0.211518
O O1 0.225624 0.304093 0.902395
O O2 0.479927 0.279016 0.842415
O O3 0.271091 0.395024 0.760456
O O4 0.255861 0.141786 0.784431
O O5 0.955884 0.850809 0.983083
O O6 0.706835 0.763813 0.055823
O O7 0.728231 0.000000 0.000000
O O8 0.645738 0.537063 0.120908
O O9 0.000000 0.961462 0.250000
#
# Coordination Sequence:
#
# PCOD9319377 Si02
#       4
#     8   8   8   8
#     4   9  23  40  66  91 125 169 206 268 313 369
#     4  10  23  39  62  93 129 166 205 259 316 373
#     4   9  23  39  65  88 131 161 213 258 313 378
#     4  10  21  42  62  94 125 167 215 263 315 375
#
# _framework density 20.263123
#
# number of rings (size 3 to 8) (size 9 to 14) (size 15 to 20)
#    1.500    1.000    0.000    0.000    7.000    2.000 
#    4.500    0.000    0.000    0.000    0.000    0.000 
#    0.000    0.000    0.000    0.000    0.000    0.000 
#
# Total GULP energy -89137.932255 kJ/mol
# GULP energy per Si atom -5571.120766 kJ/mol
# Density = 2.021700 g / cm^3
# Si number density = 20.263123 Si / 1000 Ang^3
#
#
#
# Elastic Constant Matrix: (Units=GPa)
#
#
# Indices 1 2 3 4 5 6 
#
# 1 24.9738 39.8883 16.2357 0.0000 0.0000 0.0000
# 2 39.8883 156.4023 39.0066 0.0000 0.0000 0.0000
# 3 16.2357 39.0066 60.6824 0.0000 0.0000 0.0000
# 4 0.0000 0.0000 0.0000 33.4806 0.0000 0.0000
# 5 0.0000 0.0000 0.0000 0.0000 27.6924 0.0000
# 6 0.0000 0.0000 0.0000 0.0000 0.0000 26.4104
#
#
#
# Elastic Compliance Matrix: (Units=1/GPa)
#
#
# Indices 1 2 3 4 5 6 
#
# 1 0.071301 -0.015990 -0.008798 0.000000 0.000000 0.000000
# 2 -0.015990 0.011200 -0.002921 0.000000 0.000000 0.000000
# 3 -0.008798 -0.002921 0.020711 0.000000 0.000000 0.000000
# 4 0.000000 0.000000 0.000000 0.029868 0.000000 0.000000
# 5 0.000000 0.000000 0.000000 0.000000 0.036111 0.000000
# 6 0.000000 0.000000 0.000000 0.000000 0.000000 0.037864
#
#
# Mechanical properties :
#
#
# Convention : Reuss Voigt Hill
#
# Bulk Modulus (GPa) = 20.92355 48.03553 34.47954
# Shear Modulus (GPa) = 17.95935 27.31188 22.63561
#
# Velocity S-wave (km/s) = 2.98032 3.67531 3.34591
# Velocity P-wave (km/s) = 4.71078 6.46280 5.65505
#
# Compressibility (1/GPa) = 0.04779303
#
# Stress axis : x y z
#
# Youngs Moduli (GPa) = 14.02501 89.28224 48.28311
#
# Poissons Ratio (x) = 1.42763 0.42481
# Poissons Ratio (y) = 0.22426 0.14106
# Poissons Ratio (z) = 0.12340 0.26083
#
# Static dielectric constant tensor:
#      x y z
#    x 1.722340 0.000000 0.000000 
#    y 0.000000 1.669160 0.000000 
#    z 0.000000 0.000000 1.800030 
# 
# From -- ./inp_files/18196.got.cif
#   From: 2010.05.17/outbox.cif.g08.bks.cpg/sg20_10_cif.got.tgz:18196.got - 2010.06.03 22:52:26.
