data_PCOD9319168
_publ_section_title
;
Structure prediction by ZEFSAII (Michael W. Deem and Ramdas Pophale) SiO2 
 PCOD9319168
Probable space group: C 2 2 21
;
_chemical_formula_sum "Si O2"
_cell_formula_units_Z 60
_cell_length_a 17.752490
_cell_length_b 8.862854
_cell_length_c 17.132903
_cell_angle_alpha 90.000000
_cell_angle_beta 90.000000
_cell_angle_gamma 90.000000
_cell_volume 2695.652015
_symmetry_space_group_name_H-M "C 2 2 21"
_symmetry_group_IT_number 20
_symmetry_cell_setting 'orthorhombic'
loop_
_space_group_symop_operation_xyz
x,y,z
-x,-y,1/2+z
x,-y,-z
-x,y,1/2-z
1/2+x,1/2+y,z
1/2-x,1/2-y,1/2+z
1/2+x,1/2-y,-z
1/2-x,1/2+y,1/2-z
loop_
_atom_site_type_symbol
_atom_site_label
_atom_site_fract_x
_atom_site_fract_y
_atom_site_fract_z
Si Si1 0.592524 0.294183 0.868926
Si Si2 0.351602 0.941575 0.177694
Si Si3 0.500000 0.102338 0.750000
Si Si4 0.484441 0.821130 0.520834
Si Si5 0.721058 0.715360 0.415333
Si Si6 0.131851 0.098456 0.918880
Si Si7 0.234472 0.405808 0.160278
Si Si8 0.348578 0.774814 0.918454
O O1 0.553445 0.209648 0.798951
O O2 0.536195 0.262420 0.940350
O O3 0.606068 0.470913 0.858600
O O4 0.672527 0.207283 0.878200
O O5 0.330389 0.056283 0.108884
O O6 0.437743 0.985992 0.199996
O O7 0.345863 0.774697 0.140642
O O8 0.297816 0.944802 0.253745
O O9 0.421342 0.745531 0.576040
O O10 0.564489 0.775756 0.556425
O O11 0.480221 0.000000 0.500000
O O12 0.786593 0.836934 0.403806
O O13 0.754637 0.557619 0.388315
O O14 0.694512 0.719790 0.504227
O O15 0.132649 0.000000 0.000000
O O16 0.315519 0.324254 0.152884
#
# Coordination Sequence:
#
# PCOD9319168 Si02
#       8
#     8   8   4   8   8   8   8   8
#     4  10  21  40  62  90 128 169 213 266 328 397
#     4  11  24  44  66  93 133 178 220 272 341 409
#     4  10  22  40  66  92 126 174 218 264 330 402
#     4  11  22  38  62  93 128 163 211 272 326 380
#     4  12  23  40  68  98 129 174 229 283 332 393
#     4  10  22  38  61  91 126 164 208 267 333 387
#     4  11  25  42  65  96 136 177 221 273 340 409
#     4  12  24  41  66  97 129 171 228 283 332 396
#
# _framework density 22.258067
#
# number of rings (size 3 to 8) (size 9 to 14) (size 15 to 20)
#    0.000    1.067    0.000    8.000    0.000    6.400 
#    0.000    1.333    0.000    1.600    0.000    0.000 
#    0.000    0.000    0.000    0.000    0.000    0.000 
#
# Total GULP energy -167511.828658 kJ/mol
# GULP energy per Si atom -5583.727622 kJ/mol
# Density = 2.220741 g / cm^3
# Si number density = 22.258067 Si / 1000 Ang^3
#
#
#
# Elastic Constant Matrix: (Units=GPa)
#
#
# Indices 1 2 3 4 5 6 
#
# 1 101.0891 36.4441 14.7965 0.0000 0.0000 0.0000
# 2 36.4441 88.3867 0.7937 0.0000 0.0000 0.0000
# 3 14.7965 0.7937 54.8748 0.0000 0.0000 0.0000
# 4 0.0000 0.0000 0.0000 18.3570 0.0000 0.0000
# 5 0.0000 0.0000 0.0000 0.0000 35.5183 0.0000
# 6 0.0000 0.0000 0.0000 0.0000 0.0000 23.6146
#
#
#
# Elastic Compliance Matrix: (Units=1/GPa)
#
#
# Indices 1 2 3 4 5 6 
#
# 1 0.012159 -0.004984 -0.003206 0.000000 0.000000 0.000000
# 2 -0.004984 0.013359 0.001151 0.000000 0.000000 0.000000
# 3 -0.003206 0.001151 0.019071 0.000000 0.000000 0.000000
# 4 0.000000 0.000000 0.000000 0.054475 0.000000 0.000000
# 5 0.000000 0.000000 0.000000 0.000000 0.028154 0.000000
# 6 0.000000 0.000000 0.000000 0.000000 0.000000 0.042347
#
#
# Mechanical properties :
#
#
# Convention : Reuss Voigt Hill
#
# Bulk Modulus (GPa) = 32.77772 38.71323 35.74548
# Shear Modulus (GPa) = 25.79786 28.31907 27.05847
#
# Velocity S-wave (km/s) = 3.40815 3.57081 3.49043
# Velocity P-wave (km/s) = 5.49959 5.86784 5.68670
#
# Compressibility (1/GPa) = 0.03050852
#
# Stress axis : x y z
#
# Youngs Moduli (GPa) = 82.24660 74.85688 52.43504
#
# Poissons Ratio (x) = 0.37312 0.16812
# Poissons Ratio (y) = 0.40996 -0.06034
# Poissons Ratio (z) = 0.26371 -0.08614
#
# Static dielectric constant tensor:
#      x y z
#    x 1.867250 0.000000 0.000000 
#    y 0.000000 1.867510 0.000000 
#    z 0.000000 0.000000 1.919110 
# 
# From -- ./inp_files/25289.got.cif
#   From: 2010.05.17/outbox.cif.g08.bks.cpg/sg20_13_cif.got.tgz:25289.got - 2010.06.03 22:52:26.
