data_PCOD9319680
_publ_section_title
;
Structure prediction by ZEFSAII (Michael W. Deem and Ramdas Pophale) SiO2 
 PCOD9319680
Probable space group: C 2 2 21
;
_chemical_formula_sum "Si O2"
_cell_formula_units_Z 40
_cell_length_a 5.194492
_cell_length_b 19.494374
_cell_length_c 19.538040
_cell_angle_alpha 90.000000
_cell_angle_beta 90.000000
_cell_angle_gamma 90.000000
_cell_volume 1978.487769
_symmetry_space_group_name_H-M "C 2 2 21"
_symmetry_group_IT_number 20
_symmetry_cell_setting 'orthorhombic'
loop_
_space_group_symop_operation_xyz
x,y,z
-x,-y,1/2+z
x,-y,-z
-x,y,1/2-z
1/2+x,1/2+y,z
1/2-x,1/2-y,1/2+z
1/2+x,1/2-y,-z
1/2-x,1/2+y,1/2-z
loop_
_atom_site_type_symbol
_atom_site_label
_atom_site_fract_x
_atom_site_fract_y
_atom_site_fract_z
Si Si1 0.000000 0.018115 0.750000
Si Si2 0.952557 0.405911 0.462492
Si Si3 0.639949 0.244354 0.953942
Si Si4 0.691150 0.118617 0.392691
Si Si5 0.456725 0.526518 0.599778
Si Si6 0.000000 0.423568 0.750000
O O1 0.968931 0.055107 0.677433
O O2 0.747929 0.971496 0.759797
O O3 0.921574 0.331463 0.427318
O O4 0.713285 0.452226 0.439931
O O5 0.995203 0.392529 0.543476
O O6 0.213914 0.440668 0.437769
O O7 0.672737 0.308542 0.903987
O O8 0.408843 0.262421 0.005561
O O9 0.549870 0.116762 0.319958
O O10 0.890740 0.054558 0.395069
#
# Coordination Sequence:
#
# PCOD9319680 Si02
#       6
#     4   8   8   8   8   4
#     4  10  22  40  57  88 127 158 194 248 316 348
#     4  11  23  38  61  94 122 153 199 252 303 351
#     4  10  22  39  59  85 123 157 188 244 306 354
#     4  10  23  40  63  90 121 159 206 246 297 356
#     4  11  23  39  63  89 118 159 202 251 294 356
#     4  10  22  38  61  88 119 160 200 250 292 352
#
# _framework density 20.217462000000001
#
# number of rings (size 3 to 8) (size 9 to 14) (size 15 to 20)
#    0.000    1.600    0.000    5.400    0.000   19.200 
#    0.000    1.000    0.000   14.400    0.000    0.000 
#    0.000    0.000    0.000    0.000    0.000    0.000 
#
# Total GULP energy -111770.275802 kJ/mol
# GULP energy per Si atom -5588.513790 kJ/mol
# Density = 2.017145 g / cm^3
# Si number density = 20.217462 Si / 1000 Ang^3
#
#
#
# Elastic Constant Matrix: (Units=GPa)
#
#
# Indices 1 2 3 4 5 6 
#
# 1 88.4754 3.4715 56.5102 0.0000 0.0000 0.0000
# 2 3.4715 78.3050 38.2710 0.0000 0.0000 0.0000
# 3 56.5102 38.2710 137.2059 0.0000 0.0000 0.0000
# 4 0.0000 0.0000 0.0000 23.1489 0.0000 0.0000
# 5 0.0000 0.0000 0.0000 0.0000 14.0341 0.0000
# 6 0.0000 0.0000 0.0000 0.0000 0.0000 6.7447
#
#
#
# Elastic Compliance Matrix: (Units=1/GPa)
#
#
# Indices 1 2 3 4 5 6 
#
# 1 0.015881 0.002886 -0.007346 0.000000 0.000000 0.000000
# 2 0.002886 0.015311 -0.005459 0.000000 0.000000 0.000000
# 3 -0.007346 -0.005459 0.011837 0.000000 0.000000 0.000000
# 4 0.000000 0.000000 0.000000 0.043199 0.000000 0.000000
# 5 0.000000 0.000000 0.000000 0.000000 0.071255 0.000000
# 6 0.000000 0.000000 0.000000 0.000000 0.000000 0.148264
#
#
# Mechanical properties :
#
#
# Convention : Reuss Voigt Hill
#
# Bulk Modulus (GPa) = 43.12115 55.61020 49.36567
# Shear Modulus (GPa) = 15.00079 22.50110 18.75095
#
# Velocity S-wave (km/s) = 2.72687 3.33972 3.04873
# Velocity P-wave (km/s) = 5.59369 6.51439 6.07152
#
# Compressibility (1/GPa) = 0.02319048
#
# Stress axis : x y z
#
# Youngs Moduli (GPa) = 62.96709 65.31311 84.48313
#
# Poissons Ratio (x) = -0.18851 0.62061
# Poissons Ratio (y) = -0.18174 0.46123
# Poissons Ratio (z) = 0.46256 0.35657
#
# Static dielectric constant tensor:
#      x y z
#    x 1.699200 0.000000 0.000000 
#    y 0.000000 1.843850 0.000000 
#    z 0.000000 0.000000 1.831310 
# 
# From -- ./inp_files/22753.got.cif
#   From: 2010.05.17/outbox.cif.g08.bks.cpg/sg20_12_cif.got.tgz:22753.got - 2010.06.03 22:52:26.
