data_PCOD9319572
_publ_section_title
;
Structure prediction by ZEFSAII (Michael W. Deem and Ramdas Pophale) SiO2 
 PCOD9319572
Probable space group: C 2 2 21
;
_chemical_formula_sum "Si O2"
_cell_formula_units_Z 48
_cell_length_a 19.501575
_cell_length_b 8.403558
_cell_length_c 13.082632
_cell_angle_alpha 90.000000
_cell_angle_beta 90.000000
_cell_angle_gamma 90.000000
_cell_volume 2144.015964
_symmetry_space_group_name_H-M "C 2 2 21"
_symmetry_group_IT_number 20
_symmetry_cell_setting 'orthorhombic'
loop_
_space_group_symop_operation_xyz
x,y,z
-x,-y,1/2+z
x,-y,-z
-x,y,1/2-z
1/2+x,1/2+y,z
1/2-x,1/2-y,1/2+z
1/2+x,1/2-y,-z
1/2-x,1/2+y,1/2-z
loop_
_atom_site_type_symbol
_atom_site_label
_atom_site_fract_x
_atom_site_fract_y
_atom_site_fract_z
Si Si1 0.590822 0.224298 0.141320
Si Si2 0.897536 0.000000 0.500000
Si Si3 0.429139 0.307584 0.868233
Si Si4 0.000000 0.532757 0.750000
Si Si5 0.659699 0.500000 0.500000
Si Si6 0.000000 0.050038 0.750000
Si Si7 0.321116 0.341189 0.686644
Si Si8 0.778689 0.518880 0.335540
O O1 0.566948 0.341302 0.233861
O O2 0.547118 0.071986 0.175259
O O3 0.667712 0.156199 0.130231
O O4 0.570873 0.332999 0.043696
O O5 0.849844 0.939118 0.592390
O O6 0.458056 0.139815 0.831434
O O7 0.390286 0.351012 0.972855
O O8 0.489198 0.435672 0.847077
O O9 0.375401 0.346067 0.778279
O O10 0.713034 0.491585 0.407384
O O11 0.251202 0.420750 0.727594
O O12 0.312654 0.153960 0.666230
#
# Coordination Sequence:
#
# PCOD9319572 Si02
#       8
#     8   4   8   4   4   4   8   8
#     4  11  23  42  72 103 135 186 235 291 351 427
#     4  12  24  41  66 108 135 180 238 292 356 420
#     4  10  21  46  70 100 136 190 230 299 352 425
#     4  10  22  46  76 100 144 190 238 288 362 430
#     4  10  24  41  70 104 141 178 238 296 360 410
#     4  10  22  42  70  94 138 190 234 274 366 428
#     4  11  23  42  69  97 141 185 235 296 357 419
#     4  11  23  43  70 102 142 185 237 294 355 424
#
# _framework density 22.387892999999998
#
# number of rings (size 3 to 8) (size 9 to 14) (size 15 to 20)
#    0.000    1.333    3.333    2.000    2.333    2.000 
#    0.000    0.000    0.000    2.000    0.000    0.000 
#    0.000    0.000    0.000    0.000    0.000    0.000 
#
# Total GULP energy -133712.676349 kJ/mol
# GULP energy per Si atom -5571.361515 kJ/mol
# Density = 2.233694 g / cm^3
# Si number density = 22.387893 Si / 1000 Ang^3
#
#
#
# Elastic Constant Matrix: (Units=GPa)
#
#
# Indices 1 2 3 4 5 6 
#
# 1 84.3241 55.2792 29.4859 0.0000 0.0000 0.0000
# 2 55.2792 149.3161 41.7653 0.0000 0.0000 0.0000
# 3 29.4859 41.7653 74.1331 0.0000 0.0000 0.0000
# 4 0.0000 0.0000 0.0000 35.5037 0.0000 0.0000
# 5 0.0000 0.0000 0.0000 0.0000 29.6288 0.0000
# 6 0.0000 0.0000 0.0000 0.0000 0.0000 1.5879
#
#
#
# Elastic Compliance Matrix: (Units=1/GPa)
#
#
# Indices 1 2 3 4 5 6 
#
# 1 0.016472 -0.005064 -0.003699 0.000000 0.000000 0.000000
# 2 -0.005064 0.009507 -0.003342 0.000000 0.000000 0.000000
# 3 -0.003699 -0.003342 0.016843 0.000000 0.000000 0.000000
# 4 0.000000 0.000000 0.000000 0.028166 0.000000 0.000000
# 5 0.000000 0.000000 0.000000 0.000000 0.033751 0.000000
# 6 0.000000 0.000000 0.000000 0.000000 0.000000 0.629766
#
#
# Mechanical properties :
#
#
# Convention : Reuss Voigt Hill
#
# Bulk Modulus (GPa) = 53.72553 62.31489 58.02021
# Shear Modulus (GPa) = 6.53665 25.42694 15.98180
#
# Velocity S-wave (km/s) = 1.71057 3.37374 2.67471
# Velocity P-wave (km/s) = 5.28688 6.56283 5.95910
#
# Compressibility (1/GPa) = 0.01861313
#
# Stress axis : x y z
#
# Youngs Moduli (GPa) = 60.70970 105.19065 59.37124
#
# Poissons Ratio (x) = 0.53264 0.21960
# Poissons Ratio (y) = 0.30741 0.19841
# Poissons Ratio (z) = 0.22456 0.35153
#
# Static dielectric constant tensor:
#      x y z
#    x 1.938120 0.000000 0.000000 
#    y 0.000000 1.859820 0.000000 
#    z 0.000000 0.000000 1.859060 
# 
# From -- ./inp_files/21687.got.cif
#   From: 2010.05.17/outbox.cif.g08.bks.cpg/sg20_11_cif.got.tgz:21687.got - 2010.06.03 22:52:26.
