data_PCOD9319599
_publ_section_title
;
Structure prediction by ZEFSAII (Michael W. Deem and Ramdas Pophale) SiO2 
 PCOD9319599
Probable space group: C 2 2 21
;
_chemical_formula_sum "Si O2"
_cell_formula_units_Z 52
_cell_length_a 5.655104
_cell_length_b 22.605269
_cell_length_c 21.378976
_cell_angle_alpha 90.000000
_cell_angle_beta 90.000000
_cell_angle_gamma 90.000000
_cell_volume 2732.984543
_symmetry_space_group_name_H-M "C 2 2 21"
_symmetry_group_IT_number 20
_symmetry_cell_setting 'orthorhombic'
loop_
_space_group_symop_operation_xyz
x,y,z
-x,-y,1/2+z
x,-y,-z
-x,y,1/2-z
1/2+x,1/2+y,z
1/2-x,1/2-y,1/2+z
1/2+x,1/2-y,-z
1/2-x,1/2+y,1/2-z
loop_
_atom_site_type_symbol
_atom_site_label
_atom_site_fract_x
_atom_site_fract_y
_atom_site_fract_z
Si Si1 0.658164 0.189689 0.581140
Si Si2 0.752460 0.864998 0.287556
Si Si3 0.750097 0.996095 0.714007
Si Si4 0.653247 0.103889 0.995571
Si Si5 0.451845 0.500000 0.000000
Si Si6 0.222557 0.423442 0.589827
Si Si7 0.458394 0.691796 0.457809
O O1 0.750257 0.174148 0.649529
O O2 0.521839 0.132397 0.554268
O O3 0.494938 0.247809 0.579237
O O4 0.845977 0.203099 0.526121
O O5 0.500000 0.855705 0.250000
O O6 0.758364 0.934684 0.305731
O O7 0.000000 0.853898 0.250000
O O8 0.500000 0.990182 0.750000
O O9 0.000000 0.985659 0.750000
O O10 0.731082 0.949469 0.658115
O O11 0.524974 0.072969 0.053945
O O12 0.802582 0.156981 0.025413
O O13 0.807480 0.051989 0.965926
O O14 0.604846 0.464079 0.950919
O O15 0.302673 0.355523 0.580459
#
# Coordination Sequence:
#
# PCOD9319599 Si02
#       7
#     8   8   8   8   4   8   8
#     4  11  22  40  68  89 136 166 218 273 329 385
#     4  10  25  43  65  97 127 175 224 267 323 394
#     4  10  24  43  67  93 130 177 216 268 332 395
#     4  10  22  36  61  97 126 162 205 269 335 389
#     4  10  22  34  60  98 128 154 206 272 336 388
#     4  10  23  39  60  95 128 161 219 264 324 402
#     4  10  22  39  63  98 120 172 211 268 340 386
#
# _framework density 19.026819
#
# number of rings (size 3 to 8) (size 9 to 14) (size 15 to 20)
#    0.000    1.846    1.538    0.462   15.077    1.231 
#    0.000    0.769    0.000    0.000    0.000    0.000 
#    0.000    0.000    0.000    0.000    0.000    0.000 
#
# Total GULP energy -144970.877448 kJ/mol
# GULP energy per Si atom -5575.802979 kJ/mol
# Density = 1.898351 g / cm^3
# Si number density = 19.026819 Si / 1000 Ang^3
#
#
#
# Elastic Constant Matrix: (Units=GPa)
#
#
# Indices 1 2 3 4 5 6 
#
# 1 77.4766 26.8974 26.1664 0.0000 0.0000 0.0000
# 2 26.8974 93.0453 61.9943 0.0000 0.0000 0.0000
# 3 26.1664 61.9943 90.9130 0.0000 0.0000 0.0000
# 4 0.0000 0.0000 0.0000 29.9135 0.0000 0.0000
# 5 0.0000 0.0000 0.0000 0.0000 -9.0103 0.0000
# 6 0.0000 0.0000 0.0000 0.0000 0.0000 30.7862
#
#
#
# Elastic Compliance Matrix: (Units=1/GPa)
#
#
# Indices 1 2 3 4 5 6 
#
# 1 0.014635 -0.002610 -0.002432 0.000000 0.000000 0.000000
# 2 -0.002610 0.020162 -0.012997 0.000000 0.000000 0.000000
# 3 -0.002432 -0.012997 0.020563 0.000000 0.000000 0.000000
# 4 0.000000 0.000000 0.000000 0.033430 0.000000 0.000000
# 5 0.000000 0.000000 0.000000 0.000000 -0.110984 0.000000
# 6 0.000000 0.000000 0.000000 0.000000 0.000000 0.032482
#
#
# Mechanical properties :
#
#
# Convention : Reuss Voigt Hill
#
# Bulk Modulus (GPa) = 51.86770 54.61678 53.24224
# Shear Modulus (GPa) = 94.71004 20.09632 57.40318
#
# Velocity S-wave (km/s) = 7.06295 3.25346 5.49865
# Velocity P-wave (km/s) = 9.68675 6.54835 8.26783
#
# Compressibility (1/GPa) = 0.01927982
#
# Stress axis : x y z
#
# Youngs Moduli (GPa) = 68.33075 49.59876 48.63194
#
# Poissons Ratio (x) = 0.12945 0.11829
# Poissons Ratio (y) = 0.17834 0.63209
# Poissons Ratio (z) = 0.16621 0.64465
#
# Static dielectric constant tensor:
#      x y z
#    x 1.768620 0.000000 0.000000 
#    y 0.000000 1.662790 0.000000 
#    z 0.000000 0.000000 1.627090 
# 
# From -- ./inp_files/26110.got.cif
#   From: 2010.05.17/outbox.cif.g08.bks.cpg/sg20_14_cif.got.tgz:26110.got - 2010.06.03 22:52:26.
