data_PCOD9319362
_publ_section_title
;
Structure prediction by ZEFSAII (Michael W. Deem and Ramdas Pophale) SiO2 
 PCOD9319362
Probable space group: C 2 2 21
;
_chemical_formula_sum "Si O2"
_cell_formula_units_Z 24
_cell_length_a 25.254416
_cell_length_b 5.383246
_cell_length_c 7.256607
_cell_angle_alpha 90.000000
_cell_angle_beta 90.000000
_cell_angle_gamma 90.000000
_cell_volume 986.541047
_symmetry_space_group_name_H-M "C 2 2 21"
_symmetry_group_IT_number 20
_symmetry_cell_setting 'orthorhombic'
loop_
_space_group_symop_operation_xyz
x,y,z
-x,-y,1/2+z
x,-y,-z
-x,y,1/2-z
1/2+x,1/2+y,z
1/2-x,1/2-y,1/2+z
1/2+x,1/2-y,-z
1/2-x,1/2+y,1/2-z
loop_
_atom_site_type_symbol
_atom_site_label
_atom_site_fract_x
_atom_site_fract_y
_atom_site_fract_z
Si Si1 0.896093 0.725629 0.301234
Si Si2 0.561241 0.275240 0.781022
Si Si3 0.781064 0.423641 0.790689
O O1 0.924930 0.495471 0.205091
O O2 0.922497 0.751258 0.503297
O O3 0.834712 0.656894 0.310819
O O4 0.904869 0.992750 0.210388
O O5 0.500000 0.331605 0.750000
O O6 0.755171 0.674869 0.707941
O O7 0.793969 0.500000 0.000000
#
# Coordination Sequence:
#
# PCOD9319362 Si02
#       3
#     8   8   8
#     4  10  23  43  68 105 145 190 244 311 376 447
#     4  10  21  41  72 101 140 194 244 304 375 446
#     4  12  28  48  78 111 152 205 260 318 391 460
#
# _framework density 24.327421999999999
#
# number of rings (size 3 to 8) (size 9 to 14) (size 15 to 20)
#    0.000    1.333    0.000    4.000   14.000    0.000 
#   18.000    0.000    0.000    0.000    0.000    0.000 
#    0.000    0.000    0.000    0.000    0.000    0.000 
#
# Total GULP energy -67121.775214 kJ/mol
# GULP energy per Si atom -5593.481268 kJ/mol
# Density = 2.427205 g / cm^3
# Si number density = 24.327422 Si / 1000 Ang^3
#
#
#
# Elastic Constant Matrix: (Units=GPa)
#
#
# Indices 1 2 3 4 5 6 
#
# 1 169.0578 55.7730 47.2561 0.0000 0.0000 0.0000
# 2 55.7730 248.1060 26.0119 0.0000 0.0000 0.0000
# 3 47.2561 26.0119 130.2691 0.0000 0.0000 0.0000
# 4 0.0000 0.0000 0.0000 -5.3619 0.0000 0.0000
# 5 0.0000 0.0000 0.0000 0.0000 34.4438 0.0000
# 6 0.0000 0.0000 0.0000 0.0000 0.0000 56.7422
#
#
#
# Elastic Compliance Matrix: (Units=1/GPa)
#
#
# Indices 1 2 3 4 5 6 
#
# 1 0.006989 -0.001333 -0.002269 0.000000 0.000000 0.000000
# 2 -0.001333 0.004371 -0.000389 0.000000 0.000000 0.000000
# 3 -0.002269 -0.000389 0.008577 0.000000 0.000000 0.000000
# 4 0.000000 0.000000 0.000000 -0.186500 0.000000 0.000000
# 5 0.000000 0.000000 0.000000 0.000000 0.029033 0.000000
# 6 0.000000 0.000000 0.000000 0.000000 0.000000 0.017624
#
#
# Mechanical properties :
#
#
# Convention : Reuss Voigt Hill
#
# Bulk Modulus (GPa) = 83.65108 89.50165 86.57636
# Shear Modulus (GPa) = -46.32290 45.05761 -0.63264
#
# Velocity S-wave (km/s) = -4.36838 4.30831 -0.51051
# Velocity P-wave (km/s) = 3.00274 7.84978 5.94287
#
# Compressibility (1/GPa) = 0.01195442
#
# Stress axis : x y z
#
# Youngs Moduli (GPa) = 143.07622 228.77834 116.58694
#
# Poissons Ratio (x) = 0.30502 0.26456
# Poissons Ratio (y) = 0.19076 0.04537
# Poissons Ratio (z) = 0.32467 0.08903
#
# Static dielectric constant tensor:
#      x y z
#    x 1.889260 0.000000 0.000000 
#    y 0.000000 1.997060 0.000000 
#    z 0.000000 0.000000 1.959060 
# 
# From -- ./inp_files/10421.got.cif
#   From: 2010.05.17/outbox.cif.g08.bks.cpg/sg20_6_cif.got.tgz:10421.got - 2010.06.03 22:52:26.
