data_PCOD9319725
_publ_section_title
;
Structure prediction by ZEFSAII (Michael W. Deem and Ramdas Pophale) SiO2 
 PCOD9319725
Probable space group: C 2 2 21
;
_chemical_formula_sum "Si O2"
_cell_formula_units_Z 32
_cell_length_a 6.218686
_cell_length_b 34.156415
_cell_length_c 7.313793
_cell_angle_alpha 90.000000
_cell_angle_beta 90.000000
_cell_angle_gamma 90.000000
_cell_volume 1553.508288
_symmetry_space_group_name_H-M "C 2 2 21"
_symmetry_group_IT_number 20
_symmetry_cell_setting 'orthorhombic'
loop_
_space_group_symop_operation_xyz
x,y,z
-x,-y,1/2+z
x,-y,-z
-x,y,1/2-z
1/2+x,1/2+y,z
1/2-x,1/2-y,1/2+z
1/2+x,1/2-y,-z
1/2-x,1/2+y,1/2-z
loop_
_atom_site_type_symbol
_atom_site_label
_atom_site_fract_x
_atom_site_fract_y
_atom_site_fract_z
Si Si1 0.000000 0.729629 0.250000
Si Si2 0.874901 0.075846 0.441000
Si Si3 0.651480 0.500000 0.500000
Si Si4 0.500000 0.963593 0.750000
Si Si5 0.000000 0.864576 0.250000
Si Si6 0.804277 0.297492 0.391161
O O1 0.882955 0.704025 0.401614
O O2 0.838031 0.758765 0.144982
O O3 0.631140 0.063368 0.392379
O O4 0.000000 0.086105 0.250000
O O5 0.892622 0.108976 0.593277
O O6 0.002047 0.037848 0.516843
O O7 0.813883 0.509718 0.335697
O O8 0.831097 0.835879 0.153365
O O9 0.000000 0.295857 0.250000
#
# Coordination Sequence:
#
# PCOD9319725 Si02
#       6
#     4   8   4   4   4   8
#     4  11  22  44  75 102 138 174 240 276 334 428
#     4  10  24  44  63 100 143 182 239 295 345 428
#     4  10  22  38  70 102 130 184 248 298 348 414
#     4  10  22  40  71  99 132 188 236 300 359 400
#     4  11  28  44  70 103 148 186 224 288 361 412
#     4  11  24  43  72 108 135 183 225 287 348 410
#
# _framework density 20.598535999999999
#
# number of rings (size 3 to 8) (size 9 to 14) (size 15 to 20)
#    0.000    1.500    2.500    0.750    8.750    6.000 
#    0.000    1.250    0.000    0.000    0.000    0.000 
#    0.000    0.000    0.000    0.000    0.000    0.000 
#
# Total GULP energy -89473.826548 kJ/mol
# GULP energy per Si atom -5592.114159 kJ/mol
# Density = 2.055165 g / cm^3
# Si number density = 20.598536 Si / 1000 Ang^3
#
#
#
# Elastic Constant Matrix: (Units=GPa)
#
#
# Indices 1 2 3 4 5 6 
#
# 1 120.8790 63.0764 57.1394 0.0000 0.0000 0.0000
# 2 63.0764 131.4010 81.3967 0.0000 0.0000 0.0000
# 3 57.1394 81.3967 157.4741 0.0000 0.0000 0.0000
# 4 0.0000 0.0000 0.0000 29.0284 0.0000 0.0000
# 5 0.0000 0.0000 0.0000 0.0000 39.6460 0.0000
# 6 0.0000 0.0000 0.0000 0.0000 0.0000 -13.8355
#
#
#
# Elastic Compliance Matrix: (Units=1/GPa)
#
#
# Indices 1 2 3 4 5 6 
#
# 1 0.011422 -0.004289 -0.001928 0.000000 0.000000 0.000000
# 2 -0.004289 0.012805 -0.005063 0.000000 0.000000 0.000000
# 3 -0.001928 -0.005063 0.009667 0.000000 0.000000 0.000000
# 4 0.000000 0.000000 0.000000 0.034449 0.000000 0.000000
# 5 0.000000 0.000000 0.000000 0.000000 0.025223 0.000000
# 6 0.000000 0.000000 0.000000 0.000000 0.000000 -0.072278
#
#
# Mechanical properties :
#
#
# Convention : Reuss Voigt Hill
#
# Bulk Modulus (GPa) = 88.21893 90.33102 89.27498
# Shear Modulus (GPa) = 104.98832 24.84388 64.91610
#
# Velocity S-wave (km/s) = 7.14699 3.47666 5.61990
# Velocity P-wave (km/s) = 10.53692 7.75013 9.24909
#
# Compressibility (1/GPa) = 0.01133544
#
# Stress axis : x y z
#
# Youngs Moduli (GPa) = 87.55149 78.09385 103.45000
#
# Poissons Ratio (x) = 0.33493 0.19941
# Poissons Ratio (y) = 0.37549 0.52373
# Poissons Ratio (z) = 0.16876 0.39536
#
# Static dielectric constant tensor:
#      x y z
#    x 1.731740 0.000000 0.000000 
#    y 0.000000 1.708210 0.000000 
#    z 0.000000 0.000000 1.753650 
# 
# From -- ./inp_files/5210.got.cif
#   From: 2010.05.17/outbox.cif.g08.bks.cpg/sg20_3_cif.got.tgz:5210.got - 2010.06.03 22:52:26.
