data_PCOD9319769
_publ_section_title
;
Structure prediction by ZEFSAII (Michael W. Deem and Ramdas Pophale) SiO2 
 PCOD9319769
Probable space group: C 2 2 21
;
_chemical_formula_sum "Si O2"
_cell_formula_units_Z 64
_cell_length_a 11.560603
_cell_length_b 9.035072
_cell_length_c 30.059603
_cell_angle_alpha 90.000000
_cell_angle_beta 90.000000
_cell_angle_gamma 90.000000
_cell_volume 3139.752000
_symmetry_space_group_name_H-M "C 2 2 21"
_symmetry_group_IT_number 20
_symmetry_cell_setting 'orthorhombic'
loop_
_space_group_symop_operation_xyz
x,y,z
-x,-y,1/2+z
x,-y,-z
-x,y,1/2-z
1/2+x,1/2+y,z
1/2-x,1/2-y,1/2+z
1/2+x,1/2-y,-z
1/2-x,1/2+y,1/2-z
loop_
_atom_site_type_symbol
_atom_site_label
_atom_site_fract_x
_atom_site_fract_y
_atom_site_fract_z
Si Si1 0.035605 0.993668 0.418510
Si Si2 0.965975 0.833510 0.824982
Si Si3 0.828620 0.289148 0.926893
Si Si4 0.724265 0.085141 0.676572
Si Si5 0.879475 0.908422 0.235633
Si Si6 0.789045 0.915258 0.420593
Si Si7 0.767064 0.762382 0.664656
Si Si8 0.230357 0.143592 0.480258
O O1 0.048529 0.075865 0.371226
O O2 0.122997 0.069427 0.453429
O O3 0.062810 0.817171 0.414779
O O4 0.903552 0.004678 0.434103
O O5 0.885746 0.689886 0.824258
O O6 0.100851 0.791260 0.821745
O O7 0.922509 0.936650 0.785026
O O8 0.817903 0.468382 0.926238
O O9 0.739708 0.234352 0.888219
O O10 0.801440 0.239036 0.976623
O O11 0.800930 0.095626 0.720580
O O12 0.797210 0.118314 0.631966
O O13 0.694941 0.913162 0.671684
O O14 0.798565 0.849488 0.196145
O O15 0.000000 0.829398 0.250000
O O16 0.782962 0.762736 0.446812
O O17 0.297715 0.000000 0.500000
#
# Coordination Sequence:
#
# PCOD9319769 Si02
#       8
#     8   8   8   8   8   8   8   8
#     4  11  21  43  68  94 134 180 218 281 342 405
#     4  12  23  46  71  95 141 180 224 280 346 408
#     4  10  22  39  65  98 130 172 226 276 337 404
#     4  11  24  41  68 102 129 178 227 274 341 407
#     4  12  24  45  71  98 139 178 227 280 342 409
#     4  11  22  44  68  92 137 178 221 280 343 404
#     4  11  24  46  65  99 137 177 227 281 340 410
#     4  10  23  41  65 101 132 171 230 275 338 413
#
# _framework density 20.383776000000001
#
# number of rings (size 3 to 8) (size 9 to 14) (size 15 to 20)
#    0.000    1.000    6.250    1.125    0.000    3.000 
#    4.500   10.000    0.000    0.000    0.000    0.000 
#    0.000    0.000    0.000    0.000    0.000    0.000 
#
# Total GULP energy -178308.571787 kJ/mol
# GULP energy per Si atom -5572.142868 kJ/mol
# Density = 2.033738 g / cm^3
# Si number density = 20.383776 Si / 1000 Ang^3
#
#
#
# Elastic Constant Matrix: (Units=GPa)
#
#
# Indices 1 2 3 4 5 6 
#
# 1 75.1019 49.6250 30.4482 0.0000 0.0000 0.0000
# 2 49.6250 79.6794 38.6708 0.0000 0.0000 0.0000
# 3 30.4482 38.6708 105.3452 0.0000 0.0000 0.0000
# 4 0.0000 0.0000 0.0000 31.8663 0.0000 0.0000
# 5 0.0000 0.0000 0.0000 0.0000 4.5709 0.0000
# 6 0.0000 0.0000 0.0000 0.0000 0.0000 327.3829
#
#
#
# Elastic Compliance Matrix: (Units=1/GPa)
#
#
# Indices 1 2 3 4 5 6 
#
# 1 0.022869 -0.013427 -0.001681 0.000000 0.000000 0.000000
# 2 -0.013427 0.023155 -0.004619 0.000000 0.000000 0.000000
# 3 -0.001681 -0.004619 0.011674 0.000000 0.000000 0.000000
# 4 0.000000 0.000000 0.000000 0.031381 0.000000 0.000000
# 5 0.000000 0.000000 0.000000 0.000000 0.218775 0.000000
# 6 0.000000 0.000000 0.000000 0.000000 0.000000 0.003055
#
#
# Mechanical properties :
#
#
# Convention : Reuss Voigt Hill
#
# Bulk Modulus (GPa) = 54.81387 55.29053 55.05220
# Shear Modulus (GPa) = 14.02747 82.18952 48.10849
#
# Velocity S-wave (km/s) = 2.62614 6.35677 4.86339
# Velocity P-wave (km/s) = 6.01205 9.00343 7.65528
#
# Compressibility (1/GPa) = 0.01824356
#
# Stress axis : x y z
#
# Youngs Moduli (GPa) = 43.72725 43.18805 85.66078
#
# Poissons Ratio (x) = 0.57990 0.14399
# Poissons Ratio (y) = 0.58714 0.39565
# Poissons Ratio (z) = 0.07350 0.19948
#
# Static dielectric constant tensor:
#      x y z
#    x 1.730170 0.000000 0.000000 
#    y 0.000000 1.753690 0.000000 
#    z 0.000000 0.000000 0.799440 
# 
# From -- ./inp_files/31213.got.cif
#   From: 2010.05.17/outbox.cif.g08.bks.cpg/sg20_16_cif.got.tgz:31213.got - 2010.06.03 22:52:26.
