data_PCOD9319157
_publ_section_title
;
Structure prediction by ZEFSAII (Michael W. Deem and Ramdas Pophale) SiO2 
 PCOD9319157
Probable space group: C 2 2 21
;
_chemical_formula_sum "Si O2"
_cell_formula_units_Z 52
_cell_length_a 8.244735
_cell_length_b 10.668561
_cell_length_c 26.866747
_cell_angle_alpha 90.000000
_cell_angle_beta 90.000000
_cell_angle_gamma 90.000000
_cell_volume 2363.184512
_symmetry_space_group_name_H-M "C 2 2 21"
_symmetry_group_IT_number 20
_symmetry_cell_setting 'orthorhombic'
loop_
_space_group_symop_operation_xyz
x,y,z
-x,-y,1/2+z
x,-y,-z
-x,y,1/2-z
1/2+x,1/2+y,z
1/2-x,1/2-y,1/2+z
1/2+x,1/2-y,-z
1/2-x,1/2+y,1/2-z
loop_
_atom_site_type_symbol
_atom_site_label
_atom_site_fract_x
_atom_site_fract_y
_atom_site_fract_z
Si Si1 0.755803 0.309243 0.219175
Si Si2 0.224782 0.054953 0.081656
Si Si3 0.181220 0.466020 0.793063
Si Si4 0.009489 0.037381 0.841571
Si Si5 0.544816 0.500000 0.500000
Si Si6 0.688676 0.323172 0.422535
Si Si7 0.977021 0.397771 0.132016
O O1 0.822705 0.406497 0.260304
O O2 0.699280 0.168707 0.233908
O O3 0.597964 0.380104 0.198938
O O4 0.882208 0.311595 0.172347
O O5 0.080100 0.048433 0.041933
O O6 0.326588 0.176599 0.069472
O O7 0.346944 0.939588 0.090325
O O8 0.135852 0.060033 0.135205
O O9 0.350709 0.473761 0.821493
O O10 0.039287 0.483970 0.833938
O O11 0.949795 0.128658 0.885299
O O12 0.658605 0.398456 0.473270
O O13 0.862316 0.347755 0.395688
#
# Coordination Sequence:
#
# PCOD9319157 Si02
#       7
#     8   8   8   8   4   8   8
#     4  11  23  38  59  88 122 159 204 250 294 346
#     4  10  21  40  62  84 117 152 190 241 296 354
#     4  11  23  38  59  88 122 159 204 250 294 346
#     4   9  21  39  59  84 116 158 199 239 295 351
#     4  10  24  38  58  94 114 142 194 240 296 362
#     4  10  21  40  62  84 117 152 190 241 296 354
#     4  10  23  39  60  86 116 158 202 239 293 354
#
# _framework density 22.004207999999998
#
# number of rings (size 3 to 8) (size 9 to 14) (size 15 to 20)
#    0.000    1.846    0.000    2.769    0.000   12.923 
#    0.000    3.077    0.000    0.000    0.000    0.000 
#    0.000    0.000    0.000    0.000    0.000    0.000 
#
# Total GULP energy -145004.068761 kJ/mol
# GULP energy per Si atom -5577.079568 kJ/mol
# Density = 2.195412 g / cm^3
# Si number density = 22.004208 Si / 1000 Ang^3
#
#
#
# Elastic Constant Matrix: (Units=GPa)
#
#
# Indices 1 2 3 4 5 6 
#
# 1 75.9349 -7.2087 -1.1249 0.0000 0.0000 0.0000
# 2 -7.2087 89.9241 12.7351 0.0000 0.0000 0.0000
# 3 -1.1249 12.7351 41.3478 0.0000 0.0000 0.0000
# 4 0.0000 0.0000 0.0000 17.4650 0.0000 0.0000
# 5 0.0000 0.0000 0.0000 0.0000 37.8657 0.0000
# 6 0.0000 0.0000 0.0000 0.0000 0.0000 4.9198
#
#
#
# Elastic Compliance Matrix: (Units=1/GPa)
#
#
# Indices 1 2 3 4 5 6 
#
# 1 0.013270 0.001059 0.000035 0.000000 0.000000 0.000000
# 2 0.001059 0.011712 -0.003579 0.000000 0.000000 0.000000
# 3 0.000035 -0.003579 0.025288 0.000000 0.000000 0.000000
# 4 0.000000 0.000000 0.000000 0.057257 0.000000 0.000000
# 5 0.000000 0.000000 0.000000 0.000000 0.026409 0.000000
# 6 0.000000 0.000000 0.000000 0.000000 0.000000 0.203262
#
#
# Mechanical properties :
#
#
# Convention : Reuss Voigt Hill
#
# Bulk Modulus (GPa) = 22.07454 24.00108 23.03781
# Shear Modulus (GPa) = 13.99508 25.57045 19.78277
#
# Velocity S-wave (km/s) = 2.52468 3.41261 3.00166
# Velocity P-wave (km/s) = 4.30725 5.14384 4.74402
#
# Compressibility (1/GPa) = 0.04530106
#
# Stress axis : x y z
#
# Youngs Moduli (GPa) = 75.35675 85.38129 39.54414
#
# Poissons Ratio (x) = -0.09041 -0.00138
# Poissons Ratio (y) = -0.07979 0.14151
# Poissons Ratio (z) = -0.00263 0.30554
#
# Static dielectric constant tensor:
#      x y z
#    x 1.804990 0.000000 0.000000 
#    y 0.000000 1.822910 0.000000 
#    z 0.000000 0.000000 1.854720 
# 
# From -- ./inp_files/30102.got.cif
#   From: 2010.05.17/outbox.cif.g08.bks.cpg/sg20_16_cif.got.tgz:30102.got - 2010.06.03 22:52:26.
