data_PCOD9319098
_publ_section_title
;
Structure prediction by ZEFSAII (Michael W. Deem and Ramdas Pophale) SiO2 
 PCOD9319098
Probable space group: C 2 2 21
;
_chemical_formula_sum "Si O2"
_cell_formula_units_Z 44
_cell_length_a 21.361737
_cell_length_b 9.393051
_cell_length_c 9.799418
_cell_angle_alpha 90.000000
_cell_angle_beta 90.000000
_cell_angle_gamma 90.000000
_cell_volume 1966.271694
_symmetry_space_group_name_H-M "C 2 2 21"
_symmetry_group_IT_number 20
_symmetry_cell_setting 'orthorhombic'
loop_
_space_group_symop_operation_xyz
x,y,z
-x,-y,1/2+z
x,-y,-z
-x,y,1/2-z
1/2+x,1/2+y,z
1/2-x,1/2-y,1/2+z
1/2+x,1/2-y,-z
1/2-x,1/2+y,1/2-z
loop_
_atom_site_type_symbol
_atom_site_label
_atom_site_fract_x
_atom_site_fract_y
_atom_site_fract_z
Si Si1 0.719083 0.469918 0.283736
Si Si2 0.337359 0.208623 0.090245
Si Si3 0.226941 0.000000 0.000000
Si Si4 0.554161 0.802478 0.139409
Si Si5 0.062771 0.644568 0.174360
Si Si6 0.170323 0.728319 0.703579
O O1 0.681340 0.371183 0.385536
O O2 0.787562 0.398358 0.265031
O O3 0.714385 0.634933 0.322111
O O4 0.691165 0.445673 0.131104
O O5 0.379878 0.168928 0.219228
O O6 0.273174 0.118912 0.065566
O O7 0.364724 0.187697 0.937894
O O8 0.500000 0.760838 0.250000
O O9 0.617542 0.730298 0.191343
O O10 0.560871 0.973534 0.156291
O O11 0.555668 0.785092 0.975581
O O12 0.000000 0.690559 0.250000
#
# Coordination Sequence:
#
# PCOD9319098 Si02
#       6
#     8   8   4   8   8   8
#     4  11  23  40  62  95 134 182 222 271 332 398
#     4  11  22  39  64  92 133 173 224 275 332 392
#     4  10  22  40  60  94 132 178 214 278 326 396
#     4  10  22  40  67  97 132 174 223 281 339 407
#     4  10  21  39  65  98 128 172 228 282 337 399
#     4  11  24  42  64  96 136 178 222 276 331 399
#
# _framework density 22.377376000000002
#
# number of rings (size 3 to 8) (size 9 to 14) (size 15 to 20)
#    0.000    1.455    1.818    3.818    2.545    2.909 
#    6.545    0.909    0.000    0.000    0.000    0.000 
#    0.000    0.000    0.000    0.000    0.000    0.000 
#
# Total GULP energy -122538.444140 kJ/mol
# GULP energy per Si atom -5569.929279 kJ/mol
# Density = 2.232644 g / cm^3
# Si number density = 22.377376 Si / 1000 Ang^3
#
#
#
# Elastic Constant Matrix: (Units=GPa)
#
#
# Indices 1 2 3 4 5 6 
#
# 1 60.7718 23.9906 51.2543 0.0000 0.0000 0.0000
# 2 23.9906 68.0847 4.9942 0.0000 0.0000 0.0000
# 3 51.2543 4.9942 187.0916 0.0000 0.0000 0.0000
# 4 0.0000 0.0000 0.0000 25.9701 0.0000 0.0000
# 5 0.0000 0.0000 0.0000 0.0000 41.3304 0.0000
# 6 0.0000 0.0000 0.0000 0.0000 0.0000 11.9128
#
#
#
# Elastic Compliance Matrix: (Units=1/GPa)
#
#
# Indices 1 2 3 4 5 6 
#
# 1 0.025511 -0.008493 -0.006762 0.000000 0.000000 0.000000
# 2 -0.008493 0.017544 0.001858 0.000000 0.000000 0.000000
# 3 -0.006762 0.001858 0.007148 0.000000 0.000000 0.000000
# 4 0.000000 0.000000 0.000000 0.038506 0.000000 0.000000
# 5 0.000000 0.000000 0.000000 0.000000 0.024195 0.000000
# 6 0.000000 0.000000 0.000000 0.000000 0.000000 0.083943
#
#
# Mechanical properties :
#
#
# Convention : Reuss Voigt Hill
#
# Bulk Modulus (GPa) = 42.71840 52.93626 47.82733
# Shear Modulus (GPa) = 21.60355 31.55661 26.58008
#
# Velocity S-wave (km/s) = 3.11049 3.75934 3.45020
# Velocity P-wave (km/s) = 5.65965 6.52311 6.10666
#
# Compressibility (1/GPa) = 0.02340911
#
# Stress axis : x y z
#
# Youngs Moduli (GPa) = 39.19909 56.99984 139.90215
#
# Poissons Ratio (x) = 0.48410 0.94603
# Poissons Ratio (y) = 0.33292 -0.25999
# Poissons Ratio (z) = 0.26507 -0.10593
#
# Static dielectric constant tensor:
#      x y z
#    x 1.848070 0.000000 0.000000 
#    y 0.000000 1.865860 0.000000 
#    z 0.000000 0.000000 1.939990 
# 
# From -- ./inp_files/10609.got.cif
#   From: 2010.05.17/outbox.cif.g08.bks.cpg/sg20_6_cif.got.tgz:10609.got - 2010.06.03 22:52:26.
