data_PCOD9319530
_publ_section_title
;
Structure prediction by ZEFSAII (Michael W. Deem and Ramdas Pophale) SiO2 
 PCOD9319530
Probable space group: C 2 2 21
;
_chemical_formula_sum "Si O2"
_cell_formula_units_Z 52
_cell_length_a 14.744816
_cell_length_b 8.718714
_cell_length_c 18.242168
_cell_angle_alpha 90.000000
_cell_angle_beta 90.000000
_cell_angle_gamma 90.000000
_cell_volume 2345.137115
_symmetry_space_group_name_H-M "C 2 2 21"
_symmetry_group_IT_number 20
_symmetry_cell_setting 'orthorhombic'
loop_
_space_group_symop_operation_xyz
x,y,z
-x,-y,1/2+z
x,-y,-z
-x,y,1/2-z
1/2+x,1/2+y,z
1/2-x,1/2-y,1/2+z
1/2+x,1/2-y,-z
1/2-x,1/2+y,1/2-z
loop_
_atom_site_type_symbol
_atom_site_label
_atom_site_fract_x
_atom_site_fract_y
_atom_site_fract_z
Si Si1 0.495262 0.763459 0.664424
Si Si2 0.143683 0.557124 0.425588
Si Si3 0.000000 0.219035 0.250000
Si Si4 0.319239 0.927826 0.617517
Si Si5 0.147253 0.756078 0.641953
Si Si6 0.477983 0.566559 0.397357
Si Si7 0.181495 0.256163 0.039268
O O1 0.500000 0.718012 0.750000
O O2 0.579528 0.857437 0.631549
O O3 0.408333 0.872274 0.658067
O O4 0.485354 0.615033 0.611537
O O5 0.092656 0.500000 0.500000
O O6 0.182391 0.400277 0.392042
O O7 0.225966 0.664798 0.448640
O O8 0.917104 0.297611 0.208772
O O9 0.955434 0.119785 0.314363
O O10 0.228686 0.871319 0.658732
O O11 0.318468 0.837470 0.539625
O O12 0.322939 0.106509 0.598518
O O13 0.076221 0.851876 0.590654
O O14 0.402780 0.641776 0.448545
#
# Coordination Sequence:
#
# PCOD9319530 Si02
#       7
#     8   8   4   8   8   8   8
#     4  12  27  45  70 106 143 191 236 293 364 430
#     4  12  26  44  69 106 141 184 240 296 351 423
#     4   8  22  40  70  94 138 176 228 266 356 404
#     4  11  25  44  73 103 142 179 241 290 356 424
#     4  10  21  44  70  98 136 178 229 285 345 412
#     4  10  22  45  71  99 141 181 233 283 349 421
#     4  11  25  44  70 108 135 185 234 295 354 418
#
# _framework density 22.173544
#
# number of rings (size 3 to 8) (size 9 to 14) (size 15 to 20)
#    0.923    0.308    2.308    2.769    5.385    1.231 
#    0.000    0.000    0.000    0.000    0.000    0.000 
#    0.000    0.000    0.000    0.000    0.000    0.000 
#
# Total GULP energy -145168.634083 kJ/mol
# GULP energy per Si atom -5583.409003 kJ/mol
# Density = 2.212308 g / cm^3
# Si number density = 22.173544 Si / 1000 Ang^3
#
#
#
# Elastic Constant Matrix: (Units=GPa)
#
#
# Indices 1 2 3 4 5 6 
#
# 1 108.1816 32.5569 11.0393 0.0000 0.0000 0.0000
# 2 32.5569 137.9459 24.1523 0.0000 0.0000 0.0000
# 3 11.0393 24.1523 54.9188 0.0000 0.0000 0.0000
# 4 0.0000 0.0000 0.0000 28.3424 0.0000 0.0000
# 5 0.0000 0.0000 0.0000 0.0000 22.9046 0.0000
# 6 0.0000 0.0000 0.0000 0.0000 0.0000 18.0786
#
#
#
# Elastic Compliance Matrix: (Units=1/GPa)
#
#
# Indices 1 2 3 4 5 6 
#
# 1 0.010006 -0.002177 -0.001054 0.000000 0.000000 0.000000
# 2 -0.002177 0.008328 -0.003225 0.000000 0.000000 0.000000
# 3 -0.001054 -0.003225 0.019839 0.000000 0.000000 0.000000
# 4 0.000000 0.000000 0.000000 0.035283 0.000000 0.000000
# 5 0.000000 0.000000 0.000000 0.000000 0.043659 0.000000
# 6 0.000000 0.000000 0.000000 0.000000 0.000000 0.055314
#
#
# Mechanical properties :
#
#
# Convention : Reuss Voigt Hill
#
# Bulk Modulus (GPa) = 39.58631 48.50482 44.04557
# Shear Modulus (GPa) = 25.80497 29.41830 27.61164
#
# Velocity S-wave (km/s) = 3.41511 3.64638 3.53264
# Velocity P-wave (km/s) = 5.78294 6.29688 6.04537
#
# Compressibility (1/GPa) = 0.02526126
#
# Stress axis : x y z
#
# Youngs Moduli (GPa) = 99.93540 120.08189 50.40638
#
# Poissons Ratio (x) = 0.26143 0.05313
# Poissons Ratio (y) = 0.21757 0.16255
# Poissons Ratio (z) = 0.10533 0.38723
#
# Static dielectric constant tensor:
#      x y z
#    x 1.778780 0.000000 0.000000 
#    y 0.000000 1.789190 0.000000 
#    z 0.000000 0.000000 1.875720 
# 
# From -- ./inp_files/27497.got.cif
#   From: 2010.05.17/outbox.cif.g08.bks.cpg/sg20_14_cif.got.tgz:27497.got - 2010.06.03 22:52:26.
