data_PCOD9319528
_publ_section_title
;
Structure prediction by ZEFSAII (Michael W. Deem and Ramdas Pophale) SiO2 
 PCOD9319528
Probable space group: C 2 2 21
;
_chemical_formula_sum "Si O2"
_cell_formula_units_Z 56
_cell_length_a 14.849414
_cell_length_b 8.097372
_cell_length_c 21.916734
_cell_angle_alpha 90.000000
_cell_angle_beta 90.000000
_cell_angle_gamma 90.000000
_cell_volume 2635.295035
_symmetry_space_group_name_H-M "C 2 2 21"
_symmetry_group_IT_number 20
_symmetry_cell_setting 'orthorhombic'
loop_
_space_group_symop_operation_xyz
x,y,z
-x,-y,1/2+z
x,-y,-z
-x,y,1/2-z
1/2+x,1/2+y,z
1/2-x,1/2-y,1/2+z
1/2+x,1/2-y,-z
1/2-x,1/2+y,1/2-z
loop_
_atom_site_type_symbol
_atom_site_label
_atom_site_fract_x
_atom_site_fract_y
_atom_site_fract_z
Si Si1 0.761161 0.812691 0.983537
Si Si2 0.026082 0.122153 0.684787
Si Si3 0.861854 0.092400 0.360841
Si Si4 0.898468 0.219715 0.234877
Si Si5 0.318286 0.114360 0.878557
Si Si6 0.570550 0.313755 0.987031
Si Si7 0.418294 0.828748 0.931984
O O1 0.799911 0.780573 0.916488
O O2 0.669801 0.709076 0.985983
O O3 0.833545 0.745968 0.031717
O O4 0.740946 0.000000 0.000000
O O5 0.000000 0.203761 0.750000
O O6 0.068192 0.234093 0.632350
O O7 0.934209 0.048166 0.656635
O O8 0.085645 0.961184 0.703530
O O9 0.849254 0.196653 0.299276
O O10 0.909653 0.196488 0.414753
O O11 0.768813 0.004792 0.378519
O O12 0.848311 0.338527 0.188773
O O13 0.000000 0.277737 0.250000
O O14 0.395350 0.015550 0.914568
O O15 0.537013 0.500000 0.000000
O O16 0.503351 0.197102 0.023794
#
# Coordination Sequence:
#
# PCOD9319528 Si02
#       7
#     8   8   8   8   8   8   8
#     4  12  26  43  65 102 137 180 233 286 346 421
#     4   9  20  41  66  93 130 184 226 269 351 408
#     4  10  21  44  70  93 141 177 223 279 351 399
#     4   9  23  43  66  91 132 184 228 280 338 413
#     4  12  24  44  66 102 137 176 237 289 346 412
#     4  12  22  45  71 102 140 177 226 289 351 409
#     4  12  24  39  72  99 134 183 221 290 348 411
#
# _framework density 21.249991000000001
#
# number of rings (size 3 to 8) (size 9 to 14) (size 15 to 20)
#    0.000    1.429    4.286    1.714    4.000    4.000 
#    2.571    0.000    0.000    0.000    0.000    0.000 
#    0.000    0.000    0.000    0.000    0.000    0.000 
#
# Total GULP energy -156444.075334 kJ/mol
# GULP energy per Si atom -5587.288405 kJ/mol
# Density = 2.120162 g / cm^3
# Si number density = 21.249991 Si / 1000 Ang^3
#
#
#
# Elastic Constant Matrix: (Units=GPa)
#
#
# Indices 1 2 3 4 5 6 
#
# 1 74.1593 18.5929 55.0379 0.0000 0.0000 0.0000
# 2 18.5929 38.0413 37.7792 0.0000 0.0000 0.0000
# 3 55.0379 37.7792 157.1238 0.0000 0.0000 0.0000
# 4 0.0000 0.0000 0.0000 32.3668 0.0000 0.0000
# 5 0.0000 0.0000 0.0000 0.0000 39.0428 0.0000
# 6 0.0000 0.0000 0.0000 0.0000 0.0000 10.9217
#
#
#
# Elastic Compliance Matrix: (Units=1/GPa)
#
#
# Indices 1 2 3 4 5 6 
#
# 1 0.018557 -0.003434 -0.005674 0.000000 0.000000 0.000000
# 2 -0.003434 0.035169 -0.007253 0.000000 0.000000 0.000000
# 3 -0.005674 -0.007253 0.010096 0.000000 0.000000 0.000000
# 4 0.000000 0.000000 0.000000 0.030896 0.000000 0.000000
# 5 0.000000 0.000000 0.000000 0.000000 0.025613 0.000000
# 6 0.000000 0.000000 0.000000 0.000000 0.000000 0.091561
#
#
# Mechanical properties :
#
#
# Convention : Reuss Voigt Hill
#
# Bulk Modulus (GPa) = 32.15644 54.68270 43.41957
# Shear Modulus (GPa) = 19.60931 26.99389 23.30160
#
# Velocity S-wave (km/s) = 3.04104 3.56800 3.31501
# Velocity P-wave (km/s) = 5.24365 6.53934 5.92701
#
# Compressibility (1/GPa) = 0.03109797
#
# Stress axis : x y z
#
# Youngs Moduli (GPa) = 53.88855 28.43417 99.04930
#
# Poissons Ratio (x) = 0.09766 0.56204
# Poissons Ratio (y) = 0.18508 0.71841
# Poissons Ratio (z) = 0.30578 0.20624
#
# Static dielectric constant tensor:
#      x y z
#    x 1.750090 0.000000 0.000000 
#    y 0.000000 1.754660 0.000000 
#    z 0.000000 0.000000 1.799900 
# 
# From -- ./inp_files/27581.got.cif
#   From: 2010.05.17/outbox.cif.g08.bks.cpg/sg20_14_cif.got.tgz:27581.got - 2010.06.03 22:52:26.
