data_PCOD9319081
_publ_section_title
;
Structure prediction by ZEFSAII (Michael W. Deem and Ramdas Pophale) SiO2 
 PCOD9319081
Probable space group: C 2 2 21
;
_chemical_formula_sum "Si O2"
_cell_formula_units_Z 52
_cell_length_a 8.508529
_cell_length_b 14.169292
_cell_length_c 18.447989
_cell_angle_alpha 90.000000
_cell_angle_beta 90.000000
_cell_angle_gamma 90.000000
_cell_volume 2224.086453
_symmetry_space_group_name_H-M "C 2 2 21"
_symmetry_group_IT_number 20
_symmetry_cell_setting 'orthorhombic'
loop_
_space_group_symop_operation_xyz
x,y,z
-x,-y,1/2+z
x,-y,-z
-x,y,1/2-z
1/2+x,1/2+y,z
1/2-x,1/2-y,1/2+z
1/2+x,1/2-y,-z
1/2-x,1/2+y,1/2-z
loop_
_atom_site_type_symbol
_atom_site_label
_atom_site_fract_x
_atom_site_fract_y
_atom_site_fract_z
Si Si1 0.465562 0.265515 0.469720
Si Si2 0.270394 0.137788 0.366747
Si Si3 0.747071 0.943699 0.428607
Si Si4 0.681182 0.699361 0.657692
Si Si5 0.965423 0.703459 0.868029
Si Si6 0.000000 0.354150 0.750000
Si Si7 0.520012 0.502063 0.330935
O O1 0.375507 0.177694 0.431905
O O2 0.355855 0.356290 0.455784
O O3 0.627262 0.282712 0.425580
O O4 0.500520 0.247657 0.552678
O O5 0.171938 0.229032 0.337407
O O6 0.383530 0.095373 0.304984
O O7 0.139606 0.060319 0.380915
O O8 0.605496 0.898792 0.383922
O O9 0.698259 0.000000 0.500000
O O10 0.856001 0.000413 0.373002
O O11 0.604422 0.784832 0.700939
O O12 0.594495 0.602011 0.678302
O O13 0.866831 0.697341 0.669526
O O14 0.500000 0.543037 0.250000
#
# Coordination Sequence:
#
# PCOD9319081 Si02
#       7
#     8   8   8   8   8   4   8
#     4   9  20  41  65  92 126 162 213 258 312 381
#     4  10  23  41  63  92 123 166 214 253 321 371
#     4  10  22  41  63  92 132 168 208 268 322 375
#     4  10  21  39  65  86 128 165 204 261 312 373
#     4  11  22  38  66  99 121 167 213 259 319 387
#     4  10  22  44  58  88 120 168 208 262 300 382
#     4  11  24  43  61  90 130 174 210 262 323 380
#
# _framework density 23.380383999999999
#
# number of rings (size 3 to 8) (size 9 to 14) (size 15 to 20)
#    0.000    1.846    0.769    3.692    2.154    2.462 
#    5.538    0.769    0.000    0.000    0.000    0.000 
#    0.000    0.000    0.000    0.000    0.000    0.000 
#
# Total GULP energy -145456.889737 kJ/mol
# GULP energy per Si atom -5594.495759 kJ/mol
# Density = 2.332717 g / cm^3
# Si number density = 23.380384 Si / 1000 Ang^3
#
#
#
# Elastic Constant Matrix: (Units=GPa)
#
#
# Indices 1 2 3 4 5 6 
#
# 1 114.3032 -1.4229 10.6563 0.0000 0.0000 0.0000
# 2 -1.4229 24.4640 -0.9351 0.0000 0.0000 0.0000
# 3 10.6563 -0.9351 58.7875 0.0000 0.0000 0.0000
# 4 0.0000 0.0000 0.0000 19.3810 0.0000 0.0000
# 5 0.0000 0.0000 0.0000 0.0000 27.2647 0.0000
# 6 0.0000 0.0000 0.0000 0.0000 0.0000 35.8586
#
#
#
# Elastic Compliance Matrix: (Units=1/GPa)
#
#
# Indices 1 2 3 4 5 6 
#
# 1 0.008904 0.000456 -0.001607 0.000000 0.000000 0.000000
# 2 0.000456 0.040925 0.000568 0.000000 0.000000 0.000000
# 3 -0.001607 0.000568 0.017311 0.000000 0.000000 0.000000
# 4 0.000000 0.000000 0.000000 0.051597 0.000000 0.000000
# 5 0.000000 0.000000 0.000000 0.000000 0.036677 0.000000
# 6 0.000000 0.000000 0.000000 0.000000 0.000000 0.027887
#
#
# Mechanical properties :
#
#
# Convention : Reuss Voigt Hill
#
# Bulk Modulus (GPa) = 15.15719 23.79459 19.47589
# Shear Modulus (GPa) = 24.21810 29.11795 26.66803
#
# Velocity S-wave (km/s) = 3.22192 3.53285 3.38096
# Velocity P-wave (km/s) = 4.50977 5.18080 4.85688
#
# Compressibility (1/GPa) = 0.06597531
#
# Stress axis : x y z
#
# Youngs Moduli (GPa) = 112.30732 24.43518 57.76768
#
# Poissons Ratio (x) = -0.01115 0.09282
# Poissons Ratio (y) = -0.05127 -0.03282
# Poissons Ratio (z) = 0.18045 -0.01388
#
# Static dielectric constant tensor:
#      x y z
#    x 1.872900 0.000000 0.000000 
#    y 0.000000 1.886830 0.000000 
#    z 0.000000 0.000000 1.878440 
# 
# From -- ./inp_files/26660.got.cif
#   From: 2010.05.17/outbox.cif.g08.bks.cpg/sg20_14_cif.got.tgz:26660.got - 2010.06.03 22:52:26.
