data_PCOD9319500
_publ_section_title
;
Structure prediction by ZEFSAII (Michael W. Deem and Ramdas Pophale) SiO2 
 PCOD9319500
Probable space group: C 2 2 21
;
_chemical_formula_sum "Si O2"
_cell_formula_units_Z 40
_cell_length_a 11.355886
_cell_length_b 14.669764
_cell_length_c 9.130987
_cell_angle_alpha 90.000000
_cell_angle_beta 90.000000
_cell_angle_gamma 90.000000
_cell_volume 1521.114393
_symmetry_space_group_name_H-M "C 2 2 21"
_symmetry_group_IT_number 20
_symmetry_cell_setting 'orthorhombic'
loop_
_space_group_symop_operation_xyz
x,y,z
-x,-y,1/2+z
x,-y,-z
-x,y,1/2-z
1/2+x,1/2+y,z
1/2-x,1/2-y,1/2+z
1/2+x,1/2-y,-z
1/2-x,1/2+y,1/2-z
loop_
_atom_site_type_symbol
_atom_site_label
_atom_site_fract_x
_atom_site_fract_y
_atom_site_fract_z
Si Si1 0.579386 0.104362 0.510220
Si Si2 0.604989 0.709609 0.645005
Si Si3 0.798128 0.091020 0.095231
Si Si4 0.138081 0.298487 0.081123
Si Si5 0.159382 0.911586 0.938439
O O1 0.483359 0.152276 0.611919
O O2 0.719027 0.090882 0.533133
O O3 0.318659 0.150714 0.432937
O O4 0.536380 0.000000 0.500000
O O5 0.500000 0.676925 0.750000
O O6 0.608334 0.654154 0.490791
O O7 0.744981 0.695359 0.684347
O O8 0.586507 0.816947 0.614951
O O9 0.821770 0.072704 0.264181
O O10 0.786046 0.000000 0.000000
O O11 0.120364 0.192612 0.054035
O O12 0.091410 0.000000 0.000000
#
# Coordination Sequence:
#
# PCOD9319500 Si02
#       5
#     8   8   8   8   8
#     4  10  21  43  72 113 149 195 254 314 390 456
#     4   9  22  42  69 101 145 205 250 315 379 450
#     4  10  23  44  72 111 151 206 261 315 385 462
#     4   9  22  40  71 108 150 200 253 312 380 453
#     4  10  23  44  75 113 156 202 257 318 388 461
#
# _framework density 26.296512
#
# number of rings (size 3 to 8) (size 9 to 14) (size 15 to 20)
#    1.200    1.200    0.000    0.600    5.600    3.200 
#    0.000    4.000    0.000    0.000    0.000    0.000 
#    0.000    0.000    0.000    0.000    0.000    0.000 
#
# Total GULP energy -111401.798377 kJ/mol
# GULP energy per Si atom -5570.089919 kJ/mol
# Density = 2.623666 g / cm^3
# Si number density = 26.296512 Si / 1000 Ang^3
#
#
#
# Elastic Constant Matrix: (Units=GPa)
#
#
# Indices 1 2 3 4 5 6 
#
# 1 114.4073 15.4666 13.6625 0.0000 0.0000 0.0000
# 2 15.4666 239.3805 72.2135 0.0000 0.0000 0.0000
# 3 13.6625 72.2135 155.9600 0.0000 0.0000 0.0000
# 4 0.0000 0.0000 0.0000 9.4298 0.0000 0.0000
# 5 0.0000 0.0000 0.0000 0.0000 15.0286 0.0000
# 6 0.0000 0.0000 0.0000 0.0000 0.0000 41.6162
#
#
#
# Elastic Compliance Matrix: (Units=1/GPa)
#
#
# Indices 1 2 3 4 5 6 
#
# 1 0.008865 -0.000393 -0.000594 0.000000 0.000000 0.000000
# 2 -0.000393 0.004873 -0.002222 0.000000 0.000000 0.000000
# 3 -0.000594 -0.002222 0.007493 0.000000 0.000000 0.000000
# 4 0.000000 0.000000 0.000000 0.106047 0.000000 0.000000
# 5 0.000000 0.000000 0.000000 0.000000 0.066540 0.000000
# 6 0.000000 0.000000 0.000000 0.000000 0.000000 0.024029
#
#
# Mechanical properties :
#
#
# Convention : Reuss Voigt Hill
#
# Bulk Modulus (GPa) = 67.51632 79.15922 73.33777
# Shear Modulus (GPa) = 21.81474 40.44195 31.12835
#
# Velocity S-wave (km/s) = 2.88335 3.92589 3.44429
# Velocity P-wave (km/s) = 6.06759 7.12166 6.61565
#
# Compressibility (1/GPa) = 0.01481123
#
# Stress axis : x y z
#
# Youngs Moduli (GPa) = 112.80477 205.20578 133.46173
#
# Poissons Ratio (x) = 0.08074 0.07933
# Poissons Ratio (y) = 0.04438 0.29654
# Poissons Ratio (z) = 0.06705 0.45595
#
# Static dielectric constant tensor:
#      x y z
#    x 2.309170 0.000000 0.000000 
#    y 0.000000 2.066510 0.000000 
#    z 0.000000 0.000000 2.111580 
# 
# From -- ./inp_files/18707.got.cif
#   From: 2010.05.17/outbox.cif.g08.bks.cpg/sg20_10_cif.got.tgz:18707.got - 2010.06.03 22:52:26.
