data_PCOD9319946
_publ_section_title
;
Structure prediction by ZEFSAII (Michael W. Deem and Ramdas Pophale) SiO2 
 PCOD9319946
Probable space group: C 2 2 21
;
_chemical_formula_sum "Si O2"
_cell_formula_units_Z 60
_cell_length_a 21.977644
_cell_length_b 11.412458
_cell_length_c 12.121152
_cell_angle_alpha 90.000000
_cell_angle_beta 90.000000
_cell_angle_gamma 90.000000
_cell_volume 3040.214485
_symmetry_space_group_name_H-M "C 2 2 21"
_symmetry_group_IT_number 20
_symmetry_cell_setting 'orthorhombic'
loop_
_space_group_symop_operation_xyz
x,y,z
-x,-y,1/2+z
x,-y,-z
-x,y,1/2-z
1/2+x,1/2+y,z
1/2-x,1/2-y,1/2+z
1/2+x,1/2-y,-z
1/2-x,1/2+y,1/2-z
loop_
_atom_site_type_symbol
_atom_site_label
_atom_site_fract_x
_atom_site_fract_y
_atom_site_fract_z
Si Si1 0.556739 0.921641 0.825833
Si Si2 0.655520 0.745656 0.200313
Si Si3 0.955604 0.321810 0.434169
Si Si4 0.652391 0.123159 0.364119
Si Si5 0.219914 0.987476 0.876810
Si Si6 0.906270 0.750762 0.936423
Si Si7 0.650499 0.500000 0.500000
Si Si8 0.722005 0.635561 0.679318
O O1 0.500000 0.886093 0.750000
O O2 0.613616 0.911628 0.743067
O O3 0.546476 0.053508 0.870159
O O4 0.558301 0.844691 0.936833
O O5 0.597806 0.747944 0.120714
O O6 0.688998 0.621598 0.185027
O O7 0.631581 0.767371 0.323947
O O8 0.706272 0.841019 0.165397
O O9 0.021909 0.265499 0.418528
O O10 0.707638 0.034315 0.381356
O O11 0.612070 0.153019 0.471929
O O12 0.686476 0.246174 0.345567
O O13 0.209662 0.101669 0.804894
O O14 0.196369 0.000000 0.000000
O O15 0.888997 0.883263 0.974879
O O16 0.694624 0.536099 0.600570
#
# Coordination Sequence:
#
# PCOD9319946 Si02
#       8
#     8   8   8   8   8   8   4   8
#     4  11  22  42  62  95 126 165 213 263 319 386
#     4  11  23  40  64  96 127 169 211 272 332 380
#     4  11  25  40  66  95 133 166 211 268 324 390
#     4  10  23  39  68  89 124 172 213 266 327 388
#     4  11  23  39  60  93 129 164 214 269 326 381
#     4  11  21  45  65  92 130 173 223 263 323 406
#     4  10  22  42  70  92 124 178 228 260 326 398
#     4  10  22  41  64  93 127 165 215 273 318 392
#
# _framework density 19.735448000000002
#
# number of rings (size 3 to 8) (size 9 to 14) (size 15 to 20)
#    0.000    1.333    2.667    2.800    1.867    3.200 
#    1.200    0.000    2.933    0.000    0.000    0.000 
#    0.000    0.000    0.000    0.000    0.000    0.000 
#
# Total GULP energy -167581.924484 kJ/mol
# GULP energy per Si atom -5586.064149 kJ/mol
# Density = 1.969053 g / cm^3
# Si number density = 19.735448 Si / 1000 Ang^3
#
#
#
# Elastic Constant Matrix: (Units=GPa)
#
#
# Indices 1 2 3 4 5 6 
#
# 1 131.3345 22.7817 49.5603 0.0000 0.0000 0.0000
# 2 22.7817 31.8930 12.3222 0.0000 0.0000 0.0000
# 3 49.5603 12.3222 125.8528 0.0000 0.0000 0.0000
# 4 0.0000 0.0000 0.0000 30.5707 0.0000 0.0000
# 5 0.0000 0.0000 0.0000 0.0000 43.0542 0.0000
# 6 0.0000 0.0000 0.0000 0.0000 0.0000 -30.4653
#
#
#
# Elastic Compliance Matrix: (Units=1/GPa)
#
#
# Indices 1 2 3 4 5 6 
#
# 1 0.009868 -0.005765 -0.003321 0.000000 0.000000 0.000000
# 2 -0.005765 0.035956 -0.001250 0.000000 0.000000 0.000000
# 3 -0.003321 -0.001250 0.009376 0.000000 0.000000 0.000000
# 4 0.000000 0.000000 0.000000 0.032711 0.000000 0.000000
# 5 0.000000 0.000000 0.000000 0.000000 0.023227 0.000000
# 6 0.000000 0.000000 0.000000 0.000000 0.000000 -0.032824
#
#
# Mechanical properties :
#
#
# Convention : Reuss Voigt Hill
#
# Bulk Modulus (GPa) = 28.96343 50.93430 39.94886
# Shear Modulus (GPa) = 45.25078 22.25967 33.75523
#
# Velocity S-wave (km/s) = 4.79359 3.36207 4.14017
# Velocity P-wave (km/s) = 6.73392 6.39812 6.56816
#
# Compressibility (1/GPa) = 0.03452630
#
# Stress axis : x y z
#
# Youngs Moduli (GPa) = 101.34222 27.81169 106.65415
#
# Poissons Ratio (x) = 0.16034 0.35423
# Poissons Ratio (y) = 0.58427 0.13332
# Poissons Ratio (z) = 0.33659 0.03477
#
# Static dielectric constant tensor:
#      x y z
#    x 1.677880 0.000000 0.000000 
#    y 0.000000 1.629670 0.000000 
#    z 0.000000 0.000000 1.717810 
# 
# From -- ./inp_files/16386.got.cif
#   From: 2010.05.17/outbox.cif.g08.bks.cpg/sg20_9_cif.got.tgz:16386.got - 2010.06.03 22:52:26.
