data_PCOD9319384
_publ_section_title
;
Structure prediction by ZEFSAII (Michael W. Deem and Ramdas Pophale) SiO2 
 PCOD9319384
Probable space group: C 2 2 21
;
_chemical_formula_sum "Si O2"
_cell_formula_units_Z 56
_cell_length_a 20.617846
_cell_length_b 10.421169
_cell_length_c 14.193426
_cell_angle_alpha 90.000000
_cell_angle_beta 90.000000
_cell_angle_gamma 90.000000
_cell_volume 3049.628714
_symmetry_space_group_name_H-M "C 2 2 21"
_symmetry_group_IT_number 20
_symmetry_cell_setting 'orthorhombic'
loop_
_space_group_symop_operation_xyz
x,y,z
-x,-y,1/2+z
x,-y,-z
-x,y,1/2-z
1/2+x,1/2+y,z
1/2-x,1/2-y,1/2+z
1/2+x,1/2-y,-z
1/2-x,1/2+y,1/2-z
loop_
_atom_site_type_symbol
_atom_site_label
_atom_site_fract_x
_atom_site_fract_y
_atom_site_fract_z
Si Si1 0.731818 0.757586 0.842366
Si Si2 0.140666 0.146444 0.998736
Si Si3 0.620091 0.953708 0.782856
Si Si4 0.310682 0.638186 0.991137
Si Si5 0.199058 0.682545 0.849037
Si Si6 0.041193 0.369528 0.947033
Si Si7 0.109785 0.614904 0.433422
O O1 0.681348 0.868139 0.814653
O O2 0.759889 0.702041 0.745873
O O3 0.692296 0.664351 0.913134
O O4 0.789061 0.814643 0.906064
O O5 0.174741 0.190338 0.096443
O O6 0.083237 0.248618 0.980692
O O7 0.118876 0.000000 0.000000
O O8 0.559084 0.897234 0.838732
O O9 0.612242 0.938835 0.672125
O O10 0.638532 0.095138 0.818547
O O11 0.245988 0.618550 0.927424
O O12 0.350003 0.754415 0.944363
O O13 0.344264 0.500000 0.000000
O O14 0.964660 0.355431 0.960593
O O15 0.062408 0.500000 0.000000
O O16 0.134814 0.500000 0.500000
#
# Coordination Sequence:
#
# PCOD9319384 Si02
#       7
#     8   8   8   8   8   8   8
#     4  10  22  34  58  86 125 153 194 243 307 368
#     4  10  23  37  60  91 121 159 206 252 306 365
#     4  11  20  38  63  89 116 161 204 247 294 365
#     4  11  22  37  57  90 124 158 193 243 316 365
#     4  11  21  36  61  88 123 157 197 251 310 365
#     4  10  21  42  64  86 117 164 210 246 296 360
#     4  11  24  40  62  90 121 159 209 257 295 357
#
# _framework density 18.362891000000001
#
# number of rings (size 3 to 8) (size 9 to 14) (size 15 to 20)
#    0.000    1.429    4.286    1.286    2.000    2.857 
#    0.000    0.000    0.000    0.000    3.714    0.000 
#    0.000    0.000    0.000    0.000    0.000    0.000 
#
# Total GULP energy -156246.924102 kJ/mol
# GULP energy per Si atom -5580.247289 kJ/mol
# Density = 1.832110 g / cm^3
# Si number density = 18.362891 Si / 1000 Ang^3
#
#
#
# Elastic Constant Matrix: (Units=GPa)
#
#
# Indices 1 2 3 4 5 6 
#
# 1 39.1956 27.5977 3.0044 0.0000 0.0000 0.0000
# 2 27.5977 125.5637 30.7568 0.0000 0.0000 0.0000
# 3 3.0044 30.7568 108.1916 0.0000 0.0000 0.0000
# 4 0.0000 0.0000 0.0000 20.5912 0.0000 0.0000
# 5 0.0000 0.0000 0.0000 0.0000 21.0355 0.0000
# 6 0.0000 0.0000 0.0000 0.0000 0.0000 14.9002
#
#
#
# Elastic Compliance Matrix: (Units=1/GPa)
#
#
# Indices 1 2 3 4 5 6 
#
# 1 0.030312 -0.006939 0.001131 0.000000 0.000000 0.000000
# 2 -0.006939 0.010149 -0.002692 0.000000 0.000000 0.000000
# 3 0.001131 -0.002692 0.009977 0.000000 0.000000 0.000000
# 4 0.000000 0.000000 0.000000 0.048564 0.000000 0.000000
# 5 0.000000 0.000000 0.000000 0.000000 0.047539 0.000000
# 6 0.000000 0.000000 0.000000 0.000000 0.000000 0.067113
#
#
# Mechanical properties :
#
#
# Convention : Reuss Voigt Hill
#
# Bulk Modulus (GPa) = 29.90750 43.96319 36.93535
# Shear Modulus (GPa) = 20.67809 25.41150 23.04479
#
# Velocity S-wave (km/s) = 3.35935 3.72405 3.54639
# Velocity P-wave (km/s) = 5.60083 6.51803 6.07676
#
# Compressibility (1/GPa) = 0.03343643
#
# Stress axis : x y z
#
# Youngs Moduli (GPa) = 32.98973 98.53373 100.23198
#
# Poissons Ratio (x) = 0.68377 -0.11336
# Poissons Ratio (y) = 0.22893 0.26987
# Poissons Ratio (z) = -0.03731 0.26529
#
# Static dielectric constant tensor:
#      x y z
#    x 1.634580 0.000000 0.000000 
#    y 0.000000 1.638420 0.000000 
#    z 0.000000 0.000000 1.623620 
# 
# From -- ./inp_files/21758.got.cif
#   From: 2010.05.17/outbox.cif.g08.bks.cpg/sg20_11_cif.got.tgz:21758.got - 2010.06.03 22:52:26.
