data_PCOD9319846
_publ_section_title
;
Structure prediction by ZEFSAII (Michael W. Deem and Ramdas Pophale) SiO2 
 PCOD9319846
Probable space group: C 2 2 21
;
_chemical_formula_sum "Si O2"
_cell_formula_units_Z 36
_cell_length_a 19.474498
_cell_length_b 12.817879
_cell_length_c 6.050190
_cell_angle_alpha 90.000000
_cell_angle_beta 90.000000
_cell_angle_gamma 90.000000
_cell_volume 1510.259070
_symmetry_space_group_name_H-M "C 2 2 21"
_symmetry_group_IT_number 20
_symmetry_cell_setting 'orthorhombic'
loop_
_space_group_symop_operation_xyz
x,y,z
-x,-y,1/2+z
x,-y,-z
-x,y,1/2-z
1/2+x,1/2+y,z
1/2-x,1/2-y,1/2+z
1/2+x,1/2-y,-z
1/2-x,1/2+y,1/2-z
loop_
_atom_site_type_symbol
_atom_site_label
_atom_site_fract_x
_atom_site_fract_y
_atom_site_fract_z
Si Si1 0.827591 0.178676 0.554643
Si Si2 0.462493 0.000000 0.000000
Si Si3 0.385719 0.597666 0.149206
Si Si4 0.568272 0.222473 0.395490
Si Si5 0.738080 0.107285 0.915654
O O1 0.876655 0.106098 0.409941
O O2 0.871183 0.232764 0.747038
O O3 0.768642 0.109159 0.668291
O O4 0.799920 0.282111 0.432457
O O5 0.500000 0.992864 0.250000
O O6 0.420416 0.106381 0.018045
O O7 0.409288 0.500000 0.000000
O O8 0.433353 0.694757 0.089950
O O9 0.305698 0.611399 0.072813
O O10 0.500000 0.222129 0.250000
O O11 0.701982 0.000000 0.000000
#
# Coordination Sequence:
#
# PCOD9319846 Si02
#       5
#     8   4   8   8   8
#     4  11  22  44  69 100 140 177 237 287 356 433
#     4  10  24  46  74 104 148 194 238 304 362 420
#     4  10  23  43  69 101 135 180 227 297 362 420
#     4  10  25  44  67 105 138 186 233 293 353 433
#     4  10  22  40  65 102 132 180 222 285 352 423
#
# _framework density 23.836969
#
# number of rings (size 3 to 8) (size 9 to 14) (size 15 to 20)
#    0.000    1.778    2.222    0.000    6.222    9.778 
#    6.000    0.000    0.000    0.000    0.000    0.000 
#    0.000    0.000    0.000    0.000    0.000    0.000 
#
# Total GULP energy -100320.665828 kJ/mol
# GULP energy per Si atom -5573.370324 kJ/mol
# Density = 2.378271 g / cm^3
# Si number density = 23.836969 Si / 1000 Ang^3
#
#
#
# Elastic Constant Matrix: (Units=GPa)
#
#
# Indices 1 2 3 4 5 6 
#
# 1 17.0706 19.8899 4.6156 0.0000 0.0000 0.0000
# 2 19.8899 227.7126 79.1748 0.0000 0.0000 0.0000
# 3 4.6156 79.1748 122.3354 0.0000 0.0000 0.0000
# 4 0.0000 0.0000 0.0000 38.9379 0.0000 0.0000
# 5 0.0000 0.0000 0.0000 0.0000 26.7719 0.0000
# 6 0.0000 0.0000 0.0000 0.0000 0.0000 29.8978
#
#
#
# Elastic Compliance Matrix: (Units=1/GPa)
#
#
# Indices 1 2 3 4 5 6 
#
# 1 0.065456 -0.006269 0.001588 0.000000 0.000000 0.000000
# 2 -0.006269 0.006267 -0.003820 0.000000 0.000000 0.000000
# 3 0.001588 -0.003820 0.010586 0.000000 0.000000 0.000000
# 4 0.000000 0.000000 0.000000 0.025682 0.000000 0.000000
# 5 0.000000 0.000000 0.000000 0.000000 0.037353 0.000000
# 6 0.000000 0.000000 0.000000 0.000000 0.000000 0.033447
#
#
# Mechanical properties :
#
#
# Convention : Reuss Voigt Hill
#
# Bulk Modulus (GPa) = 15.31227 63.83101 39.57164
# Shear Modulus (GPa) = 22.98196 36.68408 29.83302
#
# Velocity S-wave (km/s) = 3.10841 3.92721 3.54156
# Velocity P-wave (km/s) = 4.39553 6.88479 5.77585
#
# Compressibility (1/GPa) = 0.06530712
#
# Stress axis : x y z
#
# Youngs Moduli (GPa) = 15.27752 159.56234 94.46164
#
# Poissons Ratio (x) = 1.00037 -0.15000
# Poissons Ratio (y) = 0.09578 0.36080
# Poissons Ratio (z) = -0.02426 0.60945
#
# Static dielectric constant tensor:
#      x y z
#    x 1.922080 0.000000 0.000000 
#    y 0.000000 1.951890 0.000000 
#    z 0.000000 0.000000 1.841900 
# 
# From -- ./inp_files/3553.got.cif
#   From: 2010.05.17/outbox.cif.g08.bks.cpg/sg20_2_cif.got.tgz:3553.got - 2010.06.03 22:52:26.
