data_PCOD9319015
_publ_section_title
;
Structure prediction by ZEFSAII (Michael W. Deem and Ramdas Pophale) SiO2 
 PCOD9319015
Probable space group: C 2 2 21
;
_chemical_formula_sum "Si O2"
_cell_formula_units_Z 64
_cell_length_a 27.782875
_cell_length_b 12.849907
_cell_length_c 8.931201
_cell_angle_alpha 90.000000
_cell_angle_beta 90.000000
_cell_angle_gamma 90.000000
_cell_volume 3188.504490
_symmetry_space_group_name_H-M "C 2 2 21"
_symmetry_group_IT_number 20
_symmetry_cell_setting 'orthorhombic'
loop_
_space_group_symop_operation_xyz
x,y,z
-x,-y,1/2+z
x,-y,-z
-x,y,1/2-z
1/2+x,1/2+y,z
1/2-x,1/2-y,1/2+z
1/2+x,1/2-y,-z
1/2-x,1/2+y,1/2-z
loop_
_atom_site_type_symbol
_atom_site_label
_atom_site_fract_x
_atom_site_fract_y
_atom_site_fract_z
Si Si1 0.570016 0.084236 0.674754
Si Si2 0.447497 0.487724 0.679443
Si Si3 0.703417 0.809086 0.801688
Si Si4 0.456880 0.854152 0.852513
Si Si5 0.293320 0.217879 0.651614
Si Si6 0.680104 0.024396 0.661323
Si Si7 0.609922 0.308988 0.219201
Si Si8 0.903995 0.769779 0.629759
O O1 0.540218 0.123627 0.530249
O O2 0.626393 0.069182 0.632696
O O3 0.570032 0.167629 0.806575
O O4 0.554178 0.968061 0.716013
O O5 0.451221 0.500000 0.500000
O O6 0.500000 0.502199 0.750000
O O7 0.410238 0.574953 0.738225
O O8 0.427514 0.371668 0.702091
O O9 0.752110 0.793550 0.710085
O O10 0.666578 0.713966 0.770630
O O11 0.678605 0.917433 0.754260
O O12 0.713560 0.808384 0.977821
O O13 0.500000 0.811809 0.750000
O O14 0.415002 0.770466 0.832491
O O15 0.291958 0.112398 0.748181
O O16 0.347251 0.263200 0.667933
O O17 0.702111 0.000000 0.500000
O O18 0.594255 0.276027 0.050224
#
# Coordination Sequence:
#
# PCOD9319015 Si02
#       8
#     8   8   8   8   8   8   8   8
#     4  10  21  39  57  86 118 158 199 242 314 365
#     4  10  22  41  61  85 117 159 204 251 305 359
#     4  11  21  39  61  90 126 160 207 252 312 374
#     4  11  22  36  57  88 120 152 200 252 300 369
#     4  10  23  37  60  96 120 162 206 255 308 374
#     4  11  19  38  63  83 120 163 198 252 311 373
#     4  10  21  39  60  86 118 162 202 250 306 367
#     4   9  22  39  61  84 122 157 205 252 301 369
#
# _framework density 20.072106999999999
#
# number of rings (size 3 to 8) (size 9 to 14) (size 15 to 20)
#    0.000    1.750    2.500    1.500    0.000    8.000 
#    0.000    2.500    0.000    0.000    0.000    0.000 
#    0.000    0.000    0.000    0.000    0.000    0.000 
#
# Total GULP energy -178647.671020 kJ/mol
# GULP energy per Si atom -5582.739719 kJ/mol
# Density = 2.002642 g / cm^3
# Si number density = 20.072107 Si / 1000 Ang^3
#
#
#
# Elastic Constant Matrix: (Units=GPa)
#
#
# Indices 1 2 3 4 5 6 
#
# 1 45.5537 -1.4008 21.3524 0.0000 0.0000 0.0000
# 2 -1.4008 72.0796 9.9206 0.0000 0.0000 0.0000
# 3 21.3524 9.9206 44.9828 0.0000 0.0000 0.0000
# 4 0.0000 0.0000 0.0000 30.3951 0.0000 0.0000
# 5 0.0000 0.0000 0.0000 0.0000 24.5168 0.0000
# 6 0.0000 0.0000 0.0000 0.0000 0.0000 18.6122
#
#
#
# Elastic Compliance Matrix: (Units=1/GPa)
#
#
# Indices 1 2 3 4 5 6 
#
# 1 0.028666 0.002506 -0.014160 0.000000 0.000000 0.000000
# 2 0.002506 0.014527 -0.004393 0.000000 0.000000 0.000000
# 3 -0.014160 -0.004393 0.029921 0.000000 0.000000 0.000000
# 4 0.000000 0.000000 0.000000 0.032900 0.000000 0.000000
# 5 0.000000 0.000000 0.000000 0.000000 0.040788 0.000000
# 6 0.000000 0.000000 0.000000 0.000000 0.000000 0.053728
#
#
# Mechanical properties :
#
#
# Convention : Reuss Voigt Hill
#
# Bulk Modulus (GPa) = 24.37851 24.70670 24.54261
# Shear Modulus (GPa) = 20.30054 23.55441 21.92748
#
# Velocity S-wave (km/s) = 3.18367 3.42934 3.30879
# Velocity P-wave (km/s) = 5.06815 5.29303 5.18181
#
# Compressibility (1/GPa) = 0.04101973
#
# Stress axis : x y z
#
# Youngs Moduli (GPa) = 34.88409 68.83768 33.42129
#
# Poissons Ratio (x) = -0.17251 0.47324
# Poissons Ratio (y) = -0.08742 0.14683
# Poissons Ratio (z) = 0.49396 0.30243
#
# Static dielectric constant tensor:
#      x y z
#    x 1.725120 0.000000 0.000000 
#    y 0.000000 1.695110 0.000000 
#    z 0.000000 0.000000 1.701550 
# 
# From -- ./inp_files/11614.got.cif
#   From: 2010.05.17/outbox.cif.g08.bks.cpg/sg20_6_cif.got.tgz:11614.got - 2010.06.03 22:52:26.
