data_PCOD9319034
_publ_section_title
;
Structure prediction by ZEFSAII (Michael W. Deem and Ramdas Pophale) SiO2 
 PCOD9319034
Probable space group: C 2 2 21
;
_chemical_formula_sum "Si O2"
_cell_formula_units_Z 48
_cell_length_a 12.009546
_cell_length_b 11.068964
_cell_length_c 14.016523
_cell_angle_alpha 90.000000
_cell_angle_beta 90.000000
_cell_angle_gamma 90.000000
_cell_volume 1863.261708
_symmetry_space_group_name_H-M "C 2 2 21"
_symmetry_group_IT_number 20
_symmetry_cell_setting 'orthorhombic'
loop_
_space_group_symop_operation_xyz
x,y,z
-x,-y,1/2+z
x,-y,-z
-x,y,1/2-z
1/2+x,1/2+y,z
1/2-x,1/2-y,1/2+z
1/2+x,1/2-y,-z
1/2-x,1/2+y,1/2-z
loop_
_atom_site_type_symbol
_atom_site_label
_atom_site_fract_x
_atom_site_fract_y
_atom_site_fract_z
Si Si1 0.155212 0.062311 0.591157
Si Si2 0.276464 0.198013 0.995074
Si Si3 0.204078 0.661536 0.173219
Si Si4 0.853769 0.165790 0.342389
Si Si5 0.000000 0.958548 0.250000
Si Si6 0.000000 0.376686 0.250000
Si Si7 0.986413 0.434804 0.910911
O O1 0.234247 0.961103 0.637778
O O2 0.072303 0.108677 0.672026
O O3 0.096389 0.000000 0.500000
O O4 0.220903 0.171241 0.545358
O O5 0.169121 0.144885 0.046765
O O6 0.385550 0.129560 0.032443
O O7 0.260329 0.227214 0.884513
O O8 0.238039 0.671123 0.282999
O O9 0.076668 0.649074 0.142090
O O10 0.920481 0.285378 0.309166
O O11 0.920260 0.050478 0.305916
O O12 0.950601 0.467215 0.169438
O O13 0.048100 0.500000 0.000000
#
# Coordination Sequence:
#
# PCOD9319034 Si02
#       7
#     8   8   8   8   4   4   8
#     4   9  19  37  58  82 111 149 192 237 292 351
#     4  11  23  38  59  87 117 153 196 242 294 351
#     4  10  21  40  62  83 115 156 195 243 297 352
#     4  10  21  39  61  87 118 154 195 240 294 350
#     4   9  20  37  60  84 112 149 192 237 290 348
#     4  11  22  39  64  92 122 159 198 245 294 354
#     4  12  24  40  61  90 121 158 201 245 296 354
#
# _framework density 25.761277
#
# number of rings (size 3 to 8) (size 9 to 14) (size 15 to 20)
#    0.000    1.667    0.000    5.500    0.000    8.667 
#    0.000    2.500    0.000    0.000    0.000    0.000 
#    0.000    0.000    0.000    0.000    0.000    0.000 
#
# Total GULP energy -134246.991473 kJ/mol
# GULP energy per Si atom -5593.624645 kJ/mol
# Density = 2.570264 g / cm^3
# Si number density = 25.761277 Si / 1000 Ang^3
#
#
#
# Elastic Constant Matrix: (Units=GPa)
#
#
# Indices 1 2 3 4 5 6 
#
# 1 71.4382 23.7094 -10.7776 0.0000 0.0000 0.0000
# 2 23.7094 60.8723 0.8848 0.0000 0.0000 0.0000
# 3 -10.7776 0.8848 58.2068 0.0000 0.0000 0.0000
# 4 0.0000 0.0000 0.0000 28.9114 0.0000 0.0000
# 5 0.0000 0.0000 0.0000 0.0000 29.0845 0.0000
# 6 0.0000 0.0000 0.0000 0.0000 0.0000 28.0575
#
#
#
# Elastic Compliance Matrix: (Units=1/GPa)
#
#
# Indices 1 2 3 4 5 6 
#
# 1 0.016645 -0.006529 0.003181 0.000000 0.000000 0.000000
# 2 -0.006529 0.018993 -0.001498 0.000000 0.000000 0.000000
# 3 0.003181 -0.001498 0.017792 0.000000 0.000000 0.000000
# 4 0.000000 0.000000 0.000000 0.034588 0.000000 0.000000
# 5 0.000000 0.000000 0.000000 0.000000 0.034383 0.000000
# 6 0.000000 0.000000 0.000000 0.000000 0.000000 0.035641
#
#
# Mechanical properties :
#
#
# Convention : Reuss Voigt Hill
#
# Bulk Modulus (GPa) = 22.86336 24.23895 23.55115
# Shear Modulus (GPa) = 27.42537 28.99073 28.20805
#
# Velocity S-wave (km/s) = 3.26636 3.35828 3.31264
# Velocity P-wave (km/s) = 4.80830 4.94640 4.87784
#
# Compressibility (1/GPa) = 0.04373811
#
# Stress axis : x y z
#
# Youngs Moduli (GPa) = 60.07781 52.65160 56.20521
#
# Poissons Ratio (x) = 0.34378 -0.17880
# Poissons Ratio (y) = 0.39227 0.08418
# Poissons Ratio (z) = -0.19112 0.07886
#
# Static dielectric constant tensor:
#      x y z
#    x 2.047540 0.000000 0.000000 
#    y 0.000000 2.067030 0.000000 
#    z 0.000000 0.000000 2.058450 
# 
# From -- ./inp_files/24288.got.cif
#   From: 2010.05.17/outbox.cif.g08.bks.cpg/sg20_13_cif.got.tgz:24288.got - 2010.06.03 22:52:26.
