data_PCOD9319128
_publ_section_title
;
Structure prediction by ZEFSAII (Michael W. Deem and Ramdas Pophale) SiO2 
 PCOD9319128
Probable space group: C 2 2 21
;
_chemical_formula_sum "Si O2"
_cell_formula_units_Z 44
_cell_length_a 5.091843
_cell_length_b 14.852084
_cell_length_c 21.956366
_cell_angle_alpha 90.000000
_cell_angle_beta 90.000000
_cell_angle_gamma 90.000000
_cell_volume 1660.438760
_symmetry_space_group_name_H-M "C 2 2 21"
_symmetry_group_IT_number 20
_symmetry_cell_setting 'orthorhombic'
loop_
_space_group_symop_operation_xyz
x,y,z
-x,-y,1/2+z
x,-y,-z
-x,y,1/2-z
1/2+x,1/2+y,z
1/2-x,1/2-y,1/2+z
1/2+x,1/2-y,-z
1/2-x,1/2+y,1/2-z
loop_
_atom_site_type_symbol
_atom_site_label
_atom_site_fract_x
_atom_site_fract_y
_atom_site_fract_z
Si Si1 0.254978 0.063226 0.291997
Si Si2 0.695007 0.242186 0.154950
Si Si3 0.000000 0.332278 0.250000
Si Si4 0.586681 0.327690 0.943589
Si Si5 0.096857 0.369346 0.002620
Si Si6 0.709998 0.399950 0.368806
O O1 0.500000 0.028662 0.250000
O O2 0.120228 0.995438 0.341353
O O3 0.000000 0.088732 0.250000
O O4 0.401927 0.142264 0.329793
O O5 0.961046 0.216678 0.117158
O O6 0.509129 0.319142 0.124623
O O7 0.762795 0.277422 0.221610
O O8 0.108517 0.373988 0.188179
O O9 0.614056 0.238198 0.985149
O O10 0.854401 0.379920 0.957351
O O11 0.362383 0.392420 0.968617
O O12 0.119057 0.409628 0.070045
#
# Coordination Sequence:
#
# PCOD9319128 Si02
#       6
#     8   8   4   8   8   8
#     4  12  28  48  71 116 165 204 258 322 392 472
#     4  12  25  45  75 110 154 206 257 321 392 468
#     4  12  22  40  72 106 146 196 258 302 382 464
#     4  10  21  39  69 102 136 188 252 308 373 449
#     4  10  21  39  69 102 136 188 252 308 373 449
#     4  12  25  45  75 110 154 206 257 321 392 468
#
# _framework density 26.499018
#
# number of rings (size 3 to 8) (size 9 to 14) (size 15 to 20)
#    0.000    0.727    3.636    6.000    0.000    0.000 
#    0.000    0.909    0.000   13.091    0.000    0.000 
#    0.000    0.000    0.000    0.000    0.000    0.000 
#
# Total GULP energy -122561.095663 kJ/mol
# GULP energy per Si atom -5570.958894 kJ/mol
# Density = 2.643871 g / cm^3
# Si number density = 26.499018 Si / 1000 Ang^3
#
#
#
# Elastic Constant Matrix: (Units=GPa)
#
#
# Indices 1 2 3 4 5 6 
#
# 1 124.0228 10.0025 25.7731 0.0000 0.0000 0.0000
# 2 10.0025 78.7024 8.0263 0.0000 0.0000 0.0000
# 3 25.7731 8.0263 83.2584 0.0000 0.0000 0.0000
# 4 0.0000 0.0000 0.0000 21.2755 0.0000 0.0000
# 5 0.0000 0.0000 0.0000 0.0000 51.4636 0.0000
# 6 0.0000 0.0000 0.0000 0.0000 0.0000 19.2046
#
#
#
# Elastic Compliance Matrix: (Units=1/GPa)
#
#
# Indices 1 2 3 4 5 6 
#
# 1 0.008672 -0.000837 -0.002604 0.000000 0.000000 0.000000
# 2 -0.000837 0.012913 -0.000986 0.000000 0.000000 0.000000
# 3 -0.002604 -0.000986 0.012912 0.000000 0.000000 0.000000
# 4 0.000000 0.000000 0.000000 0.047002 0.000000 0.000000
# 5 0.000000 0.000000 0.000000 0.000000 0.019431 0.000000
# 6 0.000000 0.000000 0.000000 0.000000 0.000000 0.052071
#
#
# Mechanical properties :
#
#
# Convention : Reuss Voigt Hill
#
# Bulk Modulus (GPa) = 38.99529 41.50969 40.25249
# Shear Modulus (GPa) = 29.34253 34.53418 31.93836
#
# Velocity S-wave (km/s) = 3.33123 3.61394 3.47546
# Velocity P-wave (km/s) = 5.43542 5.75436 5.59716
#
# Compressibility (1/GPa) = 0.02564412
#
# Stress axis : x y z
#
# Youngs Moduli (GPa) = 115.31938 77.44158 77.44835
#
# Poissons Ratio (x) = 0.06478 0.20165
# Poissons Ratio (y) = 0.09647 0.07635
# Poissons Ratio (z) = 0.30026 0.07635
#
# Static dielectric constant tensor:
#      x y z
#    x 2.207420 0.000000 0.000000 
#    y 0.000000 2.313890 0.000000 
#    z 0.000000 0.000000 2.067110 
# 
# From -- ./inp_files/28327.got.cif
#   From: 2010.05.17/outbox.cif.g08.bks.cpg/sg20_15_cif.got.tgz:28327.got - 2010.06.03 22:52:26.
