data_PCOD9319482
_publ_section_title
;
Structure prediction by ZEFSAII (Michael W. Deem and Ramdas Pophale) SiO2 
 PCOD9319482
Probable space group: C 2 2 21
;
_chemical_formula_sum "Si O2"
_cell_formula_units_Z 60
_cell_length_a 23.750723
_cell_length_b 14.186577
_cell_length_c 8.147290
_cell_angle_alpha 90.000000
_cell_angle_beta 90.000000
_cell_angle_gamma 90.000000
_cell_volume 2745.159793
_symmetry_space_group_name_H-M "C 2 2 21"
_symmetry_group_IT_number 20
_symmetry_cell_setting 'orthorhombic'
loop_
_space_group_symop_operation_xyz
x,y,z
-x,-y,1/2+z
x,-y,-z
-x,y,1/2-z
1/2+x,1/2+y,z
1/2-x,1/2-y,1/2+z
1/2+x,1/2-y,-z
1/2-x,1/2+y,1/2-z
loop_
_atom_site_type_symbol
_atom_site_label
_atom_site_fract_x
_atom_site_fract_y
_atom_site_fract_z
Si Si1 0.283993 0.746682 0.463440
Si Si2 0.847004 0.123811 0.712787
Si Si3 0.841394 0.000000 0.000000
Si Si4 0.517185 0.207803 0.937717
Si Si5 0.168051 0.203748 0.391169
Si Si6 0.465869 0.407434 0.416535
Si Si7 0.401519 0.191277 0.107154
Si Si8 0.626671 0.897626 0.926293
O O1 0.301742 0.664709 0.588845
O O2 0.219436 0.775960 0.482239
O O3 0.303758 0.713039 0.285445
O O4 0.320037 0.836272 0.520242
O O5 0.900753 0.075111 0.628465
O O6 0.880272 0.213667 0.796737
O O7 0.818425 0.049452 0.836175
O O8 0.861925 0.101612 0.079563
O O9 0.500000 0.188766 0.750000
O O10 0.529997 0.318455 0.963828
O O11 0.466842 0.185220 0.064958
O O12 0.571892 0.151645 0.995117
O O13 0.126242 0.289619 0.429776
O O14 0.491060 0.500000 0.500000
O O15 0.500000 0.387806 0.250000
O O16 0.381183 0.109642 0.228853
O O17 0.632032 0.000000 0.000000
#
# Coordination Sequence:
#
# PCOD9319482 Si02
#       8
#     8   8   4   8   8   8   8   8
#     4  11  23  45  67  95 132 176 216 279 342 396
#     4  10  22  39  63  90 132 170 217 268 337 388
#     4  10  24  38  64 100 124 174 218 274 322 410
#     4  12  23  41  63  95 133 175 219 276 334 393
#     4  11  24  43  70  95 133 172 222 272 339 406
#     4  12  24  37  59  91 129 174 217 268 323 401
#     4  10  21  43  67  89 132 174 212 274 333 391
#     4  11  24  43  70  97 129 175 228 278 336 399
#
# _framework density 21.856652
#
# number of rings (size 3 to 8) (size 9 to 14) (size 15 to 20)
#    0.000    1.067    4.000    4.000    3.733    2.133 
#    0.000    2.000    0.000    0.000    0.000    0.000 
#    0.000    0.000    0.000    0.000    0.000    0.000 
#
# Total GULP energy -167281.544066 kJ/mol
# GULP energy per Si atom -5576.051469 kJ/mol
# Density = 2.180690 g / cm^3
# Si number density = 21.856652 Si / 1000 Ang^3
#
#
#
# Elastic Constant Matrix: (Units=GPa)
#
#
# Indices 1 2 3 4 5 6 
#
# 1 82.0017 6.6397 -14.0922 0.0000 0.0000 0.0000
# 2 6.6397 91.6162 27.0625 0.0000 0.0000 0.0000
# 3 -14.0922 27.0625 62.5843 0.0000 0.0000 0.0000
# 4 0.0000 0.0000 0.0000 40.0848 0.0000 0.0000
# 5 0.0000 0.0000 0.0000 0.0000 26.9989 0.0000
# 6 0.0000 0.0000 0.0000 0.0000 0.0000 4.4236
#
#
#
# Elastic Compliance Matrix: (Units=1/GPa)
#
#
# Indices 1 2 3 4 5 6 
#
# 1 0.013021 -0.002075 0.003829 0.000000 0.000000 0.000000
# 2 -0.002075 0.012844 -0.006021 0.000000 0.000000 0.000000
# 3 0.003829 -0.006021 0.019444 0.000000 0.000000 0.000000
# 4 0.000000 0.000000 0.000000 0.024947 0.000000 0.000000
# 5 0.000000 0.000000 0.000000 0.000000 0.037039 0.000000
# 6 0.000000 0.000000 0.000000 0.000000 0.000000 0.226061
#
#
# Mechanical properties :
#
#
# Convention : Reuss Voigt Hill
#
# Bulk Modulus (GPa) = 27.19192 30.60247 28.89719
# Shear Modulus (GPa) = 14.11840 28.74093 21.42967
#
# Velocity S-wave (km/s) = 2.54432 3.63019 3.13463
# Velocity P-wave (km/s) = 4.59341 5.62164 5.13334
#
# Compressibility (1/GPa) = 0.03677563
#
# Stress axis : x y z
#
# Youngs Moduli (GPa) = 76.79961 77.85703 51.42893
#
# Poissons Ratio (x) = 0.16153 -0.19693
# Poissons Ratio (y) = 0.15934 0.30966
# Poissons Ratio (z) = -0.29407 0.46879
#
# Static dielectric constant tensor:
#      x y z
#    x 1.811070 0.000000 0.000000 
#    y 0.000000 1.779220 0.000000 
#    z 0.000000 0.000000 1.891220 
# 
# From -- ./inp_files/10784.got.cif
#   From: 2010.05.17/outbox.cif.g08.bks.cpg/sg20_6_cif.got.tgz:10784.got - 2010.06.03 22:52:26.
