data_PCOD9319387
_publ_section_title
;
Structure prediction by ZEFSAII (Michael W. Deem and Ramdas Pophale) SiO2 
 PCOD9319387
Probable space group: C 2 2 21
;
_chemical_formula_sum "Si O2"
_cell_formula_units_Z 44
_cell_length_a 27.171414
_cell_length_b 9.592886
_cell_length_c 8.277141
_cell_angle_alpha 90.000000
_cell_angle_beta 90.000000
_cell_angle_gamma 90.000000
_cell_volume 2157.455648
_symmetry_space_group_name_H-M "C 2 2 21"
_symmetry_group_IT_number 20
_symmetry_cell_setting 'orthorhombic'
loop_
_space_group_symop_operation_xyz
x,y,z
-x,-y,1/2+z
x,-y,-z
-x,y,1/2-z
1/2+x,1/2+y,z
1/2-x,1/2-y,1/2+z
1/2+x,1/2-y,-z
1/2-x,1/2+y,1/2-z
loop_
_atom_site_type_symbol
_atom_site_label
_atom_site_fract_x
_atom_site_fract_y
_atom_site_fract_z
Si Si1 0.026237 0.347217 0.574936
Si Si2 0.095052 0.144343 0.428663
Si Si3 0.779471 0.500000 0.500000
Si Si4 0.835826 0.212892 0.543748
Si Si5 0.943050 0.842969 0.566441
Si Si6 0.690171 0.468765 0.734544
O O1 0.030281 0.500000 0.500000
O O2 0.078439 0.267319 0.549086
O O3 0.000000 0.353448 0.750000
O O4 0.988842 0.251989 0.473708
O O5 0.069885 0.160874 0.254637
O O6 0.152439 0.113108 0.385354
O O7 0.075740 0.000000 0.500000
O O8 0.812669 0.364417 0.527793
O O9 0.742223 0.495753 0.652070
O O10 0.894084 0.216197 0.517558
O O11 0.811423 0.125336 0.395764
O O12 0.828230 0.120163 0.704339
O O13 0.949699 0.000000 0.500000
#
# Coordination Sequence:
#
# PCOD9319387 Si02
#       6
#     8   8   4   8   8   8
#     4  12  27  43  65  97 134 167 218 277 337 396
#     4  11  21  41  67  93 125 174 223 263 327 395
#     4  12  22  36  68  96 128 170 220 282 332 384
#     4  10  22  40  63  96 129 176 217 274 337 387
#     4  11  21  42  67  90 129 175 219 268 325 403
#     4  10  21  42  64  90 133 168 222 268 322 409
#
# _framework density 20.394393999999998
#
# number of rings (size 3 to 8) (size 9 to 14) (size 15 to 20)
#    0.000    1.091    4.545    4.364    1.273    0.000 
#    0.000    0.000    4.000    0.000    0.000    0.000 
#    0.000    0.000    0.000    0.000    0.000    0.000 
#
# Total GULP energy -122803.048616 kJ/mol
# GULP energy per Si atom -5581.956755 kJ/mol
# Density = 2.034798 g / cm^3
# Si number density = 20.394394 Si / 1000 Ang^3
#
#
#
# Elastic Constant Matrix: (Units=GPa)
#
#
# Indices 1 2 3 4 5 6 
#
# 1 93.1272 83.9569 9.8659 0.0000 0.0000 0.0000
# 2 83.9569 147.7800 29.6028 0.0000 0.0000 0.0000
# 3 9.8659 29.6028 47.0564 0.0000 0.0000 0.0000
# 4 0.0000 0.0000 0.0000 28.8174 0.0000 0.0000
# 5 0.0000 0.0000 0.0000 0.0000 3.9037 0.0000
# 6 0.0000 0.0000 0.0000 0.0000 0.0000 14.3450
#
#
#
# Elastic Compliance Matrix: (Units=1/GPa)
#
#
# Indices 1 2 3 4 5 6 
#
# 1 0.022597 -0.013603 0.003820 0.000000 0.000000 0.000000
# 2 -0.013603 0.015931 -0.007170 0.000000 0.000000 0.000000
# 3 0.003820 -0.007170 0.024961 0.000000 0.000000 0.000000
# 4 0.000000 0.000000 0.000000 0.034701 0.000000 0.000000
# 5 0.000000 0.000000 0.000000 0.000000 0.256164 0.000000
# 6 0.000000 0.000000 0.000000 0.000000 0.000000 0.069711
#
#
# Mechanical properties :
#
#
# Convention : Reuss Voigt Hill
#
# Bulk Modulus (GPa) = 33.80401 59.42387 46.61394
# Shear Modulus (GPa) = 10.68759 20.38244 15.53502
#
# Velocity S-wave (km/s) = 2.29169 3.16478 2.76294
# Velocity P-wave (km/s) = 4.85938 6.52342 5.75190
#
# Compressibility (1/GPa) = 0.02958229
#
# Stress axis : x y z
#
# Youngs Moduli (GPa) = 44.25432 62.77007 40.06264
#
# Poissons Ratio (x) = 0.85385 -0.15303
# Poissons Ratio (y) = 0.60198 0.28726
# Poissons Ratio (z) = -0.16904 0.45007
#
# Static dielectric constant tensor:
#      x y z
#    x 1.744700 0.000000 0.000000 
#    y 0.000000 1.698360 0.000000 
#    z 0.000000 0.000000 1.823730 
# 
# From -- ./inp_files/11385.got.cif
#   From: 2010.05.17/outbox.cif.g08.bks.cpg/sg20_6_cif.got.tgz:11385.got - 2010.06.03 22:52:26.
