data_PCOD9319178
_publ_section_title
;
Structure prediction by ZEFSAII (Michael W. Deem and Ramdas Pophale) SiO2 
 PCOD9319178
Probable space group: C 2 2 21
;
_chemical_formula_sum "Si O2"
_cell_formula_units_Z 60
_cell_length_a 9.243489
_cell_length_b 10.649333
_cell_length_c 30.488432
_cell_angle_alpha 90.000000
_cell_angle_beta 90.000000
_cell_angle_gamma 90.000000
_cell_volume 3001.189550
_symmetry_space_group_name_H-M "C 2 2 21"
_symmetry_group_IT_number 20
_symmetry_cell_setting 'orthorhombic'
loop_
_space_group_symop_operation_xyz
x,y,z
-x,-y,1/2+z
x,-y,-z
-x,y,1/2-z
1/2+x,1/2+y,z
1/2-x,1/2-y,1/2+z
1/2+x,1/2-y,-z
1/2-x,1/2+y,1/2-z
loop_
_atom_site_type_symbol
_atom_site_label
_atom_site_fract_x
_atom_site_fract_y
_atom_site_fract_z
Si Si1 0.807989 0.107356 0.937385
Si Si2 0.969891 0.605448 0.913151
Si Si3 0.492605 0.172040 0.413742
Si Si4 0.937684 0.293432 0.184240
Si Si5 0.193865 0.626099 0.773437
Si Si6 0.500000 0.294506 0.250000
Si Si7 0.335274 0.130401 0.321565
Si Si8 0.697954 0.327918 0.539595
O O1 0.906498 0.206037 0.911297
O O2 0.641599 0.114497 0.922225
O O3 0.848508 0.959313 0.936832
O O4 0.819472 0.150806 0.987963
O O5 0.927412 0.460569 0.922787
O O6 0.940253 0.638843 0.862496
O O7 0.887907 0.708510 0.942299
O O8 0.405537 0.149746 0.368734
O O9 0.367912 0.190109 0.450004
O O10 0.864790 0.375765 0.223470
O O11 0.830504 0.176247 0.179050
O O12 0.099031 0.265003 0.202665
O O13 0.365449 0.634635 0.771488
O O14 0.155119 0.508364 0.803058
O O15 0.424673 0.212807 0.287303
#
# Coordination Sequence:
#
# PCOD9319178 Si02
#       8
#     8   8   8   8   8   4   8   8
#     4  10  24  41  65  96 126 173 214 272 327 394
#     4  11  22  41  66  97 127 172 210 271 323 391
#     4  11  23  39  68  96 128 169 220 267 321 392
#     4  10  21  40  63  89 128 169 210 260 325 376
#     4  10  22  41  61  88 126 165 210 263 315 376
#     4  10  24  36  62  90 118 166 214 258 312 378
#     4  11  22  40  62  89 129 168 209 267 318 379
#     4  10  22  44  64  90 135 168 214 270 336 385
#
# _framework density 19.992072
#
# number of rings (size 3 to 8) (size 9 to 14) (size 15 to 20)
#    0.000    1.600    2.667    1.600    1.867    4.800 
#    0.000    1.333    0.000    0.000    0.000    0.000 
#    0.000    0.000    0.000    0.000    0.000    0.000 
#
# Total GULP energy -167426.472134 kJ/mol
# GULP energy per Si atom -5580.882404 kJ/mol
# Density = 1.994657 g / cm^3
# Si number density = 19.992072 Si / 1000 Ang^3
#
#
#
# Elastic Constant Matrix: (Units=GPa)
#
#
# Indices 1 2 3 4 5 6 
#
# 1 63.0201 26.3744 4.4614 0.0000 0.0000 0.0000
# 2 26.3744 76.0236 12.2115 0.0000 0.0000 0.0000
# 3 4.4614 12.2115 61.0142 0.0000 0.0000 0.0000
# 4 0.0000 0.0000 0.0000 33.5093 0.0000 0.0000
# 5 0.0000 0.0000 0.0000 0.0000 30.3602 0.0000
# 6 0.0000 0.0000 0.0000 0.0000 0.0000 29.2416
#
#
#
# Elastic Compliance Matrix: (Units=1/GPa)
#
#
# Indices 1 2 3 4 5 6 
#
# 1 0.018563 -0.006429 -0.000071 0.000000 0.000000 0.000000
# 2 -0.006429 0.015817 -0.002696 0.000000 0.000000 0.000000
# 3 -0.000071 -0.002696 0.016934 0.000000 0.000000 0.000000
# 4 0.000000 0.000000 0.000000 0.029842 0.000000 0.000000
# 5 0.000000 0.000000 0.000000 0.000000 0.032938 0.000000
# 6 0.000000 0.000000 0.000000 0.000000 0.000000 0.034198
#
#
# Mechanical properties :
#
#
# Convention : Reuss Voigt Hill
#
# Bulk Modulus (GPa) = 30.37231 31.79473 31.08352
# Shear Modulus (GPa) = 28.14397 29.08960 28.61679
#
# Velocity S-wave (km/s) = 3.75608 3.81866 3.78750
# Velocity P-wave (km/s) = 5.83404 5.94820 5.89139
#
# Compressibility (1/GPa) = 0.03292473
#
# Stress axis : x y z
#
# Youngs Moduli (GPa) = 53.86934 63.22280 59.05177
#
# Poissons Ratio (x) = 0.40644 0.00418
# Poissons Ratio (y) = 0.34631 0.15918
# Poissons Ratio (z) = 0.00381 0.17042
#
# Static dielectric constant tensor:
#      x y z
#    x 1.724570 0.000000 0.000000 
#    y 0.000000 1.713110 0.000000 
#    z 0.000000 0.000000 1.702060 
# 
# From -- ./inp_files/31051.got.cif
#   From: 2010.05.17/outbox.cif.g08.bks.cpg/sg20_16_cif.got.tgz:31051.got - 2010.06.03 22:52:26.
