data_PCOD9319373
_publ_section_title
;
Structure prediction by ZEFSAII (Michael W. Deem and Ramdas Pophale) SiO2 
 PCOD9319373
Probable space group: C 2 2 21
;
_chemical_formula_sum "Si O2"
_cell_formula_units_Z 40
_cell_length_a 7.803840
_cell_length_b 17.136280
_cell_length_c 15.532007
_cell_angle_alpha 90.000000
_cell_angle_beta 90.000000
_cell_angle_gamma 90.000000
_cell_volume 2077.076461
_symmetry_space_group_name_H-M "C 2 2 21"
_symmetry_group_IT_number 20
_symmetry_cell_setting 'orthorhombic'
loop_
_space_group_symop_operation_xyz
x,y,z
-x,-y,1/2+z
x,-y,-z
-x,y,1/2-z
1/2+x,1/2+y,z
1/2-x,1/2-y,1/2+z
1/2+x,1/2-y,-z
1/2-x,1/2+y,1/2-z
loop_
_atom_site_type_symbol
_atom_site_label
_atom_site_fract_x
_atom_site_fract_y
_atom_site_fract_z
Si Si1 0.000000 0.855497 0.750000
Si Si2 0.468879 0.764698 0.596692
Si Si3 0.630361 0.745485 0.093263
Si Si4 0.000000 0.149389 0.750000
Si Si5 0.348091 0.915996 0.680049
Si Si6 0.645804 0.089995 0.823612
O O1 0.968636 0.800843 0.667195
O O2 0.831767 0.905546 0.770808
O O3 0.429399 0.730094 0.503383
O O4 0.671793 0.778220 0.602065
O O5 0.429371 0.704998 0.673838
O O6 0.370817 0.845238 0.613668
O O7 0.616516 0.837978 0.112255
O O8 0.163475 0.102580 0.715176
O O9 0.500000 0.907034 0.750000
O O10 0.362266 0.002260 0.640602
O O11 0.500000 0.095582 0.750000
#
# Coordination Sequence:
#
# PCOD9319373 Si02
#       6
#     4   8   8   4   8   8
#     4  12  21  40  65  90 118 162 200 250 303 356
#     4  11  22  38  63  90 124 155 209 252 295 357
#     4  11  23  38  63  90 120 163 202 253 299 356
#     4  10  21  42  59  90 118 158 200 252 293 360
#     4  11  21  39  60  89 120 153 197 246 300 359
#     4  10  22  37  62  86 118 157 194 244 303 354
#
# _framework density 19.257836999999999
#
# number of rings (size 3 to 8) (size 9 to 14) (size 15 to 20)
#    0.000    1.200    4.000    3.000    2.800    0.800 
#    0.000    0.000    0.000    3.600    0.000    0.000 
#    0.000    0.000    0.000    0.000    0.000    0.000 
#
# Total GULP energy -111724.434602 kJ/mol
# GULP energy per Si atom -5586.221730 kJ/mol
# Density = 1.921401 g / cm^3
# Si number density = 19.257837 Si / 1000 Ang^3
#
#
#
# Elastic Constant Matrix: (Units=GPa)
#
#
# Indices 1 2 3 4 5 6 
#
# 1 72.9792 10.8188 -10.1493 0.0000 0.0000 0.0000
# 2 10.8188 84.5970 20.5823 0.0000 0.0000 0.0000
# 3 -10.1493 20.5823 80.6096 0.0000 0.0000 0.0000
# 4 0.0000 0.0000 0.0000 -15.7122 0.0000 0.0000
# 5 0.0000 0.0000 0.0000 0.0000 23.1751 0.0000
# 6 0.0000 0.0000 0.0000 0.0000 0.0000 14.5808
#
#
#
# Elastic Compliance Matrix: (Units=1/GPa)
#
#
# Indices 1 2 3 4 5 6 
#
# 1 0.014402 -0.002434 0.002435 0.000000 0.000000 0.000000
# 2 -0.002434 0.013015 -0.003630 0.000000 0.000000 0.000000
# 3 0.002435 -0.003630 0.013639 0.000000 0.000000 0.000000
# 4 0.000000 0.000000 0.000000 -0.063645 0.000000 0.000000
# 5 0.000000 0.000000 0.000000 0.000000 0.043150 0.000000
# 6 0.000000 0.000000 0.000000 0.000000 0.000000 0.068584
#
#
# Mechanical properties :
#
#
# Convention : Reuss Voigt Hill
#
# Bulk Modulus (GPa) = 29.58767 31.18771 30.38769
# Shear Modulus (GPa) = 46.43885 18.87099 32.65492
#
# Velocity S-wave (km/s) = 4.91595 3.13375 4.12232
# Velocity P-wave (km/s) = 6.90069 5.41515 6.20255
#
# Compressibility (1/GPa) = 0.03379787
#
# Stress axis : x y z
#
# Youngs Moduli (GPa) = 69.43471 76.83352 73.32020
#
# Poissons Ratio (x) = 0.18703 -0.17852
# Poissons Ratio (y) = 0.16902 0.26613
# Poissons Ratio (z) = -0.16906 0.27888
#
# Static dielectric constant tensor:
#      x y z
#    x 1.679240 0.000000 0.000000 
#    y 0.000000 1.662760 0.000000 
#    z 0.000000 0.000000 1.670100 
# 
# From -- ./inp_files/18557.got.cif
#   From: 2010.05.17/outbox.cif.g08.bks.cpg/sg20_10_cif.got.tgz:18557.got - 2010.06.03 22:52:26.
