data_PCOD9319653
_publ_section_title
;
Structure prediction by ZEFSAII (Michael W. Deem and Ramdas Pophale) SiO2 
 PCOD9319653
Probable space group: C 2 2 21
;
_chemical_formula_sum "Si O2"
_cell_formula_units_Z 60
_cell_length_a 13.944914
_cell_length_b 24.823516
_cell_length_c 6.941844
_cell_angle_alpha 90.000000
_cell_angle_beta 90.000000
_cell_angle_gamma 90.000000
_cell_volume 2403.001185
_symmetry_space_group_name_H-M "C 2 2 21"
_symmetry_group_IT_number 20
_symmetry_cell_setting 'orthorhombic'
loop_
_space_group_symop_operation_xyz
x,y,z
-x,-y,1/2+z
x,-y,-z
-x,y,1/2-z
1/2+x,1/2+y,z
1/2-x,1/2-y,1/2+z
1/2+x,1/2-y,-z
1/2-x,1/2+y,1/2-z
loop_
_atom_site_type_symbol
_atom_site_label
_atom_site_fract_x
_atom_site_fract_y
_atom_site_fract_z
Si Si1 0.683320 0.689812 0.361604
Si Si2 0.103848 0.453074 0.665737
Si Si3 0.288250 0.499878 0.792996
Si Si4 0.692565 0.108858 0.649556
Si Si5 0.595920 0.405675 0.874927
Si Si6 0.000000 0.345906 0.250000
Si Si7 0.375322 0.333011 0.284640
Si Si8 0.384493 0.768847 0.472902
O O1 0.664980 0.638230 0.226917
O O2 0.623976 0.675222 0.555914
O O3 0.646291 0.739533 0.229463
O O4 0.791968 0.701623 0.432197
O O5 0.098657 0.500000 0.500000
O O6 0.184861 0.470926 0.814251
O O7 0.150224 0.402569 0.559604
O O8 0.000000 0.444446 0.750000
O O9 0.256167 0.558831 0.723363
O O10 0.351079 0.462655 0.653065
O O11 0.337804 0.500000 0.000000
O O12 0.593897 0.117372 0.759898
O O13 0.761936 0.159119 0.667777
O O14 0.500000 0.406740 0.750000
O O15 0.579926 0.382951 0.091920
O O16 0.975395 0.306512 0.427774
O O17 0.410759 0.279442 0.386076
#
# Coordination Sequence:
#
# PCOD9319653 Si02
#       8
#     8   8   8   8   8   4   8   8
#     4  11  22  44  77 107 143 205 238 306 392 439
#     4  10  22  37  62  99 138 184 236 291 354 440
#     4  11  24  44  73 101 142 193 240 303 376 440
#     4  11  24  44  71 102 142 193 232 302 375 439
#     4  11  27  48  72 109 148 190 262 321 367 451
#     4  12  26  44  70 112 148 180 248 314 360 450
#     4  11  23  48  75 100 148 196 241 306 389 444
#     4  11  24  43  73 106 150 190 248 308 372 453
#
# _framework density 24.968775999999998
#
# number of rings (size 3 to 8) (size 9 to 14) (size 15 to 20)
#    0.000    1.067    4.000    1.200    9.333    0.533 
#    2.400    0.000    0.000    0.000    0.000    0.000 
#    0.000    0.000    0.000    0.000    0.000    0.000 
#
# Total GULP energy -167634.224051 kJ/mol
# GULP energy per Si atom -5587.807468 kJ/mol
# Density = 2.491195 g / cm^3
# Si number density = 24.968776 Si / 1000 Ang^3
#
#
#
# Elastic Constant Matrix: (Units=GPa)
#
#
# Indices 1 2 3 4 5 6 
#
# 1 122.6382 37.9616 11.9222 0.0000 0.0000 0.0000
# 2 37.9616 109.4138 29.0476 0.0000 0.0000 0.0000
# 3 11.9222 29.0476 124.5581 0.0000 0.0000 0.0000
# 4 0.0000 0.0000 0.0000 19.6690 0.0000 0.0000
# 5 0.0000 0.0000 0.0000 0.0000 39.2516 0.0000
# 6 0.0000 0.0000 0.0000 0.0000 0.0000 17.0154
#
#
#
# Elastic Compliance Matrix: (Units=1/GPa)
#
#
# Indices 1 2 3 4 5 6 
#
# 1 0.009138 -0.003132 -0.000144 0.000000 0.000000 0.000000
# 2 -0.003132 0.010816 -0.002223 0.000000 0.000000 0.000000
# 3 -0.000144 -0.002223 0.008561 0.000000 0.000000 0.000000
# 4 0.000000 0.000000 0.000000 0.050842 0.000000 0.000000
# 5 0.000000 0.000000 0.000000 0.000000 0.025477 0.000000
# 6 0.000000 0.000000 0.000000 0.000000 0.000000 0.058770
#
#
# Mechanical properties :
#
#
# Convention : Reuss Voigt Hill
#
# Bulk Modulus (GPa) = 57.08844 57.16366 57.12605
# Shear Modulus (GPa) = 27.71013 33.69913 30.70463
#
# Velocity S-wave (km/s) = 3.33497 3.67774 3.51054
# Velocity P-wave (km/s) = 6.14353 6.40142 6.27380
#
# Compressibility (1/GPa) = 0.01751668
#
# Stress axis : x y z
#
# Youngs Moduli (GPa) = 109.43816 92.45253 116.81537
#
# Poissons Ratio (x) = 0.28956 0.01685
# Poissons Ratio (y) = 0.34276 0.25964
# Poissons Ratio (z) = 0.01578 0.20549
#
# Static dielectric constant tensor:
#      x y z
#    x 1.974700 0.000000 0.000000 
#    y 0.000000 2.015190 0.000000 
#    z 0.000000 0.000000 2.084290 
# 
# From -- ./inp_files/7560.got.cif
#   From: 2010.05.17/outbox.cif.g08.bks.cpg/sg20_4_cif.got.tgz:7560.got - 2010.06.03 22:52:26.
