data_PCOD9319737
_publ_section_title
;
Structure prediction by ZEFSAII (Michael W. Deem and Ramdas Pophale) SiO2 
 PCOD9319737
Probable space group: C 2 2 21
;
_chemical_formula_sum "Si O2"
_cell_formula_units_Z 48
_cell_length_a 14.181418
_cell_length_b 8.869959
_cell_length_c 17.332236
_cell_angle_alpha 90.000000
_cell_angle_beta 90.000000
_cell_angle_gamma 90.000000
_cell_volume 2180.197636
_symmetry_space_group_name_H-M "C 2 2 21"
_symmetry_group_IT_number 20
_symmetry_cell_setting 'orthorhombic'
loop_
_space_group_symop_operation_xyz
x,y,z
-x,-y,1/2+z
x,-y,-z
-x,y,1/2-z
1/2+x,1/2+y,z
1/2-x,1/2-y,1/2+z
1/2+x,1/2-y,-z
1/2-x,1/2+y,1/2-z
loop_
_atom_site_type_symbol
_atom_site_label
_atom_site_fract_x
_atom_site_fract_y
_atom_site_fract_z
Si Si1 0.490719 0.096754 0.930846
Si Si2 0.737715 0.484628 0.192133
Si Si3 0.331742 0.274514 0.575798
Si Si4 0.294681 0.751539 0.074270
Si Si5 0.175785 0.067342 0.640798
Si Si6 0.930993 0.344097 0.816930
O O1 0.558857 0.236650 0.919561
O O2 0.385508 0.151009 0.950206
O O3 0.482626 0.979679 0.861145
O O4 0.533006 0.000000 0.000000
O O5 0.690502 0.573163 0.121180
O O6 0.762558 0.322255 0.156080
O O7 0.676220 0.473529 0.268704
O O8 0.833067 0.578769 0.210430
O O9 0.285267 0.268407 0.490865
O O10 0.276115 0.144228 0.622258
O O11 0.328190 0.581138 0.089157
O O12 0.099760 0.201524 0.630558
O O13 0.000000 0.291535 0.750000
#
# Coordination Sequence:
#
# PCOD9319737 Si02
#       6
#     8   8   8   8   8   8
#     4  11  23  40  63  88 121 165 211 259 315 374
#     4  10  22  41  63  90 125 166 208 257 317 378
#     4  11  23  41  64  90 123 168 211 254 316 379
#     4  11  22  41  64  92 128 163 208 265 314 372
#     4  11  22  38  62  90 125 163 205 261 313 370
#     4  10  22  39  60  88 124 163 208 256 310 375
#
# _framework density 22.016352000000001
#
# number of rings (size 3 to 8) (size 9 to 14) (size 15 to 20)
#    0.000    1.333    0.000    8.000    0.000    4.000 
#    0.000    5.833    0.000    0.000    0.000    0.000 
#    0.000    0.000    0.000    0.000    0.000    0.000 
#
# Total GULP energy -134147.141476 kJ/mol
# GULP energy per Si atom -5589.464228 kJ/mol
# Density = 2.196624 g / cm^3
# Si number density = 22.016352 Si / 1000 Ang^3
#
#
#
# Elastic Constant Matrix: (Units=GPa)
#
#
# Indices 1 2 3 4 5 6 
#
# 1 54.1913 6.4897 8.8588 0.0000 0.0000 0.0000
# 2 6.4897 88.9828 15.6228 0.0000 0.0000 0.0000
# 3 8.8588 15.6228 71.0828 0.0000 0.0000 0.0000
# 4 0.0000 0.0000 0.0000 36.5746 0.0000 0.0000
# 5 0.0000 0.0000 0.0000 0.0000 27.2165 0.0000
# 6 0.0000 0.0000 0.0000 0.0000 0.0000 -1.9483
#
#
#
# Elastic Compliance Matrix: (Units=1/GPa)
#
#
# Indices 1 2 3 4 5 6 
#
# 1 0.018923 -0.001005 -0.002137 0.000000 0.000000 0.000000
# 2 -0.001005 0.011743 -0.002456 0.000000 0.000000 0.000000
# 3 -0.002137 -0.002456 0.014874 0.000000 0.000000 0.000000
# 4 0.000000 0.000000 0.000000 0.027341 0.000000 0.000000
# 5 0.000000 0.000000 0.000000 0.000000 0.036742 0.000000
# 6 0.000000 0.000000 0.000000 0.000000 0.000000 -0.513264
#
#
# Mechanical properties :
#
#
# Convention : Reuss Voigt Hill
#
# Bulk Modulus (GPa) = 29.11725 30.68884 29.90305
# Shear Modulus (GPa) = -13.12345 24.58760 5.73208
#
# Velocity S-wave (km/s) = -2.44412 3.34546 1.61530
# Velocity P-wave (km/s) = 2.29979 5.37515 4.13408
#
# Compressibility (1/GPa) = 0.03434390
#
# Stress axis : x y z
#
# Youngs Moduli (GPa) = 52.84607 85.16038 67.23057
#
# Poissons Ratio (x) = 0.08557 0.14370
# Poissons Ratio (y) = 0.05310 0.16509
# Poissons Ratio (z) = 0.11296 0.20912
#
# Static dielectric constant tensor:
#      x y z
#    x 1.789930 0.000000 0.000000 
#    y 0.000000 1.810970 0.000000 
#    z 0.000000 0.000000 2.134320 
# 
# From -- ./inp_files/23469.got.cif
#   From: 2010.05.17/outbox.cif.g08.bks.cpg/sg20_12_cif.got.tgz:23469.got - 2010.06.03 22:52:26.
