data_PCOD9319838
_publ_section_title
;
Structure prediction by ZEFSAII (Michael W. Deem and Ramdas Pophale) SiO2 
 PCOD9319838
Probable space group: C 2 2 21
;
_chemical_formula_sum "Si O2"
_cell_formula_units_Z 40
_cell_length_a 17.218519
_cell_length_b 16.463879
_cell_length_c 5.983217
_cell_angle_alpha 90.000000
_cell_angle_beta 90.000000
_cell_angle_gamma 90.000000
_cell_volume 1696.143975
_symmetry_space_group_name_H-M "C 2 2 21"
_symmetry_group_IT_number 20
_symmetry_cell_setting 'orthorhombic'
loop_
_space_group_symop_operation_xyz
x,y,z
-x,-y,1/2+z
x,-y,-z
-x,y,1/2-z
1/2+x,1/2+y,z
1/2-x,1/2-y,1/2+z
1/2+x,1/2-y,-z
1/2-x,1/2+y,1/2-z
loop_
_atom_site_type_symbol
_atom_site_label
_atom_site_fract_x
_atom_site_fract_y
_atom_site_fract_z
Si Si1 0.960348 0.500000 0.500000
Si Si2 0.745711 0.500000 0.500000
Si Si3 0.927743 0.676941 0.581648
Si Si4 0.834227 0.155473 0.833742
Si Si5 0.500000 0.306922 0.250000
Si Si6 0.678496 0.000000 0.500000
Si Si7 0.308225 0.825529 0.064961
O O1 0.916879 0.586011 0.491577
O O2 0.000000 0.499032 0.250000
O O3 0.700116 0.414402 0.491872
O O4 0.784407 0.500307 0.251093
O O5 0.956600 0.745723 0.416789
O O6 0.848275 0.699616 0.702379
O O7 0.000000 0.672889 0.750000
O O8 0.781324 0.150663 0.608488
O O9 0.926545 0.141844 0.830671
O O10 0.820562 0.248473 0.910353
O O11 0.644684 0.092096 0.501093
#
# Coordination Sequence:
#
# PCOD9319838 Si02
#       7
#     4   4   8   8   4   4   8
#     4  10  22  40  64  94 142 186 222 274 350 418
#     4  10  24  49  73 105 141 182 246 300 357 417
#     4  11  23  41  63  99 141 184 229 290 347 426
#     4  11  24  44  71 104 137 187 239 297 358 419
#     4  12  24  44  66 100 142 184 242 300 350 416
#     4  10  24  45  75 111 143 180 234 296 353 437
#     4  11  23  43  73 104 140 186 234 291 363 427
#
# _framework density 23.582901
#
# number of rings (size 3 to 8) (size 9 to 14) (size 15 to 20)
#    0.000    1.200    3.000    2.400    0.000   11.200 
#    0.000    6.000    0.000    0.000    0.000    0.000 
#    0.000    0.000    0.000    0.000    0.000    0.000 
#
# Total GULP energy -111438.743577 kJ/mol
# GULP energy per Si atom -5571.937179 kJ/mol
# Density = 2.352923 g / cm^3
# Si number density = 23.582901 Si / 1000 Ang^3
#
#
#
# Elastic Constant Matrix: (Units=GPa)
#
#
# Indices 1 2 3 4 5 6 
#
# 1 111.9379 3.4101 42.1474 0.0000 0.0000 0.0000
# 2 3.4101 92.6551 24.2979 0.0000 0.0000 0.0000
# 3 42.1474 24.2979 122.8496 0.0000 0.0000 0.0000
# 4 0.0000 0.0000 0.0000 37.7141 0.0000 0.0000
# 5 0.0000 0.0000 0.0000 0.0000 34.9028 0.0000
# 6 0.0000 0.0000 0.0000 0.0000 0.0000 142.0387
#
#
#
# Elastic Compliance Matrix: (Units=1/GPa)
#
#
# Indices 1 2 3 4 5 6 
#
# 1 0.010288 0.000577 -0.003644 0.000000 0.000000 0.000000
# 2 0.000577 0.011415 -0.002456 0.000000 0.000000 0.000000
# 3 -0.003644 -0.002456 0.009876 0.000000 0.000000 0.000000
# 4 0.000000 0.000000 0.000000 0.026515 0.000000 0.000000
# 5 0.000000 0.000000 0.000000 0.000000 0.028651 0.000000
# 6 0.000000 0.000000 0.000000 0.000000 0.000000 0.007040
#
#
# Mechanical properties :
#
#
# Convention : Reuss Voigt Hill
#
# Bulk Modulus (GPa) = 48.69945 51.90594 50.30269
# Shear Modulus (GPa) = 44.77257 60.10362 52.43810
#
# Velocity S-wave (km/s) = 4.36193 5.05385 4.72058
# Velocity P-wave (km/s) = 6.78702 7.49086 7.14761
#
# Compressibility (1/GPa) = 0.02053411
#
# Stress axis : x y z
#
# Youngs Moduli (GPa) = 97.20172 87.60043 101.25742
#
# Poissons Ratio (x) = -0.05053 0.36895
# Poissons Ratio (y) = -0.05607 0.24866
# Poissons Ratio (z) = 0.35417 0.21512
#
# Static dielectric constant tensor:
#      x y z
#    x 2.016710 0.000000 0.000000 
#    y 0.000000 1.864550 0.000000 
#    z 0.000000 0.000000 1.960320 
# 
# From -- ./inp_files/2555.got.cif
#   From: 2010.05.17/outbox.cif.g08.bks.cpg/sg20_2_cif.got.tgz:2555.got - 2010.06.03 22:52:26.
