data_PCOD9319444
_publ_section_title
;
Structure prediction by ZEFSAII (Michael W. Deem and Ramdas Pophale) SiO2 
 PCOD9319444
Probable space group: C 2 2 21
;
_chemical_formula_sum "Si O2"
_cell_formula_units_Z 56
_cell_length_a 15.077461
_cell_length_b 8.002852
_cell_length_c 19.273908
_cell_angle_alpha 90.000000
_cell_angle_beta 90.000000
_cell_angle_gamma 90.000000
_cell_volume 2325.641565
_symmetry_space_group_name_H-M "C 2 2 21"
_symmetry_group_IT_number 20
_symmetry_cell_setting 'orthorhombic'
loop_
_space_group_symop_operation_xyz
x,y,z
-x,-y,1/2+z
x,-y,-z
-x,y,1/2-z
1/2+x,1/2+y,z
1/2-x,1/2-y,1/2+z
1/2+x,1/2-y,-z
1/2-x,1/2+y,1/2-z
loop_
_atom_site_type_symbol
_atom_site_label
_atom_site_fract_x
_atom_site_fract_y
_atom_site_fract_z
Si Si1 0.143880 0.340093 0.611335
Si Si2 0.992825 0.149708 0.669355
Si Si3 0.934776 0.227352 0.306488
Si Si4 0.810362 0.713962 0.349972
Si Si5 0.171365 0.189878 0.474606
Si Si6 0.734237 0.541223 0.234264
Si Si7 0.001774 0.607898 0.564795
O O1 0.195082 0.305681 0.540535
O O2 0.204829 0.391906 0.673355
O O3 0.072485 0.484882 0.600320
O O4 0.085717 0.180565 0.632328
O O5 0.913192 0.252516 0.632436
O O6 0.000000 0.206557 0.750000
O O7 0.974158 0.953270 0.671029
O O8 0.848463 0.168248 0.264837
O O9 0.000000 0.309693 0.250000
O O10 0.932600 0.329821 0.377836
O O11 0.739824 0.724608 0.412047
O O12 0.786416 0.548651 0.306308
O O13 0.797066 0.862309 0.293150
O O14 0.068802 0.242658 0.458867
O O15 0.177891 0.000000 0.500000
O O16 0.965172 0.500000 0.500000
#
# Coordination Sequence:
#
# PCOD9319444 Si02
#       7
#     8   8   8   8   8   8   8
#     4  11  23  43  66  95 137 179 220 287 337 402
#     4  10  21  42  70 102 139 177 231 285 348 404
#     4  10  22  40  65 100 133 174 227 279 338 412
#     4  11  24  43  70 105 134 183 229 287 344 419
#     4  11  24  43  68  96 139 182 225 277 348 420
#     4  11  24  41  71  99 136 175 229 286 344 399
#     4  10  22  43  67  91 134 178 226 274 344 398
#
# _framework density 24.079378999999999
#
# number of rings (size 3 to 8) (size 9 to 14) (size 15 to 20)
#    0.000    1.429    2.857    1.714    2.000    1.714 
#    5.143    0.000    0.000    0.000    0.000    0.000 
#    0.000    0.000    0.000    0.000    0.000    0.000 
#
# Total GULP energy -156645.233632 kJ/mol
# GULP energy per Si atom -5594.472630 kJ/mol
# Density = 2.402457 g / cm^3
# Si number density = 24.079379 Si / 1000 Ang^3
#
#
#
# Elastic Constant Matrix: (Units=GPa)
#
#
# Indices 1 2 3 4 5 6 
#
# 1 37.4903 11.4216 15.5969 0.0000 0.0000 0.0000
# 2 11.4216 56.9843 11.0360 0.0000 0.0000 0.0000
# 3 15.5969 11.0360 104.2118 0.0000 0.0000 0.0000
# 4 0.0000 0.0000 0.0000 35.1282 0.0000 0.0000
# 5 0.0000 0.0000 0.0000 0.0000 46.3442 0.0000
# 6 0.0000 0.0000 0.0000 0.0000 0.0000 -52.0908
#
#
#
# Elastic Compliance Matrix: (Units=1/GPa)
#
#
# Indices 1 2 3 4 5 6 
#
# 1 0.029899 -0.005234 -0.003921 0.000000 0.000000 0.000000
# 2 -0.005234 0.018832 -0.001211 0.000000 0.000000 0.000000
# 3 -0.003921 -0.001211 0.010311 0.000000 0.000000 0.000000
# 4 0.000000 0.000000 0.000000 0.028467 0.000000 0.000000
# 5 0.000000 0.000000 0.000000 0.000000 0.021578 0.000000
# 6 0.000000 0.000000 0.000000 0.000000 0.000000 -0.019197
#
#
# Mechanical properties :
#
#
# Convention : Reuss Voigt Hill
#
# Bulk Modulus (GPa) = 26.10165 30.53284 28.31724
# Shear Modulus (GPa) = 40.52168 16.58510 28.55339
#
# Velocity S-wave (km/s) = 4.10669 2.62729 3.44728
# Velocity P-wave (km/s) = 5.77494 4.68093 5.25647
#
# Compressibility (1/GPa) = 0.03831176
#
# Stress axis : x y z
#
# Youngs Moduli (GPa) = 33.44586 53.10051 96.98500
#
# Poissons Ratio (x) = 0.27790 0.38024
# Poissons Ratio (y) = 0.17504 0.11745
# Poissons Ratio (z) = 0.13113 0.06431
#
# Static dielectric constant tensor:
#      x y z
#    x 1.938370 0.000000 0.000000 
#    y 0.000000 1.981090 0.000000 
#    z 0.000000 0.000000 1.931010 
# 
# From -- ./inp_files/27565.got.cif
#   From: 2010.05.17/outbox.cif.g08.bks.cpg/sg20_14_cif.got.tgz:27565.got - 2010.06.03 22:52:26.
