data_PCOD9319281
_publ_section_title
;
Structure prediction by ZEFSAII (Michael W. Deem and Ramdas Pophale) SiO2 
 PCOD9319281
Probable space group: C 2 2 21
;
_chemical_formula_sum "Si O2"
_cell_formula_units_Z 40
_cell_length_a 5.075899
_cell_length_b 13.464580
_cell_length_c 30.021484
_cell_angle_alpha 90.000000
_cell_angle_beta 90.000000
_cell_angle_gamma 90.000000
_cell_volume 2051.813765
_symmetry_space_group_name_H-M "C 2 2 21"
_symmetry_group_IT_number 20
_symmetry_cell_setting 'orthorhombic'
loop_
_space_group_symop_operation_xyz
x,y,z
-x,-y,1/2+z
x,-y,-z
-x,y,1/2-z
1/2+x,1/2+y,z
1/2-x,1/2-y,1/2+z
1/2+x,1/2-y,-z
1/2-x,1/2+y,1/2-z
loop_
_atom_site_type_symbol
_atom_site_label
_atom_site_fract_x
_atom_site_fract_y
_atom_site_fract_z
Si Si1 0.610906 0.680459 0.799431
Si Si2 0.491046 0.884695 0.988865
Si Si3 0.990884 0.206055 0.056270
Si Si4 0.746338 0.455281 0.781338
Si Si5 0.873051 0.774598 0.659337
O O1 0.500000 0.705293 0.750000
O O2 0.705039 0.566879 0.798501
O O3 0.362820 0.696768 0.831888
O O4 0.864120 0.744042 0.813624
O O5 0.208998 0.863418 0.966888
O O6 0.710408 0.842422 0.955088
O O7 0.508218 0.813581 0.032267
O O8 0.528934 0.000000 0.000000
O O9 0.048817 0.216232 0.108151
O O10 0.500000 0.431789 0.750000
O O11 0.743877 0.376639 0.820978
O O12 0.000000 0.450772 0.750000
#
# Coordination Sequence:
#
# PCOD9319281 Si02
#       5
#     8   8   8   8   8
#     4  11  23  39  58  83 116 157 196 234 290 347
#     4  10  21  41  63  83 120 158 186 238 301 355
#     4  10  23  38  59  93 115 147 202 237 288 365
#     4  11  23  38  57  82 113 153 197 235 283 345
#     4  12  23  38  61  87 119 151 194 252 292 336
#
# _framework density 19.494945999999999
#
# number of rings (size 3 to 8) (size 9 to 14) (size 15 to 20)
#    0.000    1.200    0.000    7.800    0.000    3.200 
#    0.000    0.000    0.000    0.000    0.000    0.000 
#    0.000    0.000    0.000    0.000    0.000    0.000 
#
# Total GULP energy -111842.927760 kJ/mol
# GULP energy per Si atom -5592.146388 kJ/mol
# Density = 1.945057 g / cm^3
# Si number density = 19.494946 Si / 1000 Ang^3
#
#
#
# Elastic Constant Matrix: (Units=GPa)
#
#
# Indices 1 2 3 4 5 6 
#
# 1 96.4156 15.1087 3.7534 0.0000 0.0000 0.0000
# 2 15.1087 110.1720 50.4419 0.0000 0.0000 0.0000
# 3 3.7534 50.4419 83.7188 0.0000 0.0000 0.0000
# 4 0.0000 0.0000 0.0000 11.7195 0.0000 0.0000
# 5 0.0000 0.0000 0.0000 0.0000 16.0636 0.0000
# 6 0.0000 0.0000 0.0000 0.0000 0.0000 23.7997
#
#
#
# Elastic Compliance Matrix: (Units=1/GPa)
#
#
# Indices 1 2 3 4 5 6 
#
# 1 0.010618 -0.001710 0.000554 0.000000 0.000000 0.000000
# 2 -0.001710 0.012810 -0.007641 0.000000 0.000000 0.000000
# 3 0.000554 -0.007641 0.016524 0.000000 0.000000 0.000000
# 4 0.000000 0.000000 0.000000 0.085328 0.000000 0.000000
# 5 0.000000 0.000000 0.000000 0.000000 0.062253 0.000000
# 6 0.000000 0.000000 0.000000 0.000000 0.000000 0.042017
#
#
# Mechanical properties :
#
#
# Convention : Reuss Voigt Hill
#
# Bulk Modulus (GPa) = 44.72741 47.65715 46.19228
# Shear Modulus (GPa) = 19.63889 25.05004 22.34447
#
# Velocity S-wave (km/s) = 3.17737 3.58851 3.38918
# Velocity P-wave (km/s) = 6.03770 6.45514 6.24991
#
# Compressibility (1/GPa) = 0.02235766
#
# Stress axis : x y z
#
# Youngs Moduli (GPa) = 94.17847 78.06507 60.51802
#
# Poissons Ratio (x) = 0.13348 -0.03354
# Poissons Ratio (y) = 0.16103 0.46245
# Poissons Ratio (z) = -0.05219 0.59653
#
# Static dielectric constant tensor:
#      x y z
#    x 1.664380 0.000000 0.000000 
#    y 0.000000 1.690460 0.000000 
#    z 0.000000 0.000000 1.643170 
# 
# From -- ./inp_files/29693.got.cif
#   From: 2010.05.17/outbox.cif.g08.bks.cpg/sg20_15_cif.got.tgz:29693.got - 2010.06.03 22:52:26.
