data_PCOD9319837
_publ_section_title
;
Structure prediction by ZEFSAII (Michael W. Deem and Ramdas Pophale) SiO2 
 PCOD9319837
Probable space group: C 2 2 21
;
_chemical_formula_sum "Si O2"
_cell_formula_units_Z 36
_cell_length_a 11.395605
_cell_length_b 13.088376
_cell_length_c 10.873843
_cell_angle_alpha 90.000000
_cell_angle_beta 90.000000
_cell_angle_gamma 90.000000
_cell_volume 1621.833281
_symmetry_space_group_name_H-M "C 2 2 21"
_symmetry_group_IT_number 20
_symmetry_cell_setting 'orthorhombic'
loop_
_space_group_symop_operation_xyz
x,y,z
-x,-y,1/2+z
x,-y,-z
-x,y,1/2-z
1/2+x,1/2+y,z
1/2-x,1/2-y,1/2+z
1/2+x,1/2-y,-z
1/2-x,1/2+y,1/2-z
loop_
_atom_site_type_symbol
_atom_site_label
_atom_site_fract_x
_atom_site_fract_y
_atom_site_fract_z
Si Si1 0.726848 0.830698 0.990915
Si Si2 0.500000 0.443495 0.750000
Si Si3 0.509902 0.270727 0.549021
Si Si4 0.753148 0.007994 0.799528
Si Si5 0.064303 0.547514 0.629828
O O1 0.613824 0.756516 0.982233
O O2 0.706922 0.905260 0.107896
O O3 0.860803 0.790511 0.010890
O O4 0.730454 0.900285 0.868155
O O5 0.481244 0.366829 0.635636
O O6 0.391175 0.512838 0.783967
O O7 0.541233 0.167300 0.622592
O O8 0.696669 0.021365 0.666408
O O9 0.030451 0.500000 0.500000
O O10 0.000000 0.503046 0.750000
#
# Coordination Sequence:
#
# PCOD9319837 Si02
#       5
#     8   4   8   8   8
#     4  10  22  42  69  96 136 180 227 293 349 419
#     4  10  22  40  64  94 142 178 220 296 362 412
#     4  11  22  41  66  99 137 178 231 292 349 414
#     4  10  22  43  65  95 137 179 230 283 360 418
#     4  12  24  42  73 101 136 182 235 292 345 422
#
# _framework density 22.197101
#
# number of rings (size 3 to 8) (size 9 to 14) (size 15 to 20)
#    0.000    1.333    3.333    1.333    3.111    1.778 
#    4.000    0.000    2.444    0.000    0.000    0.000 
#    0.000    0.000    0.000    0.000    0.000    0.000 
#
# Total GULP energy -100382.421090 kJ/mol
# GULP energy per Si atom -5576.801172 kJ/mol
# Density = 2.214658 g / cm^3
# Si number density = 22.197101 Si / 1000 Ang^3
#
#
#
# Elastic Constant Matrix: (Units=GPa)
#
#
# Indices 1 2 3 4 5 6 
#
# 1 149.8483 37.3827 29.0740 0.0000 0.0000 0.0000
# 2 37.3827 39.9656 13.2159 0.0000 0.0000 0.0000
# 3 29.0740 13.2159 85.8420 0.0000 0.0000 0.0000
# 4 0.0000 0.0000 0.0000 9.0179 0.0000 0.0000
# 5 0.0000 0.0000 0.0000 0.0000 41.8351 0.0000
# 6 0.0000 0.0000 0.0000 0.0000 0.0000 47.4679
#
#
#
# Elastic Compliance Matrix: (Units=1/GPa)
#
#
# Indices 1 2 3 4 5 6 
#
# 1 0.008972 -0.007784 -0.001840 0.000000 0.000000 0.000000
# 2 -0.007784 0.033116 -0.002462 0.000000 0.000000 0.000000
# 3 -0.001840 -0.002462 0.012652 0.000000 0.000000 0.000000
# 4 0.000000 0.000000 0.000000 0.110890 0.000000 0.000000
# 5 0.000000 0.000000 0.000000 0.000000 0.023903 0.000000
# 6 0.000000 0.000000 0.000000 0.000000 0.000000 0.021067
#
#
# Mechanical properties :
#
#
# Convention : Reuss Voigt Hill
#
# Bulk Modulus (GPa) = 32.71442 48.33345 40.52393
# Shear Modulus (GPa) = 20.41122 32.72974 26.57048
#
# Velocity S-wave (km/s) = 3.03569 3.84409 3.46356
# Velocity P-wave (km/s) = 5.20167 6.44397 5.85585
#
# Compressibility (1/GPa) = 0.03056756
#
# Stress axis : x y z
#
# Youngs Moduli (GPa) = 111.45347 30.19647 79.04055
#
# Poissons Ratio (x) = 0.23504 0.14547
# Poissons Ratio (y) = 0.86754 0.19461
# Poissons Ratio (z) = 0.20513 0.07435
#
# Static dielectric constant tensor:
#      x y z
#    x 2.022650 0.000000 0.000000 
#    y 0.000000 1.788080 0.000000 
#    z 0.000000 0.000000 1.815580 
# 
# From -- ./inp_files/13692.got.cif
#   From: 2010.05.17/outbox.cif.g08.bks.cpg/sg20_7_cif.got.tgz:13692.got - 2010.06.03 22:52:26.
