data_PCOD9319408
_publ_section_title
;
Structure prediction by ZEFSAII (Michael W. Deem and Ramdas Pophale) SiO2 
 PCOD9319408
Probable space group: C 2 2 21
;
_chemical_formula_sum "Si O2"
_cell_formula_units_Z 36
_cell_length_a 12.283521
_cell_length_b 27.105921
_cell_length_c 4.851974
_cell_angle_alpha 90.000000
_cell_angle_beta 90.000000
_cell_angle_gamma 90.000000
_cell_volume 1615.494582
_symmetry_space_group_name_H-M "C 2 2 21"
_symmetry_group_IT_number 20
_symmetry_cell_setting 'orthorhombic'
loop_
_space_group_symop_operation_xyz
x,y,z
-x,-y,1/2+z
x,-y,-z
-x,y,1/2-z
1/2+x,1/2+y,z
1/2-x,1/2-y,1/2+z
1/2+x,1/2-y,-z
1/2-x,1/2+y,1/2-z
loop_
_atom_site_type_symbol
_atom_site_label
_atom_site_fract_x
_atom_site_fract_y
_atom_site_fract_z
Si Si1 0.772609 0.815620 0.913133
Si Si2 0.240203 0.573284 0.946082
Si Si3 0.425556 0.500000 0.000000
Si Si4 0.096029 0.446333 0.577568
Si Si5 0.885474 0.770122 0.403360
O O1 0.761195 0.873870 0.911005
O O2 0.863246 0.791135 0.710012
O O3 0.661347 0.785197 0.869279
O O4 0.805308 0.803646 0.224225
O O5 0.350738 0.544332 0.879994
O O6 0.187519 0.543260 0.196804
O O7 0.155018 0.576755 0.690413
O O8 0.500000 0.518769 0.250000
O O9 0.051589 0.500000 0.500000
O O10 0.000000 0.418985 0.750000
O O11 0.000000 0.773936 0.250000
#
# Coordination Sequence:
#
# PCOD9319408 Si02
#       5
#     8   8   4   8   8
#     4  10  23  40  66  99 129 178 226 276 347 413
#     4  12  24  44  66  97 140 178 232 289 339 405
#     4  12  26  44  64  94 134 186 238 288 334 388
#     4  12  23  42  67  97 131 179 225 275 348 415
#     4  10  21  42  66  94 134 171 222 285 345 409
#
# _framework density 22.284196999999999
#
# number of rings (size 3 to 8) (size 9 to 14) (size 15 to 20)
#    0.000    0.889    2.222    5.333    0.000    3.556 
#    0.000    6.667    0.000    0.000    0.000    0.000 
#    0.000    0.000    0.000    0.000    0.000    0.000 
#
# Total GULP energy -100390.713781 kJ/mol
# GULP energy per Si atom -5577.261877 kJ/mol
# Density = 2.223348 g / cm^3
# Si number density = 22.284197 Si / 1000 Ang^3
#
#
#
# Elastic Constant Matrix: (Units=GPa)
#
#
# Indices 1 2 3 4 5 6 
#
# 1 79.8380 29.1055 31.3879 0.0000 0.0000 0.0000
# 2 29.1055 109.2302 14.4977 0.0000 0.0000 0.0000
# 3 31.3879 14.4977 118.7216 0.0000 0.0000 0.0000
# 4 0.0000 0.0000 0.0000 24.7358 0.0000 0.0000
# 5 0.0000 0.0000 0.0000 0.0000 44.1515 0.0000
# 6 0.0000 0.0000 0.0000 0.0000 0.0000 4.9033
#
#
#
# Elastic Compliance Matrix: (Units=1/GPa)
#
#
# Indices 1 2 3 4 5 6 
#
# 1 0.015245 -0.003585 -0.003593 0.000000 0.000000 0.000000
# 2 -0.003585 0.010149 -0.000291 0.000000 0.000000 0.000000
# 3 -0.003593 -0.000291 0.009408 0.000000 0.000000 0.000000
# 4 0.000000 0.000000 0.000000 0.040427 0.000000 0.000000
# 5 0.000000 0.000000 0.000000 0.000000 0.022649 0.000000
# 6 0.000000 0.000000 0.000000 0.000000 0.000000 0.203943
#
#
# Mechanical properties :
#
#
# Convention : Reuss Voigt Hill
#
# Bulk Modulus (GPa) = 50.34353 50.86355 50.60354
# Shear Modulus (GPa) = 15.46158 30.27804 22.86981
#
# Velocity S-wave (km/s) = 2.63693 3.69008 3.20703
# Velocity P-wave (km/s) = 5.64906 6.40548 6.03912
#
# Compressibility (1/GPa) = 0.01986352
#
# Stress axis : x y z
#
# Youngs Moduli (GPa) = 65.59595 98.53190 106.28699
#
# Poissons Ratio (x) = 0.35327 0.38185
# Poissons Ratio (y) = 0.23518 0.03098
# Poissons Ratio (z) = 0.23566 0.02872
#
# Static dielectric constant tensor:
#      x y z
#    x 1.881930 0.000000 0.000000 
#    y 0.000000 1.858150 0.000000 
#    z 0.000000 0.000000 1.826510 
# 
# From -- ./inp_files/1375.got.cif
#   From: 2010.05.17/outbox.cif.g08.bks.cpg/sg20_1_cif.got.tgz:1375.got - 2010.06.03 22:52:26.
