data_PCOD9319841
_publ_section_title
;
Structure prediction by ZEFSAII (Michael W. Deem and Ramdas Pophale) SiO2 
 PCOD9319841
Probable space group: C 2 2 21
;
_chemical_formula_sum "Si O2"
_cell_formula_units_Z 48
_cell_length_a 31.766789
_cell_length_b 8.665348
_cell_length_c 8.650285
_cell_angle_alpha 90.000000
_cell_angle_beta 90.000000
_cell_angle_gamma 90.000000
_cell_volume 2381.166387
_symmetry_space_group_name_H-M "C 2 2 21"
_symmetry_group_IT_number 20
_symmetry_cell_setting 'orthorhombic'
loop_
_space_group_symop_operation_xyz
x,y,z
-x,-y,1/2+z
x,-y,-z
-x,y,1/2-z
1/2+x,1/2+y,z
1/2-x,1/2-y,1/2+z
1/2+x,1/2-y,-z
1/2-x,1/2+y,1/2-z
loop_
_atom_site_type_symbol
_atom_site_label
_atom_site_fract_x
_atom_site_fract_y
_atom_site_fract_z
Si Si1 0.568962 0.000000 0.500000
Si Si2 0.899314 0.000000 0.000000
Si Si3 0.280476 0.097371 0.263599
Si Si4 0.953124 0.229295 0.212540
Si Si5 0.868576 0.720220 0.185643
Si Si6 0.113386 0.818115 0.970202
Si Si7 0.792649 0.739545 0.601080
O O1 0.543904 0.886681 0.386364
O O2 0.598983 0.891962 0.601922
O O3 0.928556 0.104104 0.109297
O O4 0.871894 0.886139 0.104588
O O5 0.321715 0.155036 0.174082
O O6 0.238564 0.133627 0.169393
O O7 0.281262 0.193492 0.424826
O O8 0.286019 0.918565 0.304548
O O9 0.923904 0.247230 0.363987
O O10 0.000000 0.175463 0.250000
O O11 0.882038 0.736509 0.364085
O O12 0.158895 0.792440 0.890880
O O13 0.106408 0.000000 0.000000
#
# Coordination Sequence:
#
# PCOD9319841 Si02
#       7
#     4   4   8   8   8   8   8
#     4  10  24  44  64 100 134 172 212 274 330 398
#     4  10  22  40  64  96 130 166 218 274 322 396
#     4  10  23  40  60  93 125 173 214 274 311 393
#     4  11  25  42  68  99 132 172 219 272 337 395
#     4  10  22  42  67  93 131 172 219 259 333 383
#     4  11  23  43  68  95 129 179 217 274 330 400
#     4  10  24  39  61  90 128 165 222 262 328 379
#
# _framework density 20.158187999999999
#
# number of rings (size 3 to 8) (size 9 to 14) (size 15 to 20)
#    0.000    1.667    1.667    1.000    5.833    8.667 
#    0.000    3.333    0.000    0.000    0.000    0.000 
#    0.000    0.000    0.000    0.000    0.000    0.000 
#
# Total GULP energy -134228.254323 kJ/mol
# GULP energy per Si atom -5592.843930 kJ/mol
# Density = 2.011231 g / cm^3
# Si number density = 20.158188 Si / 1000 Ang^3
#
#
#
# Elastic Constant Matrix: (Units=GPa)
#
#
# Indices 1 2 3 4 5 6 
#
# 1 56.0174 -25.6742 26.9638 0.0000 0.0000 0.0000
# 2 -25.6742 42.4622 6.0858 0.0000 0.0000 0.0000
# 3 26.9638 6.0858 59.9459 0.0000 0.0000 0.0000
# 4 0.0000 0.0000 0.0000 30.0651 0.0000 0.0000
# 5 0.0000 0.0000 0.0000 0.0000 19.8928 0.0000
# 6 0.0000 0.0000 0.0000 0.0000 0.0000 13.9369
#
#
#
# Elastic Compliance Matrix: (Units=1/GPa)
#
#
# Indices 1 2 3 4 5 6 
#
# 1 0.040654 0.027603 -0.021088 0.000000 0.000000 0.000000
# 2 0.027603 0.042640 -0.016745 0.000000 0.000000 0.000000
# 3 -0.021088 -0.016745 0.027867 0.000000 0.000000 0.000000
# 4 0.000000 0.000000 0.000000 0.033261 0.000000 0.000000
# 5 0.000000 0.000000 0.000000 0.000000 0.050269 0.000000
# 6 0.000000 0.000000 0.000000 0.000000 0.000000 0.071752
#
#
# Mechanical properties :
#
#
# Convention : Reuss Voigt Hill
#
# Bulk Modulus (GPa) = 11.02523 19.24181 15.13352
# Shear Modulus (GPa) = 15.76603 22.84898 19.30750
#
# Velocity S-wave (km/s) = 2.79967 3.37038 3.09819
# Velocity P-wave (km/s) = 3.99150 4.97112 4.50800
#
# Compressibility (1/GPa) = 0.09070105
#
# Stress axis : x y z
#
# Youngs Moduli (GPa) = 24.59796 23.45202 35.88434
#
# Poissons Ratio (x) = -0.64735 0.75675
# Poissons Ratio (y) = -0.67898 0.60088
# Poissons Ratio (z) = 0.51873 0.39270
#
# Static dielectric constant tensor:
#      x y z
#    x 1.651950 0.000000 0.000000 
#    y 0.000000 1.704490 0.000000 
#    z 0.000000 0.000000 1.730140 
# 
# From -- ./inp_files/11498.got.cif
#   From: 2010.05.17/outbox.cif.g08.bks.cpg/sg20_6_cif.got.tgz:11498.got - 2010.06.03 22:52:26.
