data_PCOD9319907
_publ_section_title
;
Structure prediction by ZEFSAII (Michael W. Deem and Ramdas Pophale) SiO2 
 PCOD9319907
Probable space group: C 2 2 21
;
_chemical_formula_sum "Si O2"
_cell_formula_units_Z 44
_cell_length_a 5.594952
_cell_length_b 29.193618
_cell_length_c 11.699871
_cell_angle_alpha 90.000000
_cell_angle_beta 90.000000
_cell_angle_gamma 90.000000
_cell_volume 1911.020559
_symmetry_space_group_name_H-M "C 2 2 21"
_symmetry_group_IT_number 20
_symmetry_cell_setting 'orthorhombic'
loop_
_space_group_symop_operation_xyz
x,y,z
-x,-y,1/2+z
x,-y,-z
-x,y,1/2-z
1/2+x,1/2+y,z
1/2-x,1/2-y,1/2+z
1/2+x,1/2-y,-z
1/2-x,1/2+y,1/2-z
loop_
_atom_site_type_symbol
_atom_site_label
_atom_site_fract_x
_atom_site_fract_y
_atom_site_fract_z
Si Si1 0.249513 0.553951 0.787510
Si Si2 0.272212 0.469678 0.615186
Si Si3 0.768187 0.325592 0.463571
Si Si4 0.115661 0.749774 0.626138
Si Si5 0.000000 0.803126 0.250000
Si Si6 0.272508 0.928416 0.549027
O O1 0.500000 0.576293 0.750000
O O2 0.256633 0.506289 0.717348
O O3 0.480867 0.559826 0.110467
O O4 0.000000 0.577129 0.750000
O O5 0.278247 0.500000 0.500000
O O6 0.021253 0.442526 0.608644
O O7 0.758500 0.547685 0.576603
O O8 0.613773 0.294971 0.550812
O O9 0.664765 0.331576 0.335483
O O10 0.797725 0.374805 0.519273
O O11 0.992571 0.292405 0.439961
O O12 0.371055 0.730791 0.662278
O O13 0.000000 0.757879 0.750000
#
# Coordination Sequence:
#
# PCOD9319907 Si02
#       6
#     8   8   8   8   4   8
#     4  12  23  41  71  94 136 184 231 297 363 414
#     4  12  24  45  68  97 142 192 220 296 381 409
#     4  11  24  42  75 107 144 187 246 293 360 425
#     4  10  22  44  71 101 147 197 224 294 373 434
#     4  10  22  40  72 100 138 192 234 284 366 418
#     4  12  27  43  74 111 137 186 250 302 336 444
#
# _framework density 23.024343999999999
#
# number of rings (size 3 to 8) (size 9 to 14) (size 15 to 20)
#    0.000    0.727    5.455    1.636    3.818    2.182 
#    0.000    2.727    0.000    0.000    0.000    0.000 
#    0.000    0.000    0.000    0.000    0.000    0.000 
#
# Total GULP energy -122926.625413 kJ/mol
# GULP energy per Si atom -5587.573882 kJ/mol
# Density = 2.297194 g / cm^3
# Si number density = 23.024344 Si / 1000 Ang^3
#
#
#
# Elastic Constant Matrix: (Units=GPa)
#
#
# Indices 1 2 3 4 5 6 
#
# 1 159.9659 54.3890 38.7709 0.0000 0.0000 0.0000
# 2 54.3890 166.0355 62.1579 0.0000 0.0000 0.0000
# 3 38.7709 62.1579 111.3364 0.0000 0.0000 0.0000
# 4 0.0000 0.0000 0.0000 75.3330 0.0000 0.0000
# 5 0.0000 0.0000 0.0000 0.0000 18.2382 0.0000
# 6 0.0000 0.0000 0.0000 0.0000 0.0000 16.5259
#
#
#
# Elastic Compliance Matrix: (Units=1/GPa)
#
#
# Indices 1 2 3 4 5 6 
#
# 1 0.007231 -0.001803 -0.001511 0.000000 0.000000 0.000000
# 2 -0.001803 0.008064 -0.003874 0.000000 0.000000 0.000000
# 3 -0.001511 -0.003874 0.011671 0.000000 0.000000 0.000000
# 4 0.000000 0.000000 0.000000 0.013274 0.000000 0.000000
# 5 0.000000 0.000000 0.000000 0.000000 0.054830 0.000000
# 6 0.000000 0.000000 0.000000 0.000000 0.000000 0.060511
#
#
# Mechanical properties :
#
#
# Convention : Reuss Voigt Hill
#
# Bulk Modulus (GPa) = 79.43651 83.10817 81.27234
# Shear Modulus (GPa) = 28.71029 40.82075 34.76552
#
# Velocity S-wave (km/s) = 3.53505 4.21520 3.89002
# Velocity P-wave (km/s) = 7.15808 7.73722 7.45328
#
# Compressibility (1/GPa) = 0.01258867
#
# Stress axis : x y z
#
# Youngs Moduli (GPa) = 138.30111 124.01323 85.68240
#
# Poissons Ratio (x) = 0.22356 0.12951
# Poissons Ratio (y) = 0.24932 0.33194
# Poissons Ratio (z) = 0.20904 0.48044
#
# Static dielectric constant tensor:
#      x y z
#    x 1.932200 0.000000 0.000000 
#    y 0.000000 1.833770 0.000000 
#    z 0.000000 0.000000 1.904770 
# 
# From -- ./inp_files/17878.got.cif
#   From: 2010.05.17/outbox.cif.g08.bks.cpg/sg20_9_cif.got.tgz:17878.got - 2010.06.03 22:52:26.
