data_PCOD9319151
_publ_section_title
;
Structure prediction by ZEFSAII (Michael W. Deem and Ramdas Pophale) SiO2 
 PCOD9319151
Probable space group: C 2 2 21
;
_chemical_formula_sum "Si O2"
_cell_formula_units_Z 40
_cell_length_a 4.852159
_cell_length_b 20.350995
_cell_length_c 18.374565
_cell_angle_alpha 90.000000
_cell_angle_beta 90.000000
_cell_angle_gamma 90.000000
_cell_volume 1814.419638
_symmetry_space_group_name_H-M "C 2 2 21"
_symmetry_group_IT_number 20
_symmetry_cell_setting 'orthorhombic'
loop_
_space_group_symop_operation_xyz
x,y,z
-x,-y,1/2+z
x,-y,-z
-x,y,1/2-z
1/2+x,1/2+y,z
1/2-x,1/2-y,1/2+z
1/2+x,1/2-y,-z
1/2-x,1/2+y,1/2-z
loop_
_atom_site_type_symbol
_atom_site_label
_atom_site_fract_x
_atom_site_fract_y
_atom_site_fract_z
Si Si1 0.107723 0.257525 0.904626
Si Si2 0.760533 0.343903 0.798127
Si Si3 0.385275 0.823088 0.442232
Si Si4 0.017387 0.029822 0.337193
Si Si5 0.527888 0.027027 0.581856
O O1 0.951254 0.290698 0.837671
O O2 0.928491 0.194120 0.925209
O O3 0.418007 0.230404 0.901483
O O4 0.077635 0.307809 0.972119
O O5 0.500000 0.319205 0.750000
O O6 0.608253 0.397017 0.849468
O O7 0.000000 0.379492 0.750000
O O8 0.448272 0.896857 0.421302
O O9 0.818418 0.980499 0.378942
O O10 0.000000 0.020835 0.250000
O O11 0.313367 0.016228 0.371319
O O12 0.538263 0.000000 0.500000
#
# Coordination Sequence:
#
# PCOD9319151 Si02
#       5
#     8   8   8   8   8
#     4  10  21  40  61  87 122 157 201 259 312 362
#     4  11  22  39  64  91 120 160 210 255 306 373
#     4  10  22  38  61  88 120 160 202 255 315 363
#     4  11  24  42  63  92 131 169 205 260 326 378
#     4  12  24  41  66  96 126 166 220 263 309 382
#
# _framework density 22.045615999999999
#
# number of rings (size 3 to 8) (size 9 to 14) (size 15 to 20)
#    0.000    1.200    0.000    7.200    0.000    4.800 
#    0.000   10.000    0.000    0.000    0.000    0.000 
#    0.000    0.000    0.000    0.000    0.000    0.000 
#
# Total GULP energy -111771.925489 kJ/mol
# GULP energy per Si atom -5588.596274 kJ/mol
# Density = 2.199544 g / cm^3
# Si number density = 22.045616 Si / 1000 Ang^3
#
#
#
# Elastic Constant Matrix: (Units=GPa)
#
#
# Indices 1 2 3 4 5 6 
#
# 1 98.3750 -12.5494 22.3693 0.0000 0.0000 0.0000
# 2 -12.5494 56.0832 17.8513 0.0000 0.0000 0.0000
# 3 22.3693 17.8513 83.5010 0.0000 0.0000 0.0000
# 4 0.0000 0.0000 0.0000 25.9225 0.0000 0.0000
# 5 0.0000 0.0000 0.0000 0.0000 30.4006 0.0000
# 6 0.0000 0.0000 0.0000 0.0000 0.0000 33.4069
#
#
#
# Elastic Compliance Matrix: (Units=1/GPa)
#
#
# Indices 1 2 3 4 5 6 
#
# 1 0.011543 0.003828 -0.003910 0.000000 0.000000 0.000000
# 2 0.003828 0.020402 -0.005387 0.000000 0.000000 0.000000
# 3 -0.003910 -0.005387 0.014175 0.000000 0.000000 0.000000
# 4 0.000000 0.000000 0.000000 0.038576 0.000000 0.000000
# 5 0.000000 0.000000 0.000000 0.000000 0.032894 0.000000
# 6 0.000000 0.000000 0.000000 0.000000 0.000000 0.029934
#
#
# Mechanical properties :
#
#
# Convention : Reuss Voigt Hill
#
# Bulk Modulus (GPa) = 28.42541 32.58906 30.50724
# Shear Modulus (GPa) = 29.37886 31.96522 30.67204
#
# Velocity S-wave (km/s) = 3.65449 3.81196 3.73406
# Velocity P-wave (km/s) = 5.54337 5.84717 5.69730
#
# Compressibility (1/GPa) = 0.03517979
#
# Stress axis : x y z
#
# Youngs Moduli (GPa) = 86.63530 49.01525 70.54604
#
# Poissons Ratio (x) = -0.18761 0.27587
# Poissons Ratio (y) = -0.33160 0.38003
# Poissons Ratio (z) = 0.33878 0.26404
#
# Static dielectric constant tensor:
#      x y z
#    x 1.838730 0.000000 0.000000 
#    y 0.000000 1.806580 0.000000 
#    z 0.000000 0.000000 1.845240 
# 
# From -- ./inp_files/22587.got.cif
#   From: 2010.05.17/outbox.cif.g08.bks.cpg/sg20_12_cif.got.tgz:22587.got - 2010.06.03 22:52:26.
