data_PCOD9319777
_publ_section_title
;
Structure prediction by ZEFSAII (Michael W. Deem and Ramdas Pophale) SiO2 
 PCOD9319777
Probable space group: C 2 2 21
;
_chemical_formula_sum "Si O2"
_cell_formula_units_Z 40
_cell_length_a 11.507428
_cell_length_b 8.634173
_cell_length_c 17.906957
_cell_angle_alpha 90.000000
_cell_angle_beta 90.000000
_cell_angle_gamma 90.000000
_cell_volume 1779.183750
_symmetry_space_group_name_H-M "C 2 2 21"
_symmetry_group_IT_number 20
_symmetry_cell_setting 'orthorhombic'
loop_
_space_group_symop_operation_xyz
x,y,z
-x,-y,1/2+z
x,-y,-z
-x,y,1/2-z
1/2+x,1/2+y,z
1/2-x,1/2-y,1/2+z
1/2+x,1/2-y,-z
1/2-x,1/2+y,1/2-z
loop_
_atom_site_type_symbol
_atom_site_label
_atom_site_fract_x
_atom_site_fract_y
_atom_site_fract_z
Si Si1 0.730012 0.266094 0.203890
Si Si2 0.479211 0.836069 0.974306
Si Si3 0.802313 0.425024 0.849374
Si Si4 0.923116 0.065534 0.605444
Si Si5 0.158477 0.106772 0.430179
O O1 0.819633 0.408317 0.191090
O O2 0.730175 0.194606 0.284751
O O3 0.607712 0.345699 0.182174
O O4 0.757470 0.142019 0.138655
O O5 0.407990 0.867437 0.898583
O O6 0.568239 0.698027 0.957508
O O7 0.387555 0.767230 0.033881
O O8 0.527707 0.000000 0.000000
O O9 0.689006 0.455922 0.900863
O O10 0.044059 0.977793 0.602557
O O11 0.198263 0.000000 0.500000
#
# Coordination Sequence:
#
# PCOD9319777 Si02
#       5
#     8   8   8   8   8
#     4  10  23  44  64  98 132 174 219 273 326 392
#     4  11  21  42  65  97 132 171 225 277 325 391
#     4  10  24  43  67  95 135 172 220 273 325 393
#     4   9  24  42  63  93 128 171 213 266 334 389
#     4  10  22  39  68  94 132 176 217 277 333 385
#
# _framework density 22.482219000000001
#
# number of rings (size 3 to 8) (size 9 to 14) (size 15 to 20)
#    1.200    0.800    2.000    0.000    5.600   11.200 
#    3.600    2.000    0.000    0.000    0.000    0.000 
#    0.000    0.000    0.000    0.000    0.000    0.000 
#
# Total GULP energy -111593.045382 kJ/mol
# GULP energy per Si atom -5579.652269 kJ/mol
# Density = 2.243105 g / cm^3
# Si number density = 22.482219 Si / 1000 Ang^3
#
#
#
# Elastic Constant Matrix: (Units=GPa)
#
#
# Indices 1 2 3 4 5 6 
#
# 1 66.7201 23.2268 40.4637 0.0000 0.0000 0.0000
# 2 23.2268 86.2302 49.0046 0.0000 0.0000 0.0000
# 3 40.4637 49.0046 96.3899 0.0000 0.0000 0.0000
# 4 0.0000 0.0000 0.0000 52.6032 0.0000 0.0000
# 5 0.0000 0.0000 0.0000 0.0000 28.1474 0.0000
# 6 0.0000 0.0000 0.0000 0.0000 0.0000 27.3916
#
#
#
# Elastic Compliance Matrix: (Units=1/GPa)
#
#
# Indices 1 2 3 4 5 6 
#
# 1 0.020154 -0.000873 -0.008017 0.000000 0.000000 0.000000
# 2 -0.000873 0.016347 -0.007944 0.000000 0.000000 0.000000
# 3 -0.008017 -0.007944 0.017779 0.000000 0.000000 0.000000
# 4 0.000000 0.000000 0.000000 0.019010 0.000000 0.000000
# 5 0.000000 0.000000 0.000000 0.000000 0.035527 0.000000
# 6 0.000000 0.000000 0.000000 0.000000 0.000000 0.036508
#
#
# Mechanical properties :
#
#
# Convention : Reuss Voigt Hill
#
# Bulk Modulus (GPa) = 48.51600 52.74785 50.63193
# Shear Modulus (GPa) = 26.90168 30.73811 28.81989
#
# Velocity S-wave (km/s) = 3.46291 3.70160 3.58424
# Velocity P-wave (km/s) = 6.13315 6.46391 6.30070
#
# Compressibility (1/GPa) = 0.02061176
#
# Stress axis : x y z
#
# Youngs Moduli (GPa) = 49.61883 61.17450 56.24691
#
# Poissons Ratio (x) = 0.05339 0.45091
# Poissons Ratio (y) = 0.04330 0.44684
# Poissons Ratio (z) = 0.39778 0.48599
#
# Static dielectric constant tensor:
#      x y z
#    x 1.853430 0.000000 0.000000 
#    y 0.000000 1.890130 0.000000 
#    z 0.000000 0.000000 1.816350 
# 
# From -- ./inp_files/27103.got.cif
#   From: 2010.05.17/outbox.cif.g08.bks.cpg/sg20_14_cif.got.tgz:27103.got - 2010.06.03 22:52:26.
