data_PCOD9319770
_publ_section_title
;
Structure prediction by ZEFSAII (Michael W. Deem and Ramdas Pophale) SiO2 
 PCOD9319770
Probable space group: C 2 2 21
;
_chemical_formula_sum "Si O2"
_cell_formula_units_Z 40
_cell_length_a 7.731690
_cell_length_b 17.469971
_cell_length_c 12.437255
_cell_angle_alpha 90.000000
_cell_angle_beta 90.000000
_cell_angle_gamma 90.000000
_cell_volume 1679.929883
_symmetry_space_group_name_H-M "C 2 2 21"
_symmetry_group_IT_number 20
_symmetry_cell_setting 'orthorhombic'
loop_
_space_group_symop_operation_xyz
x,y,z
-x,-y,1/2+z
x,-y,-z
-x,y,1/2-z
1/2+x,1/2+y,z
1/2-x,1/2-y,1/2+z
1/2+x,1/2-y,-z
1/2-x,1/2+y,1/2-z
loop_
_atom_site_type_symbol
_atom_site_label
_atom_site_fract_x
_atom_site_fract_y
_atom_site_fract_z
Si Si1 0.317431 0.229448 0.808501
Si Si2 0.058562 0.519193 0.373393
Si Si3 0.888048 0.075677 0.642647
Si Si4 0.005004 0.177181 0.024292
Si Si5 0.617195 0.191486 0.374357
O O1 0.500000 0.212080 0.750000
O O2 0.242973 0.148953 0.850361
O O3 0.366168 0.299709 0.886788
O O4 0.174099 0.262426 0.729988
O O5 0.998307 0.500000 0.500000
O O6 0.260917 0.495001 0.374927
O O7 0.031126 0.609650 0.365751
O O8 0.000000 0.490021 0.250000
O O9 0.000000 0.067725 0.750000
O O10 0.015415 0.101059 0.546172
O O11 0.193931 0.175341 0.074784
O O12 0.989767 0.251286 0.948123
#
# Coordination Sequence:
#
# PCOD9319770 Si02
#       5
#     8   8   8   8   8
#     4  10  22  39  66 103 136 186 249 306 369 449
#     4  12  28  52  75 109 161 207 252 316 396 470
#     4  12  24  44  71 106 151 194 247 315 384 447
#     4  11  21  41  70 101 144 186 248 310 368 442
#     4  11  24  43  74 106 144 195 259 312 375 456
#
# _framework density 23.810518999999999
#
# number of rings (size 3 to 8) (size 9 to 14) (size 15 to 20)
#    0.000    0.800    6.000    0.600    2.800    4.000 
#    3.600    0.000    0.000    0.000    0.000    0.000 
#    0.000    0.000    0.000    0.000    0.000    0.000 
#
# Total GULP energy -111572.243316 kJ/mol
# GULP energy per Si atom -5578.612166 kJ/mol
# Density = 2.375633 g / cm^3
# Si number density = 23.810519 Si / 1000 Ang^3
#
#
#
# Elastic Constant Matrix: (Units=GPa)
#
#
# Indices 1 2 3 4 5 6 
#
# 1 73.2445 2.4863 24.3981 0.0000 0.0000 0.0000
# 2 2.4863 68.9438 -8.2678 0.0000 0.0000 0.0000
# 3 24.3981 -8.2678 113.9870 0.0000 0.0000 0.0000
# 4 0.0000 0.0000 0.0000 -0.0628 0.0000 0.0000
# 5 0.0000 0.0000 0.0000 0.0000 32.0863 0.0000
# 6 0.0000 0.0000 0.0000 0.0000 0.0000 -80.2724
#
#
#
# Elastic Compliance Matrix: (Units=1/GPa)
#
#
# Indices 1 2 3 4 5 6 
#
# 1 0.014759 -0.000919 -0.003226 0.000000 0.000000 0.000000
# 2 -0.000919 0.014689 0.001262 0.000000 0.000000 0.000000
# 3 -0.003226 0.001262 0.009555 0.000000 0.000000 0.000000
# 4 0.000000 0.000000 0.000000-15.933650 0.000000 0.000000
# 5 0.000000 0.000000 0.000000 0.000000 0.031166 0.000000
# 6 0.000000 0.000000 0.000000 0.000000 0.000000 -0.012458
#
#
# Mechanical properties :
#
#
# Convention : Reuss Voigt Hill
#
# Bulk Modulus (GPa) = 30.08649 32.60093 31.34371
# Shear Modulus (GPa) = -0.31528 6.18746 2.93609
#
# Velocity S-wave (km/s) = -0.36428 1.61377 1.11166
# Velocity P-wave (km/s) = 3.53360 4.14655 3.85228
#
# Compressibility (1/GPa) = 0.03323751
#
# Stress axis : x y z
#
# Youngs Moduli (GPa) = 67.75723 68.07780 104.65836
#
# Poissons Ratio (x) = 0.06257 0.33759
# Poissons Ratio (y) = 0.06227 -0.13209
# Poissons Ratio (z) = 0.21856 -0.08592
#
# Static dielectric constant tensor:
#      x y z
#    x 1.933290 0.000000 0.000000 
#    y 0.000000 1.821360 0.000000 
#    z 0.000000 0.000000 2.539050 
# 
# From -- ./inp_files/12676.got.cif
#   From: 2010.05.17/outbox.cif.g08.bks.cpg/sg20_7_cif.got.tgz:12676.got - 2010.06.03 22:52:26.
