data_PCOD9319046
_publ_section_title
;
Structure prediction by ZEFSAII (Michael W. Deem and Ramdas Pophale) SiO2 
 PCOD9319046
Probable space group: C 2 2 21
;
_chemical_formula_sum "Si O2"
_cell_formula_units_Z 36
_cell_length_a 11.703971
_cell_length_b 10.158439
_cell_length_c 12.748617
_cell_angle_alpha 90.000000
_cell_angle_beta 90.000000
_cell_angle_gamma 90.000000
_cell_volume 1515.735032
_symmetry_space_group_name_H-M "C 2 2 21"
_symmetry_group_IT_number 20
_symmetry_cell_setting 'orthorhombic'
loop_
_space_group_symop_operation_xyz
x,y,z
-x,-y,1/2+z
x,-y,-z
-x,y,1/2-z
1/2+x,1/2+y,z
1/2-x,1/2-y,1/2+z
1/2+x,1/2-y,-z
1/2-x,1/2+y,1/2-z
loop_
_atom_site_type_symbol
_atom_site_label
_atom_site_fract_x
_atom_site_fract_y
_atom_site_fract_z
Si Si1 0.985154 0.000000 0.000000
Si Si2 0.383286 0.923398 0.380989
Si Si3 0.832371 0.875147 0.644379
Si Si4 0.295527 0.348279 0.893129
Si Si5 0.143080 0.433483 0.369549
O O1 0.893026 0.116289 0.021349
O O2 0.070738 0.028617 0.096555
O O3 0.341887 0.773287 0.399113
O O4 0.515604 0.923625 0.411981
O O5 0.374451 0.930751 0.255190
O O6 0.312747 0.056241 0.410207
O O7 0.838202 0.875695 0.772240
O O8 0.711492 0.934477 0.609216
O O9 0.279475 0.192863 0.894601
#
# Coordination Sequence:
#
# PCOD9319046 Si02
#       5
#     4   8   8   8   8
#     4  12  22  36  62  88 120 160 194 236 292 354
#     4   9  18  38  62  84 116 154 194 243 292 341
#     4  10  21  39  62  87 118 156 195 241 294 345
#     4  10  21  39  62  87 118 156 195 241 294 345
#     4   9  18  38  62  84 116 154 194 243 292 341
#
# _framework density 23.750854
#
# number of rings (size 3 to 8) (size 9 to 14) (size 15 to 20)
#    0.000    2.222    2.222    0.667    0.000    1.778 
#    4.000    1.111    0.000    0.000    0.000    0.000 
#    0.000    0.000    0.000    0.000    0.000    0.000 
#
# Total GULP energy -100381.557041 kJ/mol
# GULP energy per Si atom -5576.753169 kJ/mol
# Density = 2.369680 g / cm^3
# Si number density = 23.750854 Si / 1000 Ang^3
#
#
#
# Elastic Constant Matrix: (Units=GPa)
#
#
# Indices 1 2 3 4 5 6 
#
# 1 164.4078 107.9039 -9.5037 0.0000 0.0000 0.0000
# 2 107.9039 191.1891 53.0059 0.0000 0.0000 0.0000
# 3 -9.5037 53.0059 70.0047 0.0000 0.0000 0.0000
# 4 0.0000 0.0000 0.0000 47.6878 0.0000 0.0000
# 5 0.0000 0.0000 0.0000 0.0000 32.2702 0.0000
# 6 0.0000 0.0000 0.0000 0.0000 0.0000 17.2037
#
#
#
# Elastic Compliance Matrix: (Units=1/GPa)
#
#
# Indices 1 2 3 4 5 6 
#
# 1 0.013260 -0.010104 0.009451 0.000000 0.000000 0.000000
# 2 -0.010104 0.014319 -0.012214 0.000000 0.000000 0.000000
# 3 0.009451 -0.012214 0.024816 0.000000 0.000000 0.000000
# 4 0.000000 0.000000 0.000000 0.020970 0.000000 0.000000
# 5 0.000000 0.000000 0.000000 0.000000 0.030988 0.000000
# 6 0.000000 0.000000 0.000000 0.000000 0.000000 0.058127
#
#
# Mechanical properties :
#
#
# Convention : Reuss Voigt Hill
#
# Bulk Modulus (GPa) = 37.50822 80.93487 59.22154
# Shear Modulus (GPa) = 25.36768 37.71204 31.53986
#
# Velocity S-wave (km/s) = 3.27169 3.98907 3.64805
# Velocity P-wave (km/s) = 5.48622 7.44093 6.53705
#
# Compressibility (1/GPa) = 0.02666082
#
# Stress axis : x y z
#
# Youngs Moduli (GPa) = 75.41402 69.83684 40.29703
#
# Poissons Ratio (x) = 0.70563 -0.38083
# Poissons Ratio (y) = 0.76198 0.49218
# Poissons Ratio (z) = -0.71271 0.85297
#
# Static dielectric constant tensor:
#      x y z
#    x 1.908190 0.000000 0.000000 
#    y 0.000000 1.843170 0.000000 
#    z 0.000000 0.000000 2.025830 
# 
# From -- ./inp_files/24153.got.cif
#   From: 2010.05.17/outbox.cif.g08.bks.cpg/sg20_13_cif.got.tgz:24153.got - 2010.06.03 22:52:26.
