data_PCOD9319145
_publ_section_title
;
Structure prediction by ZEFSAII (Michael W. Deem and Ramdas Pophale) SiO2 
 PCOD9319145
Probable space group: C 2 2 21
;
_chemical_formula_sum "Si O2"
_cell_formula_units_Z 64
_cell_length_a 31.759821
_cell_length_b 16.501293
_cell_length_c 5.915966
_cell_angle_alpha 90.000000
_cell_angle_beta 90.000000
_cell_angle_gamma 90.000000
_cell_volume 3100.428292
_symmetry_space_group_name_H-M "C 2 2 21"
_symmetry_group_IT_number 20
_symmetry_cell_setting 'orthorhombic'
loop_
_space_group_symop_operation_xyz
x,y,z
-x,-y,1/2+z
x,-y,-z
-x,y,1/2-z
1/2+x,1/2+y,z
1/2-x,1/2-y,1/2+z
1/2+x,1/2-y,-z
1/2-x,1/2+y,1/2-z
loop_
_atom_site_type_symbol
_atom_site_label
_atom_site_fract_x
_atom_site_fract_y
_atom_site_fract_z
Si Si1 0.611000 0.296506 0.361528
Si Si2 0.811455 0.592765 0.435668
Si Si3 0.660960 0.543204 0.752691
Si Si4 0.102747 0.656799 0.990386
Si Si5 0.260552 0.652098 0.799298
Si Si6 0.041092 0.277458 0.386083
Si Si7 0.544826 0.063810 0.324680
Si Si8 0.313172 0.800510 0.964812
O O1 0.628379 0.382342 0.281272
O O2 0.607890 0.235217 0.150884
O O3 0.566240 0.293278 0.485732
O O4 0.645456 0.251851 0.524420
O O5 0.809297 0.500000 0.500000
O O6 0.850635 0.628765 0.577776
O O7 0.764506 0.627358 0.474800
O O8 0.824405 0.621447 0.185516
O O9 0.659841 0.500000 0.500000
O O10 0.707842 0.581404 0.772635
O O11 0.652872 0.500000 0.000000
O O12 0.077891 0.587790 0.131773
O O13 0.073019 0.681614 0.788418
O O14 0.288499 0.732160 0.818707
O O15 0.221427 0.670646 0.639562
O O16 0.032162 0.350913 0.558263
O O17 0.000000 0.251663 0.250000
O O18 0.500000 0.026606 0.250000
O O19 0.564140 0.000000 0.500000
#
# Coordination Sequence:
#
# PCOD9319145 Si02
#       8
#     8   8   8   8   8   8   8   8
#     4   9  23  42  65 100 132 174 224 271 346 418
#     4  11  24  37  55  86 124 165 215 275 329 385
#     4  11  27  45  72 106 138 179 228 293 352 416
#     4  10  23  41  59  88 126 174 221 271 334 411
#     4  11  22  38  64  87 126 173 229 273 330 399
#     4  11  21  39  68  95 127 170 224 281 334 416
#     4  11  23  36  56  87 127 171 223 277 338 394
#     4  10  21  40  59  85 124 174 217 272 328 393
#
# _framework density 20.642312
#
# number of rings (size 3 to 8) (size 9 to 14) (size 15 to 20)
#    0.000    1.500    2.500    1.500    7.000    0.000 
#    0.000    0.000    0.000    0.000    3.250    0.000 
#    0.000    0.000    0.000    0.000    0.000    0.000 
#
# Total GULP energy -178444.711627 kJ/mol
# GULP energy per Si atom -5576.397238 kJ/mol
# Density = 2.059533 g / cm^3
# Si number density = 20.642312 Si / 1000 Ang^3
#
#
#
# Elastic Constant Matrix: (Units=GPa)
#
#
# Indices 1 2 3 4 5 6 
#
# 1 106.9459 35.2078 24.9959 0.0000 0.0000 0.0000
# 2 35.2078 93.6877 40.6982 0.0000 0.0000 0.0000
# 3 24.9959 40.6982 65.1824 0.0000 0.0000 0.0000
# 4 0.0000 0.0000 0.0000 24.8127 0.0000 0.0000
# 5 0.0000 0.0000 0.0000 0.0000 40.8708 0.0000
# 6 0.0000 0.0000 0.0000 0.0000 0.0000 26.5387
#
#
#
# Elastic Compliance Matrix: (Units=1/GPa)
#
#
# Indices 1 2 3 4 5 6 
#
# 1 0.010901 -0.003130 -0.002226 0.000000 0.000000 0.000000
# 2 -0.003130 0.015545 -0.008506 0.000000 0.000000 0.000000
# 3 -0.002226 -0.008506 0.021506 0.000000 0.000000 0.000000
# 4 0.000000 0.000000 0.000000 0.040302 0.000000 0.000000
# 5 0.000000 0.000000 0.000000 0.000000 0.024467 0.000000
# 6 0.000000 0.000000 0.000000 0.000000 0.000000 0.037681
#
#
# Mechanical properties :
#
#
# Convention : Reuss Voigt Hill
#
# Bulk Modulus (GPa) = 49.43422 51.95775 50.69598
# Shear Modulus (GPa) = 27.04635 29.43870 28.24252
#
# Velocity S-wave (km/s) = 3.62365 3.78052 3.70291
# Velocity P-wave (km/s) = 6.44265 6.65444 6.54940
#
# Compressibility (1/GPa) = 0.02022890
#
# Stress axis : x y z
#
# Youngs Moduli (GPa) = 91.73345 64.33070 46.49871
#
# Poissons Ratio (x) = 0.20132 0.10352
# Poissons Ratio (y) = 0.28708 0.39550
# Poissons Ratio (z) = 0.20423 0.54717
#
# Static dielectric constant tensor:
#      x y z
#    x 1.766470 0.000000 0.000000 
#    y 0.000000 1.721220 0.000000 
#    z 0.000000 0.000000 1.844530 
# 
# From -- ./inp_files/4798.got.cif
#   From: 2010.05.17/outbox.cif.g08.bks.cpg/sg20_3_cif.got.tgz:4798.got - 2010.06.03 22:52:26.
