data_PCOD9319292
_publ_section_title
;
Structure prediction by ZEFSAII (Michael W. Deem and Ramdas Pophale) SiO2 
 PCOD9319292
Probable space group: C 2 2 21
;
_chemical_formula_sum "Si O2"
_cell_formula_units_Z 36
_cell_length_a 8.468877
_cell_length_b 8.383594
_cell_length_c 19.718657
_cell_angle_alpha 90.000000
_cell_angle_beta 90.000000
_cell_angle_gamma 90.000000
_cell_volume 1400.017280
_symmetry_space_group_name_H-M "C 2 2 21"
_symmetry_group_IT_number 20
_symmetry_cell_setting 'orthorhombic'
loop_
_space_group_symop_operation_xyz
x,y,z
-x,-y,1/2+z
x,-y,-z
-x,y,1/2-z
1/2+x,1/2+y,z
1/2-x,1/2-y,1/2+z
1/2+x,1/2-y,-z
1/2-x,1/2+y,1/2-z
loop_
_atom_site_type_symbol
_atom_site_label
_atom_site_fract_x
_atom_site_fract_y
_atom_site_fract_z
Si Si1 0.886869 0.414832 0.683763
Si Si2 0.181348 0.912979 0.231915
Si Si3 0.307873 0.076607 0.104784
Si Si4 0.388929 0.500000 0.000000
Si Si5 0.811763 0.216583 0.525309
O O1 0.786984 0.254882 0.695364
O O2 0.774113 0.563010 0.697764
O O3 0.000000 0.428308 0.750000
O O4 0.009692 0.395199 0.623372
O O5 0.219163 0.045351 0.175470
O O6 0.000000 0.917817 0.250000
O O7 0.221784 0.200673 0.055709
O O8 0.298449 0.911036 0.063508
O O9 0.266641 0.611297 0.042626
O O10 0.514819 0.370262 0.031767
#
# Coordination Sequence:
#
# PCOD9319292 Si02
#       5
#     8   8   8   4   8
#     4   9  20  40  63  89 135 179 232 290 355 422
#     4  10  21  41  63  96 135 182 242 293 354 430
#     4   9  21  43  68  97 143 186 235 303 364 438
#     4  10  24  48  74 106 154 190 244 298 362 456
#     4  10  24  48  72 111 144 187 244 299 380 440
#
# _framework density 25.713968000000001
#
# number of rings (size 3 to 8) (size 9 to 14) (size 15 to 20)
#    0.000    2.667    0.000    0.000    6.222    5.333 
#   32.000    0.000    0.000    0.000    0.000    0.000 
#    0.000    0.000    0.000    0.000    0.000    0.000 
#
# Total GULP energy -100304.433068 kJ/mol
# GULP energy per Si atom -5572.468504 kJ/mol
# Density = 2.565544 g / cm^3
# Si number density = 25.713968 Si / 1000 Ang^3
#
#
#
# Elastic Constant Matrix: (Units=GPa)
#
#
# Indices 1 2 3 4 5 6 
#
# 1 102.8291 52.9360 12.5435 0.0000 0.0000 0.0000
# 2 52.9360 101.4930 9.8120 0.0000 0.0000 0.0000
# 3 12.5435 9.8120 65.7424 0.0000 0.0000 0.0000
# 4 0.0000 0.0000 0.0000 44.9751 0.0000 0.0000
# 5 0.0000 0.0000 0.0000 0.0000 43.0601 0.0000
# 6 0.0000 0.0000 0.0000 0.0000 0.0000 35.0424
#
#
#
# Elastic Compliance Matrix: (Units=1/GPa)
#
#
# Indices 1 2 3 4 5 6 
#
# 1 0.013447 -0.006864 -0.001541 0.000000 0.000000 0.000000
# 2 -0.006864 0.013501 -0.000705 0.000000 0.000000 0.000000
# 3 -0.001541 -0.000705 0.015610 0.000000 0.000000 0.000000
# 4 0.000000 0.000000 0.000000 0.022235 0.000000 0.000000
# 5 0.000000 0.000000 0.000000 0.000000 0.023223 0.000000
# 6 0.000000 0.000000 0.000000 0.000000 0.000000 0.028537
#
#
# Mechanical properties :
#
#
# Convention : Reuss Voigt Hill
#
# Bulk Modulus (GPa) = 41.09056 46.73863 43.91459
# Shear Modulus (GPa) = 34.99275 37.60040 36.29657
#
# Velocity S-wave (km/s) = 3.69297 3.82809 3.76114
# Velocity P-wave (km/s) = 5.84795 6.14450 5.99806
#
# Compressibility (1/GPa) = 0.02433649
#
# Stress axis : x y z
#
# Youngs Moduli (GPa) = 74.36806 74.06656 64.06075
#
# Poissons Ratio (x) = 0.50842 0.09872
# Poissons Ratio (y) = 0.51049 0.04519
# Poissons Ratio (z) = 0.11461 0.05224
#
# Static dielectric constant tensor:
#      x y z
#    x 2.056570 0.000000 0.000000 
#    y 0.000000 2.161080 0.000000 
#    z 0.000000 0.000000 2.144910 
# 
# From -- ./inp_files/26381.got.cif
#   From: 2010.05.17/outbox.cif.g08.bks.cpg/sg20_14_cif.got.tgz:26381.got - 2010.06.03 22:52:26.
