data_PCOD9319768
_publ_section_title
;
Structure prediction by ZEFSAII (Michael W. Deem and Ramdas Pophale) SiO2 
 PCOD9319768
Probable space group: C 2 2 21
;
_chemical_formula_sum "Si O2"
_cell_formula_units_Z 32
_cell_length_a 26.643922
_cell_length_b 5.981482
_cell_length_c 7.017250
_cell_angle_alpha 90.000000
_cell_angle_beta 90.000000
_cell_angle_gamma 90.000000
_cell_volume 1118.340114
_symmetry_space_group_name_H-M "C 2 2 21"
_symmetry_group_IT_number 20
_symmetry_cell_setting 'orthorhombic'
loop_
_space_group_symop_operation_xyz
x,y,z
-x,-y,1/2+z
x,-y,-z
-x,y,1/2-z
1/2+x,1/2+y,z
1/2-x,1/2-y,1/2+z
1/2+x,1/2-y,-z
1/2-x,1/2+y,1/2-z
loop_
_atom_site_type_symbol
_atom_site_label
_atom_site_fract_x
_atom_site_fract_y
_atom_site_fract_z
Si Si1 0.475989 0.000000 0.000000
Si Si2 0.352006 0.500000 0.500000
Si Si3 0.899131 0.000000 0.000000
Si Si4 0.225639 0.500000 0.000000
Si Si5 0.687272 0.248807 0.336093
Si Si6 0.436400 0.238029 0.664947
O O1 0.515143 0.794759 0.031513
O O2 0.442988 0.972023 0.190070
O O3 0.319780 0.548074 0.685021
O O4 0.388049 0.286867 0.537332
O O5 0.931147 0.057070 0.185911
O O6 0.862089 0.789307 0.037691
O O7 0.263690 0.295512 0.040005
O O8 0.194946 0.544051 0.193113
#
# Coordination Sequence:
#
# PCOD9319768 Si02
#       6
#     4   4   4   4   8   8
#     4  10  24  39  60  94 124 158 200 266 336 377
#     4  10  22  43  66  94 128 174 220 266 322 385
#     4   9  22  45  68  91 126 176 222 263 320 387
#     4  11  22  41  64  97 138 172 218 265 314 383
#     4  10  22  39  65  96 131 176 216 263 321 376
#     4  10  23  42  64  91 127 162 214 266 325 392
#
# _framework density 28.613838000000001
#
# number of rings (size 3 to 8) (size 9 to 14) (size 15 to 20)
#    0.000    2.000    0.000    1.500    0.000   15.000 
#    0.000    2.500    0.000    0.000    0.000    0.000 
#    0.000    0.000    0.000    0.000    0.000    0.000 
#
# Total GULP energy -89356.175675 kJ/mol
# GULP energy per Si atom -5584.760980 kJ/mol
# Density = 2.854871 g / cm^3
# Si number density = 28.613838 Si / 1000 Ang^3
#
#
#
# Elastic Constant Matrix: (Units=GPa)
#
#
# Indices 1 2 3 4 5 6 
#
# 1 108.6405 77.0540 34.3801 0.0000 0.0000 0.0000
# 2 77.0540 86.3335 52.9276 0.0000 0.0000 0.0000
# 3 34.3801 52.9276 135.5999 0.0000 0.0000 0.0000
# 4 0.0000 0.0000 0.0000 78.1328 0.0000 0.0000
# 5 0.0000 0.0000 0.0000 0.0000 31.6627 0.0000
# 6 0.0000 0.0000 0.0000 0.0000 0.0000 52.1070
#
#
#
# Elastic Compliance Matrix: (Units=1/GPa)
#
#
# Indices 1 2 3 4 5 6 
#
# 1 0.026133 -0.025321 0.003258 0.000000 0.000000 0.000000
# 2 -0.025321 0.039761 -0.009100 0.000000 0.000000 0.000000
# 3 0.003258 -0.009100 0.010101 0.000000 0.000000 0.000000
# 4 0.000000 0.000000 0.000000 0.012799 0.000000 0.000000
# 5 0.000000 0.000000 0.000000 0.000000 0.031583 0.000000
# 6 0.000000 0.000000 0.000000 0.000000 0.000000 0.019191
#
#
# Mechanical properties :
#
#
# Convention : Reuss Voigt Hill
#
# Bulk Modulus (GPa) = 73.16279 73.25526 73.20903
# Shear Modulus (GPa) = 24.21887 43.46133 33.84010
#
# Velocity S-wave (km/s) = 2.91246 3.90152 3.44270
# Velocity P-wave (km/s) = 6.07737 6.77885 6.43767
#
# Compressibility (1/GPa) = 0.01366815
#
# Stress axis : x y z
#
# Youngs Moduli (GPa) = 38.26567 25.15006 99.00495
#
# Poissons Ratio (x) = 0.63683 -0.32253
# Poissons Ratio (y) = 0.96894 0.90092
# Poissons Ratio (z) = -0.12466 0.22886
#
# Static dielectric constant tensor:
#      x y z
#    x 2.228210 0.000000 0.000000 
#    y 0.000000 2.272550 0.000000 
#    z 0.000000 0.000000 2.158380 
# 
# From -- ./inp_files/11331.got.cif
#   From: 2010.05.17/outbox.cif.g08.bks.cpg/sg20_6_cif.got.tgz:11331.got - 2010.06.03 22:52:26.
