data_PCOD9319753
_publ_section_title
;
Structure prediction by ZEFSAII (Michael W. Deem and Ramdas Pophale) SiO2 
 PCOD9319753
Probable space group: C 2 2 21
;
_chemical_formula_sum "Si O2"
_cell_formula_units_Z 64
_cell_length_a 14.275803
_cell_length_b 9.574936
_cell_length_c 24.982140
_cell_angle_alpha 90.000000
_cell_angle_beta 90.000000
_cell_angle_gamma 90.000000
_cell_volume 3414.806220
_symmetry_space_group_name_H-M "C 2 2 21"
_symmetry_group_IT_number 20
_symmetry_cell_setting 'orthorhombic'
loop_
_space_group_symop_operation_xyz
x,y,z
-x,-y,1/2+z
x,-y,-z
-x,y,1/2-z
1/2+x,1/2+y,z
1/2-x,1/2-y,1/2+z
1/2+x,1/2-y,-z
1/2-x,1/2+y,1/2-z
loop_
_atom_site_type_symbol
_atom_site_label
_atom_site_fract_x
_atom_site_fract_y
_atom_site_fract_z
Si Si1 0.244035 0.478863 0.845223
Si Si2 0.389980 0.916798 0.250564
Si Si3 0.748851 0.962550 0.667429
Si Si4 0.409978 0.668311 0.494897
Si Si5 0.891329 0.918548 0.758385
Si Si6 0.735442 0.292563 0.087782
Si Si7 0.894492 0.669253 0.997323
Si Si8 0.752008 0.264149 0.413906
O O1 0.163699 0.530232 0.803885
O O2 0.341098 0.476725 0.811595
O O3 0.228196 0.323257 0.866631
O O4 0.245988 0.574044 0.898274
O O5 0.500000 0.947216 0.250000
O O6 0.341581 0.991463 0.200346
O O7 0.378778 0.749783 0.243402
O O8 0.833815 0.977006 0.708370
O O9 0.742373 0.808802 0.643714
O O10 0.764527 0.059083 0.616514
O O11 0.421546 0.500000 0.500000
O O12 0.349000 0.716016 0.545944
O O13 0.507269 0.751015 0.494194
O O14 0.345783 0.711329 0.443946
O O15 0.000000 0.950066 0.750000
O O16 0.831049 0.287628 0.053587
O O17 0.834251 0.719821 0.048555
O O18 0.903806 0.500000 0.000000
#
# Coordination Sequence:
#
# PCOD9319753 Si02
#       8
#     8   8   8   8   8   8   8   8
#     4  11  24  39  64  98 120 167 212 253 306 366
#     4  10  22  39  62  92 124 159 208 260 308 365
#     4  11  20  41  64  84 122 169 196 253 308 374
#     4  11  25  42  64  94 125 163 207 258 310 367
#     4  10  22  39  62  92 124 159 208 260 308 365
#     4  11  23  43  64  86 130 166 206 249 313 370
#     4  11  25  42  64  94 125 163 207 258 310 367
#     4  11  23  43  64  86 130 166 206 249 313 370
#
# _framework density 18.741911999999999
#
# number of rings (size 3 to 8) (size 9 to 14) (size 15 to 20)
#    0.000    1.250    5.000    0.750    3.500    5.000 
#    0.000    1.250    0.000    0.000    0.000    0.000 
#    0.000    0.000    0.000    0.000    0.000    0.000 
#
# Total GULP energy -178665.072977 kJ/mol
# GULP energy per Si atom -5583.283531 kJ/mol
# Density = 1.869925 g / cm^3
# Si number density = 18.741912 Si / 1000 Ang^3
#
#
#
# Elastic Constant Matrix: (Units=GPa)
#
#
# Indices 1 2 3 4 5 6 
#
# 1 154.2083 39.5885 39.4037 0.0000 0.0000 0.0000
# 2 39.5885 40.1284 0.3216 0.0000 0.0000 0.0000
# 3 39.4037 0.3216 66.7104 0.0000 0.0000 0.0000
# 4 0.0000 0.0000 0.0000 38.4487 0.0000 0.0000
# 5 0.0000 0.0000 0.0000 0.0000 5.2676 0.0000
# 6 0.0000 0.0000 0.0000 0.0000 0.0000 26.8959
#
#
#
# Elastic Compliance Matrix: (Units=1/GPa)
#
#
# Indices 1 2 3 4 5 6 
#
# 1 0.010840 -0.010643 -0.006352 0.000000 0.000000 0.000000
# 2 -0.010643 0.035371 0.006116 0.000000 0.000000 0.000000
# 3 -0.006352 0.006116 0.018712 0.000000 0.000000 0.000000
# 4 0.000000 0.000000 0.000000 0.026009 0.000000 0.000000
# 5 0.000000 0.000000 0.000000 0.000000 0.189841 0.000000
# 6 0.000000 0.000000 0.000000 0.000000 0.000000 0.037180
#
#
# Mechanical properties :
#
#
# Convention : Reuss Voigt Hill
#
# Bulk Modulus (GPa) = 23.16633 46.63050 34.89842
# Shear Modulus (GPa) = 14.12030 26.23798 20.17914
#
# Velocity S-wave (km/s) = 2.74780 3.74567 3.28485
# Velocity P-wave (km/s) = 4.73865 6.60614 5.74873
#
# Compressibility (1/GPa) = 0.04316609
#
# Stress axis : x y z
#
# Youngs Moduli (GPa) = 92.25032 28.27168 53.44056
#
# Poissons Ratio (x) = 0.30090 0.33943
# Poissons Ratio (y) = 0.98185 -0.32685
# Poissons Ratio (z) = 0.58594 -0.17291
#
# Static dielectric constant tensor:
#      x y z
#    x 1.630590 0.000000 0.000000 
#    y 0.000000 1.629760 0.000000 
#    z 0.000000 0.000000 1.635560 
# 
# From -- ./inp_files/29361.got.cif
#   From: 2010.05.17/outbox.cif.g08.bks.cpg/sg20_15_cif.got.tgz:29361.got - 2010.06.03 22:52:26.
