data_PCOD9319788
_publ_section_title
;
Structure prediction by ZEFSAII (Michael W. Deem and Ramdas Pophale) SiO2 
 PCOD9319788
Probable space group: C 2 2 21
;
_chemical_formula_sum "Si O2"
_cell_formula_units_Z 48
_cell_length_a 14.541246
_cell_length_b 16.389737
_cell_length_c 9.617470
_cell_angle_alpha 90.000000
_cell_angle_beta 90.000000
_cell_angle_gamma 90.000000
_cell_volume 2292.104673
_symmetry_space_group_name_H-M "C 2 2 21"
_symmetry_group_IT_number 20
_symmetry_cell_setting 'orthorhombic'
loop_
_space_group_symop_operation_xyz
x,y,z
-x,-y,1/2+z
x,-y,-z
-x,y,1/2-z
1/2+x,1/2+y,z
1/2-x,1/2-y,1/2+z
1/2+x,1/2-y,-z
1/2-x,1/2+y,1/2-z
loop_
_atom_site_type_symbol
_atom_site_label
_atom_site_fract_x
_atom_site_fract_y
_atom_site_fract_z
Si Si1 0.223646 0.841363 0.979331
Si Si2 0.519876 0.687871 0.015808
Si Si3 0.174215 0.176595 0.567071
Si Si4 0.000000 0.050554 0.250000
Si Si5 0.305941 0.087221 0.770562
Si Si6 0.000000 0.673750 0.750000
Si Si7 0.802388 0.938476 0.801496
O O1 0.270095 0.910772 0.071880
O O2 0.289866 0.763882 0.984210
O O3 0.208553 0.873199 0.822649
O O4 0.123604 0.815571 0.036607
O O5 0.510010 0.608857 0.115993
O O6 0.507227 0.766015 0.116825
O O7 0.435045 0.683381 0.910396
O O8 0.239746 0.151150 0.691950
O O9 0.189434 0.110061 0.444864
O O10 0.898890 0.012167 0.228092
O O11 0.409254 0.118588 0.758566
O O12 0.282056 0.000276 0.704424
#
# Coordination Sequence:
#
# PCOD9319788 Si02
#       7
#     8   8   8   4   8   4   8
#     4  11  21  39  64  92 119 164 210 254 297 363
#     4   9  18  36  62  89 115 157 211 249 299 358
#     4  11  21  39  64  92 119 164 210 254 297 363
#     4   7  16  34  62  78 117 160 192 238 315 368
#     4  12  24  38  63  91 126 161 204 252 315 364
#     4  11  20  40  60  86 123 176 198 232 317 388
#     4  10  22  40  59  93 128 161 198 254 313 364
#
# _framework density 20.941452000000002
#
# number of rings (size 3 to 8) (size 9 to 14) (size 15 to 20)
#    0.000    1.667    3.333    3.000    0.000    2.000 
#    0.000   10.000    0.000    0.000    0.000    0.000 
#    0.000    0.000    0.000    0.000    0.000    0.000 
#
# Total GULP energy -134030.514172 kJ/mol
# GULP energy per Si atom -5584.604757 kJ/mol
# Density = 2.089379 g / cm^3
# Si number density = 20.941452 Si / 1000 Ang^3
#
#
#
# Elastic Constant Matrix: (Units=GPa)
#
#
# Indices 1 2 3 4 5 6 
#
# 1 167.5028 33.6036 25.9999 0.0000 0.0000 0.0000
# 2 33.6036 68.2408 0.7144 0.0000 0.0000 0.0000
# 3 25.9999 0.7144 42.7784 0.0000 0.0000 0.0000
# 4 0.0000 0.0000 0.0000 11.2705 0.0000 0.0000
# 5 0.0000 0.0000 0.0000 0.0000 25.4452 0.0000
# 6 0.0000 0.0000 0.0000 0.0000 0.0000 15.2283
#
#
#
# Elastic Compliance Matrix: (Units=1/GPa)
#
#
# Indices 1 2 3 4 5 6 
#
# 1 0.007376 -0.003586 -0.004423 0.000000 0.000000 0.000000
# 2 -0.003586 0.016400 0.001905 0.000000 0.000000 0.000000
# 3 -0.004423 0.001905 0.026033 0.000000 0.000000 0.000000
# 4 0.000000 0.000000 0.000000 0.088728 0.000000 0.000000
# 5 0.000000 0.000000 0.000000 0.000000 0.039300 0.000000
# 6 0.000000 0.000000 0.000000 0.000000 0.000000 0.065667
#
#
# Mechanical properties :
#
#
# Convention : Reuss Voigt Hill
#
# Bulk Modulus (GPa) = 26.59457 44.35088 35.47272
# Shear Modulus (GPa) = 18.63974 24.93574 21.78774
#
# Velocity S-wave (km/s) = 2.98667 3.45445 3.22904
# Velocity P-wave (km/s) = 4.96192 6.09388 5.55680
#
# Compressibility (1/GPa) = 0.03760166
#
# Stress axis : x y z
#
# Youngs Moduli (GPa) = 135.57535 60.97642 38.41321
#
# Poissons Ratio (x) = 0.21865 0.16990
# Poissons Ratio (y) = 0.48615 -0.07320
# Poissons Ratio (z) = 0.59966 -0.11619
#
# Static dielectric constant tensor:
#      x y z
#    x 1.938940 0.000000 0.000000 
#    y 0.000000 1.741200 0.000000 
#    z 0.000000 0.000000 1.768640 
# 
# From -- ./inp_files/9393.got.cif
#   From: 2010.05.17/outbox.cif.g08.bks.cpg/sg20_5_cif.got.tgz:9393.got - 2010.06.03 22:52:26.
