data_PCOD9319423
_publ_section_title
;
Structure prediction by ZEFSAII (Michael W. Deem and Ramdas Pophale) SiO2 
 PCOD9319423
Probable space group: C 2 2 21
;
_chemical_formula_sum "Si O2"
_cell_formula_units_Z 64
_cell_length_a 12.193729
_cell_length_b 8.744326
_cell_length_c 26.470095
_cell_angle_alpha 90.000000
_cell_angle_beta 90.000000
_cell_angle_gamma 90.000000
_cell_volume 2822.398802
_symmetry_space_group_name_H-M "C 2 2 21"
_symmetry_group_IT_number 20
_symmetry_cell_setting 'orthorhombic'
loop_
_space_group_symop_operation_xyz
x,y,z
-x,-y,1/2+z
x,-y,-z
-x,y,1/2-z
1/2+x,1/2+y,z
1/2-x,1/2-y,1/2+z
1/2+x,1/2-y,-z
1/2-x,1/2+y,1/2-z
loop_
_atom_site_type_symbol
_atom_site_label
_atom_site_fract_x
_atom_site_fract_y
_atom_site_fract_z
Si Si1 0.641526 0.830956 0.304009
Si Si2 0.851703 0.949350 0.441308
Si Si3 0.767777 0.066073 0.245456
Si Si4 0.871000 0.421871 0.944844
Si Si5 0.399628 0.701598 0.782333
Si Si6 0.406896 0.437179 0.056518
Si Si7 0.991200 0.555054 0.350968
Si Si8 0.262868 0.847870 0.608957
O O1 0.736355 0.958047 0.292685
O O2 0.644907 0.703413 0.259957
O O3 0.529306 0.920503 0.313585
O O4 0.682978 0.742867 0.353360
O O5 0.813032 0.774786 0.431115
O O6 0.973146 0.970109 0.419337
O O7 0.859160 0.000000 0.500000
O O8 0.749975 0.048977 0.422068
O O9 0.813486 0.934252 0.207844
O O10 0.657001 0.169278 0.246444
O O11 0.892259 0.243189 0.948195
O O12 0.958270 0.486862 0.905426
O O13 0.878329 0.500000 0.000000
O O14 0.500000 0.635248 0.750000
O O15 0.447370 0.792363 0.830123
O O16 0.307519 0.520271 0.083702
O O17 0.408751 0.500000 0.000000
O O18 0.864701 0.586315 0.359645
#
# Coordination Sequence:
#
# PCOD9319423 Si02
#       8
#     8   8   8   8   8   8   8   8
#     4  10  22  41  68  96 132 175 223 281 333 405
#     4  10  22  44  67  93 134 177 223 278 332 394
#     4   9  20  41  67  91 127 171 215 268 333 401
#     4  11  23  44  63  96 138 176 221 278 334 402
#     4  10  21  42  67  96 132 172 218 281 342 395
#     4  11  25  43  68  98 130 182 227 273 334 400
#     4  11  23  40  69  99 132 182 220 275 345 402
#     4  12  24  43  67 100 138 174 220 283 335 397
#
# _framework density 22.675747000000001
#
# number of rings (size 3 to 8) (size 9 to 14) (size 15 to 20)
#    0.000    1.500    2.500    3.000    1.750    1.500 
#    4.500    8.125    0.000    0.000    0.000    0.000 
#    0.000    0.000    0.000    0.000    0.000    0.000 
#
# Total GULP energy -178473.662412 kJ/mol
# GULP energy per Si atom -5577.301950 kJ/mol
# Density = 2.262414 g / cm^3
# Si number density = 22.675747 Si / 1000 Ang^3
#
#
#
# Elastic Constant Matrix: (Units=GPa)
#
#
# Indices 1 2 3 4 5 6 
#
# 1 88.7275 32.0579 13.7568 0.0000 0.0000 0.0000
# 2 32.0579 97.5203 28.2590 0.0000 0.0000 0.0000
# 3 13.7568 28.2590 60.8842 0.0000 0.0000 0.0000
# 4 0.0000 0.0000 0.0000 38.1542 0.0000 0.0000
# 5 0.0000 0.0000 0.0000 0.0000 33.2959 0.0000
# 6 0.0000 0.0000 0.0000 0.0000 0.0000 33.2503
#
#
#
# Elastic Compliance Matrix: (Units=1/GPa)
#
#
# Indices 1 2 3 4 5 6 
#
# 1 0.012852 -0.003909 -0.001089 0.000000 0.000000 0.000000
# 2 -0.003909 0.013037 -0.005168 0.000000 0.000000 0.000000
# 3 -0.001089 -0.005168 0.019069 0.000000 0.000000 0.000000
# 4 0.000000 0.000000 0.000000 0.026209 0.000000 0.000000
# 5 0.000000 0.000000 0.000000 0.000000 0.030034 0.000000
# 6 0.000000 0.000000 0.000000 0.000000 0.000000 0.030075
#
#
# Mechanical properties :
#
#
# Convention : Reuss Voigt Hill
#
# Bulk Modulus (GPa) = 40.60848 43.91993 42.26420
# Shear Modulus (GPa) = 31.28582 32.47731 31.88156
#
# Velocity S-wave (km/s) = 3.71847 3.78861 3.75370
# Velocity P-wave (km/s) = 6.03185 6.20877 6.12095
#
# Compressibility (1/GPa) = 0.02462540
#
# Stress axis : x y z
#
# Youngs Moduli (GPa) = 77.81043 76.70614 52.44026
#
# Poissons Ratio (x) = 0.29985 0.05713
# Poissons Ratio (y) = 0.30416 0.27099
# Poissons Ratio (z) = 0.08477 0.39639
#
# Static dielectric constant tensor:
#      x y z
#    x 1.851990 0.000000 0.000000 
#    y 0.000000 1.921680 0.000000 
#    z 0.000000 0.000000 1.902270 
# 
# From -- ./inp_files/31190.got.cif
#   From: 2010.05.17/outbox.cif.g08.bks.cpg/sg20_16_cif.got.tgz:31190.got - 2010.06.03 22:52:26.
