data_PCOD9319583
_publ_section_title
;
Structure prediction by ZEFSAII (Michael W. Deem and Ramdas Pophale) SiO2 
 PCOD9319583
Probable space group: C 2 2 21
;
_chemical_formula_sum "Si O2"
_cell_formula_units_Z 52
_cell_length_a 18.319628
_cell_length_b 15.536105
_cell_length_c 7.754651
_cell_angle_alpha 90.000000
_cell_angle_beta 90.000000
_cell_angle_gamma 90.000000
_cell_volume 2207.095145
_symmetry_space_group_name_H-M "C 2 2 21"
_symmetry_group_IT_number 20
_symmetry_cell_setting 'orthorhombic'
loop_
_space_group_symop_operation_xyz
x,y,z
-x,-y,1/2+z
x,-y,-z
-x,y,1/2-z
1/2+x,1/2+y,z
1/2-x,1/2-y,1/2+z
1/2+x,1/2-y,-z
1/2-x,1/2+y,1/2-z
loop_
_atom_site_type_symbol
_atom_site_label
_atom_site_fract_x
_atom_site_fract_y
_atom_site_fract_z
Si Si1 0.000000 0.781538 0.750000
Si Si2 0.368506 0.865591 0.571310
Si Si3 0.584371 0.496542 0.202746
Si Si4 0.399692 0.878440 0.171464
Si Si5 0.000000 0.476769 0.750000
Si Si6 0.062983 0.184971 0.882013
Si Si7 0.706407 0.000000 0.500000
Si Si8 0.280224 0.440375 0.836357
O O1 0.062571 0.715248 0.674855
O O2 0.970542 0.829752 0.576823
O O3 0.372600 0.891882 0.369073
O O4 0.432510 0.920034 0.672360
O O5 0.386731 0.766135 0.588258
O O6 0.285506 0.874465 0.636461
O O7 0.500000 0.502901 0.250000
O O8 0.601137 0.393961 0.220701
O O9 0.633170 0.566383 0.302852
O O10 0.592974 0.500000 0.000000
O O11 0.338791 0.911813 0.038237
O O12 0.244571 0.011487 0.165225
O O13 0.038590 0.550675 0.633620
O O14 0.000000 0.212423 0.750000
O O15 0.274535 0.500000 0.000000
#
# Coordination Sequence:
#
# PCOD9319583 Si02
#       8
#     4   8   8   8   4   8   4   8
#     4   9  22  38  62 101 148 182 242 283 352 420
#     4  11  21  38  62  99 151 184 222 283 358 421
#     4  11  26  50  78 101 128 178 251 305 356 422
#     4  10  22  31  55 101 141 197 226 265 335 450
#     4  11  18  28  56  95 142 192 220 257 342 424
#     4  10  23  43  67 104 142 184 234 290 359 417
#     4  12  22  36  62  98 144 178 236 264 344 430
#     4  12  24  44  69 100 138 181 232 295 351 426
#
# _framework density 23.560379000000001
#
# number of rings (size 3 to 8) (size 9 to 14) (size 15 to 20)
#    0.000    1.231    4.615    0.923    9.692    0.000 
#    0.000    1.538    0.000    0.000    0.000    0.000 
#    0.000    0.000    0.000    0.000    0.000    0.000 
#
# Total GULP energy -144849.563417 kJ/mol
# GULP energy per Si atom -5571.137054 kJ/mol
# Density = 2.350675 g / cm^3
# Si number density = 23.560379 Si / 1000 Ang^3
#
#
#
# Elastic Constant Matrix: (Units=GPa)
#
#
# Indices 1 2 3 4 5 6 
#
# 1 115.0595 43.5401 28.0180 0.0000 0.0000 0.0000
# 2 43.5401 72.0077 18.3413 0.0000 0.0000 0.0000
# 3 28.0180 18.3413 106.7094 0.0000 0.0000 0.0000
# 4 0.0000 0.0000 0.0000 23.2937 0.0000 0.0000
# 5 0.0000 0.0000 0.0000 0.0000 38.0981 0.0000
# 6 0.0000 0.0000 0.0000 0.0000 0.0000 20.7676
#
#
#
# Elastic Compliance Matrix: (Units=1/GPa)
#
#
# Indices 1 2 3 4 5 6 
#
# 1 0.011638 -0.006545 -0.001931 0.000000 0.000000 0.000000
# 2 -0.006545 0.018204 -0.001410 0.000000 0.000000 0.000000
# 3 -0.001931 -0.001410 0.010121 0.000000 0.000000 0.000000
# 4 0.000000 0.000000 0.000000 0.042930 0.000000 0.000000
# 5 0.000000 0.000000 0.000000 0.000000 0.026248 0.000000
# 6 0.000000 0.000000 0.000000 0.000000 0.000000 0.048152
#
#
# Mechanical properties :
#
#
# Convention : Reuss Voigt Hill
#
# Bulk Modulus (GPa) = 49.52910 52.61948 51.07429
# Shear Modulus (GPa) = 27.20405 30.02369 28.61387
#
# Velocity S-wave (km/s) = 3.40170 3.57365 3.48874
# Velocity P-wave (km/s) = 6.04124 6.27776 6.16064
#
# Compressibility (1/GPa) = 0.02019015
#
# Stress axis : x y z
#
# Youngs Moduli (GPa) = 85.92431 54.93194 98.80826
#
# Poissons Ratio (x) = 0.35955 0.19077
# Poissons Ratio (y) = 0.56240 0.13936
# Poissons Ratio (z) = 0.16590 0.07748
#
# Static dielectric constant tensor:
#      x y z
#    x 2.030800 0.000000 0.000000 
#    y 0.000000 1.959520 0.000000 
#    z 0.000000 0.000000 2.017670 
# 
# From -- ./inp_files/9570.got.cif
#   From: 2010.05.17/outbox.cif.g08.bks.cpg/sg20_5_cif.got.tgz:9570.got - 2010.06.03 22:52:26.
