data_PCOD9319501
_publ_section_title
;
Structure prediction by ZEFSAII (Michael W. Deem and Ramdas Pophale) SiO2 
 PCOD9319501
Probable space group: C 2 2 21
;
_chemical_formula_sum "Si O2"
_cell_formula_units_Z 48
_cell_length_a 12.649802
_cell_length_b 9.028782
_cell_length_c 17.018137
_cell_angle_alpha 90.000000
_cell_angle_beta 90.000000
_cell_angle_gamma 90.000000
_cell_volume 1943.680647
_symmetry_space_group_name_H-M "C 2 2 21"
_symmetry_group_IT_number 20
_symmetry_cell_setting 'orthorhombic'
loop_
_space_group_symop_operation_xyz
x,y,z
-x,-y,1/2+z
x,-y,-z
-x,y,1/2-z
1/2+x,1/2+y,z
1/2-x,1/2-y,1/2+z
1/2+x,1/2-y,-z
1/2-x,1/2+y,1/2-z
loop_
_atom_site_type_symbol
_atom_site_label
_atom_site_fract_x
_atom_site_fract_y
_atom_site_fract_z
Si Si1 0.528995 0.000000 0.000000
Si Si2 0.791418 0.700197 0.752970
Si Si3 0.642732 0.500000 0.500000
Si Si4 0.905892 0.850707 0.146651
Si Si5 0.808281 0.705043 0.412591
Si Si6 0.609223 0.032809 0.367553
Si Si7 0.500000 0.397279 0.750000
Si Si8 0.267004 0.500000 0.500000
O O1 0.598069 0.114273 0.048007
O O2 0.460543 0.933890 0.072474
O O3 0.715466 0.772478 0.820198
O O4 0.842540 0.559635 0.797218
O O5 0.893741 0.801595 0.732765
O O6 0.969135 0.013500 0.817030
O O7 0.585061 0.615200 0.555229
O O8 0.710043 0.606360 0.443020
O O9 0.943642 0.683458 0.162088
O O10 0.785962 0.846881 0.182281
O O11 0.817775 0.866683 0.451957
O O12 0.699403 0.078970 0.430436
#
# Coordination Sequence:
#
# PCOD9319501 Si02
#       8
#     4   8   4   8   8   8   4   4
#     4  10  24  42  72 114 150 204 250 320 414 474
#     4  11  26  50  77 113 158 204 269 338 398 486
#     4  11  22  45  75 105 156 202 253 330 388 471
#     4  12  26  48  80 111 155 216 264 336 403 485
#     4  10  21  43  73 106 149 196 255 319 397 472
#     4  10  23  45  72 105 157 195 261 322 398 483
#     4  12  28  48  82 114 158 206 272 330 408 478
#     4   9  18  41  73 101 132 202 243 314 384 457
#
# _framework density 24.695416000000002
#
# number of rings (size 3 to 8) (size 9 to 14) (size 15 to 20)
#    0.000    1.333    3.333    1.000    2.333    3.333 
#    6.000    0.833    0.000    0.000    0.000    0.000 
#    0.000    0.000    0.000    0.000    0.000    0.000 
#
# Total GULP energy -133978.851664 kJ/mol
# GULP energy per Si atom -5582.452153 kJ/mol
# Density = 2.463921 g / cm^3
# Si number density = 24.695416 Si / 1000 Ang^3
#
#
#
# Elastic Constant Matrix: (Units=GPa)
#
#
# Indices 1 2 3 4 5 6 
#
# 1 94.6118 44.8595 51.6966 0.0000 0.0000 0.0000
# 2 44.8595 124.6797 56.1848 0.0000 0.0000 0.0000
# 3 51.6966 56.1848 95.2109 0.0000 0.0000 0.0000
# 4 0.0000 0.0000 0.0000 49.6352 0.0000 0.0000
# 5 0.0000 0.0000 0.0000 0.0000 19.7059 0.0000
# 6 0.0000 0.0000 0.0000 0.0000 0.0000 70.9820
#
#
#
# Elastic Compliance Matrix: (Units=1/GPa)
#
#
# Indices 1 2 3 4 5 6 
#
# 1 0.015554 -0.002439 -0.007006 0.000000 0.000000 0.000000
# 2 -0.002439 0.011309 -0.005349 0.000000 0.000000 0.000000
# 3 -0.007006 -0.005349 0.017464 0.000000 0.000000 0.000000
# 4 0.000000 0.000000 0.000000 0.020147 0.000000 0.000000
# 5 0.000000 0.000000 0.000000 0.000000 0.050746 0.000000
# 6 0.000000 0.000000 0.000000 0.000000 0.000000 0.014088
#
#
# Mechanical properties :
#
#
# Convention : Reuss Voigt Hill
#
# Bulk Modulus (GPa) = 67.85189 68.88714 68.36951
# Shear Modulus (GPa) = 30.52344 38.84872 34.68608
#
# Velocity S-wave (km/s) = 3.51949 3.97055 3.75181
# Velocity P-wave (km/s) = 6.63708 6.99826 6.82006
#
# Compressibility (1/GPa) = 0.01473798
#
# Stress axis : x y z
#
# Youngs Moduli (GPa) = 64.29122 88.42875 57.26229
#
# Poissons Ratio (x) = 0.21570 0.40118
# Poissons Ratio (y) = 0.15682 0.30629
# Poissons Ratio (z) = 0.45043 0.47299
#
# Static dielectric constant tensor:
#      x y z
#    x 2.103410 0.000000 0.000000 
#    y 0.000000 1.977040 0.000000 
#    z 0.000000 0.000000 1.736180 
# 
# From -- ./inp_files/27728.got.cif
#   From: 2010.05.17/outbox.cif.g08.bks.cpg/sg20_14_cif.got.tgz:27728.got - 2010.06.03 22:52:26.
