data_PCOD9319300
_publ_section_title
;
Structure prediction by ZEFSAII (Michael W. Deem and Ramdas Pophale) SiO2 
 PCOD9319300
Probable space group: C 2 2 21
;
_chemical_formula_sum "Si O2"
_cell_formula_units_Z 36
_cell_length_a 11.895071
_cell_length_b 24.930896
_cell_length_c 4.968266
_cell_angle_alpha 90.000000
_cell_angle_beta 90.000000
_cell_angle_gamma 90.000000
_cell_volume 1473.363021
_symmetry_space_group_name_H-M "C 2 2 21"
_symmetry_group_IT_number 20
_symmetry_cell_setting 'orthorhombic'
loop_
_space_group_symop_operation_xyz
x,y,z
-x,-y,1/2+z
x,-y,-z
-x,y,1/2-z
1/2+x,1/2+y,z
1/2-x,1/2-y,1/2+z
1/2+x,1/2-y,-z
1/2-x,1/2+y,1/2-z
loop_
_atom_site_type_symbol
_atom_site_label
_atom_site_fract_x
_atom_site_fract_y
_atom_site_fract_z
Si Si1 0.583394 0.500000 0.500000
Si Si2 0.392121 0.645195 0.619164
Si Si3 0.224892 0.279792 0.117618
Si Si4 0.000000 0.539924 0.750000
Si Si5 0.745568 0.942644 0.355267
Si Si6 0.500000 0.261628 0.750000
O O1 0.500000 0.513760 0.250000
O O2 0.671536 0.545084 0.605088
O O3 0.500000 0.617907 0.750000
O O4 0.305855 0.670629 0.833419
O O5 0.312854 0.602157 0.475711
O O6 0.448167 0.695199 0.461526
O O7 0.282113 0.232957 0.302768
O O8 0.104767 0.278790 0.261995
O O9 0.116707 0.571820 0.710947
O O10 0.980555 0.500000 0.500000
O O11 0.738498 0.000000 0.500000
#
# Coordination Sequence:
#
# PCOD9319300 Si02
#       6
#     4   8   8   4   8   4
#     4  12  24  42  62  98 140 192 222 286 348 406
#     4  11  23  41  65 104 133 182 225 283 347 422
#     4  10  21  41  64  91 125 170 215 274 339 396
#     4  10  22  47  68  88 128 188 234 283 334 394
#     4  11  25  44  70 101 145 188 238 285 351 409
#     4  10  22  43  70  94 142 166 228 283 354 406
#
# _framework density 24.433895
#
# number of rings (size 3 to 8) (size 9 to 14) (size 15 to 20)
#    0.000    1.333    4.444    0.667    0.000    4.444 
#    0.000    0.000    0.000    2.667    0.000    0.000 
#    0.000    0.000    0.000    0.000    0.000    0.000 
#
# Total GULP energy -100275.188464 kJ/mol
# GULP energy per Si atom -5570.843804 kJ/mol
# Density = 2.437828 g / cm^3
# Si number density = 24.433895 Si / 1000 Ang^3
#
#
#
# Elastic Constant Matrix: (Units=GPa)
#
#
# Indices 1 2 3 4 5 6 
#
# 1 256.1877 53.5263 29.1928 0.0000 0.0000 0.0000
# 2 53.5263 60.3222 -0.1891 0.0000 0.0000 0.0000
# 3 29.1928 -0.1891 95.0923 0.0000 0.0000 0.0000
# 4 0.0000 0.0000 0.0000 17.0557 0.0000 0.0000
# 5 0.0000 0.0000 0.0000 0.0000 29.8441 0.0000
# 6 0.0000 0.0000 0.0000 0.0000 0.0000 52.3096
#
#
#
# Elastic Compliance Matrix: (Units=1/GPa)
#
#
# Indices 1 2 3 4 5 6 
#
# 1 0.005009 -0.004450 -0.001547 0.000000 0.000000 0.000000
# 2 -0.004450 0.020531 0.001407 0.000000 0.000000 0.000000
# 3 -0.001547 0.001407 0.010994 0.000000 0.000000 0.000000
# 4 0.000000 0.000000 0.000000 0.058631 0.000000 0.000000
# 5 0.000000 0.000000 0.000000 0.000000 0.033507 0.000000
# 6 0.000000 0.000000 0.000000 0.000000 0.000000 0.019117
#
#
# Mechanical properties :
#
#
# Convention : Reuss Voigt Hill
#
# Bulk Modulus (GPa) = 36.55721 64.07357 50.31539
# Shear Modulus (GPa) = 30.10474 41.78004 35.94239
#
# Velocity S-wave (km/s) = 3.51392 4.13961 3.83953
# Velocity P-wave (km/s) = 5.60871 7.00918 6.34769
#
# Compressibility (1/GPa) = 0.02735438
#
# Stress axis : x y z
#
# Youngs Moduli (GPa) = 199.62641 48.70782 90.96099
#
# Poissons Ratio (x) = 0.21674 0.14069
# Poissons Ratio (y) = 0.88831 -0.12797
# Poissons Ratio (z) = 0.30876 -0.06853
#
# Static dielectric constant tensor:
#      x y z
#    x 2.033810 0.000000 0.000000 
#    y 0.000000 2.061580 0.000000 
#    z 0.000000 0.000000 1.984370 
# 
# From -- ./inp_files/1238.got.cif
#   From: 2010.05.17/outbox.cif.g08.bks.cpg/sg20_1_cif.got.tgz:1238.got - 2010.06.03 22:52:26.
