data_PCOD9319560
_publ_section_title
;
Structure prediction by ZEFSAII (Michael W. Deem and Ramdas Pophale) SiO2 
 PCOD9319560
Probable space group: C 2 2 21
;
_chemical_formula_sum "Si O2"
_cell_formula_units_Z 36
_cell_length_a 5.446484
_cell_length_b 22.648985
_cell_length_c 13.387889
_cell_angle_alpha 90.000000
_cell_angle_beta 90.000000
_cell_angle_gamma 90.000000
_cell_volume 1651.494301
_symmetry_space_group_name_H-M "C 2 2 21"
_symmetry_group_IT_number 20
_symmetry_cell_setting 'orthorhombic'
loop_
_space_group_symop_operation_xyz
x,y,z
-x,-y,1/2+z
x,-y,-z
-x,y,1/2-z
1/2+x,1/2+y,z
1/2-x,1/2-y,1/2+z
1/2+x,1/2-y,-z
1/2-x,1/2+y,1/2-z
loop_
_atom_site_type_symbol
_atom_site_label
_atom_site_fract_x
_atom_site_fract_y
_atom_site_fract_z
Si Si1 0.000000 0.604087 0.250000
Si Si2 0.529475 0.762934 0.445064
Si Si3 0.500000 0.566002 0.750000
Si Si4 0.618997 0.885315 0.139208
Si Si5 0.359700 0.998174 0.891944
Si Si6 0.000000 0.181355 0.250000
O O1 0.028572 0.561894 0.347958
O O2 0.250455 0.642273 0.245513
O O3 0.809103 0.756819 0.481682
O O4 0.471044 0.831257 0.423905
O O5 0.496056 0.723532 0.346336
O O6 0.595287 0.609600 0.663806
O O7 0.689737 0.522646 0.803179
O O8 0.500000 0.879538 0.250000
O O9 0.556375 0.949340 0.095852
O O10 0.230718 0.000000 0.000000
#
# Coordination Sequence:
#
# PCOD9319560 Si02
#       6
#     4   8   4   8   8   4
#     4  12  26  50  70 111 157 192 246 298 396 438
#     4  12  29  49  76 109 146 197 257 300 371 440
#     4  10  21  45  72 104 137 195 246 302 370 426
#     4  10  23  45  71 100 136 189 246 308 350 432
#     4  11  25  43  71 105 147 190 246 309 363 442
#     4  12  29  49  74 107 160 197 232 324 366 446
#
# _framework density 21.798441
#
# number of rings (size 3 to 8) (size 9 to 14) (size 15 to 20)
#    0.000    0.889    4.444    2.000   12.444    1.778 
#    0.000    0.000    0.000    0.000    0.000    0.000 
#    0.000    0.000    0.000    0.000    0.000    0.000 
#
# Total GULP energy -100449.760731 kJ/mol
# GULP energy per Si atom -5580.542263 kJ/mol
# Density = 2.174883 g / cm^3
# Si number density = 21.798441 Si / 1000 Ang^3
#
#
#
# Elastic Constant Matrix: (Units=GPa)
#
#
# Indices 1 2 3 4 5 6 
#
# 1 69.5004 21.3306 0.5381 0.0000 0.0000 0.0000
# 2 21.3306 99.0636 18.4443 0.0000 0.0000 0.0000
# 3 0.5381 18.4443 77.5184 0.0000 0.0000 0.0000
# 4 0.0000 0.0000 0.0000 21.9902 0.0000 0.0000
# 5 0.0000 0.0000 0.0000 0.0000 28.9633 0.0000
# 6 0.0000 0.0000 0.0000 0.0000 0.0000 44.5273
#
#
#
# Elastic Compliance Matrix: (Units=1/GPa)
#
#
# Indices 1 2 3 4 5 6 
#
# 1 0.015444 -0.003459 0.000716 0.000000 0.000000 0.000000
# 2 -0.003459 0.011337 -0.002673 0.000000 0.000000 0.000000
# 3 0.000716 -0.002673 0.013531 0.000000 0.000000 0.000000
# 4 0.000000 0.000000 0.000000 0.045475 0.000000 0.000000
# 5 0.000000 0.000000 0.000000 0.000000 0.034526 0.000000
# 6 0.000000 0.000000 0.000000 0.000000 0.000000 0.022458
#
#
# Mechanical properties :
#
#
# Convention : Reuss Voigt Hill
#
# Bulk Modulus (GPa) = 33.92158 36.30094 35.11126
# Shear Modulus (GPa) = 30.59383 32.81412 31.70398
#
# Velocity S-wave (km/s) = 3.75038 3.88408 3.81782
# Velocity P-wave (km/s) = 5.86081 6.06663 5.96460
#
# Compressibility (1/GPa) = 0.02947976
#
# Stress axis : x y z
#
# Youngs Moduli (GPa) = 64.74832 88.20644 73.90271
#
# Poissons Ratio (x) = 0.30509 -0.05290
# Poissons Ratio (y) = 0.22395 0.19758
# Poissons Ratio (z) = -0.04634 0.23582
#
# Static dielectric constant tensor:
#      x y z
#    x 1.919960 0.000000 0.000000 
#    y 0.000000 1.794920 0.000000 
#    z 0.000000 0.000000 1.858810 
# 
# From -- ./inp_files/12100.got.cif
#   From: 2010.05.17/outbox.cif.g08.bks.cpg/sg20_7_cif.got.tgz:12100.got - 2010.06.03 22:52:26.
