data_PCOD9319526
_publ_section_title
;
Structure prediction by ZEFSAII (Michael W. Deem and Ramdas Pophale) SiO2 
 PCOD9319526
Probable space group: C 2 2 21
;
_chemical_formula_sum "Si O2"
_cell_formula_units_Z 36
_cell_length_a 12.646080
_cell_length_b 4.893414
_cell_length_c 20.967238
_cell_angle_alpha 90.000000
_cell_angle_beta 90.000000
_cell_angle_gamma 90.000000
_cell_volume 1297.505209
_symmetry_space_group_name_H-M "C 2 2 21"
_symmetry_group_IT_number 20
_symmetry_cell_setting 'orthorhombic'
loop_
_space_group_symop_operation_xyz
x,y,z
-x,-y,1/2+z
x,-y,-z
-x,y,1/2-z
1/2+x,1/2+y,z
1/2-x,1/2-y,1/2+z
1/2+x,1/2-y,-z
1/2-x,1/2+y,1/2-z
loop_
_atom_site_type_symbol
_atom_site_label
_atom_site_fract_x
_atom_site_fract_y
_atom_site_fract_z
Si Si1 0.374906 0.891698 0.571161
Si Si2 0.983601 0.779412 0.321864
Si Si3 0.639201 0.695145 0.390191
Si Si4 0.496234 0.500000 0.000000
Si Si5 0.259519 0.543029 0.293796
O O1 0.454901 0.963350 0.628307
O O2 0.755464 0.424974 0.592113
O O3 0.423132 0.593702 0.554975
O O4 0.386799 0.000000 0.500000
O O5 0.873731 0.946718 0.316920
O O6 0.000000 0.676669 0.250000
O O7 0.074060 0.985963 0.345773
O O8 0.581288 0.701222 0.459690
O O9 0.675053 0.960079 0.348707
O O10 0.264444 0.846296 0.266629
#
# Coordination Sequence:
#
# PCOD9319526 Si02
#       5
#     8   8   8   4   8
#     4  10  22  43  70 101 142 194 255 312 374 463
#     4  10  21  44  70 107 145 198 248 311 392 450
#     4  10  21  46  68 101 151 188 252 319 380 458
#     4  10  22  44  68 102 140 190 256 310 392 446
#     4  11  24  46  73 107 151 195 250 314 381 460
#
# _framework density 27.745550999999999
#
# number of rings (size 3 to 8) (size 9 to 14) (size 15 to 20)
#    0.000    1.778    3.333    0.000    0.000    1.778 
#   30.000    0.000    0.000    0.000    0.000    0.000 
#    0.000    0.000    0.000    0.000    0.000    0.000 
#
# Total GULP energy -100646.056113 kJ/mol
# GULP energy per Si atom -5591.447562 kJ/mol
# Density = 2.768240 g / cm^3
# Si number density = 27.745551 Si / 1000 Ang^3
#
#
#
# Elastic Constant Matrix: (Units=GPa)
#
#
# Indices 1 2 3 4 5 6 
#
# 1 194.0815 21.3737 74.3704 0.0000 0.0000 0.0000
# 2 21.3737 66.4922 32.8342 0.0000 0.0000 0.0000
# 3 74.3704 32.8342 211.7880 0.0000 0.0000 0.0000
# 4 0.0000 0.0000 0.0000 49.6363 0.0000 0.0000
# 5 0.0000 0.0000 0.0000 0.0000 75.3828 0.0000
# 6 0.0000 0.0000 0.0000 0.0000 0.0000 30.8862
#
#
#
# Elastic Compliance Matrix: (Units=1/GPa)
#
#
# Indices 1 2 3 4 5 6 
#
# 1 0.006010 -0.000964 -0.001961 0.000000 0.000000 0.000000
# 2 -0.000964 0.016441 -0.002210 0.000000 0.000000 0.000000
# 3 -0.001961 -0.002210 0.005753 0.000000 0.000000 0.000000
# 4 0.000000 0.000000 0.000000 0.020147 0.000000 0.000000
# 5 0.000000 0.000000 0.000000 0.000000 0.013266 0.000000
# 6 0.000000 0.000000 0.000000 0.000000 0.000000 0.032377
#
#
# Mechanical properties :
#
#
# Convention : Reuss Voigt Hill
#
# Bulk Modulus (GPa) = 55.76144 81.05758 68.40951
# Shear Modulus (GPa) = 45.35521 54.09994 49.72758
#
# Velocity S-wave (km/s) = 4.04751 4.42051 4.23812
# Velocity P-wave (km/s) = 6.47952 7.43859 6.97556
#
# Compressibility (1/GPa) = 0.01793354
#
# Stress axis : x y z
#
# Youngs Moduli (GPa) = 166.38777 60.82488 173.82093
#
# Poissons Ratio (x) = 0.05861 0.34088
# Poissons Ratio (y) = 0.16032 0.38423
# Poissons Ratio (z) = 0.32630 0.13445
#
# Static dielectric constant tensor:
#      x y z
#    x 2.144500 0.000000 0.000000 
#    y 0.000000 2.316450 0.000000 
#    z 0.000000 0.000000 2.315960 
# 
# From -- ./inp_files/29030.got.cif
#   From: 2010.05.17/outbox.cif.g08.bks.cpg/sg20_15_cif.got.tgz:29030.got - 2010.06.03 22:52:26.
