data_PCOD9319270
_publ_section_title
;
Structure prediction by ZEFSAII (Michael W. Deem and Ramdas Pophale) SiO2 
 PCOD9319270
Probable space group: C 2 2 21
;
_chemical_formula_sum "Si O2"
_cell_formula_units_Z 60
_cell_length_a 32.501599
_cell_length_b 11.757588
_cell_length_c 8.343372
_cell_angle_alpha 90.000000
_cell_angle_beta 90.000000
_cell_angle_gamma 90.000000
_cell_volume 3188.339600
_symmetry_space_group_name_H-M "C 2 2 21"
_symmetry_group_IT_number 20
_symmetry_cell_setting 'orthorhombic'
loop_
_space_group_symop_operation_xyz
x,y,z
-x,-y,1/2+z
x,-y,-z
-x,y,1/2-z
1/2+x,1/2+y,z
1/2-x,1/2-y,1/2+z
1/2+x,1/2-y,-z
1/2-x,1/2+y,1/2-z
loop_
_atom_site_type_symbol
_atom_site_label
_atom_site_fract_x
_atom_site_fract_y
_atom_site_fract_z
Si Si1 0.382604 0.635964 0.983632
Si Si2 0.786005 0.692188 0.752126
Si Si3 0.201179 0.765860 0.387388
Si Si4 0.407995 0.500000 0.500000
Si Si5 0.136350 0.208913 0.159206
Si Si6 0.337542 0.031961 0.183330
Si Si7 0.591800 0.114278 0.073257
Si Si8 0.951408 0.823099 0.266828
O O1 0.376298 0.700714 0.153003
O O2 0.382651 0.500000 0.000000
O O3 0.342445 0.669744 0.879458
O O4 0.424491 0.671046 0.895488
O O5 0.739707 0.676591 0.696501
O O6 0.814606 0.774988 0.645702
O O7 0.811915 0.575805 0.755550
O O8 0.786803 0.747245 0.927745
O O9 0.192555 0.640111 0.321198
O O10 0.379741 0.407695 0.586183
O O11 0.435184 0.427874 0.375384
O O12 0.115004 0.312284 0.064110
O O13 0.375230 0.069324 0.295533
O O14 0.350339 0.000000 0.000000
O O15 0.560751 0.203876 0.150999
O O16 0.572636 0.000000 0.000000
O O17 0.000000 0.832178 0.250000
#
# Coordination Sequence:
#
# PCOD9319270 Si02
#       8
#     8   8   8   4   8   8   8   8
#     4  11  22  43  65  91 132 173 215 267 338 394
#     4  10  22  37  59  91 126 166 226 259 321 381
#     4  10  23  38  58  91 126 167 220 270 316 389
#     4  10  22  40  64  94 132 164 214 266 330 390
#     4  10  22  39  61  97 124 176 216 258 322 392
#     4  10  21  41  61  87 123 180 214 263 328 387
#     4  11  22  41  69  92 129 167 222 265 328 394
#     4  11  25  43  69  99 129 168 215 273 339 403
#
# _framework density 18.818570999999999
#
# number of rings (size 3 to 8) (size 9 to 14) (size 15 to 20)
#    0.000    1.600    4.000    0.000    2.800    2.133 
#    3.600    4.000    0.000    0.000    0.000    0.000 
#    0.000    0.000    0.000    0.000    0.000    0.000 
#
# Total GULP energy -167462.090396 kJ/mol
# GULP energy per Si atom -5582.069680 kJ/mol
# Density = 1.877574 g / cm^3
# Si number density = 18.818571 Si / 1000 Ang^3
#
#
#
# Elastic Constant Matrix: (Units=GPa)
#
#
# Indices 1 2 3 4 5 6 
#
# 1 129.3319 38.5900 45.5251 0.0000 0.0000 0.0000
# 2 38.5900 109.9216 33.7183 0.0000 0.0000 0.0000
# 3 45.5251 33.7183 58.9819 0.0000 0.0000 0.0000
# 4 0.0000 0.0000 0.0000 21.8282 0.0000 0.0000
# 5 0.0000 0.0000 0.0000 0.0000 17.0216 0.0000
# 6 0.0000 0.0000 0.0000 0.0000 0.0000 11.3105
#
#
#
# Elastic Compliance Matrix: (Units=1/GPa)
#
#
# Indices 1 2 3 4 5 6 
#
# 1 0.010816 -0.001499 -0.007492 0.000000 0.000000 0.000000
# 2 -0.001499 0.011240 -0.005268 0.000000 0.000000 0.000000
# 3 -0.007492 -0.005268 0.025748 0.000000 0.000000 0.000000
# 4 0.000000 0.000000 0.000000 0.045812 0.000000 0.000000
# 5 0.000000 0.000000 0.000000 0.000000 0.058749 0.000000
# 6 0.000000 0.000000 0.000000 0.000000 0.000000 0.088413
#
#
# Mechanical properties :
#
#
# Convention : Reuss Voigt Hill
#
# Bulk Modulus (GPa) = 51.84983 59.32245 55.58614
# Shear Modulus (GPa) = 18.13393 22.05885 20.09639
#
# Velocity S-wave (km/s) = 3.10759 3.42743 3.27142
# Velocity P-wave (km/s) = 6.36305 6.87422 6.62357
#
# Compressibility (1/GPa) = 0.01928647
#
# Stress axis : x y z
#
# Youngs Moduli (GPa) = 92.45184 88.96981 38.83734
#
# Poissons Ratio (x) = 0.13339 0.29095
# Poissons Ratio (y) = 0.13861 0.20460
# Poissons Ratio (z) = 0.69261 0.46871
#
# Static dielectric constant tensor:
#      x y z
#    x 1.607600 0.000000 0.000000 
#    y 0.000000 1.650710 0.000000 
#    z 0.000000 0.000000 1.717080 
# 
# From -- ./inp_files/11142.got.cif
#   From: 2010.05.17/outbox.cif.g08.bks.cpg/sg20_6_cif.got.tgz:11142.got - 2010.06.03 22:52:26.
