data_PCOD9319347
_publ_section_title
;
Structure prediction by ZEFSAII (Michael W. Deem and Ramdas Pophale) SiO2 
 PCOD9319347
Probable space group: C 2 2 21
;
_chemical_formula_sum "Si O2"
_cell_formula_units_Z 44
_cell_length_a 5.221817
_cell_length_b 13.311407
_cell_length_c 32.720408
_cell_angle_alpha 90.000000
_cell_angle_beta 90.000000
_cell_angle_gamma 90.000000
_cell_volume 2274.386770
_symmetry_space_group_name_H-M "C 2 2 21"
_symmetry_group_IT_number 20
_symmetry_cell_setting 'orthorhombic'
loop_
_space_group_symop_operation_xyz
x,y,z
-x,-y,1/2+z
x,-y,-z
-x,y,1/2-z
1/2+x,1/2+y,z
1/2-x,1/2-y,1/2+z
1/2+x,1/2-y,-z
1/2-x,1/2+y,1/2-z
loop_
_atom_site_type_symbol
_atom_site_label
_atom_site_fract_x
_atom_site_fract_y
_atom_site_fract_z
Si Si1 0.203851 0.616329 0.510995
Si Si2 0.116169 0.393349 0.315783
Si Si3 0.500000 0.250815 0.750000
Si Si4 0.905424 0.803274 0.146744
Si Si5 0.795858 0.794721 0.051818
Si Si6 0.871707 0.626103 0.205548
O O1 0.181280 0.500000 0.500000
O O2 0.194770 0.686855 0.470728
O O3 0.970031 0.652940 0.539368
O O4 0.470820 0.640723 0.533231
O O5 0.339168 0.369039 0.347843
O O6 0.116785 0.510549 0.305730
O O7 0.177155 0.328238 0.274734
O O8 0.836046 0.357862 0.331164
O O9 0.405382 0.326948 0.715194
O O10 0.967789 0.698454 0.169685
O O11 0.831387 0.786031 0.100051
O O12 0.000000 0.640441 0.250000
#
# Coordination Sequence:
#
# PCOD9319347 Si02
#       6
#     8   8   4   8   8   8
#     4  10  21  41  69  93 120 163 197 241 301 374
#     4  11  24  39  61  86 120 164 208 253 304 356
#     4  10  22  38  60  84 116 156 216 258 298 358
#     4  11  25  41  59  93 127 157 200 260 303 358
#     4  10  22  40  63  95 127 154 200 247 302 365
#     4  11  23  39  63  85 118 166 211 251 307 355
#
# _framework density 19.345874999999999
#
# number of rings (size 3 to 8) (size 9 to 14) (size 15 to 20)
#    0.000    1.455    2.727    1.636    2.545    2.909 
#    0.000    0.000    0.000    0.000    0.000    0.000 
#    0.000    0.000    0.000    0.000    0.000    0.000 
#
# Total GULP energy -122732.008423 kJ/mol
# GULP energy per Si atom -5578.727656 kJ/mol
# Density = 1.930184 g / cm^3
# Si number density = 19.345875 Si / 1000 Ang^3
#
#
#
# Elastic Constant Matrix: (Units=GPa)
#
#
# Indices 1 2 3 4 5 6 
#
# 1 66.1279 24.8911 -10.0595 0.0000 0.0000 0.0000
# 2 24.8911 166.1618 46.2808 0.0000 0.0000 0.0000
# 3 -10.0595 46.2808 89.3091 0.0000 0.0000 0.0000
# 4 0.0000 0.0000 0.0000 9.9323 0.0000 0.0000
# 5 0.0000 0.0000 0.0000 0.0000 18.9498 0.0000
# 6 0.0000 0.0000 0.0000 0.0000 0.0000 17.2905
#
#
#
# Elastic Compliance Matrix: (Units=1/GPa)
#
#
# Indices 1 2 3 4 5 6 
#
# 1 0.017059 -0.003612 0.003793 0.000000 0.000000 0.000000
# 2 -0.003612 0.007798 -0.004448 0.000000 0.000000 0.000000
# 3 0.003793 -0.004448 0.013929 0.000000 0.000000 0.000000
# 4 0.000000 0.000000 0.000000 0.100682 0.000000 0.000000
# 5 0.000000 0.000000 0.000000 0.000000 0.052771 0.000000
# 6 0.000000 0.000000 0.000000 0.000000 0.000000 0.057835
#
#
# Mechanical properties :
#
#
# Convention : Reuss Voigt Hill
#
# Bulk Modulus (GPa) = 33.05469 49.31376 41.18422
# Shear Modulus (GPa) = 18.60870 26.60030 22.60450
#
# Velocity S-wave (km/s) = 3.10481 3.71210 3.42195
# Velocity P-wave (km/s) = 5.47507 6.62713 6.07845
#
# Compressibility (1/GPa) = 0.03025289
#
# Stress axis : x y z
#
# Youngs Moduli (GPa) = 58.62083 128.23521 71.79129
#
# Poissons Ratio (x) = 0.46318 -0.27232
# Poissons Ratio (y) = 0.21173 0.31932
# Poissons Ratio (z) = -0.22236 0.57038
#
# Static dielectric constant tensor:
#      x y z
#    x 1.785750 0.000000 0.000000 
#    y 0.000000 1.629300 0.000000 
#    z 0.000000 0.000000 1.676960 
# 
# From -- ./inp_files/29784.got.cif
#   From: 2010.05.17/outbox.cif.g08.bks.cpg/sg20_15_cif.got.tgz:29784.got - 2010.06.03 22:52:26.
