data_PCOD9319859
_publ_section_title
;
Structure prediction by ZEFSAII (Michael W. Deem and Ramdas Pophale) SiO2 
 PCOD9319859
Probable space group: C 2 2 21
;
_chemical_formula_sum "Si O2"
_cell_formula_units_Z 44
_cell_length_a 6.703180
_cell_length_b 13.858707
_cell_length_c 21.337597
_cell_angle_alpha 90.000000
_cell_angle_beta 90.000000
_cell_angle_gamma 90.000000
_cell_volume 1982.207445
_symmetry_space_group_name_H-M "C 2 2 21"
_symmetry_group_IT_number 20
_symmetry_cell_setting 'orthorhombic'
loop_
_space_group_symop_operation_xyz
x,y,z
-x,-y,1/2+z
x,-y,-z
-x,y,1/2-z
1/2+x,1/2+y,z
1/2-x,1/2-y,1/2+z
1/2+x,1/2-y,-z
1/2-x,1/2+y,1/2-z
loop_
_atom_site_type_symbol
_atom_site_label
_atom_site_fract_x
_atom_site_fract_y
_atom_site_fract_z
Si Si1 0.710983 0.331855 0.184225
Si Si2 0.425741 0.866018 0.557162
Si Si3 0.000000 0.988060 0.250000
Si Si4 0.684603 0.273147 0.374061
Si Si5 0.431086 0.346553 0.846550
Si Si6 0.504806 0.921421 0.087465
O O1 0.687064 0.421320 0.230278
O O2 0.488492 0.291627 0.175276
O O3 0.837340 0.236811 0.197766
O O4 0.811899 0.374276 0.120441
O O5 0.557037 0.770652 0.568594
O O6 0.210096 0.851851 0.591190
O O7 0.451207 0.890827 0.484302
O O8 0.505655 0.963347 0.591042
O O9 0.943871 0.054989 0.191344
O O10 0.850328 0.192487 0.362005
O O11 0.804070 0.372409 0.380251
#
# Coordination Sequence:
#
# PCOD9319859 Si02
#       6
#     8   8   4   8   8   8
#     4  10  24  43  64 101 134 182 237 279 352 404
#     4  10  22  40  65  99 135 177 229 285 347 416
#     4  12  24  44  74  92 144 190 224 294 330 414
#     4  10  22  40  66  92 138 176 232 288 334 418
#     4  10  24  43  64 101 134 182 237 279 352 404
#     4  10  22  40  65  99 135 177 229 285 347 416
#
# _framework density 22.197474
#
# number of rings (size 3 to 8) (size 9 to 14) (size 15 to 20)
#    0.000    1.818    0.000    2.182   10.182    0.000 
#    0.000   10.909    0.000    0.000    0.000    0.000 
#    0.000    0.000    0.000    0.000    0.000    0.000 
#
# Total GULP energy -122704.935382 kJ/mol
# GULP energy per Si atom -5577.497063 kJ/mol
# Density = 2.214695 g / cm^3
# Si number density = 22.197474 Si / 1000 Ang^3
#
#
#
# Elastic Constant Matrix: (Units=GPa)
#
#
# Indices 1 2 3 4 5 6 
#
# 1 114.2249 16.0969 35.5809 0.0000 0.0000 0.0000
# 2 16.0969 79.0335 13.7158 0.0000 0.0000 0.0000
# 3 35.5809 13.7158 73.5312 0.0000 0.0000 0.0000
# 4 0.0000 0.0000 0.0000 15.1300 0.0000 0.0000
# 5 0.0000 0.0000 0.0000 0.0000 24.7532 0.0000
# 6 0.0000 0.0000 0.0000 0.0000 0.0000 46.3866
#
#
#
# Elastic Compliance Matrix: (Units=1/GPa)
#
#
# Indices 1 2 3 4 5 6 
#
# 1 0.010434 -0.001291 -0.004808 0.000000 0.000000 0.000000
# 2 -0.001291 0.013236 -0.001844 0.000000 0.000000 0.000000
# 3 -0.004808 -0.001844 0.016270 0.000000 0.000000 0.000000
# 4 0.000000 0.000000 0.000000 0.066094 0.000000 0.000000
# 5 0.000000 0.000000 0.000000 0.000000 0.040399 0.000000
# 6 0.000000 0.000000 0.000000 0.000000 0.000000 0.021558
#
#
# Mechanical properties :
#
#
# Convention : Reuss Voigt Hill
#
# Bulk Modulus (GPa) = 41.57338 44.17519 42.87429
# Shear Modulus (GPa) = 26.05581 30.68035 28.36808
#
# Velocity S-wave (km/s) = 3.42982 3.72177 3.57877
# Velocity P-wave (km/s) = 5.86979 6.19782 6.03603
#
# Compressibility (1/GPa) = 0.02405385
#
# Stress axis : x y z
#
# Youngs Moduli (GPa) = 95.83746 75.55256 61.46140
#
# Poissons Ratio (x) = 0.09752 0.29552
# Poissons Ratio (y) = 0.12370 0.11335
# Poissons Ratio (z) = 0.46081 0.13934
#
# Static dielectric constant tensor:
#      x y z
#    x 1.803680 0.000000 0.000000 
#    y 0.000000 1.840760 0.000000 
#    z 0.000000 0.000000 1.738910 
# 
# From -- ./inp_files/29791.got.cif
#   From: 2010.05.17/outbox.cif.g08.bks.cpg/sg20_15_cif.got.tgz:29791.got - 2010.06.03 22:52:26.
