data_PCOD9319226
_publ_section_title
;
Structure prediction by ZEFSAII (Michael W. Deem and Ramdas Pophale) SiO2 
 PCOD9319226
Probable space group: C 2 2 21
;
_chemical_formula_sum "Si O2"
_cell_formula_units_Z 48
_cell_length_a 9.278929
_cell_length_b 14.227799
_cell_length_c 15.845865
_cell_angle_alpha 90.000000
_cell_angle_beta 90.000000
_cell_angle_gamma 90.000000
_cell_volume 2091.951080
_symmetry_space_group_name_H-M "C 2 2 21"
_symmetry_group_IT_number 20
_symmetry_cell_setting 'orthorhombic'
loop_
_space_group_symop_operation_xyz
x,y,z
-x,-y,1/2+z
x,-y,-z
-x,y,1/2-z
1/2+x,1/2+y,z
1/2-x,1/2-y,1/2+z
1/2+x,1/2-y,-z
1/2-x,1/2+y,1/2-z
loop_
_atom_site_type_symbol
_atom_site_label
_atom_site_fract_x
_atom_site_fract_y
_atom_site_fract_z
Si Si1 0.457243 0.765220 0.432867
Si Si2 0.873843 0.067818 0.076032
Si Si3 0.100360 0.674062 0.101676
Si Si4 0.205222 0.292852 0.664202
Si Si5 0.330490 0.509525 0.395235
Si Si6 0.788240 0.678519 0.831231
O O1 0.534888 0.663253 0.449626
O O2 0.471074 0.836646 0.510033
O O3 0.288652 0.762911 0.409807
O O4 0.546796 0.802677 0.353591
O O5 0.726297 0.099808 0.120832
O O6 0.997760 0.009090 0.122940
O O7 0.830787 0.000000 0.000000
O O8 0.189144 0.771185 0.097519
O O9 0.964144 0.691134 0.159501
O O10 0.273838 0.394496 0.646195
O O11 0.245642 0.235735 0.747976
O O12 0.313182 0.500000 0.500000
O O13 0.250859 0.428499 0.343954
#
# Coordination Sequence:
#
# PCOD9319226 Si02
#       6
#     8   8   8   8   8   8
#     4  10  21  40  66  93 133 186 234 281 350 432
#     4   9  19  36  62  95 126 169 238 294 334 406
#     4  11  21  38  63  93 133 180 230 289 345 419
#     4  11  23  41  64 100 142 176 226 296 357 415
#     4  10  21  43  72  98 133 190 245 290 350 435
#     4  11  23  42  66  97 137 183 229 290 359 415
#
# _framework density 22.945087999999998
#
# number of rings (size 3 to 8) (size 9 to 14) (size 15 to 20)
#    0.000    1.667    0.000    7.000    0.000    2.000 
#    0.000   20.000    0.000    0.000    0.000    0.000 
#    0.000    0.000    0.000    0.000    0.000    0.000 
#
# Total GULP energy -133716.666164 kJ/mol
# GULP energy per Si atom -5571.527757 kJ/mol
# Density = 2.289286 g / cm^3
# Si number density = 22.945088 Si / 1000 Ang^3
#
#
#
# Elastic Constant Matrix: (Units=GPa)
#
#
# Indices 1 2 3 4 5 6 
#
# 1 131.9761 12.1406 33.3774 0.0000 0.0000 0.0000
# 2 12.1406 69.5241 32.0304 0.0000 0.0000 0.0000
# 3 33.3774 32.0304 113.6161 0.0000 0.0000 0.0000
# 4 0.0000 0.0000 0.0000 29.4362 0.0000 0.0000
# 5 0.0000 0.0000 0.0000 0.0000 31.9731 0.0000
# 6 0.0000 0.0000 0.0000 0.0000 0.0000 22.4978
#
#
#
# Elastic Compliance Matrix: (Units=1/GPa)
#
#
# Indices 1 2 3 4 5 6 
#
# 1 0.008194 -0.000370 -0.002303 0.000000 0.000000 0.000000
# 2 -0.000370 0.016547 -0.004556 0.000000 0.000000 0.000000
# 3 -0.002303 -0.004556 0.010763 0.000000 0.000000 0.000000
# 4 0.000000 0.000000 0.000000 0.033972 0.000000 0.000000
# 5 0.000000 0.000000 0.000000 0.000000 0.031276 0.000000
# 6 0.000000 0.000000 0.000000 0.000000 0.000000 0.044449
#
#
# Mechanical properties :
#
#
# Convention : Reuss Voigt Hill
#
# Bulk Modulus (GPa) = 47.51627 52.24591 49.88109
# Shear Modulus (GPa) = 29.99880 32.61926 31.30903
#
# Velocity S-wave (km/s) = 3.61975 3.77453 3.69795
# Velocity P-wave (km/s) = 6.18253 6.46649 6.32611
#
# Compressibility (1/GPa) = 0.02104542
#
# Stress axis : x y z
#
# Youngs Moduli (GPa) = 122.04737 60.43315 92.91468
#
# Poissons Ratio (x) = 0.02235 0.21396
# Poissons Ratio (y) = 0.04514 0.42335
# Poissons Ratio (z) = 0.28105 0.27535
#
# Static dielectric constant tensor:
#      x y z
#    x 1.939840 0.000000 0.000000 
#    y 0.000000 1.907910 0.000000 
#    z 0.000000 0.000000 1.972380 
# 
# From -- ./inp_files/23468.got.cif
#   From: 2010.05.17/outbox.cif.g08.bks.cpg/sg20_12_cif.got.tgz:23468.got - 2010.06.03 22:52:26.
