data_PCOD9319803
_publ_section_title
;
Structure prediction by ZEFSAII (Michael W. Deem and Ramdas Pophale) SiO2 
 PCOD9319803
Probable space group: C 2 2 21
;
_chemical_formula_sum "Si O2"
_cell_formula_units_Z 56
_cell_length_a 13.352056
_cell_length_b 11.719494
_cell_length_c 16.931148
_cell_angle_alpha 90.000000
_cell_angle_beta 90.000000
_cell_angle_gamma 90.000000
_cell_volume 2649.374868
_symmetry_space_group_name_H-M "C 2 2 21"
_symmetry_group_IT_number 20
_symmetry_cell_setting 'orthorhombic'
loop_
_space_group_symop_operation_xyz
x,y,z
-x,-y,1/2+z
x,-y,-z
-x,y,1/2-z
1/2+x,1/2+y,z
1/2-x,1/2-y,1/2+z
1/2+x,1/2-y,-z
1/2-x,1/2+y,1/2-z
loop_
_atom_site_type_symbol
_atom_site_label
_atom_site_fract_x
_atom_site_fract_y
_atom_site_fract_z
Si Si1 0.908287 0.814236 0.699814
Si Si2 0.816125 0.951846 0.254146
Si Si3 0.034985 0.870940 0.979440
Si Si4 0.199208 0.239928 0.648441
Si Si5 0.796026 0.869275 0.984949
Si Si6 0.648121 0.258796 0.122274
Si Si7 0.108201 0.423935 0.746193
O O1 0.801019 0.751597 0.699715
O O2 0.000000 0.764114 0.750000
O O3 0.932267 0.832199 0.607582
O O4 0.884186 0.937760 0.736562
O O5 0.854010 0.872393 0.182846
O O6 0.822095 0.874581 0.332535
O O7 0.703370 0.996066 0.239024
O O8 0.915076 0.871371 0.977464
O O9 0.076801 0.790274 0.048994
O O10 0.069188 0.000000 0.000000
O O11 0.225825 0.212192 0.559437
O O12 0.136514 0.353612 0.666397
O O13 0.742473 0.811249 0.911186
O O14 0.761288 0.000000 0.000000
O O15 0.601482 0.175058 0.187515
O O16 0.000000 0.481879 0.750000
#
# Coordination Sequence:
#
# PCOD9319803 Si02
#       7
#     8   8   8   8   8   8   8
#     4  11  24  39  64  93 126 160 217 267 316 379
#     4  10  23  39  64  89 125 164 206 258 320 372
#     4  11  23  40  64  96 123 165 210 268 318 375
#     4  10  22  41  60  89 123 167 202 258 315 378
#     4  11  24  39  64  91 127 162 213 257 319 381
#     4  11  22  43  64  91 129 168 207 268 319 378
#     4  10  22  40  62  88 123 165 211 250 313 386
#
# _framework density 21.137062
#
# number of rings (size 3 to 8) (size 9 to 14) (size 15 to 20)
#    0.000    1.429    2.857    1.714   10.000    2.857 
#    0.000    0.000    0.000    0.000    0.000    0.000 
#    0.000    0.000    0.000    0.000    0.000    0.000 
#
# Total GULP energy -156442.463791 kJ/mol
# GULP energy per Si atom -5587.230850 kJ/mol
# Density = 2.108895 g / cm^3
# Si number density = 21.137062 Si / 1000 Ang^3
#
#
#
# Elastic Constant Matrix: (Units=GPa)
#
#
# Indices 1 2 3 4 5 6 
#
# 1 75.7986 0.6882 -4.8188 0.0000 0.0000 0.0000
# 2 0.6882 59.6464 -6.6443 0.0000 0.0000 0.0000
# 3 -4.8188 -6.6443 64.1354 0.0000 0.0000 0.0000
# 4 0.0000 0.0000 0.0000 23.0489 0.0000 0.0000
# 5 0.0000 0.0000 0.0000 0.0000 28.0087 0.0000
# 6 0.0000 0.0000 0.0000 0.0000 0.0000 11.0803
#
#
#
# Elastic Compliance Matrix: (Units=1/GPa)
#
#
# Indices 1 2 3 4 5 6 
#
# 1 0.013256 -0.000042 0.000992 0.000000 0.000000 0.000000
# 2 -0.000042 0.016961 0.001754 0.000000 0.000000 0.000000
# 3 0.000992 0.001754 0.015848 0.000000 0.000000 0.000000
# 4 0.000000 0.000000 0.000000 0.043386 0.000000 0.000000
# 5 0.000000 0.000000 0.000000 0.000000 0.035703 0.000000
# 6 0.000000 0.000000 0.000000 0.000000 0.000000 0.090250
#
#
# Mechanical properties :
#
#
# Convention : Reuss Voigt Hill
#
# Bulk Modulus (GPa) = 19.42802 19.78117 19.60459
# Shear Modulus (GPa) = 22.01125 26.45126 24.23125
#
# Velocity S-wave (km/s) = 3.23051 3.54137 3.38951
# Velocity P-wave (km/s) = 4.80898 5.10888 4.96120
#
# Compressibility (1/GPa) = 0.05147204
#
# Stress axis : x y z
#
# Youngs Moduli (GPa) = 75.43589 58.95759 63.09857
#
# Poissons Ratio (x) = 0.00250 -0.06257
# Poissons Ratio (y) = 0.00321 -0.11067
# Poissons Ratio (z) = -0.07480 -0.10341
#
# Static dielectric constant tensor:
#      x y z
#    x 1.778490 0.000000 0.000000 
#    y 0.000000 1.750920 0.000000 
#    z 0.000000 0.000000 1.776890 
# 
# From -- ./inp_files/20748.got.cif
#   From: 2010.05.17/outbox.cif.g08.bks.cpg/sg20_11_cif.got.tgz:20748.got - 2010.06.03 22:52:26.
