data_PCOD9319002
_publ_section_title
;
Structure prediction by ZEFSAII (Michael W. Deem and Ramdas Pophale) SiO2 
 PCOD9319002
Probable space group: C 2 2 21
;
_chemical_formula_sum "Si O2"
_cell_formula_units_Z 56
_cell_length_a 20.342200
_cell_length_b 7.986963
_cell_length_c 13.171522
_cell_angle_alpha 90.000000
_cell_angle_beta 90.000000
_cell_angle_gamma 90.000000
_cell_volume 2140.008774
_symmetry_space_group_name_H-M "C 2 2 21"
_symmetry_group_IT_number 20
_symmetry_cell_setting 'orthorhombic'
loop_
_space_group_symop_operation_xyz
x,y,z
-x,-y,1/2+z
x,-y,-z
-x,y,1/2-z
1/2+x,1/2+y,z
1/2-x,1/2-y,1/2+z
1/2+x,1/2-y,-z
1/2-x,1/2+y,1/2-z
loop_
_atom_site_type_symbol
_atom_site_label
_atom_site_fract_x
_atom_site_fract_y
_atom_site_fract_z
Si Si1 0.982521 0.412514 0.129618
Si Si2 0.297145 0.815481 0.875525
Si Si3 0.102914 0.112135 0.316042
Si Si4 0.215178 0.304360 0.967292
Si Si5 0.051377 0.232633 0.655690
Si Si6 0.751497 0.484996 0.706173
Si Si7 0.912129 0.149745 0.426776
O O1 0.920222 0.287075 0.136253
O O2 0.972254 0.602959 0.093946
O O3 0.000000 0.427250 0.250000
O O4 0.041322 0.310495 0.079419
O O5 0.371029 0.783102 0.839731
O O6 0.247244 0.675252 0.828955
O O7 0.269207 0.980167 0.823634
O O8 0.280932 0.788321 0.993007
O O9 0.179182 0.072858 0.326619
O O10 0.093052 0.100887 0.192852
O O11 0.060463 0.964151 0.368471
O O12 0.203108 0.345938 0.849207
O O13 0.220646 0.500000 0.000000
O O14 0.155267 0.208639 0.019591
O O15 0.000000 0.227784 0.750000
O O16 0.935677 0.000000 0.500000
#
# Coordination Sequence:
#
# PCOD9319002 Si02
#       7
#     8   8   8   8   8   8   8
#     4   9  21  41  68  95 135 185 227 289 353 439
#     4  10  22  39  64 102 133 180 239 294 367 440
#     4  10  21  44  68 100 140 185 242 293 365 440
#     4  10  23  42  64 100 141 181 241 304 370 447
#     4  10  21  38  69 100 130 186 242 284 356 442
#     4  10  22  38  67  96 134 185 229 306 368 430
#     4  11  23  42  66 105 146 181 243 313 372 439
#
# _framework density 26.168116000000001
#
# number of rings (size 3 to 8) (size 9 to 14) (size 15 to 20)
#    0.000    2.000    1.429    1.286    6.000    3.429 
#    2.571    5.000    0.000    0.000    0.000    0.000 
#    0.000    0.000    0.000    0.000    0.000    0.000 
#
# Total GULP energy -156197.450770 kJ/mol
# GULP energy per Si atom -5578.480385 kJ/mol
# Density = 2.610856 g / cm^3
# Si number density = 26.168116 Si / 1000 Ang^3
#
#
#
# Elastic Constant Matrix: (Units=GPa)
#
#
# Indices 1 2 3 4 5 6 
#
# 1 99.5623 21.6289 32.4084 0.0000 0.0000 0.0000
# 2 21.6289 113.4000 44.0834 0.0000 0.0000 0.0000
# 3 32.4084 44.0834 101.4480 0.0000 0.0000 0.0000
# 4 0.0000 0.0000 0.0000 45.7422 0.0000 0.0000
# 5 0.0000 0.0000 0.0000 0.0000 27.5705 0.0000
# 6 0.0000 0.0000 0.0000 0.0000 0.0000 -0.7916
#
#
#
# Elastic Compliance Matrix: (Units=1/GPa)
#
#
# Indices 1 2 3 4 5 6 
#
# 1 0.011286 -0.000904 -0.003213 0.000000 0.000000 0.000000
# 2 -0.000904 0.010683 -0.004354 0.000000 0.000000 0.000000
# 3 -0.003213 -0.004354 0.012775 0.000000 0.000000 0.000000
# 4 0.000000 0.000000 0.000000 0.021862 0.000000 0.000000
# 5 0.000000 0.000000 0.000000 0.000000 0.036271 0.000000
# 6 0.000000 0.000000 0.000000 0.000000 0.000000 -1.263262
#
#
# Mechanical properties :
#
#
# Convention : Reuss Voigt Hill
#
# Bulk Modulus (GPa) = 56.16524 56.73909 56.45216
# Shear Modulus (GPa) = -4.35726 28.92351 12.28313
#
# Velocity S-wave (km/s) = -1.29179 3.32821 2.16890
# Velocity P-wave (km/s) = 4.39145 6.04143 5.28128
#
# Compressibility (1/GPa) = 0.01780461
#
# Stress axis : x y z
#
# Youngs Moduli (GPa) = 88.60495 93.60558 78.27534
#
# Poissons Ratio (x) = 0.08459 0.25148
# Poissons Ratio (y) = 0.08007 0.34078
# Poissons Ratio (z) = 0.28466 0.40752
#
# Static dielectric constant tensor:
#      x y z
#    x 2.033010 0.000000 0.000000 
#    y 0.000000 2.043050 0.000000 
#    z 0.000000 0.000000 2.442400 
# 
# From -- ./inp_files/21784.got.cif
#   From: 2010.05.17/outbox.cif.g08.bks.cpg/sg20_11_cif.got.tgz:21784.got - 2010.06.03 22:52:26.
