data_PCOD9319553
_publ_section_title
;
Structure prediction by ZEFSAII (Michael W. Deem and Ramdas Pophale) SiO2 
 PCOD9319553
Probable space group: C 2 2 21
;
_chemical_formula_sum "Si O2"
_cell_formula_units_Z 28
_cell_length_a 19.518341
_cell_length_b 4.851332
_cell_length_c 10.959138
_cell_angle_alpha 90.000000
_cell_angle_beta 90.000000
_cell_angle_gamma 90.000000
_cell_volume 1037.720254
_symmetry_space_group_name_H-M "C 2 2 21"
_symmetry_group_IT_number 20
_symmetry_cell_setting 'orthorhombic'
loop_
_space_group_symop_operation_xyz
x,y,z
-x,-y,1/2+z
x,-y,-z
-x,y,1/2-z
1/2+x,1/2+y,z
1/2-x,1/2-y,1/2+z
1/2+x,1/2-y,-z
1/2-x,1/2+y,1/2-z
loop_
_atom_site_type_symbol
_atom_site_label
_atom_site_fract_x
_atom_site_fract_y
_atom_site_fract_z
Si Si1 0.318704 0.500000 0.000000
Si Si2 0.584880 0.812476 0.880812
Si Si3 0.730640 0.382743 0.169075
Si Si4 0.067005 0.310192 0.618768
O O1 0.272964 0.261938 0.939925
O O2 0.372499 0.594772 0.897057
O O3 0.651474 0.624360 0.870192
O O4 0.580130 0.961917 0.747843
O O5 0.509091 0.680465 0.884373
O O6 0.591886 0.000000 0.000000
O O7 0.754081 0.678697 0.216217
O O8 0.071216 0.500000 0.500000
#
# Coordination Sequence:
#
# PCOD9319553 Si02
#       4
#     4   8   8   8
#     4  12  24  42  74 106 146 200 250 316 374 452
#     4  10  21  45  69 107 142 192 248 305 368 448
#     4  12  26  46  74 109 152 195 251 312 380 447
#     4  10  22  44  70 100 149 191 250 302 381 439
#
# _framework density 26.982220000000002
#
# number of rings (size 3 to 8) (size 9 to 14) (size 15 to 20)
#    0.000    1.143    4.286    1.714    0.000    0.000 
#   10.286    5.714    0.000    0.000    0.000    0.000 
#    0.000    0.000    0.000    0.000    0.000    0.000 
#
# Total GULP energy -78429.940698 kJ/mol
# GULP energy per Si atom -5602.138621 kJ/mol
# Density = 2.692081 g / cm^3
# Si number density = 26.982220 Si / 1000 Ang^3
#
#
#
# Elastic Constant Matrix: (Units=GPa)
#
#
# Indices 1 2 3 4 5 6 
#
# 1 237.3854 40.4941 30.5215 0.0000 0.0000 0.0000
# 2 40.4941 67.4928 30.2238 0.0000 0.0000 0.0000
# 3 30.5215 30.2238 223.6545 0.0000 0.0000 0.0000
# 4 0.0000 0.0000 0.0000 51.1840 0.0000 0.0000
# 5 0.0000 0.0000 0.0000 0.0000 41.0170 0.0000
# 6 0.0000 0.0000 0.0000 0.0000 0.0000 -4.0214
#
#
#
# Elastic Compliance Matrix: (Units=1/GPa)
#
#
# Indices 1 2 3 4 5 6 
#
# 1 0.004709 -0.002701 -0.000278 0.000000 0.000000 0.000000
# 2 -0.002701 0.017320 -0.001972 0.000000 0.000000 0.000000
# 3 -0.000278 -0.001972 0.004776 0.000000 0.000000 0.000000
# 4 0.000000 0.000000 0.000000 0.019537 0.000000 0.000000
# 5 0.000000 0.000000 0.000000 0.000000 0.024380 0.000000
# 6 0.000000 0.000000 0.000000 0.000000 0.000000 -0.248671
#
#
# Mechanical properties :
#
#
# Convention : Reuss Voigt Hill
#
# Bulk Modulus (GPa) = 59.15963 81.22349 70.19156
# Shear Modulus (GPa) = -30.78567 46.12214 7.66824
#
# Velocity S-wave (km/s) = -3.38148 4.13892 1.68764
# Velocity P-wave (km/s) = 2.59368 7.28071 5.46516
#
# Compressibility (1/GPa) = 0.01690342
#
# Stress axis : x y z
#
# Youngs Moduli (GPa) = 212.35951 57.73681 209.39987
#
# Poissons Ratio (x) = 0.15595 0.05813
# Poissons Ratio (y) = 0.57358 0.41293
# Poissons Ratio (z) = 0.05896 0.11385
#
# Static dielectric constant tensor:
#      x y z
#    x 2.071980 0.000000 0.000000 
#    y 0.000000 2.054020 0.000000 
#    z 0.000000 0.000000 2.238690 
# 
# From -- ./inp_files/11824.got.cif
#   From: 2010.05.17/outbox.cif.g08.bks.cpg/sg20_6_cif.got.tgz:11824.got - 2010.06.03 22:52:26.
