data_PCOD9319219
_publ_section_title
;
Structure prediction by ZEFSAII (Michael W. Deem and Ramdas Pophale) SiO2 
 PCOD9319219
Probable space group: C 2 2 21
;
_chemical_formula_sum "Si O2"
_cell_formula_units_Z 60
_cell_length_a 6.474982
_cell_length_b 20.216270
_cell_length_c 22.346476
_cell_angle_alpha 90.000000
_cell_angle_beta 90.000000
_cell_angle_gamma 90.000000
_cell_volume 2925.153359
_symmetry_space_group_name_H-M "C 2 2 21"
_symmetry_group_IT_number 20
_symmetry_cell_setting 'orthorhombic'
loop_
_space_group_symop_operation_xyz
x,y,z
-x,-y,1/2+z
x,-y,-z
-x,y,1/2-z
1/2+x,1/2+y,z
1/2-x,1/2-y,1/2+z
1/2+x,1/2-y,-z
1/2-x,1/2+y,1/2-z
loop_
_atom_site_type_symbol
_atom_site_label
_atom_site_fract_x
_atom_site_fract_y
_atom_site_fract_z
Si Si1 0.497238 0.329865 0.970845
Si Si2 0.664354 0.049224 0.165411
Si Si3 0.325769 0.196700 0.365639
Si Si4 0.500092 0.473322 0.562212
Si Si5 0.955922 0.688638 0.820212
Si Si6 0.203538 0.777297 0.416961
Si Si7 0.280851 0.049766 0.851832
Si Si8 0.000000 0.998350 0.250000
O O1 0.311770 0.317908 0.924240
O O2 0.589114 0.400332 0.951357
O O3 0.658386 0.270951 0.959022
O O4 0.405141 0.328707 0.037727
O O5 0.609457 0.126426 0.161952
O O6 0.814242 0.033074 0.109335
O O7 0.474054 0.998184 0.164563
O O8 0.813773 0.039970 0.222091
O O9 0.525414 0.235374 0.386323
O O10 0.183797 0.245234 0.325541
O O11 0.583458 0.500000 0.500000
O O12 0.323627 0.520691 0.588635
O O13 0.155558 0.697209 0.862678
O O14 0.000000 0.675338 0.750000
O O15 0.845978 0.625564 0.850321
O O16 0.103652 0.043689 0.801852
#
# Coordination Sequence:
#
# PCOD9319219 Si02
#       8
#     8   8   8   8   8   8   8   4
#     4  10  21  40  65  99 131 171 220 269 339 417
#     4  10  22  42  66  94 125 173 216 268 333 395
#     4  10  23  42  65  96 132 172 213 279 337 391
#     4  10  24  39  63  97 135 164 218 276 326 402
#     4  11  27  44  64 101 137 177 236 276 335 414
#     4  11  22  40  70  93 133 176 218 275 340 403
#     4  11  24  45  66  96 130 177 219 275 340 403
#     4  10  22  42  72  88 126 166 220 266 322 398
#
# _framework density 20.511745999999999
#
# number of rings (size 3 to 8) (size 9 to 14) (size 15 to 20)
#    0.000    1.600    1.333    2.000    4.667    4.267 
#    4.800    0.000    0.000    0.000    0.000    0.000 
#    0.000    0.000    0.000    0.000    0.000    0.000 
#
# Total GULP energy -167545.629068 kJ/mol
# GULP energy per Si atom -5584.854302 kJ/mol
# Density = 2.046506 g / cm^3
# Si number density = 20.511746 Si / 1000 Ang^3
#
#
#
# Elastic Constant Matrix: (Units=GPa)
#
#
# Indices 1 2 3 4 5 6 
#
# 1 53.4908 7.5481 14.5892 0.0000 0.0000 0.0000
# 2 7.5481 73.3803 18.3626 0.0000 0.0000 0.0000
# 3 14.5892 18.3626 84.5677 0.0000 0.0000 0.0000
# 4 0.0000 0.0000 0.0000 18.8822 0.0000 0.0000
# 5 0.0000 0.0000 0.0000 0.0000 15.5443 0.0000
# 6 0.0000 0.0000 0.0000 0.0000 0.0000 19.2018
#
#
#
# Elastic Compliance Matrix: (Units=1/GPa)
#
#
# Indices 1 2 3 4 5 6 
#
# 1 0.019725 -0.001245 -0.003132 0.000000 0.000000 0.000000
# 2 -0.001245 0.014489 -0.002931 0.000000 0.000000 0.000000
# 3 -0.003132 -0.002931 0.013002 0.000000 0.000000 0.000000
# 4 0.000000 0.000000 0.000000 0.052960 0.000000 0.000000
# 5 0.000000 0.000000 0.000000 0.000000 0.064332 0.000000
# 6 0.000000 0.000000 0.000000 0.000000 0.000000 0.052079
#
#
# Mechanical properties :
#
#
# Convention : Reuss Voigt Hill
#
# Bulk Modulus (GPa) = 30.67668 32.49319 31.58493
# Shear Modulus (GPa) = 20.65515 22.12158 21.38837
#
# Velocity S-wave (km/s) = 3.17676 3.28759 3.23265
# Velocity P-wave (km/s) = 5.33328 5.50333 5.41897
#
# Compressibility (1/GPa) = 0.03259805
#
# Stress axis : x y z
#
# Youngs Moduli (GPa) = 50.69747 69.01678 76.91280
#
# Poissons Ratio (x) = 0.08593 0.24093
# Poissons Ratio (y) = 0.06312 0.22546
# Poissons Ratio (z) = 0.15881 0.20231
#
# Static dielectric constant tensor:
#      x y z
#    x 1.712940 0.000000 0.000000 
#    y 0.000000 1.760140 0.000000 
#    z 0.000000 0.000000 1.729350 
# 
# From -- ./inp_files/28474.got.cif
#   From: 2010.05.17/outbox.cif.g08.bks.cpg/sg20_15_cif.got.tgz:28474.got - 2010.06.03 22:52:26.
