data_PCOD9319991
_publ_section_title
;
Structure prediction by ZEFSAII (Michael W. Deem and Ramdas Pophale) SiO2 
 PCOD9319991
Probable space group: C 2 2 21
;
_chemical_formula_sum "Si O2"
_cell_formula_units_Z 56
_cell_length_a 14.848044
_cell_length_b 13.717527
_cell_length_c 11.728123
_cell_angle_alpha 90.000000
_cell_angle_beta 90.000000
_cell_angle_gamma 90.000000
_cell_volume 2388.765849
_symmetry_space_group_name_H-M "C 2 2 21"
_symmetry_group_IT_number 20
_symmetry_cell_setting 'orthorhombic'
loop_
_space_group_symop_operation_xyz
x,y,z
-x,-y,1/2+z
x,-y,-z
-x,y,1/2-z
1/2+x,1/2+y,z
1/2-x,1/2-y,1/2+z
1/2+x,1/2-y,-z
1/2-x,1/2+y,1/2-z
loop_
_atom_site_type_symbol
_atom_site_label
_atom_site_fract_x
_atom_site_fract_y
_atom_site_fract_z
Si Si1 0.204792 0.280947 0.887471
Si Si2 0.500000 0.033667 0.750000
Si Si3 0.393924 0.191615 0.614426
Si Si4 0.041136 0.090516 0.132600
Si Si5 0.180981 0.427678 0.687122
Si Si6 0.202841 0.000000 0.000000
Si Si7 0.638041 0.608014 0.510032
Si Si8 0.282736 0.383496 0.236971
O O1 0.188459 0.333669 0.766883
O O2 0.199814 0.166233 0.858755
O O3 0.130331 0.309057 0.980826
O O4 0.299551 0.316671 0.940703
O O5 0.460564 0.106543 0.653792
O O6 0.579947 0.969079 0.697219
O O7 0.425855 0.298695 0.648581
O O8 0.301667 0.172457 0.681310
O O9 0.000000 0.052951 0.250000
O O10 0.123941 0.024861 0.094113
O O11 0.960195 0.100271 0.042602
O O12 0.221982 0.426154 0.559832
O O13 0.243327 0.509188 0.748432
O O14 0.681686 0.500000 0.500000
O O15 0.638985 0.627380 0.644795
#
# Coordination Sequence:
#
# PCOD9319991 Si02
#       8
#     8   4   8   8   8   4   8   8
#     4  11  23  43  71 100 139 185 235 303 372 435
#     4  10  24  44  70  94 128 194 238 296 356 446
#     4  10  22  42  68  95 133 180 240 289 364 437
#     4  12  24  43  67 101 142 188 240 297 367 441
#     4  11  24  44  67  97 142 179 242 296 363 438
#     4  12  26  40  66 104 144 186 236 310 378 434
#     4  11  22  42  70  99 137 184 231 286 356 436
#     4  10  22  41  69  98 128 180 233 286 351 427
#
# _framework density 23.443069000000001
#
# number of rings (size 3 to 8) (size 9 to 14) (size 15 to 20)
#    0.000    1.143    2.857    3.429    2.000    2.286 
#    2.571    1.429    0.000    0.000    0.000    0.000 
#    0.000    0.000    0.000    0.000    0.000    0.000 
#
# Total GULP energy -156331.621435 kJ/mol
# GULP energy per Si atom -5583.272194 kJ/mol
# Density = 2.338971 g / cm^3
# Si number density = 23.443069 Si / 1000 Ang^3
#
#
#
# Elastic Constant Matrix: (Units=GPa)
#
#
# Indices 1 2 3 4 5 6 
#
# 1 119.6061 14.0136 59.6783 0.0000 0.0000 0.0000
# 2 14.0136 63.1274 17.3693 0.0000 0.0000 0.0000
# 3 59.6783 17.3693 119.7799 0.0000 0.0000 0.0000
# 4 0.0000 0.0000 0.0000 38.8567 0.0000 0.0000
# 5 0.0000 0.0000 0.0000 0.0000 38.0516 0.0000
# 6 0.0000 0.0000 0.0000 0.0000 0.0000 -4.3059
#
#
#
# Elastic Compliance Matrix: (Units=1/GPa)
#
#
# Indices 1 2 3 4 5 6 
#
# 1 0.011186 -0.000989 -0.005430 0.000000 0.000000 0.000000
# 2 -0.000989 0.016587 -0.001912 0.000000 0.000000 0.000000
# 3 -0.005430 -0.001912 0.011331 0.000000 0.000000 0.000000
# 4 0.000000 0.000000 0.000000 0.025736 0.000000 0.000000
# 5 0.000000 0.000000 0.000000 0.000000 0.026280 0.000000
# 6 0.000000 0.000000 0.000000 0.000000 0.000000 -0.232240
#
#
# Mechanical properties :
#
#
# Convention : Reuss Voigt Hill
#
# Bulk Modulus (GPa) = 44.56080 53.84841 49.20461
# Shear Modulus (GPa) = -42.74346 28.61730 -7.06308
#
# Velocity S-wave (km/s) = -4.27463 3.49766 -1.73764
# Velocity P-wave (km/s) = 2.30520 6.27146 4.12416
#
# Compressibility (1/GPa) = 0.02244125
#
# Stress axis : x y z
#
# Youngs Moduli (GPa) = 89.39850 60.28908 88.25163
#
# Poissons Ratio (x) = 0.05964 0.47918
# Poissons Ratio (y) = 0.08843 0.16877
# Poissons Ratio (z) = 0.48541 0.11530
#
# Static dielectric constant tensor:
#      x y z
#    x 1.825680 0.000000 0.000000 
#    y 0.000000 1.928970 0.000000 
#    z 0.000000 0.000000 2.807470 
# 
# From -- ./inp_files/15193.got.cif
#   From: 2010.05.17/outbox.cif.g08.bks.cpg/sg20_8_cif.got.tgz:15193.got - 2010.06.03 22:52:26.
