data_PCOD9319639
_publ_section_title
;
Structure prediction by ZEFSAII (Michael W. Deem and Ramdas Pophale) SiO2 
 PCOD9319639
Probable space group: C 2 2 21
;
_chemical_formula_sum "Si O2"
_cell_formula_units_Z 64
_cell_length_a 16.758337
_cell_length_b 8.856635
_cell_length_c 18.858979
_cell_angle_alpha 90.000000
_cell_angle_beta 90.000000
_cell_angle_gamma 90.000000
_cell_volume 2799.096321
_symmetry_space_group_name_H-M "C 2 2 21"
_symmetry_group_IT_number 20
_symmetry_cell_setting 'orthorhombic'
loop_
_space_group_symop_operation_xyz
x,y,z
-x,-y,1/2+z
x,-y,-z
-x,y,1/2-z
1/2+x,1/2+y,z
1/2-x,1/2-y,1/2+z
1/2+x,1/2-y,-z
1/2-x,1/2+y,1/2-z
loop_
_atom_site_type_symbol
_atom_site_label
_atom_site_fract_x
_atom_site_fract_y
_atom_site_fract_z
Si Si1 0.217547 0.113225 0.437025
Si Si2 0.980013 0.641580 0.834972
Si Si3 0.358025 0.015009 0.627477
Si Si4 0.051044 0.040428 0.415499
Si Si5 0.307648 0.097969 0.884976
Si Si6 0.564190 0.545873 0.808648
Si Si7 0.294706 0.668207 0.361005
Si Si8 0.305121 0.782450 0.724627
O O1 0.311753 0.107093 0.419452
O O2 0.144143 0.043207 0.389337
O O3 0.212089 0.000000 0.500000
O O4 0.187484 0.282395 0.448980
O O5 0.893531 0.570679 0.850908
O O6 0.000000 0.661397 0.750000
O O7 0.048656 0.532713 0.865305
O O8 0.979075 0.796936 0.882566
O O9 0.325774 0.178692 0.605101
O O10 0.321808 0.955620 0.702121
O O11 0.990057 0.926698 0.377683
O O12 0.047567 0.000000 0.500000
O O13 0.258296 0.200152 0.827672
O O14 0.254120 0.955885 0.904032
O O15 0.500000 0.499787 0.750000
O O16 0.630844 0.418707 0.824655
O O17 0.613235 0.691070 0.783455
O O18 0.233067 0.718009 0.300831
#
# Coordination Sequence:
#
# PCOD9319639 Si02
#       8
#     8   8   8   8   8   8   8   8
#     4   9  21  43  65  84 121 175 216 258 326 392
#     4  11  20  37  62  92 122 160 209 262 323 381
#     4  11  22  37  60  93 121 160 206 263 327 382
#     4  10  22  41  65  90 125 172 219 263 319 392
#     4   9  21  37  60  83 124 163 205 256 313 397
#     4  11  24  39  63  96 124 167 220 271 323 382
#     4  11  21  37  58  95 126 162 204 263 333 382
#     4  10  22  37  55  89 129 161 198 260 326 383
#
# _framework density 22.864522000000001
#
# number of rings (size 3 to 8) (size 9 to 14) (size 15 to 20)
#    0.000    1.750    1.250    3.375    7.000    1.500 
#    6.750    0.625    0.000    0.000    0.000    0.000 
#    0.000    0.000    0.000    0.000    0.000    0.000 
#
# Total GULP energy -178190.309997 kJ/mol
# GULP energy per Si atom -5568.447187 kJ/mol
# Density = 2.281248 g / cm^3
# Si number density = 22.864522 Si / 1000 Ang^3
#
#
#
# Elastic Constant Matrix: (Units=GPa)
#
#
# Indices 1 2 3 4 5 6 
#
# 1 182.6081 41.0885 31.3366 0.0000 0.0000 0.0000
# 2 41.0885 65.4376 3.1731 0.0000 0.0000 0.0000
# 3 31.3366 3.1731 53.4028 0.0000 0.0000 0.0000
# 4 0.0000 0.0000 0.0000 19.8555 0.0000 0.0000
# 5 0.0000 0.0000 0.0000 0.0000 20.4411 0.0000
# 6 0.0000 0.0000 0.0000 0.0000 0.0000 -31.4293
#
#
#
# Elastic Compliance Matrix: (Units=1/GPa)
#
#
# Indices 1 2 3 4 5 6 
#
# 1 0.007110 -0.004275 -0.003918 0.000000 0.000000 0.000000
# 2 -0.004275 0.017896 0.001445 0.000000 0.000000 0.000000
# 3 -0.003918 0.001445 0.020939 0.000000 0.000000 0.000000
# 4 0.000000 0.000000 0.000000 0.050364 0.000000 0.000000
# 5 0.000000 0.000000 0.000000 0.000000 0.048921 0.000000
# 6 0.000000 0.000000 0.000000 0.000000 0.000000 -0.031817
#
#
# Mechanical properties :
#
#
# Convention : Reuss Voigt Hill
#
# Bulk Modulus (GPa) = 30.81742 50.29388 40.55565
# Shear Modulus (GPa) = 36.30417 16.83015 26.56716
#
# Velocity S-wave (km/s) = 3.98904 2.71603 3.41242
# Velocity P-wave (km/s) = 5.89271 5.64623 5.77079
#
# Compressibility (1/GPa) = 0.03244918
#
# Stress axis : x y z
#
# Youngs Moduli (GPa) = 140.63761 55.87921 47.75762
#
# Poissons Ratio (x) = 0.23887 0.18713
# Poissons Ratio (y) = 0.60118 -0.06901
# Poissons Ratio (z) = 0.55108 -0.08075
#
# Static dielectric constant tensor:
#      x y z
#    x 1.872550 0.000000 0.000000 
#    y 0.000000 1.916840 0.000000 
#    z 0.000000 0.000000 2.038430 
# 
# From -- ./inp_files/27799.got.cif
#   From: 2010.05.17/outbox.cif.g08.bks.cpg/sg20_14_cif.got.tgz:27799.got - 2010.06.03 22:52:26.
