data_PCOD9319581
_publ_section_title
;
Structure prediction by ZEFSAII (Michael W. Deem and Ramdas Pophale) SiO2 
 PCOD9319581
Probable space group: C 2 2 21
;
_chemical_formula_sum "Si O2"
_cell_formula_units_Z 52
_cell_length_a 15.964884
_cell_length_b 18.610155
_cell_length_c 7.271437
_cell_angle_alpha 90.000000
_cell_angle_beta 90.000000
_cell_angle_gamma 90.000000
_cell_volume 2160.409127
_symmetry_space_group_name_H-M "C 2 2 21"
_symmetry_group_IT_number 20
_symmetry_cell_setting 'orthorhombic'
loop_
_space_group_symop_operation_xyz
x,y,z
-x,-y,1/2+z
x,-y,-z
-x,y,1/2-z
1/2+x,1/2+y,z
1/2-x,1/2-y,1/2+z
1/2+x,1/2-y,-z
1/2-x,1/2+y,1/2-z
loop_
_atom_site_type_symbol
_atom_site_label
_atom_site_fract_x
_atom_site_fract_y
_atom_site_fract_z
Si Si1 0.372599 0.397007 0.360807
Si Si2 0.017008 0.233144 0.969412
Si Si3 0.000000 0.019452 0.250000
Si Si4 0.124994 0.136074 0.434344
Si Si5 0.807658 0.500000 0.500000
Si Si6 0.962192 0.395041 0.537260
Si Si7 0.250334 0.569686 0.318118
Si Si8 0.904378 0.500000 0.000000
O O1 0.416095 0.331264 0.472778
O O2 0.437949 0.462073 0.344314
O O3 0.298842 0.421709 0.492915
O O4 0.355721 0.372518 0.151539
O O5 0.000000 0.237002 0.750000
O O6 0.043669 0.312709 0.021613
O O7 0.933436 0.206640 0.073632
O O8 0.063572 0.071655 0.362299
O O9 0.209020 0.131855 0.311463
O O10 0.745325 0.495606 0.671932
O O11 0.872095 0.433292 0.509104
O O12 0.030703 0.441153 0.425807
O O13 0.000000 0.398471 0.750000
O O14 0.156837 0.551522 0.384485
#
# Coordination Sequence:
#
# PCOD9319581 Si02
#       8
#     8   8   4   8   4   8   8   4
#     4  11  24  42  66 103 147 197 242 291 367 426
#     4   9  20  43  73 104 141 191 253 293 357 447
#     4  12  22  38  68 102 142 196 260 296 334 436
#     4  11  24  39  66 104 147 198 235 292 362 438
#     4  11  26  46  72 111 140 186 250 313 380 428
#     4  10  21  47  84 102 137 187 256 322 358 438
#     4  12  27  42  63 103 152 180 231 310 369 442
#     4  11  24  44  74 109 136 182 244 307 376 420
#
# _framework density 24.069513000000001
#
# number of rings (size 3 to 8) (size 9 to 14) (size 15 to 20)
#    0.000    1.231    3.846    2.308    6.462    0.000 
#    2.769    6.154    0.000    0.000    0.000    0.000 
#    0.000    0.000    0.000    0.000    0.000    0.000 
#
# Total GULP energy -144952.814129 kJ/mol
# GULP energy per Si atom -5575.108236 kJ/mol
# Density = 2.401473 g / cm^3
# Si number density = 24.069513 Si / 1000 Ang^3
#
#
#
# Elastic Constant Matrix: (Units=GPa)
#
#
# Indices 1 2 3 4 5 6 
#
# 1 99.3222 47.7794 54.4312 0.0000 0.0000 0.0000
# 2 47.7794 169.1389 28.2476 0.0000 0.0000 0.0000
# 3 54.4312 28.2476 140.0404 0.0000 0.0000 0.0000
# 4 0.0000 0.0000 0.0000 10.5457 0.0000 0.0000
# 5 0.0000 0.0000 0.0000 0.0000 27.9053 0.0000
# 6 0.0000 0.0000 0.0000 0.0000 0.0000 8.3397
#
#
#
# Elastic Compliance Matrix: (Units=1/GPa)
#
#
# Indices 1 2 3 4 5 6 
#
# 1 0.014310 -0.003222 -0.004912 0.000000 0.000000 0.000000
# 2 -0.003222 0.006844 -0.000128 0.000000 0.000000 0.000000
# 3 -0.004912 -0.000128 0.009076 0.000000 0.000000 0.000000
# 4 0.000000 0.000000 0.000000 0.094825 0.000000 0.000000
# 5 0.000000 0.000000 0.000000 0.000000 0.035835 0.000000
# 6 0.000000 0.000000 0.000000 0.000000 0.000000 0.119909
#
#
# Mechanical properties :
#
#
# Convention : Reuss Voigt Hill
#
# Bulk Modulus (GPa) = 72.96469 74.37978 73.67224
# Shear Modulus (GPa) = 16.56218 27.89436 22.22827
#
# Velocity S-wave (km/s) = 2.62601 3.40797 3.04222
# Velocity P-wave (km/s) = 6.29083 6.81578 6.55856
#
# Compressibility (1/GPa) = 0.01370526
#
# Stress axis : x y z
#
# Youngs Moduli (GPa) = 69.87992 146.11584 110.18148
#
# Poissons Ratio (x) = 0.47079 0.54124
# Poissons Ratio (y) = 0.22516 0.01412
# Poissons Ratio (z) = 0.34327 0.01872
#
# Static dielectric constant tensor:
#      x y z
#    x 1.921410 0.000000 0.000000 
#    y 0.000000 1.965220 0.000000 
#    z 0.000000 0.000000 1.978400 
# 
# From -- ./inp_files/9565.got.cif
#   From: 2010.05.17/outbox.cif.g08.bks.cpg/sg20_5_cif.got.tgz:9565.got - 2010.06.03 22:52:26.
