data_PCOD9319416
_publ_section_title
;
Structure prediction by ZEFSAII (Michael W. Deem and Ramdas Pophale) SiO2 
 PCOD9319416
Probable space group: C 2 2 21
;
_chemical_formula_sum "Si O2"
_cell_formula_units_Z 44
_cell_length_a 8.571522
_cell_length_b 16.694818
_cell_length_c 14.257034
_cell_angle_alpha 90.000000
_cell_angle_beta 90.000000
_cell_angle_gamma 90.000000
_cell_volume 2040.181562
_symmetry_space_group_name_H-M "C 2 2 21"
_symmetry_group_IT_number 20
_symmetry_cell_setting 'orthorhombic'
loop_
_space_group_symop_operation_xyz
x,y,z
-x,-y,1/2+z
x,-y,-z
-x,y,1/2-z
1/2+x,1/2+y,z
1/2-x,1/2-y,1/2+z
1/2+x,1/2-y,-z
1/2-x,1/2+y,1/2-z
loop_
_atom_site_type_symbol
_atom_site_label
_atom_site_fract_x
_atom_site_fract_y
_atom_site_fract_z
Si Si1 0.697213 0.671381 0.404539
Si Si2 0.852672 0.111073 0.348276
Si Si3 0.841215 0.530188 0.307036
Si Si4 0.091701 0.000000 0.000000
Si Si5 0.334180 0.394378 0.103706
Si Si6 0.174096 0.244923 0.744633
O O1 0.532758 0.637334 0.364155
O O2 0.828074 0.607471 0.373489
O O3 0.687680 0.666011 0.516014
O O4 0.743798 0.750634 0.346813
O O5 0.797360 0.047520 0.268982
O O6 0.768242 0.192876 0.319951
O O7 0.811797 0.066244 0.444519
O O8 0.804821 0.454993 0.372535
O O9 0.000000 0.523215 0.250000
O O10 0.977668 0.952045 0.072369
O O11 0.343990 0.340294 0.195802
O O12 0.000000 0.277502 0.750000
#
# Coordination Sequence:
#
# PCOD9319416 Si02
#       6
#     8   8   8   4   8   8
#     4  10  21  43  68  89 135 179 222 276 342 396
#     4  10  21  42  67  91 133 174 229 269 336 400
#     4  11  21  38  64  99 132 175 221 282 340 392
#     4  10  22  42  74 100 120 188 236 276 322 408
#     4  11  23  42  68  96 133 181 230 279 333 408
#     4  11  25  40  65 100 139 172 217 284 349 396
#
# _framework density 21.566707000000001
#
# number of rings (size 3 to 8) (size 9 to 14) (size 15 to 20)
#    0.000    1.455    3.636    4.364    2.545    4.364 
#    6.545    0.000    0.000    0.000    0.000    0.000 
#    0.000    0.000    0.000    0.000    0.000    0.000 
#
# Total GULP energy -122609.747144 kJ/mol
# GULP energy per Si atom -5573.170325 kJ/mol
# Density = 2.151762 g / cm^3
# Si number density = 21.566707 Si / 1000 Ang^3
#
#
#
# Elastic Constant Matrix: (Units=GPa)
#
#
# Indices 1 2 3 4 5 6 
#
# 1 49.3016 -1.0844 11.6147 0.0000 0.0000 0.0000
# 2 -1.0844 67.2961 18.3423 0.0000 0.0000 0.0000
# 3 11.6147 18.3423 55.5566 0.0000 0.0000 0.0000
# 4 0.0000 0.0000 0.0000 52.3463 0.0000 0.0000
# 5 0.0000 0.0000 0.0000 0.0000 27.9144 0.0000
# 6 0.0000 0.0000 0.0000 0.0000 0.0000 6.4148
#
#
#
# Elastic Compliance Matrix: (Units=1/GPa)
#
#
# Indices 1 2 3 4 5 6 
#
# 1 0.021515 0.001728 -0.005069 0.000000 0.000000 0.000000
# 2 0.001728 0.016468 -0.005798 0.000000 0.000000 0.000000
# 3 -0.005069 -0.005798 0.020974 0.000000 0.000000 0.000000
# 4 0.000000 0.000000 0.000000 0.019104 0.000000 0.000000
# 5 0.000000 0.000000 0.000000 0.000000 0.035824 0.000000
# 6 0.000000 0.000000 0.000000 0.000000 0.000000 0.155889
#
#
# Mechanical properties :
#
#
# Convention : Reuss Voigt Hill
#
# Bulk Modulus (GPa) = 24.58229 25.54436 25.06333
# Shear Modulus (GPa) = 16.57768 26.88722 21.73245
#
# Velocity S-wave (km/s) = 2.77550 3.53469 3.17785
# Velocity P-wave (km/s) = 4.65770 5.34124 5.01114
#
# Compressibility (1/GPa) = 0.04067969
#
# Stress axis : x y z
#
# Youngs Moduli (GPa) = 46.47828 60.72403 47.67889
#
# Poissons Ratio (x) = -0.10494 0.24167
# Poissons Ratio (y) = -0.08032 0.27646
# Poissons Ratio (z) = 0.23558 0.35209
#
# Static dielectric constant tensor:
#      x y z
#    x 1.797340 0.000000 0.000000 
#    y 0.000000 1.839700 0.000000 
#    z 0.000000 0.000000 1.863920 
# 
# From -- ./inp_files/18782.got.cif
#   From: 2010.05.17/outbox.cif.g08.bks.cpg/sg20_10_cif.got.tgz:18782.got - 2010.06.03 22:52:26.
