data_PCOD9319211
_publ_section_title
;
Structure prediction by ZEFSAII (Michael W. Deem and Ramdas Pophale) SiO2 
 PCOD9319211
Probable space group: C 2 2 21
;
_chemical_formula_sum "Si O2"
_cell_formula_units_Z 32
_cell_length_a 4.920318
_cell_length_b 20.341714
_cell_length_c 13.565311
_cell_angle_alpha 90.000000
_cell_angle_beta 90.000000
_cell_angle_gamma 90.000000
_cell_volume 1357.720799
_symmetry_space_group_name_H-M "C 2 2 21"
_symmetry_group_IT_number 20
_symmetry_cell_setting 'orthorhombic'
loop_
_space_group_symop_operation_xyz
x,y,z
-x,-y,1/2+z
x,-y,-z
-x,y,1/2-z
1/2+x,1/2+y,z
1/2-x,1/2-y,1/2+z
1/2+x,1/2-y,-z
1/2-x,1/2+y,1/2-z
loop_
_atom_site_type_symbol
_atom_site_label
_atom_site_fract_x
_atom_site_fract_y
_atom_site_fract_z
Si Si1 0.494654 0.999487 0.132048
Si Si2 0.250033 0.371475 0.819277
Si Si3 0.993545 0.915730 0.130890
Si Si4 0.963561 0.793261 0.510258
O O1 0.500000 0.999782 0.250000
O O2 0.613232 0.071533 0.113483
O O3 0.802050 0.975300 0.394945
O O4 0.699203 0.942328 0.102577
O O5 0.500000 0.397636 0.750000
O O6 0.396084 0.320053 0.890352
O O7 0.000000 0.347834 0.750000
O O8 0.000000 0.904227 0.250000
O O9 0.064923 0.851660 0.068707
O O10 0.173112 0.738946 0.469635
#
# Coordination Sequence:
#
# PCOD9319211 Si02
#       4
#     8   8   8   8
#     4   9  18  37  65  95 124 157 207 267 337 403
#     4  11  23  43  69  98 135 177 221 283 348 400
#     4  10  21  40  65  93 126 164 207 270 335 388
#     4  12  27  44  63  96 135 180 237 273 316 408
#
# _framework density 23.568909000000001
#
# number of rings (size 3 to 8) (size 9 to 14) (size 15 to 20)
#    0.000    1.500    0.000    6.750    0.000    4.000 
#    0.000    7.500    0.000    0.000    0.000    0.000 
#    0.000    0.000    0.000    0.000    0.000    0.000 
#
# Total GULP energy -89477.710960 kJ/mol
# GULP energy per Si atom -5592.356935 kJ/mol
# Density = 2.351527 g / cm^3
# Si number density = 23.568909 Si / 1000 Ang^3
#
#
#
# Elastic Constant Matrix: (Units=GPa)
#
#
# Indices 1 2 3 4 5 6 
#
# 1 93.9913 -9.6093 20.0737 0.0000 0.0000 0.0000
# 2 -9.6093 45.9394 15.1024 0.0000 0.0000 0.0000
# 3 20.0737 15.1024 126.2745 0.0000 0.0000 0.0000
# 4 0.0000 0.0000 0.0000 38.1304 0.0000 0.0000
# 5 0.0000 0.0000 0.0000 0.0000 10.0307 0.0000
# 6 0.0000 0.0000 0.0000 0.0000 0.0000 56.1220
#
#
#
# Elastic Compliance Matrix: (Units=1/GPa)
#
#
# Indices 1 2 3 4 5 6 
#
# 1 0.011424 0.003109 -0.002188 0.000000 0.000000 0.000000
# 2 0.003109 0.023505 -0.003305 0.000000 0.000000 0.000000
# 3 -0.002188 -0.003305 0.008662 0.000000 0.000000 0.000000
# 4 0.000000 0.000000 0.000000 0.026226 0.000000 0.000000
# 5 0.000000 0.000000 0.000000 0.000000 0.099694 0.000000
# 6 0.000000 0.000000 0.000000 0.000000 0.000000 0.017818
#
#
# Mechanical properties :
#
#
# Convention : Reuss Voigt Hill
#
# Bulk Modulus (GPa) = 25.75807 35.25986 30.50896
# Shear Modulus (GPa) = 24.38556 36.89916 30.64236
#
# Velocity S-wave (km/s) = 3.22009 3.96104 3.60963
# Velocity P-wave (km/s) = 4.97773 5.99271 5.50865
#
# Compressibility (1/GPa) = 0.03882278
#
# Stress axis : x y z
#
# Youngs Moduli (GPa) = 87.53188 42.54460 115.44148
#
# Poissons Ratio (x) = -0.13227 0.25258
# Poissons Ratio (y) = -0.27213 0.38158
# Poissons Ratio (z) = 0.19152 0.14063
#
# Static dielectric constant tensor:
#      x y z
#    x 1.851070 0.000000 0.000000 
#    y 0.000000 1.901440 0.000000 
#    z 0.000000 0.000000 1.377900 
# 
# From -- ./inp_files/11996.got.cif
#   From: 2010.05.17/outbox.cif.g08.bks.cpg/sg20_6_cif.got.tgz:11996.got - 2010.06.03 22:52:26.
