data_PCOD9319033
_publ_section_title
;
Structure prediction by ZEFSAII (Michael W. Deem and Ramdas Pophale) SiO2 
 PCOD9319033
Probable space group: C 2 2 21
;
_chemical_formula_sum "Si O2"
_cell_formula_units_Z 40
_cell_length_a 14.148337
_cell_length_b 9.674477
_cell_length_c 14.603813
_cell_angle_alpha 90.000000
_cell_angle_beta 90.000000
_cell_angle_gamma 90.000000
_cell_volume 1998.937224
_symmetry_space_group_name_H-M "C 2 2 21"
_symmetry_group_IT_number 20
_symmetry_cell_setting 'orthorhombic'
loop_
_space_group_symop_operation_xyz
x,y,z
-x,-y,1/2+z
x,-y,-z
-x,y,1/2-z
1/2+x,1/2+y,z
1/2-x,1/2-y,1/2+z
1/2+x,1/2-y,-z
1/2-x,1/2+y,1/2-z
loop_
_atom_site_type_symbol
_atom_site_label
_atom_site_fract_x
_atom_site_fract_y
_atom_site_fract_z
Si Si1 0.090204 0.011125 0.809123
Si Si2 0.572607 0.980582 0.605014
Si Si3 0.412030 0.203394 0.622475
Si Si4 0.605938 0.211260 0.089651
Si Si5 0.791759 0.489934 0.726539
O O1 0.108791 0.129375 0.883550
O O2 0.181604 0.999247 0.744773
O O3 0.000000 0.053145 0.750000
O O4 0.072335 0.861742 0.853116
O O5 0.497533 0.854968 0.608949
O O6 0.604873 0.000000 0.500000
O O7 0.508282 0.114018 0.630609
O O8 0.655128 0.960837 0.677568
O O9 0.377942 0.188744 0.517762
O O10 0.335120 0.132262 0.687637
O O11 0.677900 0.126067 0.153236
#
# Coordination Sequence:
#
# PCOD9319033 Si02
#       5
#     8   8   8   8   8
#     4  12  24  38  55  85 122 156 189 236 291 339
#     4   9  19  37  63  87 111 148 196 241 284 338
#     4  10  21  39  61  87 116 149 190 239 289 343
#     4  10  21  39  61  87 116 149 190 239 289 343
#     4  11  21  39  63  84 112 156 197 235 279 343
#
# _framework density 20.010634
#
# number of rings (size 3 to 8) (size 9 to 14) (size 15 to 20)
#    0.000    1.600    0.000    8.400    0.000    1.600 
#    0.000    8.000    0.000    0.000    0.000    0.000 
#    0.000    0.000    0.000    0.000    0.000    0.000 
#
# Total GULP energy -111861.336958 kJ/mol
# GULP energy per Si atom -5593.066848 kJ/mol
# Density = 1.996509 g / cm^3
# Si number density = 20.010634 Si / 1000 Ang^3
#
#
#
# Elastic Constant Matrix: (Units=GPa)
#
#
# Indices 1 2 3 4 5 6 
#
# 1 72.2273 -36.7173 32.1157 0.0000 0.0000 0.0000
# 2 -36.7173 71.6870 -15.3428 0.0000 0.0000 0.0000
# 3 32.1157 -15.3428 88.2309 0.0000 0.0000 0.0000
# 4 0.0000 0.0000 0.0000 13.6992 0.0000 0.0000
# 5 0.0000 0.0000 0.0000 0.0000 4.9903 0.0000
# 6 0.0000 0.0000 0.0000 0.0000 0.0000 -0.6103
#
#
#
# Elastic Compliance Matrix: (Units=1/GPa)
#
#
# Indices 1 2 3 4 5 6 
#
# 1 0.021508 0.009702 -0.006142 0.000000 0.000000 0.000000
# 2 0.009702 0.018865 -0.000251 0.000000 0.000000 0.000000
# 3 -0.006142 -0.000251 0.013526 0.000000 0.000000 0.000000
# 4 0.000000 0.000000 0.000000 0.072997 0.000000 0.000000
# 5 0.000000 0.000000 0.000000 0.000000 0.200388 0.000000
# 6 0.000000 0.000000 0.000000 0.000000 0.000000 -1.638667
#
#
# Mechanical properties :
#
#
# Convention : Reuss Voigt Hill
#
# Bulk Modulus (GPa) = 16.52430 21.36180 18.94305
# Shear Modulus (GPa) = -3.85259 20.42183 8.28462
#
# Velocity S-wave (km/s) = -1.38905 3.19807 2.03693
# Velocity P-wave (km/s) = 2.38811 4.93308 3.87546
#
# Compressibility (1/GPa) = 0.06051695
#
# Stress axis : x y z
#
# Youngs Moduli (GPa) = 46.49421 53.00837 73.93245
#
# Poissons Ratio (x) = -0.51427 0.45408
# Poissons Ratio (y) = -0.45107 0.01855
# Poissons Ratio (z) = 0.28556 0.01330
#
# Static dielectric constant tensor:
#      x y z
#    x 1.676160 0.000000 0.000000 
#    y 0.000000 1.710420 0.000000 
#    z 0.000000 0.000000 1.701880 
# 
# From -- ./inp_files/18524.got.cif
#   From: 2010.05.17/outbox.cif.g08.bks.cpg/sg20_10_cif.got.tgz:18524.got - 2010.06.03 22:52:26.
