data_PCOD9319210
_publ_section_title
;
Structure prediction by ZEFSAII (Michael W. Deem and Ramdas Pophale) SiO2 
 PCOD9319210
Probable space group: C 2 2 21
;
_chemical_formula_sum "Si O2"
_cell_formula_units_Z 48
_cell_length_a 7.694986
_cell_length_b 15.164513
_cell_length_c 18.867397
_cell_angle_alpha 90.000000
_cell_angle_beta 90.000000
_cell_angle_gamma 90.000000
_cell_volume 2201.650050
_symmetry_space_group_name_H-M "C 2 2 21"
_symmetry_group_IT_number 20
_symmetry_cell_setting 'orthorhombic'
loop_
_space_group_symop_operation_xyz
x,y,z
-x,-y,1/2+z
x,-y,-z
-x,y,1/2-z
1/2+x,1/2+y,z
1/2-x,1/2-y,1/2+z
1/2+x,1/2-y,-z
1/2-x,1/2+y,1/2-z
loop_
_atom_site_type_symbol
_atom_site_label
_atom_site_fract_x
_atom_site_fract_y
_atom_site_fract_z
Si Si1 0.772552 0.591498 0.881242
Si Si2 0.634068 0.573423 0.183367
Si Si3 0.500000 0.127342 0.250000
Si Si4 0.069861 0.405613 0.014319
Si Si5 0.500000 0.852520 0.250000
Si Si6 0.918476 0.274828 0.615373
Si Si7 0.318802 0.241143 0.628605
O O1 0.630524 0.517791 0.860640
O O2 0.895964 0.597943 0.811593
O O3 0.699614 0.689536 0.895093
O O4 0.886005 0.567167 0.949621
O O5 0.500000 0.572921 0.250000
O O6 0.836567 0.582009 0.209918
O O7 0.605598 0.659111 0.132679
O O8 0.604039 0.184144 0.192483
O O9 0.119881 0.330141 0.071502
O O10 0.161587 0.500000 0.000000
O O11 0.089181 0.352312 0.941745
O O12 0.636914 0.795289 0.206197
O O13 0.116511 0.244955 0.615172
#
# Coordination Sequence:
#
# PCOD9319210 Si02
#       7
#     8   8   4   8   4   8   8
#     4  11  24  40  68 101 136 177 232 284 347 423
#     4  11  23  41  69 108 141 177 229 294 350 423
#     4  10  23  42  67 100 144 180 229 288 353 400
#     4  11  24  45  68  91 131 187 230 278 354 419
#     4  10  21  40  65  92 134 180 211 286 349 400
#     4  11  23  42  67  99 134 177 228 287 338 417
#     4  10  22  42  63  96 135 175 222 279 349 407
#
# _framework density 21.801831
#
# number of rings (size 3 to 8) (size 9 to 14) (size 15 to 20)
#    0.000    1.333    0.833    5.500    5.833    1.333 
#    0.000    0.833    0.000    0.000    0.000    0.000 
#    0.000    0.000    0.000    0.000    0.000    0.000 
#
# Total GULP energy -133738.238388 kJ/mol
# GULP energy per Si atom -5572.426599 kJ/mol
# Density = 2.175221 g / cm^3
# Si number density = 21.801831 Si / 1000 Ang^3
#
#
#
# Elastic Constant Matrix: (Units=GPa)
#
#
# Indices 1 2 3 4 5 6 
#
# 1 37.6750 37.1581 6.9127 0.0000 0.0000 0.0000
# 2 37.1581 158.1332 80.9065 0.0000 0.0000 0.0000
# 3 6.9127 80.9065 116.0550 0.0000 0.0000 0.0000
# 4 0.0000 0.0000 0.0000 25.4211 0.0000 0.0000
# 5 0.0000 0.0000 0.0000 0.0000 15.9050 0.0000
# 6 0.0000 0.0000 0.0000 0.0000 0.0000 23.8960
#
#
#
# Elastic Compliance Matrix: (Units=1/GPa)
#
#
# Indices 1 2 3 4 5 6 
#
# 1 0.037060 -0.011781 0.006006 0.000000 0.000000 0.000000
# 2 -0.011781 0.013575 -0.008762 0.000000 0.000000 0.000000
# 3 0.006006 -0.008762 0.014367 0.000000 0.000000 0.000000
# 4 0.000000 0.000000 0.000000 0.039337 0.000000 0.000000
# 5 0.000000 0.000000 0.000000 0.000000 0.062873 0.000000
# 6 0.000000 0.000000 0.000000 0.000000 0.000000 0.041848
#
#
# Mechanical properties :
#
#
# Convention : Reuss Voigt Hill
#
# Bulk Modulus (GPa) = 27.83377 62.42419 45.12898
# Shear Modulus (GPa) = 19.99105 25.50348 22.74726
#
# Velocity S-wave (km/s) = 3.03139 3.42392 3.23362
# Velocity P-wave (km/s) = 5.00469 6.65776 5.88951
#
# Compressibility (1/GPa) = 0.03592758
#
# Stress axis : x y z
#
# Youngs Moduli (GPa) = 26.98309 73.66479 69.60307
#
# Poissons Ratio (x) = 0.86785 -0.41801
# Poissons Ratio (y) = 0.31789 0.60986
# Poissons Ratio (z) = -0.16205 0.64545
#
# Static dielectric constant tensor:
#      x y z
#    x 1.823720 0.000000 0.000000 
#    y 0.000000 1.868850 0.000000 
#    z 0.000000 0.000000 1.764620 
# 
# From -- ./inp_files/23534.got.cif
#   From: 2010.05.17/outbox.cif.g08.bks.cpg/sg20_12_cif.got.tgz:23534.got - 2010.06.03 22:52:26.
