data_PCOD9319924
_publ_section_title
;
Structure prediction by ZEFSAII (Michael W. Deem and Ramdas Pophale) SiO2 
 PCOD9319924
Probable space group: C 2 2 21
;
_chemical_formula_sum "Si O2"
_cell_formula_units_Z 60
_cell_length_a 26.163571
_cell_length_b 12.288850
_cell_length_c 8.584457
_cell_angle_alpha 90.000000
_cell_angle_beta 90.000000
_cell_angle_gamma 90.000000
_cell_volume 2760.076327
_symmetry_space_group_name_H-M "C 2 2 21"
_symmetry_group_IT_number 20
_symmetry_cell_setting 'orthorhombic'
loop_
_space_group_symop_operation_xyz
x,y,z
-x,-y,1/2+z
x,-y,-z
-x,y,1/2-z
1/2+x,1/2+y,z
1/2-x,1/2-y,1/2+z
1/2+x,1/2-y,-z
1/2-x,1/2+y,1/2-z
loop_
_atom_site_type_symbol
_atom_site_label
_atom_site_fract_x
_atom_site_fract_y
_atom_site_fract_z
Si Si1 0.102579 0.125996 0.181167
Si Si2 0.277576 0.768824 0.621524
Si Si3 0.500000 0.713147 0.250000
Si Si4 0.126471 0.885620 0.178568
Si Si5 0.320118 0.952037 0.841893
Si Si6 0.417392 0.813355 0.815472
Si Si7 0.475622 0.871939 0.526191
Si Si8 0.681998 0.816528 0.218677
O O1 0.049075 0.136301 0.271912
O O2 0.136236 0.230932 0.220112
O O3 0.129773 0.011811 0.221039
O O4 0.098708 0.121770 0.991210
O O5 0.319391 0.675300 0.659351
O O6 0.286652 0.869722 0.739318
O O7 0.288967 0.805895 0.446338
O O8 0.221920 0.720752 0.649516
O O9 0.477020 0.796041 0.376742
O O10 0.096303 0.813286 0.304642
O O11 0.371269 0.884158 0.882882
O O12 0.334362 0.059392 0.743894
O O13 0.296109 0.000000 0.000000
O O14 0.427326 0.847651 0.635926
O O15 0.470568 0.839520 0.895342
O O16 0.476603 0.000000 0.500000
#
# Coordination Sequence:
#
# PCOD9319924 Si02
#       8
#     8   8   4   8   8   8   8   8
#     4  10  23  40  68  95 129 175 221 274 332 398
#     4  10  23  43  69  99 132 177 221 280 349 409
#     4  12  24  42  64 100 126 174 230 272 332 406
#     4   9  20  45  65  89 131 172 216 267 335 405
#     4  11  24  40  68  96 133 174 221 278 339 409
#     4  10  22  41  61  92 126 174 212 268 331 390
#     4  11  24  37  62  91 132 168 214 272 332 390
#     4  11  24  42  69 100 135 173 227 281 342 414
#
# _framework density 21.738530999999998
#
# number of rings (size 3 to 8) (size 9 to 14) (size 15 to 20)
#    0.000    1.600    1.333    2.400    7.467    1.067 
#    0.000    0.000    0.000    0.000    0.000    0.000 
#    0.000    0.000    0.000    0.000    0.000    0.000 
#
# Total GULP energy -167607.411534 kJ/mol
# GULP energy per Si atom -5586.913718 kJ/mol
# Density = 2.168905 g / cm^3
# Si number density = 21.738531 Si / 1000 Ang^3
#
#
#
# Elastic Constant Matrix: (Units=GPa)
#
#
# Indices 1 2 3 4 5 6 
#
# 1 50.9494 14.5834 2.6360 0.0000 0.0000 0.0000
# 2 14.5834 154.8343 16.8492 0.0000 0.0000 0.0000
# 3 2.6360 16.8492 38.4114 0.0000 0.0000 0.0000
# 4 0.0000 0.0000 0.0000 39.8242 0.0000 0.0000
# 5 0.0000 0.0000 0.0000 0.0000 30.0276 0.0000
# 6 0.0000 0.0000 0.0000 0.0000 0.0000 8.3225
#
#
#
# Elastic Compliance Matrix: (Units=1/GPa)
#
#
# Indices 1 2 3 4 5 6 
#
# 1 0.020183 -0.001838 -0.000579 0.000000 0.000000 0.000000
# 2 -0.001838 0.006950 -0.002922 0.000000 0.000000 0.000000
# 3 -0.000579 -0.002922 0.027356 0.000000 0.000000 0.000000
# 4 0.000000 0.000000 0.000000 0.025110 0.000000 0.000000
# 5 0.000000 0.000000 0.000000 0.000000 0.033303 0.000000
# 6 0.000000 0.000000 0.000000 0.000000 0.000000 0.120156
#
#
# Mechanical properties :
#
#
# Convention : Reuss Voigt Hill
#
# Bulk Modulus (GPa) = 22.82578 34.70361 28.76469
# Shear Modulus (GPa) = 19.35440 29.64330 24.49885
#
# Velocity S-wave (km/s) = 2.98707 3.69674 3.36069
# Velocity P-wave (km/s) = 4.73495 5.84978 5.32164
#
# Compressibility (1/GPa) = 0.04381012
#
# Stress axis : x y z
#
# Youngs Moduli (GPa) = 49.54577 143.89227 36.55568
#
# Poissons Ratio (x) = 0.26448 0.02116
# Poissons Ratio (y) = 0.09107 0.10683
# Poissons Ratio (z) = 0.02868 0.42050
#
# Static dielectric constant tensor:
#      x y z
#    x 1.700310 0.000000 0.000000 
#    y 0.000000 1.759800 0.000000 
#    z 0.000000 0.000000 1.905560 
# 
# From -- ./inp_files/11583.got.cif
#   From: 2010.05.17/outbox.cif.g08.bks.cpg/sg20_6_cif.got.tgz:11583.got - 2010.06.03 22:52:26.
