data_PCOD9319079
_publ_section_title
;
Structure prediction by ZEFSAII (Michael W. Deem and Ramdas Pophale) SiO2 
 PCOD9319079
Probable space group: C 2 2 21
;
_chemical_formula_sum "Si O2"
_cell_formula_units_Z 56
_cell_length_a 9.167605
_cell_length_b 19.954524
_cell_length_c 14.273687
_cell_angle_alpha 90.000000
_cell_angle_beta 90.000000
_cell_angle_gamma 90.000000
_cell_volume 2611.159700
_symmetry_space_group_name_H-M "C 2 2 21"
_symmetry_group_IT_number 20
_symmetry_cell_setting 'orthorhombic'
loop_
_space_group_symop_operation_xyz
x,y,z
-x,-y,1/2+z
x,-y,-z
-x,y,1/2-z
1/2+x,1/2+y,z
1/2-x,1/2-y,1/2+z
1/2+x,1/2-y,-z
1/2-x,1/2+y,1/2-z
loop_
_atom_site_type_symbol
_atom_site_label
_atom_site_fract_x
_atom_site_fract_y
_atom_site_fract_z
Si Si1 0.362831 0.847631 0.129861
Si Si2 0.033123 0.107433 0.637536
Si Si3 0.720090 0.513798 0.892353
Si Si4 0.647387 0.621886 0.195434
Si Si5 0.849300 0.197727 0.496687
Si Si6 0.825659 0.259036 0.750110
Si Si7 0.690512 0.174620 0.907667
O O1 0.310256 0.923304 0.148499
O O2 0.269331 0.792636 0.186859
O O3 0.534768 0.840030 0.138472
O O4 0.309632 0.830898 0.024278
O O5 0.201178 0.111699 0.604405
O O6 0.000000 0.117019 0.750000
O O7 0.947351 0.040055 0.611100
O O8 0.954726 0.164197 0.573919
O O9 0.726877 0.445661 0.835578
O O10 0.761024 0.500000 0.000000
O O11 0.500000 0.606419 0.250000
O O12 0.605418 0.664725 0.102049
O O13 0.752228 0.668705 0.256808
O O14 0.846398 0.278771 0.497675
O O15 0.783400 0.229309 0.850883
O O16 0.000000 0.262168 0.750000
#
# Coordination Sequence:
#
# PCOD9319079 Si02
#       7
#     8   8   8   8   8   8   8
#     4  11  22  39  66  95 132 187 230 284 348 417
#     4  11  22  40  69 100 131 185 240 289 349 426
#     4  11  22  45  70  92 145 192 238 288 360 423
#     4  11  23  43  70 100 139 184 236 292 355 421
#     4  10  21  39  64  97 143 182 229 294 356 409
#     4  11  23  41  65  98 135 168 224 289 349 413
#     4  11  21  36  63 100 132 172 230 283 345 411
#
# _framework density 21.44641
#
# number of rings (size 3 to 8) (size 9 to 14) (size 15 to 20)
#    0.000    1.143    2.857    7.286    0.000    1.714 
#    0.000    5.000    0.000    0.000    0.000    0.000 
#    0.000    0.000    0.000    0.000    0.000    0.000 
#
# Total GULP energy -156043.956897 kJ/mol
# GULP energy per Si atom -5572.998461 kJ/mol
# Density = 2.139760 g / cm^3
# Si number density = 21.446410 Si / 1000 Ang^3
#
#
#
# Elastic Constant Matrix: (Units=GPa)
#
#
# Indices 1 2 3 4 5 6 
#
# 1 162.4659 47.4906 15.7904 0.0000 0.0000 0.0000
# 2 47.4906 139.6915 18.5380 0.0000 0.0000 0.0000
# 3 15.7904 18.5380 65.9158 0.0000 0.0000 0.0000
# 4 0.0000 0.0000 0.0000 35.8009 0.0000 0.0000
# 5 0.0000 0.0000 0.0000 0.0000 17.6163 0.0000
# 6 0.0000 0.0000 0.0000 0.0000 0.0000 27.5541
#
#
#
# Elastic Compliance Matrix: (Units=1/GPa)
#
#
# Indices 1 2 3 4 5 6 
#
# 1 0.006901 -0.002209 -0.001032 0.000000 0.000000 0.000000
# 2 -0.002209 0.008143 -0.001761 0.000000 0.000000 0.000000
# 3 -0.001032 -0.001761 0.015913 0.000000 0.000000 0.000000
# 4 0.000000 0.000000 0.000000 0.027932 0.000000 0.000000
# 5 0.000000 0.000000 0.000000 0.000000 0.056766 0.000000
# 6 0.000000 0.000000 0.000000 0.000000 0.000000 0.036292
#
#
# Mechanical properties :
#
#
# Convention : Reuss Voigt Hill
#
# Bulk Modulus (GPa) = 47.72436 59.07902 53.40169
# Shear Modulus (GPa) = 29.59683 35.27785 32.43734
#
# Velocity S-wave (km/s) = 3.71891 4.06017 3.89329
# Velocity P-wave (km/s) = 6.38291 7.04181 6.72044
#
# Compressibility (1/GPa) = 0.02095366
#
# Stress axis : x y z
#
# Youngs Moduli (GPa) = 144.90195 122.79881 62.84042
#
# Poissons Ratio (x) = 0.27129 0.06484
# Poissons Ratio (y) = 0.32012 0.11066
# Poissons Ratio (z) = 0.14952 0.21625
#
# Static dielectric constant tensor:
#      x y z
#    x 1.851200 0.000000 0.000000 
#    y 0.000000 1.833470 0.000000 
#    z 0.000000 0.000000 1.998550 
# 
# From -- ./inp_files/19213.got.cif
#   From: 2010.05.17/outbox.cif.g08.bks.cpg/sg20_10_cif.got.tgz:19213.got - 2010.06.03 22:52:26.
