data_PCOD9319574
_publ_section_title
;
Structure prediction by ZEFSAII (Michael W. Deem and Ramdas Pophale) SiO2 
 PCOD9319574
Probable space group: C 2 2 21
;
_chemical_formula_sum "Si O2"
_cell_formula_units_Z 60
_cell_length_a 12.831983
_cell_length_b 16.520301
_cell_length_c 12.080195
_cell_angle_alpha 90.000000
_cell_angle_beta 90.000000
_cell_angle_gamma 90.000000
_cell_volume 2560.859054
_symmetry_space_group_name_H-M "C 2 2 21"
_symmetry_group_IT_number 20
_symmetry_cell_setting 'orthorhombic'
loop_
_space_group_symop_operation_xyz
x,y,z
-x,-y,1/2+z
x,-y,-z
-x,y,1/2-z
1/2+x,1/2+y,z
1/2-x,1/2-y,1/2+z
1/2+x,1/2-y,-z
1/2-x,1/2+y,1/2-z
loop_
_atom_site_type_symbol
_atom_site_label
_atom_site_fract_x
_atom_site_fract_y
_atom_site_fract_z
Si Si1 0.870936 0.354260 0.962550
Si Si2 0.605826 0.832292 0.945235
Si Si3 0.383337 0.034779 0.251082
Si Si4 0.540555 0.500000 0.500000
Si Si5 0.077375 0.875607 0.842696
Si Si6 0.802918 0.831588 0.356205
Si Si7 0.832328 0.972626 0.217062
Si Si8 0.269004 0.229340 0.627831
O O1 0.863881 0.423320 0.868402
O O2 0.840734 0.268139 0.907462
O O3 0.991499 0.347419 0.995975
O O4 0.783074 0.363853 0.056434
O O5 0.618463 0.894781 0.844410
O O6 0.625808 0.742369 0.896955
O O7 0.693001 0.837061 0.040403
O O8 0.500000 0.999991 0.250000
O O9 0.292559 0.973648 0.282287
O O10 0.474724 0.572691 0.442051
O O11 0.612662 0.533424 0.599386
O O12 0.150497 0.803821 0.880881
O O13 0.000000 0.840483 0.750000
O O14 0.139041 0.941646 0.770652
O O15 0.867961 0.904503 0.303357
O O16 0.738031 0.796634 0.253112
#
# Coordination Sequence:
#
# PCOD9319574 Si02
#       8
#     8   8   8   4   8   8   8   8
#     4  10  22  43  66  94 134 179 224 281 337 402
#     4  10  23  42  67  99 130 180 232 277 345 410
#     4  10  21  46  70  94 134 190 228 276 355 410
#     4  10  26  44  68 100 136 190 220 280 356 410
#     4  10  23  43  65  97 134 184 224 276 353 412
#     4  11  25  41  67 108 130 178 231 288 342 403
#     4  11  24  46  69 100 146 174 234 287 343 425
#     4  11  23  42  67  98 134 176 225 290 337 408
#
# _framework density 23.429638000000001
#
# number of rings (size 3 to 8) (size 9 to 14) (size 15 to 20)
#    0.000    1.600    2.667    0.000    7.467    1.600 
#    7.200    0.000    0.000    0.000    0.000    0.000 
#    0.000    0.000    0.000    0.000    0.000    0.000 
#
# Total GULP energy -167741.758905 kJ/mol
# GULP energy per Si atom -5591.391963 kJ/mol
# Density = 2.337631 g / cm^3
# Si number density = 23.429638 Si / 1000 Ang^3
#
#
#
# Elastic Constant Matrix: (Units=GPa)
#
#
# Indices 1 2 3 4 5 6 
#
# 1 38.0638 -12.5863 -9.3992 0.0000 0.0000 0.0000
# 2 -12.5863 35.6832 -9.1936 0.0000 0.0000 0.0000
# 3 -9.3992 -9.1936 87.6055 0.0000 0.0000 0.0000
# 4 0.0000 0.0000 0.0000 21.6752 0.0000 0.0000
# 5 0.0000 0.0000 0.0000 0.0000 20.2326 0.0000
# 6 0.0000 0.0000 0.0000 0.0000 0.0000 18.6494
#
#
#
# Elastic Compliance Matrix: (Units=1/GPa)
#
#
# Indices 1 2 3 4 5 6 
#
# 1 0.031497 0.012313 0.004671 0.000000 0.000000 0.000000
# 2 0.012313 0.033617 0.004849 0.000000 0.000000 0.000000
# 3 0.004671 0.004849 0.012425 0.000000 0.000000 0.000000
# 4 0.000000 0.000000 0.000000 0.046136 0.000000 0.000000
# 5 0.000000 0.000000 0.000000 0.000000 0.049425 0.000000
# 6 0.000000 0.000000 0.000000 0.000000 0.000000 0.053621
#
#
# Mechanical properties :
#
#
# Convention : Reuss Voigt Hill
#
# Bulk Modulus (GPa) = 8.25045 10.99939 9.62492
# Shear Modulus (GPa) = 22.37590 24.94690 23.66140
#
# Velocity S-wave (km/s) = 3.09370 3.26660 3.18133
# Velocity P-wave (km/s) = 4.03613 4.35114 4.19659
#
# Compressibility (1/GPa) = 0.12120555
#
# Stress axis : x y z
#
# Youngs Moduli (GPa) = 31.74937 29.74697 80.48379
#
# Poissons Ratio (x) = -0.36628 -0.37598
# Poissons Ratio (y) = -0.39094 -0.39026
# Poissons Ratio (z) = -0.14832 -0.14424
#
# Static dielectric constant tensor:
#      x y z
#    x 1.909130 0.000000 0.000000 
#    y 0.000000 1.909190 0.000000 
#    z 0.000000 0.000000 1.889760 
# 
# From -- ./inp_files/14372.got.cif
#   From: 2010.05.17/outbox.cif.g08.bks.cpg/sg20_8_cif.got.tgz:14372.got - 2010.06.03 22:52:26.
