data_PCOD9319083
_publ_section_title
;
Structure prediction by ZEFSAII (Michael W. Deem and Ramdas Pophale) SiO2 
 PCOD9319083
Probable space group: C 2 2 21
;
_chemical_formula_sum "Si O2"
_cell_formula_units_Z 64
_cell_length_a 9.336434
_cell_length_b 15.692831
_cell_length_c 23.129839
_cell_angle_alpha 90.000000
_cell_angle_beta 90.000000
_cell_angle_gamma 90.000000
_cell_volume 3388.870232
_symmetry_space_group_name_H-M "C 2 2 21"
_symmetry_group_IT_number 20
_symmetry_cell_setting 'orthorhombic'
loop_
_space_group_symop_operation_xyz
x,y,z
-x,-y,1/2+z
x,-y,-z
-x,y,1/2-z
1/2+x,1/2+y,z
1/2-x,1/2-y,1/2+z
1/2+x,1/2-y,-z
1/2-x,1/2+y,1/2-z
loop_
_atom_site_type_symbol
_atom_site_label
_atom_site_fract_x
_atom_site_fract_y
_atom_site_fract_z
Si Si1 0.825857 0.108682 0.384233
Si Si2 0.180718 0.305133 0.310973
Si Si3 0.270528 0.773117 0.566644
Si Si4 0.135361 0.274935 0.188477
Si Si5 0.361210 0.618418 0.878051
Si Si6 0.115076 0.047718 0.439517
Si Si7 0.609215 0.453647 0.196505
Si Si8 0.391888 0.781421 0.956456
O O1 0.879635 0.193241 0.352030
O O2 0.685871 0.144141 0.418431
O O3 0.950769 0.073689 0.425940
O O4 0.821594 0.035419 0.335147
O O5 0.247320 0.264832 0.368891
O O6 0.172205 0.245854 0.253764
O O7 0.264557 0.388322 0.290204
O O8 0.013374 0.324447 0.319078
O O9 0.203406 0.866643 0.564858
O O10 0.435929 0.783196 0.547154
O O11 0.180480 0.718049 0.519712
O O12 0.260369 0.335753 0.167227
O O13 0.320397 0.523301 0.896498
O O14 0.514777 0.600121 0.849734
O O15 0.360782 0.687081 0.929831
O O16 0.118741 0.000000 0.500000
O O17 0.500000 0.472985 0.250000
#
# Coordination Sequence:
#
# PCOD9319083 Si02
#       8
#     8   8   8   8   8   8   8   8
#     4  10  24  41  65  95 129 172 220 271 331 394
#     4  11  23  39  65  93 130 172 216 272 332 390
#     4  12  24  41  66  98 132 176 222 277 332 397
#     4  10  22  41  64  95 129 170 218 269 332 395
#     4  10  21  39  65  89 129 169 214 267 327 394
#     4  11  22  39  64  95 128 172 218 271 331 394
#     4  11  22  40  66  96 127 173 220 269 330 397
#     4  11  24  41  65  95 131 174 221 273 332 398
#
# _framework density 18.885349999999999
#
# number of rings (size 3 to 8) (size 9 to 14) (size 15 to 20)
#    0.000    1.250    5.000    0.750    3.500    1.000 
#    0.000    0.625    0.000    0.000    0.000    0.000 
#    0.000    0.000    0.000    0.000    0.000    0.000 
#
# Total GULP energy -178203.180249 kJ/mol
# GULP energy per Si atom -5568.849383 kJ/mol
# Density = 1.884237 g / cm^3
# Si number density = 18.885350 Si / 1000 Ang^3
#
#
#
# Elastic Constant Matrix: (Units=GPa)
#
#
# Indices 1 2 3 4 5 6 
#
# 1 79.1986 27.0490 28.8155 0.0000 0.0000 0.0000
# 2 27.0490 82.9568 24.8990 0.0000 0.0000 0.0000
# 3 28.8155 24.8990 89.1246 0.0000 0.0000 0.0000
# 4 0.0000 0.0000 0.0000 32.7550 0.0000 0.0000
# 5 0.0000 0.0000 0.0000 0.0000 20.5645 0.0000
# 6 0.0000 0.0000 0.0000 0.0000 0.0000 17.6412
#
#
#
# Elastic Compliance Matrix: (Units=1/GPa)
#
#
# Indices 1 2 3 4 5 6 
#
# 1 0.015353 -0.003838 -0.003892 0.000000 0.000000 0.000000
# 2 -0.003838 0.014117 -0.002703 0.000000 0.000000 0.000000
# 3 -0.003892 -0.002703 0.013234 0.000000 0.000000 0.000000
# 4 0.000000 0.000000 0.000000 0.030530 0.000000 0.000000
# 5 0.000000 0.000000 0.000000 0.000000 0.048628 0.000000
# 6 0.000000 0.000000 0.000000 0.000000 0.000000 0.056685
#
#
# Mechanical properties :
#
#
# Convention : Reuss Voigt Hill
#
# Bulk Modulus (GPa) = 45.79068 45.86743 45.82905
# Shear Modulus (GPa) = 24.19060 25.55991 24.87525
#
# Velocity S-wave (km/s) = 3.58287 3.68288 3.63322
# Velocity P-wave (km/s) = 6.43547 6.51344 6.47457
#
# Compressibility (1/GPa) = 0.02183851
#
# Stress axis : x y z
#
# Youngs Moduli (GPa) = 65.13275 70.83549 75.56479
#
# Poissons Ratio (x) = 0.27187 0.29408
# Poissons Ratio (y) = 0.24998 0.20426
# Poissons Ratio (z) = 0.25348 0.19147
#
# Static dielectric constant tensor:
#      x y z
#    x 1.662520 0.000000 0.000000 
#    y 0.000000 1.631770 0.000000 
#    z 0.000000 0.000000 1.751440 
# 
# From -- ./inp_files/28901.got.cif
#   From: 2010.05.17/outbox.cif.g08.bks.cpg/sg20_15_cif.got.tgz:28901.got - 2010.06.03 22:52:26.
