data_PCOD9319719
_publ_section_title
;
Structure prediction by ZEFSAII (Michael W. Deem and Ramdas Pophale) SiO2 
 PCOD9319719
Probable space group: C 2 2 21
;
_chemical_formula_sum "Si O2"
_cell_formula_units_Z 28
_cell_length_a 30.215428
_cell_length_b 5.379249
_cell_length_c 7.531346
_cell_angle_alpha 90.000000
_cell_angle_beta 90.000000
_cell_angle_gamma 90.000000
_cell_volume 1224.117195
_symmetry_space_group_name_H-M "C 2 2 21"
_symmetry_group_IT_number 20
_symmetry_cell_setting 'orthorhombic'
loop_
_space_group_symop_operation_xyz
x,y,z
-x,-y,1/2+z
x,-y,-z
-x,y,1/2-z
1/2+x,1/2+y,z
1/2-x,1/2-y,1/2+z
1/2+x,1/2-y,-z
1/2-x,1/2+y,1/2-z
loop_
_atom_site_type_symbol
_atom_site_label
_atom_site_fract_x
_atom_site_fract_y
_atom_site_fract_z
Si Si1 0.543400 0.000000 0.000000
Si Si2 0.500000 0.371965 0.250000
Si Si3 0.243032 0.841111 0.346418
Si Si4 0.408960 0.373286 0.695321
Si Si5 0.341435 0.500000 0.000000
O O1 0.576313 0.093431 0.847560
O O2 0.511698 0.792834 0.920850
O O3 0.545513 0.516587 0.273078
O O4 0.260995 0.570669 0.294630
O O5 0.193722 0.800452 0.423721
O O6 0.268616 0.000000 0.500000
O O7 0.400251 0.500000 0.500000
O O8 0.370842 0.406556 0.837389
#
# Coordination Sequence:
#
# PCOD9319719 Si02
#       5
#     4   4   8   8   4
#     4  10  22  40  63 100 136 204 238 297 360 414
#     4  10  22  38  68  94 148 190 244 294 360 412
#     4  10  23  48  74 109 145 186 240 299 381 454
#     4  10  23  44  62 104 147 188 246 305 341 436
#     4  10  26  44  77 104 142 186 248 295 374 432
#
# _framework density 22.873626000000002
#
# number of rings (size 3 to 8) (size 9 to 14) (size 15 to 20)
#    0.857    1.143    0.000    1.714   10.000    2.286 
#   23.143    0.000    0.000    0.000    0.000    0.000 
#    0.000    0.000    0.000    0.000    0.000    0.000 
#
# Total GULP energy -77978.465234 kJ/mol
# GULP energy per Si atom -5569.890374 kJ/mol
# Density = 2.282156 g / cm^3
# Si number density = 22.873626 Si / 1000 Ang^3
#
#
#
# Elastic Constant Matrix: (Units=GPa)
#
#
# Indices 1 2 3 4 5 6 
#
# 1 123.6875 31.7521 55.1059 0.0000 0.0000 0.0000
# 2 31.7521 78.7921 28.2872 0.0000 0.0000 0.0000
# 3 55.1059 28.2872 119.0971 0.0000 0.0000 0.0000
# 4 0.0000 0.0000 0.0000 27.7633 0.0000 0.0000
# 5 0.0000 0.0000 0.0000 0.0000 54.7725 0.0000
# 6 0.0000 0.0000 0.0000 0.0000 0.0000 17.0942
#
#
#
# Elastic Compliance Matrix: (Units=1/GPa)
#
#
# Indices 1 2 3 4 5 6 
#
# 1 0.010712 -0.002774 -0.004297 0.000000 0.000000 0.000000
# 2 -0.002774 0.014593 -0.002183 0.000000 0.000000 0.000000
# 3 -0.004297 -0.002183 0.010903 0.000000 0.000000 0.000000
# 4 0.000000 0.000000 0.000000 0.036019 0.000000 0.000000
# 5 0.000000 0.000000 0.000000 0.000000 0.018257 0.000000
# 6 0.000000 0.000000 0.000000 0.000000 0.000000 0.058499
#
#
# Mechanical properties :
#
#
# Convention : Reuss Voigt Hill
#
# Bulk Modulus (GPa) = 56.49632 61.31856 58.90744
# Shear Modulus (GPa) = 28.83656 33.68811 31.26233
#
# Velocity S-wave (km/s) = 3.55447 3.84186 3.70096
# Velocity P-wave (km/s) = 6.44970 6.82243 6.63868
#
# Compressibility (1/GPa) = 0.01770027
#
# Stress axis : x y z
#
# Youngs Moduli (GPa) = 93.35718 68.52595 91.71532
#
# Poissons Ratio (x) = 0.19008 0.39414
# Poissons Ratio (y) = 0.25895 0.20018
# Poissons Ratio (z) = 0.40119 0.14957
#
# Static dielectric constant tensor:
#      x y z
#    x 1.794710 0.000000 0.000000 
#    y 0.000000 1.953390 0.000000 
#    z 0.000000 0.000000 2.009320 
# 
# From -- ./inp_files/10912.got.cif
#   From: 2010.05.17/outbox.cif.g08.bks.cpg/sg20_6_cif.got.tgz:10912.got - 2010.06.03 22:52:26.
