data_PCOD9319040
_publ_section_title
;
Structure prediction by ZEFSAII (Michael W. Deem and Ramdas Pophale) SiO2 
 PCOD9319040
Probable space group: C 2 2 21
;
_chemical_formula_sum "Si O2"
_cell_formula_units_Z 56
_cell_length_a 12.084196
_cell_length_b 12.030978
_cell_length_c 17.531401
_cell_angle_alpha 90.000000
_cell_angle_beta 90.000000
_cell_angle_gamma 90.000000
_cell_volume 2548.797409
_symmetry_space_group_name_H-M "C 2 2 21"
_symmetry_group_IT_number 20
_symmetry_cell_setting 'orthorhombic'
loop_
_space_group_symop_operation_xyz
x,y,z
-x,-y,1/2+z
x,-y,-z
-x,y,1/2-z
1/2+x,1/2+y,z
1/2-x,1/2-y,1/2+z
1/2+x,1/2-y,-z
1/2-x,1/2+y,1/2-z
loop_
_atom_site_type_symbol
_atom_site_label
_atom_site_fract_x
_atom_site_fract_y
_atom_site_fract_z
Si Si1 0.341889 0.128199 0.530550
Si Si2 0.677374 0.390350 0.339022
Si Si3 0.418241 0.815410 0.078004
Si Si4 0.202781 0.341155 0.697806
Si Si5 0.271068 0.628101 0.473517
Si Si6 0.404316 0.625123 0.189149
Si Si7 0.619896 0.069611 0.725656
O O1 0.227931 0.120672 0.577310
O O2 0.456744 0.142016 0.575688
O O3 0.331889 0.256817 0.495294
O O4 0.351042 0.000000 0.500000
O O5 0.636101 0.271824 0.312467
O O6 0.600276 0.494674 0.327933
O O7 0.786814 0.408101 0.287269
O O8 0.417647 0.689987 0.109565
O O9 0.351494 0.876811 0.145074
O O10 0.354767 0.849010 0.001699
O O11 0.270939 0.363897 0.618876
O O12 0.290794 0.341318 0.767156
O O13 0.119039 0.439676 0.711472
O O14 0.301910 0.500000 0.500000
O O15 0.500000 0.648326 0.250000
O O16 0.500000 0.110716 0.750000
#
# Coordination Sequence:
#
# PCOD9319040 Si02
#       7
#     8   8   8   8   8   8   8
#     4  11  24  42  66  95 130 172 224 269 320 393
#     4  10  21  39  61  92 128 162 207 266 324 377
#     4  12  22  40  67  89 125 171 223 255 327 394
#     4  10  22  39  61  91 127 164 210 263 320 387
#     4  11  23  42  64  94 132 173 212 268 330 389
#     4  11  22  39  64  93 127 170 212 265 330 392
#     4  11  20  35  62  92 118 157 215 264 308 375
#
# _framework density 21.971146000000001
#
# number of rings (size 3 to 8) (size 9 to 14) (size 15 to 20)
#    0.000    1.143    4.286    3.429    0.000    0.571 
#    0.000    6.429    0.000    0.000    0.000    0.000 
#    0.000    0.000    0.000    0.000    0.000    0.000 
#
# Total GULP energy -155932.070597 kJ/mol
# GULP energy per Si atom -5569.002521 kJ/mol
# Density = 2.192114 g / cm^3
# Si number density = 21.971146 Si / 1000 Ang^3
#
#
#
# Elastic Constant Matrix: (Units=GPa)
#
#
# Indices 1 2 3 4 5 6 
#
# 1 19.8170 10.4939 -2.0889 0.0000 0.0000 0.0000
# 2 10.4939 221.0958 18.9281 0.0000 0.0000 0.0000
# 3 -2.0889 18.9281 31.3304 0.0000 0.0000 0.0000
# 4 0.0000 0.0000 0.0000 25.3271 0.0000 0.0000
# 5 0.0000 0.0000 0.0000 0.0000 23.1773 0.0000
# 6 0.0000 0.0000 0.0000 0.0000 0.0000 19.8006
#
#
#
# Elastic Compliance Matrix: (Units=1/GPa)
#
#
# Indices 1 2 3 4 5 6 
#
# 1 0.052580 -0.002948 0.005287 0.000000 0.000000 0.000000
# 2 -0.002948 0.004935 -0.003178 0.000000 0.000000 0.000000
# 3 0.005287 -0.003178 0.034190 0.000000 0.000000 0.000000
# 4 0.000000 0.000000 0.000000 0.039483 0.000000 0.000000
# 5 0.000000 0.000000 0.000000 0.000000 0.043146 0.000000
# 6 0.000000 0.000000 0.000000 0.000000 0.000000 0.050503
#
#
# Mechanical properties :
#
#
# Convention : Reuss Voigt Hill
#
# Bulk Modulus (GPa) = 11.10782 36.32327 23.71554
# Shear Modulus (GPa) = 19.49124 29.98834 24.73979
#
# Velocity S-wave (km/s) = 2.98170 3.69846 3.35925
# Velocity P-wave (km/s) = 4.11347 5.89968 5.08561
#
# Compressibility (1/GPa) = 0.09002669
#
# Stress axis : x y z
#
# Youngs Moduli (GPa) = 19.01860 202.63719 29.24801
#
# Poissons Ratio (x) = 0.59742 -0.15463
# Poissons Ratio (y) = 0.05607 0.09295
# Poissons Ratio (z) = -0.10055 0.64398
#
# Static dielectric constant tensor:
#      x y z
#    x 1.753440 0.000000 0.000000 
#    y 0.000000 1.921430 0.000000 
#    z 0.000000 0.000000 1.872270 
# 
# From -- ./inp_files/27202.got.cif
#   From: 2010.05.17/outbox.cif.g08.bks.cpg/sg20_14_cif.got.tgz:27202.got - 2010.06.03 22:52:26.
