data_PCOD9319754
_publ_section_title
;
Structure prediction by ZEFSAII (Michael W. Deem and Ramdas Pophale) SiO2 
 PCOD9319754
Probable space group: C 2 2 21
;
_chemical_formula_sum "Si O2"
_cell_formula_units_Z 32
_cell_length_a 14.933229
_cell_length_b 5.014724
_cell_length_c 21.465236
_cell_angle_alpha 90.000000
_cell_angle_beta 90.000000
_cell_angle_gamma 90.000000
_cell_volume 1607.446132
_symmetry_space_group_name_H-M "C 2 2 21"
_symmetry_group_IT_number 20
_symmetry_cell_setting 'orthorhombic'
loop_
_space_group_symop_operation_xyz
x,y,z
-x,-y,1/2+z
x,-y,-z
-x,y,1/2-z
1/2+x,1/2+y,z
1/2-x,1/2-y,1/2+z
1/2+x,1/2-y,-z
1/2-x,1/2+y,1/2-z
loop_
_atom_site_type_symbol
_atom_site_label
_atom_site_fract_x
_atom_site_fract_y
_atom_site_fract_z
Si Si1 0.440993 0.407630 0.932423
Si Si2 0.473105 0.624495 0.684194
Si Si3 0.629033 0.098142 0.377494
Si Si4 0.729183 0.326071 0.210519
O O1 0.513871 0.446493 0.877511
O O2 0.406216 0.110260 0.928081
O O3 0.363037 0.614413 0.910056
O O4 0.472072 0.500000 0.000000
O O5 0.500000 0.492288 0.750000
O O6 0.372072 0.721763 0.689283
O O7 0.548534 0.851150 0.672272
O O8 0.711608 0.967414 0.342345
O O9 0.729203 0.548547 0.265649
#
# Coordination Sequence:
#
# PCOD9319754 Si02
#       4
#     8   8   8   8
#     4  10  22  42  65  88 130 174 217 262 330 386
#     4  10  22  39  64  94 126 167 210 269 325 377
#     4  10  22  39  62  92 124 168 216 258 329 377
#     4  12  23  38  63  98 137 162 214 269 328 390
#
# _framework density 19.907354999999999
#
# number of rings (size 3 to 8) (size 9 to 14) (size 15 to 20)
#    1.500    0.000    2.500    3.750    3.500    1.000 
#    0.000    2.500    0.000    0.000    0.000    0.000 
#    0.000    0.000    0.000    0.000    0.000    0.000 
#
# Total GULP energy -89121.240959 kJ/mol
# GULP energy per Si atom -5570.077560 kJ/mol
# Density = 1.986204 g / cm^3
# Si number density = 19.907355 Si / 1000 Ang^3
#
#
#
# Elastic Constant Matrix: (Units=GPa)
#
#
# Indices 1 2 3 4 5 6 
#
# 1 86.5829 -8.4237 20.0425 0.0000 0.0000 0.0000
# 2 -8.4237 66.0277 7.6472 0.0000 0.0000 0.0000
# 3 20.0425 7.6472 118.8255 0.0000 0.0000 0.0000
# 4 0.0000 0.0000 0.0000 30.9769 0.0000 0.0000
# 5 0.0000 0.0000 0.0000 0.0000 16.7431 0.0000
# 6 0.0000 0.0000 0.0000 0.0000 0.0000 -0.8438
#
#
#
# Elastic Compliance Matrix: (Units=1/GPa)
#
#
# Indices 1 2 3 4 5 6 
#
# 1 0.012231 0.001813 -0.002180 0.000000 0.000000 0.000000
# 2 0.001813 0.015528 -0.001305 0.000000 0.000000 0.000000
# 3 -0.002180 -0.001305 0.008867 0.000000 0.000000 0.000000
# 4 0.000000 0.000000 0.000000 0.032282 0.000000 0.000000
# 5 0.000000 0.000000 0.000000 0.000000 0.059726 0.000000
# 6 0.000000 0.000000 0.000000 0.000000 0.000000 -1.185103
#
#
# Mechanical properties :
#
#
# Convention : Reuss Voigt Hill
#
# Bulk Modulus (GPa) = 30.04660 34.44092 32.24376
# Shear Modulus (GPa) = -4.79832 26.18656 10.69412
#
# Velocity S-wave (km/s) = -1.55421 3.63081 2.32026
# Velocity P-wave (km/s) = 3.45040 5.90891 4.83841
#
# Compressibility (1/GPa) = 0.03328164
#
# Stress axis : x y z
#
# Youngs Moduli (GPa) = 81.76255 64.40157 112.77350
#
# Poissons Ratio (x) = -0.11675 0.24580
# Poissons Ratio (y) = -0.14822 0.14718
# Poissons Ratio (z) = 0.17821 0.08405
#
# Static dielectric constant tensor:
#      x y z
#    x 1.685300 0.000000 0.000000 
#    y 0.000000 1.709490 0.000000 
#    z 0.000000 0.000000 1.746920 
# 
# From -- ./inp_files/22542.got.cif
#   From: 2010.05.17/outbox.cif.g08.bks.cpg/sg20_12_cif.got.tgz:22542.got - 2010.06.03 22:52:26.
