data_PCOD9319674
_publ_section_title
;
Structure prediction by ZEFSAII (Michael W. Deem and Ramdas Pophale) SiO2 
 PCOD9319674
Probable space group: C 2 2 21
;
_chemical_formula_sum "Si O2"
_cell_formula_units_Z 32
_cell_length_a 20.184862
_cell_length_b 14.162707
_cell_length_c 5.308813
_cell_angle_alpha 90.000000
_cell_angle_beta 90.000000
_cell_angle_gamma 90.000000
_cell_volume 1517.642510
_symmetry_space_group_name_H-M "C 2 2 21"
_symmetry_group_IT_number 20
_symmetry_cell_setting 'orthorhombic'
loop_
_space_group_symop_operation_xyz
x,y,z
-x,-y,1/2+z
x,-y,-z
-x,y,1/2-z
1/2+x,1/2+y,z
1/2-x,1/2-y,1/2+z
1/2+x,1/2-y,-z
1/2-x,1/2+y,1/2-z
loop_
_atom_site_type_symbol
_atom_site_label
_atom_site_fract_x
_atom_site_fract_y
_atom_site_fract_z
Si Si1 0.447315 0.100657 0.428994
Si Si2 0.643226 0.772607 0.216709
Si Si3 0.835590 0.942262 0.748570
Si Si4 0.189106 0.364555 0.727827
O O1 0.500000 0.151109 0.250000
O O2 0.422546 0.166972 0.654688
O O3 0.378507 0.078077 0.281295
O O4 0.476485 0.000000 0.500000
O O5 0.632964 0.661873 0.249395
O O6 0.678475 0.814544 0.461543
O O7 0.686810 0.791601 0.963921
O O8 0.756033 0.923356 0.739065
O O9 0.854278 0.000000 0.500000
O O10 0.850939 0.000000 0.000000
#
# Coordination Sequence:
#
# PCOD9319674 Si02
#       4
#     8   8   8   8
#     4  10  25  38  64  95 129 169 212 262 325 397
#     4  10  23  40  59  93 129 170 211 267 322 384
#     4  12  23  37  64  93 130 171 221 264 322 386
#     4  10  22  38  60  89 132 167 208 265 317 387
#
# _framework density 21.085334
#
# number of rings (size 3 to 8) (size 9 to 14) (size 15 to 20)
#    1.500    0.000    0.000    5.250    7.000    0.000 
#    0.000    0.000    0.000    0.000    6.500    0.000 
#    0.000    0.000    0.000    0.000    0.000    0.000 
#
# Total GULP energy -89309.500289 kJ/mol
# GULP energy per Si atom -5581.843768 kJ/mol
# Density = 2.103734 g / cm^3
# Si number density = 21.085334 Si / 1000 Ang^3
#
#
#
# Elastic Constant Matrix: (Units=GPa)
#
#
# Indices 1 2 3 4 5 6 
#
# 1 32.2483 6.1965 13.3353 0.0000 0.0000 0.0000
# 2 6.1965 88.2201 64.4646 0.0000 0.0000 0.0000
# 3 13.3353 64.4646 189.8692 0.0000 0.0000 0.0000
# 4 0.0000 0.0000 0.0000 21.3591 0.0000 0.0000
# 5 0.0000 0.0000 0.0000 0.0000 -26.6073 0.0000
# 6 0.0000 0.0000 0.0000 0.0000 0.0000 14.0460
#
#
#
# Elastic Compliance Matrix: (Units=1/GPa)
#
#
# Indices 1 2 3 4 5 6 
#
# 1 0.031980 -0.000805 -0.001973 0.000000 0.000000 0.000000
# 2 -0.000805 0.015096 -0.005069 0.000000 0.000000 0.000000
# 3 -0.001973 -0.005069 0.007126 0.000000 0.000000 0.000000
# 4 0.000000 0.000000 0.000000 0.046818 0.000000 0.000000
# 5 0.000000 0.000000 0.000000 0.000000 -0.037584 0.000000
# 6 0.000000 0.000000 0.000000 0.000000 0.000000 0.071195
#
#
# Mechanical properties :
#
#
# Convention : Reuss Voigt Hill
#
# Bulk Modulus (GPa) = 25.96779 53.14782 39.55780
# Shear Modulus (GPa) = 30.64472 16.84897 23.74685
#
# Velocity S-wave (km/s) = 3.81644 2.82988 3.35957
# Velocity P-wave (km/s) = 5.63583 5.99486 5.81812
#
# Compressibility (1/GPa) = 0.03850924
#
# Stress axis : x y z
#
# Youngs Moduli (GPa) = 31.26974 66.24405 140.32506
#
# Poissons Ratio (x) = 0.05330 0.27685
# Poissons Ratio (y) = 0.02516 0.71128
# Poissons Ratio (z) = 0.06169 0.33578
#
# Static dielectric constant tensor:
#      x y z
#    x 1.781900 0.000000 0.000000 
#    y 0.000000 1.743000 0.000000 
#    z 0.000000 0.000000 1.799090 
# 
# From -- ./inp_files/2419.got.cif
#   From: 2010.05.17/outbox.cif.g08.bks.cpg/sg20_2_cif.got.tgz:2419.got - 2010.06.03 22:52:26.
