data_PCOD9319502
_publ_section_title
;
Structure prediction by ZEFSAII (Michael W. Deem and Ramdas Pophale) SiO2 
 PCOD9319502
Probable space group: C 2 2 21
;
_chemical_formula_sum "Si O2"
_cell_formula_units_Z 64
_cell_length_a 7.804053
_cell_length_b 31.355243
_cell_length_c 11.644839
_cell_angle_alpha 90.000000
_cell_angle_beta 90.000000
_cell_angle_gamma 90.000000
_cell_volume 2849.468560
_symmetry_space_group_name_H-M "C 2 2 21"
_symmetry_group_IT_number 20
_symmetry_cell_setting 'orthorhombic'
loop_
_space_group_symop_operation_xyz
x,y,z
-x,-y,1/2+z
x,-y,-z
-x,y,1/2-z
1/2+x,1/2+y,z
1/2-x,1/2-y,1/2+z
1/2+x,1/2-y,-z
1/2-x,1/2+y,1/2-z
loop_
_atom_site_type_symbol
_atom_site_label
_atom_site_fract_x
_atom_site_fract_y
_atom_site_fract_z
Si Si1 0.766223 0.377821 0.847773
Si Si2 0.341141 0.142325 0.405157
Si Si3 0.852321 0.417164 0.381602
Si Si4 0.208217 0.842633 0.237972
Si Si5 0.166231 0.191423 0.000307
Si Si6 0.542902 0.521912 0.626123
Si Si7 0.788478 0.217175 0.942492
Si Si8 0.712126 0.050059 0.528731
O O1 0.753719 0.373664 0.711862
O O2 0.955461 0.359972 0.881047
O O3 0.636688 0.345178 0.906923
O O4 0.759225 0.423312 0.911131
O O5 0.297389 0.108351 0.503529
O O6 0.295565 0.188836 0.455511
O O7 0.811384 0.382819 0.284223
O O8 0.726067 0.456370 0.361752
O O9 0.043565 0.433298 0.406604
O O10 0.255003 0.831097 0.108112
O O11 0.260827 0.803512 0.320937
O O12 0.000000 0.849650 0.250000
O O13 0.988602 0.208798 0.953809
O O14 0.257761 0.232861 0.049095
O O15 0.547933 0.500000 0.500000
O O16 0.500000 0.499898 0.750000
O O17 0.383432 0.554247 0.605441
O O18 0.687645 0.000000 0.500000
#
# Coordination Sequence:
#
# PCOD9319502 Si02
#       8
#     8   8   8   8   8   8   8   8
#     4  10  22  40  67  92 132 179 216 286 340 407
#     4   9  21  42  63  93 130 173 227 270 338 406
#     4  10  21  43  73  98 135 183 227 277 347 411
#     4   9  21  40  66  92 131 180 223 278 336 412
#     4  11  23  39  64  93 134 169 226 273 339 404
#     4  11  26  45  70 102 141 179 228 291 350 417
#     4  10  22  40  61  95 128 178 219 275 330 407
#     4  10  24  45  69 106 136 177 234 285 347 416
#
# _framework density 22.460329999999999
#
# number of rings (size 3 to 8) (size 9 to 14) (size 15 to 20)
#    0.000    2.000    0.000    1.500    8.750    3.000 
#    2.250   10.625    0.000    0.000    0.000    0.000 
#    0.000    0.000    0.000    0.000    0.000    0.000 
#
# Total GULP energy -178806.837854 kJ/mol
# GULP energy per Si atom -5587.713683 kJ/mol
# Density = 2.240921 g / cm^3
# Si number density = 22.460330 Si / 1000 Ang^3
#
#
#
# Elastic Constant Matrix: (Units=GPa)
#
#
# Indices 1 2 3 4 5 6 
#
# 1 43.2952 2.3634 18.6112 0.0000 0.0000 0.0000
# 2 2.3634 83.6563 39.8606 0.0000 0.0000 0.0000
# 3 18.6112 39.8606 132.3312 0.0000 0.0000 0.0000
# 4 0.0000 0.0000 0.0000 29.0526 0.0000 0.0000
# 5 0.0000 0.0000 0.0000 0.0000 22.4502 0.0000
# 6 0.0000 0.0000 0.0000 0.0000 0.0000 31.5582
#
#
#
# Elastic Compliance Matrix: (Units=1/GPa)
#
#
# Indices 1 2 3 4 5 6 
#
# 1 0.024672 0.001117 -0.003806 0.000000 0.000000 0.000000
# 2 0.001117 0.014007 -0.004376 0.000000 0.000000 0.000000
# 3 -0.003806 -0.004376 0.009410 0.000000 0.000000 0.000000
# 4 0.000000 0.000000 0.000000 0.034420 0.000000 0.000000
# 5 0.000000 0.000000 0.000000 0.000000 0.044543 0.000000
# 6 0.000000 0.000000 0.000000 0.000000 0.000000 0.031687
#
#
# Mechanical properties :
#
#
# Convention : Reuss Voigt Hill
#
# Bulk Modulus (GPa) = 29.44801 42.32812 35.88807
# Shear Modulus (GPa) = 27.14553 29.84205 28.49379
#
# Velocity S-wave (km/s) = 3.48026 3.64903 3.56564
# Velocity P-wave (km/s) = 5.41195 6.05314 5.74150
#
# Compressibility (1/GPa) = 0.03395815
#
# Stress axis : x y z
#
# Youngs Moduli (GPa) = 40.53101 71.39101 106.26600
#
# Poissons Ratio (x) = -0.07972 0.40448
# Poissons Ratio (y) = -0.04526 0.46505
# Poissons Ratio (z) = 0.15427 0.31243
#
# Static dielectric constant tensor:
#      x y z
#    x 1.865780 0.000000 0.000000 
#    y 0.000000 1.821460 0.000000 
#    z 0.000000 0.000000 1.899690 
# 
# From -- ./inp_files/13388.got.cif
#   From: 2010.05.17/outbox.cif.g08.bks.cpg/sg20_7_cif.got.tgz:13388.got - 2010.06.03 22:52:26.
