data_PCOD9319741
_publ_section_title
;
Structure prediction by ZEFSAII (Michael W. Deem and Ramdas Pophale) SiO2 
 PCOD9319741
Probable space group: C 2 2 21
;
_chemical_formula_sum "Si O2"
_cell_formula_units_Z 48
_cell_length_a 8.410350
_cell_length_b 15.745325
_cell_length_c 18.118967
_cell_angle_alpha 90.000000
_cell_angle_beta 90.000000
_cell_angle_gamma 90.000000
_cell_volume 2399.380544
_symmetry_space_group_name_H-M "C 2 2 21"
_symmetry_group_IT_number 20
_symmetry_cell_setting 'orthorhombic'
loop_
_space_group_symop_operation_xyz
x,y,z
-x,-y,1/2+z
x,-y,-z
-x,y,1/2-z
1/2+x,1/2+y,z
1/2-x,1/2-y,1/2+z
1/2+x,1/2-y,-z
1/2-x,1/2+y,1/2-z
loop_
_atom_site_type_symbol
_atom_site_label
_atom_site_fract_x
_atom_site_fract_y
_atom_site_fract_z
Si Si1 0.046194 0.544317 0.336637
Si Si2 0.449712 0.608528 0.830696
Si Si3 0.002623 0.279306 0.594725
Si Si4 0.880245 0.221543 0.439981
Si Si5 0.628521 0.531542 0.080190
Si Si6 0.073238 0.634879 0.831354
O O1 0.969591 0.628090 0.372279
O O2 0.232085 0.543578 0.359034
O O3 0.000000 0.546033 0.250000
O O4 0.989532 0.452934 0.365332
O O5 0.500000 0.579360 0.750000
O O6 0.525451 0.700307 0.850211
O O7 0.507246 0.538820 0.889454
O O8 0.262024 0.622763 0.828359
O O9 0.191129 0.279389 0.575472
O O10 0.909541 0.258909 0.520504
O O11 0.941457 0.125324 0.433001
O O12 0.961386 0.283823 0.381205
O O13 0.691168 0.500000 0.000000
O O14 0.000000 0.644943 0.750000
#
# Coordination Sequence:
#
# PCOD9319741 Si02
#       6
#     8   8   8   8   8   8
#     4  10  22  41  64  92 127 166 213 260 320 380
#     4  11  22  40  65  89 123 166 207 259 316 380
#     4  10  22  39  60  90 125 164 209 258 314 380
#     4  10  23  39  62  91 125 166 210 256 321 374
#     4  11  23  42  65  94 130 168 212 265 322 379
#     4  10  23  41  60  92 126 161 212 259 312 377
#
# _framework density 20.005165000000002
#
# number of rings (size 3 to 8) (size 9 to 14) (size 15 to 20)
#    0.000    1.667    1.667    2.500    4.667    3.333 
#    0.000    3.333    0.000    0.000    0.000    0.000 
#    0.000    0.000    0.000    0.000    0.000    0.000 
#
# Total GULP energy -133968.156774 kJ/mol
# GULP energy per Si atom -5582.006532 kJ/mol
# Density = 1.995963 g / cm^3
# Si number density = 20.005165 Si / 1000 Ang^3
#
#
#
# Elastic Constant Matrix: (Units=GPa)
#
#
# Indices 1 2 3 4 5 6 
#
# 1 26.7312 14.1745 25.5064 0.0000 0.0000 0.0000
# 2 14.1745 167.5616 48.0655 0.0000 0.0000 0.0000
# 3 25.5064 48.0655 100.1557 0.0000 0.0000 0.0000
# 4 0.0000 0.0000 0.0000 34.6684 0.0000 0.0000
# 5 0.0000 0.0000 0.0000 0.0000 29.9831 0.0000
# 6 0.0000 0.0000 0.0000 0.0000 0.0000 27.0135
#
#
#
# Elastic Compliance Matrix: (Units=1/GPa)
#
#
# Indices 1 2 3 4 5 6 
#
# 1 0.049481 -0.000662 -0.012283 0.000000 0.000000 0.000000
# 2 -0.000662 0.006930 -0.003157 0.000000 0.000000 0.000000
# 3 -0.012283 -0.003157 0.014628 0.000000 0.000000 0.000000
# 4 0.000000 0.000000 0.000000 0.028845 0.000000 0.000000
# 5 0.000000 0.000000 0.000000 0.000000 0.033352 0.000000
# 6 0.000000 0.000000 0.000000 0.000000 0.000000 0.037019
#
#
# Mechanical properties :
#
#
# Convention : Reuss Voigt Hill
#
# Bulk Modulus (GPa) = 25.75108 52.21568 38.98338
# Shear Modulus (GPa) = 23.21228 32.11315 27.66272
#
# Velocity S-wave (km/s) = 3.41003 4.01090 3.72261
# Velocity P-wave (km/s) = 5.32960 6.89982 6.16490
#
# Compressibility (1/GPa) = 0.03883332
#
# Stress axis : x y z
#
# Youngs Moduli (GPa) = 20.20970 144.30981 68.36365
#
# Poissons Ratio (x) = 0.09556 0.83974
# Poissons Ratio (y) = 0.01338 0.21582
# Poissons Ratio (z) = 0.24824 0.45557
#
# Static dielectric constant tensor:
#      x y z
#    x 1.738150 0.000000 0.000000 
#    y 0.000000 1.721690 0.000000 
#    z 0.000000 0.000000 1.695400 
# 
# From -- ./inp_files/23422.got.cif
#   From: 2010.05.17/outbox.cif.g08.bks.cpg/sg20_12_cif.got.tgz:23422.got - 2010.06.03 22:52:26.
