data_PCOD9319701
_publ_section_title
;
Structure prediction by ZEFSAII (Michael W. Deem and Ramdas Pophale) SiO2 
 PCOD9319701
Probable space group: C 2 2 21
;
_chemical_formula_sum "Si O2"
_cell_formula_units_Z 32
_cell_length_a 8.836883
_cell_length_b 29.811145
_cell_length_c 5.299659
_cell_angle_alpha 90.000000
_cell_angle_beta 90.000000
_cell_angle_gamma 90.000000
_cell_volume 1396.129450
_symmetry_space_group_name_H-M "C 2 2 21"
_symmetry_group_IT_number 20
_symmetry_cell_setting 'orthorhombic'
loop_
_space_group_symop_operation_xyz
x,y,z
-x,-y,1/2+z
x,-y,-z
-x,y,1/2-z
1/2+x,1/2+y,z
1/2-x,1/2-y,1/2+z
1/2+x,1/2-y,-z
1/2-x,1/2+y,1/2-z
loop_
_atom_site_type_symbol
_atom_site_label
_atom_site_fract_x
_atom_site_fract_y
_atom_site_fract_z
Si Si1 0.181389 0.128730 0.736543
Si Si2 0.685029 0.473444 0.253327
Si Si3 0.898031 0.786003 0.997554
Si Si4 0.897389 0.686240 0.002627
O O1 0.237628 0.077973 0.713563
O O2 0.200314 0.169077 0.532969
O O3 0.265999 0.149768 0.976177
O O4 0.000000 0.124179 0.750000
O O5 0.734087 0.500000 0.500000
O O6 0.500000 0.473160 0.250000
O O7 0.731813 0.500000 0.000000
O O8 0.000000 0.784644 0.250000
O O9 0.826152 0.736432 0.992239
O O10 0.000000 0.790178 0.750000
O O11 0.000000 0.681976 0.750000
O O12 0.000000 0.682217 0.250000
#
# Coordination Sequence:
#
# PCOD9319701 Si02
#       4
#     8   8   8   8
#     4  10  22  38  64  92 119 161 214 258 303 372
#     4   9  19  35  55  84 119 150 191 256 320 361
#     4   9  20  36  56  87 125 163 205 253 306 371
#     4  10  23  41  59  87 132 172 200 247 317 380
#
# _framework density 22.920508999999999
#
# number of rings (size 3 to 8) (size 9 to 14) (size 15 to 20)
#    0.000    2.500    0.000    0.000    0.000   23.000 
#    0.000    0.000    0.000    3.000    0.000    0.000 
#    0.000    0.000    0.000    0.000    0.000    0.000 
#
# Total GULP energy -89317.493340 kJ/mol
# GULP energy per Si atom -5582.343334 kJ/mol
# Density = 2.286834 g / cm^3
# Si number density = 22.920509 Si / 1000 Ang^3
#
#
#
# Elastic Constant Matrix: (Units=GPa)
#
#
# Indices 1 2 3 4 5 6 
#
# 1 62.9993 43.5670 56.9355 0.0000 0.0000 0.0000
# 2 43.5670 256.1739 76.8756 0.0000 0.0000 0.0000
# 3 56.9355 76.8756 186.1642 0.0000 0.0000 0.0000
# 4 0.0000 0.0000 0.0000 28.5323 0.0000 0.0000
# 5 0.0000 0.0000 0.0000 0.0000 36.1669 0.0000
# 6 0.0000 0.0000 0.0000 0.0000 0.0000 -3.4636
#
#
#
# Elastic Compliance Matrix: (Units=1/GPa)
#
#
# Indices 1 2 3 4 5 6 
#
# 1 0.022834 -0.002041 -0.006141 0.000000 0.000000 0.000000
# 2 -0.002041 0.004638 -0.001291 0.000000 0.000000 0.000000
# 3 -0.006141 -0.001291 0.007783 0.000000 0.000000 0.000000
# 4 0.000000 0.000000 0.000000 0.035048 0.000000 0.000000
# 5 0.000000 0.000000 0.000000 0.000000 0.027650 0.000000
# 6 0.000000 0.000000 0.000000 0.000000 0.000000 -0.288716
#
#
# Mechanical properties :
#
#
# Convention : Reuss Voigt Hill
#
# Bulk Modulus (GPa) = 61.31240 95.56596 78.43918
# Shear Modulus (GPa) = -30.05135 34.11106 2.02985
#
# Velocity S-wave (km/s) = -3.62486 3.86195 0.94209
# Velocity P-wave (km/s) = 3.04773 7.85310 5.95650
#
# Compressibility (1/GPa) = 0.01630992
#
# Stress axis : x y z
#
# Youngs Moduli (GPa) = 43.79414 215.60494 128.48702
#
# Poissons Ratio (x) = 0.43995 0.78902
# Poissons Ratio (y) = 0.08936 0.16590
# Poissons Ratio (z) = 0.26893 0.27839
#
# Static dielectric constant tensor:
#      x y z
#    x 1.906780 0.000000 0.000000 
#    y 0.000000 1.868550 0.000000 
#    z 0.000000 0.000000 1.906460 
# 
# From -- ./inp_files/1137.got.cif
#   From: 2010.05.17/outbox.cif.g08.bks.cpg/sg20_1_cif.got.tgz:1137.got - 2010.06.03 22:52:26.
