data_PCOD9319961
_publ_section_title
;
Structure prediction by ZEFSAII (Michael W. Deem and Ramdas Pophale) SiO2 
 PCOD9319961
Probable space group: C 2 2 21
;
_chemical_formula_sum "Si O2"
_cell_formula_units_Z 48
_cell_length_a 28.352898
_cell_length_b 8.469827
_cell_length_c 9.865122
_cell_angle_alpha 90.000000
_cell_angle_beta 90.000000
_cell_angle_gamma 90.000000
_cell_volume 2369.051249
_symmetry_space_group_name_H-M "C 2 2 21"
_symmetry_group_IT_number 20
_symmetry_cell_setting 'orthorhombic'
loop_
_space_group_symop_operation_xyz
x,y,z
-x,-y,1/2+z
x,-y,-z
-x,y,1/2-z
1/2+x,1/2+y,z
1/2-x,1/2-y,1/2+z
1/2+x,1/2-y,-z
1/2-x,1/2+y,1/2-z
loop_
_atom_site_type_symbol
_atom_site_label
_atom_site_fract_x
_atom_site_fract_y
_atom_site_fract_z
Si Si1 0.419229 0.000000 0.000000
Si Si2 0.559708 0.500000 0.000000
Si Si3 0.019501 0.786506 0.395493
Si Si4 0.192447 0.767581 0.346295
Si Si5 0.654628 0.199628 0.636873
Si Si6 0.216111 0.472259 0.156055
Si Si7 0.895492 0.979831 0.211179
O O1 0.451564 0.853637 0.961511
O O2 0.384041 0.062065 0.883456
O O3 0.524327 0.647922 0.980823
O O4 0.591063 0.487528 0.866411
O O5 0.056240 0.926452 0.360430
O O6 0.000000 0.732026 0.250000
O O7 0.186374 0.706443 0.500723
O O8 0.209100 0.629061 0.246118
O O9 0.230513 0.908044 0.342958
O O10 0.142102 0.838628 0.302572
O O11 0.684919 0.160303 0.768656
O O12 0.627761 0.365450 0.647273
O O13 0.202333 0.500000 0.000000
#
# Coordination Sequence:
#
# PCOD9319961 Si02
#       7
#     4   4   8   8   8   8   8
#     4  12  22  42  71  96 136 180 219 280 340 420
#     4  10  24  42  63 104 130 174 231 288 336 406
#     4  10  22  41  65  97 135 174 226 281 341 409
#     4  12  24  46  68 100 136 184 229 275 341 408
#     4  12  24  44  70 100 134 187 226 271 346 408
#     4  12  26  43  68 103 141 175 231 284 330 394
#     4  11  23  42  71  93 134 181 228 281 339 413
#
# _framework density 20.261275000000001
#
# number of rings (size 3 to 8) (size 9 to 14) (size 15 to 20)
#    0.000    0.667    3.333    4.500    2.333    1.333 
#    3.000    0.000    0.000    0.000    0.000    0.000 
#    0.000    0.000    0.000    0.000    0.000    0.000 
#
# Total GULP energy -134276.690413 kJ/mol
# GULP energy per Si atom -5594.862101 kJ/mol
# Density = 2.021516 g / cm^3
# Si number density = 20.261275 Si / 1000 Ang^3
#
#
#
# Elastic Constant Matrix: (Units=GPa)
#
#
# Indices 1 2 3 4 5 6 
#
# 1 74.4996 6.6953 41.5369 0.0000 0.0000 0.0000
# 2 6.6953 66.3454 31.9503 0.0000 0.0000 0.0000
# 3 41.5369 31.9503 148.2530 0.0000 0.0000 0.0000
# 4 0.0000 0.0000 0.0000 31.0682 0.0000 0.0000
# 5 0.0000 0.0000 0.0000 0.0000 30.0976 0.0000
# 6 0.0000 0.0000 0.0000 0.0000 0.0000 24.8472
#
#
#
# Elastic Compliance Matrix: (Units=1/GPa)
#
#
# Indices 1 2 3 4 5 6 
#
# 1 0.015930 0.000604 -0.004593 0.000000 0.000000 0.000000
# 2 0.000604 0.016841 -0.003799 0.000000 0.000000 0.000000
# 3 -0.004593 -0.003799 0.008851 0.000000 0.000000 0.000000
# 4 0.000000 0.000000 0.000000 0.032187 0.000000 0.000000
# 5 0.000000 0.000000 0.000000 0.000000 0.033225 0.000000
# 6 0.000000 0.000000 0.000000 0.000000 0.000000 0.040246
#
#
# Mechanical properties :
#
#
# Convention : Reuss Voigt Hill
#
# Bulk Modulus (GPa) = 38.39342 49.94034 44.16688
# Shear Modulus (GPa) = 29.14819 31.13031 30.13925
#
# Velocity S-wave (km/s) = 3.79702 3.92400 3.86104
# Velocity P-wave (km/s) = 6.18171 6.72548 6.45932
#
# Compressibility (1/GPa) = 0.02604613
#
# Stress axis : x y z
#
# Youngs Moduli (GPa) = 62.77631 59.37876 112.98332
#
# Poissons Ratio (x) = -0.03589 0.51897
# Poissons Ratio (y) = -0.03795 0.42920
# Poissons Ratio (z) = 0.28835 0.22557
#
# Static dielectric constant tensor:
#      x y z
#    x 1.704630 0.000000 0.000000 
#    y 0.000000 1.726970 0.000000 
#    z 0.000000 0.000000 1.714950 
# 
# From -- ./inp_files/6588.got.cif
#   From: 2010.05.17/outbox.cif.g08.bks.cpg/sg20_4_cif.got.tgz:6588.got - 2010.06.03 22:52:26.
