data_PCOD9319142
_publ_section_title
;
Structure prediction by ZEFSAII (Michael W. Deem and Ramdas Pophale) SiO2 
 PCOD9319142
Probable space group: C 2 2 21
;
_chemical_formula_sum "Si O2"
_cell_formula_units_Z 40
_cell_length_a 11.868320
_cell_length_b 30.915196
_cell_length_c 5.305507
_cell_angle_alpha 90.000000
_cell_angle_beta 90.000000
_cell_angle_gamma 90.000000
_cell_volume 1946.651208
_symmetry_space_group_name_H-M "C 2 2 21"
_symmetry_group_IT_number 20
_symmetry_cell_setting 'orthorhombic'
loop_
_space_group_symop_operation_xyz
x,y,z
-x,-y,1/2+z
x,-y,-z
-x,y,1/2-z
1/2+x,1/2+y,z
1/2-x,1/2-y,1/2+z
1/2+x,1/2-y,-z
1/2-x,1/2+y,1/2-z
loop_
_atom_site_type_symbol
_atom_site_label
_atom_site_fract_x
_atom_site_fract_y
_atom_site_fract_z
Si Si1 0.771712 0.116313 0.018466
Si Si2 0.000000 0.297942 0.250000
Si Si3 0.205972 0.666454 0.517206
Si Si4 0.403084 0.278989 0.456732
Si Si5 0.000000 0.139332 0.250000
Si Si6 0.570778 0.051947 0.001486
O O1 0.723764 0.148164 0.236841
O O2 0.903728 0.113088 0.099135
O O3 0.692669 0.074302 0.018609
O O4 0.754847 0.136083 0.740470
O O5 0.925498 0.326658 0.066858
O O6 0.918015 0.264548 0.388730
O O7 0.271478 0.711574 0.568164
O O8 0.500000 0.273462 0.250000
O O9 0.438315 0.325673 0.572615
O O10 0.500000 0.064068 0.250000
O O11 0.500000 0.064130 0.750000
O O12 0.583252 0.000000 0.000000
#
# Coordination Sequence:
#
# PCOD9319142 Si02
#       6
#     8   4   8   8   4   8
#     4  11  23  41  65  92 127 159 209 257 307 377
#     4  11  28  36  60  84 120 162 212 270 308 360
#     4  11  26  40  61  91 121 161 212 262 315 365
#     4  10  21  40  57  77 118 167 206 253 312 369
#     4   9  20  40  60  88 116 168 208 252 306 368
#     4  10  22  41  67  97 131 166 198 245 317 384
#
# _framework density 20.548109
#
# number of rings (size 3 to 8) (size 9 to 14) (size 15 to 20)
#    0.000    1.600    2.000    1.200    9.800    0.000 
#    0.000    0.000    0.000    8.400    0.000    0.000 
#    0.000    0.000    0.000    0.000    0.000    0.000 
#
# Total GULP energy -111487.920290 kJ/mol
# GULP energy per Si atom -5574.396014 kJ/mol
# Density = 2.050134 g / cm^3
# Si number density = 20.548109 Si / 1000 Ang^3
#
#
#
# Elastic Constant Matrix: (Units=GPa)
#
#
# Indices 1 2 3 4 5 6 
#
# 1 98.0144 23.1608 10.2284 0.0000 0.0000 0.0000
# 2 23.1608 39.5009 14.2291 0.0000 0.0000 0.0000
# 3 10.2284 14.2291 82.8007 0.0000 0.0000 0.0000
# 4 0.0000 0.0000 0.0000 10.9969 0.0000 0.0000
# 5 0.0000 0.0000 0.0000 0.0000 40.1510 0.0000
# 6 0.0000 0.0000 0.0000 0.0000 0.0000 56.9311
#
#
#
# Elastic Compliance Matrix: (Units=1/GPa)
#
#
# Indices 1 2 3 4 5 6 
#
# 1 0.011850 -0.006844 -0.000288 0.000000 0.000000 0.000000
# 2 -0.006844 0.030940 -0.004471 0.000000 0.000000 0.000000
# 3 -0.000288 -0.004471 0.012881 0.000000 0.000000 0.000000
# 4 0.000000 0.000000 0.000000 0.090934 0.000000 0.000000
# 5 0.000000 0.000000 0.000000 0.000000 0.024906 0.000000
# 6 0.000000 0.000000 0.000000 0.000000 0.000000 0.017565
#
#
# Mechanical properties :
#
#
# Convention : Reuss Voigt Hill
#
# Bulk Modulus (GPa) = 30.80353 35.06139 32.93246
# Shear Modulus (GPa) = 22.41101 33.12897 27.76999
#
# Velocity S-wave (km/s) = 3.30610 4.01966 3.68021
# Velocity P-wave (km/s) = 5.44033 6.21640 5.84127
#
# Compressibility (1/GPa) = 0.03246381
#
# Stress axis : x y z
#
# Youngs Moduli (GPa) = 84.38855 32.32088 77.63290
#
# Poissons Ratio (x) = 0.22122 0.02233
# Poissons Ratio (y) = 0.57759 0.34713
# Poissons Ratio (z) = 0.02427 0.14452
#
# Static dielectric constant tensor:
#      x y z
#    x 1.983900 0.000000 0.000000 
#    y 0.000000 1.696880 0.000000 
#    z 0.000000 0.000000 1.790900 
# 
# From -- ./inp_files/1449.got.cif
#   From: 2010.05.17/outbox.cif.g08.bks.cpg/sg20_1_cif.got.tgz:1449.got - 2010.06.03 22:52:26.
