data_PCOD9319659
_publ_section_title
;
Structure prediction by ZEFSAII (Michael W. Deem and Ramdas Pophale) SiO2 
 PCOD9319659
Probable space group: C 2 2 21
;
_chemical_formula_sum "Si O2"
_cell_formula_units_Z 32
_cell_length_a 12.474191
_cell_length_b 7.869476
_cell_length_c 12.675191
_cell_angle_alpha 90.000000
_cell_angle_beta 90.000000
_cell_angle_gamma 90.000000
_cell_volume 1244.264519
_symmetry_space_group_name_H-M "C 2 2 21"
_symmetry_group_IT_number 20
_symmetry_cell_setting 'orthorhombic'
loop_
_space_group_symop_operation_xyz
x,y,z
-x,-y,1/2+z
x,-y,-z
-x,y,1/2-z
1/2+x,1/2+y,z
1/2-x,1/2-y,1/2+z
1/2+x,1/2-y,-z
1/2-x,1/2+y,1/2-z
loop_
_atom_site_type_symbol
_atom_site_label
_atom_site_fract_x
_atom_site_fract_y
_atom_site_fract_z
Si Si1 0.575002 0.174920 0.539782
Si Si2 0.695178 0.883625 0.795818
Si Si3 0.828473 0.000000 0.000000
Si Si4 0.500000 0.865090 0.250000
Si Si5 0.191674 0.037422 0.886342
O O1 0.600336 0.335869 0.468832
O O2 0.515820 0.239520 0.643926
O O3 0.691706 0.110752 0.577563
O O4 0.520985 0.000000 0.500000
O O5 0.648047 0.698176 0.821789
O O6 0.600420 0.011284 0.767425
O O7 0.778198 0.889042 0.696501
O O8 0.755760 0.952022 0.899829
O O9 0.138961 0.000000 0.000000
#
# Coordination Sequence:
#
# PCOD9319659 Si02
#       5
#     8   8   4   4   8
#     4   9  20  40  66  88 130 169 217 271 330 394
#     4  10  22  37  69  93 130 175 223 279 342 400
#     4  10  22  40  68  96 120 186 234 262 320 418
#     4  10  22  40  64  98 134 172 206 288 350 392
#     4   9  20  38  63  96 122 171 233 272 329 412
#
# _framework density 25.718004000000001
#
# number of rings (size 3 to 8) (size 9 to 14) (size 15 to 20)
#    0.000    2.500    0.000    0.000   15.750    0.000 
#    0.000    1.250   11.000    3.000    0.000    0.000 
#    0.000    0.000    0.000    0.000    0.000    0.000 
#
# Total GULP energy -89348.856453 kJ/mol
# GULP energy per Si atom -5584.303528 kJ/mol
# Density = 2.565947 g / cm^3
# Si number density = 25.718004 Si / 1000 Ang^3
#
#
#
# Elastic Constant Matrix: (Units=GPa)
#
#
# Indices 1 2 3 4 5 6 
#
# 1 54.2381 6.4778 19.3492 0.0000 0.0000 0.0000
# 2 6.4778 119.1316 57.0359 0.0000 0.0000 0.0000
# 3 19.3492 57.0359 134.5345 0.0000 0.0000 0.0000
# 4 0.0000 0.0000 0.0000 41.8862 0.0000 0.0000
# 5 0.0000 0.0000 0.0000 0.0000 30.2756 0.0000
# 6 0.0000 0.0000 0.0000 0.0000 0.0000 17.9865
#
#
#
# Elastic Compliance Matrix: (Units=1/GPa)
#
#
# Indices 1 2 3 4 5 6 
#
# 1 0.019446 0.000353 -0.002947 0.000000 0.000000 0.000000
# 2 0.000353 0.010538 -0.004518 0.000000 0.000000 0.000000
# 3 -0.002947 -0.004518 0.009772 0.000000 0.000000 0.000000
# 4 0.000000 0.000000 0.000000 0.023874 0.000000 0.000000
# 5 0.000000 0.000000 0.000000 0.000000 0.033030 0.000000
# 6 0.000000 0.000000 0.000000 0.000000 0.000000 0.055597
#
#
# Mechanical properties :
#
#
# Convention : Reuss Voigt Hill
#
# Bulk Modulus (GPa) = 39.16451 52.62554 45.89502
# Shear Modulus (GPa) = 28.57259 33.03240 30.80249
#
# Velocity S-wave (km/s) = 3.33678 3.58775 3.46454
# Velocity P-wave (km/s) = 5.48698 6.13755 5.82136
#
# Compressibility (1/GPa) = 0.02553332
#
# Stress axis : x y z
#
# Youngs Moduli (GPa) = 51.42387 94.89335 102.32871
#
# Poissons Ratio (x) = -0.03353 0.30152
# Poissons Ratio (y) = -0.01817 0.46237
# Poissons Ratio (z) = 0.15153 0.42877
#
# Static dielectric constant tensor:
#      x y z
#    x 2.059560 0.000000 0.000000 
#    y 0.000000 2.179830 0.000000 
#    z 0.000000 0.000000 2.172200 
# 
# From -- ./inp_files/12580.got.cif
#   From: 2010.05.17/outbox.cif.g08.bks.cpg/sg20_7_cif.got.tgz:12580.got - 2010.06.03 22:52:26.
