data_PCOD9319235
_publ_section_title
;
Structure prediction by ZEFSAII (Michael W. Deem and Ramdas Pophale) SiO2 
 PCOD9319235
Probable space group: C 2 2 21
;
_chemical_formula_sum "Si O2"
_cell_formula_units_Z 40
_cell_length_a 11.993698
_cell_length_b 13.730977
_cell_length_c 10.961202
_cell_angle_alpha 90.000000
_cell_angle_beta 90.000000
_cell_angle_gamma 90.000000
_cell_volume 1805.147649
_symmetry_space_group_name_H-M "C 2 2 21"
_symmetry_group_IT_number 20
_symmetry_cell_setting 'orthorhombic'
loop_
_space_group_symop_operation_xyz
x,y,z
-x,-y,1/2+z
x,-y,-z
-x,y,1/2-z
1/2+x,1/2+y,z
1/2-x,1/2-y,1/2+z
1/2+x,1/2-y,-z
1/2-x,1/2+y,1/2-z
loop_
_atom_site_type_symbol
_atom_site_label
_atom_site_fract_x
_atom_site_fract_y
_atom_site_fract_z
Si Si1 0.519301 0.695087 0.983807
Si Si2 0.807488 0.874595 0.279461
Si Si3 0.604366 0.433914 0.656974
Si Si4 0.378923 0.893516 0.011750
Si Si5 0.780097 0.190801 0.330953
O O1 0.443750 0.603983 0.028996
O O2 0.455499 0.798874 0.986521
O O3 0.611610 0.709784 0.088947
O O4 0.588823 0.658115 0.866180
O O5 0.696726 0.883823 0.365383
O O6 0.788953 0.787559 0.185810
O O7 0.832264 0.969155 0.198606
O O8 0.500000 0.433854 0.750000
O O9 0.685770 0.347016 0.698963
O O10 0.288317 0.890157 0.903191
O O11 0.435137 0.000000 0.000000
#
# Coordination Sequence:
#
# PCOD9319235 Si02
#       5
#     8   8   8   8   8
#     4  10  24  43  65  97 136 172 222 282 329 402
#     4  11  23  43  66  96 132 175 224 280 329 401
#     4  10  21  40  67  93 127 172 221 271 336 384
#     4  11  22  42  66  94 134 176 216 274 340 400
#     4  10  22  42  64  95 128 177 219 269 336 396
#
# _framework density 22.158852
#
# number of rings (size 3 to 8) (size 9 to 14) (size 15 to 20)
#    0.000    1.600    4.000    0.000    2.800    0.000 
#    3.600    2.000    0.000    0.000    0.000    0.000 
#    0.000    0.000    0.000    0.000    0.000    0.000 
#
# Total GULP energy -111590.079881 kJ/mol
# GULP energy per Si atom -5579.503994 kJ/mol
# Density = 2.210842 g / cm^3
# Si number density = 22.158852 Si / 1000 Ang^3
#
#
#
# Elastic Constant Matrix: (Units=GPa)
#
#
# Indices 1 2 3 4 5 6 
#
# 1 56.1567 48.1302 21.1890 0.0000 0.0000 0.0000
# 2 48.1302 186.9000 26.1513 0.0000 0.0000 0.0000
# 3 21.1890 26.1513 61.2036 0.0000 0.0000 0.0000
# 4 0.0000 0.0000 0.0000 19.7752 0.0000 0.0000
# 5 0.0000 0.0000 0.0000 0.0000 22.5668 0.0000
# 6 0.0000 0.0000 0.0000 0.0000 0.0000 37.3186
#
#
#
# Elastic Compliance Matrix: (Units=1/GPa)
#
#
# Indices 1 2 3 4 5 6 
#
# 1 0.024918 -0.005541 -0.006259 0.000000 0.000000 0.000000
# 2 -0.005541 0.006923 -0.001040 0.000000 0.000000 0.000000
# 3 -0.006259 -0.001040 0.018950 0.000000 0.000000 0.000000
# 4 0.000000 0.000000 0.000000 0.050568 0.000000 0.000000
# 5 0.000000 0.000000 0.000000 0.000000 0.044313 0.000000
# 6 0.000000 0.000000 0.000000 0.000000 0.000000 0.026796
#
#
# Mechanical properties :
#
#
# Convention : Reuss Voigt Hill
#
# Bulk Modulus (GPa) = 39.82282 55.02238 47.42260
# Shear Modulus (GPa) = 24.21086 29.85143 27.03114
#
# Velocity S-wave (km/s) = 3.30904 3.67434 3.49647
# Velocity P-wave (km/s) = 5.71054 6.54873 6.14394
#
# Compressibility (1/GPa) = 0.02511123
#
# Stress axis : x y z
#
# Youngs Moduli (GPa) = 40.13145 144.44893 52.77021
#
# Poissons Ratio (x) = 0.80040 0.33030
# Poissons Ratio (y) = 0.22237 0.05486
# Poissons Ratio (z) = 0.25119 0.15018
#
# Static dielectric constant tensor:
#      x y z
#    x 1.832290 0.000000 0.000000 
#    y 0.000000 1.821800 0.000000 
#    z 0.000000 0.000000 1.829170 
# 
# From -- ./inp_files/14849.got.cif
#   From: 2010.05.17/outbox.cif.g08.bks.cpg/sg20_8_cif.got.tgz:14849.got - 2010.06.03 22:52:26.
