data_PCOD9319404
_publ_section_title
;
Structure prediction by ZEFSAII (Michael W. Deem and Ramdas Pophale) SiO2 
 PCOD9319404
Probable space group: C 2 2 21
;
_chemical_formula_sum "Si O2"
_cell_formula_units_Z 64
_cell_length_a 24.045206
_cell_length_b 8.252812
_cell_length_c 15.531757
_cell_angle_alpha 90.000000
_cell_angle_beta 90.000000
_cell_angle_gamma 90.000000
_cell_volume 3082.130629
_symmetry_space_group_name_H-M "C 2 2 21"
_symmetry_group_IT_number 20
_symmetry_cell_setting 'orthorhombic'
loop_
_space_group_symop_operation_xyz
x,y,z
-x,-y,1/2+z
x,-y,-z
-x,y,1/2-z
1/2+x,1/2+y,z
1/2-x,1/2-y,1/2+z
1/2+x,1/2-y,-z
1/2-x,1/2+y,1/2-z
loop_
_atom_site_type_symbol
_atom_site_label
_atom_site_fract_x
_atom_site_fract_y
_atom_site_fract_z
Si Si1 0.319001 0.813863 0.368298
Si Si2 0.135803 0.891682 0.584305
Si Si3 0.109241 0.214952 0.658272
Si Si4 0.215630 0.379244 0.580821
Si Si5 0.652243 0.811909 0.838051
Si Si6 0.413029 0.198049 0.506375
Si Si7 0.960295 0.694316 0.005169
Si Si8 0.775458 0.309617 0.181501
O O1 0.265981 0.748445 0.421503
O O2 0.374546 0.750315 0.413812
O O3 0.304510 0.766405 0.271182
O O4 0.328408 0.006645 0.363154
O O5 0.084028 0.776904 0.559215
O O6 0.189658 0.790591 0.611193
O O7 0.146546 0.000000 0.500000
O O8 0.119801 0.022275 0.657635
O O9 0.157954 0.291118 0.598475
O O10 0.115421 0.294532 0.751755
O O11 0.054692 0.252552 0.602673
O O12 0.216377 0.500000 0.500000
O O13 0.220179 0.500479 0.661862
O O14 0.617602 0.746085 0.919202
O O15 0.710240 0.723796 0.819761
O O16 0.476894 0.247163 0.514679
O O17 0.414068 0.000000 0.500000
O O18 0.955413 0.500000 0.000000
#
# Coordination Sequence:
#
# PCOD9319404 Si02
#       8
#     8   8   8   8   8   8   8   8
#     4  11  22  41  61  93 132 167 211 265 323 393
#     4  10  23  40  65  90 127 168 213 266 323 388
#     4  11  21  38  65  93 126 164 213 268 327 385
#     4  12  23  37  61  98 132 175 216 260 329 395
#     4  11  23  40  65  93 131 168 213 267 329 389
#     4   9  22  42  65  89 122 171 216 266 319 383
#     4  10  21  42  66  90 119 161 219 265 315 379
#     4  12  22  38  62  95 131 167 207 266 321 393
#
# _framework density 20.764856000000002
#
# number of rings (size 3 to 8) (size 9 to 14) (size 15 to 20)
#    0.000    1.250    2.500    4.125    1.750    2.000 
#    0.000    6.250    5.500    0.000    0.000    0.000 
#    0.000    0.000    0.000    0.000    0.000    0.000 
#
# Total GULP energy -178740.769933 kJ/mol
# GULP energy per Si atom -5585.649060 kJ/mol
# Density = 2.071759 g / cm^3
# Si number density = 20.764856 Si / 1000 Ang^3
#
#
#
# Elastic Constant Matrix: (Units=GPa)
#
#
# Indices 1 2 3 4 5 6 
#
# 1 95.1653 3.1452 36.9438 0.0000 0.0000 0.0000
# 2 3.1452 63.5216 15.2847 0.0000 0.0000 0.0000
# 3 36.9438 15.2847 73.9233 0.0000 0.0000 0.0000
# 4 0.0000 0.0000 0.0000 24.8253 0.0000 0.0000
# 5 0.0000 0.0000 0.0000 0.0000 28.9256 0.0000
# 6 0.0000 0.0000 0.0000 0.0000 0.0000 19.4982
#
#
#
# Elastic Compliance Matrix: (Units=1/GPa)
#
#
# Indices 1 2 3 4 5 6 
#
# 1 0.013095 0.000975 -0.006746 0.000000 0.000000 0.000000
# 2 0.000975 0.016639 -0.003928 0.000000 0.000000 0.000000
# 3 -0.006746 -0.003928 0.017711 0.000000 0.000000 0.000000
# 4 0.000000 0.000000 0.000000 0.040281 0.000000 0.000000
# 5 0.000000 0.000000 0.000000 0.000000 0.034571 0.000000
# 6 0.000000 0.000000 0.000000 0.000000 0.000000 0.051287
#
#
# Mechanical properties :
#
#
# Convention : Reuss Voigt Hill
#
# Bulk Modulus (GPa) = 35.65333 38.15086 36.90210
# Shear Modulus (GPa) = 24.71199 26.46557 25.58878
#
# Velocity S-wave (km/s) = 3.45351 3.57394 3.51424
# Velocity P-wave (km/s) = 5.75409 5.95344 5.85461
#
# Compressibility (1/GPa) = 0.02804787
#
# Stress axis : x y z
#
# Youngs Moduli (GPa) = 76.36780 60.09798 56.46263
#
# Poissons Ratio (x) = -0.05858 0.38088
# Poissons Ratio (y) = -0.07444 0.22176
# Poissons Ratio (z) = 0.51515 0.23604
#
# Static dielectric constant tensor:
#      x y z
#    x 1.714920 0.000000 0.000000 
#    y 0.000000 1.775090 0.000000 
#    z 0.000000 0.000000 1.801410 
# 
# From -- ./inp_files/22039.got.cif
#   From: 2010.05.17/outbox.cif.g08.bks.cpg/sg20_12_cif.got.tgz:22039.got - 2010.06.03 22:52:26.
