data_PCOD9319208
_publ_section_title
;
Structure prediction by ZEFSAII (Michael W. Deem and Ramdas Pophale) SiO2 
 PCOD9319208
Probable space group: C 2 2 21
;
_chemical_formula_sum "Si O2"
_cell_formula_units_Z 40
_cell_length_a 24.171608
_cell_length_b 8.281985
_cell_length_c 8.090439
_cell_angle_alpha 90.000000
_cell_angle_beta 90.000000
_cell_angle_gamma 90.000000
_cell_volume 1619.616043
_symmetry_space_group_name_H-M "C 2 2 21"
_symmetry_group_IT_number 20
_symmetry_cell_setting 'orthorhombic'
loop_
_space_group_symop_operation_xyz
x,y,z
-x,-y,1/2+z
x,-y,-z
-x,y,1/2-z
1/2+x,1/2+y,z
1/2-x,1/2-y,1/2+z
1/2+x,1/2-y,-z
1/2-x,1/2+y,1/2-z
loop_
_atom_site_type_symbol
_atom_site_label
_atom_site_fract_x
_atom_site_fract_y
_atom_site_fract_z
Si Si1 0.970191 0.679388 0.429390
Si Si2 0.135579 0.306248 0.742809
Si Si3 0.924725 0.179771 0.067659
Si Si4 0.229027 0.822053 0.075278
Si Si5 0.664818 0.817547 0.228684
O O1 0.964317 0.500000 0.500000
O O2 0.909940 0.743460 0.380384
O O3 0.000000 0.671827 0.250000
O O4 0.010592 0.776722 0.551360
O O5 0.106022 0.291152 0.567196
O O6 0.188883 0.194050 0.766104
O O7 0.151817 0.492813 0.763432
O O8 0.891591 0.219345 0.234627
O O9 0.917551 0.000000 0.000000
O O10 0.289767 0.771705 0.132089
O O11 0.196895 0.717100 0.940333
O O12 0.232296 0.000000 0.000000
#
# Coordination Sequence:
#
# PCOD9319208 Si02
#       5
#     8   8   8   8   8
#     4  10  21  40  65  92 126 171 223 275 335 411
#     4  11  24  44  65  95 134 178 227 275 338 413
#     4  11  23  41  66  95 130 172 223 287 345 397
#     4  12  25  40  64  97 131 171 221 280 336 398
#     4  12  24  43  68  95 133 180 224 275 341 413
#
# _framework density 24.697210999999999
#
# number of rings (size 3 to 8) (size 9 to 14) (size 15 to 20)
#    0.000    0.800    0.000    9.600    0.000    2.400 
#    0.000   11.000    0.000    0.000    0.000    0.000 
#    0.000    0.000    0.000    0.000    0.000    0.000 
#
# Total GULP energy -112021.394383 kJ/mol
# GULP energy per Si atom -5601.069719 kJ/mol
# Density = 2.464100 g / cm^3
# Si number density = 24.697211 Si / 1000 Ang^3
#
#
#
# Elastic Constant Matrix: (Units=GPa)
#
#
# Indices 1 2 3 4 5 6 
#
# 1 170.7307 -8.2225 32.3688 0.0000 0.0000 0.0000
# 2 -8.2225 32.3166 -7.7907 0.0000 0.0000 0.0000
# 3 32.3688 -7.7907 89.5143 0.0000 0.0000 0.0000
# 4 0.0000 0.0000 0.0000 37.0620 0.0000 0.0000
# 5 0.0000 0.0000 0.0000 0.0000 42.7146 0.0000
# 6 0.0000 0.0000 0.0000 0.0000 0.0000 33.4444
#
#
#
# Elastic Compliance Matrix: (Units=1/GPa)
#
#
# Indices 1 2 3 4 5 6 
#
# 1 0.006325 0.001081 -0.002193 0.000000 0.000000 0.000000
# 2 0.001081 0.031792 0.002376 0.000000 0.000000 0.000000
# 3 -0.002193 0.002376 0.012171 0.000000 0.000000 0.000000
# 4 0.000000 0.000000 0.000000 0.026982 0.000000 0.000000
# 5 0.000000 0.000000 0.000000 0.000000 0.023411 0.000000
# 6 0.000000 0.000000 0.000000 0.000000 0.000000 0.029900
#
#
# Mechanical properties :
#
#
# Convention : Reuss Voigt Hill
#
# Bulk Modulus (GPa) = 18.93393 36.14143 27.53768
# Shear Modulus (GPa) = 34.32674 41.05793 37.69233
#
# Velocity S-wave (km/s) = 3.73219 4.08174 3.91087
# Velocity P-wave (km/s) = 5.12400 6.07287 5.61850
#
# Compressibility (1/GPa) = 0.05281525
#
# Stress axis : x y z
#
# Youngs Moduli (GPa) = 158.10246 31.45480 82.16090
#
# Poissons Ratio (x) = -0.03399 0.18019
# Poissons Ratio (y) = -0.17085 -0.19523
# Poissons Ratio (z) = 0.34674 -0.07474
#
# Static dielectric constant tensor:
#      x y z
#    x 1.950870 0.000000 0.000000 
#    y 0.000000 1.868610 0.000000 
#    z 0.000000 0.000000 1.822710 
# 
# From -- ./inp_files/6095.got.cif
#   From: 2010.05.17/outbox.cif.g08.bks.cpg/sg20_4_cif.got.tgz:6095.got - 2010.06.03 22:52:26.
