data_PCOD9319187
_publ_section_title
;
Structure prediction by ZEFSAII (Michael W. Deem and Ramdas Pophale) SiO2 
 PCOD9319187
Probable space group: C 2 2 21
;
_chemical_formula_sum "Si O2"
_cell_formula_units_Z 64
_cell_length_a 9.848508
_cell_length_b 20.668131
_cell_length_c 14.731006
_cell_angle_alpha 90.000000
_cell_angle_beta 90.000000
_cell_angle_gamma 90.000000
_cell_volume 2998.500006
_symmetry_space_group_name_H-M "C 2 2 21"
_symmetry_group_IT_number 20
_symmetry_cell_setting 'orthorhombic'
loop_
_space_group_symop_operation_xyz
x,y,z
-x,-y,1/2+z
x,-y,-z
-x,y,1/2-z
1/2+x,1/2+y,z
1/2-x,1/2-y,1/2+z
1/2+x,1/2-y,-z
1/2-x,1/2+y,1/2-z
loop_
_atom_site_type_symbol
_atom_site_label
_atom_site_fract_x
_atom_site_fract_y
_atom_site_fract_z
Si Si1 0.878475 0.740152 0.313842
Si Si2 0.029054 0.121748 0.889986
Si Si3 0.024640 0.499999 0.111656
Si Si4 0.278740 0.887374 0.394134
Si Si5 0.121522 0.259849 0.186156
Si Si6 0.470944 0.621746 0.389982
Si Si7 0.788111 0.999999 0.389165
Si Si8 0.721262 0.887377 0.894129
O O1 0.921908 0.808189 0.357063
O O2 0.750001 0.750003 0.249997
O O3 0.837073 0.684524 0.383531
O O4 0.000000 0.716604 0.250000
O O5 0.129457 0.064147 0.861484
O O6 0.874663 0.109720 0.856526
O O7 0.027177 0.122751 0.000002
O O8 0.111681 0.438034 0.142438
O O9 0.111679 0.561965 0.142440
O O10 0.868199 0.499998 0.141288
O O11 0.019081 0.500000 0.000000
O O12 0.337083 0.815474 0.383540
O O13 0.264216 0.903518 0.500002
O O14 0.078090 0.191810 0.142942
O O15 0.000000 0.283398 0.250000
O O16 0.370538 0.564146 0.361482
O O17 0.625334 0.609715 0.356522
O O18 0.787465 0.000000 0.500000
#
# Coordination Sequence:
#
# PCOD9319187 Si02
#       8
#     8   8   8   8   8   8   8   8
#     4  12  25  42  59  86 124 161 199 245 297 351
#     4  10  21  40  64  89 118 158 200 243 296 355
#     4   9  19  35  61  93 119 148 196 251 296 345
#     4  10  21  40  64  89 118 157 200 244 295 355
#     4  12  25  42  59  86 124 161 199 245 297 351
#     4  10  21  40  64  89 118 158 200 243 296 355
#     4   9  19  35  61  93 119 147 196 252 296 345
#     4  10  21  40  64  89 118 157 200 244 295 355
#
# _framework density 21.344006
#
# number of rings (size 3 to 8) (size 9 to 14) (size 15 to 20)
#    0.000    1.750    2.500    1.500    3.500    3.000 
#    0.000    2.500    0.000    0.000    0.000    0.000 
#    0.000    0.000    0.000    0.000    0.000    0.000 
#
# Total GULP energy -178852.816428 kJ/mol
# GULP energy per Si atom -5589.150513 kJ/mol
# Density = 2.129543 g / cm^3
# Si number density = 21.344006 Si / 1000 Ang^3
#
#
#
# Elastic Constant Matrix: (Units=GPa)
#
#
# Indices 1 2 3 4 5 6 
#
# 1 227.7914 98.6058 19.2666 0.0000 0.0000 0.0000
# 2 98.6058 157.4056 9.0389 0.0000 0.0000 0.0000
# 3 19.2666 9.0389 43.3015 0.0000 0.0000 0.0000
# 4 0.0000 0.0000 0.0000 -1.1678 0.0000 0.0000
# 5 0.0000 0.0000 0.0000 0.0000 22.8107 0.0000
# 6 0.0000 0.0000 0.0000 0.0000 0.0000 38.7957
#
#
#
# Elastic Compliance Matrix: (Units=1/GPa)
#
#
# Indices 1 2 3 4 5 6 
#
# 1 0.006185 -0.003761 -0.001967 0.000000 0.000000 0.000000
# 2 -0.003761 0.008718 -0.000146 0.000000 0.000000 0.000000
# 3 -0.001967 -0.000146 0.023999 0.000000 0.000000 0.000000
# 4 0.000000 0.000000 0.000000 -0.856295 0.000000 0.000000
# 5 0.000000 0.000000 0.000000 0.000000 0.043839 0.000000
# 6 0.000000 0.000000 0.000000 0.000000 0.000000 0.025776
#
#
# Mechanical properties :
#
#
# Convention : Reuss Voigt Hill
#
# Bulk Modulus (GPa) = 36.82781 75.81345 56.32063
# Shear Modulus (GPa) = -6.87778 32.19353 12.65787
#
# Velocity S-wave (km/s) = -1.79704 3.88792 2.43789
# Velocity P-wave (km/s) = 3.60362 7.46669 5.86249
#
# Compressibility (1/GPa) = 0.02715339
#
# Stress axis : x y z
#
# Youngs Moduli (GPa) = 161.69450 114.70963 41.66767
#
# Poissons Ratio (x) = 0.43146 0.08194
# Poissons Ratio (y) = 0.60818 0.00609
# Poissons Ratio (z) = 0.31799 0.01677
#
# Static dielectric constant tensor:
#      x y z
#    x 1.742780 0.000000 0.000000 
#    y 0.000000 1.733220 0.000000 
#    z 0.000000 0.000000 1.790550 
# 
# From -- ./inp_files/23894.got.cif
#   From: 2010.05.17/outbox.cif.g08.bks.cpg/sg20_12_cif.got.tgz:23894.got - 2010.06.03 22:52:26.
