data_PCOD9319111
_publ_section_title
;
Structure prediction by ZEFSAII (Michael W. Deem and Ramdas Pophale) SiO2 
 PCOD9319111
Probable space group: C 2 2 21
;
_chemical_formula_sum "Si O2"
_cell_formula_units_Z 40
_cell_length_a 14.848816
_cell_length_b 11.296212
_cell_length_c 11.333543
_cell_angle_alpha 90.000000
_cell_angle_beta 90.000000
_cell_angle_gamma 90.000000
_cell_volume 1901.036068
_symmetry_space_group_name_H-M "C 2 2 21"
_symmetry_group_IT_number 20
_symmetry_cell_setting 'orthorhombic'
loop_
_space_group_symop_operation_xyz
x,y,z
-x,-y,1/2+z
x,-y,-z
-x,y,1/2-z
1/2+x,1/2+y,z
1/2-x,1/2-y,1/2+z
1/2+x,1/2-y,-z
1/2-x,1/2+y,1/2-z
loop_
_atom_site_type_symbol
_atom_site_label
_atom_site_fract_x
_atom_site_fract_y
_atom_site_fract_z
Si Si1 0.997244 0.826947 0.887311
Si Si2 0.966908 0.382287 0.934872
Si Si3 0.128999 0.685419 0.199809
Si Si4 0.594503 0.549306 0.820231
Si Si5 0.697825 0.561156 0.381260
O O1 0.000000 0.791924 0.750000
O O2 0.899712 0.884825 0.912343
O O3 0.074091 0.930187 0.896971
O O4 0.996381 0.712547 0.967482
O O5 0.897954 0.325279 0.838554
O O6 0.059064 0.404656 0.862291
O O7 0.932753 0.500000 0.000000
O O8 0.109421 0.815175 0.145509
O O9 0.230012 0.652227 0.168743
O O10 0.500000 0.555721 0.750000
O O11 0.674172 0.524200 0.727776
O O12 0.732533 0.500000 0.500000
#
# Coordination Sequence:
#
# PCOD9319111 Si02
#       5
#     8   8   8   8   8
#     4   9  22  42  71  95 120 179 232 275 325 409
#     4  11  24  41  64  92 138 180 217 273 344 405
#     4  11  23  41  64  98 135 173 221 275 338 403
#     4   9  19  42  68  91 124 174 225 272 320 396
#     4  10  21  39  66  98 135 171 218 279 336 396
#
# _framework density 21.041156000000001
#
# number of rings (size 3 to 8) (size 9 to 14) (size 15 to 20)
#    0.000    2.400    2.000    1.800    5.600    1.600 
#   18.000    0.000    0.000    0.000    0.000    0.000 
#    0.000    0.000    0.000    0.000    0.000    0.000 
#
# Total GULP energy -111374.929659 kJ/mol
# GULP energy per Si atom -5568.746483 kJ/mol
# Density = 2.099327 g / cm^3
# Si number density = 21.041156 Si / 1000 Ang^3
#
#
#
# Elastic Constant Matrix: (Units=GPa)
#
#
# Indices 1 2 3 4 5 6 
#
# 1 48.3148 29.9098 14.1439 0.0000 0.0000 0.0000
# 2 29.9098 116.7223 69.4252 0.0000 0.0000 0.0000
# 3 14.1439 69.4252 122.1935 0.0000 0.0000 0.0000
# 4 0.0000 0.0000 0.0000 39.0332 0.0000 0.0000
# 5 0.0000 0.0000 0.0000 0.0000 16.5991 0.0000
# 6 0.0000 0.0000 0.0000 0.0000 0.0000 20.4260
#
#
#
# Elastic Compliance Matrix: (Units=1/GPa)
#
#
# Indices 1 2 3 4 5 6 
#
# 1 0.024700 -0.006991 0.001113 0.000000 0.000000 0.000000
# 2 -0.006991 0.014919 -0.007667 0.000000 0.000000 0.000000
# 3 0.001113 -0.007667 0.012411 0.000000 0.000000 0.000000
# 4 0.000000 0.000000 0.000000 0.025619 0.000000 0.000000
# 5 0.000000 0.000000 0.000000 0.000000 0.060244 0.000000
# 6 0.000000 0.000000 0.000000 0.000000 0.000000 0.048957
#
#
# Mechanical properties :
#
#
# Convention : Reuss Voigt Hill
#
# Bulk Modulus (GPa) = 40.09734 57.13203 48.61469
# Shear Modulus (GPa) = 22.49672 26.79512 24.64592
#
# Velocity S-wave (km/s) = 3.27337 3.57243 3.42617
# Velocity P-wave (km/s) = 5.77794 6.65040 6.22946
#
# Compressibility (1/GPa) = 0.02493931
#
# Stress axis : x y z
#
# Youngs Moduli (GPa) = 40.48622 67.02745 80.57304
#
# Poissons Ratio (x) = 0.46861 -0.08969
# Poissons Ratio (y) = 0.28305 0.61777
# Poissons Ratio (z) = -0.04507 0.51392
#
# Static dielectric constant tensor:
#      x y z
#    x 1.752570 0.000000 0.000000 
#    y 0.000000 1.796910 0.000000 
#    z 0.000000 0.000000 1.920690 
# 
# From -- ./inp_files/14843.got.cif
#   From: 2010.05.17/outbox.cif.g08.bks.cpg/sg20_8_cif.got.tgz:14843.got - 2010.06.03 22:52:26.
