data_PCOD9319559
_publ_section_title
;
Structure prediction by ZEFSAII (Michael W. Deem and Ramdas Pophale) SiO2 
 PCOD9319559
Probable space group: C 2 2 21
;
_chemical_formula_sum "Si O2"
_cell_formula_units_Z 28
_cell_length_a 7.442272
_cell_length_b 11.318092
_cell_length_c 14.168666
_cell_angle_alpha 90.000000
_cell_angle_beta 90.000000
_cell_angle_gamma 90.000000
_cell_volume 1193.459597
_symmetry_space_group_name_H-M "C 2 2 21"
_symmetry_group_IT_number 20
_symmetry_cell_setting 'orthorhombic'
loop_
_space_group_symop_operation_xyz
x,y,z
-x,-y,1/2+z
x,-y,-z
-x,y,1/2-z
1/2+x,1/2+y,z
1/2-x,1/2-y,1/2+z
1/2+x,1/2-y,-z
1/2-x,1/2+y,1/2-z
loop_
_atom_site_type_symbol
_atom_site_label
_atom_site_fract_x
_atom_site_fract_y
_atom_site_fract_z
Si Si1 0.500000 0.690812 0.250000
Si Si2 0.738662 0.750364 0.411957
Si Si3 0.692356 0.967090 0.790705
Si Si4 0.918679 0.110393 0.927794
O O1 0.571862 0.760855 0.340033
O O2 0.666833 0.604120 0.224166
O O3 0.835910 0.631750 0.372797
O O4 0.667574 0.719604 0.515196
O O5 0.878259 0.855121 0.404372
O O6 0.500000 0.995060 0.750000
O O7 0.801503 0.073822 0.837877
O O8 0.920008 0.000000 0.000000
#
# Coordination Sequence:
#
# PCOD9319559 Si02
#       4
#     4   8   8   8
#     4   8  20  42  72 102 142 184 234 296 354 418
#     4   9  21  43  70 103 144 182 240 295 355 420
#     4   9  20  44  73 102 138 183 241 288 353 423
#     4  10  21  45  72 103 141 193 235 294 360 420
#
# _framework density 23.461203999999999
#
# number of rings (size 3 to 8) (size 9 to 14) (size 15 to 20)
#    1.714    1.143    0.000    0.000    0.000    2.286 
#    7.714    4.286    6.286    0.000    0.000    0.000 
#    0.000    0.000    0.000    0.000    0.000    0.000 
#
# Total GULP energy -78164.853885 kJ/mol
# GULP energy per Si atom -5583.203849 kJ/mol
# Density = 2.340780 g / cm^3
# Si number density = 23.461204 Si / 1000 Ang^3
#
#
#
# Elastic Constant Matrix: (Units=GPa)
#
#
# Indices 1 2 3 4 5 6 
#
# 1 195.7715 47.6866 66.6625 0.0000 0.0000 0.0000
# 2 47.6866 48.6822 17.4934 0.0000 0.0000 0.0000
# 3 66.6625 17.4934 69.4823 0.0000 0.0000 0.0000
# 4 0.0000 0.0000 0.0000 12.4964 0.0000 0.0000
# 5 0.0000 0.0000 0.0000 0.0000 43.7194 0.0000
# 6 0.0000 0.0000 0.0000 0.0000 0.0000 51.9180
#
#
#
# Elastic Compliance Matrix: (Units=1/GPa)
#
#
# Indices 1 2 3 4 5 6 
#
# 1 0.009071 -0.006331 -0.007109 0.000000 0.000000 0.000000
# 2 -0.006331 0.027003 -0.000725 0.000000 0.000000 0.000000
# 3 -0.007109 -0.000725 0.021395 0.000000 0.000000 0.000000
# 4 0.000000 0.000000 0.000000 0.080023 0.000000 0.000000
# 5 0.000000 0.000000 0.000000 0.000000 0.022873 0.000000
# 6 0.000000 0.000000 0.000000 0.000000 0.000000 0.019261
#
#
# Mechanical properties :
#
#
# Convention : Reuss Voigt Hill
#
# Bulk Modulus (GPa) = 34.31670 64.18012 49.24841
# Shear Modulus (GPa) = 22.97084 33.76634 28.36859
#
# Velocity S-wave (km/s) = 3.13245 3.79785 3.48109
# Velocity P-wave (km/s) = 5.26704 6.82985 6.09871
#
# Compressibility (1/GPa) = 0.02914033
#
# Stress axis : x y z
#
# Youngs Moduli (GPa) = 110.24584 37.03289 46.74034
#
# Poissons Ratio (x) = 0.23444 0.33226
# Poissons Ratio (y) = 0.69794 0.03387
# Poissons Ratio (z) = 0.78370 0.02684
#
# Static dielectric constant tensor:
#      x y z
#    x 1.861230 0.000000 0.000000 
#    y 0.000000 1.925730 0.000000 
#    z 0.000000 0.000000 1.917160 
# 
# From -- ./inp_files/18113.got.cif
#   From: 2010.05.17/outbox.cif.g08.bks.cpg/sg20_10_cif.got.tgz:18113.got - 2010.06.03 22:52:26.
