data_PCOD9319682
_publ_section_title
;
Structure prediction by ZEFSAII (Michael W. Deem and Ramdas Pophale) SiO2 
 PCOD9319682
Probable space group: C 2 2 21
;
_chemical_formula_sum "Si O2"
_cell_formula_units_Z 40
_cell_length_a 26.570377
_cell_length_b 14.241266
_cell_length_c 4.929787
_cell_angle_alpha 90.000000
_cell_angle_beta 90.000000
_cell_angle_gamma 90.000000
_cell_volume 1865.410728
_symmetry_space_group_name_H-M "C 2 2 21"
_symmetry_group_IT_number 20
_symmetry_cell_setting 'orthorhombic'
loop_
_space_group_symop_operation_xyz
x,y,z
-x,-y,1/2+z
x,-y,-z
-x,y,1/2-z
1/2+x,1/2+y,z
1/2-x,1/2-y,1/2+z
1/2+x,1/2-y,-z
1/2-x,1/2+y,1/2-z
loop_
_atom_site_type_symbol
_atom_site_label
_atom_site_fract_x
_atom_site_fract_y
_atom_site_fract_z
Si Si1 0.352416 0.802629 0.584031
Si Si2 0.195448 0.394522 0.393233
Si Si3 0.082121 0.099947 0.609067
Si Si4 0.811875 0.104845 0.624447
Si Si5 0.551827 0.282511 0.893743
O O1 0.328357 0.827064 0.875103
O O2 0.329411 0.702269 0.482957
O O3 0.412469 0.791236 0.549046
O O4 0.335532 0.881547 0.378007
O O5 0.192724 0.500000 0.500000
O O6 0.253615 0.375553 0.313040
O O7 0.141729 0.095013 0.668882
O O8 0.077821 0.173761 0.369007
O O9 0.064056 0.000000 0.500000
O O10 0.052260 0.134726 0.877420
O O11 0.811451 0.000000 0.500000
O O12 0.500000 0.250625 0.750000
#
# Coordination Sequence:
#
# PCOD9319682 Si02
#       5
#     8   8   8   8   8
#     4  11  22  41  63  90 125 166 213 266 322 383
#     4  11  24  40  63  93 126 164 211 266 325 388
#     4  11  22  38  59  90 131 175 218 263 313 387
#     4  10  22  38  61  93 132 171 207 249 312 395
#     4  11  24  41  63  90 123 170 224 276 333 385
#
# _framework density 21.442999
#
# number of rings (size 3 to 8) (size 9 to 14) (size 15 to 20)
#    0.000    1.200    0.000    7.800    0.000    8.000 
#    0.000    1.000    0.000    2.400    0.000    0.000 
#    0.000    0.000    0.000    0.000    0.000    0.000 
#
# Total GULP energy -111431.803979 kJ/mol
# GULP energy per Si atom -5571.590199 kJ/mol
# Density = 2.139419 g / cm^3
# Si number density = 21.442999 Si / 1000 Ang^3
#
#
#
# Elastic Constant Matrix: (Units=GPa)
#
#
# Indices 1 2 3 4 5 6 
#
# 1 130.7330 17.8265 23.6171 0.0000 0.0000 0.0000
# 2 17.8265 50.5724 -5.7951 0.0000 0.0000 0.0000
# 3 23.6171 -5.7951 83.8422 0.0000 0.0000 0.0000
# 4 0.0000 0.0000 0.0000 32.3621 0.0000 0.0000
# 5 0.0000 0.0000 0.0000 0.0000 23.8885 0.0000
# 6 0.0000 0.0000 0.0000 0.0000 0.0000 215.3115
#
#
#
# Elastic Compliance Matrix: (Units=1/GPa)
#
#
# Indices 1 2 3 4 5 6 
#
# 1 0.008581 -0.003328 -0.002647 0.000000 0.000000 0.000000
# 2 -0.003328 0.021222 0.002404 0.000000 0.000000 0.000000
# 3 -0.002647 0.002404 0.012839 0.000000 0.000000 0.000000
# 4 0.000000 0.000000 0.000000 0.030900 0.000000 0.000000
# 5 0.000000 0.000000 0.000000 0.000000 0.041861 0.000000
# 6 0.000000 0.000000 0.000000 0.000000 0.000000 0.004644
#
#
# Mechanical properties :
#
#
# Convention : Reuss Voigt Hill
#
# Bulk Modulus (GPa) = 28.16867 37.38276 32.77571
# Shear Modulus (GPa) = 35.96496 69.61235 52.78866
#
# Velocity S-wave (km/s) = 4.09985 5.70389 4.96705
# Velocity P-wave (km/s) = 5.96462 7.80068 6.94361
#
# Compressibility (1/GPa) = 0.03550044
#
# Stress axis : x y z
#
# Youngs Moduli (GPa) = 116.53331 47.12023 77.88742
#
# Poissons Ratio (x) = 0.15683 0.20619
# Poissons Ratio (y) = 0.38785 -0.18727
# Poissons Ratio (z) = 0.30849 -0.11329
#
# Static dielectric constant tensor:
#      x y z
#    x 1.891860 0.000000 0.000000 
#    y 0.000000 1.801650 0.000000 
#    z 0.000000 0.000000 1.859920 
# 
# From -- ./inp_files/3643.got.cif
#   From: 2010.05.17/outbox.cif.g08.bks.cpg/sg20_2_cif.got.tgz:3643.got - 2010.06.03 22:52:26.
