data_PCOD9319108
_publ_section_title
;
Structure prediction by ZEFSAII (Michael W. Deem and Ramdas Pophale) SiO2 
 PCOD9319108
Probable space group: C 2 2 21
;
_chemical_formula_sum "Si O2"
_cell_formula_units_Z 44
_cell_length_a 5.419026
_cell_length_b 26.109770
_cell_length_c 14.344300
_cell_angle_alpha 90.000000
_cell_angle_beta 90.000000
_cell_angle_gamma 90.000000
_cell_volume 2029.568157
_symmetry_space_group_name_H-M "C 2 2 21"
_symmetry_group_IT_number 20
_symmetry_cell_setting 'orthorhombic'
loop_
_space_group_symop_operation_xyz
x,y,z
-x,-y,1/2+z
x,-y,-z
-x,y,1/2-z
1/2+x,1/2+y,z
1/2-x,1/2-y,1/2+z
1/2+x,1/2-y,-z
1/2-x,1/2+y,1/2-z
loop_
_atom_site_type_symbol
_atom_site_label
_atom_site_fract_x
_atom_site_fract_y
_atom_site_fract_z
Si Si1 0.783085 0.770686 0.545223
Si Si2 0.602243 0.881334 0.840246
Si Si3 0.500000 0.542293 0.250000
Si Si4 0.248016 0.310710 0.190956
Si Si5 0.213028 0.957334 0.933456
Si Si6 0.427949 0.363998 0.003495
O O1 0.523296 0.754643 0.502284
O O2 0.784341 0.746506 0.648221
O O3 0.833248 0.829546 0.520537
O O4 0.500000 0.851667 0.750000
O O5 0.793393 0.920504 0.792384
O O6 0.407293 0.917144 0.892881
O O7 0.745520 0.850418 0.918187
O O8 0.397083 0.514946 0.341273
O O9 0.500000 0.312893 0.250000
O O10 0.000000 0.323573 0.250000
O O11 0.303590 0.347502 0.100825
O O12 0.009883 0.922983 0.988697
O O13 0.322764 0.000000 0.000000
#
# Coordination Sequence:
#
# PCOD9319108 Si02
#       6
#     8   8   4   8   8   8
#     4  10  22  42  68  92 127 177 224 277 332 392
#     4   9  19  38  64  92 127 165 225 282 334 391
#     4   8  18  40  58  90 126 160 212 290 318 402
#     4  11  24  44  66 101 146 179 223 278 338 421
#     4  10  21  39  66  95 130 174 222 276 338 395
#     4  10  23  41  69  92 136 178 224 276 341 402
#
# _framework density 21.679487000000002
#
# number of rings (size 3 to 8) (size 9 to 14) (size 15 to 20)
#    0.000    2.182    0.000    2.182    7.636    2.909 
#   11.455    0.000    0.000    0.000    0.000    0.000 
#    0.000    0.000    0.000    0.000    0.000    0.000 
#
# Total GULP energy -122608.564498 kJ/mol
# GULP energy per Si atom -5573.116568 kJ/mol
# Density = 2.163014 g / cm^3
# Si number density = 21.679487 Si / 1000 Ang^3
#
#
#
# Elastic Constant Matrix: (Units=GPa)
#
#
# Indices 1 2 3 4 5 6 
#
# 1 112.4313 17.3590 57.9686 0.0000 0.0000 0.0000
# 2 17.3590 44.2908 39.4767 0.0000 0.0000 0.0000
# 3 57.9686 39.4767 149.8301 0.0000 0.0000 0.0000
# 4 0.0000 0.0000 0.0000 32.5265 0.0000 0.0000
# 5 0.0000 0.0000 0.0000 0.0000 39.0080 0.0000
# 6 0.0000 0.0000 0.0000 0.0000 0.0000 -0.2006
#
#
#
# Elastic Compliance Matrix: (Units=1/GPa)
#
#
# Indices 1 2 3 4 5 6 
#
# 1 0.011127 -0.000685 -0.004124 0.000000 0.000000 0.000000
# 2 -0.000685 0.029550 -0.007521 0.000000 0.000000 0.000000
# 3 -0.004124 -0.007521 0.010251 0.000000 0.000000 0.000000
# 4 0.000000 0.000000 0.000000 0.030744 0.000000 0.000000
# 5 0.000000 0.000000 0.000000 0.000000 0.025636 0.000000
# 6 0.000000 0.000000 0.000000 0.000000 0.000000 -4.984044
#
#
# Mechanical properties :
#
#
# Convention : Reuss Voigt Hill
#
# Bulk Modulus (GPa) = 38.06915 59.57342 48.82129
# Shear Modulus (GPa) = -1.03235 27.04997 13.00881
#
# Velocity S-wave (km/s) = -0.69081 3.53614 2.45225
# Velocity P-wave (km/s) = 4.11847 6.64915 5.53051
#
# Compressibility (1/GPa) = 0.02626799
#
# Stress axis : x y z
#
# Youngs Moduli (GPa) = 89.87517 33.84126 97.54696
#
# Poissons Ratio (x) = 0.02317 0.40232
# Poissons Ratio (y) = 0.06154 0.73362
# Poissons Ratio (z) = 0.37068 0.25451
#
# Static dielectric constant tensor:
#      x y z
#    x 1.839340 0.000000 0.000000 
#    y 0.000000 1.796880 0.000000 
#    z 0.000000 0.000000 1.834340 
# 
# From -- ./inp_files/17739.got.cif
#   From: 2010.05.17/outbox.cif.g08.bks.cpg/sg20_9_cif.got.tgz:17739.got - 2010.06.03 22:52:26.
