data_PCOD9319895
_publ_section_title
;
Structure prediction by ZEFSAII (Michael W. Deem and Ramdas Pophale) SiO2 
 PCOD9319895
Probable space group: C 2 2 21
;
_chemical_formula_sum "Si O2"
_cell_formula_units_Z 40
_cell_length_a 9.866691
_cell_length_b 11.843164
_cell_length_c 15.449453
_cell_angle_alpha 90.000000
_cell_angle_beta 90.000000
_cell_angle_gamma 90.000000
_cell_volume 1805.312454
_symmetry_space_group_name_H-M "C 2 2 21"
_symmetry_group_IT_number 20
_symmetry_cell_setting 'orthorhombic'
loop_
_space_group_symop_operation_xyz
x,y,z
-x,-y,1/2+z
x,-y,-z
-x,y,1/2-z
1/2+x,1/2+y,z
1/2-x,1/2-y,1/2+z
1/2+x,1/2-y,-z
1/2-x,1/2+y,1/2-z
loop_
_atom_site_type_symbol
_atom_site_label
_atom_site_fract_x
_atom_site_fract_y
_atom_site_fract_z
Si Si1 0.247231 0.940282 0.082692
Si Si2 0.647928 0.858557 0.245661
Si Si3 0.727445 0.115113 0.944542
Si Si4 0.915604 0.111491 0.320562
Si Si5 0.507109 0.299345 0.995290
O O1 0.309342 0.858717 0.153889
O O2 0.111758 0.879147 0.047788
O O3 0.209576 0.044042 0.144129
O O4 0.317223 0.000000 0.000000
O O5 0.500000 0.914136 0.250000
O O6 0.720554 0.907217 0.159390
O O7 0.633199 0.727442 0.220687
O O8 0.858645 0.196032 0.962387
O O9 0.592048 0.184541 0.975190
O O10 0.739500 0.000000 0.000000
O O11 0.007225 0.140890 0.402446
O O12 0.000000 0.043879 0.250000
#
# Coordination Sequence:
#
# PCOD9319895 Si02
#       5
#     8   8   8   8   8
#     4  10  22  40  69  98 135 187 243 294 369 444
#     4  10  24  42  63 101 141 181 240 302 364 434
#     4  11  25  46  73 105 144 192 240 304 367 435
#     4   9  20  39  66  90 129 183 225 290 361 423
#     4  10  24  42  68 107 138 183 245 298 363 443
#
# _framework density 22.156828999999998
#
# number of rings (size 3 to 8) (size 9 to 14) (size 15 to 20)
#    0.000    2.000    0.000    1.800   14.000    0.800 
#    7.200    1.000    0.000    0.000    0.000    0.000 
#    0.000    0.000    0.000    0.000    0.000    0.000 
#
# Total GULP energy -111425.568995 kJ/mol
# GULP energy per Si atom -5571.278450 kJ/mol
# Density = 2.210640 g / cm^3
# Si number density = 22.156829 Si / 1000 Ang^3
#
#
#
# Elastic Constant Matrix: (Units=GPa)
#
#
# Indices 1 2 3 4 5 6 
#
# 1 83.5616 12.7513 49.0930 0.0000 0.0000 0.0000
# 2 12.7513 51.1913 17.3535 0.0000 0.0000 0.0000
# 3 49.0930 17.3535 148.2435 0.0000 0.0000 0.0000
# 4 0.0000 0.0000 0.0000 29.1294 0.0000 0.0000
# 5 0.0000 0.0000 0.0000 0.0000 290.9693 0.0000
# 6 0.0000 0.0000 0.0000 0.0000 0.0000 95.2281
#
#
#
# Elastic Compliance Matrix: (Units=1/GPa)
#
#
# Indices 1 2 3 4 5 6 
#
# 1 0.015082 -0.002149 -0.004743 0.000000 0.000000 0.000000
# 2 -0.002149 0.020648 -0.001705 0.000000 0.000000 0.000000
# 3 -0.004743 -0.001705 0.008516 0.000000 0.000000 0.000000
# 4 0.000000 0.000000 0.000000 0.034330 0.000000 0.000000
# 5 0.000000 0.000000 0.000000 0.000000 0.003437 0.000000
# 6 0.000000 0.000000 0.000000 0.000000 0.000000 0.010501
#
#
# Mechanical properties :
#
#
# Convention : Reuss Voigt Hill
#
# Bulk Modulus (GPa) = 36.96711 49.04357 43.00534
# Shear Modulus (GPa) = 42.11422 96.65193 69.38308
#
# Velocity S-wave (km/s) = 4.36447 6.61184 5.60201
# Velocity P-wave (km/s) = 6.48989 8.97058 7.82911
#
# Compressibility (1/GPa) = 0.02705108
#
# Stress axis : x y z
#
# Youngs Moduli (GPa) = 66.30567 48.43089 117.42605
#
# Poissons Ratio (x) = 0.10407 0.55695
# Poissons Ratio (y) = 0.14248 0.20026
# Poissons Ratio (z) = 0.31449 0.08260
#
# Static dielectric constant tensor:
#      x y z
#    x 1.955530 0.000000 0.000000 
#    y 0.000000 1.372950 0.000000 
#    z 0.000000 0.000000 1.514140 
# 
# From -- ./inp_files/19777.got.cif
#   From: 2010.05.17/outbox.cif.g08.bks.cpg/sg20_10_cif.got.tgz:19777.got - 2010.06.03 22:52:26.
