data_PCOD9319402
_publ_section_title
;
Structure prediction by ZEFSAII (Michael W. Deem and Ramdas Pophale) SiO2 
 PCOD9319402
Probable space group: C 2 2 21
;
_chemical_formula_sum "Si O2"
_cell_formula_units_Z 60
_cell_length_a 15.047979
_cell_length_b 7.831133
_cell_length_c 23.811734
_cell_angle_alpha 90.000000
_cell_angle_beta 90.000000
_cell_angle_gamma 90.000000
_cell_volume 2806.039620
_symmetry_space_group_name_H-M "C 2 2 21"
_symmetry_group_IT_number 20
_symmetry_cell_setting 'orthorhombic'
loop_
_space_group_symop_operation_xyz
x,y,z
-x,-y,1/2+z
x,-y,-z
-x,y,1/2-z
1/2+x,1/2+y,z
1/2-x,1/2-y,1/2+z
1/2+x,1/2-y,-z
1/2-x,1/2+y,1/2-z
loop_
_atom_site_type_symbol
_atom_site_label
_atom_site_fract_x
_atom_site_fract_y
_atom_site_fract_z
Si Si1 0.724015 0.647084 0.190407
Si Si2 0.288340 0.687743 0.988114
Si Si3 0.745779 0.239500 0.188657
Si Si4 0.432689 0.597619 0.381286
Si Si5 0.544745 0.741180 0.811512
Si Si6 0.380859 0.828200 0.880617
Si Si7 0.117137 0.272156 0.403002
Si Si8 0.350075 0.500000 0.500000
O O1 0.735718 0.443726 0.187414
O O2 0.704682 0.694501 0.253865
O O3 0.652108 0.697882 0.143802
O O4 0.819465 0.718661 0.172660
O O5 0.340624 0.712990 0.929877
O O6 0.250137 0.500000 0.000000
O O7 0.363779 0.715409 0.034470
O O8 0.213960 0.833598 0.997790
O O9 0.643645 0.177559 0.188451
O O10 0.807337 0.189753 0.136786
O O11 0.448741 0.453543 0.333806
O O12 0.519546 0.712445 0.386072
O O13 0.405979 0.514188 0.441674
O O14 0.500000 0.753409 0.750000
O O15 0.480787 0.817437 0.859134
O O16 0.368995 0.024391 0.899232
#
# Coordination Sequence:
#
# PCOD9319402 Si02
#       8
#     8   8   8   8   8   8   8   4
#     4  10  21  42  65  97 133 187 218 294 352 410
#     4  12  24  46  79 101 137 191 234 291 368 421
#     4  10  23  40  66  92 139 178 231 282 354 420
#     4  11  26  43  69 100 142 184 233 301 354 417
#     4  11  23  41  67 102 137 185 236 295 357 422
#     4  11  22  45  69  99 145 177 237 298 348 426
#     4  11  25  45  66 101 139 189 230 299 358 415
#     4  12  24  54  70 102 152 176 242 304 342 434
#
# _framework density 21.382449999999999
#
# number of rings (size 3 to 8) (size 9 to 14) (size 15 to 20)
#    0.000    1.067    4.000    2.400    6.533    2.133 
#    4.800    0.000    0.000    0.000    0.000    0.000 
#    0.000    0.000    0.000    0.000    0.000    0.000 
#
# Total GULP energy -167492.497736 kJ/mol
# GULP energy per Si atom -5583.083258 kJ/mol
# Density = 2.133378 g / cm^3
# Si number density = 21.382450 Si / 1000 Ang^3
#
#
#
# Elastic Constant Matrix: (Units=GPa)
#
#
# Indices 1 2 3 4 5 6 
#
# 1 97.9273 12.1782 32.2565 0.0000 0.0000 0.0000
# 2 12.1782 66.0743 4.2431 0.0000 0.0000 0.0000
# 3 32.2565 4.2431 87.7225 0.0000 0.0000 0.0000
# 4 0.0000 0.0000 0.0000 26.1548 0.0000 0.0000
# 5 0.0000 0.0000 0.0000 0.0000 30.5839 0.0000
# 6 0.0000 0.0000 0.0000 0.0000 0.0000 9.4843
#
#
#
# Elastic Compliance Matrix: (Units=1/GPa)
#
#
# Indices 1 2 3 4 5 6 
#
# 1 0.011855 -0.001911 -0.004267 0.000000 0.000000 0.000000
# 2 -0.001911 0.015490 -0.000047 0.000000 0.000000 0.000000
# 3 -0.004267 -0.000047 0.012971 0.000000 0.000000 0.000000
# 4 0.000000 0.000000 0.000000 0.038234 0.000000 0.000000
# 5 0.000000 0.000000 0.000000 0.000000 0.032697 0.000000
# 6 0.000000 0.000000 0.000000 0.000000 0.000000 0.105438
#
#
# Mechanical properties :
#
#
# Convention : Reuss Voigt Hill
#
# Bulk Modulus (GPa) = 35.88504 38.78663 37.33583
# Shear Modulus (GPa) = 20.97129 26.78101 23.87615
#
# Velocity S-wave (km/s) = 3.13512 3.54287 3.34522
# Velocity P-wave (km/s) = 5.47031 5.90887 5.69381
#
# Compressibility (1/GPa) = 0.02786677
#
# Stress axis : x y z
#
# Youngs Moduli (GPa) = 84.35465 64.55917 77.09670
#
# Poissons Ratio (x) = 0.12337 0.32895
# Poissons Ratio (y) = 0.16120 0.00359
# Poissons Ratio (z) = 0.35991 0.00301
#
# Static dielectric constant tensor:
#      x y z
#    x 1.816090 0.000000 0.000000 
#    y 0.000000 1.811790 0.000000 
#    z 0.000000 0.000000 1.753740 
# 
# From -- ./inp_files/29326.got.cif
#   From: 2010.05.17/outbox.cif.g08.bks.cpg/sg20_15_cif.got.tgz:29326.got - 2010.06.03 22:52:26.
