data_PCOD9319820
_publ_section_title
;
Structure prediction by ZEFSAII (Michael W. Deem and Ramdas Pophale) SiO2 
 PCOD9319820
Probable space group: C 2 2 21
;
_chemical_formula_sum "Si O2"
_cell_formula_units_Z 48
_cell_length_a 17.978746
_cell_length_b 8.400776
_cell_length_c 14.997415
_cell_angle_alpha 90.000000
_cell_angle_beta 90.000000
_cell_angle_gamma 90.000000
_cell_volume 2265.140842
_symmetry_space_group_name_H-M "C 2 2 21"
_symmetry_group_IT_number 20
_symmetry_cell_setting 'orthorhombic'
loop_
_space_group_symop_operation_xyz
x,y,z
-x,-y,1/2+z
x,-y,-z
-x,y,1/2-z
1/2+x,1/2+y,z
1/2-x,1/2-y,1/2+z
1/2+x,1/2-y,-z
1/2-x,1/2+y,1/2-z
loop_
_atom_site_type_symbol
_atom_site_label
_atom_site_fract_x
_atom_site_fract_y
_atom_site_fract_z
Si Si1 0.960803 0.724475 0.159606
Si Si2 0.698638 0.631065 0.652604
Si Si3 0.401949 0.089065 0.904073
Si Si4 0.175029 0.686781 0.987185
Si Si5 0.756163 0.761561 0.838921
Si Si6 0.523027 0.684553 0.020468
O O1 0.887668 0.828632 0.137604
O O2 0.933806 0.542469 0.163216
O O3 0.000000 0.776134 0.250000
O O4 0.016156 0.733035 0.076361
O O5 0.750751 0.694288 0.572721
O O6 0.723726 0.714673 0.743774
O O7 0.715279 0.443623 0.659624
O O8 0.324959 0.152140 0.866661
O O9 0.459689 0.232848 0.920295
O O10 0.392527 0.000000 0.000000
O O11 0.156388 0.500000 0.000000
O O12 0.194772 0.755048 0.083913
O O13 0.105313 0.776866 0.944536
O O14 0.511734 0.500000 0.000000
#
# Coordination Sequence:
#
# PCOD9319820 Si02
#       6
#     8   8   8   8   8   8
#     4  11  23  41  62  88 123 160 202 253 305 359
#     4  11  24  40  64  93 123 162 207 255 307 366
#     4  10  22  40  63  87 119 163 205 248 307 367
#     4  10  22  41  62  87 123 161 199 248 305 362
#     4  11  23  41  63  91 125 161 205 256 309 365
#     4  11  23  39  62  90 120 159 203 248 303 365
#
# _framework density 21.190736000000001
#
# number of rings (size 3 to 8) (size 9 to 14) (size 15 to 20)
#    0.000    1.333    0.000    6.500    0.000   10.000 
#    0.000    1.667    0.000    0.000    0.000    0.000 
#    0.000    0.000    0.000    0.000    0.000    0.000 
#
# Total GULP energy -134269.082177 kJ/mol
# GULP energy per Si atom -5594.545091 kJ/mol
# Density = 2.114250 g / cm^3
# Si number density = 21.190736 Si / 1000 Ang^3
#
#
#
# Elastic Constant Matrix: (Units=GPa)
#
#
# Indices 1 2 3 4 5 6 
#
# 1 95.7751 19.5264 4.3300 0.0000 0.0000 0.0000
# 2 19.5264 54.9605 -12.4119 0.0000 0.0000 0.0000
# 3 4.3300 -12.4119 49.7819 0.0000 0.0000 0.0000
# 4 0.0000 0.0000 0.0000 24.2027 0.0000 0.0000
# 5 0.0000 0.0000 0.0000 0.0000 32.8045 0.0000
# 6 0.0000 0.0000 0.0000 0.0000 0.0000 27.1750
#
#
#
# Elastic Compliance Matrix: (Units=1/GPa)
#
#
# Indices 1 2 3 4 5 6 
#
# 1 0.011466 -0.004555 -0.002133 0.000000 0.000000 0.000000
# 2 -0.004555 0.021090 0.005655 0.000000 0.000000 0.000000
# 3 -0.002133 0.005655 0.021683 0.000000 0.000000 0.000000
# 4 0.000000 0.000000 0.000000 0.041318 0.000000 0.000000
# 5 0.000000 0.000000 0.000000 0.000000 0.030484 0.000000
# 6 0.000000 0.000000 0.000000 0.000000 0.000000 0.036798
#
#
# Mechanical properties :
#
#
# Convention : Reuss Voigt Hill
#
# Bulk Modulus (GPa) = 19.16753 24.82296 21.99524
# Shear Modulus (GPa) = 27.42761 29.44132 28.43447
#
# Velocity S-wave (km/s) = 3.60157 3.73144 3.66708
# Velocity P-wave (km/s) = 5.13419 5.50494 5.32280
#
# Compressibility (1/GPa) = 0.05217157
#
# Stress axis : x y z
#
# Youngs Moduli (GPa) = 87.21182 47.41503 46.11912
#
# Poissons Ratio (x) = 0.21600 0.09838
# Poissons Ratio (y) = 0.39729 -0.26078
# Poissons Ratio (z) = 0.18604 -0.26811
#
# Static dielectric constant tensor:
#      x y z
#    x 1.738030 0.000000 0.000000 
#    y 0.000000 1.770730 0.000000 
#    z 0.000000 0.000000 1.743780 
# 
# From -- ./inp_files/21305.got.cif
#   From: 2010.05.17/outbox.cif.g08.bks.cpg/sg20_11_cif.got.tgz:21305.got - 2010.06.03 22:52:26.
