data_PCOD9319375
_publ_section_title
;
Structure prediction by ZEFSAII (Michael W. Deem and Ramdas Pophale) SiO2 
 PCOD9319375
Probable space group: C 2 2 21
;
_chemical_formula_sum "Si O2"
_cell_formula_units_Z 48
_cell_length_a 8.473031
_cell_length_b 11.880091
_cell_length_c 21.132758
_cell_angle_alpha 90.000000
_cell_angle_beta 90.000000
_cell_angle_gamma 90.000000
_cell_volume 2127.231436
_symmetry_space_group_name_H-M "C 2 2 21"
_symmetry_group_IT_number 20
_symmetry_cell_setting 'orthorhombic'
loop_
_space_group_symop_operation_xyz
x,y,z
-x,-y,1/2+z
x,-y,-z
-x,y,1/2-z
1/2+x,1/2+y,z
1/2-x,1/2-y,1/2+z
1/2+x,1/2-y,-z
1/2-x,1/2+y,1/2-z
loop_
_atom_site_type_symbol
_atom_site_label
_atom_site_fract_x
_atom_site_fract_y
_atom_site_fract_z
Si Si1 0.933612 0.000000 0.000000
Si Si2 0.140106 0.823919 0.951120
Si Si3 0.114091 0.633636 0.560085
Si Si4 0.173940 0.147338 0.610067
Si Si5 0.072072 0.534226 0.127394
Si Si6 0.838701 0.769924 0.347262
Si Si7 0.000000 0.644622 0.250000
O O1 0.841178 0.093849 0.960585
O O2 0.035128 0.935595 0.946058
O O3 0.252235 0.772176 0.897372
O O4 0.018277 0.721802 0.960454
O O5 0.243610 0.853475 0.012075
O O6 0.185400 0.667103 0.628865
O O7 0.035653 0.513080 0.571642
O O8 0.999998 0.162368 0.638493
O O9 0.296463 0.060991 0.642171
O O10 0.154261 0.653135 0.112201
O O11 0.972253 0.566590 0.189518
O O12 0.858598 0.724283 0.275593
#
# Coordination Sequence:
#
# PCOD9319375 Si02
#       7
#     4   8   8   8   8   8   4
#     4  12  22  34  58  88 124 152 198 234 284 382
#     4  11  23  37  57  95 121 164 192 240 292 382
#     4  11  20  41  62  87 129 159 201 240 312 352
#     4  11  23  38  61  86 127 157 201 240 313 351
#     4   9  23  40  62  86 120 161 200 262 295 370
#     4  10  21  42  61  89 118 160 204 262 297 364
#     4   8  22  42  64  88 116 156 220 246 326 340
#
# _framework density 22.564540999999998
#
# number of rings (size 3 to 8) (size 9 to 14) (size 15 to 20)
#    1.000    0.667    3.333    1.000    2.333    1.333 
#    0.000    0.000    0.000    2.000    0.000    0.000 
#    0.000    0.000    0.000    0.000    0.000    0.000 
#
# Total GULP energy -133813.384499 kJ/mol
# GULP energy per Si atom -5575.557687 kJ/mol
# Density = 2.251318 g / cm^3
# Si number density = 22.564541 Si / 1000 Ang^3
#
#
#
# Elastic Constant Matrix: (Units=GPa)
#
#
# Indices 1 2 3 4 5 6 
#
# 1 72.3326 19.9480 16.2303 0.0000 0.0000 0.0000
# 2 19.9480 89.4034 17.3067 0.0000 0.0000 0.0000
# 3 16.2303 17.3067 52.3054 0.0000 0.0000 0.0000
# 4 0.0000 0.0000 0.0000 36.5012 0.0000 0.0000
# 5 0.0000 0.0000 0.0000 0.0000 19.1945 0.0000
# 6 0.0000 0.0000 0.0000 0.0000 0.0000 22.6704
#
#
#
# Elastic Compliance Matrix: (Units=1/GPa)
#
#
# Indices 1 2 3 4 5 6 
#
# 1 0.015442 -0.002690 -0.003902 0.000000 0.000000 0.000000
# 2 -0.002690 0.012419 -0.003274 0.000000 0.000000 0.000000
# 3 -0.003902 -0.003274 0.021413 0.000000 0.000000 0.000000
# 4 0.000000 0.000000 0.000000 0.027396 0.000000 0.000000
# 5 0.000000 0.000000 0.000000 0.000000 0.052098 0.000000
# 6 0.000000 0.000000 0.000000 0.000000 0.000000 0.044110
#
#
# Mechanical properties :
#
#
# Convention : Reuss Voigt Hill
#
# Bulk Modulus (GPa) = 33.85056 35.66794 34.75925
# Shear Modulus (GPa) = 24.69627 26.37696 25.53661
#
# Velocity S-wave (km/s) = 3.31187 3.42271 3.36775
# Velocity P-wave (km/s) = 5.44600 5.60904 5.52812
#
# Compressibility (1/GPa) = 0.02954161
#
# Stress axis : x y z
#
# Youngs Moduli (GPa) = 64.75663 80.51914 46.70147
#
# Poissons Ratio (x) = 0.21662 0.18221
# Poissons Ratio (y) = 0.17422 0.15292
# Poissons Ratio (z) = 0.25266 0.26366
#
# Static dielectric constant tensor:
#      x y z
#    x 1.893590 0.000000 0.000000 
#    y 0.000000 1.846140 0.000000 
#    z 0.000000 0.000000 1.863880 
# 
# From -- ./inp_files/30097.got.cif
#   From: 2010.05.17/outbox.cif.g08.bks.cpg/sg20_16_cif.got.tgz:30097.got - 2010.06.03 22:52:26.
