data_PCOD9319321
_publ_section_title
;
Structure prediction by ZEFSAII (Michael W. Deem and Ramdas Pophale) SiO2 
 PCOD9319321
Probable space group: C 2 2 21
;
_chemical_formula_sum "Si O2"
_cell_formula_units_Z 56
_cell_length_a 6.510874
_cell_length_b 13.984393
_cell_length_c 27.828022
_cell_angle_alpha 90.000000
_cell_angle_beta 90.000000
_cell_angle_gamma 90.000000
_cell_volume 2533.758678
_symmetry_space_group_name_H-M "C 2 2 21"
_symmetry_group_IT_number 20
_symmetry_cell_setting 'orthorhombic'
loop_
_space_group_symop_operation_xyz
x,y,z
-x,-y,1/2+z
x,-y,-z
-x,y,1/2-z
1/2+x,1/2+y,z
1/2-x,1/2-y,1/2+z
1/2+x,1/2-y,-z
1/2-x,1/2+y,1/2-z
loop_
_atom_site_type_symbol
_atom_site_label
_atom_site_fract_x
_atom_site_fract_y
_atom_site_fract_z
Si Si1 0.569233 0.000000 0.000000
Si Si2 0.245004 0.217858 0.934028
Si Si3 0.212793 0.966975 0.332117
Si Si4 0.524917 0.085050 0.096119
Si Si5 0.163638 0.181065 0.531061
Si Si6 0.175321 0.903912 0.824433
Si Si7 0.614820 0.215908 0.874041
Si Si8 0.500000 0.951195 0.750000
O O1 0.707434 0.088143 0.982152
O O2 0.453571 0.959189 0.954186
O O3 0.399286 0.176189 0.894652
O O4 0.133892 0.312822 0.912898
O O5 0.060445 0.151147 0.950605
O O6 0.352519 0.253316 0.983557
O O7 0.297214 0.021428 0.379308
O O8 0.373963 0.988623 0.289411
O O9 0.990731 0.011325 0.319913
O O10 0.238514 0.856475 0.345694
O O11 0.337237 0.082303 0.132624
O O12 0.269972 0.236432 0.575479
O O13 0.067118 0.805817 0.840419
O O14 0.320997 0.894243 0.777907
#
# Coordination Sequence:
#
# PCOD9319321 Si02
#       8
#     4   8   8   8   8   8   8   4
#     4  10  22  42  60  98 142 192 248 280 344 414
#     4  11  22  40  63  97 146 189 243 289 345 419
#     4  11  24  48  70 106 144 180 238 301 369 442
#     4  10  21  41  66  98 144 186 237 293 348 418
#     4  11  22  39  63  98 139 195 240 286 346 411
#     4  11  24  48  76 100 143 183 229 309 377 434
#     4  12  24  43  71 109 138 190 244 294 356 440
#     4  10  26  52  72 106 134 180 228 308 386 442
#
# _framework density 22.101551000000001
#
# number of rings (size 3 to 8) (size 9 to 14) (size 15 to 20)
#    0.000    1.143    5.714    0.429    0.000    2.286 
#    5.143    1.429    0.000    0.000    0.000    0.000 
#    0.000    0.000    0.000    0.000    0.000    0.000 
#
# Total GULP energy -156365.073579 kJ/mol
# GULP energy per Si atom -5584.466914 kJ/mol
# Density = 2.205125 g / cm^3
# Si number density = 22.101551 Si / 1000 Ang^3
#
#
#
# Elastic Constant Matrix: (Units=GPa)
#
#
# Indices 1 2 3 4 5 6 
#
# 1 79.1943 1.7313 21.5454 0.0000 0.0000 0.0000
# 2 1.7313 53.5557 17.8528 0.0000 0.0000 0.0000
# 3 21.5454 17.8528 108.5693 0.0000 0.0000 0.0000
# 4 0.0000 0.0000 0.0000 20.6011 0.0000 0.0000
# 5 0.0000 0.0000 0.0000 0.0000 43.4908 0.0000
# 6 0.0000 0.0000 0.0000 0.0000 0.0000 17.9760
#
#
#
# Elastic Compliance Matrix: (Units=1/GPa)
#
#
# Indices 1 2 3 4 5 6 
#
# 1 0.013359 0.000478 -0.002730 0.000000 0.000000 0.000000
# 2 0.000478 0.019772 -0.003346 0.000000 0.000000 0.000000
# 3 -0.002730 -0.003346 0.010303 0.000000 0.000000 0.000000
# 4 0.000000 0.000000 0.000000 0.048541 0.000000 0.000000
# 5 0.000000 0.000000 0.000000 0.000000 0.022993 0.000000
# 6 0.000000 0.000000 0.000000 0.000000 0.000000 0.055630
#
#
# Mechanical properties :
#
#
# Convention : Reuss Voigt Hill
#
# Bulk Modulus (GPa) = 31.01879 35.95314 33.48597
# Shear Modulus (GPa) = 25.96863 29.75959 27.86411
#
# Velocity S-wave (km/s) = 3.43150 3.67344 3.55453
# Velocity P-wave (km/s) = 5.45577 5.85617 5.65951
#
# Compressibility (1/GPa) = 0.03223853
#
# Stress axis : x y z
#
# Youngs Moduli (GPa) = 74.85384 50.57627 97.06234
#
# Poissons Ratio (x) = -0.02418 0.26496
# Poissons Ratio (y) = -0.03579 0.32478
# Poissons Ratio (z) = 0.20433 0.16924
#
# Static dielectric constant tensor:
#      x y z
#    x 1.866180 0.000000 0.000000 
#    y 0.000000 1.834640 0.000000 
#    z 0.000000 0.000000 1.814830 
# 
# From -- ./inp_files/30771.got.cif
#   From: 2010.05.17/outbox.cif.g08.bks.cpg/sg20_16_cif.got.tgz:30771.got - 2010.06.03 22:52:26.
