data_PCOD9319894
_publ_section_title
;
Structure prediction by ZEFSAII (Michael W. Deem and Ramdas Pophale) SiO2 
 PCOD9319894
Probable space group: C 2 2 21
;
_chemical_formula_sum "Si O2"
_cell_formula_units_Z 48
_cell_length_a 17.437905
_cell_length_b 9.122997
_cell_length_c 15.134377
_cell_angle_alpha 90.000000
_cell_angle_beta 90.000000
_cell_angle_gamma 90.000000
_cell_volume 2407.666818
_symmetry_space_group_name_H-M "C 2 2 21"
_symmetry_group_IT_number 20
_symmetry_cell_setting 'orthorhombic'
loop_
_space_group_symop_operation_xyz
x,y,z
-x,-y,1/2+z
x,-y,-z
-x,y,1/2-z
1/2+x,1/2+y,z
1/2-x,1/2-y,1/2+z
1/2+x,1/2-y,-z
1/2-x,1/2+y,1/2-z
loop_
_atom_site_type_symbol
_atom_site_label
_atom_site_fract_x
_atom_site_fract_y
_atom_site_fract_z
Si Si1 0.935746 0.152916 0.681302
Si Si2 0.777107 0.098946 0.782428
Si Si3 0.687759 0.711980 0.344454
Si Si4 0.032258 0.904012 0.584503
Si Si5 0.751326 0.671529 0.527627
Si Si6 0.575588 0.827371 0.995360
O O1 0.855412 0.117512 0.727773
O O2 0.923017 0.271082 0.604952
O O3 0.000000 0.205155 0.750000
O O4 0.973413 0.008898 0.636079
O O5 0.707527 0.161005 0.724076
O O6 0.785032 0.184185 0.875836
O O7 0.765543 0.929464 0.808542
O O8 0.601690 0.651764 0.355306
O O9 0.714248 0.752585 0.443972
O O10 0.988036 0.765245 0.545938
O O11 0.061646 0.000000 0.500000
O O12 0.746816 0.500000 0.500000
O O13 0.840793 0.708471 0.534755
O O14 0.562643 0.000000 0.000000
#
# Coordination Sequence:
#
# PCOD9319894 Si02
#       6
#     8   8   8   8   8   8
#     4  11  22  41  66  97 130 173 225 276 332 402
#     4  11  23  40  66  94 129 169 223 268 328 395
#     4  11  22  43  63  97 127 171 219 270 330 399
#     4  10  22  40  69  92 133 177 222 272 333 399
#     4   9  20  38  62  84 127 169 204 260 329 387
#     4  10  22  43  63  94 134 178 216 275 342 394
#
# _framework density 19.936313999999999
#
# number of rings (size 3 to 8) (size 9 to 14) (size 15 to 20)
#    0.000    1.667    3.333    1.500    4.667    0.000 
#    3.000    1.667    0.000    0.000    0.000    0.000 
#    0.000    0.000    0.000    0.000    0.000    0.000 
#
# Total GULP energy -134049.428301 kJ/mol
# GULP energy per Si atom -5585.392846 kJ/mol
# Density = 1.989094 g / cm^3
# Si number density = 19.936314 Si / 1000 Ang^3
#
#
#
# Elastic Constant Matrix: (Units=GPa)
#
#
# Indices 1 2 3 4 5 6 
#
# 1 78.7021 40.4058 38.6523 0.0000 0.0000 0.0000
# 2 40.4058 49.0877 24.9779 0.0000 0.0000 0.0000
# 3 38.6523 24.9779 110.7647 0.0000 0.0000 0.0000
# 4 0.0000 0.0000 0.0000 27.1677 0.0000 0.0000
# 5 0.0000 0.0000 0.0000 0.0000 46.4324 0.0000
# 6 0.0000 0.0000 0.0000 0.0000 0.0000 17.8658
#
#
#
# Elastic Compliance Matrix: (Units=1/GPa)
#
#
# Indices 1 2 3 4 5 6 
#
# 1 0.023750 -0.017320 -0.004382 0.000000 0.000000 0.000000
# 2 -0.017320 0.035643 -0.001994 0.000000 0.000000 0.000000
# 3 -0.004382 -0.001994 0.011007 0.000000 0.000000 0.000000
# 4 0.000000 0.000000 0.000000 0.036808 0.000000 0.000000
# 5 0.000000 0.000000 0.000000 0.000000 0.021537 0.000000
# 6 0.000000 0.000000 0.000000 0.000000 0.000000 0.055973
#
#
# Mechanical properties :
#
#
# Convention : Reuss Voigt Hill
#
# Bulk Modulus (GPa) = 43.46208 49.62518 46.54363
# Shear Modulus (GPa) = 20.85248 27.26108 24.05678
#
# Velocity S-wave (km/s) = 3.23763 3.70186 3.47750
# Velocity P-wave (km/s) = 5.98533 6.57401 6.28656
#
# Compressibility (1/GPa) = 0.02300856
#
# Stress axis : x y z
#
# Youngs Moduli (GPa) = 42.10438 28.05604 90.85188
#
# Poissons Ratio (x) = 0.48593 0.39813
# Poissons Ratio (y) = 0.72925 0.18113
# Poissons Ratio (z) = 0.18451 0.05593
#
# Static dielectric constant tensor:
#      x y z
#    x 1.704430 0.000000 0.000000 
#    y 0.000000 1.687380 0.000000 
#    z 0.000000 0.000000 1.737020 
# 
# From -- ./inp_files/21295.got.cif
#   From: 2010.05.17/outbox.cif.g08.bks.cpg/sg20_11_cif.got.tgz:21295.got - 2010.06.03 22:52:26.
