data_PCOD9319129
_publ_section_title
;
Structure prediction by ZEFSAII (Michael W. Deem and Ramdas Pophale) SiO2 
 PCOD9319129
Probable space group: C 2 2 21
;
_chemical_formula_sum "Si O2"
_cell_formula_units_Z 44
_cell_length_a 16.301342
_cell_length_b 5.259879
_cell_length_c 23.761347
_cell_angle_alpha 90.000000
_cell_angle_beta 90.000000
_cell_angle_gamma 90.000000
_cell_volume 2037.371230
_symmetry_space_group_name_H-M "C 2 2 21"
_symmetry_group_IT_number 20
_symmetry_cell_setting 'orthorhombic'
loop_
_space_group_symop_operation_xyz
x,y,z
-x,-y,1/2+z
x,-y,-z
-x,y,1/2-z
1/2+x,1/2+y,z
1/2-x,1/2-y,1/2+z
1/2+x,1/2-y,-z
1/2-x,1/2+y,1/2-z
loop_
_atom_site_type_symbol
_atom_site_label
_atom_site_fract_x
_atom_site_fract_y
_atom_site_fract_z
Si Si1 0.440209 0.222272 0.609298
Si Si2 0.204050 0.563799 0.159676
Si Si3 0.934859 0.771715 0.797872
Si Si4 0.671604 0.771526 0.715670
Si Si5 0.436337 0.000000 0.500000
Si Si6 0.190195 0.890023 0.056570
O O1 0.510832 0.331552 0.647602
O O2 0.482035 0.117627 0.552629
O O3 0.366734 0.404130 0.588365
O O4 0.389659 0.011146 0.644670
O O5 0.257911 0.313030 0.171999
O O6 0.234205 0.728361 0.105991
O O7 0.875165 0.471687 0.197828
O O8 0.887354 0.027255 0.782525
O O9 0.000000 0.705996 0.750000
O O10 0.704543 0.802103 0.779492
O O11 0.375966 0.203663 0.472041
O O12 0.234731 0.000000 0.000000
#
# Coordination Sequence:
#
# PCOD9319129 Si02
#       6
#     8   8   8   8   4   8
#     4  10  21  39  69  91 132 170 228 276 330 400
#     4  11  24  41  64  97 132 180 224 282 332 415
#     4  12  25  42  62  99 136 176 215 275 333 407
#     4  12  27  41  64 100 139 178 221 271 349 403
#     4   8  18  36  64 100 118 168 230 278 322 386
#     4   9  19  38  68 101 124 171 232 289 324 389
#
# _framework density 21.596457000000001
#
# number of rings (size 3 to 8) (size 9 to 14) (size 15 to 20)
#    0.000    1.455    1.818    2.727   10.182    0.000 
#    0.000    0.000    2.000    0.000    0.000    0.000 
#    0.000    0.000    0.000    0.000    0.000    0.000 
#
# Total GULP energy -122747.619241 kJ/mol
# GULP energy per Si atom -5579.437238 kJ/mol
# Density = 2.154730 g / cm^3
# Si number density = 21.596457 Si / 1000 Ang^3
#
#
#
# Elastic Constant Matrix: (Units=GPa)
#
#
# Indices 1 2 3 4 5 6 
#
# 1 56.5192 22.3601 32.5917 0.0000 0.0000 0.0000
# 2 22.3601 88.0327 32.8148 0.0000 0.0000 0.0000
# 3 32.5917 32.8148 134.0593 0.0000 0.0000 0.0000
# 4 0.0000 0.0000 0.0000 47.3537 0.0000 0.0000
# 5 0.0000 0.0000 0.0000 0.0000 22.7680 0.0000
# 6 0.0000 0.0000 0.0000 0.0000 0.0000 3.9349
#
#
#
# Elastic Compliance Matrix: (Units=1/GPa)
#
#
# Indices 1 2 3 4 5 6 
#
# 1 0.021734 -0.003907 -0.004327 0.000000 0.000000 0.000000
# 2 -0.003907 0.013202 -0.002282 0.000000 0.000000 0.000000
# 3 -0.004327 -0.002282 0.009070 0.000000 0.000000 0.000000
# 4 0.000000 0.000000 0.000000 0.021118 0.000000 0.000000
# 5 0.000000 0.000000 0.000000 0.000000 0.043921 0.000000
# 6 0.000000 0.000000 0.000000 0.000000 0.000000 0.254134
#
#
# Mechanical properties :
#
#
# Convention : Reuss Voigt Hill
#
# Bulk Modulus (GPa) = 43.52827 50.46048 46.99438
# Shear Modulus (GPa) = 12.75930 27.53430 20.14680
#
# Velocity S-wave (km/s) = 2.43329 3.57451 3.05761
# Velocity P-wave (km/s) = 5.30033 6.36019 5.85430
#
# Compressibility (1/GPa) = 0.02297357
#
# Stress axis : x y z
#
# Youngs Moduli (GPa) = 46.01011 75.74379 110.25395
#
# Poissons Ratio (x) = 0.29596 0.47712
# Poissons Ratio (y) = 0.17978 0.25157
# Poissons Ratio (z) = 0.19911 0.17283
#
# Static dielectric constant tensor:
#      x y z
#    x 1.754080 0.000000 0.000000 
#    y 0.000000 1.929410 0.000000 
#    z 0.000000 0.000000 1.946190 
# 
# From -- ./inp_files/31240.got.cif
#   From: 2010.05.17/outbox.cif.g08.bks.cpg/sg20_16_cif.got.tgz:31240.got - 2010.06.03 22:52:26.
