data_PCOD9319779
_publ_section_title
;
Structure prediction by ZEFSAII (Michael W. Deem and Ramdas Pophale) SiO2 
 PCOD9319779
Probable space group: C 2 2 21
;
_chemical_formula_sum "Si O2"
_cell_formula_units_Z 44
_cell_length_a 4.969027
_cell_length_b 19.183496
_cell_length_c 21.753754
_cell_angle_alpha 90.000000
_cell_angle_beta 90.000000
_cell_angle_gamma 90.000000
_cell_volume 2073.639827
_symmetry_space_group_name_H-M "C 2 2 21"
_symmetry_group_IT_number 20
_symmetry_cell_setting 'orthorhombic'
loop_
_space_group_symop_operation_xyz
x,y,z
-x,-y,1/2+z
x,-y,-z
-x,y,1/2-z
1/2+x,1/2+y,z
1/2-x,1/2-y,1/2+z
1/2+x,1/2-y,-z
1/2-x,1/2+y,1/2-z
loop_
_atom_site_type_symbol
_atom_site_label
_atom_site_fract_x
_atom_site_fract_y
_atom_site_fract_z
Si Si1 0.000000 0.953146 0.750000
Si Si2 0.199879 0.982404 0.068576
Si Si3 0.931007 0.761323 0.582348
Si Si4 0.205940 0.460524 0.864625
Si Si5 0.883712 0.340014 0.812838
Si Si6 0.064908 0.824126 0.049129
O O1 0.173866 0.991359 0.698744
O O2 0.201706 0.903174 0.787089
O O3 0.124660 0.901647 0.070144
O O4 0.442300 0.000252 0.113489
O O5 0.941010 0.028962 0.086072
O O6 0.290421 0.000000 0.000000
O O7 0.803847 0.794078 0.643522
O O8 0.898650 0.813708 0.524344
O O9 0.738458 0.696771 0.564643
O O10 0.232464 0.731005 0.581714
O O11 0.118122 0.380438 0.850851
O O12 0.000000 0.305999 0.750000
#
# Coordination Sequence:
#
# PCOD9319779 Si02
#       6
#     4   8   8   8   8   8
#     4  10  22  42  64 100 118 164 222 266 324 358
#     4  12  24  40  64  97 134 168 213 260 323 392
#     4  10  22  41  64  88 130 161 212 260 313 381
#     4  11  23  39  65  94 130 162 209 273 312 383
#     4  10  22  39  69  96 120 164 218 269 316 365
#     4  10  23  39  62  92 124 171 201 256 322 381
#
# _framework density 21.218727999999999
#
# number of rings (size 3 to 8) (size 9 to 14) (size 15 to 20)
#    0.000    1.455    1.818    2.727    5.091    2.909 
#    0.000    0.000   12.000    0.000    0.000    0.000 
#    0.000    0.000    0.000    0.000    0.000    0.000 
#
# Total GULP energy -122979.615216 kJ/mol
# GULP energy per Si atom -5589.982510 kJ/mol
# Density = 2.117043 g / cm^3
# Si number density = 21.218728 Si / 1000 Ang^3
#
#
#
# Elastic Constant Matrix: (Units=GPa)
#
#
# Indices 1 2 3 4 5 6 
#
# 1 79.1677 0.7754 -3.7882 0.0000 0.0000 0.0000
# 2 0.7754 50.7053 21.4101 0.0000 0.0000 0.0000
# 3 -3.7882 21.4101 71.8318 0.0000 0.0000 0.0000
# 4 0.0000 0.0000 0.0000 27.0107 0.0000 0.0000
# 5 0.0000 0.0000 0.0000 0.0000 30.2600 0.0000
# 6 0.0000 0.0000 0.0000 0.0000 0.0000 83.2965
#
#
#
# Elastic Compliance Matrix: (Units=1/GPa)
#
#
# Indices 1 2 3 4 5 6 
#
# 1 0.012677 -0.000545 0.000831 0.000000 0.000000 0.000000
# 2 -0.000545 0.022585 -0.006760 0.000000 0.000000 0.000000
# 3 0.000831 -0.006760 0.015980 0.000000 0.000000 0.000000
# 4 0.000000 0.000000 0.000000 0.037022 0.000000 0.000000
# 5 0.000000 0.000000 0.000000 0.000000 0.033047 0.000000
# 6 0.000000 0.000000 0.000000 0.000000 0.000000 0.012005
#
#
# Mechanical properties :
#
#
# Convention : Reuss Voigt Hill
#
# Bulk Modulus (GPa) = 26.11433 26.49993 26.30713
# Shear Modulus (GPa) = 31.44090 40.33393 35.88742
#
# Velocity S-wave (km/s) = 3.85353 4.36462 4.11701
# Velocity P-wave (km/s) = 5.66864 6.15759 5.91817
#
# Compressibility (1/GPa) = 0.03829316
#
# Stress axis : x y z
#
# Youngs Moduli (GPa) = 78.88606 44.27785 62.57749
#
# Poissons Ratio (x) = 0.02412 -0.05199
# Poissons Ratio (y) = 0.04297 0.42304
# Poissons Ratio (z) = -0.06554 0.29933
#
# Static dielectric constant tensor:
#      x y z
#    x 1.801860 0.000000 0.000000 
#    y 0.000000 1.746790 0.000000 
#    z 0.000000 0.000000 1.631900 
# 
# From -- ./inp_files/26031.got.cif
#   From: 2010.05.17/outbox.cif.g08.bks.cpg/sg20_14_cif.got.tgz:26031.got - 2010.06.03 22:52:26.
