data_PCOD9319580
_publ_section_title
;
Structure prediction by ZEFSAII (Michael W. Deem and Ramdas Pophale) SiO2 
 PCOD9319580
Probable space group: C 2 2 21
;
_chemical_formula_sum "Si O2"
_cell_formula_units_Z 40
_cell_length_a 19.336442
_cell_length_b 10.334979
_cell_length_c 8.446223
_cell_angle_alpha 90.000000
_cell_angle_beta 90.000000
_cell_angle_gamma 90.000000
_cell_volume 1687.907749
_symmetry_space_group_name_H-M "C 2 2 21"
_symmetry_group_IT_number 20
_symmetry_cell_setting 'orthorhombic'
loop_
_space_group_symop_operation_xyz
x,y,z
-x,-y,1/2+z
x,-y,-z
-x,y,1/2-z
1/2+x,1/2+y,z
1/2-x,1/2-y,1/2+z
1/2+x,1/2-y,-z
1/2-x,1/2+y,1/2-z
loop_
_atom_site_type_symbol
_atom_site_label
_atom_site_fract_x
_atom_site_fract_y
_atom_site_fract_z
Si Si1 0.587991 0.859748 0.083518
Si Si2 0.850584 0.779955 0.082834
Si Si3 0.004439 0.862927 0.441209
Si Si4 0.842311 0.510514 0.169398
Si Si5 0.782718 0.293603 0.618420
O O1 0.607885 0.901476 0.262146
O O2 0.531041 0.754982 0.036387
O O3 0.658904 0.799042 0.014843
O O4 0.574848 0.000000 0.000000
O O5 0.885456 0.641986 0.133220
O O6 0.792095 0.770870 0.950279
O O7 0.913675 0.863681 0.028128
O O8 0.807943 0.805673 0.245406
O O9 0.000000 0.849453 0.250000
O O10 0.974297 0.000000 0.500000
O O11 0.789095 0.564510 0.299180
O O12 0.806230 0.500000 0.000000
#
# Coordination Sequence:
#
# PCOD9319580 Si02
#       5
#     8   8   8   8   8
#     4  10  21  47  79 105 148 202 263 329 379 453
#     4  10  23  45  71 107 151 199 254 313 399 457
#     4  12  26  50  73 111 160 215 255 316 396 473
#     4   9  21  39  72 108 140 194 259 322 378 451
#     4   9  21  41  73 102 150 193 248 321 388 455
#
# _framework density 23.697977000000002
#
# number of rings (size 3 to 8) (size 9 to 14) (size 15 to 20)
#    1.200    0.800    2.000    0.000    2.800    4.800 
#    0.000    4.000    0.000    0.000    0.000    0.000 
#    0.000    0.000    0.000    0.000    0.000    0.000 
#
# Total GULP energy -111403.051658 kJ/mol
# GULP energy per Si atom -5570.152583 kJ/mol
# Density = 2.364404 g / cm^3
# Si number density = 23.697977 Si / 1000 Ang^3
#
#
#
# Elastic Constant Matrix: (Units=GPa)
#
#
# Indices 1 2 3 4 5 6 
#
# 1 136.8495 65.1184 54.5420 0.0000 0.0000 0.0000
# 2 65.1184 131.7282 42.5230 0.0000 0.0000 0.0000
# 3 54.5420 42.5230 126.5753 0.0000 0.0000 0.0000
# 4 0.0000 0.0000 0.0000 25.1782 0.0000 0.0000
# 5 0.0000 0.0000 0.0000 0.0000 30.0808 0.0000
# 6 0.0000 0.0000 0.0000 0.0000 0.0000 21.8264
#
#
#
# Elastic Compliance Matrix: (Units=1/GPa)
#
#
# Indices 1 2 3 4 5 6 
#
# 1 0.010559 -0.004207 -0.003137 0.000000 0.000000 0.000000
# 2 -0.004207 0.010191 -0.001611 0.000000 0.000000 0.000000
# 3 -0.003137 -0.001611 0.009793 0.000000 0.000000 0.000000
# 4 0.000000 0.000000 0.000000 0.039717 0.000000 0.000000
# 5 0.000000 0.000000 0.000000 0.000000 0.033244 0.000000
# 6 0.000000 0.000000 0.000000 0.000000 0.000000 0.045816
#
#
# Mechanical properties :
#
#
# Convention : Reuss Voigt Hill
#
# Bulk Modulus (GPa) = 79.14997 79.94664 79.54830
# Shear Modulus (GPa) = 29.16443 30.94839 30.05641
#
# Velocity S-wave (km/s) = 3.51190 3.61771 3.56520
# Velocity P-wave (km/s) = 7.06516 7.15956 7.11252
#
# Compressibility (1/GPa) = 0.01263424
#
# Stress axis : x y z
#
# Youngs Moduli (GPa) = 94.70161 98.12338 102.11203
#
# Poissons Ratio (x) = 0.41285 0.32029
# Poissons Ratio (y) = 0.39845 0.16448
# Poissons Ratio (z) = 0.29705 0.15805
#
# Static dielectric constant tensor:
#      x y z
#    x 1.862040 0.000000 0.000000 
#    y 0.000000 2.036950 0.000000 
#    z 0.000000 0.000000 2.053910 
# 
# From -- ./inp_files/9123.got.cif
#   From: 2010.05.17/outbox.cif.g08.bks.cpg/sg20_5_cif.got.tgz:9123.got - 2010.06.03 22:52:26.
