data_PCOD9319017
_publ_section_title
;
Structure prediction by ZEFSAII (Michael W. Deem and Ramdas Pophale) SiO2 
 PCOD9319017
Probable space group: C 2 2 21
;
_chemical_formula_sum "Si O2"
_cell_formula_units_Z 44
_cell_length_a 17.597548
_cell_length_b 13.714721
_cell_length_c 8.850611
_cell_angle_alpha 90.000000
_cell_angle_beta 90.000000
_cell_angle_gamma 90.000000
_cell_volume 2136.054793
_symmetry_space_group_name_H-M "C 2 2 21"
_symmetry_group_IT_number 20
_symmetry_cell_setting 'orthorhombic'
loop_
_space_group_symop_operation_xyz
x,y,z
-x,-y,1/2+z
x,-y,-z
-x,y,1/2-z
1/2+x,1/2+y,z
1/2-x,1/2-y,1/2+z
1/2+x,1/2-y,-z
1/2-x,1/2+y,1/2-z
loop_
_atom_site_type_symbol
_atom_site_label
_atom_site_fract_x
_atom_site_fract_y
_atom_site_fract_z
Si Si1 0.876052 0.389641 0.193646
Si Si2 0.736174 0.266522 0.561345
Si Si3 0.750838 0.476410 0.677519
Si Si4 0.000000 0.748270 0.250000
Si Si5 0.160127 0.843986 0.258991
Si Si6 0.034714 0.391690 0.028221
O O1 0.829443 0.308586 0.106460
O O2 0.822398 0.482914 0.226775
O O3 0.905981 0.348002 0.352956
O O4 0.952940 0.410540 0.104442
O O5 0.738543 0.361251 0.670700
O O6 0.811656 0.205839 0.603629
O O7 0.715257 0.302341 0.393068
O O8 0.762285 0.500000 0.500000
O O9 0.679834 0.541232 0.735800
O O10 0.926274 0.813460 0.211198
O O11 0.976850 0.676471 0.385901
O O12 0.065061 0.500000 0.000000
#
# Coordination Sequence:
#
# PCOD9319017 Si02
#       6
#     8   8   8   4   8   8
#     4  10  21  39  58  91 122 155 203 245 303 374
#     4  10  21  41  63  87 121 159 201 255 299 364
#     4   9  20  37  64  86 116 158 203 243 300 358
#     4  12  24  40  62  86 128 162 200 260 306 366
#     4  10  23  39  63  90 118 160 206 246 308 366
#     4  11  24  36  59  89 127 159 196 249 315 367
#
# _framework density 20.598723
#
# number of rings (size 3 to 8) (size 9 to 14) (size 15 to 20)
#    0.000    1.818    1.818    1.636   12.727    0.000 
#    0.000    4.545    0.000    0.000    0.000    0.000 
#    0.000    0.000    0.000    0.000    0.000    0.000 
#
# Total GULP energy -122785.866850 kJ/mol
# GULP energy per Si atom -5581.175766 kJ/mol
# Density = 2.055184 g / cm^3
# Si number density = 20.598723 Si / 1000 Ang^3
#
#
#
# Elastic Constant Matrix: (Units=GPa)
#
#
# Indices 1 2 3 4 5 6 
#
# 1 77.1618 8.3471 -0.3467 0.0000 0.0000 0.0000
# 2 8.3471 64.8905 -8.0218 0.0000 0.0000 0.0000
# 3 -0.3467 -8.0218 37.3461 0.0000 0.0000 0.0000
# 4 0.0000 0.0000 0.0000 28.2619 0.0000 0.0000
# 5 0.0000 0.0000 0.0000 0.0000 24.0189 0.0000
# 6 0.0000 0.0000 0.0000 0.0000 0.0000 13.7473
#
#
#
# Elastic Compliance Matrix: (Units=1/GPa)
#
#
# Indices 1 2 3 4 5 6 
#
# 1 0.013145 -0.001722 -0.000248 0.000000 0.000000 0.000000
# 2 -0.001722 0.016056 0.003433 0.000000 0.000000 0.000000
# 3 -0.000248 0.003433 0.027512 0.000000 0.000000 0.000000
# 4 0.000000 0.000000 0.000000 0.035383 0.000000 0.000000
# 5 0.000000 0.000000 0.000000 0.000000 0.041634 0.000000
# 6 0.000000 0.000000 0.000000 0.000000 0.000000 0.072742
#
#
# Mechanical properties :
#
#
# Convention : Reuss Voigt Hill
#
# Bulk Modulus (GPa) = 16.76723 19.92841 18.34782
# Shear Modulus (GPa) = 22.37891 25.16693 23.77292
#
# Velocity S-wave (km/s) = 3.29967 3.49918 3.40089
# Velocity P-wave (km/s) = 4.76179 5.10110 4.93437
#
# Compressibility (1/GPa) = 0.05964014
#
# Stress axis : x y z
#
# Youngs Moduli (GPa) = 76.07521 62.28045 36.34828
#
# Poissons Ratio (x) = 0.10722 0.00901
# Poissons Ratio (y) = 0.13096 -0.12478
# Poissons Ratio (z) = 0.01885 -0.21380
#
# Static dielectric constant tensor:
#      x y z
#    x 1.739460 0.000000 0.000000 
#    y 0.000000 1.729730 0.000000 
#    z 0.000000 0.000000 1.809030 
# 
# From -- ./inp_files/9284.got.cif
#   From: 2010.05.17/outbox.cif.g08.bks.cpg/sg20_5_cif.got.tgz:9284.got - 2010.06.03 22:52:26.
