data_PCOD9319797
_publ_section_title
;
Structure prediction by ZEFSAII (Michael W. Deem and Ramdas Pophale) SiO2 
 PCOD9319797
Probable space group: C 2 2 21
;
_chemical_formula_sum "Si O2"
_cell_formula_units_Z 40
_cell_length_a 14.260732
_cell_length_b 13.032835
_cell_length_c 11.410354
_cell_angle_alpha 90.000000
_cell_angle_beta 90.000000
_cell_angle_gamma 90.000000
_cell_volume 2120.702917
_symmetry_space_group_name_H-M "C 2 2 21"
_symmetry_group_IT_number 20
_symmetry_cell_setting 'orthorhombic'
loop_
_space_group_symop_operation_xyz
x,y,z
-x,-y,1/2+z
x,-y,-z
-x,y,1/2-z
1/2+x,1/2+y,z
1/2-x,1/2-y,1/2+z
1/2+x,1/2-y,-z
1/2-x,1/2+y,1/2-z
loop_
_atom_site_type_symbol
_atom_site_label
_atom_site_fract_x
_atom_site_fract_y
_atom_site_fract_z
Si Si1 0.407328 0.370140 0.179642
Si Si2 0.520587 0.888357 0.942863
Si Si3 0.481465 0.319529 0.929163
Si Si4 0.347711 0.157085 0.228262
Si Si5 0.137114 0.094844 0.226184
O O1 0.500000 0.336100 0.250000
O O2 0.335842 0.279081 0.207232
O O3 0.380795 0.480834 0.226172
O O4 0.434855 0.368905 0.043991
O O5 0.607589 0.865668 0.855604
O O6 0.425896 0.881282 0.864332
O O7 0.510592 0.795947 0.036309
O O8 0.529430 0.000000 0.000000
O O9 0.406195 0.328846 0.824598
O O10 0.572978 0.381908 0.886707
O O11 0.246809 0.108406 0.209765
#
# Coordination Sequence:
#
# PCOD9319797 Si02
#       5
#     8   8   8   8   8
#     4  11  20  43  66  82 128 171 191 255 317 362
#     4  10  22  41  63  80 127 170 200 255 311 365
#     4  10  22  40  60  92 122 160 208 252 304 366
#     4  10  23  42  58  93 121 163 211 247 313 373
#     4  11  24  36  66  98 120 155 213 262 295 368
#
# _framework density 18.86167
#
# number of rings (size 3 to 8) (size 9 to 14) (size 15 to 20)
#    0.000    1.600    6.000    0.600    0.000   11.200 
#    3.600    0.000    0.000    0.000    0.000    0.000 
#    0.000    0.000    0.000    0.000    0.000    0.000 
#
# Total GULP energy -111644.405591 kJ/mol
# GULP energy per Si atom -5582.220280 kJ/mol
# Density = 1.881874 g / cm^3
# Si number density = 18.861670 Si / 1000 Ang^3
#
#
#
# Elastic Constant Matrix: (Units=GPa)
#
#
# Indices 1 2 3 4 5 6 
#
# 1 97.5222 30.6962 11.7272 0.0000 0.0000 0.0000
# 2 30.6962 163.2401 57.7310 0.0000 0.0000 0.0000
# 3 11.7272 57.7310 62.8196 0.0000 0.0000 0.0000
# 4 0.0000 0.0000 0.0000 29.0460 0.0000 0.0000
# 5 0.0000 0.0000 0.0000 0.0000 6.2770 0.0000
# 6 0.0000 0.0000 0.0000 0.0000 0.0000 27.0533
#
#
#
# Elastic Compliance Matrix: (Units=1/GPa)
#
#
# Indices 1 2 3 4 5 6 
#
# 1 0.010901 -0.001971 -0.000224 0.000000 0.000000 0.000000
# 2 -0.001971 0.009432 -0.008300 0.000000 0.000000 0.000000
# 3 -0.000224 -0.008300 0.023588 0.000000 0.000000 0.000000
# 4 0.000000 0.000000 0.000000 0.034428 0.000000 0.000000
# 5 0.000000 0.000000 0.000000 0.000000 0.159311 0.000000
# 6 0.000000 0.000000 0.000000 0.000000 0.000000 0.036964
#
#
# Mechanical properties :
#
#
# Convention : Reuss Voigt Hill
#
# Bulk Modulus (GPa) = 43.60733 58.21007 50.90870
# Shear Modulus (GPa) = 16.48760 27.37043 21.92902
#
# Velocity S-wave (km/s) = 2.95978 3.81348 3.41343
# Velocity P-wave (km/s) = 5.90340 7.09357 6.52568
#
# Compressibility (1/GPa) = 0.02293192
#
# Stress axis : x y z
#
# Youngs Moduli (GPa) = 91.73205 106.02353 42.39430
#
# Poissons Ratio (x) = 0.20894 0.00950
# Poissons Ratio (y) = 0.18078 0.35187
# Poissons Ratio (z) = 0.02055 0.87999
#
# Static dielectric constant tensor:
#      x y z
#    x 1.625310 0.000000 0.000000 
#    y 0.000000 1.661970 0.000000 
#    z 0.000000 0.000000 1.683110 
# 
# From -- ./inp_files/14870.got.cif
#   From: 2010.05.17/outbox.cif.g08.bks.cpg/sg20_8_cif.got.tgz:14870.got - 2010.06.03 22:52:26.
