data_PCOD9319861
_publ_section_title
;
Structure prediction by ZEFSAII (Michael W. Deem and Ramdas Pophale) SiO2 
 PCOD9319861
Probable space group: C 2 2 21
;
_chemical_formula_sum "Si O2"
_cell_formula_units_Z 36
_cell_length_a 10.313222
_cell_length_b 22.157462
_cell_length_c 6.298467
_cell_angle_alpha 90.000000
_cell_angle_beta 90.000000
_cell_angle_gamma 90.000000
_cell_volume 1439.293082
_symmetry_space_group_name_H-M "C 2 2 21"
_symmetry_group_IT_number 20
_symmetry_cell_setting 'orthorhombic'
loop_
_space_group_symop_operation_xyz
x,y,z
-x,-y,1/2+z
x,-y,-z
-x,y,1/2-z
1/2+x,1/2+y,z
1/2-x,1/2-y,1/2+z
1/2+x,1/2-y,-z
1/2-x,1/2+y,1/2-z
loop_
_atom_site_type_symbol
_atom_site_label
_atom_site_fract_x
_atom_site_fract_y
_atom_site_fract_z
Si Si1 0.602480 0.809315 0.583407
Si Si2 0.340411 0.936791 0.912396
Si Si3 0.863012 0.807517 0.845128
Si Si4 0.643044 0.388855 0.269897
Si Si5 0.222013 0.000000 0.500000
O O1 0.500000 0.783641 0.750000
O O2 0.565884 0.879581 0.552518
O O3 0.746025 0.811025 0.681373
O O4 0.610514 0.762397 0.395105
O O5 0.298549 0.959050 0.676114
O O6 0.222113 0.911790 0.063124
O O7 0.393722 0.000000 0.000000
O O8 0.000000 0.832728 0.750000
O O9 0.805172 0.840628 0.056626
O O10 0.500000 0.363427 0.250000
O O11 0.632370 0.451924 0.388562
#
# Coordination Sequence:
#
# PCOD9319861 Si02
#       5
#     8   8   8   8   4
#     4  12  25  46  71 104 140 194 241 298 367 439
#     4  10  23  45  65 102 144 189 241 301 360 440
#     4  12  25  46  73 106 150 188 247 315 373 444
#     4  11  23  37  69 103 144 189 238 300 371 441
#     4  10  22  40  66 100 146 188 240 294 364 442
#
# _framework density 25.012281000000002
#
# number of rings (size 3 to 8) (size 9 to 14) (size 15 to 20)
#    0.000    0.889    2.222    4.667    4.667    0.000 
#    2.000    0.000    0.000    0.000    0.000    0.000 
#    0.000    0.000    0.000    0.000    0.000    0.000 
#
# Total GULP energy -100304.075472 kJ/mol
# GULP energy per Si atom -5572.448637 kJ/mol
# Density = 2.495535 g / cm^3
# Si number density = 25.012281 Si / 1000 Ang^3
#
#
#
# Elastic Constant Matrix: (Units=GPa)
#
#
# Indices 1 2 3 4 5 6 
#
# 1 67.0386 -1.7999 13.0289 0.0000 0.0000 0.0000
# 2 -1.7999 189.0589 46.5276 0.0000 0.0000 0.0000
# 3 13.0289 46.5276 89.4039 0.0000 0.0000 0.0000
# 4 0.0000 0.0000 0.0000 75.8907 0.0000 0.0000
# 5 0.0000 0.0000 0.0000 0.0000 36.8468 0.0000
# 6 0.0000 0.0000 0.0000 0.0000 0.0000 25.5878
#
#
#
# Elastic Compliance Matrix: (Units=1/GPa)
#
#
# Indices 1 2 3 4 5 6 
#
# 1 0.015458 0.000805 -0.002671 0.000000 0.000000 0.000000
# 2 0.000805 0.006108 -0.003296 0.000000 0.000000 0.000000
# 3 -0.002671 -0.003296 0.013290 0.000000 0.000000 0.000000
# 4 0.000000 0.000000 0.000000 0.013177 0.000000 0.000000
# 5 0.000000 0.000000 0.000000 0.000000 0.027139 0.000000
# 6 0.000000 0.000000 0.000000 0.000000 0.000000 0.039081
#
#
# Mechanical properties :
#
#
# Convention : Reuss Voigt Hill
#
# Bulk Modulus (GPa) = 40.76662 51.22386 45.99524
# Shear Modulus (GPa) = 37.66328 46.84804 42.25566
#
# Velocity S-wave (km/s) = 3.88466 4.33251 4.11469
# Velocity P-wave (km/s) = 6.03778 6.74919 6.40337
#
# Compressibility (1/GPa) = 0.02452987
#
# Stress axis : x y z
#
# Youngs Moduli (GPa) = 64.69323 163.71470 75.24545
#
# Poissons Ratio (x) = -0.13172 0.20101
# Poissons Ratio (y) = -0.05205 0.24801
# Poissons Ratio (z) = 0.17282 0.53962
#
# Static dielectric constant tensor:
#      x y z
#    x 1.926250 0.000000 0.000000 
#    y 0.000000 1.950820 0.000000 
#    z 0.000000 0.000000 2.130830 
# 
# From -- ./inp_files/1236.got.cif
#   From: 2010.05.17/outbox.cif.g08.bks.cpg/sg20_1_cif.got.tgz:1236.got - 2010.06.03 22:52:26.
