data_PCOD9319896
_publ_section_title
;
Structure prediction by ZEFSAII (Michael W. Deem and Ramdas Pophale) SiO2 
 PCOD9319896
Probable space group: C 2 2 21
;
_chemical_formula_sum "Si O2"
_cell_formula_units_Z 56
_cell_length_a 6.222343
_cell_length_b 13.252889
_cell_length_c 28.538729
_cell_angle_alpha 90.000000
_cell_angle_beta 90.000000
_cell_angle_gamma 90.000000
_cell_volume 2353.418350
_symmetry_space_group_name_H-M "C 2 2 21"
_symmetry_group_IT_number 20
_symmetry_cell_setting 'orthorhombic'
loop_
_space_group_symop_operation_xyz
x,y,z
-x,-y,1/2+z
x,-y,-z
-x,y,1/2-z
1/2+x,1/2+y,z
1/2-x,1/2-y,1/2+z
1/2+x,1/2-y,-z
1/2-x,1/2+y,1/2-z
loop_
_atom_site_type_symbol
_atom_site_label
_atom_site_fract_x
_atom_site_fract_y
_atom_site_fract_z
Si Si1 0.809541 0.339674 0.544952
Si Si2 0.933339 0.000000 0.000000
Si Si3 0.714376 0.940964 0.576300
Si Si4 0.500000 0.158905 0.750000
Si Si5 0.090093 0.935368 0.636221
Si Si6 0.181895 0.261178 0.817753
Si Si7 0.272236 0.347357 0.161451
Si Si8 0.910059 0.335148 0.093088
O O1 0.722166 0.402013 0.500267
O O2 0.724074 0.401007 0.590555
O O3 0.689695 0.232205 0.550908
O O4 0.063595 0.356377 0.552674
O O5 0.097253 0.022718 0.041629
O O6 0.591797 0.046015 0.584652
O O7 0.843030 0.910482 0.623272
O O8 0.300409 0.217330 0.772910
O O9 0.390284 0.115148 0.702732
O O10 0.212302 0.870851 0.675492
O O11 0.101149 0.052542 0.646904
O O12 0.259143 0.199237 0.863834
O O13 0.929553 0.239451 0.819322
O O14 0.142180 0.311913 0.115407
#
# Coordination Sequence:
#
# PCOD9319896 Si02
#       8
#     8   4   8   4   8   8   8   8
#     4  10  22  42  65 100 131 176 217 277 330 395
#     4  10  24  42  58 102 138 172 226 274 340 394
#     4  11  21  45  67  97 138 172 223 286 323 408
#     4  10  24  42  58 102 136 168 218 264 338 392
#     4  10  22  40  70 100 122 174 228 264 335 385
#     4  10  22  42  65  98 132 171 212 277 319 399
#     4  11  21  45  67  98 136 169 221 277 324 402
#     4  10  22  40  70 100 123 176 226 267 334 390
#
# _framework density 23.795176999999999
#
# number of rings (size 3 to 8) (size 9 to 14) (size 15 to 20)
#    0.000    1.714    2.857    0.857    0.000    9.143 
#   10.286    0.000    0.000    0.000    0.000    0.000 
#    0.000    0.000    0.000    0.000    0.000    0.000 
#
# Total GULP energy -156004.506186 kJ/mol
# GULP energy per Si atom -5571.589507 kJ/mol
# Density = 2.374102 g / cm^3
# Si number density = 23.795177 Si / 1000 Ang^3
#
#
#
# Elastic Constant Matrix: (Units=GPa)
#
#
# Indices 1 2 3 4 5 6 
#
# 1 128.2001 48.4918 22.2704 0.0000 0.0000 0.0000
# 2 48.4918 116.2157 6.4452 0.0000 0.0000 0.0000
# 3 22.2704 6.4452 50.2132 0.0000 0.0000 0.0000
# 4 0.0000 0.0000 0.0000 17.2759 0.0000 0.0000
# 5 0.0000 0.0000 0.0000 0.0000 37.2199 0.0000
# 6 0.0000 0.0000 0.0000 0.0000 0.0000 18.2512
#
#
#
# Elastic Compliance Matrix: (Units=1/GPa)
#
#
# Indices 1 2 3 4 5 6 
#
# 1 0.009972 -0.003944 -0.003917 0.000000 0.000000 0.000000
# 2 -0.003944 0.010226 0.000437 0.000000 0.000000 0.000000
# 3 -0.003917 0.000437 0.021596 0.000000 0.000000 0.000000
# 4 0.000000 0.000000 0.000000 0.057884 0.000000 0.000000
# 5 0.000000 0.000000 0.000000 0.000000 0.026867 0.000000
# 6 0.000000 0.000000 0.000000 0.000000 0.000000 0.054791
#
#
# Mechanical properties :
#
#
# Convention : Reuss Voigt Hill
#
# Bulk Modulus (GPa) = 37.11032 49.89377 43.50205
# Shear Modulus (GPa) = 24.37034 29.04417 26.70726
#
# Velocity S-wave (km/s) = 3.20374 3.49749 3.35383
# Velocity P-wave (km/s) = 5.41432 6.10929 5.77227
#
# Compressibility (1/GPa) = 0.02694668
#
# Stress axis : x y z
#
# Youngs Moduli (GPa) = 100.27606 97.78923 46.30449
#
# Poissons Ratio (x) = 0.38567 0.18136
# Poissons Ratio (y) = 0.39547 -0.02022
# Poissons Ratio (z) = 0.39276 -0.04269
#
# Static dielectric constant tensor:
#      x y z
#    x 2.054660 0.000000 0.000000 
#    y 0.000000 1.935350 0.000000 
#    z 0.000000 0.000000 2.067130 
# 
# From -- ./inp_files/30773.got.cif
#   From: 2010.05.17/outbox.cif.g08.bks.cpg/sg20_16_cif.got.tgz:30773.got - 2010.06.03 22:52:26.
