data_PCOD9319807
_publ_section_title
;
Structure prediction by ZEFSAII (Michael W. Deem and Ramdas Pophale) SiO2 
 PCOD9319807
Probable space group: C 2 2 21
;
_chemical_formula_sum "Si O2"
_cell_formula_units_Z 32
_cell_length_a 17.996104
_cell_length_b 11.050653
_cell_length_c 7.920314
_cell_angle_alpha 90.000000
_cell_angle_beta 90.000000
_cell_angle_gamma 90.000000
_cell_volume 1575.102554
_symmetry_space_group_name_H-M "C 2 2 21"
_symmetry_group_IT_number 20
_symmetry_cell_setting 'orthorhombic'
loop_
_space_group_symop_operation_xyz
x,y,z
-x,-y,1/2+z
x,-y,-z
-x,y,1/2-z
1/2+x,1/2+y,z
1/2-x,1/2-y,1/2+z
1/2+x,1/2-y,-z
1/2-x,1/2+y,1/2-z
loop_
_atom_site_type_symbol
_atom_site_label
_atom_site_fract_x
_atom_site_fract_y
_atom_site_fract_z
Si Si1 0.661014 0.168926 0.723322
Si Si2 0.000000 0.755110 0.750000
Si Si3 0.384410 0.000000 0.500000
Si Si4 0.298336 0.641388 0.503287
Si Si5 0.556338 0.256964 0.100201
O O1 0.573208 0.182374 0.689711
O O2 0.714634 0.158502 0.566292
O O3 0.687126 0.285443 0.831369
O O4 0.665322 0.053795 0.848763
O O5 0.972298 0.816553 0.576479
O O6 0.433686 0.113419 0.438273
O O7 0.313127 0.500000 0.500000
O O8 0.360001 0.697342 0.629910
O O9 0.500000 0.278985 0.250000
#
# Coordination Sequence:
#
# PCOD9319807 Si02
#       5
#     8   4   4   8   8
#     4  10  22  40  62  92 123 160 205 263 314 377
#     4   8  20  40  58  90 124 146 202 264 300 368
#     4   8  20  36  60  94 124 144 216 256 312 374
#     4  10  24  41  61  91 127 162 213 247 316 386
#     4  10  22  40  63  93 122 164 207 257 317 373
#
# _framework density 20.316134999999999
#
# number of rings (size 3 to 8) (size 9 to 14) (size 15 to 20)
#    0.000    3.000    0.000    0.000   17.500    0.000 
#   11.250    0.000    0.000    0.000    0.000    0.000 
#    0.000    0.000    0.000    0.000    0.000    0.000 
#
# Total GULP energy -89103.666943 kJ/mol
# GULP energy per Si atom -5568.979184 kJ/mol
# Density = 2.026989 g / cm^3
# Si number density = 20.316135 Si / 1000 Ang^3
#
#
#
# Elastic Constant Matrix: (Units=GPa)
#
#
# Indices 1 2 3 4 5 6 
#
# 1 132.1955 25.6373 19.2275 0.0000 0.0000 0.0000
# 2 25.6373 54.5413 13.9766 0.0000 0.0000 0.0000
# 3 19.2275 13.9766 45.8546 0.0000 0.0000 0.0000
# 4 0.0000 0.0000 0.0000 13.1450 0.0000 0.0000
# 5 0.0000 0.0000 0.0000 0.0000 45.5259 0.0000
# 6 0.0000 0.0000 0.0000 0.0000 0.0000 47.3142
#
#
#
# Elastic Compliance Matrix: (Units=1/GPa)
#
#
# Indices 1 2 3 4 5 6 
#
# 1 0.008594 -0.003380 -0.002573 0.000000 0.000000 0.000000
# 2 -0.003380 0.021218 -0.005050 0.000000 0.000000 0.000000
# 3 -0.002573 -0.005050 0.024426 0.000000 0.000000 0.000000
# 4 0.000000 0.000000 0.000000 0.076075 0.000000 0.000000
# 5 0.000000 0.000000 0.000000 0.000000 0.021965 0.000000
# 6 0.000000 0.000000 0.000000 0.000000 0.000000 0.021135
#
#
# Mechanical properties :
#
#
# Convention : Reuss Voigt Hill
#
# Bulk Modulus (GPa) = 31.02574 38.91937 34.97255
# Shear Modulus (GPa) = 24.25244 32.78036 28.51640
#
# Velocity S-wave (km/s) = 3.45882 4.02121 3.75057
# Velocity P-wave (km/s) = 5.59070 6.38425 6.00061
#
# Compressibility (1/GPa) = 0.03223131
#
# Stress axis : x y z
#
# Youngs Moduli (GPa) = 116.35445 47.13039 40.93941
#
# Poissons Ratio (x) = 0.15932 0.10535
# Poissons Ratio (y) = 0.39332 0.20674
# Poissons Ratio (z) = 0.29943 0.23800
#
# Static dielectric constant tensor:
#      x y z
#    x 1.735540 0.000000 0.000000 
#    y 0.000000 1.709770 0.000000 
#    z 0.000000 0.000000 1.760980 
# 
# From -- ./inp_files/6917.got.cif
#   From: 2010.05.17/outbox.cif.g08.bks.cpg/sg20_4_cif.got.tgz:6917.got - 2010.06.03 22:52:26.
