data_PCOD9319914
_publ_section_title
;
Structure prediction by ZEFSAII (Michael W. Deem and Ramdas Pophale) SiO2 
 PCOD9319914
Probable space group: C 2 2 21
;
_chemical_formula_sum "Si O2"
_cell_formula_units_Z 32
_cell_length_a 15.275331
_cell_length_b 17.179581
_cell_length_c 5.119099
_cell_angle_alpha 90.000000
_cell_angle_beta 90.000000
_cell_angle_gamma 90.000000
_cell_volume 1343.373342
_symmetry_space_group_name_H-M "C 2 2 21"
_symmetry_group_IT_number 20
_symmetry_cell_setting 'orthorhombic'
loop_
_space_group_symop_operation_xyz
x,y,z
-x,-y,1/2+z
x,-y,-z
-x,y,1/2-z
1/2+x,1/2+y,z
1/2-x,1/2-y,1/2+z
1/2+x,1/2-y,-z
1/2-x,1/2+y,1/2-z
loop_
_atom_site_type_symbol
_atom_site_label
_atom_site_fract_x
_atom_site_fract_y
_atom_site_fract_z
Si Si1 0.500000 0.866685 0.250000
Si Si2 0.000000 0.950954 0.250000
Si Si3 0.780320 0.500000 0.000000
Si Si4 0.169122 0.145718 0.771000
Si Si5 0.897537 0.219479 0.214575
Si Si6 0.601091 0.000000 0.000000
O O1 0.423236 0.808832 0.155680
O O2 0.458422 0.924826 0.455903
O O3 0.082528 0.900426 0.317274
O O4 0.974644 0.000000 0.500000
O O5 0.727959 0.423018 0.102440
O O6 0.839449 0.517714 0.250080
O O7 0.175545 0.192184 0.497057
O O8 0.143320 0.203778 0.002919
O O9 0.000000 0.186188 0.250000
#
# Coordination Sequence:
#
# PCOD9319914 Si02
#       6
#     4   4   4   8   8   4
#     4  10  26  51  87 102 132 182 284 326 350 429
#     4  12  20  29  57  92 132 194 240 264 310 401
#     4  12  29  42  71 116 168 190 232 292 405 454
#     4  12  22  41  63 109 158 192 232 289 360 449
#     4  10  22  40  73 107 135 184 250 307 346 410
#     4  12  27  52  77 112 136 196 250 332 371 432
#
# _framework density 23.820630000000001
#
# number of rings (size 3 to 8) (size 9 to 14) (size 15 to 20)
#    0.750    0.000    3.750    3.750    1.750    6.000 
#    0.000    5.000    0.000    0.000    0.000    0.000 
#    0.000    0.000    0.000    0.000    0.000    0.000 
#
# Total GULP energy -89182.777616 kJ/mol
# GULP energy per Si atom -5573.923601 kJ/mol
# Density = 2.376641 g / cm^3
# Si number density = 23.820630 Si / 1000 Ang^3
#
#
#
# Elastic Constant Matrix: (Units=GPa)
#
#
# Indices 1 2 3 4 5 6 
#
# 1 72.6235 52.8850 35.3717 0.0000 0.0000 0.0000
# 2 52.8850 115.3144 33.4519 0.0000 0.0000 0.0000
# 3 35.3717 33.4519 158.3442 0.0000 0.0000 0.0000
# 4 0.0000 0.0000 0.0000 33.7097 0.0000 0.0000
# 5 0.0000 0.0000 0.0000 0.0000 44.5582 0.0000
# 6 0.0000 0.0000 0.0000 0.0000 0.0000 -74.1910
#
#
#
# Elastic Compliance Matrix: (Units=1/GPa)
#
#
# Indices 1 2 3 4 5 6 
#
# 1 0.021896 -0.009186 -0.002951 0.000000 0.000000 0.000000
# 2 -0.009186 0.013092 -0.000714 0.000000 0.000000 0.000000
# 3 -0.002951 -0.000714 0.007125 0.000000 0.000000 0.000000
# 4 0.000000 0.000000 0.000000 0.029665 0.000000 0.000000
# 5 0.000000 0.000000 0.000000 0.000000 0.022443 0.000000
# 6 0.000000 0.000000 0.000000 0.000000 0.000000 -0.013479
#
#
# Mechanical properties :
#
#
# Convention : Reuss Voigt Hill
#
# Bulk Modulus (GPa) = 60.92928 65.52215 63.22572
# Shear Modulus (GPa) = 44.67738 15.78694 30.23216
#
# Velocity S-wave (km/s) = 4.33549 2.57717 3.56639
# Velocity P-wave (km/s) = 7.12010 6.03506 6.59992
#
# Compressibility (1/GPa) = 0.01641247
#
# Stress axis : x y z
#
# Youngs Moduli (GPa) = 45.67042 76.38364 140.34552
#
# Poissons Ratio (x) = 0.70165 0.41411
# Poissons Ratio (y) = 0.41952 0.10018
# Poissons Ratio (z) = 0.13476 0.05452
#
# Static dielectric constant tensor:
#      x y z
#    x 1.969480 0.000000 0.000000 
#    y 0.000000 2.118600 0.000000 
#    z 0.000000 0.000000 2.121200 
# 
# From -- ./inp_files/2469.got.cif
#   From: 2010.05.17/outbox.cif.g08.bks.cpg/sg20_2_cif.got.tgz:2469.got - 2010.06.03 22:52:26.
