data_PCOD9319472
_publ_section_title
;
Structure prediction by ZEFSAII (Michael W. Deem and Ramdas Pophale) SiO2 
 PCOD9319472
Probable space group: C 2 2 21
;
_chemical_formula_sum "Si O2"
_cell_formula_units_Z 40
_cell_length_a 15.073719
_cell_length_b 13.651186
_cell_length_c 8.362760
_cell_angle_alpha 90.000000
_cell_angle_beta 90.000000
_cell_angle_gamma 90.000000
_cell_volume 1720.839762
_symmetry_space_group_name_H-M "C 2 2 21"
_symmetry_group_IT_number 20
_symmetry_cell_setting 'orthorhombic'
loop_
_space_group_symop_operation_xyz
x,y,z
-x,-y,1/2+z
x,-y,-z
-x,y,1/2-z
1/2+x,1/2+y,z
1/2-x,1/2-y,1/2+z
1/2+x,1/2-y,-z
1/2-x,1/2+y,1/2-z
loop_
_atom_site_type_symbol
_atom_site_label
_atom_site_fract_x
_atom_site_fract_y
_atom_site_fract_z
Si Si1 0.682430 0.559130 0.769278
Si Si2 0.000000 0.826513 0.250000
Si Si3 0.208650 0.148221 0.120605
Si Si4 0.500000 0.993929 0.250000
Si Si5 0.860516 0.350886 0.307464
Si Si6 0.904802 0.665765 0.068518
O O1 0.585809 0.604295 0.745487
O O2 0.682561 0.441347 0.764515
O O3 0.764794 0.599133 0.666546
O O4 0.706220 0.598903 0.946710
O O5 0.976119 0.749568 0.108579
O O6 0.145768 0.241889 0.125891
O O7 0.309020 0.184883 0.152544
O O8 0.438147 0.923854 0.358808
O O9 0.437132 0.064860 0.147809
O O10 0.882955 0.339962 0.118327
#
# Coordination Sequence:
#
# PCOD9319472 Si02
#       6
#     8   4   8   4   8   8
#     4  10  22  41  65  92 133 171 213 273 336 388
#     4  11  22  41  64  90 130 177 214 263 332 400
#     4  10  21  43  65  90 132 174 213 272 337 392
#     4  11  22  37  68  96 130 169 228 271 328 386
#     4  11  22  40  66  99 130 171 220 279 328 396
#     4  10  22  41  64  95 131 173 218 271 328 392
#
# _framework density 23.244464000000001
#
# number of rings (size 3 to 8) (size 9 to 14) (size 15 to 20)
#    0.000    1.600    4.000    0.600    2.800    0.800 
#    3.600    0.000    0.000    0.000    0.000    0.000 
#    0.000    0.000    0.000    0.000    0.000    0.000 
#
# Total GULP energy -111716.069141 kJ/mol
# GULP energy per Si atom -5585.803457 kJ/mol
# Density = 2.319156 g / cm^3
# Si number density = 23.244464 Si / 1000 Ang^3
#
#
#
# Elastic Constant Matrix: (Units=GPa)
#
#
# Indices 1 2 3 4 5 6 
#
# 1 161.7667 59.2390 0.6266 0.0000 0.0000 0.0000
# 2 59.2390 127.3507 0.0740 0.0000 0.0000 0.0000
# 3 0.6266 0.0740 18.0917 0.0000 0.0000 0.0000
# 4 0.0000 0.0000 0.0000 23.1642 0.0000 0.0000
# 5 0.0000 0.0000 0.0000 0.0000 25.9316 0.0000
# 6 0.0000 0.0000 0.0000 0.0000 0.0000 -43.2839
#
#
#
# Elastic Compliance Matrix: (Units=1/GPa)
#
#
# Indices 1 2 3 4 5 6 
#
# 1 0.007452 -0.003466 -0.000244 0.000000 0.000000 0.000000
# 2 -0.003466 0.009465 0.000081 0.000000 0.000000 0.000000
# 3 -0.000244 0.000081 0.055282 0.000000 0.000000 0.000000
# 4 0.000000 0.000000 0.000000 0.043170 0.000000 0.000000
# 5 0.000000 0.000000 0.000000 0.000000 0.038563 0.000000
# 6 0.000000 0.000000 0.000000 0.000000 0.000000 -0.023103
#
#
# Mechanical properties :
#
#
# Convention : Reuss Voigt Hill
#
# Bulk Modulus (GPa) = 15.39857 47.45425 31.42641
# Shear Modulus (GPa) = 31.30219 17.64702 24.47461
#
# Velocity S-wave (km/s) = 3.67366 2.75833 3.24840
# Velocity P-wave (km/s) = 4.96320 5.53210 5.25535
#
# Compressibility (1/GPa) = 0.06494109
#
# Stress axis : x y z
#
# Youngs Moduli (GPa) = 134.19142 105.65597 18.08904
#
# Poissons Ratio (x) = 0.36623 0.00441
# Poissons Ratio (y) = 0.46515 -0.00147
# Poissons Ratio (z) = 0.03273 -0.00859
#
# Static dielectric constant tensor:
#      x y z
#    x 1.900060 0.000000 0.000000 
#    y 0.000000 1.855610 0.000000 
#    z 0.000000 0.000000 2.385890 
# 
# From -- ./inp_files/8168.got.cif
#   From: 2010.05.17/outbox.cif.g08.bks.cpg/sg20_5_cif.got.tgz:8168.got - 2010.06.03 22:52:26.
