data_PCOD9319112
_publ_section_title
;
Structure prediction by ZEFSAII (Michael W. Deem and Ramdas Pophale) SiO2 
 PCOD9319112
Probable space group: C 2 2 21
;
_chemical_formula_sum "Si O2"
_cell_formula_units_Z 40
_cell_length_a 8.742411
_cell_length_b 21.779594
_cell_length_c 7.365384
_cell_angle_alpha 90.000000
_cell_angle_beta 90.000000
_cell_angle_gamma 90.000000
_cell_volume 1402.414500
_symmetry_space_group_name_H-M "C 2 2 21"
_symmetry_group_IT_number 20
_symmetry_cell_setting 'orthorhombic'
loop_
_space_group_symop_operation_xyz
x,y,z
-x,-y,1/2+z
x,-y,-z
-x,y,1/2-z
1/2+x,1/2+y,z
1/2-x,1/2-y,1/2+z
1/2+x,1/2-y,-z
1/2-x,1/2+y,1/2-z
loop_
_atom_site_type_symbol
_atom_site_label
_atom_site_fract_x
_atom_site_fract_y
_atom_site_fract_z
Si Si1 0.000000 0.826616 0.750000
Si Si2 0.315328 0.784609 0.394103
Si Si3 0.500000 0.002728 0.750000
Si Si4 0.225014 0.601949 0.688552
Si Si5 0.000000 0.731703 0.250000
Si Si6 0.500000 0.537644 0.750000
Si Si7 0.783625 0.930298 0.892936
O O1 0.899958 0.779866 0.631510
O O2 0.868458 0.872241 0.814359
O O3 0.336137 0.829260 0.214583
O O4 0.132931 0.769709 0.361537
O O5 0.398009 0.802675 0.589456
O O6 0.599172 0.052373 0.630911
O O7 0.623034 0.956748 0.830071
O O8 0.393708 0.581143 0.618939
O O9 0.258260 0.589815 0.900981
O O10 0.387445 0.487837 0.835780
#
# Coordination Sequence:
#
# PCOD9319112 Si02
#       7
#     4   8   4   8   4   4   8
#     4  11  25  48  77 106 152 207 266 324 402 479
#     4  12  26  47  76 116 154 208 261 331 403 475
#     4  10  21  39  66  98 137 191 246 314 390 468
#     4  11  22  41  66  98 143 181 245 315 382 467
#     4  12  27  49  79 114 165 207 267 320 400 484
#     4   9  19  38  64  90 128 187 235 302 380 459
#     4  10  22  43  66  95 141 191 242 311 386 469
#
# _framework density 28.522238999999999
#
# number of rings (size 3 to 8) (size 9 to 14) (size 15 to 20)
#    0.000    1.200    0.000    7.200    0.000    3.200 
#    0.000   28.000    0.000    0.000    0.000    0.000 
#    0.000    0.000    0.000    0.000    0.000    0.000 
#
# Total GULP energy -111404.054189 kJ/mol
# GULP energy per Si atom -5570.202709 kJ/mol
# Density = 2.845732 g / cm^3
# Si number density = 28.522239 Si / 1000 Ang^3
#
#
#
# Elastic Constant Matrix: (Units=GPa)
#
#
# Indices 1 2 3 4 5 6 
#
# 1 235.7305 54.2971 43.2919 0.0000 0.0000 0.0000
# 2 54.2971 169.7752 32.9054 0.0000 0.0000 0.0000
# 3 43.2919 32.9054 82.8446 0.0000 0.0000 0.0000
# 4 0.0000 0.0000 0.0000 35.8492 0.0000 0.0000
# 5 0.0000 0.0000 0.0000 0.0000 52.3093 0.0000
# 6 0.0000 0.0000 0.0000 0.0000 0.0000 52.9352
#
#
#
# Elastic Compliance Matrix: (Units=1/GPa)
#
#
# Indices 1 2 3 4 5 6 
#
# 1 0.004894 -0.001159 -0.002097 0.000000 0.000000 0.000000
# 2 -0.001159 0.006656 -0.002038 0.000000 0.000000 0.000000
# 3 -0.002097 -0.002038 0.013976 0.000000 0.000000 0.000000
# 4 0.000000 0.000000 0.000000 0.027895 0.000000 0.000000
# 5 0.000000 0.000000 0.000000 0.000000 0.019117 0.000000
# 6 0.000000 0.000000 0.000000 0.000000 0.000000 0.018891
#
#
# Mechanical properties :
#
#
# Convention : Reuss Voigt Hill
#
# Bulk Modulus (GPa) = 66.94362 83.25988 75.10175
# Shear Modulus (GPa) = 46.73045 52.07579 49.40312
#
# Velocity S-wave (km/s) = 4.05209 4.27757 4.16635
# Velocity P-wave (km/s) = 6.73901 7.32471 7.03795
#
# Compressibility (1/GPa) = 0.01493794
#
# Stress axis : x y z
#
# Youngs Moduli (GPa) = 204.32330 150.24599 71.54971
#
# Poissons Ratio (x) = 0.17410 0.15006
# Poissons Ratio (y) = 0.23676 0.14583
# Poissons Ratio (z) = 0.42853 0.30622
#
# Static dielectric constant tensor:
#      x y z
#    x 2.619300 0.000000 0.000000 
#    y 0.000000 2.383810 0.000000 
#    z 0.000000 0.000000 2.679850 
# 
# From -- ./inp_files/6192.got.cif
#   From: 2010.05.17/outbox.cif.g08.bks.cpg/sg20_4_cif.got.tgz:6192.got - 2010.06.03 22:52:26.
