data_PCOD9319218
_publ_section_title
;
Structure prediction by ZEFSAII (Michael W. Deem and Ramdas Pophale) SiO2 
 PCOD9319218
Probable space group: C 2 2 21
;
_chemical_formula_sum "Si O2"
_cell_formula_units_Z 52
_cell_length_a 21.208136
_cell_length_b 13.381484
_cell_length_c 8.096070
_cell_angle_alpha 90.000000
_cell_angle_beta 90.000000
_cell_angle_gamma 90.000000
_cell_volume 2297.634974
_symmetry_space_group_name_H-M "C 2 2 21"
_symmetry_group_IT_number 20
_symmetry_cell_setting 'orthorhombic'
loop_
_space_group_symop_operation_xyz
x,y,z
-x,-y,1/2+z
x,-y,-z
-x,y,1/2-z
1/2+x,1/2+y,z
1/2-x,1/2-y,1/2+z
1/2+x,1/2-y,-z
1/2-x,1/2+y,1/2-z
loop_
_atom_site_type_symbol
_atom_site_label
_atom_site_fract_x
_atom_site_fract_y
_atom_site_fract_z
Si Si1 0.000000 0.754237 0.250000
Si Si2 0.903391 0.345009 0.153347
Si Si3 0.695033 0.688825 0.505879
Si Si4 0.382297 0.500000 0.500000
Si Si5 0.586373 0.575525 0.650499
Si Si6 0.278516 0.644837 0.359278
Si Si7 0.456410 0.880401 0.487700
Si Si8 0.324565 0.000000 0.000000
O O1 0.039542 0.830609 0.362071
O O2 0.048173 0.681109 0.156199
O O3 0.858644 0.265380 0.064368
O O4 0.914801 0.328615 0.346432
O O5 0.971133 0.361086 0.068732
O O6 0.868070 0.449523 0.135200
O O7 0.657882 0.616828 0.630241
O O8 0.714403 0.635759 0.336630
O O9 0.754695 0.744754 0.587494
O O10 0.419588 0.472550 0.332684
O O11 0.338508 0.595148 0.449687
O O12 0.575440 0.500000 0.500000
O O13 0.219968 0.579068 0.415326
O O14 0.446534 0.000000 0.500000
#
# Coordination Sequence:
#
# PCOD9319218 Si02
#       8
#     4   8   8   4   8   8   8   4
#     4  12  28  46  70 108 140 192 246 302 366 452
#     4  10  21  40  65  96 135 172 223 282 362 419
#     4  11  22  45  67  99 136 184 232 299 357 416
#     4  11  24  46  72 106 138 190 246 299 362 428
#     4  12  27  48  74 102 149 192 246 303 362 435
#     4  10  22  40  70  97 137 177 237 292 352 420
#     4  11  23  41  70 101 139 182 230 298 369 449
#     4   9  20  40  66  94 134 178 216 287 344 438
#
# _framework density 22.631968000000001
#
# number of rings (size 3 to 8) (size 9 to 14) (size 15 to 20)
#    0.000    1.231    3.846    1.846    3.231    0.000 
#    2.769    0.000    0.000    0.000    0.000    0.000 
#    0.000    0.000    0.000    0.000    0.000    0.000 
#
# Total GULP energy -145279.709093 kJ/mol
# GULP energy per Si atom -5587.681119 kJ/mol
# Density = 2.258046 g / cm^3
# Si number density = 22.631968 Si / 1000 Ang^3
#
#
#
# Elastic Constant Matrix: (Units=GPa)
#
#
# Indices 1 2 3 4 5 6 
#
# 1 42.9594 12.7146 2.1724 0.0000 0.0000 0.0000
# 2 12.7146 91.4812 31.4368 0.0000 0.0000 0.0000
# 3 2.1724 31.4368 100.8406 0.0000 0.0000 0.0000
# 4 0.0000 0.0000 0.0000 40.6304 0.0000 0.0000
# 5 0.0000 0.0000 0.0000 0.0000 -13.4946 0.0000
# 6 0.0000 0.0000 0.0000 0.0000 0.0000 4.0280
#
#
#
# Elastic Compliance Matrix: (Units=1/GPa)
#
#
# Indices 1 2 3 4 5 6 
#
# 1 0.024308 -0.003582 0.000593 0.000000 0.000000 0.000000
# 2 -0.003582 0.012771 -0.003904 0.000000 0.000000 0.000000
# 3 0.000593 -0.003904 0.011121 0.000000 0.000000 0.000000
# 4 0.000000 0.000000 0.000000 0.024612 0.000000 0.000000
# 5 0.000000 0.000000 0.000000 0.000000 -0.074104 0.000000
# 6 0.000000 0.000000 0.000000 0.000000 0.000000 0.248259
#
#
# Mechanical properties :
#
#
# Convention : Reuss Voigt Hill
#
# Bulk Modulus (GPa) = 29.05861 36.43653 32.74757
# Shear Modulus (GPa) = 18.36717 18.82993 18.59855
#
# Velocity S-wave (km/s) = 2.85188 2.88758 2.86978
# Velocity P-wave (km/s) = 4.86947 5.22035 5.04796
#
# Compressibility (1/GPa) = 0.03441321
#
# Stress axis : x y z
#
# Youngs Moduli (GPa) = 41.13861 78.30420 89.92040
#
# Poissons Ratio (x) = 0.28051 -0.05333
# Poissons Ratio (y) = 0.14737 0.35106
# Poissons Ratio (z) = -0.02440 0.30570
#
# Static dielectric constant tensor:
#      x y z
#    x 1.824610 0.000000 0.000000 
#    y 0.000000 1.958110 0.000000 
#    z 0.000000 0.000000 1.857690 
# 
# From -- ./inp_files/10149.got.cif
#   From: 2010.05.17/outbox.cif.g08.bks.cpg/sg20_6_cif.got.tgz:10149.got - 2010.06.03 22:52:26.
