data_PCOD9319616
_publ_section_title
;
Structure prediction by ZEFSAII (Michael W. Deem and Ramdas Pophale) SiO2 
 PCOD9319616
Probable space group: C 2 2 21
;
_chemical_formula_sum "Si O2"
_cell_formula_units_Z 36
_cell_length_a 23.097129
_cell_length_b 10.361180
_cell_length_c 6.250017
_cell_angle_alpha 90.000000
_cell_angle_beta 90.000000
_cell_angle_gamma 90.000000
_cell_volume 1495.713512
_symmetry_space_group_name_H-M "C 2 2 21"
_symmetry_group_IT_number 20
_symmetry_cell_setting 'orthorhombic'
loop_
_space_group_symop_operation_xyz
x,y,z
-x,-y,1/2+z
x,-y,-z
-x,y,1/2-z
1/2+x,1/2+y,z
1/2-x,1/2-y,1/2+z
1/2+x,1/2-y,-z
1/2-x,1/2+y,1/2-z
loop_
_atom_site_type_symbol
_atom_site_label
_atom_site_fract_x
_atom_site_fract_y
_atom_site_fract_z
Si Si1 0.333766 0.695411 0.596716
Si Si2 0.520048 0.000000 0.000000
Si Si3 0.769128 0.608411 0.675285
Si Si4 0.438619 0.277718 0.676991
Si Si5 0.369697 0.864989 0.984236
O O1 0.296087 0.598723 0.738848
O O2 0.285960 0.755804 0.435505
O O3 0.391027 0.653118 0.471362
O O4 0.351992 0.810997 0.756811
O O5 0.549913 0.138988 0.939377
O O6 0.500000 0.967904 0.750000
O O7 0.778950 0.500000 0.500000
O O8 0.815117 0.603617 0.865178
O O9 0.500000 0.335941 0.750000
O O10 0.406548 0.243023 0.897353
O O11 0.404159 0.000000 0.000000
#
# Coordination Sequence:
#
# PCOD9319616 Si02
#       5
#     8   4   8   8   8
#     4  11  22  37  59  86 127 174 212 266 325 403
#     4  10  22  36  56  86 130 174 218 262 324 410
#     4  11  22  38  58  90 126 170 213 263 325 391
#     4  10  24  35  54  86 126 175 220 260 324 401
#     4  11  21  35  58  83 128 168 202 257 324 392
#
# _framework density 24.068777999999998
#
# number of rings (size 3 to 8) (size 9 to 14) (size 15 to 20)
#    0.000    1.333    4.444    1.333   15.556    0.000 
#    0.000    0.000    0.000    0.000    0.000    0.000 
#    6.667    1.778    0.000    0.000    0.000    0.000 
#
# Total GULP energy -100374.596488 kJ/mol
# GULP energy per Si atom -5576.366472 kJ/mol
# Density = 2.401400 g / cm^3
# Si number density = 24.068778 Si / 1000 Ang^3
#
#
#
# Elastic Constant Matrix: (Units=GPa)
#
#
# Indices 1 2 3 4 5 6 
#
# 1 142.9435 3.0855 77.7870 0.0000 0.0000 0.0000
# 2 3.0855 19.8693 9.8982 0.0000 0.0000 0.0000
# 3 77.7870 9.8982 122.7263 0.0000 0.0000 0.0000
# 4 0.0000 0.0000 0.0000 12.9121 0.0000 0.0000
# 5 0.0000 0.0000 0.0000 0.0000 57.4296 0.0000
# 6 0.0000 0.0000 0.0000 0.0000 0.0000 18.3941
#
#
#
# Elastic Compliance Matrix: (Units=1/GPa)
#
#
# Indices 1 2 3 4 5 6 
#
# 1 0.010740 0.001796 -0.006952 0.000000 0.000000 0.000000
# 2 0.001796 0.052736 -0.005391 0.000000 0.000000 0.000000
# 3 -0.006952 -0.005391 0.012990 0.000000 0.000000 0.000000
# 4 0.000000 0.000000 0.000000 0.077447 0.000000 0.000000
# 5 0.000000 0.000000 0.000000 0.000000 0.017413 0.000000
# 6 0.000000 0.000000 0.000000 0.000000 0.000000 0.054365
#
#
# Mechanical properties :
#
#
# Convention : Reuss Voigt Hill
#
# Bulk Modulus (GPa) = 18.06051 51.89785 34.97918
# Shear Modulus (GPa) = 18.85064 30.73172 24.79118
#
# Velocity S-wave (km/s) = 2.80161 3.57715 3.21286
# Velocity P-wave (km/s) = 4.24091 6.21856 5.32240
#
# Compressibility (1/GPa) = 0.05536942
#
# Stress axis : x y z
#
# Youngs Moduli (GPa) = 93.10715 18.96247 76.98477
#
# Poissons Ratio (x) = -0.03405 0.53522
# Poissons Ratio (y) = -0.16718 0.41505
# Poissons Ratio (z) = 0.64731 0.10223
#
# Static dielectric constant tensor:
#      x y z
#    x 2.094170 0.000000 0.000000 
#    y 0.000000 1.958490 0.000000 
#    z 0.000000 0.000000 1.931330 
# 
# From -- ./inp_files/1218.got.cif
#   From: 2010.05.17/outbox.cif.g08.bks.cpg/sg20_1_cif.got.tgz:1218.got - 2010.06.03 22:52:26.
