data_PCOD9319084
_publ_section_title
;
Structure prediction by ZEFSAII (Michael W. Deem and Ramdas Pophale) SiO2 
 PCOD9319084
Probable space group: C 2 2 21
;
_chemical_formula_sum "Si O2"
_cell_formula_units_Z 60
_cell_length_a 11.514462
_cell_length_b 31.644823
_cell_length_c 7.435345
_cell_angle_alpha 90.000000
_cell_angle_beta 90.000000
_cell_angle_gamma 90.000000
_cell_volume 2709.239796
_symmetry_space_group_name_H-M "C 2 2 21"
_symmetry_group_IT_number 20
_symmetry_cell_setting 'orthorhombic'
loop_
_space_group_symop_operation_xyz
x,y,z
-x,-y,1/2+z
x,-y,-z
-x,y,1/2-z
1/2+x,1/2+y,z
1/2-x,1/2-y,1/2+z
1/2+x,1/2-y,-z
1/2-x,1/2+y,1/2-z
loop_
_atom_site_type_symbol
_atom_site_label
_atom_site_fract_x
_atom_site_fract_y
_atom_site_fract_z
Si Si1 0.048512 0.679982 0.560293
Si Si2 0.465763 0.950639 0.539134
Si Si3 0.181867 0.599037 0.528228
Si Si4 0.245013 0.225928 0.780000
Si Si5 0.303078 0.812503 0.598946
Si Si6 0.500000 0.389584 0.750000
Si Si7 0.263061 0.409650 0.854299
Si Si8 0.602915 0.350688 0.106819
O O1 0.123451 0.643445 0.470919
O O2 0.130908 0.717494 0.625547
O O3 0.000000 0.661704 0.750000
O O4 0.940036 0.689077 0.437764
O O5 0.500000 0.943128 0.750000
O O6 0.570688 0.929572 0.424168
O O7 0.335959 0.931111 0.522897
O O8 0.461824 0.000000 0.500000
O O9 0.235642 0.577696 0.352057
O O10 0.288990 0.616722 0.647617
O O11 0.248641 0.204511 0.586138
O O12 0.150461 0.197332 0.883440
O O13 0.223719 0.275384 0.762848
O O14 0.258096 0.859421 0.626606
O O15 0.401626 0.415644 0.859728
O O16 0.439224 0.361790 0.594321
O O17 0.500000 0.355874 0.250000
#
# Coordination Sequence:
#
# PCOD9319084 Si02
#       8
#     8   8   8   8   8   4   8   8
#     4   9  19  36  53  80 118 158 202 260 317 374
#     4  10  21  41  66 105 129 160 213 275 342 407
#     4   9  19  38  65  89 125 162 211 264 329 392
#     4  10  24  37  53  86 121 162 222 274 316 376
#     4  11  22  38  57  84 123 165 218 268 330 386
#     4  10  22  38  68  88 126 174 208 266 318 398
#     4  10  21  39  65  90 126 171 213 259 333 405
#     4  10  21  41  59  93 126 169 222 264 321 402
#
# _framework density 22.146432999999998
#
# number of rings (size 3 to 8) (size 9 to 14) (size 15 to 20)
#    0.000    2.133    1.333    0.800    5.600    2.667 
#    7.200    0.000    0.000    7.200    1.733    0.000 
#    0.000    0.000    0.000    0.000    0.000    0.000 
#
# Total GULP energy -167380.452505 kJ/mol
# GULP energy per Si atom -5579.348417 kJ/mol
# Density = 2.209603 g / cm^3
# Si number density = 22.146433 Si / 1000 Ang^3
#
#
#
# Elastic Constant Matrix: (Units=GPa)
#
#
# Indices 1 2 3 4 5 6 
#
# 1 137.6035 58.8456 24.9841 0.0000 0.0000 0.0000
# 2 58.8456 101.4635 -0.5553 0.0000 0.0000 0.0000
# 3 24.9841 -0.5553 53.0440 0.0000 0.0000 0.0000
# 4 0.0000 0.0000 0.0000 22.8074 0.0000 0.0000
# 5 0.0000 0.0000 0.0000 0.0000 42.1752 0.0000
# 6 0.0000 0.0000 0.0000 0.0000 0.0000 115.4308
#
#
#
# Elastic Compliance Matrix: (Units=1/GPa)
#
#
# Indices 1 2 3 4 5 6 
#
# 1 0.010941 -0.006374 -0.005220 0.000000 0.000000 0.000000
# 2 -0.006374 0.013570 0.003144 0.000000 0.000000 0.000000
# 3 -0.005220 0.003144 0.021344 0.000000 0.000000 0.000000
# 4 0.000000 0.000000 0.000000 0.043845 0.000000 0.000000
# 5 0.000000 0.000000 0.000000 0.000000 0.023711 0.000000
# 6 0.000000 0.000000 0.000000 0.000000 0.000000 0.008663
#
#
# Mechanical properties :
#
#
# Convention : Reuss Voigt Hill
#
# Bulk Modulus (GPa) = 34.53633 50.96219 42.74926
# Shear Modulus (GPa) = 33.64190 50.00512 41.82351
#
# Velocity S-wave (km/s) = 3.90175 4.75692 4.35040
# Velocity P-wave (km/s) = 5.99388 7.29606 6.67679
#
# Compressibility (1/GPa) = 0.02895502
#
# Stress axis : x y z
#
# Youngs Moduli (GPa) = 91.40125 73.69407 46.85205
#
# Poissons Ratio (x) = 0.46972 0.24456
# Poissons Ratio (y) = 0.58258 -0.14731
# Poissons Ratio (z) = 0.47711 -0.23171
#
# Static dielectric constant tensor:
#      x y z
#    x 1.909860 0.000000 0.000000 
#    y 0.000000 1.771660 0.000000 
#    z 0.000000 0.000000 1.883040 
# 
# From -- ./inp_files/7650.got.cif
#   From: 2010.05.17/outbox.cif.g08.bks.cpg/sg20_4_cif.got.tgz:7650.got - 2010.06.03 22:52:26.
