data_PCOD9319342
_publ_section_title
;
Structure prediction by ZEFSAII (Michael W. Deem and Ramdas Pophale) SiO2 
 PCOD9319342
Probable space group: C 2 2 21
;
_chemical_formula_sum "Si O2"
_cell_formula_units_Z 56
_cell_length_a 10.508910
_cell_length_b 15.928909
_cell_length_c 14.820895
_cell_angle_alpha 90.000000
_cell_angle_beta 90.000000
_cell_angle_gamma 90.000000
_cell_volume 2480.950700
_symmetry_space_group_name_H-M "C 2 2 21"
_symmetry_group_IT_number 20
_symmetry_cell_setting 'orthorhombic'
loop_
_space_group_symop_operation_xyz
x,y,z
-x,-y,1/2+z
x,-y,-z
-x,y,1/2-z
1/2+x,1/2+y,z
1/2-x,1/2-y,1/2+z
1/2+x,1/2-y,-z
1/2-x,1/2+y,1/2-z
loop_
_atom_site_type_symbol
_atom_site_label
_atom_site_fract_x
_atom_site_fract_y
_atom_site_fract_z
Si Si1 0.052134 0.935203 0.919695
Si Si2 0.199363 0.966653 0.227818
Si Si3 0.822873 0.802959 0.939044
Si Si4 0.152568 0.698930 0.735929
Si Si5 0.580596 0.033335 0.398228
Si Si6 0.795880 0.460557 0.596371
Si Si7 0.727831 0.807938 0.607086
O O1 0.173929 0.875021 0.935629
O O2 0.937310 0.868718 0.923200
O O3 0.086729 0.993337 0.832583
O O4 0.036398 0.000000 0.000000
O O5 0.234945 0.870147 0.247499
O O6 0.322760 0.990326 0.168948
O O7 0.204626 0.012195 0.323628
O O8 0.838965 0.730148 0.866707
O O9 0.702193 0.860838 0.916224
O O10 0.807292 0.765776 0.038280
O O11 0.198225 0.772236 0.805352
O O12 0.000000 0.678863 0.750000
O O13 0.436127 0.009180 0.378426
O O14 0.605297 0.132393 0.381586
O O15 0.604454 0.000000 0.500000
O O16 0.761769 0.500000 0.500000
#
# Coordination Sequence:
#
# PCOD9319342 Si02
#       7
#     8   8   8   8   8   8   8
#     4  11  24  46  71 101 141 190 237 287 366 439
#     4  11  23  42  69  94 135 183 238 286 355 434
#     4  12  25  41  71 102 143 184 233 299 357 426
#     4  12  24  43  69 107 142 187 241 302 364 426
#     4  10  21  41  68  98 134 183 241 295 357 434
#     4  11  24  40  65  98 136 184 239 296 351 427
#     4  11  24  42  69 105 140 187 237 301 364 420
#
# _framework density 22.571994
#
# number of rings (size 3 to 8) (size 9 to 14) (size 15 to 20)
#    0.000    0.857    1.429    7.714    2.000    2.286 
#    0.000    0.000    0.000    0.000    0.000    0.000 
#    0.000    0.000    0.000    0.000    0.000    0.000 
#
# Total GULP energy -156319.861178 kJ/mol
# GULP energy per Si atom -5582.852185 kJ/mol
# Density = 2.252062 g / cm^3
# Si number density = 22.571994 Si / 1000 Ang^3
#
#
#
# Elastic Constant Matrix: (Units=GPa)
#
#
# Indices 1 2 3 4 5 6 
#
# 1 87.9185 -0.8405 20.3881 0.0000 0.0000 0.0000
# 2 -0.8405 66.4310 -8.2097 0.0000 0.0000 0.0000
# 3 20.3881 -8.2097 85.9023 0.0000 0.0000 0.0000
# 4 0.0000 0.0000 0.0000 45.1013 0.0000 0.0000
# 5 0.0000 0.0000 0.0000 0.0000 -18.7465 0.0000
# 6 0.0000 0.0000 0.0000 0.0000 0.0000 20.9937
#
#
#
# Elastic Compliance Matrix: (Units=1/GPa)
#
#
# Indices 1 2 3 4 5 6 
#
# 1 0.012039 -0.000203 -0.002877 0.000000 0.000000 0.000000
# 2 -0.000203 0.015237 0.001504 0.000000 0.000000 0.000000
# 3 -0.002877 0.001504 0.012468 0.000000 0.000000 0.000000
# 4 0.000000 0.000000 0.000000 0.022172 0.000000 0.000000
# 5 0.000000 0.000000 0.000000 0.000000 -0.053343 0.000000
# 6 0.000000 0.000000 0.000000 0.000000 0.000000 0.047633
#
#
# Mechanical properties :
#
#
# Convention : Reuss Voigt Hill
#
# Bulk Modulus (GPa) = 27.32815 29.21417 28.27116
# Shear Modulus (GPa) = 69.87648 24.73062 47.30355
#
# Velocity S-wave (km/s) = 5.56995 3.31363 4.58282
# Velocity P-wave (km/s) = 7.31432 5.25461 6.36829
#
# Compressibility (1/GPa) = 0.03659230
#
# Stress axis : x y z
#
# Youngs Moduli (GPa) = 83.06086 65.63163 80.20729
#
# Poissons Ratio (x) = 0.01334 0.23074
# Poissons Ratio (y) = 0.01688 -0.12066
# Poissons Ratio (z) = 0.23895 -0.09874
#
# Static dielectric constant tensor:
#      x y z
#    x 1.937040 0.000000 0.000000 
#    y 0.000000 2.015520 0.000000 
#    z 0.000000 0.000000 1.802990 
# 
# From -- ./inp_files/20046.got.cif
#   From: 2010.05.17/outbox.cif.g08.bks.cpg/sg20_11_cif.got.tgz:20046.got - 2010.06.03 22:52:26.
