data_PCOD9319812
_publ_section_title
;
Structure prediction by ZEFSAII (Michael W. Deem and Ramdas Pophale) SiO2 
 PCOD9319812
Probable space group: C 2 2 21
;
_chemical_formula_sum "Si O2"
_cell_formula_units_Z 40
_cell_length_a 6.682279
_cell_length_b 12.537812
_cell_length_c 18.599129
_cell_angle_alpha 90.000000
_cell_angle_beta 90.000000
_cell_angle_gamma 90.000000
_cell_volume 1558.256562
_symmetry_space_group_name_H-M "C 2 2 21"
_symmetry_group_IT_number 20
_symmetry_cell_setting 'orthorhombic'
loop_
_space_group_symop_operation_xyz
x,y,z
-x,-y,1/2+z
x,-y,-z
-x,y,1/2-z
1/2+x,1/2+y,z
1/2-x,1/2-y,1/2+z
1/2+x,1/2-y,-z
1/2-x,1/2+y,1/2-z
loop_
_atom_site_type_symbol
_atom_site_label
_atom_site_fract_x
_atom_site_fract_y
_atom_site_fract_z
Si Si1 0.000000 0.817416 0.750000
Si Si2 0.749219 0.230398 0.123967
Si Si3 0.776275 0.994285 0.304344
Si Si4 0.000000 0.812033 0.250000
Si Si5 0.039779 0.424474 0.430888
Si Si6 0.871390 0.998252 0.078656
O O1 0.061063 0.759175 0.678544
O O2 0.188678 0.895173 0.764813
O O3 0.555471 0.251516 0.175448
O O4 0.809662 0.323108 0.067863
O O5 0.763633 0.112751 0.091946
O O6 0.961293 0.987634 0.361028
O O7 0.590267 0.983012 0.355422
O O8 0.812475 0.895599 0.250577
O O9 0.069500 0.500000 0.500000
O O10 0.800676 0.408599 0.425703
O O11 0.967452 0.000000 0.000000
#
# Coordination Sequence:
#
# PCOD9319812 Si02
#       6
#     4   8   8   4   8   8
#     4   9  20  36  59  92 118 158 207 254 315 376
#     4  10  22  40  62  96 120 166 212 250 324 374
#     4   9  19  40  60  86 127 159 200 264 312 363
#     4   9  20  36  59  92 118 158 207 254 315 376
#     4  10  22  42  61  92 126 164 210 257 310 374
#     4  10  22  42  61  92 126 164 210 257 310 374
#
# _framework density 25.669715
#
# number of rings (size 3 to 8) (size 9 to 14) (size 15 to 20)
#    0.000    2.400    0.000    0.600    5.600    0.000 
#   28.800    0.000    0.000    0.000    0.000    0.000 
#    0.000    0.000    0.000    0.000    0.000    0.000 
#
# Total GULP energy -111565.669259 kJ/mol
# GULP energy per Si atom -5578.283463 kJ/mol
# Density = 2.561129 g / cm^3
# Si number density = 25.669715 Si / 1000 Ang^3
#
#
#
# Elastic Constant Matrix: (Units=GPa)
#
#
# Indices 1 2 3 4 5 6 
#
# 1 76.9594 12.7904 18.2382 0.0000 0.0000 0.0000
# 2 12.7904 86.8857 20.1980 0.0000 0.0000 0.0000
# 3 18.2382 20.1980 111.5771 0.0000 0.0000 0.0000
# 4 0.0000 0.0000 0.0000 48.6523 0.0000 0.0000
# 5 0.0000 0.0000 0.0000 0.0000 50.8227 0.0000
# 6 0.0000 0.0000 0.0000 0.0000 0.0000 21.5581
#
#
#
# Elastic Compliance Matrix: (Units=1/GPa)
#
#
# Indices 1 2 3 4 5 6 
#
# 1 0.013718 -0.001564 -0.001959 0.000000 0.000000 0.000000
# 2 -0.001564 0.012193 -0.001952 0.000000 0.000000 0.000000
# 3 -0.001959 -0.001952 0.009636 0.000000 0.000000 0.000000
# 4 0.000000 0.000000 0.000000 0.020554 0.000000 0.000000
# 5 0.000000 0.000000 0.000000 0.000000 0.019676 0.000000
# 6 0.000000 0.000000 0.000000 0.000000 0.000000 0.046386
#
#
# Mechanical properties :
#
#
# Convention : Reuss Voigt Hill
#
# Bulk Modulus (GPa) = 40.65422 41.98616 41.32019
# Shear Modulus (GPa) = 35.38250 39.15300 37.26775
#
# Velocity S-wave (km/s) = 3.71668 3.90970 3.81441
# Velocity P-wave (km/s) = 5.85577 6.06406 5.96082
#
# Compressibility (1/GPa) = 0.02459769
#
# Stress axis : x y z
#
# Youngs Moduli (GPa) = 72.89645 82.01233 103.77801
#
# Poissons Ratio (x) = 0.12827 0.20332
# Poissons Ratio (y) = 0.11401 0.20254
# Poissons Ratio (z) = 0.14282 0.16006
#
# Static dielectric constant tensor:
#      x y z
#    x 2.019370 0.000000 0.000000 
#    y 0.000000 2.148550 0.000000 
#    z 0.000000 0.000000 2.039950 
# 
# From -- ./inp_files/23321.got.cif
#   From: 2010.05.17/outbox.cif.g08.bks.cpg/sg20_12_cif.got.tgz:23321.got - 2010.06.03 22:52:26.
