data_PCOD9319693
_publ_section_title
;
Structure prediction by ZEFSAII (Michael W. Deem and Ramdas Pophale) SiO2 
 PCOD9319693
Probable space group: C 2 2 21
;
_chemical_formula_sum "Si O2"
_cell_formula_units_Z 36
_cell_length_a 12.522822
_cell_length_b 22.076321
_cell_length_c 6.319059
_cell_angle_alpha 90.000000
_cell_angle_beta 90.000000
_cell_angle_gamma 90.000000
_cell_volume 1746.953391
_symmetry_space_group_name_H-M "C 2 2 21"
_symmetry_group_IT_number 20
_symmetry_cell_setting 'orthorhombic'
loop_
_space_group_symop_operation_xyz
x,y,z
-x,-y,1/2+z
x,-y,-z
-x,y,1/2-z
1/2+x,1/2+y,z
1/2-x,1/2-y,1/2+z
1/2+x,1/2-y,-z
1/2-x,1/2+y,1/2-z
loop_
_atom_site_type_symbol
_atom_site_label
_atom_site_fract_x
_atom_site_fract_y
_atom_site_fract_z
Si Si1 0.000000 0.370265 0.250000
Si Si2 0.163474 0.000000 0.000000
Si Si3 0.190279 0.606058 0.474632
Si Si4 0.161049 0.820655 0.305229
Si Si5 0.500000 0.584052 0.750000
Si Si6 0.640999 0.195403 0.097703
O O1 0.089847 0.408398 0.373525
O O2 0.940632 0.327573 0.420160
O O3 0.243152 0.951545 0.893648
O O4 0.084819 0.040053 0.858528
O O5 0.269860 0.645354 0.623218
O O6 0.148465 0.646264 0.282934
O O7 0.242441 0.801804 0.488599
O O8 0.116364 0.760299 0.197408
O O9 0.071870 0.868381 0.383933
#
# Coordination Sequence:
#
# PCOD9319693 Si02
#       6
#     4   4   8   8   4   8
#     4  10  24  40  63  99 126 170 230 270 354 388
#     4  10  24  46  66  92 134 174 232 264 344 392
#     4  10  22  44  61  94 129 174 221 285 325 404
#     4  10  22  38  62  98 134 171 220 263 342 399
#     4  10  24  40  65  97 128 178 220 272 322 410
#     4  11  21  39  66  95 138 172 217 285 334 409
#
# _framework density 20.607303999999999
#
# number of rings (size 3 to 8) (size 9 to 14) (size 15 to 20)
#    0.000    1.778    2.222    0.667    6.222    0.000 
#    4.000    0.000    0.000    0.000    0.000    0.000 
#    0.000    0.000    0.000    0.000    0.000    0.000 
#
# Total GULP energy -100449.034541 kJ/mol
# GULP energy per Si atom -5580.501919 kJ/mol
# Density = 2.056040 g / cm^3
# Si number density = 20.607304 Si / 1000 Ang^3
#
#
#
# Elastic Constant Matrix: (Units=GPa)
#
#
# Indices 1 2 3 4 5 6 
#
# 1 128.8272 61.7913 36.1592 0.0000 0.0000 0.0000
# 2 61.7913 124.5912 31.1153 0.0000 0.0000 0.0000
# 3 36.1592 31.1153 68.2234 0.0000 0.0000 0.0000
# 4 0.0000 0.0000 0.0000 16.0463 0.0000 0.0000
# 5 0.0000 0.0000 0.0000 0.0000 21.0850 0.0000
# 6 0.0000 0.0000 0.0000 0.0000 0.0000 51.7926
#
#
#
# Elastic Compliance Matrix: (Units=1/GPa)
#
#
# Indices 1 2 3 4 5 6 
#
# 1 0.010980 -0.004505 -0.003765 0.000000 0.000000 0.000000
# 2 -0.004505 0.010907 -0.002586 0.000000 0.000000 0.000000
# 3 -0.003765 -0.002586 0.017833 0.000000 0.000000 0.000000
# 4 0.000000 0.000000 0.000000 0.062319 0.000000 0.000000
# 5 0.000000 0.000000 0.000000 0.000000 0.047427 0.000000
# 6 0.000000 0.000000 0.000000 0.000000 0.000000 0.019308
#
#
# Mechanical properties :
#
#
# Convention : Reuss Voigt Hill
#
# Bulk Modulus (GPa) = 55.53601 64.41927 59.97764
# Shear Modulus (GPa) = 25.44676 30.62320 28.03498
#
# Velocity S-wave (km/s) = 3.51784 3.85910 3.69241
# Velocity P-wave (km/s) = 6.59610 7.15438 6.88090
#
# Compressibility (1/GPa) = 0.01800634
#
# Stress axis : x y z
#
# Youngs Moduli (GPa) = 91.07484 91.68757 56.07684
#
# Poissons Ratio (x) = 0.41308 0.21111
# Poissons Ratio (y) = 0.41032 0.14504
# Poissons Ratio (z) = 0.34287 0.23714
#
# Static dielectric constant tensor:
#      x y z
#    x 1.799190 0.000000 0.000000 
#    y 0.000000 1.720400 0.000000 
#    z 0.000000 0.000000 1.663190 
# 
# From -- ./inp_files/1246.got.cif
#   From: 2010.05.17/outbox.cif.g08.bks.cpg/sg20_1_cif.got.tgz:1246.got - 2010.06.03 22:52:26.
