data_PCOD9319688
_publ_section_title
;
Structure prediction by ZEFSAII (Michael W. Deem and Ramdas Pophale) SiO2 
 PCOD9319688
Probable space group: C 2 2 21
;
_chemical_formula_sum "Si O2"
_cell_formula_units_Z 40
_cell_length_a 9.137056
_cell_length_b 24.432357
_cell_length_c 8.807050
_cell_angle_alpha 90.000000
_cell_angle_beta 90.000000
_cell_angle_gamma 90.000000
_cell_volume 1966.084205
_symmetry_space_group_name_H-M "C 2 2 21"
_symmetry_group_IT_number 20
_symmetry_cell_setting 'orthorhombic'
loop_
_space_group_symop_operation_xyz
x,y,z
-x,-y,1/2+z
x,-y,-z
-x,y,1/2-z
1/2+x,1/2+y,z
1/2-x,1/2-y,1/2+z
1/2+x,1/2-y,-z
1/2-x,1/2+y,1/2-z
loop_
_atom_site_type_symbol
_atom_site_label
_atom_site_fract_x
_atom_site_fract_y
_atom_site_fract_z
Si Si1 0.866134 0.654143 0.855623
Si Si2 0.968345 0.736993 0.424771
Si Si3 0.698578 0.320463 0.441297
Si Si4 0.344392 0.442267 0.060753
Si Si5 0.315650 0.555576 0.574636
O O1 0.750904 0.679328 0.734831
O O2 0.787381 0.607263 0.951755
O O3 0.000000 0.632057 0.750000
O O4 0.937777 0.698140 0.964927
O O5 0.804501 0.720760 0.469879
O O6 0.000000 0.724160 0.250000
O O7 0.033499 0.797858 0.452044
O O8 0.718229 0.383605 0.490864
O O9 0.516888 0.438509 0.020065
O O10 0.326955 0.446310 0.242342
O O11 0.285746 0.500000 0.000000
O O12 0.257928 0.500000 0.500000
#
# Coordination Sequence:
#
# PCOD9319688 Si02
#       5
#     8   8   8   8   8
#     4   9  20  39  55  81 122 154 193 235 293 351
#     4  11  23  37  59  89 116 155 197 238 287 344
#     4  10  22  38  62  86 117 158 187 241 293 347
#     4   9  19  35  59  85 114 146 191 237 291 345
#     4   9  18  34  59  83 109 154 190 238 288 345
#
# _framework density 20.345009000000001
#
# number of rings (size 3 to 8) (size 9 to 14) (size 15 to 20)
#    0.000    2.400    0.000    1.200    8.400    1.600 
#    0.000   10.000   13.200    0.000    0.000    0.000 
#    0.000    0.000    0.000    0.000    0.000    0.000 
#
# Total GULP energy -111513.666021 kJ/mol
# GULP energy per Si atom -5575.683301 kJ/mol
# Density = 2.029870 g / cm^3
# Si number density = 20.345009 Si / 1000 Ang^3
#
#
#
# Elastic Constant Matrix: (Units=GPa)
#
#
# Indices 1 2 3 4 5 6 
#
# 1 64.8146 43.6244 5.6999 0.0000 0.0000 0.0000
# 2 43.6244 99.6937 17.2956 0.0000 0.0000 0.0000
# 3 5.6999 17.2956 22.4348 0.0000 0.0000 0.0000
# 4 0.0000 0.0000 0.0000 32.7165 0.0000 0.0000
# 5 0.0000 0.0000 0.0000 0.0000 21.7692 0.0000
# 6 0.0000 0.0000 0.0000 0.0000 0.0000 29.1007
#
#
#
# Elastic Compliance Matrix: (Units=1/GPa)
#
#
# Indices 1 2 3 4 5 6 
#
# 1 0.021956 -0.009974 0.002111 0.000000 0.000000 0.000000
# 2 -0.009974 0.016110 -0.009886 0.000000 0.000000 0.000000
# 3 0.002111 -0.009886 0.051658 0.000000 0.000000 0.000000
# 4 0.000000 0.000000 0.000000 0.030566 0.000000 0.000000
# 5 0.000000 0.000000 0.000000 0.000000 0.045936 0.000000
# 6 0.000000 0.000000 0.000000 0.000000 0.000000 0.034363
#
#
# Mechanical properties :
#
#
# Convention : Reuss Voigt Hill
#
# Bulk Modulus (GPa) = 18.44094 35.57588 27.00841
# Shear Modulus (GPa) = 19.67240 24.73885 22.20563
#
# Velocity S-wave (km/s) = 3.11294 3.49085 3.30730
# Velocity P-wave (km/s) = 4.69088 5.81140 5.28094
#
# Compressibility (1/GPa) = 0.05422718
#
# Stress axis : x y z
#
# Youngs Moduli (GPa) = 45.54561 62.07260 19.35793
#
# Poissons Ratio (x) = 0.61910 -0.04086
# Poissons Ratio (y) = 0.45426 0.19137
# Poissons Ratio (z) = -0.09614 0.61364
#
# Static dielectric constant tensor:
#      x y z
#    x 1.787690 0.000000 0.000000 
#    y 0.000000 1.753350 0.000000 
#    z 0.000000 0.000000 1.704380 
# 
# From -- ./inp_files/6034.got.cif
#   From: 2010.05.17/outbox.cif.g08.bks.cpg/sg20_4_cif.got.tgz:6034.got - 2010.06.03 22:52:26.
