data_PCOD9319862
_publ_section_title
;
Structure prediction by ZEFSAII (Michael W. Deem and Ramdas Pophale) SiO2 
 PCOD9319862
Probable space group: C 2 2 21
;
_chemical_formula_sum "Si O2"
_cell_formula_units_Z 64
_cell_length_a 11.506974
_cell_length_b 8.684035
_cell_length_c 30.586941
_cell_angle_alpha 90.000000
_cell_angle_beta 90.000000
_cell_angle_gamma 90.000000
_cell_volume 3056.460182
_symmetry_space_group_name_H-M "C 2 2 21"
_symmetry_group_IT_number 20
_symmetry_cell_setting 'orthorhombic'
loop_
_space_group_symop_operation_xyz
x,y,z
-x,-y,1/2+z
x,-y,-z
-x,y,1/2-z
1/2+x,1/2+y,z
1/2-x,1/2-y,1/2+z
1/2+x,1/2-y,-z
1/2-x,1/2+y,1/2-z
loop_
_atom_site_type_symbol
_atom_site_label
_atom_site_fract_x
_atom_site_fract_y
_atom_site_fract_z
Si Si1 0.582879 0.416088 0.045618
Si Si2 0.936924 0.888138 0.885597
Si Si3 0.541107 0.683932 0.204545
Si Si4 0.507150 0.078841 0.046726
Si Si5 0.266432 0.156697 0.161979
Si Si6 0.495342 0.047986 0.301306
Si Si7 0.318325 0.976768 0.376236
Si Si8 0.187700 0.415955 0.406424
O O1 0.516718 0.530085 0.078689
O O2 0.511937 0.260616 0.040370
O O3 0.705328 0.360227 0.065153
O O4 0.600365 0.500000 0.000000
O O5 0.909443 0.710404 0.896055
O O6 0.994546 0.901248 0.838164
O O7 0.808259 0.955562 0.883841
O O8 0.500000 0.616754 0.250000
O O9 0.680782 0.671851 0.203111
O O10 0.491942 0.859810 0.200777
O O11 0.600204 0.016067 0.082432
O O12 0.380970 0.042838 0.066225
O O13 0.525226 0.000000 0.000000
O O14 0.401614 0.146610 0.175828
O O15 0.212491 0.296479 0.132980
O O16 0.257770 0.996391 0.135999
O O17 0.500000 0.094119 0.250000
O O18 0.382354 0.052413 0.333449
#
# Coordination Sequence:
#
# PCOD9319862 Si02
#       8
#     8   8   8   8   8   8   8   8
#     4  12  28  46  70 104 139 178 233 287 348 421
#     4  12  24  44  68 102 140 181 230 287 348 415
#     4  10  22  40  66 101 138 181 233 286 342 413
#     4  12  26  48  70 101 139 180 230 290 345 413
#     4  11  21  42  72  95 136 190 222 288 349 401
#     4  10  22  42  68 100 135 182 234 284 348 412
#     4  11  25  42  69 101 142 179 233 286 348 412
#     4  12  23  46  72  97 135 185 228 278 349 411
#
# _framework density 20.939253999999998
#
# number of rings (size 3 to 8) (size 9 to 14) (size 15 to 20)
#    0.000    0.750    5.000    2.625    3.500    0.500 
#    2.250    0.625    0.000    0.000    0.000    0.000 
#    0.000    0.000    0.000    0.000    0.000    0.000 
#
# Total GULP energy -178524.563883 kJ/mol
# GULP energy per Si atom -5578.892621 kJ/mol
# Density = 2.089160 g / cm^3
# Si number density = 20.939254 Si / 1000 Ang^3
#
#
#
# Elastic Constant Matrix: (Units=GPa)
#
#
# Indices 1 2 3 4 5 6 
#
# 1 81.2258 -0.0068 12.0415 0.0000 0.0000 0.0000
# 2 -0.0068 68.2054 8.8788 0.0000 0.0000 0.0000
# 3 12.0415 8.8788 108.5304 0.0000 0.0000 0.0000
# 4 0.0000 0.0000 0.0000 18.9785 0.0000 0.0000
# 5 0.0000 0.0000 0.0000 0.0000 4.3293 0.0000
# 6 0.0000 0.0000 0.0000 0.0000 0.0000 46.0129
#
#
#
# Elastic Compliance Matrix: (Units=1/GPa)
#
#
# Indices 1 2 3 4 5 6 
#
# 1 0.012520 0.000184 -0.001404 0.000000 0.000000 0.000000
# 2 0.000184 0.014822 -0.001233 0.000000 0.000000 0.000000
# 3 -0.001404 -0.001233 0.009471 0.000000 0.000000 0.000000
# 4 0.000000 0.000000 0.000000 0.052691 0.000000 0.000000
# 5 0.000000 0.000000 0.000000 0.000000 0.230986 0.000000
# 6 0.000000 0.000000 0.000000 0.000000 0.000000 0.021733
#
#
# Mechanical properties :
#
#
# Convention : Reuss Voigt Hill
#
# Bulk Modulus (GPa) = 31.34189 33.30983 32.32586
# Shear Modulus (GPa) = 13.97568 29.66734 21.82151
#
# Velocity S-wave (km/s) = 2.58629 3.76816 3.23171
# Velocity P-wave (km/s) = 4.89071 5.90546 5.42187
#
# Compressibility (1/GPa) = 0.03190618
#
# Stress axis : x y z
#
# Youngs Moduli (GPa) = 79.87520 67.46668 105.58925
#
# Poissons Ratio (x) = -0.01242 0.14826
# Poissons Ratio (y) = -0.01470 0.13019
# Poissons Ratio (z) = 0.11215 0.08319
#
# Static dielectric constant tensor:
#      x y z
#    x 1.755000 0.000000 0.000000 
#    y 0.000000 1.815960 0.000000 
#    z 0.000000 0.000000 1.766160 
# 
# From -- ./inp_files/31207.got.cif
#   From: 2010.05.17/outbox.cif.g08.bks.cpg/sg20_16_cif.got.tgz:31207.got - 2010.06.03 22:52:26.
