data_PCOD9319077
_publ_section_title
;
Structure prediction by ZEFSAII (Michael W. Deem and Ramdas Pophale) SiO2 
 PCOD9319077
Probable space group: C 2 2 21
;
_chemical_formula_sum "Si O2"
_cell_formula_units_Z 40
_cell_length_a 15.484510
_cell_length_b 14.204970
_cell_length_c 7.419740
_cell_angle_alpha 90.000000
_cell_angle_beta 90.000000
_cell_angle_gamma 90.000000
_cell_volume 1632.023751
_symmetry_space_group_name_H-M "C 2 2 21"
_symmetry_group_IT_number 20
_symmetry_cell_setting 'orthorhombic'
loop_
_space_group_symop_operation_xyz
x,y,z
-x,-y,1/2+z
x,-y,-z
-x,y,1/2-z
1/2+x,1/2+y,z
1/2-x,1/2-y,1/2+z
1/2+x,1/2-y,-z
1/2-x,1/2+y,1/2-z
loop_
_atom_site_type_symbol
_atom_site_label
_atom_site_fract_x
_atom_site_fract_y
_atom_site_fract_z
Si Si1 0.740386 0.770825 0.476925
Si Si2 0.458477 0.734812 0.054009
Si Si3 0.188409 0.398225 0.823353
Si Si4 0.000000 0.086788 0.750000
Si Si5 0.688496 0.546554 0.806342
Si Si6 0.500000 0.886631 0.750000
O O1 0.645290 0.732264 0.425006
O O2 0.801902 0.678970 0.481699
O O3 0.720552 0.832532 0.654907
O O4 0.785320 0.845038 0.339266
O O5 0.500000 0.737505 0.250000
O O6 0.494929 0.650148 0.930646
O O7 0.480556 0.823731 0.926860
O O8 0.248884 0.488045 0.819402
O O9 0.091175 0.434349 0.791646
O O10 0.910250 0.033231 0.749634
O O11 0.698232 0.500000 0.000000
#
# Coordination Sequence:
#
# PCOD9319077 Si02
#       6
#     8   8   8   4   8   4
#     4  10  21  39  64  96 132 173 230 269 343 407
#     4  10  22  38  72  99 132 178 223 276 336 404
#     4  10  22  41  69  95 134 182 220 288 341 398
#     4  11  24  46  66 103 140 180 226 277 342 415
#     4  10  23  42  69  97 139 178 224 292 339 396
#     4   9  20  42  64  97 132 176 232 273 342 399
#
# _framework density 24.509449
#
# number of rings (size 3 to 8) (size 9 to 14) (size 15 to 20)
#    0.000    2.000    0.000    3.600    8.400    1.600 
#    1.800    3.000    0.000    0.000    0.000    0.000 
#    0.000    0.000    0.000    0.000    0.000    0.000 
#
# Total GULP energy -111857.450000 kJ/mol
# GULP energy per Si atom -5592.872500 kJ/mol
# Density = 2.445366 g / cm^3
# Si number density = 24.509449 Si / 1000 Ang^3
#
#
#
# Elastic Constant Matrix: (Units=GPa)
#
#
# Indices 1 2 3 4 5 6 
#
# 1 201.1694 47.7626 24.3972 0.0000 0.0000 0.0000
# 2 47.7626 98.7447 7.1664 0.0000 0.0000 0.0000
# 3 24.3972 7.1664 133.2904 0.0000 0.0000 0.0000
# 4 0.0000 0.0000 0.0000 29.5936 0.0000 0.0000
# 5 0.0000 0.0000 0.0000 0.0000 33.4235 0.0000
# 6 0.0000 0.0000 0.0000 0.0000 0.0000 40.5135
#
#
#
# Elastic Compliance Matrix: (Units=1/GPa)
#
#
# Indices 1 2 3 4 5 6 
#
# 1 0.005722 -0.002702 -0.000902 0.000000 0.000000 0.000000
# 2 -0.002702 0.011443 -0.000121 0.000000 0.000000 0.000000
# 3 -0.000902 -0.000121 0.007674 0.000000 0.000000 0.000000
# 4 0.000000 0.000000 0.000000 0.033791 0.000000 0.000000
# 5 0.000000 0.000000 0.000000 0.000000 0.029919 0.000000
# 6 0.000000 0.000000 0.000000 0.000000 0.000000 0.024683
#
#
# Mechanical properties :
#
#
# Convention : Reuss Voigt Hill
#
# Bulk Modulus (GPa) = 57.50731 65.76189 61.63460
# Shear Modulus (GPa) = 39.53248 44.29800 41.91524
#
# Velocity S-wave (km/s) = 4.02051 4.25595 4.13990
# Velocity P-wave (km/s) = 6.71319 7.14425 6.93207
#
# Compressibility (1/GPa) = 0.01738909
#
# Stress axis : x y z
#
# Youngs Moduli (GPa) = 174.76699 87.39018 130.30999
#
# Poissons Ratio (x) = 0.23615 0.11754
# Poissons Ratio (y) = 0.47226 0.01572
# Poissons Ratio (z) = 0.15765 0.01054
#
# Static dielectric constant tensor:
#      x y z
#    x 1.897400 0.000000 0.000000 
#    y 0.000000 1.977650 0.000000 
#    z 0.000000 0.000000 2.013030 
# 
# From -- ./inp_files/8151.got.cif
#   From: 2010.05.17/outbox.cif.g08.bks.cpg/sg20_5_cif.got.tgz:8151.got - 2010.06.03 22:52:26.
