data_PCOD9319401
_publ_section_title
;
Structure prediction by ZEFSAII (Michael W. Deem and Ramdas Pophale) SiO2 
 PCOD9319401
Probable space group: C 2 2 21
;
_chemical_formula_sum "Si O2"
_cell_formula_units_Z 60
_cell_length_a 8.709856
_cell_length_b 10.405640
_cell_length_c 27.680553
_cell_angle_alpha 90.000000
_cell_angle_beta 90.000000
_cell_angle_gamma 90.000000
_cell_volume 2508.733527
_symmetry_space_group_name_H-M "C 2 2 21"
_symmetry_group_IT_number 20
_symmetry_cell_setting 'orthorhombic'
loop_
_space_group_symop_operation_xyz
x,y,z
-x,-y,1/2+z
x,-y,-z
-x,y,1/2-z
1/2+x,1/2+y,z
1/2-x,1/2-y,1/2+z
1/2+x,1/2-y,-z
1/2-x,1/2+y,1/2-z
loop_
_atom_site_type_symbol
_atom_site_label
_atom_site_fract_x
_atom_site_fract_y
_atom_site_fract_z
Si Si1 0.915444 0.084083 0.649804
Si Si2 0.417629 0.189856 0.100187
Si Si3 0.870695 0.238208 0.462243
Si Si4 0.437793 0.196860 0.203135
Si Si5 0.577229 0.304527 0.802471
Si Si6 0.431717 0.500000 0.000000
Si Si7 0.394945 0.182151 0.885788
Si Si8 0.786443 0.379754 0.556822
O O1 0.022357 0.163578 0.611497
O O2 0.949444 0.179982 0.695310
O O3 0.746724 0.089070 0.626070
O O4 0.941762 0.941493 0.669546
O O5 0.250653 0.193064 0.077977
O O6 0.446501 0.125504 0.152166
O O7 0.533911 0.117276 0.065506
O O8 0.780637 0.293515 0.508300
O O9 0.993392 0.325628 0.432573
O O10 0.962683 0.118040 0.484864
O O11 0.500000 0.125956 0.250000
O O12 0.257111 0.227835 0.205341
O O13 0.500000 0.310508 0.750000
O O14 0.496413 0.203918 0.838348
O O15 0.310247 0.504393 0.955660
O O16 0.296485 0.311107 0.898777
#
# Coordination Sequence:
#
# PCOD9319401 Si02
#       8
#     8   8   8   8   8   4   8   8
#     4   9  22  43  65  94 130 172 206 270 320 393
#     4   9  20  40  65  88 136 169 210 271 326 381
#     4  11  21  42  63 102 130 174 227 273 320 397
#     4  10  21  44  66  92 133 168 207 279 331 387
#     4  12  24  40  70  99 126 176 222 265 337 404
#     4  10  24  40  68  92 130 166 218 266 322 380
#     4  10  21  42  65  95 136 166 221 272 324 385
#     4  10  22  40  63  96 129 177 215 270 326 384
#
# _framework density 23.916450000000001
#
# number of rings (size 3 to 8) (size 9 to 14) (size 15 to 20)
#    0.800    1.067    1.333    2.800    0.000    6.933 
#    2.400    7.333    0.000    0.000    0.000    0.000 
#    0.000    0.000    0.000    0.000    0.000    0.000 
#
# Total GULP energy -167213.146098 kJ/mol
# GULP energy per Si atom -5573.771537 kJ/mol
# Density = 2.386201 g / cm^3
# Si number density = 23.916450 Si / 1000 Ang^3
#
#
#
# Elastic Constant Matrix: (Units=GPa)
#
#
# Indices 1 2 3 4 5 6 
#
# 1 107.9651 13.1427 48.2236 0.0000 0.0000 0.0000
# 2 13.1427 51.0352 32.9063 0.0000 0.0000 0.0000
# 3 48.2236 32.9063 128.0906 0.0000 0.0000 0.0000
# 4 0.0000 0.0000 0.0000 25.2771 0.0000 0.0000
# 5 0.0000 0.0000 0.0000 0.0000 64.1655 0.0000
# 6 0.0000 0.0000 0.0000 0.0000 0.0000 14.0247
#
#
#
# Elastic Compliance Matrix: (Units=1/GPa)
#
#
# Indices 1 2 3 4 5 6 
#
# 1 0.011136 -0.000197 -0.004142 0.000000 0.000000 0.000000
# 2 -0.000197 0.023488 -0.005960 0.000000 0.000000 0.000000
# 3 -0.004142 -0.005960 0.010897 0.000000 0.000000 0.000000
# 4 0.000000 0.000000 0.000000 0.039561 0.000000 0.000000
# 5 0.000000 0.000000 0.000000 0.000000 0.015585 0.000000
# 6 0.000000 0.000000 0.000000 0.000000 0.000000 0.071303
#
#
# Mechanical properties :
#
#
# Convention : Reuss Voigt Hill
#
# Bulk Modulus (GPa) = 40.12242 52.84846 46.48544
# Shear Modulus (GPa) = 24.89099 33.54803 29.21951
#
# Velocity S-wave (km/s) = 3.22956 3.74935 3.49912
# Velocity P-wave (km/s) = 5.54250 6.39442 5.98364
#
# Compressibility (1/GPa) = 0.02492372
#
# Stress axis : x y z
#
# Youngs Moduli (GPa) = 89.79647 42.57523 91.76514
#
# Poissons Ratio (x) = 0.00840 0.38009
# Poissons Ratio (y) = 0.01771 0.54690
# Poissons Ratio (z) = 0.37193 0.25374
#
# Static dielectric constant tensor:
#      x y z
#    x 1.937080 0.000000 0.000000 
#    y 0.000000 2.004780 0.000000 
#    z 0.000000 0.000000 1.966460 
# 
# From -- ./inp_files/30155.got.cif
#   From: 2010.05.17/outbox.cif.g08.bks.cpg/sg20_16_cif.got.tgz:30155.got - 2010.06.03 22:52:26.
