data_PCOD9319095
_publ_section_title
;
Structure prediction by ZEFSAII (Michael W. Deem and Ramdas Pophale) SiO2 
 PCOD9319095
Probable space group: C 2 2 21
;
_chemical_formula_sum "Si O2"
_cell_formula_units_Z 64
_cell_length_a 6.422353
_cell_length_b 26.117852
_cell_length_c 18.395594
_cell_angle_alpha 90.000000
_cell_angle_beta 90.000000
_cell_angle_gamma 90.000000
_cell_volume 3085.641345
_symmetry_space_group_name_H-M "C 2 2 21"
_symmetry_group_IT_number 20
_symmetry_cell_setting 'orthorhombic'
loop_
_space_group_symop_operation_xyz
x,y,z
-x,-y,1/2+z
x,-y,-z
-x,y,1/2-z
1/2+x,1/2+y,z
1/2-x,1/2-y,1/2+z
1/2+x,1/2-y,-z
1/2-x,1/2+y,1/2-z
loop_
_atom_site_type_symbol
_atom_site_label
_atom_site_fract_x
_atom_site_fract_y
_atom_site_fract_z
Si Si1 0.412294 0.638686 0.321673
Si Si2 0.628454 0.956373 0.681140
Si Si3 0.163019 0.882814 0.430474
Si Si4 0.548783 0.819117 0.164762
Si Si5 0.666216 0.291754 0.063934
Si Si6 0.569530 0.511426 0.920337
Si Si7 0.246319 0.582305 0.085455
Si Si8 0.314424 0.226249 0.099599
O O1 0.500000 0.665721 0.250000
O O2 0.291290 0.587711 0.295887
O O3 0.603495 0.621949 0.372622
O O4 0.249986 0.673064 0.365116
O O5 0.500000 0.975307 0.750000
O O6 0.465485 0.930191 0.626292
O O7 0.761103 0.998950 0.640147
O O8 0.316070 0.866492 0.365916
O O9 0.285836 0.896961 0.504158
O O10 0.011615 0.834788 0.446188
O O11 0.022430 0.932164 0.414162
O O12 0.500000 0.821862 0.250000
O O13 0.341344 0.813939 0.116552
O O14 0.683285 0.769068 0.142795
O O15 0.554130 0.243078 0.100971
O O16 0.753335 0.275803 0.985501
O O17 0.381604 0.470163 0.916176
O O18 0.664601 0.500000 0.000000
#
# Coordination Sequence:
#
# PCOD9319095 Si02
#       8
#     8   8   8   8   8   8   8   8
#     4  11  22  39  62  99 141 169 216 273 338 401
#     4  11  23  39  66 100 140 177 211 278 347 408
#     4  10  23  43  71  94 127 181 230 282 325 401
#     4  11  26  46  66  95 138 171 226 292 337 394
#     4  11  23  42  69  96 129 172 235 273 333 399
#     4   9  22  42  65  95 132 174 229 283 332 402
#     4  10  21  39  65  96 134 172 224 275 334 403
#     4  11  23  40  68  98 128 181 218 274 332 404
#
# _framework density 20.741230999999999
#
# number of rings (size 3 to 8) (size 9 to 14) (size 15 to 20)
#    0.000    1.500    3.750    0.375    1.750    5.500 
#    2.250    3.750    0.000    0.000    0.000    0.000 
#    0.000    0.000    0.000    0.000    0.000    0.000 
#
# Total GULP energy -178906.639167 kJ/mol
# GULP energy per Si atom -5590.832474 kJ/mol
# Density = 2.069402 g / cm^3
# Si number density = 20.741231 Si / 1000 Ang^3
#
#
#
# Elastic Constant Matrix: (Units=GPa)
#
#
# Indices 1 2 3 4 5 6 
#
# 1 72.0631 23.6418 52.2530 0.0000 0.0000 0.0000
# 2 23.6418 78.5834 44.9071 0.0000 0.0000 0.0000
# 3 52.2530 44.9071 153.2729 0.0000 0.0000 0.0000
# 4 0.0000 0.0000 0.0000 24.2352 0.0000 0.0000
# 5 0.0000 0.0000 0.0000 0.0000 38.2480 0.0000
# 6 0.0000 0.0000 0.0000 0.0000 0.0000 18.4004
#
#
#
# Elastic Compliance Matrix: (Units=1/GPa)
#
#
# Indices 1 2 3 4 5 6 
#
# 1 0.018801 -0.002394 -0.005708 0.000000 0.000000 0.000000
# 2 -0.002394 0.015589 -0.003751 0.000000 0.000000 0.000000
# 3 -0.005708 -0.003751 0.009569 0.000000 0.000000 0.000000
# 4 0.000000 0.000000 0.000000 0.041262 0.000000 0.000000
# 5 0.000000 0.000000 0.000000 0.000000 0.026145 0.000000
# 6 0.000000 0.000000 0.000000 0.000000 0.000000 0.054347
#
#
# Mechanical properties :
#
#
# Convention : Reuss Voigt Hill
#
# Bulk Modulus (GPa) = 49.37664 60.61369 54.99516
# Shear Modulus (GPa) = 25.48781 28.38454 26.93618
#
# Velocity S-wave (km/s) = 3.50930 3.70335 3.60763
# Velocity P-wave (km/s) = 6.34649 6.89736 6.62765
#
# Compressibility (1/GPa) = 0.02025249
#
# Stress axis : x y z
#
# Youngs Moduli (GPa) = 53.18808 64.14643 104.50053
#
# Poissons Ratio (x) = 0.15359 0.59650
# Poissons Ratio (y) = 0.12736 0.39200
# Poissons Ratio (z) = 0.30360 0.24063
#
# Static dielectric constant tensor:
#      x y z
#    x 1.725020 0.000000 0.000000 
#    y 0.000000 1.741600 0.000000 
#    z 0.000000 0.000000 1.733110 
# 
# From -- ./inp_files/23010.got.cif
#   From: 2010.05.17/outbox.cif.g08.bks.cpg/sg20_12_cif.got.tgz:23010.got - 2010.06.03 22:52:26.
