data_PCOD9319276
_publ_section_title
;
Structure prediction by ZEFSAII (Michael W. Deem and Ramdas Pophale) SiO2 
 PCOD9319276
Probable space group: C 2 2 21
;
_chemical_formula_sum "Si O2"
_cell_formula_units_Z 64
_cell_length_a 25.511491
_cell_length_b 14.378456
_cell_length_c 8.922843
_cell_angle_alpha 90.000000
_cell_angle_beta 90.000000
_cell_angle_gamma 90.000000
_cell_volume 3273.040247
_symmetry_space_group_name_H-M "C 2 2 21"
_symmetry_group_IT_number 20
_symmetry_cell_setting 'orthorhombic'
loop_
_space_group_symop_operation_xyz
x,y,z
-x,-y,1/2+z
x,-y,-z
-x,y,1/2-z
1/2+x,1/2+y,z
1/2-x,1/2-y,1/2+z
1/2+x,1/2-y,-z
1/2-x,1/2+y,1/2-z
loop_
_atom_site_type_symbol
_atom_site_label
_atom_site_fract_x
_atom_site_fract_y
_atom_site_fract_z
Si Si1 0.798217 0.166324 0.349548
Si Si2 0.553790 0.947668 0.658318
Si Si3 0.631920 0.797619 0.979943
Si Si4 0.557234 0.256364 0.247590
Si Si5 0.794322 0.695330 0.920881
Si Si6 0.343688 0.954550 0.281810
Si Si7 0.834120 0.199803 0.798078
Si Si8 0.276195 0.488975 0.174482
O O1 0.850493 0.210928 0.418064
O O2 0.780888 0.240477 0.222302
O O3 0.754834 0.161849 0.480163
O O4 0.803134 0.067406 0.273303
O O5 0.500000 0.967104 0.750000
O O6 0.557705 0.835516 0.647578
O O7 0.551693 0.000000 0.500000
O O8 0.606502 0.982349 0.743698
O O9 0.643439 0.889408 0.074417
O O10 0.573789 0.786204 0.915038
O O11 0.666901 0.780829 0.829598
O O12 0.500000 0.297491 0.250000
O O13 0.604347 0.325577 0.285987
O O14 0.830671 0.613035 0.858932
O O15 0.824384 0.758837 0.039596
O O16 0.286688 0.999728 0.308542
O O17 0.796344 0.112422 0.777133
O O18 0.288810 0.500000 0.000000
#
# Coordination Sequence:
#
# PCOD9319276 Si02
#       8
#     8   8   8   8   8   8   8   8
#     4  11  23  38  60  89 130 163 215 254 317 384
#     4  11  26  42  64  94 129 170 213 267 310 371
#     4   9  22  40  65  85 122 170 205 257 317 378
#     4   9  22  41  69  88 119 166 220 257 321 373
#     4  11  22  38  58  85 126 169 204 252 307 387
#     4  11  26  38  59  93 130 168 213 255 314 380
#     4  10  21  41  62  87 124 162 208 261 321 377
#     4  12  26  36  60  93 126 167 211 264 321 379
#
# _framework density 19.553685000000002
#
# number of rings (size 3 to 8) (size 9 to 14) (size 15 to 20)
#    0.750    0.750    1.250    3.750   10.500    1.500 
#    0.000    0.000    0.000    1.500    0.000    0.000 
#    0.000    0.000    0.000    0.000    0.000    0.000 
#
# Total GULP energy -178548.367071 kJ/mol
# GULP energy per Si atom -5579.636471 kJ/mol
# Density = 1.950918 g / cm^3
# Si number density = 19.553685 Si / 1000 Ang^3
#
#
#
# Elastic Constant Matrix: (Units=GPa)
#
#
# Indices 1 2 3 4 5 6 
#
# 1 88.7257 10.5497 19.2772 0.0000 0.0000 0.0000
# 2 10.5497 55.6590 24.8779 0.0000 0.0000 0.0000
# 3 19.2772 24.8779 101.6169 0.0000 0.0000 0.0000
# 4 0.0000 0.0000 0.0000 28.8774 0.0000 0.0000
# 5 0.0000 0.0000 0.0000 0.0000 20.5278 0.0000
# 6 0.0000 0.0000 0.0000 0.0000 0.0000 19.8667
#
#
#
# Elastic Compliance Matrix: (Units=1/GPa)
#
#
# Indices 1 2 3 4 5 6 
#
# 1 0.011851 -0.001394 -0.001907 0.000000 0.000000 0.000000
# 2 -0.001394 0.020338 -0.004715 0.000000 0.000000 0.000000
# 3 -0.001907 -0.004715 0.011357 0.000000 0.000000 0.000000
# 4 0.000000 0.000000 0.000000 0.034629 0.000000 0.000000
# 5 0.000000 0.000000 0.000000 0.000000 0.048714 0.000000
# 6 0.000000 0.000000 0.000000 0.000000 0.000000 0.050336
#
#
# Mechanical properties :
#
#
# Convention : Reuss Voigt Hill
#
# Bulk Modulus (GPa) = 36.34424 39.49012 37.91718
# Shear Modulus (GPa) = 24.70021 26.60750 25.65385
#
# Velocity S-wave (km/s) = 3.55801 3.69282 3.62604
# Velocity P-wave (km/s) = 5.95873 6.19856 6.07983
#
# Compressibility (1/GPa) = 0.02751468
#
# Stress axis : x y z
#
# Youngs Moduli (GPa) = 84.38298 49.16885 88.05225
#
# Poissons Ratio (x) = 0.06854 0.16791
# Poissons Ratio (y) = 0.11762 0.41514
# Poissons Ratio (z) = 0.16091 0.23182
#
# Static dielectric constant tensor:
#      x y z
#    x 1.716150 0.000000 0.000000 
#    y 0.000000 1.693050 0.000000 
#    z 0.000000 0.000000 1.713820 
# 
# From -- ./inp_files/10830.got.cif
#   From: 2010.05.17/outbox.cif.g08.bks.cpg/sg20_6_cif.got.tgz:10830.got - 2010.06.03 22:52:26.
