data_PCOD9319941
_publ_section_title
;
Structure prediction by ZEFSAII (Michael W. Deem and Ramdas Pophale) SiO2 
 PCOD9319941
Probable space group: C 2 2 21
;
_chemical_formula_sum "Si O2"
_cell_formula_units_Z 40
_cell_length_a 18.411648
_cell_length_b 18.906282
_cell_length_c 4.990959
_cell_angle_alpha 90.000000
_cell_angle_beta 90.000000
_cell_angle_gamma 90.000000
_cell_volume 1737.331912
_symmetry_space_group_name_H-M "C 2 2 21"
_symmetry_group_IT_number 20
_symmetry_cell_setting 'orthorhombic'
loop_
_space_group_symop_operation_xyz
x,y,z
-x,-y,1/2+z
x,-y,-z
-x,y,1/2-z
1/2+x,1/2+y,z
1/2-x,1/2-y,1/2+z
1/2+x,1/2-y,-z
1/2-x,1/2+y,1/2-z
loop_
_atom_site_type_symbol
_atom_site_label
_atom_site_fract_x
_atom_site_fract_y
_atom_site_fract_z
Si Si1 0.587186 0.703936 0.757290
Si Si2 0.576751 0.836054 0.412020
Si Si3 0.587069 0.383783 0.733266
Si Si4 0.500000 0.950579 0.750000
Si Si5 0.819328 0.000000 0.500000
Si Si6 0.320173 0.951216 0.241070
O O1 0.500000 0.712468 0.750000
O O2 0.610315 0.772812 0.588661
O O3 0.605253 0.638690 0.566101
O O4 0.605600 0.680921 0.059161
O O5 0.500000 0.819737 0.250000
O O6 0.555746 0.895058 0.627819
O O7 0.636082 0.877959 0.233732
O O8 0.500000 0.394344 0.750000
O O9 0.630083 0.452951 0.814437
O O10 0.477200 0.000000 0.500000
O O11 0.763706 0.946483 0.350055
O O12 0.320951 0.000000 0.500000
O O13 0.351545 0.000000 0.000000
#
# Coordination Sequence:
#
# PCOD9319941 Si02
#       6
#     8   8   8   4   4   8
#     4  10  22  41  64 104 135 171 222 285 345 415
#     4  12  25  40  68  98 146 186 228 281 336 400
#     4  10  23  41  72 102 130 167 227 287 362 421
#     4  12  26  34  60 100 136 178 232 270 326 390
#     4  10  26  48  72 100 144 176 228 304 352 420
#     4  10  27  42  64  95 142 184 232 274 344 398
#
# _framework density 23.023809
#
# number of rings (size 3 to 8) (size 9 to 14) (size 15 to 20)
#    0.600    0.800    2.000    2.400    8.400    2.400 
#    0.000    2.000    0.000    0.000    0.000    0.000 
#    0.000    0.000    0.000    0.000    0.000    0.000 
#
# Total GULP energy -111577.452755 kJ/mol
# GULP energy per Si atom -5578.872638 kJ/mol
# Density = 2.297141 g / cm^3
# Si number density = 23.023809 Si / 1000 Ang^3
#
#
#
# Elastic Constant Matrix: (Units=GPa)
#
#
# Indices 1 2 3 4 5 6 
#
# 1 83.5854 40.2989 16.5777 0.0000 0.0000 0.0000
# 2 40.2989 58.3953 -7.9619 0.0000 0.0000 0.0000
# 3 16.5777 -7.9619 101.4467 0.0000 0.0000 0.0000
# 4 0.0000 0.0000 0.0000 47.9621 0.0000 0.0000
# 5 0.0000 0.0000 0.0000 0.0000 15.8154 0.0000
# 6 0.0000 0.0000 0.0000 0.0000 0.0000 18.1526
#
#
#
# Elastic Compliance Matrix: (Units=1/GPa)
#
#
# Indices 1 2 3 4 5 6 
#
# 1 0.019638 -0.014141 -0.004319 0.000000 0.000000 0.000000
# 2 -0.014141 0.027493 0.004469 0.000000 0.000000 0.000000
# 3 -0.004319 0.004469 0.010914 0.000000 0.000000 0.000000
# 4 0.000000 0.000000 0.000000 0.020850 0.000000 0.000000
# 5 0.000000 0.000000 0.000000 0.000000 0.063229 0.000000
# 6 0.000000 0.000000 0.000000 0.000000 0.000000 0.055089
#
#
# Mechanical properties :
#
#
# Convention : Reuss Voigt Hill
#
# Bulk Modulus (GPa) = 33.26497 37.91743 35.59120
# Shear Modulus (GPa) = 21.25692 29.35352 25.30522
#
# Velocity S-wave (km/s) = 3.04181 3.57448 3.31885
# Velocity P-wave (km/s) = 5.17844 5.79141 5.49348
#
# Compressibility (1/GPa) = 0.03006166
#
# Stress axis : x y z
#
# Youngs Moduli (GPa) = 50.92061 36.37282 91.62632
#
# Poissons Ratio (x) = 0.51436 0.39574
# Poissons Ratio (y) = 0.72009 -0.40945
# Poissons Ratio (z) = 0.21993 -0.16254
#
# Static dielectric constant tensor:
#      x y z
#    x 1.907930 0.000000 0.000000 
#    y 0.000000 1.908750 0.000000 
#    z 0.000000 0.000000 1.890910 
# 
# From -- ./inp_files/2524.got.cif
#   From: 2010.05.17/outbox.cif.g08.bks.cpg/sg20_2_cif.got.tgz:2524.got - 2010.06.03 22:52:26.
