data_PCOD9319350
_publ_section_title
;
Structure prediction by ZEFSAII (Michael W. Deem and Ramdas Pophale) SiO2 
 PCOD9319350
Probable space group: C 2 2 21
;
_chemical_formula_sum "Si O2"
_cell_formula_units_Z 60
_cell_length_a 10.541336
_cell_length_b 11.643813
_cell_length_c 21.681723
_cell_angle_alpha 90.000000
_cell_angle_beta 90.000000
_cell_angle_gamma 90.000000
_cell_volume 2661.243846
_symmetry_space_group_name_H-M "C 2 2 21"
_symmetry_group_IT_number 20
_symmetry_cell_setting 'orthorhombic'
loop_
_space_group_symop_operation_xyz
x,y,z
-x,-y,1/2+z
x,-y,-z
-x,y,1/2-z
1/2+x,1/2+y,z
1/2-x,1/2-y,1/2+z
1/2+x,1/2-y,-z
1/2-x,1/2+y,1/2-z
loop_
_atom_site_type_symbol
_atom_site_label
_atom_site_fract_x
_atom_site_fract_y
_atom_site_fract_z
Si Si1 0.757667 0.674424 0.091492
Si Si2 0.182853 0.424520 0.054724
Si Si3 0.521364 0.586451 0.443238
Si Si4 0.000000 0.750086 0.750000
Si Si5 0.248703 0.084489 0.350306
Si Si6 0.207648 0.346193 0.343906
Si Si7 0.089171 0.659084 0.526325
Si Si8 0.292976 0.427891 0.707941
O O1 0.750319 0.812083 0.082446
O O2 0.616127 0.623253 0.082494
O O3 0.799917 0.635653 0.159431
O O4 0.839835 0.627129 0.035505
O O5 0.153967 0.509613 0.110939
O O6 0.054863 0.379400 0.024760
O O7 0.246036 0.500000 0.000000
O O8 0.499159 0.500000 0.500000
O O9 0.615619 0.553518 0.386288
O O10 0.584496 0.702874 0.468779
O O11 0.909498 0.677926 0.796060
O O12 0.909304 0.837972 0.712951
O O13 0.268594 0.220867 0.353758
O O14 0.248005 0.056428 0.278549
O O15 0.154251 0.381058 0.410517
O O16 0.301530 0.443229 0.318575
#
# Coordination Sequence:
#
# PCOD9319350 Si02
#       8
#     8   8   8   4   8   8   8   8
#     4  11  24  41  66 104 138 181 237 292 368 430
#     4  11  23  41  73  94 140 187 233 301 359 429
#     4  10  21  41  69  98 130 181 229 298 355 428
#     4  10  22  48  70 104 142 194 240 294 386 418
#     4  10  22  42  66 100 132 181 243 280 363 433
#     4  10  23  41  71  98 140 182 239 293 355 432
#     4  10  23  40  62  99 136 174 229 291 354 419
#     4  11  24  40  73 100 138 190 235 295 354 444
#
# _framework density 22.545850000000002
#
# number of rings (size 3 to 8) (size 9 to 14) (size 15 to 20)
#    0.000    1.600    0.000    6.000    9.333    0.000 
#    0.000    0.000    5.867    0.000    0.000    0.000 
#    0.000    0.000    0.000    0.000    0.000    0.000 
#
# Total GULP energy -167546.191827 kJ/mol
# GULP energy per Si atom -5584.873061 kJ/mol
# Density = 2.249454 g / cm^3
# Si number density = 22.545850 Si / 1000 Ang^3
#
#
#
# Elastic Constant Matrix: (Units=GPa)
#
#
# Indices 1 2 3 4 5 6 
#
# 1 30.2093 7.3349 23.2295 0.0000 0.0000 0.0000
# 2 7.3349 126.7660 57.6835 0.0000 0.0000 0.0000
# 3 23.2295 57.6835 181.6899 0.0000 0.0000 0.0000
# 4 0.0000 0.0000 0.0000 44.3908 0.0000 0.0000
# 5 0.0000 0.0000 0.0000 0.0000 30.9570 0.0000
# 6 0.0000 0.0000 0.0000 0.0000 0.0000 22.6029
#
#
#
# Elastic Compliance Matrix: (Units=1/GPa)
#
#
# Indices 1 2 3 4 5 6 
#
# 1 0.036712 0.000014 -0.004698 0.000000 0.000000 0.000000
# 2 0.000014 0.009221 -0.002929 0.000000 0.000000 0.000000
# 3 -0.004698 -0.002929 0.007034 0.000000 0.000000 0.000000
# 4 0.000000 0.000000 0.000000 0.022527 0.000000 0.000000
# 5 0.000000 0.000000 0.000000 0.000000 0.032303 0.000000
# 6 0.000000 0.000000 0.000000 0.000000 0.000000 0.044242
#
#
# Mechanical properties :
#
#
# Convention : Reuss Voigt Hill
#
# Bulk Modulus (GPa) = 26.49735 57.24010 41.86873
# Shear Modulus (GPa) = 27.80161 36.28464 32.04313
#
# Velocity S-wave (km/s) = 3.51538 4.01605 3.77403
# Velocity P-wave (km/s) = 5.31558 6.85188 6.13203
#
# Compressibility (1/GPa) = 0.03773962
#
# Stress axis : x y z
#
# Youngs Moduli (GPa) = 27.23936 108.45239 142.15699
#
# Poissons Ratio (x) = -0.00147 0.66785
# Poissons Ratio (y) = -0.00037 0.41640
# Poissons Ratio (z) = 0.12797 0.31767
#
# Static dielectric constant tensor:
#      x y z
#    x 1.869350 0.000000 0.000000 
#    y 0.000000 1.880690 0.000000 
#    z 0.000000 0.000000 1.861080 
# 
# From -- ./inp_files/27273.got.cif
#   From: 2010.05.17/outbox.cif.g08.bks.cpg/sg20_14_cif.got.tgz:27273.got - 2010.06.03 22:52:26.
