data_PCOD9319496
_publ_section_title
;
Structure prediction by ZEFSAII (Michael W. Deem and Ramdas Pophale) SiO2 
 PCOD9319496
Probable space group: C 2 2 21
;
_chemical_formula_sum "Si O2"
_cell_formula_units_Z 36
_cell_length_a 7.399379
_cell_length_b 19.236039
_cell_length_c 9.216140
_cell_angle_alpha 90.000000
_cell_angle_beta 90.000000
_cell_angle_gamma 90.000000
_cell_volume 1311.776919
_symmetry_space_group_name_H-M "C 2 2 21"
_symmetry_group_IT_number 20
_symmetry_cell_setting 'orthorhombic'
loop_
_space_group_symop_operation_xyz
x,y,z
-x,-y,1/2+z
x,-y,-z
-x,y,1/2-z
1/2+x,1/2+y,z
1/2-x,1/2-y,1/2+z
1/2+x,1/2-y,-z
1/2-x,1/2+y,1/2-z
loop_
_atom_site_type_symbol
_atom_site_label
_atom_site_fract_x
_atom_site_fract_y
_atom_site_fract_z
Si Si1 0.356060 0.380782 0.544477
Si Si2 0.235860 0.345649 0.943466
Si Si3 0.500000 0.571850 0.750000
Si Si4 0.209921 0.252820 0.204211
Si Si5 0.687080 0.022539 0.218328
O O1 0.560740 0.367926 0.597694
O O2 0.380873 0.391307 0.373813
O O3 0.256603 0.310710 0.591641
O O4 0.266582 0.442764 0.634435
O O5 0.187485 0.278365 0.844592
O O6 0.133512 0.414479 0.891254
O O7 0.245436 0.320928 0.108771
O O8 0.648622 0.524999 0.666148
O O9 0.000000 0.259673 0.250000
O O10 0.500000 0.983663 0.250000
#
# Coordination Sequence:
#
# PCOD9319496 Si02
#       5
#     8   8   4   8   8
#     4  10  23  45  70 102 149 204 243 312 388 440
#     4  10  21  43  70 102 153 195 243 317 380 447
#     4  12  24  48  76 104 152 198 262 304 386 456
#     4   9  21  40  69 106 148 194 253 302 382 455
#     4  11  24  46  74 106 147 200 252 320 370 446
#
# _framework density 27.443693
#
# number of rings (size 3 to 8) (size 9 to 14) (size 15 to 20)
#    0.000    1.778    2.222    2.000    3.111    7.111 
#    8.000    0.000    0.000    0.000    0.000    0.000 
#    0.000    0.000    0.000    0.000    0.000    0.000 
#
# Total GULP energy -100695.960660 kJ/mol
# GULP energy per Si atom -5594.220037 kJ/mol
# Density = 2.738123 g / cm^3
# Si number density = 27.443693 Si / 1000 Ang^3
#
#
#
# Elastic Constant Matrix: (Units=GPa)
#
#
# Indices 1 2 3 4 5 6 
#
# 1 109.2872 8.4791 5.8165 0.0000 0.0000 0.0000
# 2 8.4791 79.7220 47.4783 0.0000 0.0000 0.0000
# 3 5.8165 47.4783 177.6460 0.0000 0.0000 0.0000
# 4 0.0000 0.0000 0.0000 55.1176 0.0000 0.0000
# 5 0.0000 0.0000 0.0000 0.0000 30.4488 0.0000
# 6 0.0000 0.0000 0.0000 0.0000 0.0000 6.8298
#
#
#
# Elastic Compliance Matrix: (Units=1/GPa)
#
#
# Indices 1 2 3 4 5 6 
#
# 1 0.009227 -0.000953 -0.000047 0.000000 0.000000 0.000000
# 2 -0.000953 0.015017 -0.003982 0.000000 0.000000 0.000000
# 3 -0.000047 -0.003982 0.006695 0.000000 0.000000 0.000000
# 4 0.000000 0.000000 0.000000 0.018143 0.000000 0.000000
# 5 0.000000 0.000000 0.000000 0.000000 0.032842 0.000000
# 6 0.000000 0.000000 0.000000 0.000000 0.000000 0.146417
#
#
# Mechanical properties :
#
#
# Convention : Reuss Voigt Hill
#
# Bulk Modulus (GPa) = 47.68058 54.46701 51.07379
# Shear Modulus (GPa) = 20.38350 38.80466 29.59408
#
# Velocity S-wave (km/s) = 2.72828 3.76436 3.28740
# Velocity P-wave (km/s) = 5.22842 6.22767 5.74979
#
# Compressibility (1/GPa) = 0.02097290
#
# Stress axis : x y z
#
# Youngs Moduli (GPa) = 108.38146 66.59324 149.36494
#
# Poissons Ratio (x) = 0.06347 0.00707
# Poissons Ratio (y) = 0.10330 0.59480
# Poissons Ratio (z) = 0.00513 0.26519
#
# Static dielectric constant tensor:
#      x y z
#    x 2.091320 0.000000 0.000000 
#    y 0.000000 2.256260 0.000000 
#    z 0.000000 0.000000 2.194230 
# 
# From -- ./inp_files/5928.got.cif
#   From: 2010.05.17/outbox.cif.g08.bks.cpg/sg20_3_cif.got.tgz:5928.got - 2010.06.03 22:52:26.
