data_PCOD9319232
_publ_section_title
;
Structure prediction by ZEFSAII (Michael W. Deem and Ramdas Pophale) SiO2 
 PCOD9319232
Probable space group: C 2 2 21
;
_chemical_formula_sum "Si O2"
_cell_formula_units_Z 40
_cell_length_a 24.120172
_cell_length_b 8.870902
_cell_length_c 8.713842
_cell_angle_alpha 90.000000
_cell_angle_beta 90.000000
_cell_angle_gamma 90.000000
_cell_volume 1864.480574
_symmetry_space_group_name_H-M "C 2 2 21"
_symmetry_group_IT_number 20
_symmetry_cell_setting 'orthorhombic'
loop_
_space_group_symop_operation_xyz
x,y,z
-x,-y,1/2+z
x,-y,-z
-x,y,1/2-z
1/2+x,1/2+y,z
1/2-x,1/2-y,1/2+z
1/2+x,1/2-y,-z
1/2-x,1/2+y,1/2-z
loop_
_atom_site_type_symbol
_atom_site_label
_atom_site_fract_x
_atom_site_fract_y
_atom_site_fract_z
Si Si1 0.735974 0.466672 0.322826
Si Si2 0.677385 0.807051 0.814315
Si Si3 0.440714 0.194254 0.818209
Si Si4 0.941056 0.328959 0.824744
Si Si5 0.648892 0.638028 0.108513
O O1 0.724130 0.500000 0.500000
O O2 0.719952 0.299043 0.276343
O O3 0.798267 0.525992 0.291819
O O4 0.694123 0.562191 0.217453
O O5 0.615108 0.779041 0.758093
O O6 0.676708 0.755915 0.990805
O O7 0.500000 0.238552 0.750000
O O8 0.395491 0.277392 0.714324
O O9 0.437906 0.011577 0.811564
O O10 0.437973 0.225587 0.999755
O O11 0.000000 0.283637 0.750000
O O12 0.626852 0.500000 0.000000
#
# Coordination Sequence:
#
# PCOD9319232 Si02
#       5
#     8   8   8   8   8
#     4  11  24  42  62  95 129 176 216 266 326 384
#     4  11  24  41  66  97 129 174 213 272 322 388
#     4  10  21  40  66  98 131 170 214 272 326 391
#     4  10  22  40  68 100 129 167 217 267 332 391
#     4  10  23  42  62  92 135 172 221 267 324 392
#
# _framework density 21.453696999999998
#
# number of rings (size 3 to 8) (size 9 to 14) (size 15 to 20)
#    0.000    1.600    0.000    3.600    5.600    1.600 
#    7.200    9.000    0.000    0.000    0.000    0.000 
#    0.000    0.000    0.000    0.000    0.000    0.000 
#
# Total GULP energy -111749.937104 kJ/mol
# GULP energy per Si atom -5587.496855 kJ/mol
# Density = 2.140487 g / cm^3
# Si number density = 21.453697 Si / 1000 Ang^3
#
#
#
# Elastic Constant Matrix: (Units=GPa)
#
#
# Indices 1 2 3 4 5 6 
#
# 1 110.6833 47.1774 66.2578 0.0000 0.0000 0.0000
# 2 47.1774 62.5480 37.1644 0.0000 0.0000 0.0000
# 3 66.2578 37.1644 154.5905 0.0000 0.0000 0.0000
# 4 0.0000 0.0000 0.0000 40.1410 0.0000 0.0000
# 5 0.0000 0.0000 0.0000 0.0000 34.6177 0.0000
# 6 0.0000 0.0000 0.0000 0.0000 0.0000 15.5188
#
#
#
# Elastic Compliance Matrix: (Units=1/GPa)
#
#
# Indices 1 2 3 4 5 6 
#
# 1 0.015608 -0.009097 -0.004502 0.000000 0.000000 0.000000
# 2 -0.009097 0.023954 -0.001860 0.000000 0.000000 0.000000
# 3 -0.004502 -0.001860 0.008846 0.000000 0.000000 0.000000
# 4 0.000000 0.000000 0.000000 0.024912 0.000000 0.000000
# 5 0.000000 0.000000 0.000000 0.000000 0.028887 0.000000
# 6 0.000000 0.000000 0.000000 0.000000 0.000000 0.064438
#
#
# Mechanical properties :
#
#
# Convention : Reuss Voigt Hill
#
# Bulk Modulus (GPa) = 57.17878 69.89123 63.53501
# Shear Modulus (GPa) = 24.58305 29.87031 27.22668
#
# Velocity S-wave (km/s) = 3.38874 3.73542 3.56629
# Velocity P-wave (km/s) = 6.48239 7.15912 6.82914
#
# Compressibility (1/GPa) = 0.01748900
#
# Stress axis : x y z
#
# Youngs Moduli (GPa) = 64.07174 41.74646 113.05090
#
# Poissons Ratio (x) = 0.37976 0.50901
# Poissons Ratio (y) = 0.58285 0.21025
# Poissons Ratio (z) = 0.28848 0.07764
#
# Static dielectric constant tensor:
#      x y z
#    x 1.747200 0.000000 0.000000 
#    y 0.000000 1.830410 0.000000 
#    z 0.000000 0.000000 1.872330 
# 
# From -- ./inp_files/10479.got.cif
#   From: 2010.05.17/outbox.cif.g08.bks.cpg/sg20_6_cif.got.tgz:10479.got - 2010.06.03 22:52:26.
