data_PCOD9319324
_publ_section_title
;
Structure prediction by ZEFSAII (Michael W. Deem and Ramdas Pophale) SiO2 
 PCOD9319324
Probable space group: C 2 2 21
;
_chemical_formula_sum "Si O2"
_cell_formula_units_Z 60
_cell_length_a 11.790123
_cell_length_b 19.122805
_cell_length_c 12.110175
_cell_angle_alpha 90.000000
_cell_angle_beta 90.000000
_cell_angle_gamma 90.000000
_cell_volume 2730.362757
_symmetry_space_group_name_H-M "C 2 2 21"
_symmetry_group_IT_number 20
_symmetry_cell_setting 'orthorhombic'
loop_
_space_group_symop_operation_xyz
x,y,z
-x,-y,1/2+z
x,-y,-z
-x,y,1/2-z
1/2+x,1/2+y,z
1/2-x,1/2-y,1/2+z
1/2+x,1/2-y,-z
1/2-x,1/2+y,1/2-z
loop_
_atom_site_type_symbol
_atom_site_label
_atom_site_fract_x
_atom_site_fract_y
_atom_site_fract_z
Si Si1 0.744370 0.742580 0.789069
Si Si2 0.500000 0.813448 0.750000
Si Si3 0.901995 0.063635 0.410974
Si Si4 0.508332 0.154231 0.000158
Si Si5 0.228192 0.380021 0.435617
Si Si6 0.929922 0.193851 0.080881
Si Si7 0.372375 0.546129 0.753061
Si Si8 0.249821 0.635822 0.910324
O O1 0.619935 0.772392 0.764109
O O2 0.739326 0.699211 0.904148
O O3 0.852815 0.792119 0.809952
O O4 0.771684 0.687024 0.693702
O O5 0.510496 0.850776 0.631592
O O6 0.782699 0.094139 0.451898
O O7 0.988370 0.127449 0.413422
O O8 0.933323 0.000000 0.500000
O O9 0.888207 0.031850 0.289627
O O10 0.406166 0.114711 0.938728
O O11 0.493719 0.235129 0.958517
O O12 0.631109 0.125892 0.969939
O O13 0.292100 0.423023 0.341766
O O14 0.839120 0.174106 0.987484
O O15 0.500000 0.578317 0.750000
O O16 0.310606 0.565860 0.865172
#
# Coordination Sequence:
#
# PCOD9319324 Si02
#       8
#     8   4   8   8   8   8   8   8
#     4  10  22  35  61 103 137 192 221 276 372 425
#     4  12  20  36  60  92 146 178 222 262 352 442
#     4  10  21  41  67  94 132 181 242 290 351 411
#     4  11  24  40  66 107 145 184 225 287 367 430
#     4   9  21  39  66  95 139 178 231 286 347 426
#     4  11  22  39  66  97 146 181 230 303 343 424
#     4  10  22  42  68 100 126 189 239 286 351 417
#     4  11  22  40  67  99 145 182 235 282 357 433
#
# _framework density 21.975100000000001
#
# number of rings (size 3 to 8) (size 9 to 14) (size 15 to 20)
#    0.000    1.600    2.667    2.400    5.600    4.800 
#    4.800    0.000    0.000   13.600    0.000    0.000 
#    0.000    0.000    0.000    0.000    0.000    0.000 
#
# Total GULP energy -167466.081251 kJ/mol
# GULP energy per Si atom -5582.202708 kJ/mol
# Density = 2.192508 g / cm^3
# Si number density = 21.975100 Si / 1000 Ang^3
#
#
#
# Elastic Constant Matrix: (Units=GPa)
#
#
# Indices 1 2 3 4 5 6 
#
# 1 120.7127 38.0970 24.0041 0.0000 0.0000 0.0000
# 2 38.0970 60.0552 17.7061 0.0000 0.0000 0.0000
# 3 24.0041 17.7061 66.8699 0.0000 0.0000 0.0000
# 4 0.0000 0.0000 0.0000 38.1382 0.0000 0.0000
# 5 0.0000 0.0000 0.0000 0.0000 42.8810 0.0000
# 6 0.0000 0.0000 0.0000 0.0000 0.0000 39.5569
#
#
#
# Elastic Compliance Matrix: (Units=1/GPa)
#
#
# Indices 1 2 3 4 5 6 
#
# 1 0.010650 -0.006105 -0.002206 0.000000 0.000000 0.000000
# 2 -0.006105 0.021561 -0.003518 0.000000 0.000000 0.000000
# 3 -0.002206 -0.003518 0.016678 0.000000 0.000000 0.000000
# 4 0.000000 0.000000 0.000000 0.026220 0.000000 0.000000
# 5 0.000000 0.000000 0.000000 0.000000 0.023320 0.000000
# 6 0.000000 0.000000 0.000000 0.000000 0.000000 0.025280
#
#
# Mechanical properties :
#
#
# Convention : Reuss Voigt Hill
#
# Bulk Modulus (GPa) = 39.63437 45.25026 42.44232
# Shear Modulus (GPa) = 32.09689 35.30392 33.70041
#
# Velocity S-wave (km/s) = 3.82593 4.01252 3.92033
# Velocity P-wave (km/s) = 6.13125 6.48871 6.31251
#
# Compressibility (1/GPa) = 0.02523063
#
# Stress axis : x y z
#
# Youngs Moduli (GPa) = 93.89923 46.37910 59.95995
#
# Poissons Ratio (x) = 0.28316 0.13229
# Poissons Ratio (y) = 0.57329 0.21091
# Poissons Ratio (z) = 0.20717 0.16314
#
# Static dielectric constant tensor:
#      x y z
#    x 1.834320 0.000000 0.000000 
#    y 0.000000 1.863940 0.000000 
#    z 0.000000 0.000000 1.806820 
# 
# From -- ./inp_files/14367.got.cif
#   From: 2010.05.17/outbox.cif.g08.bks.cpg/sg20_8_cif.got.tgz:14367.got - 2010.06.03 22:52:26.
