data_PCOD9319441
_publ_section_title
;
Structure prediction by ZEFSAII (Michael W. Deem and Ramdas Pophale) SiO2 
 PCOD9319441
Probable space group: C 2 2 21
;
_chemical_formula_sum "Si O2"
_cell_formula_units_Z 64
_cell_length_a 8.645098
_cell_length_b 11.595192
_cell_length_c 26.011388
_cell_angle_alpha 90.000000
_cell_angle_beta 90.000000
_cell_angle_gamma 90.000000
_cell_volume 2607.422401
_symmetry_space_group_name_H-M "C 2 2 21"
_symmetry_group_IT_number 20
_symmetry_cell_setting 'orthorhombic'
loop_
_space_group_symop_operation_xyz
x,y,z
-x,-y,1/2+z
x,-y,-z
-x,y,1/2-z
1/2+x,1/2+y,z
1/2-x,1/2-y,1/2+z
1/2+x,1/2-y,-z
1/2-x,1/2+y,1/2-z
loop_
_atom_site_type_symbol
_atom_site_label
_atom_site_fract_x
_atom_site_fract_y
_atom_site_fract_z
Si Si1 0.386130 0.489114 0.400596
Si Si2 0.233496 0.935856 0.368863
Si Si3 0.891235 0.662977 0.348815
Si Si4 0.643461 0.082140 0.285268
Si Si5 0.304413 0.151639 0.818236
Si Si6 0.217263 0.788064 0.045535
Si Si7 0.941307 0.382734 0.467869
Si Si8 0.119155 0.210574 0.163285
O O1 0.556199 0.450929 0.382964
O O2 0.253733 0.428930 0.365511
O O3 0.359833 0.415964 0.452634
O O4 0.381600 0.624924 0.386583
O O5 0.346606 0.924403 0.418150
O O6 0.265369 0.817936 0.340210
O O7 0.287816 0.050008 0.339778
O O8 0.064033 0.619784 0.340142
O O9 0.837517 0.763613 0.310578
O O10 0.845426 0.715834 0.404558
O O11 0.500000 0.115845 0.250000
O O12 0.813656 0.136198 0.289177
O O13 0.661334 0.945573 0.277206
O O14 0.452316 0.230686 0.829545
O O15 0.399949 0.814913 0.044345
O O16 0.165966 0.706994 0.998896
O O17 0.975077 0.500000 0.500000
#
# Coordination Sequence:
#
# PCOD9319441 Si02
#       8
#     8   8   8   8   8   8   8   8
#     4  10  23  39  65 101 133 174 238 284 336 427
#     4  12  22  41  73  97 132 187 232 281 354 417
#     4  11  22  43  72  97 136 181 234 289 352 435
#     4  11  26  45  71 105 141 181 235 299 363 430
#     4  10  21  42  69  99 135 175 224 281 347 420
#     4  11  25  45  67 100 140 185 236 292 351 421
#     4  12  27  45  67 103 147 188 237 304 354 413
#     4  11  22  41  73  99 131 187 230 283 355 419
#
# _framework density 24.545314000000001
#
# number of rings (size 3 to 8) (size 9 to 14) (size 15 to 20)
#    0.000    1.000    3.750    3.750    1.750    3.000 
#    0.000    0.000    0.000    0.000    0.000    0.000 
#    0.000    0.000    0.000    0.000    0.000    0.000 
#
# Total GULP energy -178654.635634 kJ/mol
# GULP energy per Si atom -5582.957364 kJ/mol
# Density = 2.448945 g / cm^3
# Si number density = 24.545314 Si / 1000 Ang^3
#
#
#
# Elastic Constant Matrix: (Units=GPa)
#
#
# Indices 1 2 3 4 5 6 
#
# 1 144.0135 51.2316 7.2291 0.0000 0.0000 0.0000
# 2 51.2316 177.5488 31.7023 0.0000 0.0000 0.0000
# 3 7.2291 31.7023 36.4646 0.0000 0.0000 0.0000
# 4 0.0000 0.0000 0.0000 13.2903 0.0000 0.0000
# 5 0.0000 0.0000 0.0000 0.0000 23.4828 0.0000
# 6 0.0000 0.0000 0.0000 0.0000 0.0000 45.6675
#
#
#
# Elastic Compliance Matrix: (Units=1/GPa)
#
#
# Indices 1 2 3 4 5 6 
#
# 1 0.007745 -0.002321 0.000482 0.000000 0.000000 0.000000
# 2 -0.002321 0.007363 -0.005941 0.000000 0.000000 0.000000
# 3 0.000482 -0.005941 0.032493 0.000000 0.000000 0.000000
# 4 0.000000 0.000000 0.000000 0.075243 0.000000 0.000000
# 5 0.000000 0.000000 0.000000 0.000000 0.042584 0.000000
# 6 0.000000 0.000000 0.000000 0.000000 0.000000 0.021897
#
#
# Mechanical properties :
#
#
# Convention : Reuss Voigt Hill
#
# Bulk Modulus (GPa) = 31.20895 59.81698 45.51296
# Shear Modulus (GPa) = 23.41195 34.34571 28.87883
#
# Velocity S-wave (km/s) = 3.09176 3.74475 3.43381
# Velocity P-wave (km/s) = 5.04854 6.56662 5.85697
#
# Compressibility (1/GPa) = 0.03204209
#
# Stress axis : x y z
#
# Youngs Moduli (GPa) = 129.11116 135.81791 30.77547
#
# Poissons Ratio (x) = 0.31524 -0.01485
# Poissons Ratio (y) = 0.29967 0.18284
# Poissons Ratio (z) = -0.06229 0.80690
#
# Static dielectric constant tensor:
#      x y z
#    x 1.911100 0.000000 0.000000 
#    y 0.000000 2.008240 0.000000 
#    z 0.000000 0.000000 2.186930 
# 
# From -- ./inp_files/31061.got.cif
#   From: 2010.05.17/outbox.cif.g08.bks.cpg/sg20_16_cif.got.tgz:31061.got - 2010.06.03 22:52:26.
