data_PCOD9319475
_publ_section_title
;
Structure prediction by ZEFSAII (Michael W. Deem and Ramdas Pophale) SiO2 
 PCOD9319475
Probable space group: C 2 2 21
;
_chemical_formula_sum "Si O2"
_cell_formula_units_Z 48
_cell_length_a 23.596037
_cell_length_b 10.340340
_cell_length_c 8.963569
_cell_angle_alpha 90.000000
_cell_angle_beta 90.000000
_cell_angle_gamma 90.000000
_cell_volume 2187.030569
_symmetry_space_group_name_H-M "C 2 2 21"
_symmetry_group_IT_number 20
_symmetry_cell_setting 'orthorhombic'
loop_
_space_group_symop_operation_xyz
x,y,z
-x,-y,1/2+z
x,-y,-z
-x,y,1/2-z
1/2+x,1/2+y,z
1/2-x,1/2-y,1/2+z
1/2+x,1/2-y,-z
1/2-x,1/2+y,1/2-z
loop_
_atom_site_type_symbol
_atom_site_label
_atom_site_fract_x
_atom_site_fract_y
_atom_site_fract_z
Si Si1 0.556582 0.971257 0.825098
Si Si2 0.149367 0.855600 0.438180
Si Si3 0.848887 0.369614 0.180989
Si Si4 0.348652 0.339171 0.562388
Si Si5 0.558179 0.666140 0.821327
Si Si6 0.779289 0.085498 0.689657
O O1 0.500000 0.030303 0.750000
O O2 0.549164 0.818419 0.830788
O O3 0.606238 0.018297 0.714836
O O4 0.565823 0.000000 0.000000
O O5 0.142212 0.734659 0.548207
O O6 0.104107 0.850220 0.306953
O O7 0.209570 0.859887 0.353702
O O8 0.142524 0.000000 0.500000
O O9 0.853503 0.279103 0.327087
O O10 0.786823 0.431276 0.165113
O O11 0.409142 0.366437 0.478450
O O12 0.317747 0.457700 0.652823
O O13 0.304732 0.313097 0.428568
O O14 0.500000 0.606623 0.750000
#
# Coordination Sequence:
#
# PCOD9319475 Si02
#       6
#     8   8   8   8   8   8
#     4  11  26  46  71 102 136 176 235 295 346 420
#     4  11  24  45  65 102 139 175 229 286 330 418
#     4  12  24  40  72 101 135 186 227 278 359 412
#     4  10  21  43  65  97 141 181 227 285 337 416
#     4  10  24  47  71  96 138 181 228 290 355 404
#     4  10  23  41  66  96 143 179 229 280 340 417
#
# _framework density 21.947566999999999
#
# number of rings (size 3 to 8) (size 9 to 14) (size 15 to 20)
#    0.000    1.333    3.333    1.000    4.667    6.000 
#    6.000    0.833    0.000    0.000    0.000    0.000 
#    0.000    0.000    0.000    0.000    0.000    0.000 
#
# Total GULP energy -133723.004495 kJ/mol
# GULP energy per Si atom -5571.791854 kJ/mol
# Density = 2.189761 g / cm^3
# Si number density = 21.947567 Si / 1000 Ang^3
#
#
#
# Elastic Constant Matrix: (Units=GPa)
#
#
# Indices 1 2 3 4 5 6 
#
# 1 125.6169 1.1706 16.7957 0.0000 0.0000 0.0000
# 2 1.1706 43.4898 14.4135 0.0000 0.0000 0.0000
# 3 16.7957 14.4135 78.4861 0.0000 0.0000 0.0000
# 4 0.0000 0.0000 0.0000 20.2266 0.0000 0.0000
# 5 0.0000 0.0000 0.0000 0.0000 31.9247 0.0000
# 6 0.0000 0.0000 0.0000 0.0000 0.0000 20.4781
#
#
#
# Elastic Compliance Matrix: (Units=1/GPa)
#
#
# Indices 1 2 3 4 5 6 
#
# 1 0.008201 0.000384 -0.001826 0.000000 0.000000 0.000000
# 2 0.000384 0.024502 -0.004582 0.000000 0.000000 0.000000
# 3 -0.001826 -0.004582 0.013973 0.000000 0.000000 0.000000
# 4 0.000000 0.000000 0.000000 0.049440 0.000000 0.000000
# 5 0.000000 0.000000 0.000000 0.000000 0.031324 0.000000
# 6 0.000000 0.000000 0.000000 0.000000 0.000000 0.048833
#
#
# Mechanical properties :
#
#
# Convention : Reuss Voigt Hill
#
# Bulk Modulus (GPa) = 28.87658 34.70583 31.79120
# Shear Modulus (GPa) = 25.01717 28.87340 26.94529
#
# Velocity S-wave (km/s) = 3.37985 3.63100 3.50767
# Velocity P-wave (km/s) = 5.33074 5.78155 5.56071
#
# Compressibility (1/GPa) = 0.03463014
#
# Stress axis : x y z
#
# Youngs Moduli (GPa) = 121.93301 40.81278 71.56548
#
# Poissons Ratio (x) = -0.01568 0.13065
# Poissons Ratio (y) = -0.04686 0.32791
# Poissons Ratio (z) = 0.22260 0.18700
#
# Static dielectric constant tensor:
#      x y z
#    x 1.870540 0.000000 0.000000 
#    y 0.000000 -0.027100 0.000000 
#    z 0.000000 0.000000 1.923970 
# 
# From -- ./inp_files/10635.got.cif
#   From: 2010.05.17/outbox.cif.g08.bks.cpg/sg20_6_cif.got.tgz:10635.got - 2010.06.03 22:52:26.
