data_PCOD9319963
_publ_section_title
;
Structure prediction by ZEFSAII (Michael W. Deem and Ramdas Pophale) SiO2 
 PCOD9319963
Probable space group: C 2 2 21
;
_chemical_formula_sum "Si O2"
_cell_formula_units_Z 48
_cell_length_a 14.581423
_cell_length_b 16.896672
_cell_length_c 8.080092
_cell_angle_alpha 90.000000
_cell_angle_beta 90.000000
_cell_angle_gamma 90.000000
_cell_volume 1990.753042
_symmetry_space_group_name_H-M "C 2 2 21"
_symmetry_group_IT_number 20
_symmetry_cell_setting 'orthorhombic'
loop_
_space_group_symop_operation_xyz
x,y,z
-x,-y,1/2+z
x,-y,-z
-x,y,1/2-z
1/2+x,1/2+y,z
1/2-x,1/2-y,1/2+z
1/2+x,1/2-y,-z
1/2-x,1/2+y,1/2-z
loop_
_atom_site_type_symbol
_atom_site_label
_atom_site_fract_x
_atom_site_fract_y
_atom_site_fract_z
Si Si1 0.953975 0.080658 0.925837
Si Si2 0.109052 0.525140 0.745015
Si Si3 0.145599 0.628679 0.420772
Si Si4 0.206856 0.227862 0.930368
Si Si5 0.243225 0.125946 0.599475
Si Si6 0.000335 0.752377 0.944527
O O1 0.845641 0.071581 0.899817
O O2 0.000000 0.098171 0.750000
O O3 0.967062 0.157209 0.039712
O O4 0.993545 0.000000 0.000000
O O5 0.137576 0.572034 0.580112
O O6 0.133029 0.432428 0.728570
O O7 0.165357 0.574079 0.880900
O O8 0.000000 0.530684 0.750000
O O9 0.243262 0.670822 0.437305
O O10 0.066756 0.694909 0.450219
O O11 0.253369 0.313429 0.947740
O O12 0.101980 0.244571 0.978171
O O13 0.226265 0.183920 0.758293
O O14 0.000000 0.728281 0.750000
#
# Coordination Sequence:
#
# PCOD9319963 Si02
#       6
#     8   8   8   8   8   8
#     4  12  27  50  70 103 144 193 247 304 370 440
#     4  10  22  42  65  98 145 186 239 294 365 431
#     4  10  22  41  66 101 140 186 238 291 363 441
#     4  11  23  42  76 101 143 189 244 304 366 435
#     4  11  24  47  69 107 145 187 248 304 371 439
#     4  12  24  45  76 104 141 190 245 304 373 443
#
# _framework density 24.111478999999999
#
# number of rings (size 3 to 8) (size 9 to 14) (size 15 to 20)
#    0.000    1.000    3.333    4.000    0.000    4.667 
#    6.000    0.000    0.000    0.000    0.000    0.000 
#    0.000    0.000    0.000    0.000    0.000    0.000 
#
# Total GULP energy -134296.598695 kJ/mol
# GULP energy per Si atom -5595.691612 kJ/mol
# Density = 2.405660 g / cm^3
# Si number density = 24.111479 Si / 1000 Ang^3
#
#
#
# Elastic Constant Matrix: (Units=GPa)
#
#
# Indices 1 2 3 4 5 6 
#
# 1 94.4258 29.7641 7.3790 0.0000 0.0000 0.0000
# 2 29.7641 154.6705 42.7367 0.0000 0.0000 0.0000
# 3 7.3790 42.7367 99.0655 0.0000 0.0000 0.0000
# 4 0.0000 0.0000 0.0000 57.0019 0.0000 0.0000
# 5 0.0000 0.0000 0.0000 0.0000 10.9948 0.0000
# 6 0.0000 0.0000 0.0000 0.0000 0.0000 13.9051
#
#
#
# Elastic Compliance Matrix: (Units=1/GPa)
#
#
# Indices 1 2 3 4 5 6 
#
# 1 0.011275 -0.002200 0.000109 0.000000 0.000000 0.000000
# 2 -0.002200 0.007770 -0.003188 0.000000 0.000000 0.000000
# 3 0.000109 -0.003188 0.011461 0.000000 0.000000 0.000000
# 4 0.000000 0.000000 0.000000 0.017543 0.000000 0.000000
# 5 0.000000 0.000000 0.000000 0.000000 0.090952 0.000000
# 6 0.000000 0.000000 0.000000 0.000000 0.000000 0.071916
#
#
# Mechanical properties :
#
#
# Convention : Reuss Voigt Hill
#
# Bulk Modulus (GPa) = 50.12790 56.43570 53.28180
# Shear Modulus (GPa) = 21.91784 34.26583 28.09184
#
# Velocity S-wave (km/s) = 3.01827 3.77389 3.41703
# Velocity P-wave (km/s) = 5.74298 6.51511 6.14119
#
# Compressibility (1/GPa) = 0.01994897
#
# Stress axis : x y z
#
# Youngs Moduli (GPa) = 88.68995 128.70764 87.24898
#
# Poissons Ratio (x) = 0.28315 -0.00953
# Poissons Ratio (y) = 0.19511 0.27814
# Poissons Ratio (z) = -0.00969 0.41031
#
# Static dielectric constant tensor:
#      x y z
#    x 1.913220 0.000000 0.000000 
#    y 0.000000 1.916570 0.000000 
#    z 0.000000 0.000000 2.012420 
# 
# From -- ./inp_files/8384.got.cif
#   From: 2010.05.17/outbox.cif.g08.bks.cpg/sg20_5_cif.got.tgz:8384.got - 2010.06.03 22:52:26.
