data_PCOD9319368
_publ_section_title
;
Structure prediction by ZEFSAII (Michael W. Deem and Ramdas Pophale) SiO2 
 PCOD9319368
Probable space group: C 2 2 21
;
_chemical_formula_sum "Si O2"
_cell_formula_units_Z 40
_cell_length_a 10.006668
_cell_length_b 19.074512
_cell_length_c 9.921556
_cell_angle_alpha 90.000000
_cell_angle_beta 90.000000
_cell_angle_gamma 90.000000
_cell_volume 1893.750301
_symmetry_space_group_name_H-M "C 2 2 21"
_symmetry_group_IT_number 20
_symmetry_cell_setting 'orthorhombic'
loop_
_space_group_symop_operation_xyz
x,y,z
-x,-y,1/2+z
x,-y,-z
-x,y,1/2-z
1/2+x,1/2+y,z
1/2-x,1/2-y,1/2+z
1/2+x,1/2-y,-z
1/2-x,1/2+y,1/2-z
loop_
_atom_site_type_symbol
_atom_site_label
_atom_site_fract_x
_atom_site_fract_y
_atom_site_fract_z
Si Si1 0.504835 0.209178 0.912575
Si Si2 0.671264 0.919731 0.477543
Si Si3 0.715351 0.680708 0.486440
Si Si4 0.345455 0.432566 0.211889
Si Si5 0.341157 0.405731 0.745386
O O1 0.500000 0.209429 0.750000
O O2 0.655276 0.220171 0.960150
O O3 0.449289 0.134937 0.967980
O O4 0.409374 0.267882 0.974369
O O5 0.751230 0.913372 0.337450
O O6 0.777039 0.905862 0.597582
O O7 0.625018 0.000000 0.500000
O O8 0.687900 0.615935 0.586033
O O9 0.735400 0.648998 0.338332
O O10 0.500000 0.421874 0.250000
O O11 0.327561 0.515988 0.193410
O O12 0.500000 0.389580 0.750000
#
# Coordination Sequence:
#
# PCOD9319368 Si02
#       5
#     8   8   8   8   8
#     4  12  29  49  68 102 141 187 235 294 351 419
#     4  10  23  45  70 101 142 182 230 289 352 415
#     4  12  27  44  72  98 142 183 234 288 351 411
#     4  10  21  41  73 106 139 183 229 284 353 416
#     4  10  22  42  72 110 141 177 232 289 341 418
#
# _framework density 21.122108999999998
#
# number of rings (size 3 to 8) (size 9 to 14) (size 15 to 20)
#    0.000    1.200    2.000    2.400    8.400    5.600 
#    0.000    0.000    0.000    0.000    0.000    0.000 
#    0.000    0.000    0.000    0.000    0.000    0.000 
#
# Total GULP energy -111926.800966 kJ/mol
# GULP energy per Si atom -5596.340048 kJ/mol
# Density = 2.107403 g / cm^3
# Si number density = 21.122109 Si / 1000 Ang^3
#
#
#
# Elastic Constant Matrix: (Units=GPa)
#
#
# Indices 1 2 3 4 5 6 
#
# 1 85.4939 21.8212 22.4140 0.0000 0.0000 0.0000
# 2 21.8212 63.9200 41.1837 0.0000 0.0000 0.0000
# 3 22.4140 41.1837 94.6050 0.0000 0.0000 0.0000
# 4 0.0000 0.0000 0.0000 11.4201 0.0000 0.0000
# 5 0.0000 0.0000 0.0000 0.0000 23.8302 0.0000
# 6 0.0000 0.0000 0.0000 0.0000 0.0000 33.2717
#
#
#
# Elastic Compliance Matrix: (Units=1/GPa)
#
#
# Indices 1 2 3 4 5 6 
#
# 1 0.012984 -0.003406 -0.001594 0.000000 0.000000 0.000000
# 2 -0.003406 0.022636 -0.009047 0.000000 0.000000 0.000000
# 3 -0.001594 -0.009047 0.014886 0.000000 0.000000 0.000000
# 4 0.000000 0.000000 0.000000 0.087565 0.000000 0.000000
# 5 0.000000 0.000000 0.000000 0.000000 0.041964 0.000000
# 6 0.000000 0.000000 0.000000 0.000000 0.000000 0.030056
#
#
# Mechanical properties :
#
#
# Convention : Reuss Voigt Hill
#
# Bulk Modulus (GPa) = 44.61616 46.09520 45.35568
# Shear Modulus (GPa) = 20.35377 24.27773 22.31575
#
# Velocity S-wave (km/s) = 3.10760 3.39396 3.25393
# Velocity P-wave (km/s) = 5.83481 6.10157 5.96968
#
# Compressibility (1/GPa) = 0.02241341
#
# Stress axis : x y z
#
# Youngs Moduli (GPa) = 77.01909 44.17674 67.17597
#
# Poissons Ratio (x) = 0.15045 0.10705
# Poissons Ratio (y) = 0.26231 0.60776
# Poissons Ratio (z) = 0.12273 0.39968
#
# Static dielectric constant tensor:
#      x y z
#    x 1.729470 0.000000 0.000000 
#    y 0.000000 1.783390 0.000000 
#    z 0.000000 0.000000 1.735840 
# 
# From -- ./inp_files/7040.got.cif
#   From: 2010.05.17/outbox.cif.g08.bks.cpg/sg20_4_cif.got.tgz:7040.got - 2010.06.03 22:52:26.
