data_PCOD9319194
_publ_section_title
;
Structure prediction by ZEFSAII (Michael W. Deem and Ramdas Pophale) SiO2 
 PCOD9319194
Probable space group: C 2 2 21
;
_chemical_formula_sum "Si O2"
_cell_formula_units_Z 36
_cell_length_a 8.111572
_cell_length_b 17.450876
_cell_length_c 12.561069
_cell_angle_alpha 90.000000
_cell_angle_beta 90.000000
_cell_angle_gamma 90.000000
_cell_volume 1778.070028
_symmetry_space_group_name_H-M "C 2 2 21"
_symmetry_group_IT_number 20
_symmetry_cell_setting 'orthorhombic'
loop_
_space_group_symop_operation_xyz
x,y,z
-x,-y,1/2+z
x,-y,-z
-x,y,1/2-z
1/2+x,1/2+y,z
1/2-x,1/2-y,1/2+z
1/2+x,1/2-y,-z
1/2-x,1/2+y,1/2-z
loop_
_atom_site_type_symbol
_atom_site_label
_atom_site_fract_x
_atom_site_fract_y
_atom_site_fract_z
Si Si1 0.314303 0.110505 0.209015
Si Si2 0.830250 0.032853 0.612697
Si Si3 0.655743 0.500000 0.500000
Si Si4 0.818263 0.180315 0.502801
Si Si5 0.307108 0.341172 0.925261
O O1 0.500000 0.111257 0.250000
O O2 0.207671 0.152810 0.298778
O O3 0.248760 0.023332 0.197457
O O4 0.294084 0.153133 0.096096
O O5 0.795781 0.122958 0.603852
O O6 0.762977 0.000000 0.500000
O O7 0.026637 0.017593 0.597157
O O8 0.752399 0.576900 0.472256
O O9 0.787958 0.267512 0.532548
O O10 0.003974 0.166160 0.462264
#
# Coordination Sequence:
#
# PCOD9319194 Si02
#       5
#     8   8   4   8   8
#     4  11  21  38  62  91 125 164 208 251 311 371
#     4   7  16  37  61  78 117 162 199 244 305 359
#     4   8  18  38  62  86 118 168 192 248 316 370
#     4  10  21  40  64  90 127 161 208 262 308 366
#     4  11  21  40  64  92 124 165 204 255 314 367
#
# _framework density 20.246673000000001
#
# number of rings (size 3 to 8) (size 9 to 14) (size 15 to 20)
#    0.667    1.778    2.222    2.000    0.000    0.000 
#   14.000    0.000    0.000    0.000    0.000    0.000 
#    0.000    0.000    0.000    0.000    0.000    0.000 
#
# Total GULP energy -100303.700990 kJ/mol
# GULP energy per Si atom -5572.427833 kJ/mol
# Density = 2.020059 g / cm^3
# Si number density = 20.246673 Si / 1000 Ang^3
#
#
#
# Elastic Constant Matrix: (Units=GPa)
#
#
# Indices 1 2 3 4 5 6 
#
# 1 38.7935 23.4123 24.0760 0.0000 0.0000 0.0000
# 2 23.4123 188.3083 52.2146 0.0000 0.0000 0.0000
# 3 24.0760 52.2146 65.8713 0.0000 0.0000 0.0000
# 4 0.0000 0.0000 0.0000 37.6401 0.0000 0.0000
# 5 0.0000 0.0000 0.0000 0.0000 21.1183 0.0000
# 6 0.0000 0.0000 0.0000 0.0000 0.0000 29.4227
#
#
#
# Elastic Compliance Matrix: (Units=1/GPa)
#
#
# Indices 1 2 3 4 5 6 
#
# 1 0.033483 -0.000986 -0.011456 0.000000 0.000000 0.000000
# 2 -0.000986 0.006836 -0.005058 0.000000 0.000000 0.000000
# 3 -0.011456 -0.005058 0.023378 0.000000 0.000000 0.000000
# 4 0.000000 0.000000 0.000000 0.026567 0.000000 0.000000
# 5 0.000000 0.000000 0.000000 0.000000 0.047352 0.000000
# 6 0.000000 0.000000 0.000000 0.000000 0.000000 0.033987
#
#
# Mechanical properties :
#
#
# Convention : Reuss Voigt Hill
#
# Bulk Modulus (GPa) = 34.84905 54.70878 44.77891
# Shear Modulus (GPa) = 23.13009 30.52089 26.82549
#
# Velocity S-wave (km/s) = 3.38363 3.88680 3.64391
# Velocity P-wave (km/s) = 5.70218 6.87188 6.31418
#
# Compressibility (1/GPa) = 0.02869518
#
# Stress axis : x y z
#
# Youngs Moduli (GPa) = 29.86620 146.29455 42.77595
#
# Poissons Ratio (x) = 0.14429 0.49005
# Poissons Ratio (y) = 0.02946 0.21636
# Poissons Ratio (z) = 0.34215 0.73994
#
# Static dielectric constant tensor:
#      x y z
#    x 1.732340 0.000000 0.000000 
#    y 0.000000 1.750910 0.000000 
#    z 0.000000 0.000000 1.748130 
# 
# From -- ./inp_files/18651.got.cif
#   From: 2010.05.17/outbox.cif.g08.bks.cpg/sg20_10_cif.got.tgz:18651.got - 2010.06.03 22:52:26.
