data_PCOD9319107
_publ_section_title
;
Structure prediction by ZEFSAII (Michael W. Deem and Ramdas Pophale) SiO2 
 PCOD9319107
Probable space group: C 2 2 21
;
_chemical_formula_sum "Si O2"
_cell_formula_units_Z 48
_cell_length_a 8.929535
_cell_length_b 30.172259
_cell_length_c 7.829019
_cell_angle_alpha 90.000000
_cell_angle_beta 90.000000
_cell_angle_gamma 90.000000
_cell_volume 2109.327516
_symmetry_space_group_name_H-M "C 2 2 21"
_symmetry_group_IT_number 20
_symmetry_cell_setting 'orthorhombic'
loop_
_space_group_symop_operation_xyz
x,y,z
-x,-y,1/2+z
x,-y,-z
-x,y,1/2-z
1/2+x,1/2+y,z
1/2-x,1/2-y,1/2+z
1/2+x,1/2-y,-z
1/2-x,1/2+y,1/2-z
loop_
_atom_site_type_symbol
_atom_site_label
_atom_site_fract_x
_atom_site_fract_y
_atom_site_fract_z
Si Si1 0.663968 0.703706 0.547490
Si Si2 0.665072 0.114573 0.522653
Si Si3 0.380840 0.534716 0.879982
Si Si4 0.687029 0.887089 0.064578
Si Si5 0.324274 0.704833 0.541364
Si Si6 0.160786 0.471200 0.666370
O O1 0.747216 0.658794 0.496347
O O2 0.495060 0.704119 0.479288
O O3 0.665477 0.701610 0.753476
O O4 0.746953 0.748706 0.498937
O O5 0.485213 0.111360 0.511022
O O6 0.694477 0.109733 0.726885
O O7 0.730232 0.162691 0.476147
O O8 0.728002 0.074973 0.405850
O O9 0.500000 0.555393 0.750000
O O10 0.290539 0.571609 0.984515
O O11 0.262564 0.503288 0.782054
O O12 0.467402 0.500000 0.000000
O O13 0.126206 0.500000 0.500000
O O14 0.000000 0.462465 0.750000
#
# Coordination Sequence:
#
# PCOD9319107 Si02
#       6
#     8   8   8   8   8   8
#     4  10  22  40  68  92 129 168 213 266 322 391
#     4  10  21  39  66  93 127 169 216 266 320 389
#     4  12  27  43  65  94 130 172 221 273 330 389
#     4  10  21  40  66  93 124 175 216 260 325 393
#     4  10  22  41  65  98 126 168 214 265 326 388
#     4  12  23  41  67  95 132 173 218 272 325 390
#
# _framework density 22.756070000000001
#
# number of rings (size 3 to 8) (size 9 to 14) (size 15 to 20)
#    0.000    1.333    1.667    4.000    4.667    2.000 
#    9.000    0.000    0.000    0.000    0.000    0.000 
#    0.000    0.000    0.000    0.000    0.000    0.000 
#
# Total GULP energy -134246.775399 kJ/mol
# GULP energy per Si atom -5593.615642 kJ/mol
# Density = 2.270428 g / cm^3
# Si number density = 22.756070 Si / 1000 Ang^3
#
#
#
# Elastic Constant Matrix: (Units=GPa)
#
#
# Indices 1 2 3 4 5 6 
#
# 1 93.7713 56.3655 0.2461 0.0000 0.0000 0.0000
# 2 56.3655 200.2552 22.5666 0.0000 0.0000 0.0000
# 3 0.2461 22.5666 31.3865 0.0000 0.0000 0.0000
# 4 0.0000 0.0000 0.0000 39.6312 0.0000 0.0000
# 5 0.0000 0.0000 0.0000 0.0000 18.2867 0.0000
# 6 0.0000 0.0000 0.0000 0.0000 0.0000 42.7336
#
#
#
# Elastic Compliance Matrix: (Units=1/GPa)
#
#
# Indices 1 2 3 4 5 6 
#
# 1 0.013052 -0.003985 0.002763 0.000000 0.000000 0.000000
# 2 -0.003985 0.006651 -0.004751 0.000000 0.000000 0.000000
# 3 0.002763 -0.004751 0.035255 0.000000 0.000000 0.000000
# 4 0.000000 0.000000 0.000000 0.025233 0.000000 0.000000
# 5 0.000000 0.000000 0.000000 0.000000 0.054685 0.000000
# 6 0.000000 0.000000 0.000000 0.000000 0.000000 0.023401
#
#
# Mechanical properties :
#
#
# Convention : Reuss Voigt Hill
#
# Bulk Modulus (GPa) = 23.24912 53.75216 38.50064
# Shear Modulus (GPa) = 27.09161 36.54594 31.81877
#
# Velocity S-wave (km/s) = 3.45414 4.01182 3.74338
# Velocity P-wave (km/s) = 5.11341 6.71803 5.96988
#
# Compressibility (1/GPa) = 0.04301239
#
# Stress axis : x y z
#
# Youngs Moduli (GPa) = 76.61372 150.36066 28.36498
#
# Poissons Ratio (x) = 0.59922 -0.07837
# Poissons Ratio (y) = 0.30532 0.13475
# Poissons Ratio (z) = -0.21168 0.71429
#
# Static dielectric constant tensor:
#      x y z
#    x 1.801990 0.000000 0.000000 
#    y 0.000000 1.818090 0.000000 
#    z 0.000000 0.000000 1.946060 
# 
# From -- ./inp_files/6542.got.cif
#   From: 2010.05.17/outbox.cif.g08.bks.cpg/sg20_4_cif.got.tgz:6542.got - 2010.06.03 22:52:26.
