data_PCOD9319001
_publ_section_title
;
Structure prediction by ZEFSAII (Michael W. Deem and Ramdas Pophale) SiO2 
 PCOD9319001
Probable space group: C 2 2 21
;
_chemical_formula_sum "Si O2"
_cell_formula_units_Z 60
_cell_length_a 19.825978
_cell_length_b 12.006607
_cell_length_c 12.000733
_cell_angle_alpha 90.000000
_cell_angle_beta 90.000000
_cell_angle_gamma 90.000000
_cell_volume 2856.687200
_symmetry_space_group_name_H-M "C 2 2 21"
_symmetry_group_IT_number 20
_symmetry_cell_setting 'orthorhombic'
loop_
_space_group_symop_operation_xyz
x,y,z
-x,-y,1/2+z
x,-y,-z
-x,y,1/2-z
1/2+x,1/2+y,z
1/2-x,1/2-y,1/2+z
1/2+x,1/2-y,-z
1/2-x,1/2+y,1/2-z
loop_
_atom_site_type_symbol
_atom_site_label
_atom_site_fract_x
_atom_site_fract_y
_atom_site_fract_z
Si Si1 0.787297 0.156586 0.484951
Si Si2 0.649757 0.619073 0.780855
Si Si3 0.625185 0.093135 0.736886
Si Si4 0.756748 0.398492 0.415397
Si Si5 0.500000 0.740618 0.250000
Si Si6 0.357140 0.880273 0.991945
Si Si7 0.077521 0.664129 0.283324
Si Si8 0.925779 0.931432 0.611474
O O1 0.805477 0.110759 0.606953
O O2 0.767482 0.285800 0.485023
O O3 0.717092 0.106348 0.437965
O O4 0.854596 0.132300 0.413968
O O5 0.693811 0.606600 0.669753
O O6 0.617435 0.741974 0.784229
O O7 0.593489 0.523055 0.794768
O O8 0.678545 0.096426 0.835318
O O9 0.562444 0.175101 0.751081
O O10 0.654956 0.143063 0.621101
O O11 0.602597 0.963154 0.731646
O O12 0.751479 0.500000 0.500000
O O13 0.517689 0.655680 0.149356
O O14 0.404384 0.808383 0.912883
O O15 0.392710 0.000000 0.000000
O O16 0.000000 0.669782 0.250000
O O17 0.943530 0.000000 0.500000
#
# Coordination Sequence:
#
# PCOD9319001 Si02
#       8
#     8   8   8   8   4   8   8   8
#     4  11  21  43  68  98 133 183 231 284 363 416
#     4  11  24  43  71 100 141 180 229 295 359 426
#     4  11  24  46  69 101 138 186 235 297 353 428
#     4  12  25  41  70 110 138 173 237 306 357 414
#     4  12  24  48  70  98 142 190 244 284 358 438
#     4  10  21  38  68  98 131 182 230 284 353 428
#     4  11  24  43  67 100 144 185 232 288 362 432
#     4  10  25  44  70 100 136 196 235 287 357 432
#
# _framework density 21.003350999999999
#
# number of rings (size 3 to 8) (size 9 to 14) (size 15 to 20)
#    0.000    1.067    4.667    2.000    2.800    4.267 
#    2.400    0.000    0.000    0.000    0.000    0.000 
#    0.000    0.000    0.000    0.000    0.000    0.000 
#
# Total GULP energy -167254.872687 kJ/mol
# GULP energy per Si atom -5575.162423 kJ/mol
# Density = 2.095555 g / cm^3
# Si number density = 21.003351 Si / 1000 Ang^3
#
#
#
# Elastic Constant Matrix: (Units=GPa)
#
#
# Indices 1 2 3 4 5 6 
#
# 1 95.1065 34.3590 38.6936 0.0000 0.0000 0.0000
# 2 34.3590 131.5160 23.6664 0.0000 0.0000 0.0000
# 3 38.6936 23.6664 63.9928 0.0000 0.0000 0.0000
# 4 0.0000 0.0000 0.0000 30.7526 0.0000 0.0000
# 5 0.0000 0.0000 0.0000 0.0000 22.5417 0.0000
# 6 0.0000 0.0000 0.0000 0.0000 0.0000 23.5151
#
#
#
# Elastic Compliance Matrix: (Units=1/GPa)
#
#
# Indices 1 2 3 4 5 6 
#
# 1 0.014612 -0.002386 -0.007953 0.000000 0.000000 0.000000
# 2 -0.002386 0.008535 -0.001714 0.000000 0.000000 0.000000
# 3 -0.007953 -0.001714 0.021069 0.000000 0.000000 0.000000
# 4 0.000000 0.000000 0.000000 0.032518 0.000000 0.000000
# 5 0.000000 0.000000 0.000000 0.000000 0.044362 0.000000
# 6 0.000000 0.000000 0.000000 0.000000 0.000000 0.042526
#
#
# Mechanical properties :
#
#
# Convention : Reuss Voigt Hill
#
# Bulk Modulus (GPa) = 49.72374 53.78369 51.75371
# Shear Modulus (GPa) = 25.71592 28.28831 27.00211
#
# Velocity S-wave (km/s) = 3.50290 3.67392 3.58943
# Velocity P-wave (km/s) = 6.33135 6.60755 6.47092
#
# Compressibility (1/GPa) = 0.02011112
#
# Stress axis : x y z
#
# Youngs Moduli (GPa) = 68.43585 117.15812 47.46252
#
# Poissons Ratio (x) = 0.27958 0.37746
# Poissons Ratio (y) = 0.16331 0.08134
# Poissons Ratio (z) = 0.54426 0.20078
#
# Static dielectric constant tensor:
#      x y z
#    x 1.777180 0.000000 0.000000 
#    y 0.000000 1.787590 0.000000 
#    z 0.000000 0.000000 1.809610 
# 
# From -- ./inp_files/16391.got.cif
#   From: 2010.05.17/outbox.cif.g08.bks.cpg/sg20_9_cif.got.tgz:16391.got - 2010.06.03 22:52:26.
