data_PCOD9319316
_publ_section_title
;
Structure prediction by ZEFSAII (Michael W. Deem and Ramdas Pophale) SiO2 
 PCOD9319316
Probable space group: C 2 2 21
;
_chemical_formula_sum "Si O2"
_cell_formula_units_Z 44
_cell_length_a 5.441914
_cell_length_b 13.623780
_cell_length_c 22.356583
_cell_angle_alpha 90.000000
_cell_angle_beta 90.000000
_cell_angle_gamma 90.000000
_cell_volume 1657.504524
_symmetry_space_group_name_H-M "C 2 2 21"
_symmetry_group_IT_number 20
_symmetry_cell_setting 'orthorhombic'
loop_
_space_group_symop_operation_xyz
x,y,z
-x,-y,1/2+z
x,-y,-z
-x,y,1/2-z
1/2+x,1/2+y,z
1/2-x,1/2-y,1/2+z
1/2+x,1/2-y,-z
1/2-x,1/2+y,1/2-z
loop_
_atom_site_type_symbol
_atom_site_label
_atom_site_fract_x
_atom_site_fract_y
_atom_site_fract_z
Si Si1 0.967505 0.413566 0.815475
Si Si2 0.504615 0.855585 0.317012
Si Si3 0.693917 0.174489 0.061135
Si Si4 0.909456 0.053853 0.402157
Si Si5 0.527009 0.347169 0.386994
Si Si6 0.475770 0.000000 0.000000
O O1 0.684688 0.421514 0.836457
O O2 0.000000 0.368577 0.750000
O O3 0.049181 0.527295 0.811814
O O4 0.098486 0.361918 0.872112
O O5 0.500000 0.814517 0.250000
O O6 0.777851 0.846933 0.345601
O O7 0.275064 0.812526 0.354279
O O8 0.565512 0.279103 0.058705
O O9 0.614929 0.102501 0.007811
O O10 0.979726 0.150384 0.068443
O O11 0.084912 0.960100 0.403220
O O12 0.691754 0.007707 0.441570
#
# Coordination Sequence:
#
# PCOD9319316 Si02
#       6
#     8   8   8   8   8   4
#     4   9  20  38  66  96 137 181 223 273 349 415
#     4  10  21  41  65  98 142 185 222 279 344 413
#     4  11  23  43  68  96 135 176 234 285 350 418
#     4  10  22  45  65  97 138 179 232 291 351 427
#     4  11  24  41  69 101 137 178 233 287 346 417
#     4  10  24  46  66  90 132 176 232 292 356 418
#
# _framework density 26.545929999999998
#
# number of rings (size 3 to 8) (size 9 to 14) (size 15 to 20)
#    0.000    1.818    1.818    1.091    5.091    2.182 
#    6.545    0.000    0.000    0.000    0.000    0.000 
#    0.000    0.000    0.000    0.000    0.000    0.000 
#
# Total GULP energy -122881.149093 kJ/mol
# GULP energy per Si atom -5585.506777 kJ/mol
# Density = 2.648551 g / cm^3
# Si number density = 26.545930 Si / 1000 Ang^3
#
#
#
# Elastic Constant Matrix: (Units=GPa)
#
#
# Indices 1 2 3 4 5 6 
#
# 1 83.0586 17.6567 37.8401 0.0000 0.0000 0.0000
# 2 17.6567 100.2602 22.5382 0.0000 0.0000 0.0000
# 3 37.8401 22.5382 125.4213 0.0000 0.0000 0.0000
# 4 0.0000 0.0000 0.0000 38.6768 0.0000 0.0000
# 5 0.0000 0.0000 0.0000 0.0000 27.4633 0.0000
# 6 0.0000 0.0000 0.0000 0.0000 0.0000 36.9970
#
#
#
# Elastic Compliance Matrix: (Units=1/GPa)
#
#
# Indices 1 2 3 4 5 6 
#
# 1 0.014201 -0.001603 -0.003997 0.000000 0.000000 0.000000
# 2 -0.001603 0.010575 -0.001417 0.000000 0.000000 0.000000
# 3 -0.003997 -0.001417 0.009434 0.000000 0.000000 0.000000
# 4 0.000000 0.000000 0.000000 0.025855 0.000000 0.000000
# 5 0.000000 0.000000 0.000000 0.000000 0.036412 0.000000
# 6 0.000000 0.000000 0.000000 0.000000 0.000000 0.027029
#
#
# Mechanical properties :
#
#
# Convention : Reuss Voigt Hill
#
# Bulk Modulus (GPa) = 49.55987 51.64558 50.60273
# Shear Modulus (GPa) = 34.65874 36.00776 35.33325
#
# Velocity S-wave (km/s) = 3.61725 3.68697 3.65228
# Velocity P-wave (km/s) = 6.01299 6.13371 6.07365
#
# Compressibility (1/GPa) = 0.02017762
#
# Stress axis : x y z
#
# Youngs Moduli (GPa) = 70.41694 94.56480 106.00514
#
# Poissons Ratio (x) = 0.15154 0.42366
# Poissons Ratio (y) = 0.11285 0.15019
# Poissons Ratio (z) = 0.28143 0.13398
#
# Static dielectric constant tensor:
#      x y z
#    x 2.208890 0.000000 0.000000 
#    y 0.000000 2.161800 0.000000 
#    z 0.000000 0.000000 2.077340 
# 
# From -- ./inp_files/29404.got.cif
#   From: 2010.05.17/outbox.cif.g08.bks.cpg/sg20_15_cif.got.tgz:29404.got - 2010.06.03 22:52:26.
