data_PCOD9319421
_publ_section_title
;
Structure prediction by ZEFSAII (Michael W. Deem and Ramdas Pophale) SiO2 
 PCOD9319421
Probable space group: C 2 2 21
;
_chemical_formula_sum "Si O2"
_cell_formula_units_Z 48
_cell_length_a 30.953421
_cell_length_b 5.585362
_cell_length_c 13.694209
_cell_angle_alpha 90.000000
_cell_angle_beta 90.000000
_cell_angle_gamma 90.000000
_cell_volume 2367.537858
_symmetry_space_group_name_H-M "C 2 2 21"
_symmetry_group_IT_number 20
_symmetry_cell_setting 'orthorhombic'
loop_
_space_group_symop_operation_xyz
x,y,z
-x,-y,1/2+z
x,-y,-z
-x,y,1/2-z
1/2+x,1/2+y,z
1/2-x,1/2-y,1/2+z
1/2+x,1/2-y,-z
1/2-x,1/2+y,1/2-z
loop_
_atom_site_type_symbol
_atom_site_label
_atom_site_fract_x
_atom_site_fract_y
_atom_site_fract_z
Si Si1 0.000000 0.832125 0.250000
Si Si2 0.808733 0.000000 0.500000
Si Si3 0.100987 0.500000 0.500000
Si Si4 0.226973 0.958385 0.221927
Si Si5 0.932764 0.841173 0.849801
Si Si6 0.078802 0.537493 0.186768
Si Si7 0.359528 0.309250 0.166419
Si Si8 0.363607 0.000000 0.500000
O O1 0.033677 0.675745 0.187874
O O2 0.028181 0.980477 0.328569
O O3 0.783682 0.990101 0.394543
O O4 0.835681 0.747544 0.498977
O O5 0.067349 0.334066 0.440765
O O6 0.133015 0.373888 0.577592
O O7 0.256794 0.719889 0.239025
O O8 0.185681 0.884630 0.288188
O O9 0.929552 0.696974 0.749594
O O10 0.886676 0.963607 0.866351
O O11 0.112412 0.699076 0.246477
O O12 0.103870 0.481903 0.089834
#
# Coordination Sequence:
#
# PCOD9319421 Si02
#       8
#     4   4   4   8   8   8   8   4
#     4  10  22  42  64 100 144 182 234 318 356 428
#     4  12  26  51  76 110 149 192 247 306 364 445
#     4  10  22  39  73 100 130 192 240 288 364 442
#     4  12  28  48  76 111 150 191 238 307 371 434
#     4  10  21  42  67  95 139 184 236 299 362 428
#     4  10  22  41  69  97 134 189 237 295 360 427
#     4  10  22  44  68  99 139 187 232 290 359 436
#     4  12  24  44  81 102 139 200 249 290 362 451
#
# _framework density 20.274225999999999
#
# number of rings (size 3 to 8) (size 9 to 14) (size 15 to 20)
#    0.000    1.333    1.667    3.000    7.000    0.667 
#    3.000   20.000    0.000    0.000    0.000    0.000 
#    0.000    0.000    0.000    0.000    0.000    0.000 
#
# Total GULP energy -133741.946048 kJ/mol
# GULP energy per Si atom -5572.581085 kJ/mol
# Density = 2.022808 g / cm^3
# Si number density = 20.274226 Si / 1000 Ang^3
#
#
#
# Elastic Constant Matrix: (Units=GPa)
#
#
# Indices 1 2 3 4 5 6 
#
# 1 109.8873 67.3111 80.1323 0.0000 0.0000 0.0000
# 2 67.3111 157.8182 120.9184 0.0000 0.0000 0.0000
# 3 80.1323 120.9184 262.8412 0.0000 0.0000 0.0000
# 4 0.0000 0.0000 0.0000 375.1302 0.0000 0.0000
# 5 0.0000 0.0000 0.0000 0.0000 12.0580 0.0000
# 6 0.0000 0.0000 0.0000 0.0000 0.0000-1166.2257
#
#
#
# Elastic Compliance Matrix: (Units=1/GPa)
#
#
# Indices 1 2 3 4 5 6 
#
# 1 0.013091 -0.003900 -0.002197 0.000000 0.000000 0.000000
# 2 -0.003900 0.010948 -0.003847 0.000000 0.000000 0.000000
# 3 -0.002197 -0.003847 0.006244 0.000000 0.000000 0.000000
# 4 0.000000 0.000000 0.000000 0.002666 0.000000 0.000000
# 5 0.000000 0.000000 0.000000 0.000000 0.082932 0.000000
# 6 0.000000 0.000000 0.000000 0.000000 0.000000 -0.000857
#
#
# Mechanical properties :
#
#
# Convention : Reuss Voigt Hill
#
# Bulk Modulus (GPa) = 96.20685 118.58560 107.39623
# Shear Modulus (GPa) = 36.13290 -138.32851 -51.09781
#
# Velocity S-wave (km/s) = 4.22620 -8.26903 -5.02574
# Velocity P-wave (km/s) = 8.44809 5.70538 4.40561
#
# Compressibility (1/GPa) = 0.01039427
#
# Stress axis : x y z
#
# Youngs Moduli (GPa) = 76.38600 91.34286 160.14747
#
# Poissons Ratio (x) = 0.35628 0.35181
# Poissons Ratio (y) = 0.29794 0.61614
# Poissons Ratio (z) = 0.16780 0.35142
#
# Static dielectric constant tensor:
#      x y z
#    x 1.690870 0.000000 0.000000 
#    y 0.000000 1.878650 0.000000 
#    z 0.000000 0.000000 2.342660 
# 
# From -- ./inp_files/22200.got.cif
#   From: 2010.05.17/outbox.cif.g08.bks.cpg/sg20_12_cif.got.tgz:22200.got - 2010.06.03 22:52:26.
