data_PCOD9319067
_publ_section_title
;
Structure prediction by ZEFSAII (Michael W. Deem and Ramdas Pophale) SiO2 
 PCOD9319067
Probable space group: C 2 2 21
;
_chemical_formula_sum "Si O2"
_cell_formula_units_Z 60
_cell_length_a 9.293750
_cell_length_b 17.329468
_cell_length_c 20.605821
_cell_angle_alpha 90.000000
_cell_angle_beta 90.000000
_cell_angle_gamma 90.000000
_cell_volume 3318.685816
_symmetry_space_group_name_H-M "C 2 2 21"
_symmetry_group_IT_number 20
_symmetry_cell_setting 'orthorhombic'
loop_
_space_group_symop_operation_xyz
x,y,z
-x,-y,1/2+z
x,-y,-z
-x,y,1/2-z
1/2+x,1/2+y,z
1/2-x,1/2-y,1/2+z
1/2+x,1/2-y,-z
1/2-x,1/2+y,1/2-z
loop_
_atom_site_type_symbol
_atom_site_label
_atom_site_fract_x
_atom_site_fract_y
_atom_site_fract_z
Si Si1 0.506663 0.018839 0.826772
Si Si2 0.009298 0.794456 0.172829
Si Si3 0.416332 0.500000 0.000000
Si Si4 0.646058 0.379858 0.976343
Si Si5 0.548367 0.792912 0.032640
Si Si6 0.709075 0.861382 0.391340
Si Si7 0.231549 0.104006 0.607208
Si Si8 0.062715 0.362516 0.598621
O O1 0.500000 0.006187 0.750000
O O2 0.378982 0.076109 0.850066
O O3 0.654869 0.060505 0.847083
O O4 0.491531 0.939006 0.865792
O O5 0.901183 0.859242 0.145280
O O6 0.961267 0.712508 0.142944
O O7 0.000000 0.791714 0.250000
O O8 0.168603 0.817662 0.148769
O O9 0.520283 0.439840 0.963213
O O10 0.323417 0.546459 0.948193
O O11 0.578236 0.295039 0.985223
O O12 0.771525 0.374714 0.923155
O O13 0.717635 0.400828 0.045676
O O14 0.407521 0.802900 0.077427
O O15 0.682427 0.827315 0.071522
O O16 0.520441 0.843470 0.968424
#
# Coordination Sequence:
#
# PCOD9319067 Si02
#       8
#     8   8   4   8   8   8   8   8
#     4  11  24  43  61  87 129 168 206 246 296 371
#     4  12  23  40  62  87 122 165 210 242 290 375
#     4  12  22  34  64  94 124 142 202 256 322 350
#     4  11  21  38  62  94 124 152 191 271 310 361
#     4  10  21  39  64  89 123 149 198 259 312 356
#     4  10  22  39  63  88 118 163 198 245 313 357
#     4  11  23  40  61  93 118 160 199 252 304 361
#     4  11  22  38  65  90 121 156 206 249 315 352
#
# _framework density 18.079446000000001
#
# number of rings (size 3 to 8) (size 9 to 14) (size 15 to 20)
#    0.000    1.067    4.000    2.800    1.867    4.800 
#    0.000    0.000    0.000    1.600    0.000    0.000 
#    0.000    0.000    0.000    0.000    0.000    0.000 
#
# Total GULP energy -167685.778422 kJ/mol
# GULP energy per Si atom -5589.525947 kJ/mol
# Density = 1.803830 g / cm^3
# Si number density = 18.079446 Si / 1000 Ang^3
#
#
#
# Elastic Constant Matrix: (Units=GPa)
#
#
# Indices 1 2 3 4 5 6 
#
# 1 95.4381 37.0324 50.0904 0.0000 0.0000 0.0000
# 2 37.0324 93.5576 40.7244 0.0000 0.0000 0.0000
# 3 50.0904 40.7244 121.2656 0.0000 0.0000 0.0000
# 4 0.0000 0.0000 0.0000 24.7865 0.0000 0.0000
# 5 0.0000 0.0000 0.0000 0.0000 16.4701 0.0000
# 6 0.0000 0.0000 0.0000 0.0000 0.0000 13.9531
#
#
#
# Elastic Compliance Matrix: (Units=1/GPa)
#
#
# Indices 1 2 3 4 5 6 
#
# 1 0.014361 -0.003633 -0.004712 0.000000 0.000000 0.000000
# 2 -0.003633 0.013438 -0.003012 0.000000 0.000000 0.000000
# 3 -0.004712 -0.003012 0.011204 0.000000 0.000000 0.000000
# 4 0.000000 0.000000 0.000000 0.040345 0.000000 0.000000
# 5 0.000000 0.000000 0.000000 0.000000 0.060716 0.000000
# 6 0.000000 0.000000 0.000000 0.000000 0.000000 0.071669
#
#
# Mechanical properties :
#
#
# Convention : Reuss Voigt Hill
#
# Bulk Modulus (GPa) = 61.39285 62.88398 62.13841
# Shear Modulus (GPa) = 20.84412 23.20287 22.02350
#
# Velocity S-wave (km/s) = 3.39915 3.58632 3.49399
# Velocity P-wave (km/s) = 7.03112 7.21155 7.12191
#
# Compressibility (1/GPa) = 0.01628854
#
# Stress axis : x y z
#
# Youngs Moduli (GPa) = 69.63406 74.41651 89.25290
#
# Poissons Ratio (x) = 0.27039 0.42053
# Poissons Ratio (y) = 0.25301 0.26883
# Poissons Ratio (z) = 0.32810 0.22414
#
# Static dielectric constant tensor:
#      x y z
#    x 1.624040 0.000000 0.000000 
#    y 0.000000 1.596290 0.000000 
#    z 0.000000 0.000000 1.590230 
# 
# From -- ./inp_files/23785.got.cif
#   From: 2010.05.17/outbox.cif.g08.bks.cpg/sg20_12_cif.got.tgz:23785.got - 2010.06.03 22:52:26.
