data_PCOD9319169
_publ_section_title
;
Structure prediction by ZEFSAII (Michael W. Deem and Ramdas Pophale) SiO2 
 PCOD9319169
Probable space group: C 2 2 21
;
_chemical_formula_sum "Si O2"
_cell_formula_units_Z 56
_cell_length_a 12.049961
_cell_length_b 12.707445
_cell_length_c 13.535434
_cell_angle_alpha 90.000000
_cell_angle_beta 90.000000
_cell_angle_gamma 90.000000
_cell_volume 2072.602728
_symmetry_space_group_name_H-M "C 2 2 21"
_symmetry_group_IT_number 20
_symmetry_cell_setting 'orthorhombic'
loop_
_space_group_symop_operation_xyz
x,y,z
-x,-y,1/2+z
x,-y,-z
-x,y,1/2-z
1/2+x,1/2+y,z
1/2-x,1/2-y,1/2+z
1/2+x,1/2-y,-z
1/2-x,1/2+y,1/2-z
loop_
_atom_site_type_symbol
_atom_site_label
_atom_site_fract_x
_atom_site_fract_y
_atom_site_fract_z
Si Si1 0.453126 0.556697 0.393356
Si Si2 0.512164 0.342240 0.350830
Si Si3 0.462096 0.155926 0.040080
Si Si4 0.908813 0.511222 0.669252
Si Si5 0.646270 0.267924 0.622483
Si Si6 0.758176 0.112510 0.947803
Si Si7 0.236038 0.355190 0.699816
O O1 0.468138 0.500000 0.500000
O O2 0.443112 0.447135 0.333613
O O3 0.554290 0.636832 0.368548
O O4 0.339851 0.613606 0.367788
O O5 0.500000 0.277783 0.250000
O O6 0.476342 0.267213 0.440191
O O7 0.635564 0.378577 0.377648
O O8 0.535778 0.063731 0.085886
O O9 0.360799 0.162849 0.119642
O O10 0.411763 0.165996 0.929508
O O11 0.852992 0.609642 0.615026
O O12 0.813428 0.444975 0.726924
O O13 0.000000 0.538914 0.750000
O O14 0.727839 0.305189 0.535019
O O15 0.716365 0.267331 0.723287
O O16 0.763891 0.000000 0.000000
#
# Coordination Sequence:
#
# PCOD9319169 Si02
#       7
#     8   8   8   8   8   8   8
#     4  12  21  39  64 100 126 160 216 280 327 379
#     4  11  19  36  64  95 123 161 223 268 314 386
#     4  10  24  42  63  94 132 179 216 258 331 400
#     4  10  21  40  62  90 133 178 217 261 331 396
#     4  11  21  42  69  96 129 172 221 268 336 388
#     4  11  18  36  64  94 113 176 222 256 321 402
#     4  11  23  39  67  96 135 171 214 273 337 385
#
# _framework density 27.019166999999999
#
# number of rings (size 3 to 8) (size 9 to 14) (size 15 to 20)
#    0.000    1.143    5.714    3.429    0.000    1.143 
#    2.571    2.857    6.286    0.000    0.000    0.000 
#    0.000    0.000    0.000    0.000    0.000    0.000 
#
# Total GULP energy -156637.991875 kJ/mol
# GULP energy per Si atom -5594.213996 kJ/mol
# Density = 2.695767 g / cm^3
# Si number density = 27.019167 Si / 1000 Ang^3
#
#
#
# Elastic Constant Matrix: (Units=GPa)
#
#
# Indices 1 2 3 4 5 6 
#
# 1 166.0545 40.9522 50.2814 0.0000 0.0000 0.0000
# 2 40.9522 69.2493 33.7961 0.0000 0.0000 0.0000
# 3 50.2814 33.7961 121.7036 0.0000 0.0000 0.0000
# 4 0.0000 0.0000 0.0000 50.2271 0.0000 0.0000
# 5 0.0000 0.0000 0.0000 0.0000 46.8110 0.0000
# 6 0.0000 0.0000 0.0000 0.0000 0.0000 29.0836
#
#
#
# Elastic Compliance Matrix: (Units=1/GPa)
#
#
# Indices 1 2 3 4 5 6 
#
# 1 0.007512 -0.003387 -0.002163 0.000000 0.000000 0.000000
# 2 -0.003387 0.018231 -0.003663 0.000000 0.000000 0.000000
# 3 -0.002163 -0.003663 0.010128 0.000000 0.000000 0.000000
# 4 0.000000 0.000000 0.000000 0.019910 0.000000 0.000000
# 5 0.000000 0.000000 0.000000 0.000000 0.021362 0.000000
# 6 0.000000 0.000000 0.000000 0.000000 0.000000 0.034384
#
#
# Mechanical properties :
#
#
# Convention : Reuss Voigt Hill
#
# Bulk Modulus (GPa) = 57.32488 67.45185 62.38836
# Shear Modulus (GPa) = 36.82724 40.68954 38.75839
#
# Velocity S-wave (km/s) = 3.69589 3.88487 3.79156
# Velocity P-wave (km/s) = 6.28294 6.71875 6.50449
#
# Compressibility (1/GPa) = 0.01744443
#
# Stress axis : x y z
#
# Youngs Moduli (GPa) = 133.11297 54.85046 98.73910
#
# Poissons Ratio (x) = 0.18577 0.21359
# Poissons Ratio (y) = 0.45084 0.36172
# Poissons Ratio (z) = 0.28795 0.20094
#
# Static dielectric constant tensor:
#      x y z
#    x 2.140220 0.000000 0.000000 
#    y 0.000000 2.178890 0.000000 
#    z 0.000000 0.000000 2.299720 
# 
# From -- ./inp_files/20023.got.cif
#   From: 2010.05.17/outbox.cif.g08.bks.cpg/sg20_11_cif.got.tgz:20023.got - 2010.06.03 22:52:26.
