data_PCOD9319804
_publ_section_title
;
Structure prediction by ZEFSAII (Michael W. Deem and Ramdas Pophale) SiO2 
 PCOD9319804
Probable space group: C 2 2 21
;
_chemical_formula_sum "Si O2"
_cell_formula_units_Z 60
_cell_length_a 20.098996
_cell_length_b 18.084846
_cell_length_c 8.722971
_cell_angle_alpha 90.000000
_cell_angle_beta 90.000000
_cell_angle_gamma 90.000000
_cell_volume 3170.688718
_symmetry_space_group_name_H-M "C 2 2 21"
_symmetry_group_IT_number 20
_symmetry_cell_setting 'orthorhombic'
loop_
_space_group_symop_operation_xyz
x,y,z
-x,-y,1/2+z
x,-y,-z
-x,y,1/2-z
1/2+x,1/2+y,z
1/2-x,1/2-y,1/2+z
1/2+x,1/2-y,-z
1/2-x,1/2+y,1/2-z
loop_
_atom_site_type_symbol
_atom_site_label
_atom_site_fract_x
_atom_site_fract_y
_atom_site_fract_z
Si Si1 0.678546 0.428495 0.394037
Si Si2 0.500000 0.678240 0.750000
Si Si3 0.327593 0.307847 0.594390
Si Si4 0.209783 0.295798 0.821055
Si Si5 0.882429 0.768581 0.056465
Si Si6 0.079878 0.306294 0.240857
Si Si7 0.898829 0.928428 0.417863
Si Si8 0.667770 0.082616 0.946263
O O1 0.669450 0.500000 0.500000
O O2 0.645183 0.353157 0.460997
O O3 0.644434 0.444971 0.232311
O O4 0.757719 0.416350 0.374803
O O5 0.546677 0.724798 0.639633
O O6 0.545135 0.626786 0.857493
O O7 0.280536 0.310196 0.742184
O O8 0.289881 0.266244 0.454430
O O9 0.393026 0.259230 0.630743
O O10 0.351263 0.386700 0.537089
O O11 0.165083 0.267487 0.682351
O O12 0.177941 0.366671 0.902970
O O13 0.891504 0.719347 0.905695
O O14 0.000000 0.311912 0.250000
O O15 0.115697 0.378662 0.168936
O O16 0.927574 0.000000 0.500000
O O17 0.650614 0.000000 0.000000
#
# Coordination Sequence:
#
# PCOD9319804 Si02
#       8
#     8   4   8   8   8   8   8   8
#     4  10  22  40  62  89 129 167 199 259 314 369
#     4  10  22  44  58  88 134 174 208 256 302 362
#     4  11  22  40  61 100 123 163 209 264 312 372
#     4  11  22  38  69  91 124 158 207 268 317 374
#     4  11  22  40  64  94 123 168 212 257 310 368
#     4  11  24  40  66  91 122 162 216 256 312 382
#     4  11  25  39  61  91 130 168 215 250 302 374
#     4  10  24  44  63  91 125 160 201 265 331 379
#
# _framework density 18.923334000000001
#
# number of rings (size 3 to 8) (size 9 to 14) (size 15 to 20)
#    0.000    1.333    2.667    4.000    9.333    2.133 
#    1.200    2.000    0.000    0.000    0.000    0.000 
#    0.000    0.000    0.000    0.000    0.000    0.000 
#
# Total GULP energy -167532.014460 kJ/mol
# GULP energy per Si atom -5584.400482 kJ/mol
# Density = 1.888026 g / cm^3
# Si number density = 18.923334 Si / 1000 Ang^3
#
#
#
# Elastic Constant Matrix: (Units=GPa)
#
#
# Indices 1 2 3 4 5 6 
#
# 1 111.4775 31.5021 55.4585 0.0000 0.0000 0.0000
# 2 31.5021 85.4217 31.8884 0.0000 0.0000 0.0000
# 3 55.4585 31.8884 88.6223 0.0000 0.0000 0.0000
# 4 0.0000 0.0000 0.0000 29.0304 0.0000 0.0000
# 5 0.0000 0.0000 0.0000 0.0000 34.5301 0.0000
# 6 0.0000 0.0000 0.0000 0.0000 0.0000 7.3010
#
#
#
# Elastic Compliance Matrix: (Units=1/GPa)
#
#
# Indices 1 2 3 4 5 6 
#
# 1 0.013339 -0.002083 -0.007598 0.000000 0.000000 0.000000
# 2 -0.002083 0.013848 -0.003680 0.000000 0.000000 0.000000
# 3 -0.007598 -0.003680 0.017362 0.000000 0.000000 0.000000
# 4 0.000000 0.000000 0.000000 0.034447 0.000000 0.000000
# 5 0.000000 0.000000 0.000000 0.000000 0.028960 0.000000
# 6 0.000000 0.000000 0.000000 0.000000 0.000000 0.136967
#
#
# Mechanical properties :
#
#
# Convention : Reuss Voigt Hill
#
# Bulk Modulus (GPa) = 56.08769 58.13551 57.11160
# Shear Modulus (GPa) = 18.01236 25.28380 21.64808
#
# Velocity S-wave (km/s) = 3.08857 3.65926 3.38596
# Velocity P-wave (km/s) = 6.51328 6.97437 6.74777
#
# Compressibility (1/GPa) = 0.01782922
#
# Stress axis : x y z
#
# Youngs Moduli (GPa) = 74.96933 72.21088 57.59571
#
# Poissons Ratio (x) = 0.15040 0.43760
# Poissons Ratio (y) = 0.15615 0.21193
# Poissons Ratio (z) = 0.56960 0.26570
#
# Static dielectric constant tensor:
#      x y z
#    x 1.671440 0.000000 0.000000 
#    y 0.000000 1.657300 0.000000 
#    z 0.000000 0.000000 1.647770 
# 
# From -- ./inp_files/9588.got.cif
#   From: 2010.05.17/outbox.cif.g08.bks.cpg/sg20_5_cif.got.tgz:9588.got - 2010.06.03 22:52:26.
