data_PCOD9319551
_publ_section_title
;
Structure prediction by ZEFSAII (Michael W. Deem and Ramdas Pophale) SiO2 
 PCOD9319551
Probable space group: C 2 2 21
;
_chemical_formula_sum "Si O2"
_cell_formula_units_Z 44
_cell_length_a 5.620904
_cell_length_b 13.006166
_cell_length_c 25.895496
_cell_angle_alpha 90.000000
_cell_angle_beta 90.000000
_cell_angle_gamma 90.000000
_cell_volume 1893.126761
_symmetry_space_group_name_H-M "C 2 2 21"
_symmetry_group_IT_number 20
_symmetry_cell_setting 'orthorhombic'
loop_
_space_group_symop_operation_xyz
x,y,z
-x,-y,1/2+z
x,-y,-z
-x,y,1/2-z
1/2+x,1/2+y,z
1/2-x,1/2-y,1/2+z
1/2+x,1/2-y,-z
1/2-x,1/2+y,1/2-z
loop_
_atom_site_type_symbol
_atom_site_label
_atom_site_fract_x
_atom_site_fract_y
_atom_site_fract_z
Si Si1 0.995134 0.528003 0.441924
Si Si2 0.186694 0.734022 0.471082
Si Si3 0.625403 0.288914 0.297796
Si Si4 0.229439 0.852188 0.646459
Si Si5 0.000000 0.868509 0.750000
Si Si6 0.418267 0.839551 0.385418
O O1 0.908138 0.500000 0.500000
O O2 0.186571 0.617146 0.450793
O O3 0.811242 0.576183 0.400634
O O4 0.078431 0.425587 0.412220
O O5 0.928462 0.748217 0.496845
O O6 0.709229 0.683688 0.574302
O O7 0.500000 0.345039 0.250000
O O8 0.444714 0.220539 0.332217
O O9 0.792848 0.361983 0.331439
O O10 0.791539 0.204584 0.270911
O O11 0.111572 0.910200 0.695977
O O12 0.050680 0.767513 0.623520
#
# Coordination Sequence:
#
# PCOD9319551 Si02
#       6
#     8   8   8   8   4   8
#     4  12  26  43  68 107 137 198 248 305 375 460
#     4  12  26  51  70 101 148 193 246 310 360 436
#     4   9  18  39  73  98 138 187 235 305 376 436
#     4  10  21  45  68 102 145 188 243 311 373 443
#     4   8  18  38  76  98 134 196 238 300 386 434
#     4  11  24  44  69 101 142 190 239 307 367 447
#
# _framework density 23.241973000000002
#
# number of rings (size 3 to 8) (size 9 to 14) (size 15 to 20)
#    0.000    1.455    3.636    1.091    0.000    0.000 
#   14.727    0.000   32.000    0.000    0.000    0.000 
#    0.000    0.000    0.000    0.000    0.000    0.000 
#
# Total GULP energy -122671.198091 kJ/mol
# GULP energy per Si atom -5575.963550 kJ/mol
# Density = 2.318907 g / cm^3
# Si number density = 23.241973 Si / 1000 Ang^3
#
#
#
# Elastic Constant Matrix: (Units=GPa)
#
#
# Indices 1 2 3 4 5 6 
#
# 1 78.2213 6.3825 32.7805 0.0000 0.0000 0.0000
# 2 6.3825 74.7459 26.8841 0.0000 0.0000 0.0000
# 3 32.7805 26.8841 109.8165 0.0000 0.0000 0.0000
# 4 0.0000 0.0000 0.0000 34.9810 0.0000 0.0000
# 5 0.0000 0.0000 0.0000 0.0000 40.7960 0.0000
# 6 0.0000 0.0000 0.0000 0.0000 0.0000 2.7861
#
#
#
# Elastic Compliance Matrix: (Units=1/GPa)
#
#
# Indices 1 2 3 4 5 6 
#
# 1 0.014621 0.000352 -0.004451 0.000000 0.000000 0.000000
# 2 0.000352 0.014679 -0.003699 0.000000 0.000000 0.000000
# 3 -0.004451 -0.003699 0.011340 0.000000 0.000000 0.000000
# 4 0.000000 0.000000 0.000000 0.028587 0.000000 0.000000
# 5 0.000000 0.000000 0.000000 0.000000 0.024512 0.000000
# 6 0.000000 0.000000 0.000000 0.000000 0.000000 0.358921
#
#
# Mechanical properties :
#
#
# Convention : Reuss Voigt Hill
#
# Bulk Modulus (GPa) = 39.92698 43.87530 41.90114
# Shear Modulus (GPa) = 10.49094 28.82839 19.65967
#
# Velocity S-wave (km/s) = 2.12687 3.52569 2.91154
# Velocity P-wave (km/s) = 4.82157 5.95757 5.41942
#
# Compressibility (1/GPa) = 0.02504572
#
# Stress axis : x y z
#
# Youngs Moduli (GPa) = 68.39668 68.12498 88.18293
#
# Poissons Ratio (x) = -0.02400 0.39246
# Poissons Ratio (y) = -0.02410 0.32616
# Poissons Ratio (z) = 0.30440 0.25197
#
# Static dielectric constant tensor:
#      x y z
#    x 1.916250 0.000000 0.000000 
#    y 0.000000 1.861270 0.000000 
#    z 0.000000 0.000000 2.028290 
# 
# From -- ./inp_files/29765.got.cif
#   From: 2010.05.17/outbox.cif.g08.bks.cpg/sg20_15_cif.got.tgz:29765.got - 2010.06.03 22:52:26.
