data_PCOD9319850
_publ_section_title
;
Structure prediction by ZEFSAII (Michael W. Deem and Ramdas Pophale) SiO2 
 PCOD9319850
Probable space group: C 2 2 21
;
_chemical_formula_sum "Si O2"
_cell_formula_units_Z 40
_cell_length_a 5.747038
_cell_length_b 19.983687
_cell_length_c 12.164033
_cell_angle_alpha 90.000000
_cell_angle_beta 90.000000
_cell_angle_gamma 90.000000
_cell_volume 1397.002802
_symmetry_space_group_name_H-M "C 2 2 21"
_symmetry_group_IT_number 20
_symmetry_cell_setting 'orthorhombic'
loop_
_space_group_symop_operation_xyz
x,y,z
-x,-y,1/2+z
x,-y,-z
-x,y,1/2-z
1/2+x,1/2+y,z
1/2-x,1/2-y,1/2+z
1/2+x,1/2-y,-z
1/2-x,1/2+y,1/2-z
loop_
_atom_site_type_symbol
_atom_site_label
_atom_site_fract_x
_atom_site_fract_y
_atom_site_fract_z
Si Si1 0.768527 0.169416 0.560223
Si Si2 0.500000 0.038571 0.750000
Si Si3 0.007758 0.420678 0.926170
Si Si4 0.500000 0.541969 0.750000
Si Si5 0.411706 0.500000 0.000000
Si Si6 0.000000 0.691718 0.250000
Si Si7 0.768997 0.713270 0.622796
O O1 0.722846 0.099821 0.493473
O O2 0.774321 0.233145 0.477768
O O3 0.023489 0.173251 0.613046
O O4 0.516167 0.177057 0.618497
O O5 0.483923 0.985880 0.851039
O O6 0.746037 0.075527 0.748239
O O7 0.052163 0.356654 0.850716
O O8 0.236570 0.435864 0.994934
O O9 0.502933 0.502928 0.630326
O O10 0.219540 0.738277 0.273979
#
# Coordination Sequence:
#
# PCOD9319850 Si02
#       7
#     8   4   8   4   4   4   8
#     4   9  18  33  54  84 117 156 198 262 333 393
#     4   9  20  38  62  94 125 172 233 286 336 417
#     4   9  19  38  64  95 130 174 228 280 344 416
#     4  10  22  40  65  92 133 184 238 294 352 406
#     4  10  22  42  68 102 142 188 242 300 354 426
#     4   9  18  36  63  92 122 168 225 276 334 423
#     4   9  18  33  54  80 115 151 201 263 325 390
#
# _framework density 28.632728
#
# number of rings (size 3 to 8) (size 9 to 14) (size 15 to 20)
#    0.000    2.800    0.000    0.000    0.000    7.200 
#    0.000   35.000    0.000    9.600    0.000    0.000 
#    0.000    0.000    0.000    0.000    0.000    0.000 
#
# Total GULP energy -111765.449928 kJ/mol
# GULP energy per Si atom -5588.272496 kJ/mol
# Density = 2.856756 g / cm^3
# Si number density = 28.632728 Si / 1000 Ang^3
#
#
#
# Elastic Constant Matrix: (Units=GPa)
#
#
# Indices 1 2 3 4 5 6 
#
# 1 243.6944 87.1718 73.8517 0.0000 0.0000 0.0000
# 2 87.1718 86.0581 66.9284 0.0000 0.0000 0.0000
# 3 73.8517 66.9284 169.5451 0.0000 0.0000 0.0000
# 4 0.0000 0.0000 0.0000 55.5481 0.0000 0.0000
# 5 0.0000 0.0000 0.0000 0.0000 54.5512 0.0000
# 6 0.0000 0.0000 0.0000 0.0000 0.0000 52.6036
#
#
#
# Elastic Compliance Matrix: (Units=1/GPa)
#
#
# Indices 1 2 3 4 5 6 
#
# 1 0.006448 -0.006273 -0.000332 0.000000 0.000000 0.000000
# 2 -0.006273 0.022871 -0.006296 0.000000 0.000000 0.000000
# 3 -0.000332 -0.006296 0.008528 0.000000 0.000000 0.000000
# 4 0.000000 0.000000 0.000000 0.018002 0.000000 0.000000
# 5 0.000000 0.000000 0.000000 0.000000 0.018331 0.000000
# 6 0.000000 0.000000 0.000000 0.000000 0.000000 0.019010
#
#
# Mechanical properties :
#
#
# Convention : Reuss Voigt Hill
#
# Bulk Modulus (GPa) = 83.02583 106.13351 94.57967
# Shear Modulus (GPa) = 40.64766 50.63031 45.63898
#
# Velocity S-wave (km/s) = 3.77187 4.20964 3.99675
# Velocity P-wave (km/s) = 6.93031 7.79588 7.37580
#
# Compressibility (1/GPa) = 0.01204444
#
# Stress axis : x y z
#
# Youngs Moduli (GPa) = 155.08218 43.72420 117.25806
#
# Poissons Ratio (x) = 0.27429 0.03898
# Poissons Ratio (y) = 0.97285 0.73823
# Poissons Ratio (z) = 0.05155 0.27528
#
# Static dielectric constant tensor:
#      x y z
#    x 2.192810 0.000000 0.000000 
#    y 0.000000 2.182930 0.000000 
#    z 0.000000 0.000000 2.373750 
# 
# From -- ./inp_files/17680.got.cif
#   From: 2010.05.17/outbox.cif.g08.bks.cpg/sg20_9_cif.got.tgz:17680.got - 2010.06.03 22:52:26.
