data_PCOD9319277
_publ_section_title
;
Structure prediction by ZEFSAII (Michael W. Deem and Ramdas Pophale) SiO2 
 PCOD9319277
Probable space group: C 2 2 21
;
_chemical_formula_sum "Si O2"
_cell_formula_units_Z 64
_cell_length_a 12.755322
_cell_length_b 28.320843
_cell_length_c 8.860242
_cell_angle_alpha 90.000000
_cell_angle_beta 90.000000
_cell_angle_gamma 90.000000
_cell_volume 3200.686860
_symmetry_space_group_name_H-M "C 2 2 21"
_symmetry_group_IT_number 20
_symmetry_cell_setting 'orthorhombic'
loop_
_space_group_symop_operation_xyz
x,y,z
-x,-y,1/2+z
x,-y,-z
-x,y,1/2-z
1/2+x,1/2+y,z
1/2-x,1/2-y,1/2+z
1/2+x,1/2-y,-z
1/2-x,1/2+y,1/2-z
loop_
_atom_site_type_symbol
_atom_site_label
_atom_site_fract_x
_atom_site_fract_y
_atom_site_fract_z
Si Si1 0.100249 0.705209 0.046288
Si Si2 0.396703 0.313617 0.441198
Si Si3 0.753589 0.336066 0.782607
Si Si4 0.272274 0.851507 0.289610
Si Si5 0.224444 0.057183 0.507725
Si Si6 0.916063 0.631940 0.997215
Si Si7 0.053396 0.548895 0.088234
Si Si8 0.935403 0.877583 0.901704
O O1 0.175169 0.684372 0.911526
O O2 0.067481 0.759632 0.050447
O O3 0.167586 0.698149 0.197366
O O4 0.996932 0.673216 0.039876
O O5 0.315404 0.315837 0.581454
O O6 0.331365 0.329818 0.293007
O O7 0.492898 0.348313 0.482976
O O8 0.828627 0.372404 0.871996
O O9 0.671048 0.352296 0.655516
O O10 0.248548 0.904332 0.356955
O O11 0.357945 0.857617 0.158024
O O12 0.326823 0.066614 0.403878
O O13 0.109060 0.073553 0.461433
O O14 0.221683 0.000000 0.500000
O O15 0.986041 0.585605 0.992223
O O16 0.000000 0.544448 0.250000
O O17 0.053463 0.500000 0.000000
O O18 0.000000 0.884372 0.750000
#
# Coordination Sequence:
#
# PCOD9319277 Si02
#       8
#     8   8   8   8   8   8   8   8
#     4  12  21  39  66  94 136 180 219 271 342 405
#     4  10  25  40  65  97 128 179 229 275 337 396
#     4  10  21  41  62  87 130 169 217 274 330 392
#     4  11  24  43  65 100 141 170 224 289 332 414
#     4  11  24  44  69  93 133 177 222 282 354 397
#     4  11  23  39  62  95 138 172 218 273 340 406
#     4  11  24  39  68  99 133 177 223 275 349 424
#     4  10  21  44  67  87 125 169 221 283 329 399
#
# _framework density 19.995708
#
# number of rings (size 3 to 8) (size 9 to 14) (size 15 to 20)
#    0.000    1.250    2.500    3.000    3.500    5.500 
#    6.750    0.000    0.000    0.000    0.000    0.000 
#    0.000    0.000    0.000    0.000    0.000    0.000 
#
# Total GULP energy -178323.826811 kJ/mol
# GULP energy per Si atom -5572.619588 kJ/mol
# Density = 1.995020 g / cm^3
# Si number density = 19.995708 Si / 1000 Ang^3
#
#
#
# Elastic Constant Matrix: (Units=GPa)
#
#
# Indices 1 2 3 4 5 6 
#
# 1 121.4235 44.5899 37.4679 0.0000 0.0000 0.0000
# 2 44.5899 68.3113 9.8005 0.0000 0.0000 0.0000
# 3 37.4679 9.8005 68.1933 0.0000 0.0000 0.0000
# 4 0.0000 0.0000 0.0000 16.5686 0.0000 0.0000
# 5 0.0000 0.0000 0.0000 0.0000 28.0145 0.0000
# 6 0.0000 0.0000 0.0000 0.0000 0.0000 149.8923
#
#
#
# Elastic Compliance Matrix: (Units=1/GPa)
#
#
# Indices 1 2 3 4 5 6 
#
# 1 0.012843 -0.007526 -0.005975 0.000000 0.000000 0.000000
# 2 -0.007526 0.019357 0.001353 0.000000 0.000000 0.000000
# 3 -0.005975 0.001353 0.017753 0.000000 0.000000 0.000000
# 4 0.000000 0.000000 0.000000 0.060355 0.000000 0.000000
# 5 0.000000 0.000000 0.000000 0.000000 0.035696 0.000000
# 6 0.000000 0.000000 0.000000 0.000000 0.000000 0.006671
#
#
# Mechanical properties :
#
#
# Convention : Reuss Voigt Hill
#
# Bulk Modulus (GPa) = 38.97512 49.07163 44.02337
# Shear Modulus (GPa) = 26.95076 49.96638 38.45857
#
# Velocity S-wave (km/s) = 3.67526 5.00428 4.39035
# Velocity P-wave (km/s) = 6.12732 7.61477 6.91118
#
# Compressibility (1/GPa) = 0.02565740
#
# Stress axis : x y z
#
# Youngs Moduli (GPa) = 77.86295 51.65999 56.33007
#
# Poissons Ratio (x) = 0.38880 0.33656
# Poissons Ratio (y) = 0.58600 -0.07622
# Poissons Ratio (z) = 0.46522 -0.06990
#
# Static dielectric constant tensor:
#      x y z
#    x 1.717450 0.000000 0.000000 
#    y 0.000000 1.740180 0.000000 
#    z 0.000000 0.000000 1.734850 
# 
# From -- ./inp_files/7707.got.cif
#   From: 2010.05.17/outbox.cif.g08.bks.cpg/sg20_4_cif.got.tgz:7707.got - 2010.06.03 22:52:26.
