data_PCOD9319926
_publ_section_title
;
Structure prediction by ZEFSAII (Michael W. Deem and Ramdas Pophale) SiO2 
 PCOD9319926
Probable space group: C 2 2 21
;
_chemical_formula_sum "Si O2"
_cell_formula_units_Z 64
_cell_length_a 17.283892
_cell_length_b 12.810001
_cell_length_c 14.210978
_cell_angle_alpha 90.000000
_cell_angle_beta 90.000000
_cell_angle_gamma 90.000000
_cell_volume 3146.405370
_symmetry_space_group_name_H-M "C 2 2 21"
_symmetry_group_IT_number 20
_symmetry_cell_setting 'orthorhombic'
loop_
_space_group_symop_operation_xyz
x,y,z
-x,-y,1/2+z
x,-y,-z
-x,y,1/2-z
1/2+x,1/2+y,z
1/2-x,1/2-y,1/2+z
1/2+x,1/2-y,-z
1/2-x,1/2+y,1/2-z
loop_
_atom_site_type_symbol
_atom_site_label
_atom_site_fract_x
_atom_site_fract_y
_atom_site_fract_z
Si Si1 0.662861 0.588607 0.922158
Si Si2 0.066437 0.616755 0.512153
Si Si3 0.547547 0.704052 0.043457
Si Si4 0.411340 0.645143 0.769883
Si Si5 0.658088 0.285745 0.785608
Si Si6 0.676138 0.852388 0.664026
Si Si7 0.174861 0.415028 0.323766
Si Si8 0.440428 0.435258 0.838635
O O1 0.621733 0.582972 0.820830
O O2 0.752559 0.590305 0.895216
O O3 0.650270 0.500000 0.000000
O O4 0.617174 0.681996 0.971865
O O5 0.035535 0.500000 0.500000
O O6 0.134998 0.634159 0.436872
O O7 0.100808 0.620092 0.616585
O O8 0.003120 0.704239 0.501146
O O9 0.588402 0.730041 0.142113
O O10 0.488062 0.611378 0.073476
O O11 0.500000 0.676055 0.750000
O O12 0.362487 0.749645 0.789971
O O13 0.411775 0.554720 0.849767
O O14 0.731309 0.339080 0.836343
O O15 0.686824 0.172825 0.753075
O O16 0.626856 0.357012 0.698912
O O17 0.664016 0.966469 0.711073
O O18 0.500000 0.440161 0.750000
#
# Coordination Sequence:
#
# PCOD9319926 Si02
#       8
#     8   8   8   8   8   8   8   8
#     4  12  22  39  65  93 123 165 220 266 317 382
#     4  10  22  41  62  91 130 167 211 260 311 394
#     4  11  22  39  65  95 123 166 212 267 323 369
#     4  11  22  39  60  96 130 162 208 265 326 381
#     4  11  21  39  65  92 123 165 213 262 312 384
#     4  11  23  41  63  91 130 168 211 263 317 383
#     4  11  22  41  64  91 122 171 218 256 317 391
#     4   9  19  37  64  90 124 155 208 266 311 371
#
# _framework density 20.340672000000001
#
# number of rings (size 3 to 8) (size 9 to 14) (size 15 to 20)
#    0.000    1.250    2.500    6.375    0.000    0.000 
#    6.750    0.000    0.000    0.000    0.000    0.000 
#    0.000    0.000    0.000    0.000    0.000    0.000 
#
# Total GULP energy -178551.564492 kJ/mol
# GULP energy per Si atom -5579.736390 kJ/mol
# Density = 2.029438 g / cm^3
# Si number density = 20.340672 Si / 1000 Ang^3
#
#
#
# Elastic Constant Matrix: (Units=GPa)
#
#
# Indices 1 2 3 4 5 6 
#
# 1 79.5725 42.0028 3.7093 0.0000 0.0000 0.0000
# 2 42.0028 134.9696 28.1734 0.0000 0.0000 0.0000
# 3 3.7093 28.1734 39.6343 0.0000 0.0000 0.0000
# 4 0.0000 0.0000 0.0000 21.9067 0.0000 0.0000
# 5 0.0000 0.0000 0.0000 0.0000 13.1775 0.0000
# 6 0.0000 0.0000 0.0000 0.0000 0.0000 29.5995
#
#
#
# Elastic Compliance Matrix: (Units=1/GPa)
#
#
# Indices 1 2 3 4 5 6 
#
# 1 0.015211 -0.005209 0.002279 0.000000 0.000000 0.000000
# 2 -0.005209 0.010484 -0.006965 0.000000 0.000000 0.000000
# 3 0.002279 -0.006965 0.029968 0.000000 0.000000 0.000000
# 4 0.000000 0.000000 0.000000 0.045648 0.000000 0.000000
# 5 0.000000 0.000000 0.000000 0.000000 0.075887 0.000000
# 6 0.000000 0.000000 0.000000 0.000000 0.000000 0.033784
#
#
# Mechanical properties :
#
#
# Convention : Reuss Voigt Hill
#
# Bulk Modulus (GPa) = 27.87585 44.66081 36.26833
# Shear Modulus (GPa) = 20.59903 24.95615 22.77759
#
# Velocity S-wave (km/s) = 3.18575 3.50653 3.34998
# Velocity P-wave (km/s) = 5.22171 6.19664 5.72995
#
# Compressibility (1/GPa) = 0.03587334
#
# Stress axis : x y z
#
# Youngs Moduli (GPa) = 65.74309 95.38255 33.36873
#
# Poissons Ratio (x) = 0.49689 -0.07606
# Poissons Ratio (y) = 0.34248 0.23241
# Poissons Ratio (z) = -0.14986 0.66433
#
# Static dielectric constant tensor:
#      x y z
#    x 1.733720 0.000000 0.000000 
#    y 0.000000 1.763520 0.000000 
#    z 0.000000 0.000000 1.753090 
# 
# From -- ./inp_files/21499.got.cif
#   From: 2010.05.17/outbox.cif.g08.bks.cpg/sg20_11_cif.got.tgz:21499.got - 2010.06.03 22:52:26.
