data_PCOD9319354
_publ_section_title
;
Structure prediction by ZEFSAII (Michael W. Deem and Ramdas Pophale) SiO2 
 PCOD9319354
Probable space group: C 2 2 21
;
_chemical_formula_sum "Si O2"
_cell_formula_units_Z 48
_cell_length_a 8.680835
_cell_length_b 27.812962
_cell_length_c 9.339024
_cell_angle_alpha 90.000000
_cell_angle_beta 90.000000
_cell_angle_gamma 90.000000
_cell_volume 2254.811470
_symmetry_space_group_name_H-M "C 2 2 21"
_symmetry_group_IT_number 20
_symmetry_cell_setting 'orthorhombic'
loop_
_space_group_symop_operation_xyz
x,y,z
-x,-y,1/2+z
x,-y,-z
-x,y,1/2-z
1/2+x,1/2+y,z
1/2-x,1/2-y,1/2+z
1/2+x,1/2-y,-z
1/2-x,1/2+y,1/2-z
loop_
_atom_site_type_symbol
_atom_site_label
_atom_site_fract_x
_atom_site_fract_y
_atom_site_fract_z
Si Si1 0.790851 0.875249 0.821759
Si Si2 0.000000 0.078864 0.750000
Si Si3 0.000000 0.380992 0.250000
Si Si4 0.884249 0.281831 0.634647
Si Si5 0.286427 0.948883 0.436460
Si Si6 0.902451 0.138269 0.468945
Si Si7 0.649537 0.797028 0.417839
O O1 0.655865 0.836512 0.825669
O O2 0.828516 0.892227 0.661223
O O3 0.933810 0.848459 0.900316
O O4 0.763874 0.919602 0.924058
O O5 0.140926 0.049858 0.674765
O O6 0.933146 0.111576 0.619197
O O7 0.083227 0.416150 0.138146
O O8 0.120156 0.343082 0.317311
O O9 0.730560 0.250328 0.640963
O O10 0.000000 0.259586 0.750000
O O11 0.986810 0.284815 0.491077
O O12 0.335961 0.000000 0.500000
O O13 0.785731 0.182575 0.481033
#
# Coordination Sequence:
#
# PCOD9319354 Si02
#       7
#     8   4   4   8   8   8   8
#     4  10  22  44  68 101 143 180 232 301 352 430
#     4  10  22  42  74 105 139 178 230 292 372 432
#     4  12  26  48  70 105 147 194 236 312 362 438
#     4  12  26  41  65 100 137 188 239 289 358 438
#     4  11  25  48  74 106 140 186 241 302 370 437
#     4  10  21  41  70  98 138 185 228 285 363 424
#     4  12  26  42  69  99 143 188 241 290 363 435
#
# _framework density 21.28781
#
# number of rings (size 3 to 8) (size 9 to 14) (size 15 to 20)
#    0.000    1.000    5.000    1.000    3.500    4.000 
#    4.500    0.833    0.000    0.000    0.000    0.000 
#    0.000    0.000    0.000    0.000    0.000    0.000 
#
# Total GULP energy -133803.352212 kJ/mol
# GULP energy per Si atom -5575.139675 kJ/mol
# Density = 2.123936 g / cm^3
# Si number density = 21.287810 Si / 1000 Ang^3
#
#
#
# Elastic Constant Matrix: (Units=GPa)
#
#
# Indices 1 2 3 4 5 6 
#
# 1 74.5399 40.2959 26.5630 0.0000 0.0000 0.0000
# 2 40.2959 106.3544 45.8329 0.0000 0.0000 0.0000
# 3 26.5630 45.8329 123.4877 0.0000 0.0000 0.0000
# 4 0.0000 0.0000 0.0000 2.0749 0.0000 0.0000
# 5 0.0000 0.0000 0.0000 0.0000 27.8695 0.0000
# 6 0.0000 0.0000 0.0000 0.0000 0.0000 13.4512
#
#
#
# Elastic Compliance Matrix: (Units=1/GPa)
#
#
# Indices 1 2 3 4 5 6 
#
# 1 0.017107 -0.005828 -0.001517 0.000000 0.000000 0.000000
# 2 -0.005828 0.013178 -0.003638 0.000000 0.000000 0.000000
# 3 -0.001517 -0.003638 0.009774 0.000000 0.000000 0.000000
# 4 0.000000 0.000000 0.000000 0.481962 0.000000 0.000000
# 5 0.000000 0.000000 0.000000 0.000000 0.035882 0.000000
# 6 0.000000 0.000000 0.000000 0.000000 0.000000 0.074343
#
#
# Mechanical properties :
#
#
# Convention : Reuss Voigt Hill
#
# Bulk Modulus (GPa) = 55.26393 58.86285 57.06339
# Shear Modulus (GPa) = 7.57299 21.45844 14.51571
#
# Velocity S-wave (km/s) = 1.88816 3.17837 2.61411
# Velocity P-wave (km/s) = 5.54709 6.41719 5.99794
#
# Compressibility (1/GPa) = 0.01809498
#
# Stress axis : x y z
#
# Youngs Moduli (GPa) = 58.45695 75.88320 102.30894
#
# Poissons Ratio (x) = 0.44223 0.15518
# Poissons Ratio (y) = 0.34067 0.37215
# Poissons Ratio (z) = 0.08866 0.27603
#
# Static dielectric constant tensor:
#      x y z
#    x 1.878090 0.000000 0.000000 
#    y 0.000000 1.743430 0.000000 
#    z 0.000000 0.000000 1.851290 
# 
# From -- ./inp_files/6585.got.cif
#   From: 2010.05.17/outbox.cif.g08.bks.cpg/sg20_4_cif.got.tgz:6585.got - 2010.06.03 22:52:26.
