data_PCOD9319357
_publ_section_title
;
Structure prediction by ZEFSAII (Michael W. Deem and Ramdas Pophale) SiO2 
 PCOD9319357
Probable space group: C 2 2 21
;
_chemical_formula_sum "Si O2"
_cell_formula_units_Z 60
_cell_length_a 8.884542
_cell_length_b 16.346084
_cell_length_c 16.835579
_cell_angle_alpha 90.000000
_cell_angle_beta 90.000000
_cell_angle_gamma 90.000000
_cell_volume 2444.988541
_symmetry_space_group_name_H-M "C 2 2 21"
_symmetry_group_IT_number 20
_symmetry_cell_setting 'orthorhombic'
loop_
_space_group_symop_operation_xyz
x,y,z
-x,-y,1/2+z
x,-y,-z
-x,y,1/2-z
1/2+x,1/2+y,z
1/2-x,1/2-y,1/2+z
1/2+x,1/2-y,-z
1/2-x,1/2+y,1/2-z
loop_
_atom_site_type_symbol
_atom_site_label
_atom_site_fract_x
_atom_site_fract_y
_atom_site_fract_z
Si Si1 0.500000 0.684181 0.750000
Si Si2 0.326560 0.030652 0.245882
Si Si3 0.827318 0.033907 0.583284
Si Si4 0.861539 0.051287 0.094355
Si Si5 0.109413 0.342350 0.955150
Si Si6 0.031878 0.773579 0.897064
Si Si7 0.745705 0.196799 0.644454
Si Si8 0.360752 0.819016 0.845281
O O1 0.338448 0.656575 0.717808
O O2 0.449443 0.737083 0.824997
O O3 0.500000 0.998909 0.250000
O O4 0.243066 0.003906 0.164203
O O5 0.226591 0.023688 0.325248
O O6 0.340949 0.128786 0.234104
O O7 0.008779 0.018060 0.583483
O O8 0.771352 0.000000 0.500000
O O9 0.776328 0.127317 0.580494
O O10 0.727764 0.083019 0.034584
O O11 0.963125 0.134451 0.097741
O O12 0.199617 0.279742 0.898020
O O13 0.962955 0.369696 0.905890
O O14 0.047856 0.286102 0.026434
O O15 0.200591 0.791411 0.873338
O O16 0.926100 0.720142 0.838758
#
# Coordination Sequence:
#
# PCOD9319357 Si02
#       8
#     4   8   8   8   8   8   8   8
#     4  10  22  40  62  92 136 174 224 304 362 430
#     4  12  24  45  73 102 142 194 260 316 373 465
#     4  12  28  46  70 103 150 197 254 313 389 461
#     4  11  23  42  73 105 137 201 253 299 382 468
#     4  10  21  41  71 105 142 178 243 308 374 452
#     4  11  22  37  70 106 140 180 241 307 378 446
#     4  10  24  42  63  99 142 183 234 298 385 435
#     4  11  19  38  69  99 135 173 232 307 364 430
#
# _framework density 24.539992000000002
#
# number of rings (size 3 to 8) (size 9 to 14) (size 15 to 20)
#    0.000    1.067    3.333    4.400    3.733    2.667 
#    2.400    2.000    0.000    0.000    0.000    0.000 
#    0.000    0.000    0.000    0.000    0.000    0.000 
#
# Total GULP energy -167107.680847 kJ/mol
# GULP energy per Si atom -5570.256028 kJ/mol
# Density = 2.448414 g / cm^3
# Si number density = 24.539992 Si / 1000 Ang^3
#
#
#
# Elastic Constant Matrix: (Units=GPa)
#
#
# Indices 1 2 3 4 5 6 
#
# 1 147.9206 29.0834 31.3964 0.0000 0.0000 0.0000
# 2 29.0834 70.3449 4.4813 0.0000 0.0000 0.0000
# 3 31.3964 4.4813 69.8703 0.0000 0.0000 0.0000
# 4 0.0000 0.0000 0.0000 36.1806 0.0000 0.0000
# 5 0.0000 0.0000 0.0000 0.0000 28.7973 0.0000
# 6 0.0000 0.0000 0.0000 0.0000 0.0000 21.1814
#
#
#
# Elastic Compliance Matrix: (Units=1/GPa)
#
#
# Indices 1 2 3 4 5 6 
#
# 1 0.008107 -0.003132 -0.003442 0.000000 0.000000 0.000000
# 2 -0.003132 0.015484 0.000414 0.000000 0.000000 0.000000
# 3 -0.003442 0.000414 0.015832 0.000000 0.000000 0.000000
# 4 0.000000 0.000000 0.000000 0.027639 0.000000 0.000000
# 5 0.000000 0.000000 0.000000 0.000000 0.034725 0.000000
# 6 0.000000 0.000000 0.000000 0.000000 0.000000 0.047211
#
#
# Mechanical properties :
#
#
# Convention : Reuss Voigt Hill
#
# Bulk Modulus (GPa) = 36.89540 46.45088 41.67314
# Shear Modulus (GPa) = 29.35074 32.11019 30.73046
#
# Velocity S-wave (km/s) = 3.46213 3.62122 3.54257
# Velocity P-wave (km/s) = 5.57218 6.03772 5.80962
#
# Compressibility (1/GPa) = 0.02710365
#
# Stress axis : x y z
#
# Youngs Moduli (GPa) = 123.35298 64.58137 63.16210
#
# Poissons Ratio (x) = 0.20230 0.21740
# Poissons Ratio (y) = 0.38639 -0.02618
# Poissons Ratio (z) = 0.42457 -0.02676
#
# Static dielectric constant tensor:
#      x y z
#    x 2.145510 0.000000 0.000000 
#    y 0.000000 2.043780 0.000000 
#    z 0.000000 0.000000 2.061730 
# 
# From -- ./inp_files/23763.got.cif
#   From: 2010.05.17/outbox.cif.g08.bks.cpg/sg20_12_cif.got.tgz:23763.got - 2010.06.03 22:52:26.
