data_PCOD9319004
_publ_section_title
;
Structure prediction by ZEFSAII (Michael W. Deem and Ramdas Pophale) SiO2 
 PCOD9319004
Probable space group: C 2 2 21
;
_chemical_formula_sum "Si O2"
_cell_formula_units_Z 40
_cell_length_a 8.272559
_cell_length_b 25.230415
_cell_length_c 8.670163
_cell_angle_alpha 90.000000
_cell_angle_beta 90.000000
_cell_angle_gamma 90.000000
_cell_volume 1809.637260
_symmetry_space_group_name_H-M "C 2 2 21"
_symmetry_group_IT_number 20
_symmetry_cell_setting 'orthorhombic'
loop_
_space_group_symop_operation_xyz
x,y,z
-x,-y,1/2+z
x,-y,-z
-x,y,1/2-z
1/2+x,1/2+y,z
1/2-x,1/2-y,1/2+z
1/2+x,1/2-y,-z
1/2-x,1/2+y,1/2-z
loop_
_atom_site_type_symbol
_atom_site_label
_atom_site_fract_x
_atom_site_fract_y
_atom_site_fract_z
Si Si1 0.118850 0.794809 0.627635
Si Si2 0.679588 0.117234 0.678725
Si Si3 0.381282 0.287250 0.366729
Si Si4 0.814340 0.385466 0.805049
Si Si5 0.318068 0.001539 0.814872
O O1 0.250316 0.753211 0.567767
O O2 0.208707 0.842007 0.716489
O O3 0.000000 0.766456 0.750000
O O4 0.996206 0.811931 0.495491
O O5 0.500000 0.121612 0.750000
O O6 0.789330 0.166556 0.724211
O O7 0.678114 0.120483 0.491118
O O8 0.749437 0.059535 0.726670
O O9 0.500000 0.256957 0.250000
O O10 0.747841 0.444754 0.766521
O O11 0.000000 0.382454 0.750000
O O12 0.500000 0.001997 0.750000
O O13 0.326036 0.000000 0.000000
#
# Coordination Sequence:
#
# PCOD9319004 Si02
#       5
#     8   8   8   8   8
#     4  12  25  45  65  94 131 172 224 271 334 396
#     4  10  21  40  67  96 133 169 214 271 324 385
#     4  12  27  42  64  92 130 172 219 277 332 390
#     4  10  21  38  69  98 129 172 218 266 321 391
#     4   8  16  34  61  96 127 165 213 258 313 388
#
# _framework density 22.103877000000001
#
# number of rings (size 3 to 8) (size 9 to 14) (size 15 to 20)
#    0.000    1.600    2.000    2.400    5.600    0.000 
#    0.000    1.000    0.000    0.000    0.000    0.000 
#    0.000    0.000    0.000    0.000    0.000    0.000 
#
# Total GULP energy -111603.782489 kJ/mol
# GULP energy per Si atom -5580.189124 kJ/mol
# Density = 2.205357 g / cm^3
# Si number density = 22.103877 Si / 1000 Ang^3
#
#
#
# Elastic Constant Matrix: (Units=GPa)
#
#
# Indices 1 2 3 4 5 6 
#
# 1 95.9427 62.8722 35.2183 0.0000 0.0000 0.0000
# 2 62.8722 156.2477 27.8016 0.0000 0.0000 0.0000
# 3 35.2183 27.8016 43.1029 0.0000 0.0000 0.0000
# 4 0.0000 0.0000 0.0000 22.1300 0.0000 0.0000
# 5 0.0000 0.0000 0.0000 0.0000 41.9425 0.0000
# 6 0.0000 0.0000 0.0000 0.0000 0.0000 24.4743
#
#
#
# Elastic Compliance Matrix: (Units=1/GPa)
#
#
# Indices 1 2 3 4 5 6 
#
# 1 0.018015 -0.005230 -0.011346 0.000000 0.000000 0.000000
# 2 -0.005230 0.008748 -0.001369 0.000000 0.000000 0.000000
# 3 -0.011346 -0.001369 0.033354 0.000000 0.000000 0.000000
# 4 0.000000 0.000000 0.000000 0.045187 0.000000 0.000000
# 5 0.000000 0.000000 0.000000 0.000000 0.023842 0.000000
# 6 0.000000 0.000000 0.000000 0.000000 0.000000 0.040859
#
#
# Mechanical properties :
#
#
# Convention : Reuss Voigt Hill
#
# Bulk Modulus (GPa) = 41.27744 60.78638 51.03191
# Shear Modulus (GPa) = 23.36737 29.00277 26.18507
#
# Velocity S-wave (km/s) = 3.25493 3.62624 3.44559
# Velocity P-wave (km/s) = 5.73070 6.71512 6.24235
#
# Compressibility (1/GPa) = 0.02422631
#
# Stress axis : x y z
#
# Youngs Moduli (GPa) = 55.50837 114.30772 29.98123
#
# Poissons Ratio (x) = 0.59786 0.34018
# Poissons Ratio (y) = 0.29032 0.04105
# Poissons Ratio (z) = 0.62981 0.15651
#
# Static dielectric constant tensor:
#      x y z
#    x 1.775450 0.000000 0.000000 
#    y 0.000000 1.847770 0.000000 
#    z 0.000000 0.000000 1.861620 
# 
# From -- ./inp_files/6042.got.cif
#   From: 2010.05.17/outbox.cif.g08.bks.cpg/sg20_4_cif.got.tgz:6042.got - 2010.06.03 22:52:26.
