data_PCOD9319911
_publ_section_title
;
Structure prediction by ZEFSAII (Michael W. Deem and Ramdas Pophale) SiO2 
 PCOD9319911
Probable space group: C 2 2 21
;
_chemical_formula_sum "Si O2"
_cell_formula_units_Z 56
_cell_length_a 16.844878
_cell_length_b 6.169820
_cell_length_c 25.837849
_cell_angle_alpha 90.000000
_cell_angle_beta 90.000000
_cell_angle_gamma 90.000000
_cell_volume 2685.324163
_symmetry_space_group_name_H-M "C 2 2 21"
_symmetry_group_IT_number 20
_symmetry_cell_setting 'orthorhombic'
loop_
_space_group_symop_operation_xyz
x,y,z
-x,-y,1/2+z
x,-y,-z
-x,y,1/2-z
1/2+x,1/2+y,z
1/2-x,1/2-y,1/2+z
1/2+x,1/2-y,-z
1/2-x,1/2+y,1/2-z
loop_
_atom_site_type_symbol
_atom_site_label
_atom_site_fract_x
_atom_site_fract_y
_atom_site_fract_z
Si Si1 0.914411 0.633656 0.800639
Si Si2 0.572446 0.351591 0.811755
Si Si3 0.505076 0.238267 0.145149
Si Si4 0.101952 0.040382 0.556218
Si Si5 0.244216 0.840445 0.952787
Si Si6 0.211358 0.276086 0.381326
Si Si7 0.645596 0.947005 0.108683
O O1 0.912638 0.729959 0.742709
O O2 0.831447 0.674730 0.827665
O O3 0.983353 0.777582 0.826482
O O4 0.947299 0.394112 0.815356
O O5 0.562186 0.607619 0.819758
O O6 0.633780 0.246352 0.850633
O O7 0.453457 0.357646 0.100846
O O8 0.564780 0.081550 0.113555
O O9 0.174734 0.203996 0.543479
O O10 0.062396 0.000000 0.500000
O O11 0.144958 0.828501 0.580409
O O12 0.172707 0.672451 0.943577
O O13 0.256827 0.002960 0.905152
O O14 0.230141 0.000000 0.000000
O O15 0.281652 0.103266 0.377022
#
# Coordination Sequence:
#
# PCOD9319911 Si02
#       7
#     8   8   8   8   8   8   8
#     4  10  22  40  72  97 125 180 229 273 345 395
#     4  10  22  43  64 100 132 178 221 279 344 403
#     4  11  22  45  69  98 143 170 225 288 339 412
#     4  11  22  39  72 100 126 176 227 282 331 398
#     4  11  22  42  72  93 133 179 226 275 336 402
#     4  11  21  43  66  97 127 172 225 278 326 401
#     4  10  25  42  63  99 139 175 215 275 342 407
#
# _framework density 20.854092999999999
#
# number of rings (size 3 to 8) (size 9 to 14) (size 15 to 20)
#    0.000    1.429    4.286    0.857    0.000    4.571 
#    5.143    4.286    3.143    0.000    0.000    0.000 
#    0.000    0.000    0.000    0.000    0.000    0.000 
#
# Total GULP energy -156070.515174 kJ/mol
# GULP energy per Si atom -5573.946971 kJ/mol
# Density = 2.080663 g / cm^3
# Si number density = 20.854093 Si / 1000 Ang^3
#
#
#
# Elastic Constant Matrix: (Units=GPa)
#
#
# Indices 1 2 3 4 5 6 
#
# 1 46.7619 14.7013 35.1618 0.0000 0.0000 0.0000
# 2 14.7013 83.7438 39.6596 0.0000 0.0000 0.0000
# 3 35.1618 39.6596 101.2305 0.0000 0.0000 0.0000
# 4 0.0000 0.0000 0.0000 35.4645 0.0000 0.0000
# 5 0.0000 0.0000 0.0000 0.0000 20.6563 0.0000
# 6 0.0000 0.0000 0.0000 0.0000 0.0000 -236.8266
#
#
#
# Elastic Compliance Matrix: (Units=1/GPa)
#
#
# Indices 1 2 3 4 5 6 
#
# 1 0.028955 -0.000393 -0.009903 0.000000 0.000000 0.000000
# 2 -0.000393 0.014667 -0.005610 0.000000 0.000000 0.000000
# 3 -0.009903 -0.005610 0.015516 0.000000 0.000000 0.000000
# 4 0.000000 0.000000 0.000000 0.028197 0.000000 0.000000
# 5 0.000000 0.000000 0.000000 0.000000 0.048411 0.000000
# 6 0.000000 0.000000 0.000000 0.000000 0.000000 -0.004222
#
#
# Mechanical properties :
#
#
# Convention : Reuss Voigt Hill
#
# Bulk Modulus (GPa) = 36.59524 45.64242 41.11883
# Shear Modulus (GPa) = 28.99478 -26.66026 1.16726
#
# Velocity S-wave (km/s) = 3.73280 -3.57938 0.74896
# Velocity P-wave (km/s) = 6.01371 2.20261 4.52859
#
# Compressibility (1/GPa) = 0.02732596
#
# Stress axis : x y z
#
# Youngs Moduli (GPa) = 34.53608 68.18131 64.44937
#
# Poissons Ratio (x) = 0.02680 0.63827
# Poissons Ratio (y) = 0.01357 0.36153
# Poissons Ratio (z) = 0.34203 0.38247
#
# Static dielectric constant tensor:
#      x y z
#    x 1.732590 0.000000 0.000000 
#    y 0.000000 1.814500 0.000000 
#    z 0.000000 0.000000 1.958290 
# 
# From -- ./inp_files/31281.got.cif
#   From: 2010.05.17/outbox.cif.g08.bks.cpg/sg20_16_cif.got.tgz:31281.got - 2010.06.03 22:52:26.
