data_PCOD9319601
_publ_section_title
;
Structure prediction by ZEFSAII (Michael W. Deem and Ramdas Pophale) SiO2 
 PCOD9319601
Probable space group: C 2 2 21
;
_chemical_formula_sum "Si O2"
_cell_formula_units_Z 36
_cell_length_a 17.133412
_cell_length_b 20.010670
_cell_length_c 5.283822
_cell_angle_alpha 90.000000
_cell_angle_beta 90.000000
_cell_angle_gamma 90.000000
_cell_volume 1811.563939
_symmetry_space_group_name_H-M "C 2 2 21"
_symmetry_group_IT_number 20
_symmetry_cell_setting 'orthorhombic'
loop_
_space_group_symop_operation_xyz
x,y,z
-x,-y,1/2+z
x,-y,-z
-x,y,1/2-z
1/2+x,1/2+y,z
1/2-x,1/2-y,1/2+z
1/2+x,1/2-y,-z
1/2-x,1/2+y,1/2-z
loop_
_atom_site_type_symbol
_atom_site_label
_atom_site_fract_x
_atom_site_fract_y
_atom_site_fract_z
Si Si1 0.500000 0.272087 0.250000
Si Si2 0.500000 0.955834 0.750000
Si Si3 0.800996 0.747394 0.821506
Si Si4 0.085329 0.857168 0.882034
Si Si5 0.431799 0.847647 0.061865
Si Si6 0.446169 0.500000 0.500000
O O1 0.432027 0.317440 0.360624
O O2 0.534427 0.221486 0.452730
O O3 0.568368 0.904638 0.654392
O O4 0.480834 0.000000 0.500000
O O5 0.739661 0.747218 0.592694
O O6 0.854279 0.812670 0.770720
O O7 0.852163 0.678699 0.815668
O O8 0.000000 0.858441 0.750000
O O9 0.103419 0.934019 0.938163
O O10 0.500000 0.870478 0.250000
O O11 0.500000 0.486350 0.250000
#
# Coordination Sequence:
#
# PCOD9319601 Si02
#       6
#     4   4   8   8   8   4
#     4  11  16  34  66  94 127 158 212 272 325 352
#     4  11  24  40  70 104 125 162 220 290 337 394
#     4  12  26  39  63 100 136 173 214 270 331 384
#     4  11  21  38  63  95 130 169 214 268 317 380
#     4  11  22  39  68  97 131 167 223 277 328 380
#     4  10  22  34  62  98 124 164 212 262 310 380
#
# _framework density 19.872332
#
# number of rings (size 3 to 8) (size 9 to 14) (size 15 to 20)
#    0.000    0.889    6.667    1.333    3.111    0.000 
#    0.000    0.000    2.444    0.000   11.556    0.000 
#    0.000    0.000    0.000    0.000    0.000    0.000 
#
# Total GULP energy -100370.800765 kJ/mol
# GULP energy per Si atom -5576.155598 kJ/mol
# Density = 1.982710 g / cm^3
# Si number density = 19.872332 Si / 1000 Ang^3
#
#
#
# Elastic Constant Matrix: (Units=GPa)
#
#
# Indices 1 2 3 4 5 6 
#
# 1 59.9896 32.2320 20.0127 0.0000 0.0000 0.0000
# 2 32.2320 160.6193 36.3251 0.0000 0.0000 0.0000
# 3 20.0127 36.3251 90.0834 0.0000 0.0000 0.0000
# 4 0.0000 0.0000 0.0000 37.7118 0.0000 0.0000
# 5 0.0000 0.0000 0.0000 0.0000 39.3567 0.0000
# 6 0.0000 0.0000 0.0000 0.0000 0.0000 7.5162
#
#
#
# Elastic Compliance Matrix: (Units=1/GPa)
#
#
# Indices 1 2 3 4 5 6 
#
# 1 0.019401 -0.003211 -0.003015 0.000000 0.000000 0.000000
# 2 -0.003211 0.007382 -0.002263 0.000000 0.000000 0.000000
# 3 -0.003015 -0.002263 0.012683 0.000000 0.000000 0.000000
# 4 0.000000 0.000000 0.000000 0.026517 0.000000 0.000000
# 5 0.000000 0.000000 0.000000 0.000000 0.025409 0.000000
# 6 0.000000 0.000000 0.000000 0.000000 0.000000 0.133046
#
#
# Mechanical properties :
#
#
# Convention : Reuss Voigt Hill
#
# Bulk Modulus (GPa) = 44.47067 54.20357 49.33712
# Shear Modulus (GPa) = 20.08733 31.72511 25.90622
#
# Velocity S-wave (km/s) = 3.18279 3.99989 3.61450
# Velocity P-wave (km/s) = 5.99446 6.97619 6.50388
#
# Compressibility (1/GPa) = 0.02248673
#
# Stress axis : x y z
#
# Youngs Moduli (GPa) = 51.54417 135.46083 78.84368
#
# Poissons Ratio (x) = 0.43501 0.23772
# Poissons Ratio (y) = 0.16553 0.17845
# Poissons Ratio (z) = 0.15541 0.30660
#
# Static dielectric constant tensor:
#      x y z
#    x 1.753200 0.000000 0.000000 
#    y 0.000000 1.717350 0.000000 
#    z 0.000000 0.000000 1.811470 
# 
# From -- ./inp_files/1782.got.cif
#   From: 2010.05.17/outbox.cif.g08.bks.cpg/sg20_1_cif.got.tgz:1782.got - 2010.06.03 22:52:26.
