data_PCOD9319900
_publ_section_title
;
Structure prediction by ZEFSAII (Michael W. Deem and Ramdas Pophale) SiO2 
 PCOD9319900
Probable space group: C 2 2 21
;
_chemical_formula_sum "Si O2"
_cell_formula_units_Z 40
_cell_length_a 9.613074
_cell_length_b 22.916927
_cell_length_c 8.037995
_cell_angle_alpha 90.000000
_cell_angle_beta 90.000000
_cell_angle_gamma 90.000000
_cell_volume 1770.787300
_symmetry_space_group_name_H-M "C 2 2 21"
_symmetry_group_IT_number 20
_symmetry_cell_setting 'orthorhombic'
loop_
_space_group_symop_operation_xyz
x,y,z
-x,-y,1/2+z
x,-y,-z
-x,y,1/2-z
1/2+x,1/2+y,z
1/2-x,1/2-y,1/2+z
1/2+x,1/2-y,-z
1/2-x,1/2+y,1/2-z
loop_
_atom_site_type_symbol
_atom_site_label
_atom_site_fract_x
_atom_site_fract_y
_atom_site_fract_z
Si Si1 0.279564 0.500000 0.500000
Si Si2 0.698572 0.870963 0.560649
Si Si3 0.500000 0.525575 0.250000
Si Si4 0.570684 0.707229 0.929617
Si Si5 0.160959 0.872680 0.583647
Si Si6 0.920996 0.331416 0.425902
O O1 0.199338 0.440236 0.529115
O O2 0.380367 0.490871 0.341929
O O3 0.797702 0.836477 0.430944
O O4 0.767747 0.859829 0.739341
O O5 0.542773 0.849239 0.551922
O O6 0.425687 0.568132 0.115079
O O7 0.500000 0.717471 0.750000
O O8 0.450144 0.676122 0.035867
O O9 0.619282 0.765922 0.021384
O O10 0.286092 0.871791 0.451182
O O11 0.000000 0.334069 0.250000
#
# Coordination Sequence:
#
# PCOD9319900 Si02
#       6
#     4   8   4   8   8   8
#     4  10  22  40  70  92 134 168 222 274 324 396
#     4  11  23  43  65  98 133 174 220 271 338 393
#     4  10  22  42  70  98 126 180 222 280 320 398
#     4  12  23  40  67  98 132 177 224 273 330 404
#     4  11  21  44  65  94 133 174 222 273 325 396
#     4  12  26  41  64  98 138 177 219 278 340 399
#
# _framework density 22.588823999999999
#
# number of rings (size 3 to 8) (size 9 to 14) (size 15 to 20)
#    0.000    0.800    4.000    5.400    1.400    1.600 
#    0.000    5.000    0.000    0.000    0.000    0.000 
#    0.000    0.000    0.000    0.000    0.000    0.000 
#
# Total GULP energy -111915.363913 kJ/mol
# GULP energy per Si atom -5595.768196 kJ/mol
# Density = 2.253741 g / cm^3
# Si number density = 22.588824 Si / 1000 Ang^3
#
#
#
# Elastic Constant Matrix: (Units=GPa)
#
#
# Indices 1 2 3 4 5 6 
#
# 1 104.5537 30.9061 2.5263 0.0000 0.0000 0.0000
# 2 30.9061 70.7342 20.1861 0.0000 0.0000 0.0000
# 3 2.5263 20.1861 84.4662 0.0000 0.0000 0.0000
# 4 0.0000 0.0000 0.0000 16.4798 0.0000 0.0000
# 5 0.0000 0.0000 0.0000 0.0000 36.2766 0.0000
# 6 0.0000 0.0000 0.0000 0.0000 0.0000 -10.1158
#
#
#
# Elastic Compliance Matrix: (Units=1/GPa)
#
#
# Indices 1 2 3 4 5 6 
#
# 1 0.011044 -0.005078 0.000883 0.000000 0.000000 0.000000
# 2 -0.005078 0.017507 -0.004032 0.000000 0.000000 0.000000
# 3 0.000883 -0.004032 0.012776 0.000000 0.000000 0.000000
# 4 0.000000 0.000000 0.000000 0.060680 0.000000 0.000000
# 5 0.000000 0.000000 0.000000 0.000000 0.027566 0.000000
# 6 0.000000 0.000000 0.000000 0.000000 0.000000 -0.098855
#
#
# Mechanical properties :
#
#
# Convention : Reuss Voigt Hill
#
# Bulk Modulus (GPa) = 40.20232 40.77678 40.48955
# Shear Modulus (GPa) = 90.15187 22.27050 56.21119
#
# Velocity S-wave (km/s) = 6.32429 3.14332 4.99385
# Velocity P-wave (km/s) = 8.43593 5.59150 7.15646
#
# Compressibility (1/GPa) = 0.02487419
#
# Stress axis : x y z
#
# Youngs Moduli (GPa) = 90.54649 57.12131 78.27051
#
# Poissons Ratio (x) = 0.29004 -0.06912
# Poissons Ratio (y) = 0.45975 0.31558
# Poissons Ratio (z) = -0.07996 0.23031
#
# Static dielectric constant tensor:
#      x y z
#    x 1.801810 0.000000 0.000000 
#    y 0.000000 1.788710 0.000000 
#    z 0.000000 0.000000 1.914310 
# 
# From -- ./inp_files/6155.got.cif
#   From: 2010.05.17/outbox.cif.g08.bks.cpg/sg20_4_cif.got.tgz:6155.got - 2010.06.03 22:52:26.
