data_PCOD9319170
_publ_section_title
;
Structure prediction by ZEFSAII (Michael W. Deem and Ramdas Pophale) SiO2 
 PCOD9319170
Probable space group: C 2 2 21
;
_chemical_formula_sum "Si O2"
_cell_formula_units_Z 24
_cell_length_a 21.836107
_cell_length_b 5.384114
_cell_length_c 7.852928
_cell_angle_alpha 90.000000
_cell_angle_beta 90.000000
_cell_angle_gamma 90.000000
_cell_volume 923.253741
_symmetry_space_group_name_H-M "C 2 2 21"
_symmetry_group_IT_number 20
_symmetry_cell_setting 'orthorhombic'
loop_
_space_group_symop_operation_xyz
x,y,z
-x,-y,1/2+z
x,-y,-z
-x,y,1/2-z
1/2+x,1/2+y,z
1/2-x,1/2-y,1/2+z
1/2+x,1/2-y,-z
1/2-x,1/2+y,1/2-z
loop_
_atom_site_type_symbol
_atom_site_label
_atom_site_fract_x
_atom_site_fract_y
_atom_site_fract_z
Si Si1 0.019879 0.746418 0.949187
Si Si2 0.719908 0.621718 0.815794
Si Si3 0.886058 0.747701 0.095988
O O1 0.000000 0.748735 0.750000
O O2 0.055367 0.500000 0.000000
O O3 0.959833 0.736764 0.074638
O O4 0.051467 0.000000 0.000000
O O5 0.741383 0.379022 0.704265
O O6 0.652116 0.716661 0.765385
O O7 0.721835 0.500000 0.000000
O O8 0.864428 0.500000 0.000000
O O9 0.871688 0.000000 0.000000
#
# Coordination Sequence:
#
# PCOD9319170 Si02
#       3
#     8   8   8
#     4  10  21  40  66  94 128 169 213 268 327 386
#     4  12  24  40  65  93 129 174 218 267 324 384
#     4  10  21  40  62  91 130 167 213 267 318 386
#
# _framework density 25.995018000000002
#
# number of rings (size 3 to 8) (size 9 to 14) (size 15 to 20)
#    0.000    1.333    0.000    7.000    0.000    0.000 
#    0.000   20.000    0.000    8.000    0.000    0.000 
#    0.000    0.000    0.000    0.000    0.000    0.000 
#
# Total GULP energy -67029.590916 kJ/mol
# GULP energy per Si atom -5585.799243 kJ/mol
# Density = 2.593585 g / cm^3
# Si number density = 25.995018 Si / 1000 Ang^3
#
#
#
# Elastic Constant Matrix: (Units=GPa)
#
#
# Indices 1 2 3 4 5 6 
#
# 1 120.6475 35.1215 49.4080 0.0000 0.0000 0.0000
# 2 35.1215 284.4588 67.5932 0.0000 0.0000 0.0000
# 3 49.4080 67.5932 119.4807 0.0000 0.0000 0.0000
# 4 0.0000 0.0000 0.0000 54.5999 0.0000 0.0000
# 5 0.0000 0.0000 0.0000 0.0000 63.5305 0.0000
# 6 0.0000 0.0000 0.0000 0.0000 0.0000 63.7750
#
#
#
# Elastic Compliance Matrix: (Units=1/GPa)
#
#
# Indices 1 2 3 4 5 6 
#
# 1 0.009999 -0.000291 -0.003970 0.000000 0.000000 0.000000
# 2 -0.000291 0.004070 -0.002182 0.000000 0.000000 0.000000
# 3 -0.003970 -0.002182 0.011246 0.000000 0.000000 0.000000
# 4 0.000000 0.000000 0.000000 0.018315 0.000000 0.000000
# 5 0.000000 0.000000 0.000000 0.000000 0.015740 0.000000
# 6 0.000000 0.000000 0.000000 0.000000 0.000000 0.015680
#
#
# Mechanical properties :
#
#
# Convention : Reuss Voigt Hill
#
# Bulk Modulus (GPa) = 80.46293 92.09252 86.27772
# Shear Modulus (GPa) = 54.30055 61.21201 57.75628
#
# Velocity S-wave (km/s) = 4.57539 4.85785 4.71873
# Velocity P-wave (km/s) = 7.67676 8.18345 7.93415
#
# Compressibility (1/GPa) = 0.01242808
#
# Stress axis : x y z
#
# Youngs Moduli (GPa) = 100.00733 245.70665 88.92252
#
# Poissons Ratio (x) = 0.07155 0.35304
# Poissons Ratio (y) = 0.02912 0.19403
# Poissons Ratio (z) = 0.39705 0.53614
#
# Static dielectric constant tensor:
#      x y z
#    x 2.073430 0.000000 0.000000 
#    y 0.000000 2.120690 0.000000 
#    z 0.000000 0.000000 2.133000 
# 
# From -- ./inp_files/4957.got.cif
#   From: 2010.05.17/outbox.cif.g08.bks.cpg/sg20_3_cif.got.tgz:4957.got - 2010.06.03 22:52:26.
