data_PCOD9319286
_publ_section_title
;
Structure prediction by ZEFSAII (Michael W. Deem and Ramdas Pophale) SiO2 
 PCOD9319286
Probable space group: C 2 2 21
;
_chemical_formula_sum "Si O2"
_cell_formula_units_Z 40
_cell_length_a 10.701289
_cell_length_b 19.506826
_cell_length_c 8.433461
_cell_angle_alpha 90.000000
_cell_angle_beta 90.000000
_cell_angle_gamma 90.000000
_cell_volume 1760.469656
_symmetry_space_group_name_H-M "C 2 2 21"
_symmetry_group_IT_number 20
_symmetry_cell_setting 'orthorhombic'
loop_
_space_group_symop_operation_xyz
x,y,z
-x,-y,1/2+z
x,-y,-z
-x,y,1/2-z
1/2+x,1/2+y,z
1/2-x,1/2-y,1/2+z
1/2+x,1/2-y,-z
1/2-x,1/2+y,1/2-z
loop_
_atom_site_type_symbol
_atom_site_label
_atom_site_fract_x
_atom_site_fract_y
_atom_site_fract_z
Si Si1 0.512752 0.425373 0.061761
Si Si2 0.633155 0.842248 0.169614
Si Si3 0.252922 0.908592 0.613772
Si Si4 0.129516 0.811920 0.850523
Si Si5 0.359048 0.973016 0.179051
O O1 0.500000 0.426560 0.250000
O O2 0.560415 0.500000 0.000000
O O3 0.375363 0.416209 0.983785
O O4 0.592244 0.361016 0.996373
O O5 0.500000 0.831052 0.250000
O O6 0.677553 0.765791 0.126497
O O7 0.692347 0.895812 0.295101
O O8 0.639519 0.884945 0.006643
O O9 0.230478 0.850915 0.744848
O O10 0.282247 0.977342 0.706708
O O11 0.000000 0.809944 0.750000
O O12 0.500000 0.974261 0.250000
O O13 0.358604 0.000000 0.000000
#
# Coordination Sequence:
#
# PCOD9319286 Si02
#       5
#     8   8   8   8   8
#     4  11  23  41  65  92 123 160 206 256 303 362
#     4  10  21  41  63  89 127 161 201 254 306 366
#     4  11  23  40  64  91 121 161 206 252 305 362
#     4   9  22  42  61  90 127 161 202 253 308 366
#     4  11  23  40  63  90 122 161 207 255 302 362
#
# _framework density 22.721209999999999
#
# number of rings (size 3 to 8) (size 9 to 14) (size 15 to 20)
#    0.000    1.600    0.000    6.000    0.000    7.200 
#    0.000    9.000    0.000    0.000    0.000    0.000 
#    0.000    0.000    0.000    0.000    0.000    0.000 
#
# Total GULP energy -111737.017924 kJ/mol
# GULP energy per Si atom -5586.850896 kJ/mol
# Density = 2.266950 g / cm^3
# Si number density = 22.721210 Si / 1000 Ang^3
#
#
#
# Elastic Constant Matrix: (Units=GPa)
#
#
# Indices 1 2 3 4 5 6 
#
# 1 66.5701 21.9510 46.6321 0.0000 0.0000 0.0000
# 2 21.9510 229.0437 99.3977 0.0000 0.0000 0.0000
# 3 46.6321 99.3977 187.9085 0.0000 0.0000 0.0000
# 4 0.0000 0.0000 0.0000 21.3336 0.0000 0.0000
# 5 0.0000 0.0000 0.0000 0.0000 39.1748 0.0000
# 6 0.0000 0.0000 0.0000 0.0000 0.0000 -7.5307
#
#
#
# Elastic Compliance Matrix: (Units=1/GPa)
#
#
# Indices 1 2 3 4 5 6 
#
# 1 0.018196 0.000280 -0.004664 0.000000 0.000000 0.000000
# 2 0.000280 0.005671 -0.003069 0.000000 0.000000 0.000000
# 3 -0.004664 -0.003069 0.008103 0.000000 0.000000 0.000000
# 4 0.000000 0.000000 0.000000 0.046874 0.000000 0.000000
# 5 0.000000 0.000000 0.000000 0.000000 0.025527 0.000000
# 6 0.000000 0.000000 0.000000 0.000000 0.000000 -0.132790
#
#
# Mechanical properties :
#
#
# Convention : Reuss Voigt Hill
#
# Bulk Modulus (GPa) = 58.60286 91.05377 74.82831
# Shear Modulus (GPa) = -639.02581 31.63165 -303.69708
#
# Velocity S-wave (km/s) = -16.78860 3.73522 -11.57379
# Velocity P-wave (km/s) = 18.70725 7.66576 12.06643
#
# Compressibility (1/GPa) = 0.01706401
#
# Stress axis : x y z
#
# Youngs Moduli (GPa) = 54.95590 176.33129 123.41519
#
# Poissons Ratio (x) = -0.04938 0.57559
# Poissons Ratio (y) = -0.01539 0.37881
# Poissons Ratio (z) = 0.25631 0.54122
#
# Static dielectric constant tensor:
#      x y z
#    x 1.886240 0.000000 0.000000 
#    y 0.000000 1.916660 0.000000 
#    z 0.000000 0.000000 1.811890 
# 
# From -- ./inp_files/7076.got.cif
#   From: 2010.05.17/outbox.cif.g08.bks.cpg/sg20_4_cif.got.tgz:7076.got - 2010.06.03 22:52:26.
