data_PCOD9319664
_publ_section_title
;
Structure prediction by ZEFSAII (Michael W. Deem and Ramdas Pophale) SiO2 
 PCOD9319664
Probable space group: C 2 2 21
;
_chemical_formula_sum "Si O2"
_cell_formula_units_Z 40
_cell_length_a 5.262989
_cell_length_b 21.225853
_cell_length_c 14.126250
_cell_angle_alpha 90.000000
_cell_angle_beta 90.000000
_cell_angle_gamma 90.000000
_cell_volume 1578.063600
_symmetry_space_group_name_H-M "C 2 2 21"
_symmetry_group_IT_number 20
_symmetry_cell_setting 'orthorhombic'
loop_
_space_group_symop_operation_xyz
x,y,z
-x,-y,1/2+z
x,-y,-z
-x,y,1/2-z
1/2+x,1/2+y,z
1/2-x,1/2-y,1/2+z
1/2+x,1/2-y,-z
1/2-x,1/2+y,1/2-z
loop_
_atom_site_type_symbol
_atom_site_label
_atom_site_fract_x
_atom_site_fract_y
_atom_site_fract_z
Si Si1 0.500000 0.542150 0.750000
Si Si2 0.725242 0.259966 0.434816
Si Si3 0.168970 0.850278 0.125902
Si Si4 0.000000 0.254623 0.250000
Si Si5 0.906430 0.427383 0.959564
Si Si6 0.596316 0.457726 0.594834
O O1 0.331796 0.587392 0.687618
O O2 0.670861 0.502008 0.680105
O O3 0.463242 0.240963 0.491751
O O4 0.618502 0.327353 0.396081
O O5 0.825706 0.226067 0.336938
O O6 0.310656 0.797023 0.185807
O O7 0.301514 0.875980 0.031925
O O8 0.682150 0.432168 0.883696
O O9 0.182453 0.408997 0.923443
O O10 0.939214 0.500000 0.000000
O O11 0.561096 0.500000 0.500000
#
# Coordination Sequence:
#
# PCOD9319664 Si02
#       6
#     4   8   8   4   8   8
#     4  12  22  40  70 113 140 195 250 312 340 430
#     4  12  27  48  72 115 155 191 240 336 416 456
#     4  12  25  42  75 115 143 193 257 317 368 448
#     4  12  26  44  78 121 146 183 266 324 390 470
#     4  10  22  39  59  99 152 189 220 291 360 426
#     4  10  22  38  56  98 148 190 224 288 361 410
#
# _framework density 25.347519999999999
#
# number of rings (size 3 to 8) (size 9 to 14) (size 15 to 20)
#    0.000    0.800    8.000    0.000    8.400    0.800 
#    0.000    0.000    0.000    1.200   10.400    0.000 
#    0.000    0.000    0.000    0.000    0.000    0.000 
#
# Total GULP energy -111530.033082 kJ/mol
# GULP energy per Si atom -5576.501654 kJ/mol
# Density = 2.528983 g / cm^3
# Si number density = 25.347520 Si / 1000 Ang^3
#
#
#
# Elastic Constant Matrix: (Units=GPa)
#
#
# Indices 1 2 3 4 5 6 
#
# 1 136.9602 1.8494 36.7754 0.0000 0.0000 0.0000
# 2 1.8494 40.3569 25.2019 0.0000 0.0000 0.0000
# 3 36.7754 25.2019 125.9918 0.0000 0.0000 0.0000
# 4 0.0000 0.0000 0.0000 31.8218 0.0000 0.0000
# 5 0.0000 0.0000 0.0000 0.0000 52.7331 0.0000
# 6 0.0000 0.0000 0.0000 0.0000 0.0000 16.3943
#
#
#
# Elastic Compliance Matrix: (Units=1/GPa)
#
#
# Indices 1 2 3 4 5 6 
#
# 1 0.007977 0.001244 -0.002577 0.000000 0.000000 0.000000
# 2 0.001244 0.028510 -0.006066 0.000000 0.000000 0.000000
# 3 -0.002577 -0.006066 0.009903 0.000000 0.000000 0.000000
# 4 0.000000 0.000000 0.000000 0.031425 0.000000 0.000000
# 5 0.000000 0.000000 0.000000 0.000000 0.018963 0.000000
# 6 0.000000 0.000000 0.000000 0.000000 0.000000 0.060997
#
#
# Mechanical properties :
#
#
# Convention : Reuss Voigt Hill
#
# Bulk Modulus (GPa) = 31.65481 47.88473 39.76977
# Shear Modulus (GPa) = 27.30710 36.15532 31.73121
#
# Velocity S-wave (km/s) = 3.28580 3.78085 3.54198
# Velocity P-wave (km/s) = 5.18756 6.16377 5.69661
#
# Compressibility (1/GPa) = 0.03159078
#
# Stress axis : x y z
#
# Youngs Moduli (GPa) = 125.36729 35.07559 100.98392
#
# Poissons Ratio (x) = -0.04363 0.26024
# Poissons Ratio (y) = -0.15593 0.61255
# Poissons Ratio (z) = 0.32308 0.21276
#
# Static dielectric constant tensor:
#      x y z
#    x 2.090460 0.000000 0.000000 
#    y 0.000000 2.012910 0.000000 
#    z 0.000000 0.000000 2.147090 
# 
# From -- ./inp_files/17664.got.cif
#   From: 2010.05.17/outbox.cif.g08.bks.cpg/sg20_9_cif.got.tgz:17664.got - 2010.06.03 22:52:26.
