data_PCOD9319267
_publ_section_title
;
Structure prediction by ZEFSAII (Michael W. Deem and Ramdas Pophale) SiO2 
 PCOD9319267
Probable space group: C 2 2 21
;
_chemical_formula_sum "Si O2"
_cell_formula_units_Z 44
_cell_length_a 12.269241
_cell_length_b 7.484866
_cell_length_c 22.757490
_cell_angle_alpha 90.000000
_cell_angle_beta 90.000000
_cell_angle_gamma 90.000000
_cell_volume 2089.902798
_symmetry_space_group_name_H-M "C 2 2 21"
_symmetry_group_IT_number 20
_symmetry_cell_setting 'orthorhombic'
loop_
_space_group_symop_operation_xyz
x,y,z
-x,-y,1/2+z
x,-y,-z
-x,y,1/2-z
1/2+x,1/2+y,z
1/2-x,1/2-y,1/2+z
1/2+x,1/2-y,-z
1/2-x,1/2+y,1/2-z
loop_
_atom_site_type_symbol
_atom_site_label
_atom_site_fract_x
_atom_site_fract_y
_atom_site_fract_z
Si Si1 0.684435 0.796881 0.574800
Si Si2 0.660588 0.500000 0.000000
Si Si3 0.379022 0.333087 0.764897
Si Si4 0.292983 0.081904 0.669339
Si Si5 0.966240 0.551444 0.855986
Si Si6 0.487971 0.796634 0.019077
O O1 0.749750 0.640721 0.605793
O O2 0.620810 0.741116 0.515907
O O3 0.762951 0.958796 0.555311
O O4 0.598982 0.881552 0.620271
O O5 0.583368 0.329415 0.003131
O O6 0.500000 0.408587 0.750000
O O7 0.319260 0.260841 0.706714
O O8 0.298259 0.464969 0.798660
O O9 0.405570 0.158132 0.804554
O O10 0.412306 0.995418 0.662987
O O11 0.976619 0.691214 0.910773
O O12 0.509146 0.000000 0.000000
#
# Coordination Sequence:
#
# PCOD9319267 Si02
#       6
#     8   4   8   8   8   8
#     4  11  23  41  62  94 130 165 218 262 317 397
#     4  12  22  42  64  88 138 170 206 274 318 382
#     4  10  24  41  63  92 124 161 220 264 319 386
#     4  11  23  41  64  91 122 171 208 264 328 374
#     4  10  21  41  59  90 127 157 212 270 310 382
#     4  10  23  41  60  97 130 169 221 260 322 396
#
# _framework density 21.053611
#
# number of rings (size 3 to 8) (size 9 to 14) (size 15 to 20)
#    0.000    1.455    4.545    1.091    2.545    4.364 
#    1.636    0.000    0.000    0.000    0.000    0.000 
#    0.000    0.000    0.000    0.000    0.000    0.000 
#
# Total GULP energy -122877.528197 kJ/mol
# GULP energy per Si atom -5585.342191 kJ/mol
# Density = 2.100569 g / cm^3
# Si number density = 21.053611 Si / 1000 Ang^3
#
#
#
# Elastic Constant Matrix: (Units=GPa)
#
#
# Indices 1 2 3 4 5 6 
#
# 1 99.2964 16.5314 11.3310 0.0000 0.0000 0.0000
# 2 16.5314 19.0789 -7.3547 0.0000 0.0000 0.0000
# 3 11.3310 -7.3547 56.2177 0.0000 0.0000 0.0000
# 4 0.0000 0.0000 0.0000 20.9597 0.0000 0.0000
# 5 0.0000 0.0000 0.0000 0.0000 44.5596 0.0000
# 6 0.0000 0.0000 0.0000 0.0000 0.0000 20.0531
#
#
#
# Elastic Compliance Matrix: (Units=1/GPa)
#
#
# Indices 1 2 3 4 5 6 
#
# 1 0.012642 -0.012570 -0.004193 0.000000 0.000000 0.000000
# 2 -0.012570 0.067697 0.011390 0.000000 0.000000 0.000000
# 3 -0.004193 0.011390 0.020123 0.000000 0.000000 0.000000
# 4 0.000000 0.000000 0.000000 0.047711 0.000000 0.000000
# 5 0.000000 0.000000 0.000000 0.000000 0.022442 0.000000
# 6 0.000000 0.000000 0.000000 0.000000 0.000000 0.049868
#
#
# Mechanical properties :
#
#
# Convention : Reuss Voigt Hill
#
# Bulk Modulus (GPa) = 11.14627 23.95648 17.55138
# Shear Modulus (GPa) = 19.14734 27.38682 23.26708
#
# Velocity S-wave (km/s) = 3.01899 3.61059 3.32796
# Velocity P-wave (km/s) = 4.17829 5.36520 4.80851
#
# Compressibility (1/GPa) = 0.08971610
#
# Stress axis : x y z
#
# Youngs Moduli (GPa) = 79.10111 14.77180 49.69405
#
# Poissons Ratio (x) = 0.18568 0.20835
# Poissons Ratio (y) = 0.99432 -0.56601
# Poissons Ratio (z) = 0.33164 -0.16825
#
# Static dielectric constant tensor:
#      x y z
#    x 1.794060 0.000000 0.000000 
#    y 0.000000 1.703310 0.000000 
#    z 0.000000 0.000000 1.798510 
# 
# From -- ./inp_files/28652.got.cif
#   From: 2010.05.17/outbox.cif.g08.bks.cpg/sg20_15_cif.got.tgz:28652.got - 2010.06.03 22:52:26.
