data_PCOD9319585
_publ_section_title
;
Structure prediction by ZEFSAII (Michael W. Deem and Ramdas Pophale) SiO2 
 PCOD9319585
Probable space group: C 2 2 21
;
_chemical_formula_sum "Si O2"
_cell_formula_units_Z 40
_cell_length_a 11.883183
_cell_length_b 8.089541
_cell_length_c 16.623433
_cell_angle_alpha 90.000000
_cell_angle_beta 90.000000
_cell_angle_gamma 90.000000
_cell_volume 1598.002238
_symmetry_space_group_name_H-M "C 2 2 21"
_symmetry_group_IT_number 20
_symmetry_cell_setting 'orthorhombic'
loop_
_space_group_symop_operation_xyz
x,y,z
-x,-y,1/2+z
x,-y,-z
-x,y,1/2-z
1/2+x,1/2+y,z
1/2-x,1/2-y,1/2+z
1/2+x,1/2-y,-z
1/2-x,1/2+y,1/2-z
loop_
_atom_site_type_symbol
_atom_site_label
_atom_site_fract_x
_atom_site_fract_y
_atom_site_fract_z
Si Si1 0.030542 0.099664 0.386309
Si Si2 0.320876 0.016348 0.173123
Si Si3 0.285322 0.818300 0.656380
Si Si4 0.697188 0.000000 0.000000
Si Si5 0.404190 0.269684 0.046219
Si Si6 0.500000 0.778882 0.250000
O O1 0.158800 0.109841 0.354347
O O2 0.031778 0.227422 0.460866
O O3 0.947767 0.162764 0.318331
O O4 0.022728 0.908758 0.408100
O O5 0.225134 0.881231 0.148819
O O6 0.415182 0.894396 0.205839
O O7 0.310259 0.137603 0.250553
O O8 0.371075 0.112598 0.097110
O O9 0.352193 0.916657 0.583480
O O10 0.782617 0.145416 0.972101
#
# Coordination Sequence:
#
# PCOD9319585 Si02
#       6
#     8   8   8   4   8   4
#     4   8  17  35  54  80 107 141 183 231 270 326
#     4  11  20  35  56  84 109 147 186 228 271 329
#     4   9  18  31  53  76 109 141 182 224 267 317
#     4   8  16  32  52  82 106 140 184 232 268 322
#     4   8  16  32  57  76 103 145 189 219 270 333
#     4  10  22  32  52  82 114 142 180 226 276 322
#
# _framework density 25.031254000000001
#
# number of rings (size 3 to 8) (size 9 to 14) (size 15 to 20)
#    0.000    3.600    0.000    2.400    0.000    8.000 
#    0.000    2.000    0.000    4.800    0.000    0.000 
#    0.000    0.000    0.000    0.000    0.000    0.000 
#
# Total GULP energy -111348.201602 kJ/mol
# GULP energy per Si atom -5567.410080 kJ/mol
# Density = 2.497428 g / cm^3
# Si number density = 25.031254 Si / 1000 Ang^3
#
#
#
# Elastic Constant Matrix: (Units=GPa)
#
#
# Indices 1 2 3 4 5 6 
#
# 1 27.7665 13.5928 12.0154 0.0000 0.0000 0.0000
# 2 13.5928 135.6423 100.7749 0.0000 0.0000 0.0000
# 3 12.0154 100.7749 134.0003 0.0000 0.0000 0.0000
# 4 0.0000 0.0000 0.0000 58.7498 0.0000 0.0000
# 5 0.0000 0.0000 0.0000 0.0000 25.5807 0.0000
# 6 0.0000 0.0000 0.0000 0.0000 0.0000 8.1424
#
#
#
# Elastic Compliance Matrix: (Units=1/GPa)
#
#
# Indices 1 2 3 4 5 6 
#
# 1 0.037962 -0.002890 -0.001231 0.000000 0.000000 0.000000
# 2 -0.002890 0.016927 -0.012471 0.000000 0.000000 0.000000
# 3 -0.001231 -0.012471 0.016952 0.000000 0.000000 0.000000
# 4 0.000000 0.000000 0.000000 0.017021 0.000000 0.000000
# 5 0.000000 0.000000 0.000000 0.000000 0.039092 0.000000
# 6 0.000000 0.000000 0.000000 0.000000 0.000000 0.122814
#
#
# Mechanical properties :
#
#
# Convention : Reuss Voigt Hill
#
# Bulk Modulus (GPa) = 25.86790 61.13058 43.49924
# Shear Modulus (GPa) = 16.84425 29.89632 23.37028
#
# Velocity S-wave (km/s) = 2.59690 3.45970 3.05887
# Velocity P-wave (km/s) = 4.39870 6.35878 5.46729
#
# Compressibility (1/GPa) = 0.03865795
#
# Stress axis : x y z
#
# Youngs Moduli (GPa) = 26.34222 59.07666 58.99087
#
# Poissons Ratio (x) = 0.17073 0.07259
# Poissons Ratio (y) = 0.07613 0.73567
# Poissons Ratio (z) = 0.03242 0.73674
#
# Static dielectric constant tensor:
#      x y z
#    x 2.126450 0.000000 0.000000 
#    y 0.000000 2.024670 0.000000 
#    z 0.000000 0.000000 2.234940 
# 
# From -- ./inp_files/21172.got.cif
#   From: 2010.05.17/outbox.cif.g08.bks.cpg/sg20_11_cif.got.tgz:21172.got - 2010.06.03 22:52:26.
