data_PCOD9319222
_publ_section_title
;
Structure prediction by ZEFSAII (Michael W. Deem and Ramdas Pophale) SiO2 
 PCOD9319222
Probable space group: C 2 2 21
;
_chemical_formula_sum "Si O2"
_cell_formula_units_Z 48
_cell_length_a 8.503193
_cell_length_b 32.420221
_cell_length_c 8.721746
_cell_angle_alpha 90.000000
_cell_angle_beta 90.000000
_cell_angle_gamma 90.000000
_cell_volume 2404.370785
_symmetry_space_group_name_H-M "C 2 2 21"
_symmetry_group_IT_number 20
_symmetry_cell_setting 'orthorhombic'
loop_
_space_group_symop_operation_xyz
x,y,z
-x,-y,1/2+z
x,-y,-z
-x,y,1/2-z
1/2+x,1/2+y,z
1/2-x,1/2-y,1/2+z
1/2+x,1/2-y,-z
1/2-x,1/2+y,1/2-z
loop_
_atom_site_type_symbol
_atom_site_label
_atom_site_fract_x
_atom_site_fract_y
_atom_site_fract_z
Si Si1 0.809591 0.862476 0.497748
Si Si2 0.647187 0.202960 0.039307
Si Si3 0.716159 0.220395 0.383409
Si Si4 0.000000 0.909544 0.250000
Si Si5 0.961380 0.616958 0.568999
Si Si6 0.500000 0.411955 0.750000
Si Si7 0.783911 0.048354 0.003432
O O1 0.809742 0.813287 0.515933
O O2 0.880130 0.880290 0.341482
O O3 0.628940 0.876885 0.513116
O O4 0.911489 0.883130 0.629794
O O5 0.728808 0.208022 0.204971
O O6 0.465824 0.215982 0.067531
O O7 0.723015 0.234191 0.918916
O O8 0.644500 0.156249 0.979002
O O9 0.902339 0.937670 0.132445
O O10 0.871159 0.575900 0.520245
O O11 0.000000 0.617645 0.750000
O O12 0.626600 0.439238 0.659122
O O13 0.751676 0.000000 0.000000
#
# Coordination Sequence:
#
# PCOD9319222 Si02
#       7
#     8   8   8   4   8   4   8
#     4  10  22  42  65  93 128 170 216 257 326 384
#     4  10  24  39  62  89 130 165 214 265 319 377
#     4  10  23  40  60  94 124 169 214 263 313 381
#     4  10  21  40  66  92 132 170 212 262 325 388
#     4  11  23  44  67  94 131 176 215 271 332 385
#     4  10  23  42  66  96 132 168 206 280 323 388
#     4  11  23  42  66  98 128 169 219 268 330 394
#
# _framework density 19.963643000000001
#
# number of rings (size 3 to 8) (size 9 to 14) (size 15 to 20)
#    0.000    1.667    1.667    1.500    4.667    7.333 
#    3.000    0.833    0.000    0.000    0.000    0.000 
#    0.000    0.000    0.000    0.000    0.000    0.000 
#
# Total GULP energy -134208.894660 kJ/mol
# GULP energy per Si atom -5592.037277 kJ/mol
# Density = 1.991820 g / cm^3
# Si number density = 19.963643 Si / 1000 Ang^3
#
#
#
# Elastic Constant Matrix: (Units=GPa)
#
#
# Indices 1 2 3 4 5 6 
#
# 1 45.6566 39.1866 9.0012 0.0000 0.0000 0.0000
# 2 39.1866 138.7191 24.8191 0.0000 0.0000 0.0000
# 3 9.0012 24.8191 70.8204 0.0000 0.0000 0.0000
# 4 0.0000 0.0000 0.0000 13.2991 0.0000 0.0000
# 5 0.0000 0.0000 0.0000 0.0000 29.8743 0.0000
# 6 0.0000 0.0000 0.0000 0.0000 0.0000 25.4238
#
#
#
# Elastic Compliance Matrix: (Units=1/GPa)
#
#
# Indices 1 2 3 4 5 6 
#
# 1 0.028963 -0.008026 -0.000868 0.000000 0.000000 0.000000
# 2 -0.008026 0.009915 -0.002455 0.000000 0.000000 0.000000
# 3 -0.000868 -0.002455 0.015091 0.000000 0.000000 0.000000
# 4 0.000000 0.000000 0.000000 0.075193 0.000000 0.000000
# 5 0.000000 0.000000 0.000000 0.000000 0.033474 0.000000
# 6 0.000000 0.000000 0.000000 0.000000 0.000000 0.039333
#
#
# Mechanical properties :
#
#
# Convention : Reuss Voigt Hill
#
# Bulk Modulus (GPa) = 31.97928 44.57890 38.27909
# Shear Modulus (GPa) = 21.26840 25.86540 23.56690
#
# Velocity S-wave (km/s) = 3.26752 3.60338 3.43955
# Velocity P-wave (km/s) = 5.50356 6.30008 5.91524
#
# Compressibility (1/GPa) = 0.03127025
#
# Stress axis : x y z
#
# Youngs Moduli (GPa) = 34.52715 100.85382 66.26532
#
# Poissons Ratio (x) = 0.80948 0.05754
# Poissons Ratio (y) = 0.27713 0.16266
# Poissons Ratio (z) = 0.02998 0.24757
#
# Static dielectric constant tensor:
#      x y z
#    x 1.706250 0.000000 0.000000 
#    y 0.000000 1.656680 0.000000 
#    z 0.000000 0.000000 1.716390 
# 
# From -- ./inp_files/6578.got.cif
#   From: 2010.05.17/outbox.cif.g08.bks.cpg/sg20_4_cif.got.tgz:6578.got - 2010.06.03 22:52:26.
