data_PCOD9319397
_publ_section_title
;
Structure prediction by ZEFSAII (Michael W. Deem and Ramdas Pophale) SiO2 
 PCOD9319397
Probable space group: C 2 2 21
;
_chemical_formula_sum "Si O2"
_cell_formula_units_Z 44
_cell_length_a 18.388437
_cell_length_b 8.719387
_cell_length_c 14.030523
_cell_angle_alpha 90.000000
_cell_angle_beta 90.000000
_cell_angle_gamma 90.000000
_cell_volume 2249.596512
_symmetry_space_group_name_H-M "C 2 2 21"
_symmetry_group_IT_number 20
_symmetry_cell_setting 'orthorhombic'
loop_
_space_group_symop_operation_xyz
x,y,z
-x,-y,1/2+z
x,-y,-z
-x,y,1/2-z
1/2+x,1/2+y,z
1/2-x,1/2-y,1/2+z
1/2+x,1/2-y,-z
1/2-x,1/2+y,1/2-z
loop_
_atom_site_type_symbol
_atom_site_label
_atom_site_fract_x
_atom_site_fract_y
_atom_site_fract_z
Si Si1 0.401922 0.500000 0.500000
Si Si2 0.707080 0.639936 0.155142
Si Si3 0.684749 0.676697 0.521573
Si Si4 0.515383 0.750251 0.540524
Si Si5 0.028669 0.554105 0.647425
Si Si6 0.309985 0.861938 0.172149
O O1 0.352210 0.411986 0.577080
O O2 0.455994 0.619161 0.551209
O O3 0.678924 0.740110 0.243424
O O4 0.746728 0.484616 0.190263
O O5 0.766488 0.746892 0.102807
O O6 0.701429 0.500000 0.500000
O O7 0.598814 0.692595 0.545685
O O8 0.702783 0.771924 0.426047
O O9 0.508721 0.826019 0.435277
O O10 0.502149 0.887484 0.614486
O O11 0.115594 0.547117 0.654169
O O12 0.000000 0.599732 0.750000
#
# Coordination Sequence:
#
# PCOD9319397 Si02
#       6
#     4   8   8   8   8   8
#     4  12  24  44  64 104 138 166 226 296 324 378
#     4  12  24  43  68 102 140 172 225 285 337 393
#     4  11  21  44  68  91 129 187 216 266 342 409
#     4  10  22  41  68  90 132 173 222 270 333 399
#     4  10  21  42  65  91 128 179 222 265 334 400
#     4  11  23  41  67  97 132 178 226 274 335 410
#
# _framework density 19.559062999999998
#
# number of rings (size 3 to 8) (size 9 to 14) (size 15 to 20)
#    0.000    1.091    4.545    2.182    0.000    1.455 
#    9.818    0.909    0.000    0.000    0.000    0.000 
#    0.000    0.000    0.000    0.000    0.000    0.000 
#
# Total GULP energy -122940.653266 kJ/mol
# GULP energy per Si atom -5588.211512 kJ/mol
# Density = 1.951455 g / cm^3
# Si number density = 19.559063 Si / 1000 Ang^3
#
#
#
# Elastic Constant Matrix: (Units=GPa)
#
#
# Indices 1 2 3 4 5 6 
#
# 1 51.7411 29.0248 -5.1514 0.0000 0.0000 0.0000
# 2 29.0248 66.3772 -25.0223 0.0000 0.0000 0.0000
# 3 -5.1514 -25.0223 37.8709 0.0000 0.0000 0.0000
# 4 0.0000 0.0000 0.0000 24.0906 0.0000 0.0000
# 5 0.0000 0.0000 0.0000 0.0000 14.1296 0.0000
# 6 0.0000 0.0000 0.0000 0.0000 0.0000 114.0369
#
#
#
# Elastic Compliance Matrix: (Units=1/GPa)
#
#
# Indices 1 2 3 4 5 6 
#
# 1 0.026406 -0.013573 -0.005376 0.000000 0.000000 0.000000
# 2 -0.013573 0.027039 0.016019 0.000000 0.000000 0.000000
# 3 -0.005376 0.016019 0.036258 0.000000 0.000000 0.000000
# 4 0.000000 0.000000 0.000000 0.041510 0.000000 0.000000
# 5 0.000000 0.000000 0.000000 0.000000 0.070773 0.000000
# 6 0.000000 0.000000 0.000000 0.000000 0.000000 0.008769
#
#
# Mechanical properties :
#
#
# Convention : Reuss Voigt Hill
#
# Bulk Modulus (GPa) = 11.92702 17.07684 14.50193
# Shear Modulus (GPa) = 20.44455 40.92731 30.68593
#
# Velocity S-wave (km/s) = 3.23657 4.57935 3.96521
# Velocity P-wave (km/s) = 4.48089 6.05891 5.32864
#
# Compressibility (1/GPa) = 0.08384325
#
# Stress axis : x y z
#
# Youngs Moduli (GPa) = 37.87053 36.98313 27.57975
#
# Poissons Ratio (x) = 0.50198 0.14828
# Poissons Ratio (y) = 0.51402 -0.44181
# Poissons Ratio (z) = 0.20360 -0.59244
#
# Static dielectric constant tensor:
#      x y z
#    x 1.685750 0.000000 0.000000 
#    y 0.000000 1.665490 0.000000 
#    z 0.000000 0.000000 1.176240 
# 
# From -- ./inp_files/21194.got.cif
#   From: 2010.05.17/outbox.cif.g08.bks.cpg/sg20_11_cif.got.tgz:21194.got - 2010.06.03 22:52:26.
