data_PCOD9319351
_publ_section_title
;
Structure prediction by ZEFSAII (Michael W. Deem and Ramdas Pophale) SiO2 
 PCOD9319351
Probable space group: C 2 2 21
;
_chemical_formula_sum "Si O2"
_cell_formula_units_Z 48
_cell_length_a 9.423314
_cell_length_b 17.647503
_cell_length_c 12.397849
_cell_angle_alpha 90.000000
_cell_angle_beta 90.000000
_cell_angle_gamma 90.000000
_cell_volume 2061.737023
_symmetry_space_group_name_H-M "C 2 2 21"
_symmetry_group_IT_number 20
_symmetry_cell_setting 'orthorhombic'
loop_
_space_group_symop_operation_xyz
x,y,z
-x,-y,1/2+z
x,-y,-z
-x,y,1/2-z
1/2+x,1/2+y,z
1/2-x,1/2-y,1/2+z
1/2+x,1/2-y,-z
1/2-x,1/2+y,1/2-z
loop_
_atom_site_type_symbol
_atom_site_label
_atom_site_fract_x
_atom_site_fract_y
_atom_site_fract_z
Si Si1 0.116252 0.131354 0.895205
Si Si2 0.349888 0.950135 0.691433
Si Si3 0.302153 0.404097 0.153292
Si Si4 0.522851 0.804007 0.909652
Si Si5 0.722678 0.363393 0.870041
Si Si6 0.429879 0.213183 0.641906
O O1 0.183335 0.104109 0.783340
O O2 0.094193 0.223072 0.885868
O O3 0.957618 0.097030 0.897670
O O4 0.198078 0.112944 0.005894
O O5 0.500000 0.968508 0.750000
O O6 0.378674 0.875615 0.619295
O O7 0.234533 0.929617 0.783567
O O8 0.290246 0.022116 0.629342
O O9 0.216002 0.330097 0.118263
O O10 0.374284 0.821174 0.852016
O O11 0.480674 0.800569 0.035383
O O12 0.603395 0.301533 0.846578
O O13 0.500000 0.183226 0.750000
#
# Coordination Sequence:
#
# PCOD9319351 Si02
#       6
#     8   8   8   8   8   8
#     4  10  22  40  70  92 135 178 225 281 339 402
#     4  10  23  41  67  95 135 175 223 281 344 407
#     4  11  22  41  62  98 135 176 216 279 345 401
#     4  10  21  41  69  99 126 175 229 281 337 394
#     4  10  21  42  66  97 126 176 230 280 334 406
#     4  11  22  38  66  97 130 169 228 283 329 404
#
# _framework density 23.28134
#
# number of rings (size 3 to 8) (size 9 to 14) (size 15 to 20)
#    0.000    1.667    1.667    2.500    4.667    2.667 
#    3.000    6.667    0.000    0.000    0.000    0.000 
#    0.000    0.000    0.000    0.000    0.000    0.000 
#
# Total GULP energy -134203.792054 kJ/mol
# GULP energy per Si atom -5591.824669 kJ/mol
# Density = 2.322835 g / cm^3
# Si number density = 23.281340 Si / 1000 Ang^3
#
#
#
# Elastic Constant Matrix: (Units=GPa)
#
#
# Indices 1 2 3 4 5 6 
#
# 1 39.5274 11.2317 8.5757 0.0000 0.0000 0.0000
# 2 11.2317 105.1346 21.8010 0.0000 0.0000 0.0000
# 3 8.5757 21.8010 84.2084 0.0000 0.0000 0.0000
# 4 0.0000 0.0000 0.0000 14.9674 0.0000 0.0000
# 5 0.0000 0.0000 0.0000 0.0000 32.9643 0.0000
# 6 0.0000 0.0000 0.0000 0.0000 0.0000 31.8637
#
#
#
# Elastic Compliance Matrix: (Units=1/GPa)
#
#
# Indices 1 2 3 4 5 6 
#
# 1 0.026429 -0.002394 -0.002072 0.000000 0.000000 0.000000
# 2 -0.002394 0.010268 -0.002415 0.000000 0.000000 0.000000
# 3 -0.002072 -0.002415 0.012711 0.000000 0.000000 0.000000
# 4 0.000000 0.000000 0.000000 0.066812 0.000000 0.000000
# 5 0.000000 0.000000 0.000000 0.000000 0.030336 0.000000
# 6 0.000000 0.000000 0.000000 0.000000 0.000000 0.031384
#
#
# Mechanical properties :
#
#
# Convention : Reuss Voigt Hill
#
# Bulk Modulus (GPa) = 28.05218 34.67636 31.36427
# Shear Modulus (GPa) = 24.56009 28.44320 26.50165
#
# Velocity S-wave (km/s) = 3.25149 3.49910 3.37756
# Velocity P-wave (km/s) = 5.11582 5.59033 5.35833
#
# Compressibility (1/GPa) = 0.03564786
#
# Stress axis : x y z
#
# Youngs Moduli (GPa) = 37.83783 97.38955 78.66965
#
# Poissons Ratio (x) = 0.23313 0.16298
# Poissons Ratio (y) = 0.09058 0.18995
# Poissons Ratio (z) = 0.07839 0.23515
#
# Static dielectric constant tensor:
#      x y z
#    x 1.860490 0.000000 0.000000 
#    y 0.000000 1.851120 0.000000 
#    z 0.000000 0.000000 1.908430 
# 
# From -- ./inp_files/18851.got.cif
#   From: 2010.05.17/outbox.cif.g08.bks.cpg/sg20_10_cif.got.tgz:18851.got - 2010.06.03 22:52:26.
