data_PCOD9319120
_publ_section_title
;
Structure prediction by ZEFSAII (Michael W. Deem and Ramdas Pophale) SiO2 
 PCOD9319120
Probable space group: C 2 2 21
;
_chemical_formula_sum "Si O2"
_cell_formula_units_Z 48
_cell_length_a 9.030664
_cell_length_b 25.656924
_cell_length_c 9.321365
_cell_angle_alpha 90.000000
_cell_angle_beta 90.000000
_cell_angle_gamma 90.000000
_cell_volume 2159.751508
_symmetry_space_group_name_H-M "C 2 2 21"
_symmetry_group_IT_number 20
_symmetry_cell_setting 'orthorhombic'
loop_
_space_group_symop_operation_xyz
x,y,z
-x,-y,1/2+z
x,-y,-z
-x,y,1/2-z
1/2+x,1/2+y,z
1/2-x,1/2-y,1/2+z
1/2+x,1/2-y,-z
1/2-x,1/2+y,1/2-z
loop_
_atom_site_type_symbol
_atom_site_label
_atom_site_fract_x
_atom_site_fract_y
_atom_site_fract_z
Si Si1 0.516443 0.537029 0.606385
Si Si2 0.402305 0.702238 0.387863
Si Si3 0.986400 0.556475 0.420706
Si Si4 0.885406 0.230980 0.882033
Si Si5 0.239198 0.379338 0.119299
Si Si6 0.244417 0.891348 0.055589
O O1 0.599124 0.500000 0.500000
O O2 0.500000 0.504603 0.750000
O O3 0.612077 0.587128 0.635561
O O4 0.358469 0.557334 0.558451
O O5 0.500000 0.686120 0.250000
O O6 0.244192 0.727824 0.348971
O O7 0.509518 0.740580 0.479991
O O8 0.356049 0.655125 0.493736
O O9 0.993487 0.500000 0.500000
O O10 0.124578 0.593984 0.451746
O O11 0.000000 0.546695 0.250000
O O12 0.856203 0.590352 0.499478
O O13 0.792938 0.178465 0.916315
O O14 0.000000 0.224848 0.750000
O O15 0.187253 0.379570 0.286446
#
# Coordination Sequence:
#
# PCOD9319120 Si02
#       6
#     8   8   8   8   8   8
#     4  10  21  39  67  96 129 178 228 286 349 424
#     4  12  28  44  75 112 148 196 254 316 378 449
#     4  12  28  46  71 108 147 191 245 303 370 451
#     4  12  25  51  74 107 150 198 253 307 383 455
#     4  11  23  46  72  98 143 190 242 297 372 442
#     4  11  24  46  69  99 145 189 242 299 368 442
#
# _framework density 22.224778000000001
#
# number of rings (size 3 to 8) (size 9 to 14) (size 15 to 20)
#    0.000    0.667    3.333    4.000    4.667    5.333 
#    0.000    0.000    0.000    0.000    0.000    0.000 
#    0.000    0.000    0.000    0.000    0.000    0.000 
#
# Total GULP energy -133841.700914 kJ/mol
# GULP energy per Si atom -5576.737538 kJ/mol
# Density = 2.217419 g / cm^3
# Si number density = 22.224778 Si / 1000 Ang^3
#
#
#
# Elastic Constant Matrix: (Units=GPa)
#
#
# Indices 1 2 3 4 5 6 
#
# 1 97.9815 25.0247 54.3758 0.0000 0.0000 0.0000
# 2 25.0247 67.8456 32.3816 0.0000 0.0000 0.0000
# 3 54.3758 32.3816 148.5579 0.0000 0.0000 0.0000
# 4 0.0000 0.0000 0.0000 20.7464 0.0000 0.0000
# 5 0.0000 0.0000 0.0000 0.0000 39.4728 0.0000
# 6 0.0000 0.0000 0.0000 0.0000 0.0000 -28.4389
#
#
#
# Elastic Compliance Matrix: (Units=1/GPa)
#
#
# Indices 1 2 3 4 5 6 
#
# 1 0.013294 -0.002881 -0.004238 0.000000 0.000000 0.000000
# 2 -0.002881 0.017075 -0.002668 0.000000 0.000000 0.000000
# 3 -0.004238 -0.002668 0.008864 0.000000 0.000000 0.000000
# 4 0.000000 0.000000 0.000000 0.048201 0.000000 0.000000
# 5 0.000000 0.000000 0.000000 0.000000 0.025334 0.000000
# 6 0.000000 0.000000 0.000000 0.000000 0.000000 -0.035163
#
#
# Mechanical properties :
#
#
# Convention : Reuss Voigt Hill
#
# Bulk Modulus (GPa) = 50.86327 59.77213 55.31770
# Shear Modulus (GPa) = 48.20209 19.86294 34.03251
#
# Velocity S-wave (km/s) = 4.66214 2.99277 3.91741
# Velocity P-wave (km/s) = 7.20529 6.23659 6.73837
#
# Compressibility (1/GPa) = 0.01966055
#
# Stress axis : x y z
#
# Youngs Moduli (GPa) = 75.22433 58.56506 112.81609
#
# Poissons Ratio (x) = 0.16871 0.47810
# Poissons Ratio (y) = 0.21669 0.30094
# Poissons Ratio (z) = 0.31879 0.15622
#
# Static dielectric constant tensor:
#      x y z
#    x 1.984050 0.000000 0.000000 
#    y 0.000000 1.790370 0.000000 
#    z 0.000000 0.000000 1.946140 
# 
# From -- ./inp_files/6547.got.cif
#   From: 2010.05.17/outbox.cif.g08.bks.cpg/sg20_4_cif.got.tgz:6547.got - 2010.06.03 22:52:26.
