data_PCOD9319272
_publ_section_title
;
Structure prediction by ZEFSAII (Michael W. Deem and Ramdas Pophale) SiO2 
 PCOD9319272
Probable space group: C 2 2 21
;
_chemical_formula_sum "Si O2"
_cell_formula_units_Z 64
_cell_length_a 12.901181
_cell_length_b 15.252106
_cell_length_c 16.841751
_cell_angle_alpha 90.000000
_cell_angle_beta 90.000000
_cell_angle_gamma 90.000000
_cell_volume 3313.954378
_symmetry_space_group_name_H-M "C 2 2 21"
_symmetry_group_IT_number 20
_symmetry_cell_setting 'orthorhombic'
loop_
_space_group_symop_operation_xyz
x,y,z
-x,-y,1/2+z
x,-y,-z
-x,y,1/2-z
1/2+x,1/2+y,z
1/2-x,1/2-y,1/2+z
1/2+x,1/2-y,-z
1/2-x,1/2+y,1/2-z
loop_
_atom_site_type_symbol
_atom_site_label
_atom_site_fract_x
_atom_site_fract_y
_atom_site_fract_z
Si Si1 0.833061 0.826170 0.113561
Si Si2 0.386347 0.586804 0.729142
Si Si3 0.639506 0.045721 0.914928
Si Si4 0.413122 0.930569 0.071882
Si Si5 0.724450 0.047773 0.322063
Si Si6 0.241114 0.159774 0.031713
Si Si7 0.599902 0.124405 0.193882
Si Si8 0.933936 0.795796 0.415841
O O1 0.860833 0.839867 0.205539
O O2 0.744536 0.899016 0.097318
O O3 0.786213 0.735503 0.086394
O O4 0.946494 0.823538 0.071835
O O5 0.500000 0.552197 0.750000
O O6 0.304180 0.510721 0.726109
O O7 0.389457 0.632657 0.644814
O O8 0.531051 0.101139 0.913381
O O9 0.620074 0.966249 0.853139
O O10 0.649809 0.000000 0.000000
O O11 0.368717 0.983824 0.147611
O O12 0.326252 0.864860 0.036411
O O13 0.424667 0.000000 0.000000
O O14 0.771448 0.080375 0.405997
O O15 0.689032 0.123963 0.261650
O O16 0.136421 0.194645 0.992773
O O17 0.500000 0.123033 0.250000
O O18 0.582296 0.202362 0.129635
#
# Coordination Sequence:
#
# PCOD9319272 Si02
#       8
#     8   8   8   8   8   8   8   8
#     4  11  24  41  61  94 132 168 215 273 328 395
#     4  10  21  41  61  89 133 170 217 268 324 401
#     4  11  23  40  63  95 134 169 217 284 331 391
#     4   9  20  36  62  93 123 161 217 274 320 386
#     4  11  20  40  65  96 120 172 229 271 326 396
#     4  11  23  39  65  92 130 171 218 277 334 397
#     4  12  22  39  69  97 125 173 231 273 335 399
#     4  11  24  41  63  95 130 176 218 272 335 409
#
# _framework density 19.312275
#
# number of rings (size 3 to 8) (size 9 to 14) (size 15 to 20)
#    0.000    1.250    3.750    3.375    5.250    0.000 
#    4.500    0.000    0.000    0.000    0.000    0.000 
#    0.000    0.000    0.000    0.000    0.000    0.000 
#
# Total GULP energy -178324.516112 kJ/mol
# GULP energy per Si atom -5572.641128 kJ/mol
# Density = 1.926832 g / cm^3
# Si number density = 19.312275 Si / 1000 Ang^3
#
#
#
# Elastic Constant Matrix: (Units=GPa)
#
#
# Indices 1 2 3 4 5 6 
#
# 1 129.2772 46.8389 39.2804 0.0000 0.0000 0.0000
# 2 46.8389 62.9022 6.0495 0.0000 0.0000 0.0000
# 3 39.2804 6.0495 63.5464 0.0000 0.0000 0.0000
# 4 0.0000 0.0000 0.0000 21.1230 0.0000 0.0000
# 5 0.0000 0.0000 0.0000 0.0000 23.8019 0.0000
# 6 0.0000 0.0000 0.0000 0.0000 0.0000 12.8931
#
#
#
# Elastic Compliance Matrix: (Units=1/GPa)
#
#
# Indices 1 2 3 4 5 6 
#
# 1 0.013299 -0.009197 -0.007345 0.000000 0.000000 0.000000
# 2 -0.009197 0.022404 0.003552 0.000000 0.000000 0.000000
# 3 -0.007345 0.003552 0.019939 0.000000 0.000000 0.000000
# 4 0.000000 0.000000 0.000000 0.047342 0.000000 0.000000
# 5 0.000000 0.000000 0.000000 0.000000 0.042013 0.000000
# 6 0.000000 0.000000 0.000000 0.000000 0.000000 0.077561
#
#
# Mechanical properties :
#
#
# Convention : Reuss Voigt Hill
#
# Bulk Modulus (GPa) = 33.71281 48.89591 41.30436
# Shear Modulus (GPa) = 19.34794 22.46740 20.90767
#
# Velocity S-wave (km/s) = 3.16863 3.41453 3.29387
# Velocity P-wave (km/s) = 5.55711 6.39679 5.99168
#
# Compressibility (1/GPa) = 0.02966232
#
# Stress axis : x y z
#
# Youngs Moduli (GPa) = 75.19273 44.63462 50.15363
#
# Poissons Ratio (x) = 0.41048 0.36839
# Poissons Ratio (y) = 0.69151 -0.17814
# Poissons Ratio (z) = 0.55231 -0.15854
#
# Static dielectric constant tensor:
#      x y z
#    x 1.722770 0.000000 0.000000 
#    y 0.000000 1.702090 0.000000 
#    z 0.000000 0.000000 1.696330 
# 
# From -- ./inp_files/24466.got.cif
#   From: 2010.05.17/outbox.cif.g08.bks.cpg/sg20_13_cif.got.tgz:24466.got - 2010.06.03 22:52:26.
