data_PCOD9319840
_publ_section_title
;
Structure prediction by ZEFSAII (Michael W. Deem and Ramdas Pophale) SiO2 
 PCOD9319840
Probable space group: C 2 2 21
;
_chemical_formula_sum "Si O2"
_cell_formula_units_Z 48
_cell_length_a 10.314870
_cell_length_b 15.567311
_cell_length_c 14.457097
_cell_angle_alpha 90.000000
_cell_angle_beta 90.000000
_cell_angle_gamma 90.000000
_cell_volume 2321.445303
_symmetry_space_group_name_H-M "C 2 2 21"
_symmetry_group_IT_number 20
_symmetry_cell_setting 'orthorhombic'
loop_
_space_group_symop_operation_xyz
x,y,z
-x,-y,1/2+z
x,-y,-z
-x,y,1/2-z
1/2+x,1/2+y,z
1/2-x,1/2-y,1/2+z
1/2+x,1/2-y,-z
1/2-x,1/2+y,1/2-z
loop_
_atom_site_type_symbol
_atom_site_label
_atom_site_fract_x
_atom_site_fract_y
_atom_site_fract_z
Si Si1 0.155264 0.805086 0.377131
Si Si2 0.856118 0.275844 0.209830
Si Si3 0.888834 0.014178 0.816157
Si Si4 0.520771 0.128251 0.361044
Si Si5 0.764826 0.873101 0.927236
Si Si6 0.133899 0.535974 0.691217
O O1 0.258628 0.784504 0.296668
O O2 0.074606 0.888717 0.344653
O O3 0.222720 0.837584 0.470090
O O4 0.073815 0.719344 0.395018
O O5 0.808906 0.200180 0.144570
O O6 0.852405 0.367075 0.155311
O O7 0.000000 0.261641 0.250000
O O8 0.755736 0.019264 0.757664
O O9 0.000000 0.977832 0.750000
O O10 0.855135 0.954015 0.902441
O O11 0.500000 0.139574 0.250000
O O12 0.384181 0.105794 0.406452
O O13 0.616056 0.046955 0.373167
O O14 0.000000 0.539071 0.750000
#
# Coordination Sequence:
#
# PCOD9319840 Si02
#       6
#     8   8   8   8   8   8
#     4  11  25  40  64 100 134 173 221 279 337 396
#     4  10  22  40  64  96 128 167 218 279 329 391
#     4  11  22  40  68  98 129 173 219 277 337 401
#     4  11  20  43  68  90 127 178 219 270 334 400
#     4  12  24  41  67  96 132 177 225 274 331 398
#     4   9  18  39  67  91 121 167 220 262 330 389
#
# _framework density 20.676772
#
# number of rings (size 3 to 8) (size 9 to 14) (size 15 to 20)
#    0.000    1.333    5.000    1.500    4.667    0.000 
#    0.000    0.833    0.000    0.000    0.000    0.000 
#    0.000    0.000    0.000    0.000    0.000    0.000 
#
# Total GULP energy -134048.621240 kJ/mol
# GULP energy per Si atom -5585.359218 kJ/mol
# Density = 2.062971 g / cm^3
# Si number density = 20.676772 Si / 1000 Ang^3
#
#
#
# Elastic Constant Matrix: (Units=GPa)
#
#
# Indices 1 2 3 4 5 6 
#
# 1 49.6535 13.1230 4.3016 0.0000 0.0000 0.0000
# 2 13.1230 120.4619 16.6894 0.0000 0.0000 0.0000
# 3 4.3016 16.6894 65.8150 0.0000 0.0000 0.0000
# 4 0.0000 0.0000 0.0000 13.2072 0.0000 0.0000
# 5 0.0000 0.0000 0.0000 0.0000 16.7499 0.0000
# 6 0.0000 0.0000 0.0000 0.0000 0.0000 -99.1615
#
#
#
# Elastic Compliance Matrix: (Units=1/GPa)
#
#
# Indices 1 2 3 4 5 6 
#
# 1 0.020778 -0.002151 -0.000813 0.000000 0.000000 0.000000
# 2 -0.002151 0.008826 -0.002098 0.000000 0.000000 0.000000
# 3 -0.000813 -0.002098 0.015779 0.000000 0.000000 0.000000
# 4 0.000000 0.000000 0.000000 0.075717 0.000000 0.000000
# 5 0.000000 0.000000 0.000000 0.000000 0.059702 0.000000
# 6 0.000000 0.000000 0.000000 0.000000 0.000000 -0.010085
#
#
# Mechanical properties :
#
#
# Convention : Reuss Voigt Hill
#
# Bulk Modulus (GPa) = 28.35954 33.79539 31.07747
# Shear Modulus (GPa) = 25.96134 -0.38648 12.78743
#
# Velocity S-wave (km/s) = 3.54726 -0.43280 2.48955
# Velocity P-wave (km/s) = 5.52475 4.01626 4.82976
#
# Compressibility (1/GPa) = 0.03526150
#
# Stress axis : x y z
#
# Youngs Moduli (GPa) = 48.12673 113.29751 63.37482
#
# Poissons Ratio (x) = 0.24370 0.05150
# Poissons Ratio (y) = 0.10352 0.13294
# Poissons Ratio (z) = 0.03911 0.23765
#
# Static dielectric constant tensor:
#      x y z
#    x 1.715850 0.000000 0.000000 
#    y 0.000000 1.807090 0.000000 
#    z 0.000000 0.000000 1.770880 
# 
# From -- ./inp_files/23423.got.cif
#   From: 2010.05.17/outbox.cif.g08.bks.cpg/sg20_12_cif.got.tgz:23423.got - 2010.06.03 22:52:26.
