data_PCOD9319515
_publ_section_title
;
Structure prediction by ZEFSAII (Michael W. Deem and Ramdas Pophale) SiO2 
 PCOD9319515
Probable space group: C 2 2 21
;
_chemical_formula_sum "Si O2"
_cell_formula_units_Z 52
_cell_length_a 13.496361
_cell_length_b 6.840486
_cell_length_c 25.413824
_cell_angle_alpha 90.000000
_cell_angle_beta 90.000000
_cell_angle_gamma 90.000000
_cell_volume 2346.246634
_symmetry_space_group_name_H-M "C 2 2 21"
_symmetry_group_IT_number 20
_symmetry_cell_setting 'orthorhombic'
loop_
_space_group_symop_operation_xyz
x,y,z
-x,-y,1/2+z
x,-y,-z
-x,y,1/2-z
1/2+x,1/2+y,z
1/2-x,1/2-y,1/2+z
1/2+x,1/2-y,-z
1/2-x,1/2+y,1/2-z
loop_
_atom_site_type_symbol
_atom_site_label
_atom_site_fract_x
_atom_site_fract_y
_atom_site_fract_z
Si Si1 0.566496 0.220026 0.358831
Si Si2 0.372254 0.770265 0.484932
Si Si3 0.000000 0.769664 0.250000
Si Si4 0.708967 0.826908 0.122480
Si Si5 0.101704 0.997402 0.832008
Si Si6 0.217172 0.233799 0.907995
Si Si7 0.423302 0.888682 0.053626
O O1 0.539655 0.150235 0.299663
O O2 0.679277 0.292304 0.359332
O O3 0.491623 0.406323 0.363310
O O4 0.551008 0.055698 0.403175
O O5 0.299810 0.735537 0.436263
O O6 0.346098 0.673603 0.540272
O O7 0.482829 0.756615 0.462250
O O8 0.361655 0.000000 0.500000
O O9 0.082991 0.916262 0.225719
O O10 0.625269 0.728592 0.159244
O O11 0.688153 0.054356 0.113643
O O12 0.197397 0.090696 0.859819
O O13 0.330593 0.232178 0.925646
O O14 0.394814 0.000000 0.000000
#
# Coordination Sequence:
#
# PCOD9319515 Si02
#       7
#     8   8   4   8   8   8   8
#     4  10  21  44  67  98 136 185 243 304 374 436
#     4   9  21  37  59 100 143 179 232 286 360 455
#     4   8  24  44  68  96 138 186 248 316 366 434
#     4  11  22  40  68  99 136 182 234 291 364 441
#     4  10  22  45  65  94 139 178 237 305 353 435
#     4  11  23  40  67 102 144 183 237 298 368 451
#     4  11  21  39  70 101 144 195 237 305 380 455
#
# _framework density 22.163059000000001
#
# number of rings (size 3 to 8) (size 9 to 14) (size 15 to 20)
#    0.923    0.923    1.538    3.692    2.154    0.000 
#    2.769    0.769    0.000    0.000    0.000    0.000 
#    0.000    0.000    0.000    0.000    0.000    0.000 
#
# Total GULP energy -145059.017658 kJ/mol
# GULP energy per Si atom -5579.192987 kJ/mol
# Density = 2.211262 g / cm^3
# Si number density = 22.163059 Si / 1000 Ang^3
#
#
#
# Elastic Constant Matrix: (Units=GPa)
#
#
# Indices 1 2 3 4 5 6 
#
# 1 96.5371 9.9210 26.8090 0.0000 0.0000 0.0000
# 2 9.9210 68.0993 23.4897 0.0000 0.0000 0.0000
# 3 26.8090 23.4897 111.8218 0.0000 0.0000 0.0000
# 4 0.0000 0.0000 0.0000 28.5303 0.0000 0.0000
# 5 0.0000 0.0000 0.0000 0.0000 38.0575 0.0000
# 6 0.0000 0.0000 0.0000 0.0000 0.0000 20.4209
#
#
#
# Elastic Compliance Matrix: (Units=1/GPa)
#
#
# Indices 1 2 3 4 5 6 
#
# 1 0.011134 -0.000756 -0.002510 0.000000 0.000000 0.000000
# 2 -0.000756 0.015883 -0.003155 0.000000 0.000000 0.000000
# 3 -0.002510 -0.003155 0.010207 0.000000 0.000000 0.000000
# 4 0.000000 0.000000 0.000000 0.035050 0.000000 0.000000
# 5 0.000000 0.000000 0.000000 0.000000 0.026276 0.000000
# 6 0.000000 0.000000 0.000000 0.000000 0.000000 0.048969
#
#
# Mechanical properties :
#
#
# Convention : Reuss Voigt Hill
#
# Bulk Modulus (GPa) = 41.01614 44.09974 42.55794
# Shear Modulus (GPa) = 29.67537 31.81766 30.74652
#
# Velocity S-wave (km/s) = 3.66315 3.79306 3.72867
# Velocity P-wave (km/s) = 6.03641 6.25493 6.14664
#
# Compressibility (1/GPa) = 0.02438065
#
# Stress axis : x y z
#
# Youngs Moduli (GPa) = 89.81845 62.96076 97.96760
#
# Poissons Ratio (x) = 0.04760 0.24594
# Poissons Ratio (y) = 0.06791 0.30910
# Poissons Ratio (z) = 0.22548 0.19865
#
# Static dielectric constant tensor:
#      x y z
#    x 1.830630 0.000000 0.000000 
#    y 0.000000 1.894420 0.000000 
#    z 0.000000 0.000000 1.818320 
# 
# From -- ./inp_files/29271.got.cif
#   From: 2010.05.17/outbox.cif.g08.bks.cpg/sg20_15_cif.got.tgz:29271.got - 2010.06.03 22:52:26.
