data_PCOD9319407
_publ_section_title
;
Structure prediction by ZEFSAII (Michael W. Deem and Ramdas Pophale) SiO2 
 PCOD9319407
Probable space group: C 2 2 21
;
_chemical_formula_sum "Si O2"
_cell_formula_units_Z 32
_cell_length_a 6.137879
_cell_length_b 12.743707
_cell_length_c 16.707820
_cell_angle_alpha 90.000000
_cell_angle_beta 90.000000
_cell_angle_gamma 90.000000
_cell_volume 1306.874513
_symmetry_space_group_name_H-M "C 2 2 21"
_symmetry_group_IT_number 20
_symmetry_cell_setting 'orthorhombic'
loop_
_space_group_symop_operation_xyz
x,y,z
-x,-y,1/2+z
x,-y,-z
-x,y,1/2-z
1/2+x,1/2+y,z
1/2-x,1/2-y,1/2+z
1/2+x,1/2-y,-z
1/2-x,1/2+y,1/2-z
loop_
_atom_site_type_symbol
_atom_site_label
_atom_site_fract_x
_atom_site_fract_y
_atom_site_fract_z
Si Si1 0.618510 0.371397 0.427657
Si Si2 0.016807 0.638507 0.042648
Si Si3 0.761718 0.703101 0.738590
Si Si4 0.795157 0.454290 0.115033
O O1 0.498441 0.259399 0.436907
O O2 0.766126 0.346345 0.350214
O O3 0.459511 0.464963 0.404877
O O4 0.745713 0.385351 0.509677
O O5 0.927362 0.562585 0.111726
O O6 0.878358 0.608769 0.963485
O O7 0.500000 0.740422 0.750000
O O8 0.788543 0.611673 0.804234
O O9 0.000000 0.764128 0.750000
#
# Coordination Sequence:
#
# PCOD9319407 Si02
#       4
#     8   8   8   8
#     4  11  22  43  71  98 145 179 233 297 352 420
#     4  11  22  40  69 102 134 179 239 282 357 419
#     4  10  21  42  66  93 137 189 221 287 362 404
#     4  10  23  41  66 101 134 186 229 286 350 420
#
# _framework density 24.485897999999999
#
# number of rings (size 3 to 8) (size 9 to 14) (size 15 to 20)
#    0.000    1.500    5.000    0.000    0.000    4.000 
#    0.000    7.500    0.000    0.000    0.000    0.000 
#    0.000    0.000    0.000    0.000    0.000    0.000 
#
# Total GULP energy -89095.744784 kJ/mol
# GULP energy per Si atom -5568.484049 kJ/mol
# Density = 2.443017 g / cm^3
# Si number density = 24.485898 Si / 1000 Ang^3
#
#
#
# Elastic Constant Matrix: (Units=GPa)
#
#
# Indices 1 2 3 4 5 6 
#
# 1 130.0587 22.4051 17.4420 0.0000 0.0000 0.0000
# 2 22.4051 76.7282 15.0803 0.0000 0.0000 0.0000
# 3 17.4420 15.0803 70.4188 0.0000 0.0000 0.0000
# 4 0.0000 0.0000 0.0000 18.1417 0.0000 0.0000
# 5 0.0000 0.0000 0.0000 0.0000 3.3009 0.0000
# 6 0.0000 0.0000 0.0000 0.0000 0.0000 26.4755
#
#
#
# Elastic Compliance Matrix: (Units=1/GPa)
#
#
# Indices 1 2 3 4 5 6 
#
# 1 0.008265 -0.002099 -0.001598 0.000000 0.000000 0.000000
# 2 -0.002099 0.014139 -0.002508 0.000000 0.000000 0.000000
# 3 -0.001598 -0.002508 0.015133 0.000000 0.000000 0.000000
# 4 0.000000 0.000000 0.000000 0.055121 0.000000 0.000000
# 5 0.000000 0.000000 0.000000 0.000000 0.302950 0.000000
# 6 0.000000 0.000000 0.000000 0.000000 0.000000 0.037771
#
#
# Mechanical properties :
#
#
# Convention : Reuss Voigt Hill
#
# Bulk Modulus (GPa) = 39.79678 43.00673 41.40175
# Shear Modulus (GPa) = 11.00922 24.40218 17.70570
#
# Velocity S-wave (km/s) = 2.12271 3.16029 2.69197
# Velocity P-wave (km/s) = 4.72187 5.56045 5.15823
#
# Compressibility (1/GPa) = 0.02512766
#
# Stress axis : x y z
#
# Youngs Moduli (GPa) = 120.99605 70.72663 66.07857
#
# Poissons Ratio (x) = 0.14848 0.10556
# Poissons Ratio (y) = 0.25402 0.16572
# Poissons Ratio (z) = 0.19329 0.17737
#
# Static dielectric constant tensor:
#      x y z
#    x 2.235950 0.000000 0.000000 
#    y 0.000000 1.910910 0.000000 
#    z 0.000000 0.000000 1.995900 
# 
# From -- ./inp_files/22548.got.cif
#   From: 2010.05.17/outbox.cif.g08.bks.cpg/sg20_12_cif.got.tgz:22548.got - 2010.06.03 22:52:26.
