data_PCOD9319558
_publ_section_title
;
Structure prediction by ZEFSAII (Michael W. Deem and Ramdas Pophale) SiO2 
 PCOD9319558
Probable space group: C 2 2 21
;
_chemical_formula_sum "Si O2"
_cell_formula_units_Z 28
_cell_length_a 6.867444
_cell_length_b 12.348316
_cell_length_c 13.701728
_cell_angle_alpha 90.000000
_cell_angle_beta 90.000000
_cell_angle_gamma 90.000000
_cell_volume 1161.925287
_symmetry_space_group_name_H-M "C 2 2 21"
_symmetry_group_IT_number 20
_symmetry_cell_setting 'orthorhombic'
loop_
_space_group_symop_operation_xyz
x,y,z
-x,-y,1/2+z
x,-y,-z
-x,y,1/2-z
1/2+x,1/2+y,z
1/2-x,1/2-y,1/2+z
1/2+x,1/2-y,-z
1/2-x,1/2+y,1/2-z
loop_
_atom_site_type_symbol
_atom_site_label
_atom_site_fract_x
_atom_site_fract_y
_atom_site_fract_z
Si Si1 0.278174 0.500000 0.000000
Si Si2 0.444464 0.925502 0.142394
Si Si3 0.047718 0.800611 0.593768
Si Si4 0.215424 0.643643 0.286873
O O1 0.129523 0.478125 0.089169
O O2 0.406225 0.607631 0.015397
O O3 0.500000 0.882968 0.250000
O O4 0.379654 0.822260 0.079362
O O5 0.701579 0.022769 0.332217
O O6 0.158725 0.845920 0.689304
O O7 0.823262 0.790743 0.627845
O O8 0.000000 0.675227 0.250000
#
# Coordination Sequence:
#
# PCOD9319558 Si02
#       4
#     4   8   8   8
#     4  12  26  44  70 112 140 186 252 296 348 436
#     4  11  23  47  71 102 146 188 239 297 360 427
#     4  11  24  45  70 102 140 189 239 289 368 418
#     4  10  21  45  71  97 136 182 234 291 348 429
#
# _framework density 24.097935
#
# number of rings (size 3 to 8) (size 9 to 14) (size 15 to 20)
#    0.000    1.143    8.571    0.000    0.000    5.714 
#   10.286    0.000    0.000    0.000    0.000    0.000 
#    0.000    0.000    0.000    0.000    0.000    0.000 
#
# Total GULP energy -78127.196311 kJ/mol
# GULP energy per Si atom -5580.514022 kJ/mol
# Density = 2.404309 g / cm^3
# Si number density = 24.097935 Si / 1000 Ang^3
#
#
#
# Elastic Constant Matrix: (Units=GPa)
#
#
# Indices 1 2 3 4 5 6 
#
# 1 70.1590 32.2213 26.8376 0.0000 0.0000 0.0000
# 2 32.2213 108.6910 5.2278 0.0000 0.0000 0.0000
# 3 26.8376 5.2278 61.4520 0.0000 0.0000 0.0000
# 4 0.0000 0.0000 0.0000 38.3955 0.0000 0.0000
# 5 0.0000 0.0000 0.0000 0.0000 18.5664 0.0000
# 6 0.0000 0.0000 0.0000 0.0000 0.0000 34.3727
#
#
#
# Elastic Compliance Matrix: (Units=1/GPa)
#
#
# Indices 1 2 3 4 5 6 
#
# 1 0.019937 -0.005514 -0.008238 0.000000 0.000000 0.000000
# 2 -0.005514 0.010763 0.001492 0.000000 0.000000 0.000000
# 3 -0.008238 0.001492 0.019744 0.000000 0.000000 0.000000
# 4 0.000000 0.000000 0.000000 0.026045 0.000000 0.000000
# 5 0.000000 0.000000 0.000000 0.000000 0.053861 0.000000
# 6 0.000000 0.000000 0.000000 0.000000 0.000000 0.029093
#
#
# Mechanical properties :
#
#
# Convention : Reuss Voigt Hill
#
# Bulk Modulus (GPa) = 38.57302 40.98619 39.77960
# Shear Modulus (GPa) = 25.96019 30.00126 27.98073
#
# Velocity S-wave (km/s) = 3.28575 3.53224 3.41123
# Velocity P-wave (km/s) = 5.51692 5.80351 5.66203
#
# Compressibility (1/GPa) = 0.02592486
#
# Stress axis : x y z
#
# Youngs Moduli (GPa) = 50.15821 92.90879 50.64940
#
# Poissons Ratio (x) = 0.51230 0.41724
# Poissons Ratio (y) = 0.27657 -0.07559
# Poissons Ratio (z) = 0.41320 -0.13866
#
# Static dielectric constant tensor:
#      x y z
#    x 2.064820 0.000000 0.000000 
#    y 0.000000 1.953440 0.000000 
#    z 0.000000 0.000000 1.944650 
# 
# From -- ./inp_files/18322.got.cif
#   From: 2010.05.17/outbox.cif.g08.bks.cpg/sg20_10_cif.got.tgz:18322.got - 2010.06.03 22:52:26.
