data_PCOD9319624
_publ_section_title
;
Structure prediction by ZEFSAII (Michael W. Deem and Ramdas Pophale) SiO2 
 PCOD9319624
Probable space group: C 2 2 21
;
_chemical_formula_sum "Si O2"
_cell_formula_units_Z 40
_cell_length_a 14.303734
_cell_length_b 7.105027
_cell_length_c 16.275676
_cell_angle_alpha 90.000000
_cell_angle_beta 90.000000
_cell_angle_gamma 90.000000
_cell_volume 1654.071176
_symmetry_space_group_name_H-M "C 2 2 21"
_symmetry_group_IT_number 20
_symmetry_cell_setting 'orthorhombic'
loop_
_space_group_symop_operation_xyz
x,y,z
-x,-y,1/2+z
x,-y,-z
-x,y,1/2-z
1/2+x,1/2+y,z
1/2-x,1/2-y,1/2+z
1/2+x,1/2-y,-z
1/2-x,1/2+y,1/2-z
loop_
_atom_site_type_symbol
_atom_site_label
_atom_site_fract_x
_atom_site_fract_y
_atom_site_fract_z
Si Si1 0.103235 0.000000 0.000000
Si Si2 0.629903 0.700525 0.392108
Si Si3 0.298093 0.536121 0.659737
Si Si4 0.367318 0.842876 0.763212
Si Si5 0.500000 0.846139 0.250000
Si Si6 0.070187 0.786464 0.432891
O O1 0.164070 0.938206 0.922179
O O2 0.034252 0.152086 0.958642
O O3 0.725724 0.799005 0.366172
O O4 0.549022 0.734616 0.324139
O O5 0.627192 0.477394 0.409126
O O6 0.608328 0.788824 0.481251
O O7 0.373232 0.647644 0.714818
O O8 0.239131 0.392892 0.714582
O O9 0.417852 0.835530 0.852022
O O10 0.416614 0.016942 0.718467
#
# Coordination Sequence:
#
# PCOD9319624 Si02
#       6
#     4   8   8   8   4   8
#     4  10  22  36  60  88 122 162 204 252 306 364
#     4   9  21  40  61  87 123 165 209 257 312 370
#     4  11  22  39  63  94 124 161 210 265 312 367
#     4  11  23  39  64  93 126 165 208 259 315 373
#     4  10  22  38  60  88 122 162 206 252 308 380
#     4  10  22  41  62  86 125 172 206 253 314 377
#
# _framework density 24.182755
#
# number of rings (size 3 to 8) (size 9 to 14) (size 15 to 20)
#    0.000    2.000    0.000    3.600    0.000   12.800 
#    0.000    8.000    0.000    0.000    0.000    0.000 
#    0.000    0.000    0.000    0.000    0.000    0.000 
#
# Total GULP energy -111754.378714 kJ/mol
# GULP energy per Si atom -5587.718936 kJ/mol
# Density = 2.412771 g / cm^3
# Si number density = 24.182755 Si / 1000 Ang^3
#
#
#
# Elastic Constant Matrix: (Units=GPa)
#
#
# Indices 1 2 3 4 5 6 
#
# 1 60.0060 4.9636 37.0975 0.0000 0.0000 0.0000
# 2 4.9636 53.1321 28.8713 0.0000 0.0000 0.0000
# 3 37.0975 28.8713 153.7773 0.0000 0.0000 0.0000
# 4 0.0000 0.0000 0.0000 39.4723 0.0000 0.0000
# 5 0.0000 0.0000 0.0000 0.0000 53.2570 0.0000
# 6 0.0000 0.0000 0.0000 0.0000 0.0000 10.2552
#
#
#
# Elastic Compliance Matrix: (Units=1/GPa)
#
#
# Indices 1 2 3 4 5 6 
#
# 1 0.019618 0.000823 -0.004887 0.000000 0.000000 0.000000
# 2 0.000823 0.020994 -0.004140 0.000000 0.000000 0.000000
# 3 -0.004887 -0.004140 0.008459 0.000000 0.000000 0.000000
# 4 0.000000 0.000000 0.000000 0.025334 0.000000 0.000000
# 5 0.000000 0.000000 0.000000 0.000000 0.018777 0.000000
# 6 0.000000 0.000000 0.000000 0.000000 0.000000 0.097512
#
#
# Mechanical properties :
#
#
# Convention : Reuss Voigt Hill
#
# Bulk Modulus (GPa) = 30.61611 45.42002 38.01806
# Shear Modulus (GPa) = 22.93680 33.66244 28.29962
#
# Velocity S-wave (km/s) = 3.08308 3.73500 3.42459
# Velocity P-wave (km/s) = 5.03603 6.11744 5.60289
#
# Compressibility (1/GPa) = 0.03266255
#
# Stress axis : x y z
#
# Youngs Moduli (GPa) = 50.97266 47.63318 118.21445
#
# Poissons Ratio (x) = -0.03920 0.57774
# Poissons Ratio (y) = -0.04195 0.48941
# Poissons Ratio (z) = 0.24912 0.19720
#
# Static dielectric constant tensor:
#      x y z
#    x 2.012610 0.000000 0.000000 
#    y 0.000000 1.951780 0.000000 
#    z 0.000000 0.000000 1.976720 
# 
# From -- ./inp_files/24713.got.cif
#   From: 2010.05.17/outbox.cif.g08.bks.cpg/sg20_13_cif.got.tgz:24713.got - 2010.06.03 22:52:26.
