data_PCOD9319831
_publ_section_title
;
Structure prediction by ZEFSAII (Michael W. Deem and Ramdas Pophale) SiO2 
 PCOD9319831
Probable space group: C 2 2 21
;
_chemical_formula_sum "Si O2"
_cell_formula_units_Z 36
_cell_length_a 25.286118
_cell_length_b 7.989913
_cell_length_c 8.983375
_cell_angle_alpha 90.000000
_cell_angle_beta 90.000000
_cell_angle_gamma 90.000000
_cell_volume 1814.946133
_symmetry_space_group_name_H-M "C 2 2 21"
_symmetry_group_IT_number 20
_symmetry_cell_setting 'orthorhombic'
loop_
_space_group_symop_operation_xyz
x,y,z
-x,-y,1/2+z
x,-y,-z
-x,y,1/2-z
1/2+x,1/2+y,z
1/2-x,1/2-y,1/2+z
1/2+x,1/2-y,-z
1/2-x,1/2+y,1/2-z
loop_
_atom_site_type_symbol
_atom_site_label
_atom_site_fract_x
_atom_site_fract_y
_atom_site_fract_z
Si Si1 0.074473 0.563323 0.754212
Si Si2 0.999716 0.500000 0.000000
Si Si3 0.364758 0.668683 0.411310
Si Si4 0.679077 0.870649 0.811233
Si Si5 0.294531 0.483392 0.170724
O O1 0.041890 0.599058 0.604477
O O2 0.086241 0.735933 0.838455
O O3 0.130744 0.472202 0.738065
O O4 0.040346 0.447537 0.868660
O O5 0.378873 0.500000 0.500000
O O6 0.338405 0.799762 0.526740
O O7 0.324949 0.609434 0.281607
O O8 0.692548 0.703622 0.720863
O O9 0.732340 0.977735 0.817692
O O10 0.311164 0.500000 0.000000
#
# Coordination Sequence:
#
# PCOD9319831 Si02
#       5
#     8   4   8   8   8
#     4  11  21  43  66  93 120 162 213 263 314 378
#     4  10  24  38  72  86 116 160 224 258 316 364
#     4  10  22  40  64  89 133 168 199 260 325 375
#     4  11  21  39  62  90 130 167 200 260 319 377
#     4  11  23  36  60  95 127 166 210 247 315 395
#
# _framework density 19.835298000000002
#
# number of rings (size 3 to 8) (size 9 to 14) (size 15 to 20)
#    0.000    1.333    2.222    4.000    3.111    0.000 
#    6.000    0.000   19.556    0.000    0.000    0.000 
#    0.000    0.000    0.000    0.000    0.000    0.000 
#
# Total GULP energy -100342.930594 kJ/mol
# GULP energy per Si atom -5574.607255 kJ/mol
# Density = 1.979015 g / cm^3
# Si number density = 19.835298 Si / 1000 Ang^3
#
#
#
# Elastic Constant Matrix: (Units=GPa)
#
#
# Indices 1 2 3 4 5 6 
#
# 1 96.0306 42.0286 52.3480 0.0000 0.0000 0.0000
# 2 42.0286 78.0779 25.3729 0.0000 0.0000 0.0000
# 3 52.3480 25.3729 82.4205 0.0000 0.0000 0.0000
# 4 0.0000 0.0000 0.0000 22.8535 0.0000 0.0000
# 5 0.0000 0.0000 0.0000 0.0000 42.2777 0.0000
# 6 0.0000 0.0000 0.0000 0.0000 0.0000 1.1988
#
#
#
# Elastic Compliance Matrix: (Units=1/GPa)
#
#
# Indices 1 2 3 4 5 6 
#
# 1 0.018788 -0.006929 -0.009800 0.000000 0.000000 0.000000
# 2 -0.006929 0.016787 -0.000767 0.000000 0.000000 0.000000
# 3 -0.009800 -0.000767 0.018593 0.000000 0.000000 0.000000
# 4 0.000000 0.000000 0.000000 0.043757 0.000000 0.000000
# 5 0.000000 0.000000 0.000000 0.000000 0.023653 0.000000
# 6 0.000000 0.000000 0.000000 0.000000 0.000000 0.834178
#
#
# Mechanical properties :
#
#
# Convention : Reuss Voigt Hill
#
# Bulk Modulus (GPa) = 52.14697 55.11422 53.63059
# Shear Modulus (GPa) = 5.01435 22.38463 13.69949
#
# Velocity S-wave (km/s) = 1.59169 3.36300 2.63090
# Velocity P-wave (km/s) = 5.45207 6.55179 6.02706
#
# Compressibility (1/GPa) = 0.01917657
#
# Stress axis : x y z
#
# Youngs Moduli (GPa) = 53.22618 59.57124 53.78306
#
# Poissons Ratio (x) = 0.41275 0.52706
# Poissons Ratio (y) = 0.36879 0.04126
# Poissons Ratio (z) = 0.52160 0.04570
#
# Static dielectric constant tensor:
#      x y z
#    x 1.707120 0.000000 0.000000 
#    y 0.000000 1.699210 0.000000 
#    z 0.000000 0.000000 1.744360 
# 
# From -- ./inp_files/5885.got.cif
#   From: 2010.05.17/outbox.cif.g08.bks.cpg/sg20_3_cif.got.tgz:5885.got - 2010.06.03 22:52:26.
