data_PCOD9319916
_publ_section_title
;
Structure prediction by ZEFSAII (Michael W. Deem and Ramdas Pophale) SiO2 
 PCOD9319916
Probable space group: C 2 2 21
;
_chemical_formula_sum "Si O2"
_cell_formula_units_Z 40
_cell_length_a 15.390682
_cell_length_b 13.030136
_cell_length_c 9.407608
_cell_angle_alpha 90.000000
_cell_angle_beta 90.000000
_cell_angle_gamma 90.000000
_cell_volume 1886.626917
_symmetry_space_group_name_H-M "C 2 2 21"
_symmetry_group_IT_number 20
_symmetry_cell_setting 'orthorhombic'
loop_
_space_group_symop_operation_xyz
x,y,z
-x,-y,1/2+z
x,-y,-z
-x,y,1/2-z
1/2+x,1/2+y,z
1/2-x,1/2-y,1/2+z
1/2+x,1/2-y,-z
1/2-x,1/2+y,1/2-z
loop_
_atom_site_type_symbol
_atom_site_label
_atom_site_fract_x
_atom_site_fract_y
_atom_site_fract_z
Si Si1 0.000000 0.393191 0.750000
Si Si2 0.588571 0.459630 0.658220
Si Si3 0.267662 0.944824 0.247558
Si Si4 0.790926 0.233322 0.091755
Si Si5 0.612484 0.000000 0.000000
Si Si6 0.826712 0.334904 0.817685
O O1 0.950773 0.453856 0.623405
O O2 0.928754 0.326238 0.829258
O O3 0.569158 0.500000 0.500000
O O4 0.500000 0.456123 0.750000
O O5 0.665031 0.533126 0.723810
O O6 0.635155 0.347705 0.638910
O O7 0.296914 0.846221 0.159655
O O8 0.319436 0.941397 0.396663
O O9 0.298671 0.047466 0.163741
O O10 0.703264 0.189909 0.159216
O O11 0.785850 0.255412 0.925784
#
# Coordination Sequence:
#
# PCOD9319916 Si02
#       6
#     4   8   8   8   4   8
#     4  10  24  40  62 104 132 170 234 298 358 424
#     4  11  25  47  70 104 142 188 234 296 349 419
#     4  10  22  45  74  96 140 190 233 293 365 426
#     4  11  24  44  72  98 137 191 239 285 358 440
#     4  10  22  40  74  94 140 182 220 296 370 420
#     4  10  24  42  67 101 139 181 236 292 367 417
#
# _framework density 21.20186
#
# number of rings (size 3 to 8) (size 9 to 14) (size 15 to 20)
#    0.000    1.600    1.000    1.800   11.200    4.800 
#   12.600    0.000    0.000    0.000    0.000    0.000 
#    0.000    0.000    0.000    0.000    0.000    0.000 
#
# Total GULP energy -111482.998511 kJ/mol
# GULP energy per Si atom -5574.149926 kJ/mol
# Density = 2.115360 g / cm^3
# Si number density = 21.201860 Si / 1000 Ang^3
#
#
#
# Elastic Constant Matrix: (Units=GPa)
#
#
# Indices 1 2 3 4 5 6 
#
# 1 142.3309 40.3105 54.5315 0.0000 0.0000 0.0000
# 2 40.3105 116.2403 33.1911 0.0000 0.0000 0.0000
# 3 54.5315 33.1911 103.0919 0.0000 0.0000 0.0000
# 4 0.0000 0.0000 0.0000 42.1076 0.0000 0.0000
# 5 0.0000 0.0000 0.0000 0.0000 -0.8594 0.0000
# 6 0.0000 0.0000 0.0000 0.0000 0.0000 -5.9209
#
#
#
# Elastic Compliance Matrix: (Units=1/GPa)
#
#
# Indices 1 2 3 4 5 6 
#
# 1 0.009210 -0.001985 -0.004232 0.000000 0.000000 0.000000
# 2 -0.001985 0.009902 -0.002138 0.000000 0.000000 0.000000
# 3 -0.004232 -0.002138 0.012627 0.000000 0.000000 0.000000
# 4 0.000000 0.000000 0.000000 0.023749 0.000000 0.000000
# 5 0.000000 0.000000 0.000000 0.000000 -1.163650 0.000000
# 6 0.000000 0.000000 0.000000 0.000000 0.000000 -0.168892
#
#
# Mechanical properties :
#
#
# Convention : Reuss Voigt Hill
#
# Bulk Modulus (GPa) = 66.54403 68.63659 67.59031
# Shear Modulus (GPa) = -3.98300 22.64079 9.32889
#
# Velocity S-wave (km/s) = -1.37211 3.27137 2.09990
# Velocity P-wave (km/s) = 5.37995 6.83464 6.15045
#
# Compressibility (1/GPa) = 0.01502764
#
# Stress axis : x y z
#
# Youngs Moduli (GPa) = 108.58103 100.99206 79.19463
#
# Poissons Ratio (x) = 0.20050 0.33518
# Poissons Ratio (y) = 0.21556 0.16930
# Poissons Ratio (z) = 0.45956 0.21590
#
# Static dielectric constant tensor:
#      x y z
#    x 1.746220 0.000000 0.000000 
#    y 0.000000 1.834310 0.000000 
#    z 0.000000 0.000000 1.806640 
# 
# From -- ./inp_files/8158.got.cif
#   From: 2010.05.17/outbox.cif.g08.bks.cpg/sg20_5_cif.got.tgz:8158.got - 2010.06.03 22:52:26.
