data_PCOD9319967
_publ_section_title
;
Structure prediction by ZEFSAII (Michael W. Deem and Ramdas Pophale) SiO2 
 PCOD9319967
Probable space group: C 2 2 21
;
_chemical_formula_sum "Si O2"
_cell_formula_units_Z 64
_cell_length_a 8.302142
_cell_length_b 12.738038
_cell_length_c 23.928775
_cell_angle_alpha 90.000000
_cell_angle_beta 90.000000
_cell_angle_gamma 90.000000
_cell_volume 2530.539749
_symmetry_space_group_name_H-M "C 2 2 21"
_symmetry_group_IT_number 20
_symmetry_cell_setting 'orthorhombic'
loop_
_space_group_symop_operation_xyz
x,y,z
-x,-y,1/2+z
x,-y,-z
-x,y,1/2-z
1/2+x,1/2+y,z
1/2-x,1/2-y,1/2+z
1/2+x,1/2-y,-z
1/2-x,1/2+y,1/2-z
loop_
_atom_site_type_symbol
_atom_site_label
_atom_site_fract_x
_atom_site_fract_y
_atom_site_fract_z
Si Si1 0.648766 0.598767 0.375162
Si Si2 0.640105 0.742045 0.137365
Si Si3 0.973455 0.607606 0.544123
Si Si4 0.533061 0.415715 0.073230
Si Si5 0.542894 0.933354 0.809561
Si Si6 0.543028 0.307199 0.309088
Si Si7 0.165909 0.204763 0.486184
Si Si8 0.334198 0.937748 0.913814
O O1 0.494025 0.654761 0.346265
O O2 0.596996 0.507010 0.417322
O O3 0.780204 0.549747 0.334478
O O4 0.702914 0.684426 0.420584
O O5 0.552265 0.836986 0.105487
O O6 0.765469 0.785402 0.182706
O O7 0.755017 0.677391 0.093170
O O8 0.117726 0.672903 0.514423
O O9 0.010946 0.484934 0.553449
O O10 0.811550 0.647496 0.515935
O O11 0.519927 0.356683 0.132906
O O12 0.487617 0.347537 0.019025
O O13 0.696207 0.481188 0.069443
O O14 0.500000 0.980225 0.750000
O O15 0.540178 0.806466 0.805778
O O16 0.397557 0.957992 0.851075
O O17 0.500000 0.361937 0.250000
#
# Coordination Sequence:
#
# PCOD9319967 Si02
#       8
#     8   8   8   8   8   8   8   8
#     4  10  23  41  69  94 136 179 230 287 348 431
#     4   9  21  43  65  95 135 174 228 292 351 426
#     4  11  22  39  67  97 136 181 233 288 355 421
#     4  11  22  41  65  98 141 173 230 287 346 431
#     4  10  23  44  67  96 136 179 236 295 353 420
#     4  10  22  41  66  93 130 172 221 284 355 412
#     4  11  23  38  65 102 135 186 226 286 363 429
#     4  10  23  41  64  96 136 182 229 285 350 425
#
# _framework density 25.291046999999999
#
# number of rings (size 3 to 8) (size 9 to 14) (size 15 to 20)
#    0.000    1.750    1.250    1.875    5.250    1.000 
#    0.000   17.500    0.000    0.000    0.000    0.000 
#    0.000    0.000    0.000    0.000    0.000    0.000 
#
# Total GULP energy -178644.777958 kJ/mol
# GULP energy per Si atom -5582.649311 kJ/mol
# Density = 2.523348 g / cm^3
# Si number density = 25.291047 Si / 1000 Ang^3
#
#
#
# Elastic Constant Matrix: (Units=GPa)
#
#
# Indices 1 2 3 4 5 6 
#
# 1 101.2226 26.3568 27.9489 0.0000 0.0000 0.0000
# 2 26.3568 104.9815 4.2760 0.0000 0.0000 0.0000
# 3 27.9489 4.2760 103.5977 0.0000 0.0000 0.0000
# 4 0.0000 0.0000 0.0000 28.2370 0.0000 0.0000
# 5 0.0000 0.0000 0.0000 0.0000 31.9264 0.0000
# 6 0.0000 0.0000 0.0000 0.0000 0.0000 -12.3921
#
#
#
# Elastic Compliance Matrix: (Units=1/GPa)
#
#
# Indices 1 2 3 4 5 6 
#
# 1 0.011413 -0.002744 -0.002966 0.000000 0.000000 0.000000
# 2 -0.002744 0.010202 0.000319 0.000000 0.000000 0.000000
# 3 -0.002966 0.000319 0.010440 0.000000 0.000000 0.000000
# 4 0.000000 0.000000 0.000000 0.035415 0.000000 0.000000
# 5 0.000000 0.000000 0.000000 0.000000 0.031322 0.000000
# 6 0.000000 0.000000 0.000000 0.000000 0.000000 -0.080697
#
#
# Mechanical properties :
#
#
# Convention : Reuss Voigt Hill
#
# Bulk Modulus (GPa) = 47.00969 47.44058 47.22513
# Shear Modulus (GPa) = 139.02026 26.30227 82.66127
#
# Velocity S-wave (km/s) = 7.42210 3.22838 5.72319
# Velocity P-wave (km/s) = 9.59572 5.71797 7.89851
#
# Compressibility (1/GPa) = 0.02127221
#
# Stress axis : x y z
#
# Youngs Moduli (GPa) = 87.62170 98.02465 95.78889
#
# Poissons Ratio (x) = 0.26903 0.28408
# Poissons Ratio (y) = 0.24048 -0.03059
# Poissons Ratio (z) = 0.25986 -0.03130
#
# Static dielectric constant tensor:
#      x y z
#    x 2.053710 0.000000 0.000000 
#    y 0.000000 2.018440 0.000000 
#    z 0.000000 0.000000 2.124500 
# 
# From -- ./inp_files/28888.got.cif
#   From: 2010.05.17/outbox.cif.g08.bks.cpg/sg20_15_cif.got.tgz:28888.got - 2010.06.03 22:52:26.
