data_PCOD9319951
_publ_section_title
;
Structure prediction by ZEFSAII (Michael W. Deem and Ramdas Pophale) SiO2 
 PCOD9319951
Probable space group: C 2 2 21
;
_chemical_formula_sum "Si O2"
_cell_formula_units_Z 32
_cell_length_a 22.737212
_cell_length_b 4.989154
_cell_length_c 10.922620
_cell_angle_alpha 90.000000
_cell_angle_beta 90.000000
_cell_angle_gamma 90.000000
_cell_volume 1239.056029
_symmetry_space_group_name_H-M "C 2 2 21"
_symmetry_group_IT_number 20
_symmetry_cell_setting 'orthorhombic'
loop_
_space_group_symop_operation_xyz
x,y,z
-x,-y,1/2+z
x,-y,-z
-x,y,1/2-z
1/2+x,1/2+y,z
1/2-x,1/2-y,1/2+z
1/2+x,1/2-y,-z
1/2-x,1/2+y,1/2-z
loop_
_atom_site_type_symbol
_atom_site_label
_atom_site_fract_x
_atom_site_fract_y
_atom_site_fract_z
Si Si1 0.672686 0.924286 0.779242
Si Si2 0.490603 0.000000 0.000000
Si Si3 0.197074 0.917022 0.631957
Si Si4 0.087307 0.145249 0.109616
Si Si5 0.500000 0.731047 0.750000
O O1 0.732740 0.954010 0.856644
O O2 0.683402 0.109325 0.659782
O O3 0.621152 0.089801 0.844171
O O4 0.670732 0.615549 0.736260
O O5 0.531690 0.758814 0.037460
O O6 0.470581 0.097546 0.136805
O O7 0.174745 0.000000 0.500000
O O8 0.054123 0.954894 0.205959
O O9 0.123748 0.000000 0.000000
#
# Coordination Sequence:
#
# PCOD9319951 Si02
#       5
#     8   4   8   8   4
#     4  10  23  39  67 100 134 180 233 281 342 421
#     4  10  22  42  72  98 138 180 234 300 352 424
#     4  10  22  41  64  97 140 178 225 288 348 408
#     4  10  23  40  70 102 133 178 239 287 350 423
#     4  10  22  44  68 106 136 178 240 300 360 420
#
# _framework density 25.826111000000001
#
# number of rings (size 3 to 8) (size 9 to 14) (size 15 to 20)
#    0.000    2.000    0.000    1.500    8.750    4.000 
#    0.000    6.250   11.000    0.000    0.000    0.000 
#    0.000    0.000    0.000    0.000    0.000    0.000 
#
# Total GULP energy -89273.224141 kJ/mol
# GULP energy per Si atom -5579.576509 kJ/mol
# Density = 2.576733 g / cm^3
# Si number density = 25.826111 Si / 1000 Ang^3
#
#
#
# Elastic Constant Matrix: (Units=GPa)
#
#
# Indices 1 2 3 4 5 6 
#
# 1 82.8112 18.7675 21.1675 0.0000 0.0000 0.0000
# 2 18.7675 106.9416 1.3130 0.0000 0.0000 0.0000
# 3 21.1675 1.3130 111.6076 0.0000 0.0000 0.0000
# 4 0.0000 0.0000 0.0000 59.6177 0.0000 0.0000
# 5 0.0000 0.0000 0.0000 0.0000 -1.5549 0.0000
# 6 0.0000 0.0000 0.0000 0.0000 0.0000 23.4480
#
#
#
# Elastic Compliance Matrix: (Units=1/GPa)
#
#
# Indices 1 2 3 4 5 6 
#
# 1 0.013229 -0.002291 -0.002482 0.000000 0.000000 0.000000
# 2 -0.002291 0.009749 0.000320 0.000000 0.000000 0.000000
# 3 -0.002482 0.000320 0.009427 0.000000 0.000000 0.000000
# 4 0.000000 0.000000 0.000000 0.016774 0.000000 0.000000
# 5 0.000000 0.000000 0.000000 0.000000 -0.643123 0.000000
# 6 0.000000 0.000000 0.000000 0.000000 0.000000 0.042648
#
#
# Mechanical properties :
#
#
# Convention : Reuss Voigt Hill
#
# Bulk Modulus (GPa) = 42.55597 42.65072 42.60334
# Shear Modulus (GPa) = -9.35354 33.64300 12.14473
#
# Velocity S-wave (km/s) = -1.90515 3.61317 2.17088
# Velocity P-wave (km/s) = 3.41675 5.82727 4.77657
#
# Compressibility (1/GPa) = 0.02349847
#
# Stress axis : x y z
#
# Youngs Moduli (GPa) = 75.58940 102.57404 106.07876
#
# Poissons Ratio (x) = 0.23502 0.26330
# Poissons Ratio (y) = 0.17319 -0.03393
# Poissons Ratio (z) = 0.18762 -0.03281
#
# Static dielectric constant tensor:
#      x y z
#    x 2.051980 0.000000 0.000000 
#    y 0.000000 2.045480 0.000000 
#    z 0.000000 0.000000 2.825550 
# 
# From -- ./inp_files/11321.got.cif
#   From: 2010.05.17/outbox.cif.g08.bks.cpg/sg20_6_cif.got.tgz:11321.got - 2010.06.03 22:52:26.
