data_PCOD9319632
_publ_section_title
;
Structure prediction by ZEFSAII (Michael W. Deem and Ramdas Pophale) SiO2 
 PCOD9319632
Probable space group: C 2 2 21
;
_chemical_formula_sum "Si O2"
_cell_formula_units_Z 52
_cell_length_a 19.909881
_cell_length_b 5.042381
_cell_length_c 23.118420
_cell_angle_alpha 90.000000
_cell_angle_beta 90.000000
_cell_angle_gamma 90.000000
_cell_volume 2320.932294
_symmetry_space_group_name_H-M "C 2 2 21"
_symmetry_group_IT_number 20
_symmetry_cell_setting 'orthorhombic'
loop_
_space_group_symop_operation_xyz
x,y,z
-x,-y,1/2+z
x,-y,-z
-x,y,1/2-z
1/2+x,1/2+y,z
1/2-x,1/2-y,1/2+z
1/2+x,1/2-y,-z
1/2-x,1/2+y,1/2-z
loop_
_atom_site_type_symbol
_atom_site_label
_atom_site_fract_x
_atom_site_fract_y
_atom_site_fract_z
Si Si1 0.500000 0.054047 0.250000
Si Si2 0.147564 0.934064 0.842620
Si Si3 0.353433 0.924877 0.730471
Si Si4 0.117466 0.000000 0.500000
Si Si5 0.989148 0.278619 0.377577
Si Si6 0.978482 0.500000 0.000000
Si Si7 0.642250 0.694193 0.383969
Si Si8 0.290947 0.795949 0.843601
O O1 0.574300 0.179322 0.254900
O O2 0.492555 0.918844 0.313987
O O3 0.140627 0.730099 0.788283
O O4 0.077303 0.901649 0.875563
O O5 0.217254 0.833972 0.869685
O O6 0.158429 0.235296 0.823712
O O7 0.296135 0.892946 0.777627
O O8 0.068975 0.248145 0.512088
O O9 0.161960 0.090256 0.446753
O O10 0.985149 0.441619 0.438320
O O11 0.062524 0.144845 0.379808
O O12 0.683500 0.503414 0.342598
O O13 0.658342 0.001434 0.375270
#
# Coordination Sequence:
#
# PCOD9319632 Si02
#       8
#     4   8   8   4   8   4   8   8
#     4  10  22  36  66 102 128 164 224 292 324 382
#     4  11  25  40  61  91 135 173 218 260 340 396
#     4  11  23  38  61  91 134 173 215 268 334 397
#     4  10  22  40  67  98 125 170 218 290 326 398
#     4  10  23  43  66 100 127 178 218 285 324 410
#     4  10  22  42  67  94 133 170 224 266 348 396
#     4  11  23  40  67  91 125 163 226 267 332 383
#     4  12  23  40  62  93 130 176 212 271 331 406
#
# _framework density 22.404792
#
# number of rings (size 3 to 8) (size 9 to 14) (size 15 to 20)
#    0.000    1.231    1.538    4.615    4.308    4.308 
#    0.000    0.769    0.000    7.385    0.000    0.000 
#    0.000    0.000    0.000    0.000    0.000    0.000 
#
# Total GULP energy -144953.528454 kJ/mol
# GULP energy per Si atom -5575.135710 kJ/mol
# Density = 2.235380 g / cm^3
# Si number density = 22.404792 Si / 1000 Ang^3
#
#
#
# Elastic Constant Matrix: (Units=GPa)
#
#
# Indices 1 2 3 4 5 6 
#
# 1 123.3427 14.6104 -2.3998 0.0000 0.0000 0.0000
# 2 14.6104 75.0999 20.5801 0.0000 0.0000 0.0000
# 3 -2.3998 20.5801 106.5826 0.0000 0.0000 0.0000
# 4 0.0000 0.0000 0.0000 34.8392 0.0000 0.0000
# 5 0.0000 0.0000 0.0000 0.0000 9.0974 0.0000
# 6 0.0000 0.0000 0.0000 0.0000 0.0000 8.3138
#
#
#
# Elastic Compliance Matrix: (Units=1/GPa)
#
#
# Indices 1 2 3 4 5 6 
#
# 1 0.008327 -0.001765 0.000528 0.000000 0.000000 0.000000
# 2 -0.001765 0.014434 -0.002827 0.000000 0.000000 0.000000
# 3 0.000528 -0.002827 0.009940 0.000000 0.000000 0.000000
# 4 0.000000 0.000000 0.000000 0.028703 0.000000 0.000000
# 5 0.000000 0.000000 0.000000 0.000000 0.109922 0.000000
# 6 0.000000 0.000000 0.000000 0.000000 0.000000 0.120282
#
#
# Mechanical properties :
#
#
# Convention : Reuss Voigt Hill
#
# Bulk Modulus (GPa) = 40.69331 41.17852 40.93592
# Shear Modulus (GPa) = 16.23767 28.59903 22.41835
#
# Velocity S-wave (km/s) = 2.69502 3.57665 3.16667
# Velocity P-wave (km/s) = 5.28076 5.95615 5.62860
#
# Compressibility (1/GPa) = 0.02457406
#
# Stress axis : x y z
#
# Youngs Moduli (GPa) = 120.09407 69.28313 100.60264
#
# Poissons Ratio (x) = 0.12226 -0.05314
# Poissons Ratio (y) = 0.21193 0.28437
# Poissons Ratio (z) = -0.06344 0.19584
#
# Static dielectric constant tensor:
#      x y z
#    x 1.880180 0.000000 0.000000 
#    y 0.000000 1.854480 0.000000 
#    z 0.000000 0.000000 2.022740 
# 
# From -- ./inp_files/27922.got.cif
#   From: 2010.05.17/outbox.cif.g08.bks.cpg/sg20_14_cif.got.tgz:27922.got - 2010.06.03 22:52:26.
