data_PCOD9319535
_publ_section_title
;
Structure prediction by ZEFSAII (Michael W. Deem and Ramdas Pophale) SiO2 
 PCOD9319535
Probable space group: C 2 2 21
;
_chemical_formula_sum "Si O2"
_cell_formula_units_Z 48
_cell_length_a 7.038312
_cell_length_b 8.887107
_cell_length_c 29.250753
_cell_angle_alpha 90.000000
_cell_angle_beta 90.000000
_cell_angle_gamma 90.000000
_cell_volume 1829.641382
_symmetry_space_group_name_H-M "C 2 2 21"
_symmetry_group_IT_number 20
_symmetry_cell_setting 'orthorhombic'
loop_
_space_group_symop_operation_xyz
x,y,z
-x,-y,1/2+z
x,-y,-z
-x,y,1/2-z
1/2+x,1/2+y,z
1/2-x,1/2-y,1/2+z
1/2+x,1/2-y,-z
1/2-x,1/2+y,1/2-z
loop_
_atom_site_type_symbol
_atom_site_label
_atom_site_fract_x
_atom_site_fract_y
_atom_site_fract_z
Si Si1 0.267498 0.791033 0.183236
Si Si2 0.844548 0.648215 0.481212
Si Si3 0.612664 0.375917 0.601161
Si Si4 0.224921 0.983723 0.262506
Si Si5 0.755206 0.634140 0.062512
Si Si6 0.657506 0.666479 0.648667
O O1 0.411862 0.738320 0.143514
O O2 0.324897 0.929244 0.215979
O O3 0.229898 0.644941 0.215416
O O4 0.068344 0.832386 0.159353
O O5 0.742377 0.500000 0.500000
O O6 0.728941 0.707491 0.438021
O O7 0.839217 0.758831 0.523738
O O8 0.047015 0.594776 0.461103
O O9 0.429981 0.456001 0.578244
O O10 0.723981 0.514602 0.622854
O O11 0.245386 0.853134 0.300944
O O12 0.000000 0.990466 0.250000
O O13 0.806968 0.706465 0.111485
#
# Coordination Sequence:
#
# PCOD9319535 Si02
#       6
#     8   8   8   8   8   8
#     4  10  21  44  72 100 145 191 231 300 356 417
#     4  12  25  42  68 100 138 185 232 287 354 423
#     4  11  24  43  69 102 141 185 236 292 346 428
#     4   9  21  41  68 101 141 186 234 292 354 421
#     4  12  25  42  69 100 137 184 231 281 358 418
#     4  10  22  43  67  98 141 176 236 292 345 422
#
# _framework density 26.234648
#
# number of rings (size 3 to 8) (size 9 to 14) (size 15 to 20)
#    0.000    1.333    5.000    0.000    0.000    7.333 
#    0.000   14.167    0.000    0.000    0.000    0.000 
#    0.000    0.000    0.000    0.000    0.000    0.000 
#
# Total GULP energy -134025.506633 kJ/mol
# GULP energy per Si atom -5584.396110 kJ/mol
# Density = 2.617494 g / cm^3
# Si number density = 26.234648 Si / 1000 Ang^3
#
#
#
# Elastic Constant Matrix: (Units=GPa)
#
#
# Indices 1 2 3 4 5 6 
#
# 1 83.8395 -2.0390 47.5422 0.0000 0.0000 0.0000
# 2 -2.0390 36.4861 36.6696 0.0000 0.0000 0.0000
# 3 47.5422 36.6696 155.1914 0.0000 0.0000 0.0000
# 4 0.0000 0.0000 0.0000 55.6037 0.0000 0.0000
# 5 0.0000 0.0000 0.0000 0.0000 46.6333 0.0000
# 6 0.0000 0.0000 0.0000 0.0000 0.0000 21.9568
#
#
#
# Elastic Compliance Matrix: (Units=1/GPa)
#
#
# Indices 1 2 3 4 5 6 
#
# 1 0.015887 0.007579 -0.006658 0.000000 0.000000 0.000000
# 2 0.007579 0.039559 -0.011669 0.000000 0.000000 0.000000
# 3 -0.006658 -0.011669 0.011240 0.000000 0.000000 0.000000
# 4 0.000000 0.000000 0.000000 0.017984 0.000000 0.000000
# 5 0.000000 0.000000 0.000000 0.000000 0.021444 0.000000
# 6 0.000000 0.000000 0.000000 0.000000 0.000000 0.045544
#
#
# Mechanical properties :
#
#
# Convention : Reuss Voigt Hill
#
# Bulk Modulus (GPa) = 22.12819 48.87362 35.50090
# Shear Modulus (GPa) = 26.56489 37.72839 32.14664
#
# Velocity S-wave (km/s) = 3.18557 3.79636 3.50430
# Velocity P-wave (km/s) = 4.68866 6.15519 5.47128
#
# Compressibility (1/GPa) = 0.04519123
#
# Stress axis : x y z
#
# Youngs Moduli (GPa) = 62.94344 25.27871 88.96406
#
# Poissons Ratio (x) = -0.19159 0.59231
# Poissons Ratio (y) = -0.47706 1.03813
# Poissons Ratio (z) = 0.41907 0.29498
#
# Static dielectric constant tensor:
#      x y z
#    x 2.114270 0.000000 0.000000 
#    y 0.000000 2.014530 0.000000 
#    z 0.000000 0.000000 2.093420 
# 
# From -- ./inp_files/30964.got.cif
#   From: 2010.05.17/outbox.cif.g08.bks.cpg/sg20_16_cif.got.tgz:30964.got - 2010.06.03 22:52:26.
