data_PCOD9319801
_publ_section_title
;
Structure prediction by ZEFSAII (Michael W. Deem and Ramdas Pophale) SiO2 
 PCOD9319801
Probable space group: C 2 2 21
;
_chemical_formula_sum "Si O2"
_cell_formula_units_Z 60
_cell_length_a 11.892373
_cell_length_b 28.523301
_cell_length_c 8.855006
_cell_angle_alpha 90.000000
_cell_angle_beta 90.000000
_cell_angle_gamma 90.000000
_cell_volume 3003.704236
_symmetry_space_group_name_H-M "C 2 2 21"
_symmetry_group_IT_number 20
_symmetry_cell_setting 'orthorhombic'
loop_
_space_group_symop_operation_xyz
x,y,z
-x,-y,1/2+z
x,-y,-z
-x,y,1/2-z
1/2+x,1/2+y,z
1/2-x,1/2-y,1/2+z
1/2+x,1/2-y,-z
1/2-x,1/2+y,1/2-z
loop_
_atom_site_type_symbol
_atom_site_label
_atom_site_fract_x
_atom_site_fract_y
_atom_site_fract_z
Si Si1 0.078190 0.824187 0.103659
Si Si2 0.949282 0.285764 0.578095
Si Si3 0.395710 0.606934 0.340393
Si Si4 0.000000 0.675582 0.750000
Si Si5 0.767297 0.623320 0.736102
Si Si6 0.275660 0.868835 0.588290
Si Si7 0.795969 0.445389 0.024798
Si Si8 0.037352 0.548763 0.083333
O O1 0.076939 0.769277 0.069068
O O2 0.200279 0.842334 0.154212
O O3 0.000000 0.832383 0.250000
O O4 0.052834 0.855845 0.958238
O O5 0.010061 0.297949 0.415096
O O6 0.842779 0.320237 0.581792
O O7 0.000000 0.292973 0.750000
O O8 0.500000 0.584491 0.250000
O O9 0.312325 0.631535 0.222263
O O10 0.308540 0.573187 0.426903
O O11 0.107930 0.643158 0.772673
O O12 0.715141 0.624171 0.571398
O O13 0.770784 0.572017 0.807266
O O14 0.365120 0.912182 0.596273
O O15 0.922791 0.428050 0.984917
O O16 0.803610 0.500000 0.000000
O O17 0.000000 0.534234 0.250000
O O18 0.068361 0.500000 0.000000
#
# Coordination Sequence:
#
# PCOD9319801 Si02
#       8
#     8   8   8   4   8   8   8   8
#     4  10  23  44  63  90 122 171 215 273 323 384
#     4  10  23  40  65  93 132 164 219 270 329 395
#     4  11  24  42  64  88 124 170 222 264 313 379
#     4  10  22  40  62 100 126 174 206 264 334 396
#     4  10  22  40  62  90 131 162 211 260 328 389
#     4  11  23  38  65  97 126 169 207 268 326 390
#     4  10  22  41  65  90 127 167 208 263 324 379
#     4  11  23  38  64  99 130 161 204 255 327 394
#
# _framework density 19.975337
#
# number of rings (size 3 to 8) (size 9 to 14) (size 15 to 20)
#    0.000    1.600    1.333    2.800    8.400    2.133 
#    4.800    4.667    0.000    0.000    0.000    0.000 
#    0.000    0.000    0.000    0.000    0.000    0.000 
#
# Total GULP energy -167188.775224 kJ/mol
# GULP energy per Si atom -5572.959174 kJ/mol
# Density = 1.992987 g / cm^3
# Si number density = 19.975337 Si / 1000 Ang^3
#
#
#
# Elastic Constant Matrix: (Units=GPa)
#
#
# Indices 1 2 3 4 5 6 
#
# 1 79.3578 25.0878 12.6795 0.0000 0.0000 0.0000
# 2 25.0878 64.0156 36.6007 0.0000 0.0000 0.0000
# 3 12.6795 36.6007 125.0818 0.0000 0.0000 0.0000
# 4 0.0000 0.0000 0.0000 25.9278 0.0000 0.0000
# 5 0.0000 0.0000 0.0000 0.0000 28.0235 0.0000
# 6 0.0000 0.0000 0.0000 0.0000 0.0000 17.5218
#
#
#
# Elastic Compliance Matrix: (Units=1/GPa)
#
#
# Indices 1 2 3 4 5 6 
#
# 1 0.014389 -0.005770 0.000230 0.000000 0.000000 0.000000
# 2 -0.005770 0.021074 -0.005582 0.000000 0.000000 0.000000
# 3 0.000230 -0.005582 0.009605 0.000000 0.000000 0.000000
# 4 0.000000 0.000000 0.000000 0.038569 0.000000 0.000000
# 5 0.000000 0.000000 0.000000 0.000000 0.035684 0.000000
# 6 0.000000 0.000000 0.000000 0.000000 0.000000 0.057072
#
#
# Mechanical properties :
#
#
# Convention : Reuss Voigt Hill
#
# Bulk Modulus (GPa) = 43.81518 46.35460 45.08489
# Shear Modulus (GPa) = 24.24317 27.23377 25.73847
#
# Velocity S-wave (km/s) = 3.48753 3.69639 3.59348
# Velocity P-wave (km/s) = 6.18057 6.44003 6.31164
#
# Compressibility (1/GPa) = 0.02282314
#
# Stress axis : x y z
#
# Youngs Moduli (GPa) = 69.49927 47.45221 104.11567
#
# Poissons Ratio (x) = 0.27382 -0.02394
# Poissons Ratio (y) = 0.40104 0.58113
# Poissons Ratio (z) = -0.01598 0.26486
#
# Static dielectric constant tensor:
#      x y z
#    x 1.728690 0.000000 0.000000 
#    y 0.000000 1.701390 0.000000 
#    z 0.000000 0.000000 1.712890 
# 
# From -- ./inp_files/7565.got.cif
#   From: 2010.05.17/outbox.cif.g08.bks.cpg/sg20_4_cif.got.tgz:7565.got - 2010.06.03 22:52:26.
